AV-unprocessed.smi:2345|AV-procd|sdf|9363|dock9
  -GOLD-   2272012583D 1   1.00000     0.00000
 Structure written by MMmdl.
 37 38  0  0  0  0  0  0  0  0  1 V2000
  146.7920  138.7106  152.3809 C   0  0  0  0  0  0  0  0  0  0  0  0
  145.8920  137.7085  151.6533 C   0  0  0  0  0  0  0  0  0  0  0  0
  144.9426  136.6997  152.8241 S   0  0  0  0  0  0  0  0  0  0  0  0
  144.2507  135.4418  151.6999 C   0  0  2  0  0  0  0  0  0  0  0  0
  143.5181  134.3109  152.4213 C   0  0  0  0  0  0  0  0  0  0  0  0
  143.4010  133.2195  151.3592 C   0  0  0  0  0  0  0  0  0  0  0  0
  144.6668  133.3421  150.5006 C   0  0  0  0  0  0  0  0  0  0  0  0
  145.2849  134.7244  150.8067 C   0  0  2  0  0  0  0  0  0  0  0  0
  146.5792  134.5796  151.4735 N   0  0  0  0  0  0  0  0  0  0  0  0
  146.8769  133.6483  152.3898 C   0  0  0  0  0  0  0  0  0  0  0  0
  146.0686  132.8190  152.8071 O   0  0  0  0  0  0  0  0  0  0  0  0
  148.1508  133.7579  152.8010 N   0  0  0  0  0  0  0  0  0  0  0  0
  148.8044  132.9612  153.7756 C   0  0  0  0  0  0  0  0  0  0  0  0
  148.4812  131.5902  153.8406 C   0  0  0  0  0  0  0  0  0  0  0  0
  149.1076  130.7931  154.8193 C   0  0  0  0  0  0  0  0  0  0  0  0
  149.9950  131.2767  155.7139 N   0  0  0  0  0  0  0  0  0  0  0  0
  150.2829  132.5953  155.6659 C   0  0  0  0  0  0  0  0  0  0  0  0
  149.7130  133.4817  154.7298 C   0  0  0  0  0  0  0  0  0  0  0  0
  150.0182  134.8006  154.7811 F   0  0  0  0  0  0  0  0  0  0  0  0
  147.3579  139.3121  151.6695 H   0  0  0  0  0  0  0  0  0  0  0  0
  147.5058  138.2002  153.0280 H   0  0  0  0  0  0  0  0  0  0  0  0
  146.2043  139.3904  152.9985 H   0  0  0  0  0  0  0  0  0  0  0  0
  145.2032  138.2389  150.9961 H   0  0  0  0  0  0  0  0  0  0  0  0
  146.4959  137.0516  151.0271 H   0  0  0  0  0  0  0  0  0  0  0  0
  143.5382  135.9451  151.0443 H   0  0  0  0  0  0  0  0  0  0  0  0
  144.1166  133.9503  153.2590 H   0  0  0  0  0  0  0  0  0  0  0  0
  142.5453  134.6145  152.8084 H   0  0  0  0  0  0  0  0  0  0  0  0
  143.2878  132.2268  151.7957 H   0  0  0  0  0  0  0  0  0  0  0  0
  142.5223  133.4082  150.7410 H   0  0  0  0  0  0  0  0  0  0  0  0
  145.3589  132.5318  150.7347 H   0  0  0  0  0  0  0  0  0  0  0  0
  144.4202  133.2486  149.4426 H   0  0  0  0  0  0  0  0  0  0  0  0
  145.4253  135.2963  149.8875 H   0  0  0  0  0  0  0  0  0  0  0  0
  147.3057  135.2217  151.1920 H   0  0  0  0  0  0  0  0  0  0  0  0
  148.6650  134.5597  152.4677 H   0  0  0  0  0  0  0  0  0  0  0  0
  147.7760  131.1518  153.1496 H   0  0  0  0  0  0  0  0  0  0  0  0
  148.8869  129.7381  154.8868 H   0  0  0  0  0  0  0  0  0  0  0  0
  150.9805  132.9584  156.4060 H   0  0  0  0  0  0  0  0  0  0  0  0
  1  2  1  0  0  0  0
  1 20  1  0  0  0  0
  1 21  1  0  0  0  0
  1 22  1  0  0  0  0
  2  3  1  0  0  0  0
  2 23  1  0  0  0  0
  2 24  1  0  0  0  0
  3  4  1  0  0  0  0
  4  8  1  0  0  0  0
  4  5  1  0  0  0  0
  4 25  1  0  0  0  0
  5  6  1  0  0  0  0
  5 26  1  0  0  0  0
  5 27  1  0  0  0  0
  6  7  1  0  0  0  0
  6 28  1  0  0  0  0
  6 29  1  0  0  0  0
  7  8  1  0  0  0  0
  7 30  1  0  0  0  0
  7 31  1  0  0  0  0
  8  9  1  0  0  0  0
  8 32  1  0  0  0  0
  9 10  1  0  0  0  0
  9 33  1  0  0  0  0
 10 11  2  0  0  0  0
 10 12  1  0  0  0  0
 12 13  1  0  0  0  0
 12 34  1  0  0  0  0
 13 18  1  0  0  0  0
 13 14  2  0  0  0  0
 14 15  1  0  0  0  0
 14 35  1  0  0  0  0
 15 16  2  0  0  0  0
 15 36  1  0  0  0  0
 16 17  1  0  0  0  0
 17 18  2  0  0  0  0
 17 37  1  0  0  0  0
 18 19  1  0  0  0  0
M  END
> <s_m_source_file>
AV-unprocessed.smi

> <i_m_source_file_index>
2345

> <i_lp_mmshare_version>
43012

> <i_f3d_flags>
0

> <s_epik_input>
W0NIM11bQ0gyXVNbQ0BASF0xW0NIMl1bQ0gyXVtDSDJdW0NASF0xW05IXUMoPU8pW05IXWMyW2NIXVtjSF1uW2NIXWMyRg==

> <s_epik_cmdline>
J2VwaWtfcHl0aG9uJywgJy1waCcsICc3LjAnLCAnLXRuJywgJzgnLCAnLW1hJywgJzIwMCcsICctbWV0YWxfYmluZGluZycsICctaW1hZScsICc8aW5maWxlLm1hZT4nLCAnLW9tYWUnLCAnPG91dGZpbGUubWFlPic=

> <r_epik_Ionization_Penalty>
0.00333745

> <r_epik_Ionization_Penalty_Charging>
0

> <r_epik_Ionization_Penalty_Neutral>
0.00333745

> <r_epik_State_Penalty>
0.00233401

> <r_epik_Charging_Adjusted_Penalty>
0.00233401

> <i_epik_Tot_Q>
0

> <i_epik_Tot_abs_Q>
0

> <r_epik_Metal_State_Penalty>
-0

> <b_epik_Metal_Only>
0

> <s_lp_Force_Field>
OPLS_2005

> <r_lp_Energy>
24.389

> <b_lp_Chiralities_Consistent>
1

> <s_lp_Variant>
AV-unprocessed.smi:2345-3

> <Gold.Version>
5.8.1

> <Gold.Id.Protein>
6NUR|6NUR_protein|mol2

> <Gold.PLP.Fitness>
38.0849

> <Gold.PLP.PLP>
-35.0270

> <Gold.PLP.part.hbond>
-2.0000

> <Gold.PLP.part.metal>
0.0000

> <Gold.PLP.part.buried>
-0.7610

> <Gold.PLP.part.nonpolar>
-32.7432

> <Gold.PLP.part.repulsive>
0.1884

> <Gold.PLP.ligand.clash>
0.0263

> <Gold.PLP.ligand.torsion>
0.6299

> <Gold.PLP.Chemscore.Hbond>
1.3960

> <Gold.PLP.Chemscore.CHOScore>
0.0000

> <Gold.PLP.Chemscore.Metal>
0.0000

> <Gold.Chemscore.Hbonds>
donor molecule, donor type, donor heavy atom, donor atom, acceptor molecule, acceptor atom, score
      L1  H     9    33       P1  7948  0.90
      L1  H    12    34       P1  7948  0.50

> <Gold.PLP.Chemscore.Internal.Correction>
0.1559

> <Gold.Rescore>
     Score         DG    S(hbond)    S(metal)    S(lipo)     H(rot)  DE(clash)    DE(int)     intcor
     11.17     -14.96       1.47        0.00      68.58       1.35       0.17       3.62       ----

> <Gold.Chemscore.Fitness>
11.1692

> <Gold.Chemscore.DG>
-14.9588

> <Gold.Chemscore.ZeroCoef>
-5.4800

> <Gold.Chemscore.Hbond>
1.4685

> <Gold.Chemscore.Metal>
0.0000

> <Gold.Chemscore.Lipo>
68.5789

> <Gold.Chemscore.Internal_Hbond>
0.0000

> <Gold.Chemscore.DEClash>
0.1712

> <Gold.Chemscore.DEInternal>
3.6184

> <Gold.Chemscore.Rot>
1.3475

> <Gold.Chemscore.Internal.Correction>
   9.000000E+99

> <Gold.Chemscore.Hbonds>
donor molecule, donor type, donor heavy atom, donor atom, acceptor molecule, acceptor atom, score
      L1  H     9    33       P1  7948  0.56
      L1  H    12    34       P1  7948  0.02

> <Gold.Chemscore.Hbond.Weighted>
-4.9047

> <Gold.Chemscore.Metal.Weighted>
-0.0000

> <Gold.Chemscore.Lipo.Weighted>
-8.0237

> <Gold.Chemscore.Internal_Hbond.Weighted>
0.0000

> <Gold.Chemscore.DEClash.Weighted>
0.1712

> <Gold.Chemscore.DEInternal.Weighted>
3.6184

> <Gold.Chemscore.Rot.Weighted>
3.4496

> <Gold.Chemscore.Internal.Correction.Weighted>
   9.000000E+99

> <Gold.Protein.RotatedTorsions>
[ 6907 6896 6895 6894 ] final  -51.38 input  -60.11 | X-H torsion
[ 7974 7965 7964 7962 ] final  112.99 input  175.53 | X-H torsion
[ 8008 7997 7996 7995 ] final   -9.44 input   59.86 | X-H torsion
[ 10167 10162 10161 10158 ] final  131.36 input  -65.29 | X-H torsion
[ 10718 10713 10712 10709 ] final   41.98 input   66.30 | X-H torsion
[ 10763 10752 10751 10750 ] final  -14.93 input  -60.55 | X-H torsion
[ 11005 11000 10999 10996 ] final   36.07 input  -57.11 | X-H torsion

> <Gold.Protein.ActiveResidues>
 VAL166  LYS551  ARG553  GLY616  TRP617  ASP618  TYR619  PRO620  LYS621  CYS622 
 ASP623  PHE694  ASN695  SER759  ASP760  ASP761  ALA762  ILE779  LEU786  VAL792 
 PHE793  MET794  SER795  GLU796  ALA797  LYS798  CYS799  TRP800  GLU811  SER814 

> <Gold.Protein.RotatedAtoms>
  150.8617  134.7970  159.7087 H   0  0  0  0  0  0  0  0  0  0  0  0  # atno 6907 bound_to 6896
  152.4652  134.5089  159.9757 H   0  0  0  0  0  0  0  0  0  0  0  0  # atno 6908 bound_to 6896
  151.5192  133.3431  159.2934 H   0  0  0  0  0  0  0  0  0  0  0  0  # atno 6909 bound_to 6896
  145.2225  139.2855  143.4210 H   0  0  0  0  0  0  0  0  0  0  0  0  # atno 7974 bound_to 7965
  154.5647  140.2355  155.8282 H   0  0  0  0  0  0  0  0  0  0  0  0  # atno 8008 bound_to 7997
  156.2058  140.3040  155.9583 H   0  0  0  0  0  0  0  0  0  0  0  0  # atno 8009 bound_to 7997
  155.2823  140.0423  157.3007 H   0  0  0  0  0  0  0  0  0  0  0  0  # atno 8010 bound_to 7997
  139.5387  144.6709  151.4697 H   0  0  0  0  0  0  0  0  0  0  0  0  # atno 10167 bound_to 10162
  157.3997  130.7853  149.7338 H   0  0  0  0  0  0  0  0  0  0  0  0  # atno 10718 bound_to 10713
  153.5357  135.7014  153.5661 H   0  0  0  0  0  0  0  0  0  0  0  0  # atno 10763 bound_to 10752
  153.3649  135.3960  155.1746 H   0  0  0  0  0  0  0  0  0  0  0  0  # atno 10764 bound_to 10752
  154.8679  135.3798  154.4857 H   0  0  0  0  0  0  0  0  0  0  0  0  # atno 10765 bound_to 10752
  140.2363  134.3468  155.7943 H   0  0  0  0  0  0  0  0  0  0  0  0  # atno 11005 bound_to 11000
  146.3372  140.2536  142.8599 LP  0  0  0  0  0  0  0  0  0  0  0  0  # atno 17320 bound_to 7965
  144.9752  140.8406  143.5431 LP  0  0  0  0  0  0  0  0  0  0  0  0  # atno 17321 bound_to 7965
  140.6607  143.8505  150.6884 LP  0  0  0  0  0  0  0  0  0  0  0  0  # atno 17342 bound_to 10162
  140.1898  143.4045  152.1871 LP  0  0  0  0  0  0  0  0  0  0  0  0  # atno 17343 bound_to 10162
  155.9820  130.4014  150.3441 LP  0  0  0  0  0  0  0  0  0  0  0  0  # atno 17370 bound_to 10713
  157.1567  131.0335  151.2860 LP  0  0  0  0  0  0  0  0  0  0  0  0  # atno 17371 bound_to 10713
  141.2214  133.7273  156.8813 LP  0  0  0  0  0  0  0  0  0  0  0  0  # atno 17394 bound_to 11000
  140.1699  134.9107  157.2820 LP  0  0  0  0  0  0  0  0  0  0  0  0  # atno 17395 bound_to 11000

$$$$
