AV-unprocessed.smi:203|AV-procd|sdf|1594|dock2
  -GOLD-   2262019493D 1   1.00000     0.00000
 Structure written by MMmdl.
 57 61  0  0  0  0  0  0  0  0  1 V2000
  157.0193  139.5253  160.6699 O   0  0  0  0  0  0  0  0  0  0  0  0
  155.8970  139.4358  160.1781 C   0  0  0  0  0  0  0  0  0  0  0  0
  154.6537  140.0397  160.8084 C   0  0  0  0  0  0  0  0  0  0  0  0
  153.5773  139.8767  159.7156 C   0  0  1  0  0  0  0  0  0  0  0  0
  153.1203  141.2146  159.0515 C   0  0  2  0  0  0  0  0  0  0  0  0
  153.0977  142.4036  160.0487 C   0  0  0  0  0  0  0  0  0  0  0  0
  152.6503  143.7057  159.3716 C   0  0  0  0  0  0  0  0  0  0  0  0
  151.2852  143.5045  158.7051 C   0  0  0  0  0  0  0  0  0  0  0  0
  151.3404  142.3281  157.7216 C   0  0  0  0  0  0  0  0  0  0  0  0
  151.8144  141.1085  158.3754 N   0  0  0  0  0  0  0  0  0  0  0  0
  151.6412  140.0421  157.5629 C   0  0  0  0  0  0  0  0  0  0  0  0
  152.4778  139.9304  156.5024 N   0  0  0  0  0  0  0  0  0  0  0  0
  152.3482  138.9043  155.6559 C   0  0  0  0  0  0  0  0  0  0  0  0
  151.4695  137.8997  155.6889 N   0  0  0  0  0  0  0  0  0  0  0  0
  150.6332  138.0068  156.7610 C   0  0  0  0  0  0  0  0  0  0  0  0
  150.6492  139.0370  157.7424 C   0  0  0  0  0  0  0  0  0  0  0  0
  149.6498  138.8133  158.6820 N   0  0  0  0  0  0  0  0  0  0  0  0
  149.0725  137.7152  158.2763 C   0  0  0  0  0  0  0  0  0  0  0  0
  149.5973  137.1665  157.1285 N   0  0  0  0  0  0  0  0  0  0  0  0
  149.1427  135.9590  156.4610 C   0  0  0  0  0  0  0  0  0  0  0  0
  150.2845  134.9427  156.2446 C   0  0  1  0  0  0  0  0  0  0  0  0
  150.9674  134.7809  157.4731 O   0  0  0  0  0  0  0  0  0  0  0  0
  149.7865  133.5533  155.7974 C   0  0  1  0  0  0  0  0  0  0  0  0
  149.2910  133.4811  154.3512 C   0  0  0  0  0  0  0  0  0  0  0  0
  149.4656  132.0171  153.9835 C   0  0  0  0  0  0  0  0  0  0  0  0
  150.4513  131.4918  155.0294 C   0  0  0  0  0  0  0  0  0  0  0  0
  150.8738  132.6407  155.7507 O   0  0  0  0  0  0  0  0  0  0  0  0
  154.1824  138.8733  158.7104 C   0  0  0  0  0  0  0  0  0  0  0  0
  155.5925  138.8107  159.0426 N   0  0  0  0  0  0  0  0  0  0  0  0
  154.3938  139.4713  161.7019 H   0  0  0  0  0  0  0  0  0  0  0  0
  154.8182  141.0761  161.1044 H   0  0  0  0  0  0  0  0  0  0  0  0
  152.7095  139.3846  160.1557 H   0  0  0  0  0  0  0  0  0  0  0  0
  153.8539  141.4607  158.2830 H   0  0  0  0  0  0  0  0  0  0  0  0
  152.4203  142.1909  160.8758 H   0  0  0  0  0  0  0  0  0  0  0  0
  154.0803  142.5586  160.4929 H   0  0  0  0  0  0  0  0  0  0  0  0
  152.5966  144.5116  160.1040 H   0  0  0  0  0  0  0  0  0  0  0  0
  153.3867  144.0069  158.6255 H   0  0  0  0  0  0  0  0  0  0  0  0
  150.5273  143.3122  159.4659 H   0  0  0  0  0  0  0  0  0  0  0  0
  150.9826  144.4138  158.1853 H   0  0  0  0  0  0  0  0  0  0  0  0
  150.3486  142.1631  157.2976 H   0  0  0  0  0  0  0  0  0  0  0  0
  152.0035  142.5751  156.8911 H   0  0  0  0  0  0  0  0  0  0  0  0
  153.0479  138.8868  154.8333 H   0  0  0  0  0  0  0  0  0  0  0  0
  148.2394  137.2734  158.8038 H   0  0  0  0  0  0  0  0  0  0  0  0
  148.3380  135.5122  157.0465 H   0  0  0  0  0  0  0  0  0  0  0  0
  148.7049  136.2553  155.5076 H   0  0  0  0  0  0  0  0  0  0  0  0
  150.9813  135.3379  155.5043 H   0  0  0  0  0  0  0  0  0  0  0  0
  151.8333  135.1496  157.3859 H   0  0  0  0  0  0  0  0  0  0  0  0
  149.0135  133.1762  156.4703 H   0  0  0  0  0  0  0  0  0  0  0  0
  148.2618  133.8233  154.2386 H   0  0  0  0  0  0  0  0  0  0  0  0
  149.9232  134.0942  153.7072 H   0  0  0  0  0  0  0  0  0  0  0  0
  148.5205  131.4764  154.0457 H   0  0  0  0  0  0  0  0  0  0  0  0
  149.8501  131.9090  152.9689 H   0  0  0  0  0  0  0  0  0  0  0  0
  149.9562  130.7992  155.7117 H   0  0  0  0  0  0  0  0  0  0  0  0
  151.3025  130.9790  154.5810 H   0  0  0  0  0  0  0  0  0  0  0  0
  153.7486  137.8815  158.8444 H   0  0  0  0  0  0  0  0  0  0  0  0
  154.0308  139.1590  157.6695 H   0  0  0  0  0  0  0  0  0  0  0  0
  156.2679  138.3383  158.4591 H   0  0  0  0  0  0  0  0  0  0  0  0
  1  2  2  0  0  0  0
  2 29  1  0  0  0  0
  2  3  1  0  0  0  0
  3  4  1  0  0  0  0
  3 30  1  0  0  0  0
  3 31  1  0  0  0  0
  4  5  1  0  0  0  0
  4 28  1  0  0  0  0
  4 32  1  0  0  0  0
  5 10  1  0  0  0  0
  5  6  1  0  0  0  0
  5 33  1  0  0  0  0
  6  7  1  0  0  0  0
  6 34  1  0  0  0  0
  6 35  1  0  0  0  0
  7  8  1  0  0  0  0
  7 36  1  0  0  0  0
  7 37  1  0  0  0  0
  8  9  1  0  0  0  0
  8 38  1  0  0  0  0
  8 39  1  0  0  0  0
  9 10  1  0  0  0  0
  9 40  1  0  0  0  0
  9 41  1  0  0  0  0
 10 11  1  0  0  0  0
 11 16  1  0  0  0  0
 11 12  2  0  0  0  0
 12 13  1  0  0  0  0
 13 14  2  0  0  0  0
 13 42  1  0  0  0  0
 14 15  1  0  0  0  0
 15 19  1  0  0  0  0
 15 16  2  0  0  0  0
 16 17  1  0  0  0  0
 17 18  2  0  0  0  0
 18 19  1  0  0  0  0
 18 43  1  0  0  0  0
 19 20  1  0  0  0  0
 20 21  1  0  0  0  0
 20 44  1  0  0  0  0
 20 45  1  0  0  0  0
 21 22  1  0  0  0  0
 21 23  1  0  0  0  0
 21 46  1  0  0  0  0
 22 47  1  0  0  0  0
 23 27  1  0  0  0  0
 23 24  1  0  0  0  0
 23 48  1  0  0  0  0
 24 25  1  0  0  0  0
 24 49  1  0  0  0  0
 24 50  1  0  0  0  0
 25 26  1  0  0  0  0
 25 51  1  0  0  0  0
 25 52  1  0  0  0  0
 26 27  1  0  0  0  0
 26 53  1  0  0  0  0
 26 54  1  0  0  0  0
 28 29  1  0  0  0  0
 28 55  1  0  0  0  0
 28 56  1  0  0  0  0
 29 57  1  0  0  0  0
M  END
> <s_m_source_file>
AV-unprocessed.smi

> <i_m_source_file_index>
203

> <i_lp_mmshare_version>
43012

> <i_f3d_flags>
0

> <s_epik_input>
Tz1DMVtDSDJdW0NASF0oW0NIMl1bTkhdMSlbQ0BASF0yW0NIMl1bQ0gyXVtDSDJdW0NIMl1OMmMobltjSF1uMyljKGMzNCluW2NIXW40W0NIMl1bQ0BIXShbT0hdKVtDQEBIXTVbQ0gyXVtDSDJdW0NIMl1PNQ==

> <s_epik_cmdline>
J2VwaWtfcHl0aG9uJywgJy1waCcsICc3LjAnLCAnLXRuJywgJzgnLCAnLW1hJywgJzIwMCcsICctbWV0YWxfYmluZGluZycsICctaW1hZScsICc8aW5maWxlLm1hZT4nLCAnLW9tYWUnLCAnPG91dGZpbGUubWFlPic=

> <r_lp_tautomer_probability>
1

> <r_epik_Ionization_Penalty>
0.00175146

> <r_epik_Ionization_Penalty_Charging>
0

> <r_epik_Ionization_Penalty_Neutral>
0.00175146

> <r_epik_State_Penalty>
0.00109045

> <r_epik_Charging_Adjusted_Penalty>
0.00109045

> <i_epik_Tot_Q>
0

> <i_epik_Tot_abs_Q>
0

> <r_epik_Metal_State_Penalty>
-0

> <b_epik_Metal_Only>
0

> <s_lp_Force_Field>
OPLS_2005

> <r_lp_Energy>
57.3178

> <b_lp_Chiralities_Consistent>
1

> <s_lp_Variant>
AV-unprocessed.smi:203-13

> <Gold.Version>
5.8.1

> <Gold.Id.Protein>
6NUR|6NUR_protein|mol2

> <Gold.PLP.Fitness>
44.2361

> <Gold.PLP.PLP>
-41.3342

> <Gold.PLP.part.hbond>
-2.0648

> <Gold.PLP.part.metal>
0.0000

> <Gold.PLP.part.buried>
-5.6316

> <Gold.PLP.part.nonpolar>
-33.5545

> <Gold.PLP.part.repulsive>
0.1172

> <Gold.PLP.ligand.clash>
0.0000

> <Gold.PLP.ligand.torsion>
0.8067

> <Gold.PLP.Chemscore.Hbond>
1.4150

> <Gold.PLP.Chemscore.CHOScore>
0.0000

> <Gold.PLP.Chemscore.Metal>
0.0000

> <Gold.Chemscore.Hbonds>
donor molecule, donor type, donor heavy atom, donor atom, acceptor molecule, acceptor atom, score
      P1  H  6896  6909       L1    22  0.29
      P1  H  7997  8008       L1    12  0.95

> <Gold.PLP.Chemscore.Internal.Correction>
0.2705

> <Gold.Rescore>
     Score         DG    S(hbond)    S(metal)    S(lipo)     H(rot)  DE(clash)    DE(int)     intcor
     12.06     -13.77       1.05        0.00     100.34       2.72       0.05       1.67       ----

> <Gold.Chemscore.Fitness>
12.0558

> <Gold.Chemscore.DG>
-13.7746

> <Gold.Chemscore.ZeroCoef>
-5.4800

> <Gold.Chemscore.Hbond>
1.0510

> <Gold.Chemscore.Metal>
0.0000

> <Gold.Chemscore.Lipo>
100.3408

> <Gold.Chemscore.Internal_Hbond>
0.0000

> <Gold.Chemscore.DEClash>
0.0456

> <Gold.Chemscore.DEInternal>
1.6732

> <Gold.Chemscore.Rot>
2.7171

> <Gold.Chemscore.Internal.Correction>
   9.000000E+99

> <Gold.Chemscore.Hbonds>
donor molecule, donor type, donor heavy atom, donor atom, acceptor molecule, acceptor atom, score
      P1  H  6896  6909       L1    22  0.20
      P1  H  7997  8008       L1    12  0.21

> <Gold.Chemscore.Hbond.Weighted>
-3.5104

> <Gold.Chemscore.Metal.Weighted>
-0.0000

> <Gold.Chemscore.Lipo.Weighted>
-11.7399

> <Gold.Chemscore.Internal_Hbond.Weighted>
0.0000

> <Gold.Chemscore.DEClash.Weighted>
0.0456

> <Gold.Chemscore.DEInternal.Weighted>
1.6732

> <Gold.Chemscore.Rot.Weighted>
6.9557

> <Gold.Chemscore.Internal.Correction.Weighted>
   9.000000E+99

> <Gold.Protein.RotatedTorsions>
[ 6907 6896 6895 6894 ] final   18.76 input  -60.11 | X-H torsion
[ 7974 7965 7964 7962 ] final  159.82 input  175.53 | X-H torsion
[ 8008 7997 7996 7995 ] final  -50.69 input   59.86 | X-H torsion
[ 10167 10162 10161 10158 ] final  -93.81 input  -65.29 | X-H torsion
[ 10718 10713 10712 10709 ] final -103.89 input   66.30 | X-H torsion
[ 10763 10752 10751 10750 ] final  -14.31 input  -60.55 | X-H torsion
[ 11005 11000 10999 10996 ] final  111.41 input  -57.11 | X-H torsion

> <Gold.Protein.ActiveResidues>
 VAL166  LYS551  ARG553  GLY616  TRP617  ASP618  TYR619  PRO620  LYS621  CYS622 
 ASP623  PHE694  ASN695  SER759  ASP760  ASP761  ALA762  ILE779  LEU786  VAL792 
 PHE793  MET794  SER795  GLU796  ALA797  LYS798  CYS799  TRP800  GLU811  SER814 

> <Gold.Protein.RotatedAtoms>
  151.8704  135.0491  160.0478 H   0  0  0  0  0  0  0  0  0  0  0  0  # atno 6907 bound_to 6896
  152.2593  133.5279  159.5380 H   0  0  0  0  0  0  0  0  0  0  0  0  # atno 6908 bound_to 6896
  150.7111  134.0768  159.3926 H   0  0  0  0  0  0  0  0  0  0  0  0  # atno 6909 bound_to 6896
  144.7770  139.7670  143.6275 H   0  0  0  0  0  0  0  0  0  0  0  0  # atno 7974 bound_to 7965
  154.4067  140.1266  156.4707 H   0  0  0  0  0  0  0  0  0  0  0  0  # atno 8008 bound_to 7997
  155.7182  140.3493  155.4984 H   0  0  0  0  0  0  0  0  0  0  0  0  # atno 8009 bound_to 7997
  155.9238  140.1057  157.1176 H   0  0  0  0  0  0  0  0  0  0  0  0  # atno 8010 bound_to 7997
  140.3208  143.3050  152.0048 H   0  0  0  0  0  0  0  0  0  0  0  0  # atno 10167 bound_to 10162
  156.0283  130.5489  150.7318 H   0  0  0  0  0  0  0  0  0  0  0  0  # atno 10718 bound_to 10713
  153.5264  135.7015  153.5705 H   0  0  0  0  0  0  0  0  0  0  0  0  # atno 10763 bound_to 10752
  153.3732  135.3939  155.1803 H   0  0  0  0  0  0  0  0  0  0  0  0  # atno 10764 bound_to 10752
  154.8689  135.3817  154.4757 H   0  0  0  0  0  0  0  0  0  0  0  0  # atno 10765 bound_to 10752
  139.8903  134.9507  156.6427 H   0  0  0  0  0  0  0  0  0  0  0  0  # atno 11005 bound_to 11000
  146.1955  139.5219  142.9777 LP  0  0  0  0  0  0  0  0  0  0  0  0  # atno 17320 bound_to 7965
  145.6158  141.0331  143.1941 LP  0  0  0  0  0  0  0  0  0  0  0  0  # atno 17321 bound_to 7965
  139.4874  144.6312  151.7066 LP  0  0  0  0  0  0  0  0  0  0  0  0  # atno 17342 bound_to 10162
  140.5485  144.0464  150.6117 LP  0  0  0  0  0  0  0  0  0  0  0  0  # atno 17343 bound_to 10162
  157.4908  131.0910  151.0429 LP  0  0  0  0  0  0  0  0  0  0  0  0  # atno 17370 bound_to 10713
  157.0836  130.5913  149.5425 LP  0  0  0  0  0  0  0  0  0  0  0  0  # atno 17371 bound_to 10713
  140.7581  133.8841  155.8397 LP  0  0  0  0  0  0  0  0  0  0  0  0  # atno 17394 bound_to 11000
  140.9945  134.1234  157.4377 LP  0  0  0  0  0  0  0  0  0  0  0  0  # atno 17395 bound_to 11000

$$$$
