AV-unprocessed.smi:54|AV-procd|sdf|550|dock2
  -GOLD-   2262016443D 1   1.00000     0.00000
 Structure written by MMmdl.
 43 45  0  0  0  0  0  0  0  0  2 V2000
  145.2952  136.0594  160.0782 C   0  0  0  0  0  0  0  0  0  0  0  0
  146.6709  135.3906  159.9201 C   0  0  0  0  0  0  0  0  0  0  0  0
  146.9465  134.4047  161.0674 C   0  0  0  0  0  0  0  0  0  0  0  0
  147.7816  136.4468  159.8312 C   0  0  0  0  0  0  0  0  0  0  0  0
  147.9893  137.1827  160.7991 O   0  0  0  0  0  0  0  0  0  0  0  0
  148.4546  136.4822  158.6590 N   0  0  0  0  0  0  0  0  0  0  0  0
  149.5015  137.3250  158.2675 C   0  0  0  0  0  0  0  0  0  0  0  0
  149.4481  137.9611  157.1183 N   0  0  0  0  0  0  0  0  0  0  0  0
  150.5647  138.7425  156.8972 C   0  0  0  0  0  0  0  0  0  0  0  0
  151.6495  138.9066  157.7128 C   0  0  0  0  0  0  0  0  0  0  0  0
  152.5812  139.7698  157.1488 N   0  0  0  0  0  0  0  0  0  0  0  0
  152.0005  140.0912  155.9930 C   0  0  0  0  0  0  0  0  0  0  0  0
  150.8006  139.5158  155.7674 N   0  0  0  0  0  0  0  0  0  0  0  0
  149.8931  139.6705  154.5825 C   0  0  1  0  0  0  0  0  0  0  0  0
  148.7690  138.8631  154.7705 O   0  0  0  0  0  0  0  0  0  0  0  0
  147.6704  139.6622  155.1940 C   0  0  2  0  0  0  0  0  0  0  0  0
  146.3310  138.9394  154.9687 C   0  0  0  0  0  0  0  0  0  0  0  0
  145.2889  139.8813  154.8285 O   0  0  0  0  0  0  0  0  0  0  0  0
  147.8743  140.9464  154.3810 C   0  0  2  0  0  0  0  0  0  0  0  0
  147.4141  140.7788  153.0524 O   0  0  0  0  0  0  0  0  0  0  0  0
  149.3881  141.1237  154.4011 C   0  0  1  0  0  0  0  0  0  0  0  0
  149.7522  142.0023  155.4520 O   0  0  0  0  0  0  0  0  0  0  0  0
  151.6383  138.1637  158.9956 C   0  0  0  0  0  0  0  0  0  0  0  0
  152.5909  138.2809  159.7640 O   0  0  0  0  0  0  0  0  0  0  0  0
  150.5333  137.3888  159.2173 N   0  5  0  0  0  0  0  0  0  0  0  0
  150.4825  139.3041  153.7412 H   0  0  0  0  0  0  0  0  0  0  0  0
  147.7905  139.9058  156.2513 H   0  0  0  0  0  0  0  0  0  0  0  0
  147.3436  141.7936  154.8179 H   0  0  0  0  0  0  0  0  0  0  0  0
  149.7706  141.5313  153.4642 H   0  0  0  0  0  0  0  0  0  0  0  0
  145.1067  136.7735  159.2754 H   0  0  0  0  0  0  0  0  0  0  0  0
  145.2147  136.5941  161.0254 H   0  0  0  0  0  0  0  0  0  0  0  0
  144.4967  135.3177  160.0493 H   0  0  0  0  0  0  0  0  0  0  0  0
  146.6603  134.8228  158.9881 H   0  0  0  0  0  0  0  0  0  0  0  0
  147.9247  133.9344  160.9597 H   0  0  0  0  0  0  0  0  0  0  0  0
  146.2020  133.6085  161.0824 H   0  0  0  0  0  0  0  0  0  0  0  0
  146.9191  134.8999  162.0389 H   0  0  0  0  0  0  0  0  0  0  0  0
  148.1426  135.8168  157.9672 H   0  0  0  0  0  0  0  0  0  0  0  0
  152.4664  140.7680  155.2922 H   0  0  0  0  0  0  0  0  0  0  0  0
  146.3699  138.3562  154.0481 H   0  0  0  0  0  0  0  0  0  0  0  0
  146.1080  138.2492  155.7830 H   0  0  0  0  0  0  0  0  0  0  0  0
  144.9565  139.8321  153.9453 H   0  0  0  0  0  0  0  0  0  0  0  0
  148.1651  140.6406  152.4953 H   0  0  0  0  0  0  0  0  0  0  0  0
  149.4252  142.8655  155.2456 H   0  0  0  0  0  0  0  0  0  0  0  0
  1  2  1  0  0  0  0
  1 30  1  0  0  0  0
  1 31  1  0  0  0  0
  1 32  1  0  0  0  0
  2  3  1  0  0  0  0
  2  4  1  0  0  0  0
  2 33  1  0  0  0  0
  3 34  1  0  0  0  0
  3 35  1  0  0  0  0
  3 36  1  0  0  0  0
  4  5  2  0  0  0  0
  4  6  1  0  0  0  0
  6 37  1  0  0  0  0
  6  7  1  0  0  0  0
  7 25  1  0  0  0  0
  7  8  2  0  0  0  0
  8  9  1  0  0  0  0
  9 13  1  0  0  0  0
  9 10  2  0  0  0  0
 10 11  1  0  0  0  0
 10 23  1  0  0  0  0
 11 12  2  0  0  0  0
 12 13  1  0  0  0  0
 12 38  1  0  0  0  0
 13 14  1  0  0  0  0
 14 26  1  0  0  0  0
 14 21  1  0  0  0  0
 14 15  1  0  0  0  0
 15 16  1  0  0  0  0
 16 27  1  0  0  0  0
 16 17  1  0  0  0  0
 16 19  1  0  0  0  0
 17 18  1  0  0  0  0
 17 39  1  0  0  0  0
 17 40  1  0  0  0  0
 18 41  1  0  0  0  0
 19 28  1  0  0  0  0
 19 20  1  0  0  0  0
 19 21  1  0  0  0  0
 20 42  1  0  0  0  0
 21 29  1  0  0  0  0
 21 22  1  0  0  0  0
 22 43  1  0  0  0  0
 23 24  2  0  0  0  0
 23 25  1  0  0  0  0
M  CHG  1  25  -1
M  END
> <s_m_source_file>
AV-unprocessed.smi

> <i_m_source_file_index>
54

> <i_lp_mmshare_version>
43012

> <i_f3d_flags>
0

> <s_epik_input>
W0NIM11bQ0hdKFtDSDNdKUMoPU8pW05IXWMobjEpW25IXWMoPU8pYyhjMTIpbltjSF1uMltDQEBIXTNPW0NASF0oW0NIMl1bT0hdKVtDQEBIXShbT0hdKVtDQEhdM1tPSF0=

> <s_epik_cmdline>
J2VwaWtfcHl0aG9uJywgJy1waCcsICc3LjAnLCAnLXRuJywgJzgnLCAnLW1hJywgJzIwMCcsICctbWV0YWxfYmluZGluZycsICctaW1hZScsICc8aW5maWxlLm1hZT4nLCAnLW9tYWUnLCAnPG91dGZpbGUubWFlPic=

> <r_lp_tautomer_probability>
0.85571

> <r_epik_Ionization_Penalty>
1.75936

> <r_epik_Ionization_Penalty_Charging>
4.55893e-11

> <r_epik_Ionization_Penalty_Neutral>
1.75936

> <r_epik_State_Penalty>
1.72072

> <r_epik_Charging_Adjusted_Penalty>
1.72072

> <i_epik_Tot_Q>
-1

> <i_epik_Tot_abs_Q>
1

> <r_epik_Metal_State_Penalty>
0.400338

> <b_epik_Metal_Only>
1

> <s_epik_Chemistry_Notes>
This compound contains an acetal/aminal-like group ( X-CH(R)-Y where X, Y are N, S, or O) that may be acid/base labile, releasing an aldehyde.

> <s_lp_Force_Field>
OPLS_2005

> <r_lp_Energy>
59.3573

> <b_lp_Chiralities_Consistent>
1

> <s_lp_Variant>
AV-unprocessed.smi:54-22

> <Gold.Version>
5.8.1

> <Gold.Id.Protein>
6NUR|6NUR_protein|mol2

> <Gold.PLP.Fitness>
43.7412

> <Gold.PLP.PLP>
-28.2341

> <Gold.PLP.part.hbond>
-6.0000

> <Gold.PLP.part.metal>
0.0000

> <Gold.PLP.part.buried>
-3.7394

> <Gold.PLP.part.nonpolar>
-18.4222

> <Gold.PLP.part.repulsive>
0.2281

> <Gold.PLP.ligand.clash>
0.0001

> <Gold.PLP.ligand.torsion>
0.7123

> <Gold.PLP.Chemscore.Hbond>
5.5830

> <Gold.PLP.Chemscore.CHOScore>
0.0000

> <Gold.PLP.Chemscore.Metal>
0.0000

> <Gold.Chemscore.Hbonds>
donor molecule, donor type, donor heavy atom, donor atom, acceptor molecule, acceptor atom, score
      L1  H    18    41       P1 10175  0.96
      L1  H    20    42       P1  7957  0.98
      L1  H    22    43       P1  8028  1.00
      P1  H  6931  6943       L1     5  0.86
      P1  H  6934  6947       L1     5  0.77
      P1  H  7997  8008       L1    11  1.00

> <Gold.PLP.Chemscore.Internal.Correction>
0.1827

> <Gold.Rescore>
     Score         DG    S(hbond)    S(metal)    S(lipo)     H(rot)  DE(clash)    DE(int)     intcor
     11.92     -16.24       5.12        0.00      33.77       4.02       0.03       4.29       ----

> <Gold.Chemscore.Fitness>
11.9204

> <Gold.Chemscore.DG>
-16.2417

> <Gold.Chemscore.ZeroCoef>
-5.4800

> <Gold.Chemscore.Hbond>
5.1198

> <Gold.Chemscore.Metal>
0.0000

> <Gold.Chemscore.Lipo>
33.7682

> <Gold.Chemscore.Internal_Hbond>
0.0000

> <Gold.Chemscore.DEClash>
0.0322

> <Gold.Chemscore.DEInternal>
4.2891

> <Gold.Chemscore.Rot>
4.0192

> <Gold.Chemscore.Internal.Correction>
   9.000000E+99

> <Gold.Chemscore.Hbonds>
donor molecule, donor type, donor heavy atom, donor atom, acceptor molecule, acceptor atom, score
      L1  H    18    41       P1 10175  0.86
      L1  H    20    42       P1  7957  0.91
      L1  H    22    43       P1  8028  0.97
      P1  H  6931  6943       L1     5  0.85
      P1  H  6934  6947       L1     5  0.71
      P1  H  7997  8008       L1    11  0.49

> <Gold.Chemscore.Hbond.Weighted>
-17.1001

> <Gold.Chemscore.Metal.Weighted>
-0.0000

> <Gold.Chemscore.Lipo.Weighted>
-3.9509

> <Gold.Chemscore.Internal_Hbond.Weighted>
0.0000

> <Gold.Chemscore.DEClash.Weighted>
0.0322

> <Gold.Chemscore.DEInternal.Weighted>
4.2891

> <Gold.Chemscore.Rot.Weighted>
10.2893

> <Gold.Chemscore.Internal.Correction.Weighted>
   9.000000E+99

> <Gold.Protein.RotatedTorsions>
[ 6907 6896 6895 6894 ] final  178.96 input  -60.11 | X-H torsion
[ 7974 7965 7964 7962 ] final -172.18 input  175.53 | X-H torsion
[ 8008 7997 7996 7995 ] final  -74.24 input   59.86 | X-H torsion
[ 10167 10162 10161 10158 ] final -138.95 input  -65.29 | X-H torsion
[ 10718 10713 10712 10709 ] final   13.54 input   66.30 | X-H torsion
[ 10763 10752 10751 10750 ] final  -12.70 input  -60.55 | X-H torsion
[ 11005 11000 10999 10996 ] final  -53.21 input  -57.11 | X-H torsion

> <Gold.Protein.ActiveResidues>
 VAL166  LYS551  ARG553  GLY616  TRP617  ASP618  TYR619  PRO620  LYS621  CYS622 
 ASP623  PHE694  ASN695  SER759  ASP760  ASP761  ALA762  ILE779  LEU786  VAL792 
 PHE793  MET794  SER795  GLU796  ALA797  LYS798  CYS799  TRP800  GLU811  SER814 

> <Gold.Protein.RotatedAtoms>
  151.6794  133.3312  159.3215 H   0  0  0  0  0  0  0  0  0  0  0  0  # atno 6907 bound_to 6896
  150.7830  134.6793  159.6444 H   0  0  0  0  0  0  0  0  0  0  0  0  # atno 6908 bound_to 6896
  152.3892  134.6472  160.0166 H   0  0  0  0  0  0  0  0  0  0  0  0  # atno 6909 bound_to 6896
  144.7149  140.1811  143.6358 H   0  0  0  0  0  0  0  0  0  0  0  0  # atno 7974 bound_to 7965
  154.5314  140.0765  156.8352 H   0  0  0  0  0  0  0  0  0  0  0  0  # atno 8008 bound_to 7997
  155.3366  140.3405  155.4221 H   0  0  0  0  0  0  0  0  0  0  0  0  # atno 8009 bound_to 7997
  156.1785  140.1644  156.8304 H   0  0  0  0  0  0  0  0  0  0  0  0  # atno 8010 bound_to 7997
  139.8428  143.7300  152.2662 H   0  0  0  0  0  0  0  0  0  0  0  0  # atno 10167 bound_to 10162
  157.0262  130.6174  149.5728 H   0  0  0  0  0  0  0  0  0  0  0  0  # atno 10718 bound_to 10713
  153.5023  135.7017  153.5825 H   0  0  0  0  0  0  0  0  0  0  0  0  # atno 10763 bound_to 10752
  153.3951  135.3886  155.1949 H   0  0  0  0  0  0  0  0  0  0  0  0  # atno 10764 bound_to 10752
  154.8709  135.3868  154.4495 H   0  0  0  0  0  0  0  0  0  0  0  0  # atno 10765 bound_to 10752
  141.0964  133.6624  156.4138 H   0  0  0  0  0  0  0  0  0  0  0  0  # atno 11005 bound_to 11000
  145.8855  139.2346  143.1580 LP  0  0  0  0  0  0  0  0  0  0  0  0  # atno 17320 bound_to 7965
  145.9954  140.8567  143.0045 LP  0  0  0  0  0  0  0  0  0  0  0  0  # atno 17321 bound_to 7965
  139.7542  144.7525  151.0460 LP  0  0  0  0  0  0  0  0  0  0  0  0  # atno 17342 bound_to 10162
  140.7796  143.4824  151.0000 LP  0  0  0  0  0  0  0  0  0  0  0  0  # atno 17343 bound_to 10162
  156.0085  130.5174  150.7911 LP  0  0  0  0  0  0  0  0  0  0  0  0  # atno 17370 bound_to 10713
  157.5212  131.0931  151.0075 LP  0  0  0  0  0  0  0  0  0  0  0  0  # atno 17371 bound_to 10713
  140.5129  134.6378  157.5291 LP  0  0  0  0  0  0  0  0  0  0  0  0  # atno 17394 bound_to 11000
  139.9802  134.7149  155.9873 LP  0  0  0  0  0  0  0  0  0  0  0  0  # atno 17395 bound_to 11000

$$$$
