AV-unprocessed.smi:1017|AV-procd|sdf|4438|dock2
  -GOLD-   22720 2393D 1   1.00000     0.00000
 Structure written by MMmdl.
 44 45  0  0  0  0  0  0  0  0  1 V2000
  152.0349  144.0358  158.1948 C   0  0  0  0  0  0  0  0  0  0  0  0
  150.8048  143.3337  158.2221 O   0  0  0  0  0  0  0  0  0  0  0  0
  150.9796  141.9288  158.1529 C   0  0  0  0  0  0  0  0  0  0  0  0
  150.7208  141.4673  156.7106 C   0  0  0  0  0  0  0  0  0  0  0  0
  149.3223  141.6734  156.3195 N   0  0  0  0  0  0  0  0  0  0  0  0
  148.4924  142.0451  157.3642 N   0  0  0  0  0  0  0  0  0  0  0  0
  147.2342  142.2551  157.1552 C   0  0  0  0  0  0  0  0  0  0  0  0
  146.3538  142.6611  158.2878 C   0  0  0  0  0  0  0  0  0  0  0  0
  145.8700  141.8160  159.0414 O   0  0  0  0  0  0  0  0  0  0  0  0
  146.1415  143.9845  158.4231 N   0  0  0  0  0  0  0  0  0  0  0  0
  145.3507  144.7177  159.4258 C   0  0  0  0  0  0  0  0  0  0  0  0
  144.0158  145.2133  158.7975 C   0  0  0  0  0  0  0  0  0  0  0  0
  144.2586  146.0209  157.7641 F   0  0  0  0  0  0  0  0  0  0  0  0
  143.2993  144.1779  158.3562 F   0  0  0  0  0  0  0  0  0  0  0  0
  143.2744  145.8924  159.6723 F   0  0  0  0  0  0  0  0  0  0  0  0
  145.0826  143.8615  160.6969 C   0  0  0  0  0  0  0  0  0  0  0  0
  146.3728  143.4480  161.4284 C   0  0  0  0  0  0  0  0  0  0  0  0
  147.2065  144.6781  161.8135 C   0  0  0  0  0  0  0  0  0  0  0  0
  147.5030  145.5524  160.5866 C   0  0  0  0  0  0  0  0  0  0  0  0
  146.2069  145.9424  159.8485 C   0  0  0  0  0  0  0  0  0  0  0  0
  146.6674  142.1027  155.8204 C   0  0  0  0  0  0  0  0  0  0  0  0
  147.4904  141.7380  154.8131 C   0  0  0  0  0  0  0  0  0  0  0  0
  148.9172  141.4947  155.0263 C   0  0  0  0  0  0  0  0  0  0  0  0
  149.6838  141.1568  154.1248 O   0  0  0  0  0  0  0  0  0  0  0  0
  151.8450  145.1081  158.2447 H   0  0  0  0  0  0  0  0  0  0  0  0
  152.5845  143.8340  157.2744 H   0  0  0  0  0  0  0  0  0  0  0  0
  152.6631  143.7651  159.0447 H   0  0  0  0  0  0  0  0  0  0  0  0
  151.9929  141.6663  158.4616 H   0  0  0  0  0  0  0  0  0  0  0  0
  150.2873  141.4327  158.8351 H   0  0  0  0  0  0  0  0  0  0  0  0
  151.3812  142.0127  156.0338 H   0  0  0  0  0  0  0  0  0  0  0  0
  150.9948  140.4168  156.5991 H   0  0  0  0  0  0  0  0  0  0  0  0
  146.5936  144.5709  157.7368 H   0  0  0  0  0  0  0  0  0  0  0  0
  144.4652  144.4344  161.3896 H   0  0  0  0  0  0  0  0  0  0  0  0
  144.4957  142.9746  160.4611 H   0  0  0  0  0  0  0  0  0  0  0  0
  146.1224  142.8781  162.3233 H   0  0  0  0  0  0  0  0  0  0  0  0
  146.9644  142.7825  160.7988 H   0  0  0  0  0  0  0  0  0  0  0  0
  146.6666  145.2651  162.5577 H   0  0  0  0  0  0  0  0  0  0  0  0
  148.1392  144.3647  162.2833 H   0  0  0  0  0  0  0  0  0  0  0  0
  148.0346  146.4522  160.8972 H   0  0  0  0  0  0  0  0  0  0  0  0
  148.1746  145.0209  159.9114 H   0  0  0  0  0  0  0  0  0  0  0  0
  146.4573  146.5460  158.9751 H   0  0  0  0  0  0  0  0  0  0  0  0
  145.6246  146.5925  160.5023 H   0  0  0  0  0  0  0  0  0  0  0  0
  145.6205  142.2726  155.6171 H   0  0  0  0  0  0  0  0  0  0  0  0
  147.0844  141.6219  153.8190 H   0  0  0  0  0  0  0  0  0  0  0  0
  1  2  1  0  0  0  0
  1 25  1  0  0  0  0
  1 26  1  0  0  0  0
  1 27  1  0  0  0  0
  2  3  1  0  0  0  0
  3  4  1  0  0  0  0
  3 28  1  0  0  0  0
  3 29  1  0  0  0  0
  4  5  1  0  0  0  0
  4 30  1  0  0  0  0
  4 31  1  0  0  0  0
  5 23  1  0  0  0  0
  5  6  1  0  0  0  0
  6  7  2  0  0  0  0
  7  8  1  0  0  0  0
  7 21  1  0  0  0  0
  8  9  2  0  0  0  0
  8 10  1  0  0  0  0
 10 11  1  0  0  0  0
 10 32  1  0  0  0  0
 11 20  1  0  0  0  0
 11 12  1  0  0  0  0
 11 16  1  0  0  0  0
 12 13  1  0  0  0  0
 12 14  1  0  0  0  0
 12 15  1  0  0  0  0
 16 17  1  0  0  0  0
 16 33  1  0  0  0  0
 16 34  1  0  0  0  0
 17 18  1  0  0  0  0
 17 35  1  0  0  0  0
 17 36  1  0  0  0  0
 18 19  1  0  0  0  0
 18 37  1  0  0  0  0
 18 38  1  0  0  0  0
 19 20  1  0  0  0  0
 19 39  1  0  0  0  0
 19 40  1  0  0  0  0
 20 41  1  0  0  0  0
 20 42  1  0  0  0  0
 21 22  2  0  0  0  0
 21 43  1  0  0  0  0
 22 23  1  0  0  0  0
 22 44  1  0  0  0  0
 23 24  2  0  0  0  0
M  END
> <s_m_source_file>
AV-unprocessed.smi

> <i_m_source_file_index>
1017

> <i_lp_mmshare_version>
43012

> <i_f3d_flags>
0

> <s_epik_input>
W0NIM11PW0NIMl1bQ0gyXW4xbmMoW2NIXVtjSF1jMT1PKUMoPU8pW05IXUMyKEMoRikoRilGKVtDSDJdW0NIMl1bQ0gyXVtDSDJdW0NIMl0y

> <s_epik_cmdline>
J2VwaWtfcHl0aG9uJywgJy1waCcsICc3LjAnLCAnLXRuJywgJzgnLCAnLW1hJywgJzIwMCcsICctbWV0YWxfYmluZGluZycsICctaW1hZScsICc8aW5maWxlLm1hZT4nLCAnLW9tYWUnLCAnPG91dGZpbGUubWFlPic=

> <r_lp_tautomer_probability>
1

> <r_epik_Ionization_Penalty>
9.29602e-06

> <r_epik_Ionization_Penalty_Charging>
4.97824e-09

> <r_epik_Ionization_Penalty_Neutral>
9.29104e-06

> <r_epik_State_Penalty>
-0

> <r_epik_Charging_Adjusted_Penalty>
4.97824e-09

> <i_epik_Tot_Q>
0

> <i_epik_Tot_abs_Q>
0

> <r_epik_Metal_State_Penalty>
0.00907788

> <b_epik_Metal_Only>
0

> <s_lp_Force_Field>
OPLS_2005

> <r_lp_Energy>
35.4859

> <b_lp_Chiralities_Consistent>
1

> <s_lp_Variant>
AV-unprocessed.smi:1017-1

> <Gold.Version>
5.8.1

> <Gold.Id.Protein>
6NUR|6NUR_protein|mol2

> <Gold.PLP.Fitness>
41.5487

> <Gold.PLP.PLP>
-37.4510

> <Gold.PLP.part.hbond>
-4.0000

> <Gold.PLP.part.metal>
0.0000

> <Gold.PLP.part.buried>
-0.6264

> <Gold.PLP.part.nonpolar>
-33.2841

> <Gold.PLP.part.repulsive>
0.7909

> <Gold.PLP.ligand.clash>
0.1165

> <Gold.PLP.ligand.torsion>
2.2018

> <Gold.PLP.Chemscore.Hbond>
2.8166

> <Gold.PLP.Chemscore.CHOScore>
0.0000

> <Gold.PLP.Chemscore.Metal>
0.0000

> <Gold.Chemscore.Hbonds>
donor molecule, donor type, donor heavy atom, donor atom, acceptor molecule, acceptor atom, score
      L1  H    10    32       P1  8029  0.95
      P1  H  6934  6946       L1     9  0.62
      P1  H  7989  7998       L1    24  0.41
      P1  H  8011  8017       L1    24  0.46

> <Gold.PLP.Chemscore.Internal.Correction>
0.1680

> <Gold.Rescore>
     Score         DG    S(hbond)    S(metal)    S(lipo)     H(rot)  DE(clash)    DE(int)     intcor
     10.45     -16.77       2.17        0.00      71.80       1.70       0.18       6.14       ----

> <Gold.Chemscore.Fitness>
10.4484

> <Gold.Chemscore.DG>
-16.7670

> <Gold.Chemscore.ZeroCoef>
-5.4800

> <Gold.Chemscore.Hbond>
2.1657

> <Gold.Chemscore.Metal>
0.0000

> <Gold.Chemscore.Lipo>
71.8015

> <Gold.Chemscore.Internal_Hbond>
0.0000

> <Gold.Chemscore.DEClash>
0.1796

> <Gold.Chemscore.DEInternal>
6.1390

> <Gold.Chemscore.Rot>
1.6982

> <Gold.Chemscore.Internal.Correction>
   9.000000E+99

> <Gold.Chemscore.Hbonds>
donor molecule, donor type, donor heavy atom, donor atom, acceptor molecule, acceptor atom, score
      L1  H    10    32       P1  8029  0.21
      P1  H  6934  6946       L1     9  0.58
      P1  H  7989  7998       L1    24  0.39
      P1  H  8011  8017       L1    24  0.44

> <Gold.Chemscore.Hbond.Weighted>
-7.2336

> <Gold.Chemscore.Metal.Weighted>
-0.0000

> <Gold.Chemscore.Lipo.Weighted>
-8.4008

> <Gold.Chemscore.Internal_Hbond.Weighted>
0.0000

> <Gold.Chemscore.DEClash.Weighted>
0.1796

> <Gold.Chemscore.DEInternal.Weighted>
6.1390

> <Gold.Chemscore.Rot.Weighted>
4.3474

> <Gold.Chemscore.Internal.Correction.Weighted>
   9.000000E+99

> <Gold.Protein.RotatedTorsions>
[ 6907 6896 6895 6894 ] final -136.86 input  -60.11 | X-H torsion
[ 7974 7965 7964 7962 ] final  -51.11 input  175.53 | X-H torsion
[ 8008 7997 7996 7995 ] final  -56.01 input   59.86 | X-H torsion
[ 10167 10162 10161 10158 ] final  165.60 input  -65.29 | X-H torsion
[ 10718 10713 10712 10709 ] final   17.45 input   66.30 | X-H torsion
[ 10763 10752 10751 10750 ] final   60.77 input  -60.55 | X-H torsion
[ 11005 11000 10999 10996 ] final   59.77 input  -57.11 | X-H torsion

> <Gold.Protein.ActiveResidues>
 VAL166  LYS551  ARG553  GLY616  TRP617  ASP618  TYR619  PRO620  LYS621  CYS622 
 ASP623  PHE694  ASN695  SER759  ASP760  ASP761  ALA762  ILE779  LEU786  VAL792 
 PHE793  MET794  SER795  GLU796  ALA797  LYS798  CYS799  TRP800  GLU811  SER814 

> <Gold.Protein.RotatedAtoms>
  151.0153  133.5927  159.2677 H   0  0  0  0  0  0  0  0  0  0  0  0  # atno 6907 bound_to 6896
  151.3064  135.0781  159.9266 H   0  0  0  0  0  0  0  0  0  0  0  0  # atno 6908 bound_to 6896
  152.5310  133.9825  159.7867 H   0  0  0  0  0  0  0  0  0  0  0  0  # atno 6909 bound_to 6896
  145.9225  140.7821  142.9640 H   0  0  0  0  0  0  0  0  0  0  0  0  # atno 7974 bound_to 7965
  154.4215  140.1139  156.5569 H   0  0  0  0  0  0  0  0  0  0  0  0  # atno 8008 bound_to 7997
  155.6351  140.3496  155.4677 H   0  0  0  0  0  0  0  0  0  0  0  0  # atno 8009 bound_to 7997
  155.9916  140.1180  157.0622 H   0  0  0  0  0  0  0  0  0  0  0  0  # atno 8010 bound_to 7997
  139.4909  144.4115  151.9294 H   0  0  0  0  0  0  0  0  0  0  0  0  # atno 10167 bound_to 10162
  157.0823  130.6393  149.5829 H   0  0  0  0  0  0  0  0  0  0  0  0  # atno 10718 bound_to 10713
  152.9931  135.5524  154.5927 H   0  0  0  0  0  0  0  0  0  0  0  0  # atno 10763 bound_to 10752
  154.5285  135.2812  155.1203 H   0  0  0  0  0  0  0  0  0  0  0  0  # atno 10764 bound_to 10752
  154.2527  135.6396  153.5299 H   0  0  0  0  0  0  0  0  0  0  0  0  # atno 10765 bound_to 10752
  140.0279  134.6055  155.9547 H   0  0  0  0  0  0  0  0  0  0  0  0  # atno 11005 bound_to 11000
  144.6754  140.1998  143.7388 LP  0  0  0  0  0  0  0  0  0  0  0  0  # atno 17320 bound_to 7965
  145.8531  139.2185  143.1760 LP  0  0  0  0  0  0  0  0  0  0  0  0  # atno 17321 bound_to 7965
  140.3556  144.3036  150.5942 LP  0  0  0  0  0  0  0  0  0  0  0  0  # atno 17342 bound_to 10162
  140.5447  143.2217  151.8026 LP  0  0  0  0  0  0  0  0  0  0  0  0  # atno 17343 bound_to 10162
  155.9920  130.4977  150.7323 LP  0  0  0  0  0  0  0  0  0  0  0  0  # atno 17370 bound_to 10713
  157.4790  131.0900  151.0558 LP  0  0  0  0  0  0  0  0  0  0  0  0  # atno 17371 bound_to 10713
  141.1814  133.6547  156.5035 LP  0  0  0  0  0  0  0  0  0  0  0  0  # atno 17394 bound_to 11000
  140.4275  134.7132  157.4923 LP  0  0  0  0  0  0  0  0  0  0  0  0  # atno 17395 bound_to 11000

$$$$
