AV-unprocessed.smi:52|AV-procd|sdf|508|dock3
  -GOLD-   2262016383D 1   1.00000     0.00000
 Structure written by MMmdl.
 27 28  0  0  0  0  0  0  0  0  3 V2000
  150.7665  133.2085  157.3891 O   0  0  0  0  0  0  0  0  0  0  0  0
  150.8084  134.0508  156.4657 C   0  0  0  0  0  0  0  0  0  0  0  0
  151.7224  134.9007  156.3858 O   0  5  0  0  0  0  0  0  0  0  0  0
  149.7383  134.0445  155.4360 C   0  0  0  0  0  0  0  0  0  0  0  0
  149.7307  133.3350  154.2616 C   0  0  0  0  0  0  0  0  0  0  0  0
  148.5625  133.5842  153.5930 O   0  0  0  0  0  0  0  0  0  0  0  0
  147.8958  134.4544  154.3989 C   0  0  0  0  0  0  0  0  0  0  0  0
  146.5406  134.9275  153.9897 C   0  0  0  0  0  0  0  0  0  0  0  0
  146.5555  134.8418  152.5093 N   0  3  1  0  0  0  0  0  0  0  0  0
  146.2819  133.4985  151.9457 C   0  0  0  0  0  0  0  0  0  0  0  0
  145.6992  133.7568  150.5602 C   0  0  0  0  0  0  0  0  0  0  0  0
  144.8574  135.0067  150.7911 C   0  0  2  0  0  0  0  0  0  0  0  0
  144.6614  135.7395  149.6007 O   0  0  0  0  0  0  0  0  0  0  0  0
  145.6479  135.8028  151.8385 C   0  0  0  0  0  0  0  0  0  0  0  0
  148.5546  134.7670  155.5114 N   0  0  0  0  0  0  0  0  0  0  0  0
  143.8889  134.7206  151.2040 H   0  0  0  0  0  0  0  0  0  0  0  0
  150.4271  132.6540  153.7950 H   0  0  0  0  0  0  0  0  0  0  0  0
  145.7579  134.3088  154.4306 H   0  0  0  0  0  0  0  0  0  0  0  0
  146.4050  135.9574  154.3218 H   0  0  0  0  0  0  0  0  0  0  0  0
  147.1812  132.8826  151.9087 H   0  0  0  0  0  0  0  0  0  0  0  0
  145.5438  132.9797  152.5598 H   0  0  0  0  0  0  0  0  0  0  0  0
  146.5069  133.9633  149.8558 H   0  0  0  0  0  0  0  0  0  0  0  0
  145.1204  132.9159  150.1766 H   0  0  0  0  0  0  0  0  0  0  0  0
  145.3494  135.5180  148.9913 H   0  0  0  0  0  0  0  0  0  0  0  0
  144.9739  136.3017  152.5365 H   0  0  0  0  0  0  0  0  0  0  0  0
  146.2650  136.5716  151.3716 H   0  0  0  0  0  0  0  0  0  0  0  0
  147.4877  135.0924  152.2114 H   0  0  0  0  0  0  0  0  0  0  0  0
  1  2  2  0  0  0  0
  2  3  1  0  0  0  0
  2  4  1  0  0  0  0
  4 15  1  0  0  0  0
  4  5  2  0  0  0  0
  5  6  1  0  0  0  0
  5 17  1  0  0  0  0
  6  7  1  0  0  0  0
  7  8  1  0  0  0  0
  7 15  2  0  0  0  0
  8  9  1  0  0  0  0
  8 18  1  0  0  0  0
  8 19  1  0  0  0  0
  9 14  1  0  0  0  0
  9 10  1  0  0  0  0
  9 27  1  0  0  0  0
 10 11  1  0  0  0  0
 10 20  1  0  0  0  0
 10 21  1  0  0  0  0
 11 12  1  0  0  0  0
 11 22  1  0  0  0  0
 11 23  1  0  0  0  0
 12 16  1  0  0  0  0
 12 13  1  0  0  0  0
 12 14  1  0  0  0  0
 13 24  1  0  0  0  0
 14 25  1  0  0  0  0
 14 26  1  0  0  0  0
M  CHG  1   3  -1
M  CHG  1   9   1
M  END
> <s_m_source_file>
AV-unprocessed.smi

> <i_m_source_file_index>
52

> <i_lp_mmshare_version>
43012

> <i_f3d_flags>
0

> <s_epik_input>
Tz1DKFtPSF0pYzFbY0hdb2MobjEpW0NIMl1OMltDSDJdW0NIMl1bQ0BIXShbT0hdKVtDSDJdMg==

> <s_epik_cmdline>
J2VwaWtfcHl0aG9uJywgJy1waCcsICc3LjAnLCAnLXRuJywgJzgnLCAnLW1hJywgJzIwMCcsICctbWV0YWxfYmluZGluZycsICctaW1hZScsICc8aW5maWxlLm1hZT4nLCAnLW9tYWUnLCAnPG91dGZpbGUubWFlPic=

> <r_epik_Ionization_Penalty>
0.0376014

> <r_epik_Ionization_Penalty_Charging>
0.0376013

> <r_epik_Ionization_Penalty_Neutral>
1.78687e-08

> <r_epik_State_Penalty>
0.0314164

> <r_epik_Charging_Adjusted_Penalty>
0.0690177

> <i_epik_Tot_Q>
0

> <i_epik_Tot_abs_Q>
2

> <r_epik_Metal_State_Penalty>
0.0314164

> <b_epik_Metal_Only>
0

> <s_lp_Force_Field>
OPLS_2005

> <r_lp_Energy>
18.2584

> <b_lp_Chiralities_Consistent>
1

> <s_lp_Variant>
AV-unprocessed.smi:52-2

> <Gold.Version>
5.8.1

> <Gold.Id.Protein>
6NUR|6NUR_protein|mol2

> <Gold.PLP.Fitness>
39.0051

> <Gold.PLP.PLP>
-22.6447

> <Gold.PLP.part.hbond>
-5.0000

> <Gold.PLP.part.metal>
0.0000

> <Gold.PLP.part.buried>
-3.1915

> <Gold.PLP.part.nonpolar>
-14.6504

> <Gold.PLP.part.repulsive>
0.3321

> <Gold.PLP.ligand.clash>
0.0000

> <Gold.PLP.ligand.torsion>
2.1346

> <Gold.PLP.Chemscore.Hbond>
6.8720

> <Gold.PLP.Chemscore.CHOScore>
0.0000

> <Gold.PLP.Chemscore.Metal>
0.0000

> <Gold.Chemscore.Hbonds>
donor molecule, donor type, donor heavy atom, donor atom, acceptor molecule, acceptor atom, score
      L1  H     9    27       P1  7948  2.00
      L1  H    13    24       P1  7921  1.00
      P1  H  6896  6907       L1     1  1.92
      P1  H 10752 10763       L1     3  1.89

> <Gold.PLP.Chemscore.Internal.Correction>
0.0136

> <Gold.Rescore>
     Score         DG    S(hbond)    S(metal)    S(lipo)     H(rot)  DE(clash)    DE(int)     intcor
     13.62     -17.18       3.79        0.00      35.37       1.99       0.11       3.46       ----

> <Gold.Chemscore.Fitness>
13.6197

> <Gold.Chemscore.DG>
-17.1826

> <Gold.Chemscore.ZeroCoef>
-5.4800

> <Gold.Chemscore.Hbond>
3.7914

> <Gold.Chemscore.Metal>
0.0000

> <Gold.Chemscore.Lipo>
35.3699

> <Gold.Chemscore.Internal_Hbond>
0.0000

> <Gold.Chemscore.DEClash>
0.1077

> <Gold.Chemscore.DEInternal>
3.4551

> <Gold.Chemscore.Rot>
1.9919

> <Gold.Chemscore.Internal.Correction>
   9.000000E+99

> <Gold.Chemscore.Hbonds>
donor molecule, donor type, donor heavy atom, donor atom, acceptor molecule, acceptor atom, score
      L1  H     9    27       P1  7948  0.97
      L1  H    13    24       P1  7921  1.00
      P1  H  6896  6907       L1     1  0.92
      P1  H 10752 10763       L1     3  0.86

> <Gold.Chemscore.Hbond.Weighted>
-12.6634

> <Gold.Chemscore.Metal.Weighted>
-0.0000

> <Gold.Chemscore.Lipo.Weighted>
-4.1383

> <Gold.Chemscore.Internal_Hbond.Weighted>
0.0000

> <Gold.Chemscore.DEClash.Weighted>
0.1077

> <Gold.Chemscore.DEInternal.Weighted>
3.4551

> <Gold.Chemscore.Rot.Weighted>
5.0991

> <Gold.Chemscore.Internal.Correction.Weighted>
   9.000000E+99

> <Gold.Protein.RotatedTorsions>
[ 6907 6896 6895 6894 ] final -144.16 input  -60.11 | X-H torsion
[ 7974 7965 7964 7962 ] final  -85.57 input  175.53 | X-H torsion
[ 8008 7997 7996 7995 ] final   66.90 input   59.86 | X-H torsion
[ 10167 10162 10161 10158 ] final  115.29 input  -65.29 | X-H torsion
[ 10718 10713 10712 10709 ] final   16.09 input   66.30 | X-H torsion
[ 10763 10752 10751 10750 ] final   86.60 input  -60.55 | X-H torsion
[ 11005 11000 10999 10996 ] final  129.03 input  -57.11 | X-H torsion

> <Gold.Protein.ActiveResidues>
 VAL166  LYS551  ARG553  GLY616  TRP617  ASP618  TYR619  PRO620  LYS621  CYS622 
 ASP623  PHE694  ASN695  SER759  ASP760  ASP761  ALA762  ILE779  LEU786  VAL792 
 PHE793  MET794  SER795  GLU796  ALA797  LYS798  CYS799  TRP800  GLU811  SER814 

> <Gold.Protein.RotatedAtoms>
  151.1103  133.5178  159.2605 H   0  0  0  0  0  0  0  0  0  0  0  0  # atno 6907 bound_to 6896
  151.1975  135.0428  159.8868 H   0  0  0  0  0  0  0  0  0  0  0  0  # atno 6908 bound_to 6896
  152.5449  134.0936  159.8341 H   0  0  0  0  0  0  0  0  0  0  0  0  # atno 6909 bound_to 6896
  145.4914  140.9552  143.1810 H   0  0  0  0  0  0  0  0  0  0  0  0  # atno 7974 bound_to 7965
  155.6846  140.3496  155.4869 H   0  0  0  0  0  0  0  0  0  0  0  0  # atno 8008 bound_to 7997
  155.9577  140.1131  157.0945 H   0  0  0  0  0  0  0  0  0  0  0  0  # atno 8009 bound_to 7997
  154.4136  140.1181  156.5124 H   0  0  0  0  0  0  0  0  0  0  0  0  # atno 8010 bound_to 7997
  139.6328  144.7116  151.2397 H   0  0  0  0  0  0  0  0  0  0  0  0  # atno 10167 bound_to 10162
  157.0629  130.6316  149.5790 H   0  0  0  0  0  0  0  0  0  0  0  0  # atno 10718 bound_to 10713
  153.1586  135.4574  154.9740 H   0  0  0  0  0  0  0  0  0  0  0  0  # atno 10763 bound_to 10752
  154.7881  135.3211  154.7843 H   0  0  0  0  0  0  0  0  0  0  0  0  # atno 10764 bound_to 10752
  153.8337  135.6936  153.4866 H   0  0  0  0  0  0  0  0  0  0  0  0  # atno 10765 bound_to 10752
  139.9593  134.9606  156.9088 H   0  0  0  0  0  0  0  0  0  0  0  0  # atno 11005 bound_to 11000
  144.7831  139.6483  143.7145 LP  0  0  0  0  0  0  0  0  0  0  0  0  # atno 17320 bound_to 7965
  146.2281  139.5762  142.9573 LP  0  0  0  0  0  0  0  0  0  0  0  0  # atno 17321 bound_to 7965
  140.7448  143.6450  150.8300 LP  0  0  0  0  0  0  0  0  0  0  0  0  # atno 17342 bound_to 10162
  140.0077  143.5676  152.2851 LP  0  0  0  0  0  0  0  0  0  0  0  0  # atno 17343 bound_to 10162
  155.9973  130.5044  150.7529 LP  0  0  0  0  0  0  0  0  0  0  0  0  # atno 17370 bound_to 10713
  157.4940  131.0913  151.0393 LP  0  0  0  0  0  0  0  0  0  0  0  0  # atno 17371 bound_to 10713
  140.5538  134.0602  155.7377 LP  0  0  0  0  0  0  0  0  0  0  0  0  # atno 17394 bound_to 11000
  141.1268  133.9370  157.2619 LP  0  0  0  0  0  0  0  0  0  0  0  0  # atno 17395 bound_to 11000

$$$$
