AV-unprocessed.smi:72|AV-procd|sdf|713|dock6
  -GOLD-   2262017 33D 1   1.00000     0.00000
 Structure written by MMmdl.
 28 29  0  0  0  0  0  0  0  0  2 V2000
  154.0086  138.0094  155.1200 N   0  0  0  0  0  0  0  0  0  0  0  0
  152.8045  138.3785  155.1724 C   0  0  0  0  0  0  0  0  0  0  0  0
  151.7582  137.5178  154.6665 N   0  0  0  0  0  0  0  0  0  0  0  0
  150.5379  137.9563  154.7142 C   0  0  0  0  0  0  0  0  0  0  0  0
  150.2124  139.2785  155.2396 N   0  0  0  0  0  0  0  0  0  0  0  0
  148.7866  139.8077  155.3050 C   0  0  2  0  0  0  0  0  0  0  0  0
  147.8911  138.8283  154.8606 O   0  0  0  0  0  0  0  0  0  0  0  0
  147.5561  139.0632  153.4958 C   0  0  1  0  0  0  0  0  0  0  0  0
  146.2858  138.2950  153.0914 C   0  0  0  0  0  0  0  0  0  0  0  0
  145.8684  138.6938  151.8029 O   0  0  0  0  0  0  0  0  0  0  0  0
  147.4519  140.5906  153.4574 C   0  0  1  0  0  0  0  0  0  0  0  0
  146.1878  141.0152  153.9421 O   0  0  0  0  0  0  0  0  0  0  0  0
  148.6048  141.0204  154.3644 C   0  0  1  0  0  0  0  0  0  0  0  0
  148.3331  142.2287  155.0501 O   0  0  0  0  0  0  0  0  0  0  0  0
  151.2585  140.0792  155.7733 C   0  0  0  0  0  0  0  0  0  0  0  0
  150.9624  141.1696  156.2626 O   0  0  0  0  0  0  0  0  0  0  0  0
  152.5368  139.6113  155.7235 N   0  5  0  0  0  0  0  0  0  0  0  0
  148.6056  140.0172  156.3607 H   0  0  0  0  0  0  0  0  0  0  0  0
  148.3901  138.7651  152.8576 H   0  0  0  0  0  0  0  0  0  0  0  0
  147.5735  140.9786  152.4457 H   0  0  0  0  0  0  0  0  0  0  0  0
  149.5044  141.1476  153.7600 H   0  0  0  0  0  0  0  0  0  0  0  0
  154.1109  137.0960  154.7020 H   0  0  0  0  0  0  0  0  0  0  0  0
  149.6942  137.3607  154.3661 H   0  0  0  0  0  0  0  0  0  0  0  0
  146.4461  137.2168  153.1190 H   0  0  0  0  0  0  0  0  0  0  0  0
  145.4735  138.5227  153.7821 H   0  0  0  0  0  0  0  0  0  0  0  0
  145.0798  139.2071  151.8890 H   0  0  0  0  0  0  0  0  0  0  0  0
  145.5366  140.7978  153.2921 H   0  0  0  0  0  0  0  0  0  0  0  0
  148.7221  142.9383  154.5604 H   0  0  0  0  0  0  0  0  0  0  0  0
  1  2  2  0  0  0  0
  1 22  1  0  0  0  0
  2 17  1  0  0  0  0
  2  3  1  0  0  0  0
  3  4  2  0  0  0  0
  4  5  1  0  0  0  0
  4 23  1  0  0  0  0
  5  6  1  0  0  0  0
  5 15  1  0  0  0  0
  6 18  1  0  0  0  0
  6 13  1  0  0  0  0
  6  7  1  0  0  0  0
  7  8  1  0  0  0  0
  8 19  1  0  0  0  0
  8  9  1  0  0  0  0
  8 11  1  0  0  0  0
  9 10  1  0  0  0  0
  9 24  1  0  0  0  0
  9 25  1  0  0  0  0
 10 26  1  0  0  0  0
 11 20  1  0  0  0  0
 11 12  1  0  0  0  0
 11 13  1  0  0  0  0
 12 27  1  0  0  0  0
 13 21  1  0  0  0  0
 13 14  1  0  0  0  0
 14 28  1  0  0  0  0
 15 16  2  0  0  0  0
 15 17  1  0  0  0  0
M  CHG  1  17  -1
M  END
> <s_m_source_file>
AV-unprocessed.smi

> <i_m_source_file_index>
72

> <i_lp_mmshare_version>
43012

> <i_f3d_flags>
0

> <s_epik_input>
W05IMl1jMW5bY0hdbihjKD1PKW4xKVtDQEBIXTJPW0NASF0oW0NIMl1bT0hdKVtDQEBIXShbT0hdKVtDQEhdMltPSF0=

> <s_epik_cmdline>
J2VwaWtfcHl0aG9uJywgJy1waCcsICc3LjAnLCAnLXRuJywgJzgnLCAnLW1hJywgJzIwMCcsICctbWV0YWxfYmluZGluZycsICctaW1hZScsICc8aW5maWxlLm1hZT4nLCAnLW9tYWUnLCAnPG91dGZpbGUubWFlPic=

> <r_lp_tautomer_probability>
7.17554e-07

> <r_epik_Ionization_Penalty>
12.8705

> <r_epik_Ionization_Penalty_Charging>
5.64144

> <r_epik_Ionization_Penalty_Neutral>
7.22905

> <r_epik_State_Penalty>
3.30104

> <r_epik_Charging_Adjusted_Penalty>
8.94249

> <i_epik_Tot_Q>
-1

> <i_epik_Tot_abs_Q>
1

> <r_epik_Metal_State_Penalty>
0.529074

> <b_epik_Metal_Only>
1

> <s_epik_Chemistry_Notes>
This compound contains an acetal/aminal-like group ( X-CH(R)-Y where X, Y are N, S, or O) that may be acid/base labile, releasing an aldehyde.

> <s_lp_Force_Field>
OPLS_2005

> <r_lp_Energy>
36.0241

> <b_lp_Chiralities_Consistent>
1

> <s_lp_Variant>
AV-unprocessed.smi:72-51

> <Gold.Version>
5.8.1

> <Gold.Id.Protein>
6NUR|6NUR_protein|mol2

> <Gold.PLP.Fitness>
50.2647

> <Gold.PLP.PLP>
-32.4652

> <Gold.PLP.part.hbond>
-7.8833

> <Gold.PLP.part.metal>
0.0000

> <Gold.PLP.part.buried>
-3.9056

> <Gold.PLP.part.nonpolar>
-22.5709

> <Gold.PLP.part.repulsive>
0.3345

> <Gold.PLP.ligand.clash>
0.0000

> <Gold.PLP.ligand.torsion>
0.0981

> <Gold.PLP.Chemscore.Hbond>
4.9909

> <Gold.PLP.Chemscore.CHOScore>
1.0000

> <Gold.PLP.Chemscore.Metal>
0.0000

> <Gold.Chemscore.Hbonds>
donor molecule, donor type, donor heavy atom, donor atom, acceptor molecule, acceptor atom, score
      L1  H    10    26       P1 10175  1.00
      L1  H    12    27       P1 10175  0.98
      L1  H    14    28       P1  8028  0.26
      P1  H  7997  8008       L1    17  2.00
      P1  H 10752 10763       L1     3  0.37
      L1  C     4    23       P1  7948  0.28

> <Gold.PLP.Chemscore.Internal.Correction>
0.0229

> <Gold.Rescore>
     Score         DG    S(hbond)    S(metal)    S(lipo)     H(rot)  DE(clash)    DE(int)     intcor
      8.09      -8.52       3.08        0.00      26.42       4.04       0.20       0.24       ----

> <Gold.Chemscore.Fitness>
8.0874

> <Gold.Chemscore.DG>
-8.5205

> <Gold.Chemscore.ZeroCoef>
-5.4800

> <Gold.Chemscore.Hbond>
3.0816

> <Gold.Chemscore.Metal>
0.0000

> <Gold.Chemscore.Lipo>
26.4207

> <Gold.Chemscore.Internal_Hbond>
0.0000

> <Gold.Chemscore.DEClash>
0.1979

> <Gold.Chemscore.DEInternal>
0.2353

> <Gold.Chemscore.Rot>
4.0403

> <Gold.Chemscore.Internal.Correction>
   9.000000E+99

> <Gold.Chemscore.Hbonds>
donor molecule, donor type, donor heavy atom, donor atom, acceptor molecule, acceptor atom, score
      L1  H    10    26       P1 10175  0.97
      L1  H    12    27       P1 10175  0.67
      L1  H    14    28       P1  8028  0.24
      P1  H  7997  8008       L1    17  0.25
      P1  H 10752 10763       L1     3  0.09

> <Gold.Chemscore.Hbond.Weighted>
-10.2924

> <Gold.Chemscore.Metal.Weighted>
-0.0000

> <Gold.Chemscore.Lipo.Weighted>
-3.0912

> <Gold.Chemscore.Internal_Hbond.Weighted>
0.0000

> <Gold.Chemscore.DEClash.Weighted>
0.1979

> <Gold.Chemscore.DEInternal.Weighted>
0.2353

> <Gold.Chemscore.Rot.Weighted>
10.3431

> <Gold.Chemscore.Internal.Correction.Weighted>
   9.000000E+99

> <Gold.Protein.RotatedTorsions>
[ 6907 6896 6895 6894 ] final  -17.15 input  -60.11 | X-H torsion
[ 7974 7965 7964 7962 ] final   93.57 input  175.53 | X-H torsion
[ 8008 7997 7996 7995 ] final  -37.46 input   59.86 | X-H torsion
[ 10167 10162 10161 10158 ] final  112.18 input  -65.29 | X-H torsion
[ 10718 10713 10712 10709 ] final   17.52 input   66.30 | X-H torsion
[ 10763 10752 10751 10750 ] final   31.95 input  -60.55 | X-H torsion
[ 11005 11000 10999 10996 ] final  -72.57 input  -57.11 | X-H torsion

> <Gold.Protein.ActiveResidues>
 VAL166  LYS551  ARG553  GLY616  TRP617  ASP618  TYR619  PRO620  LYS621  CYS622 
 ASP623  PHE694  ASN695  SER759  ASP760  ASP761  ALA762  ILE779  LEU786  VAL792 
 PHE793  MET794  SER795  GLU796  ALA797  LYS798  CYS799  TRP800  GLU811  SER814 

> <Gold.Protein.RotatedAtoms>
  151.2977  135.0760  159.9226 H   0  0  0  0  0  0  0  0  0  0  0  0  # atno 6907 bound_to 6896
  152.5304  133.9866  159.7841 H   0  0  0  0  0  0  0  0  0  0  0  0  # atno 6908 bound_to 6896
  151.0147  133.5881  159.2709 H   0  0  0  0  0  0  0  0  0  0  0  0  # atno 6909 bound_to 6896
  145.4772  139.2279  143.2902 H   0  0  0  0  0  0  0  0  0  0  0  0  # atno 7974 bound_to 7965
  154.4053  140.1603  156.2541 H   0  0  0  0  0  0  0  0  0  0  0  0  # atno 8008 bound_to 7997
  155.9093  140.3428  155.6064 H   0  0  0  0  0  0  0  0  0  0  0  0  # atno 8009 bound_to 7997
  155.7355  140.0786  157.2260 H   0  0  0  0  0  0  0  0  0  0  0  0  # atno 8010 bound_to 7997
  139.6555  144.7129  151.1965 H   0  0  0  0  0  0  0  0  0  0  0  0  # atno 10167 bound_to 10162
  157.0833  130.6397  149.5831 H   0  0  0  0  0  0  0  0  0  0  0  0  # atno 10718 bound_to 10713
  153.0288  135.6425  154.1279 H   0  0  0  0  0  0  0  0  0  0  0  0  # atno 10763 bound_to 10752
  154.1005  135.2860  155.3254 H   0  0  0  0  0  0  0  0  0  0  0  0  # atno 10764 bound_to 10752
  154.6402  135.5462  153.7844 H   0  0  0  0  0  0  0  0  0  0  0  0  # atno 10765 bound_to 10752
  141.1610  133.6851  156.7079 H   0  0  0  0  0  0  0  0  0  0  0  0  # atno 11005 bound_to 11000
  146.2362  140.5555  142.8954 LP  0  0  0  0  0  0  0  0  0  0  0  0  # atno 17320 bound_to 7965
  144.7910  140.6032  143.6541 LP  0  0  0  0  0  0  0  0  0  0  0  0  # atno 17321 bound_to 7965
  140.7557  143.6079  150.8635 LP  0  0  0  0  0  0  0  0  0  0  0  0  # atno 17342 bound_to 10162
  139.9731  143.6034  152.2967 LP  0  0  0  0  0  0  0  0  0  0  0  0  # atno 17343 bound_to 10162
  155.9917  130.4973  150.7312 LP  0  0  0  0  0  0  0  0  0  0  0  0  # atno 17370 bound_to 10713
  157.4782  131.0900  151.0566 LP  0  0  0  0  0  0  0  0  0  0  0  0  # atno 17371 bound_to 10713
  140.2909  134.8241  157.4016 LP  0  0  0  0  0  0  0  0  0  0  0  0  # atno 17394 bound_to 11000
  140.1347  134.5049  155.8077 LP  0  0  0  0  0  0  0  0  0  0  0  0  # atno 17395 bound_to 11000

$$$$
