AV-unprocessed.smi:2795|AV-procd|sdf|10779|dock2
  -GOLD-   2272015213D 1   1.00000     0.00000
 Structure written by MMmdl.
 37 38  0  0  0  0  0  0  0  0  2 V2000
  152.5621  144.7435  158.1910 C   0  0  0  0  0  0  0  0  0  0  0  0
  152.2573  144.4882  159.6017 N   0  0  0  0  0  0  0  0  0  0  0  0
  151.5266  145.3447  160.3264 C   0  0  0  0  0  0  0  0  0  0  0  0
  151.4330  144.8326  161.5552 N   0  3  0  0  0  0  0  0  0  0  0  0
  152.1074  143.6449  161.6207 C   0  0  0  0  0  0  0  0  0  0  0  0
  152.6363  143.4115  160.3749 C   0  0  0  0  0  0  0  0  0  0  0  0
  153.4408  142.2520  159.8680 C   0  0  0  0  0  0  0  0  0  0  0  0
  152.5866  140.9931  159.6132 C   0  0  0  0  0  0  0  0  0  0  0  0
  151.9922  140.9809  158.2784 N   0  0  0  0  0  0  0  0  0  0  0  0
  152.2652  140.0945  157.3064 C   0  0  0  0  0  0  0  0  0  0  0  0
  153.1192  139.2148  157.4241 O   0  0  0  0  0  0  0  0  0  0  0  0
  151.4361  140.2108  156.0189 C   0  0  1  0  0  0  0  0  0  0  0  0
  151.3345  138.8679  155.2589 C   0  0  0  0  0  0  0  0  0  0  0  0
  150.4234  139.0037  154.0340 C   0  0  0  0  0  0  0  0  0  0  0  0
  149.0739  139.5940  154.4538 C   0  0  0  0  0  0  0  0  0  0  0  0
  149.2860  140.8976  155.2377 C   0  0  0  0  0  0  0  0  0  0  0  0
  150.1219  140.6533  156.3638 O   0  0  0  0  0  0  0  0  0  0  0  0
  151.8620  145.4744  157.7837 H   0  0  0  0  0  0  0  0  0  0  0  0
  152.4761  143.8179  157.6226 H   0  0  0  0  0  0  0  0  0  0  0  0
  153.5792  145.1276  158.1113 H   0  0  0  0  0  0  0  0  0  0  0  0
  151.0950  146.2691  159.9864 H   0  0  0  0  0  0  0  0  0  0  0  0
  152.1529  143.0583  162.5266 H   0  0  0  0  0  0  0  0  0  0  0  0
  153.9675  142.5381  158.9574 H   0  0  0  0  0  0  0  0  0  0  0  0
  154.2138  142.0226  160.6017 H   0  0  0  0  0  0  0  0  0  0  0  0
  153.2105  140.1048  159.7131 H   0  0  0  0  0  0  0  0  0  0  0  0
  151.8127  140.9047  160.3775 H   0  0  0  0  0  0  0  0  0  0  0  0
  151.2834  141.6755  158.0901 H   0  0  0  0  0  0  0  0  0  0  0  0
  151.9129  140.9614  155.3860 H   0  0  0  0  0  0  0  0  0  0  0  0
  152.3219  138.5311  154.9402 H   0  0  0  0  0  0  0  0  0  0  0  0
  150.9383  138.0952  155.9202 H   0  0  0  0  0  0  0  0  0  0  0  0
  150.8950  139.6542  153.2964 H   0  0  0  0  0  0  0  0  0  0  0  0
  150.2832  138.0345  153.5542 H   0  0  0  0  0  0  0  0  0  0  0  0
  148.4529  139.7766  153.5763 H   0  0  0  0  0  0  0  0  0  0  0  0
  148.5361  138.8777  155.0761 H   0  0  0  0  0  0  0  0  0  0  0  0
  149.7282  141.6672  154.6032 H   0  0  0  0  0  0  0  0  0  0  0  0
  148.3290  141.2847  155.5880 H   0  0  0  0  0  0  0  0  0  0  0  0
  150.9320  145.2613  162.3233 H   0  0  0  0  0  0  0  0  0  0  0  0
  1  2  1  0  0  0  0
  1 18  1  0  0  0  0
  1 19  1  0  0  0  0
  1 20  1  0  0  0  0
  2  6  1  0  0  0  0
  2  3  1  0  0  0  0
  3  4  2  0  0  0  0
  3 21  1  0  0  0  0
  4  5  1  0  0  0  0
  4 37  1  0  0  0  0
  5  6  2  0  0  0  0
  5 22  1  0  0  0  0
  6  7  1  0  0  0  0
  7  8  1  0  0  0  0
  7 23  1  0  0  0  0
  7 24  1  0  0  0  0
  8  9  1  0  0  0  0
  8 25  1  0  0  0  0
  8 26  1  0  0  0  0
  9 10  1  0  0  0  0
  9 27  1  0  0  0  0
 10 11  2  0  0  0  0
 10 12  1  0  0  0  0
 12 17  1  0  0  0  0
 12 13  1  0  0  0  0
 12 28  1  0  0  0  0
 13 14  1  0  0  0  0
 13 29  1  0  0  0  0
 13 30  1  0  0  0  0
 14 15  1  0  0  0  0
 14 31  1  0  0  0  0
 14 32  1  0  0  0  0
 15 16  1  0  0  0  0
 15 33  1  0  0  0  0
 15 34  1  0  0  0  0
 16 17  1  0  0  0  0
 16 35  1  0  0  0  0
 16 36  1  0  0  0  0
M  CHG  1   4   1
M  END
> <s_m_source_file>
AV-unprocessed.smi

> <i_m_source_file_index>
2795

> <i_lp_mmshare_version>
43012

> <i_f3d_flags>
0

> <s_epik_input>
W0NIM11uMVtjSF1uW2NIXWMxW0NIMl1bQ0gyXVtOSF1DKD1PKVtDQEBIXTJbQ0gyXVtDSDJdW0NIMl1bQ0gyXU8y

> <s_epik_cmdline>
J2VwaWtfcHl0aG9uJywgJy1waCcsICc3LjAnLCAnLXRuJywgJzgnLCAnLW1hJywgJzIwMCcsICctbWV0YWxfYmluZGluZycsICctaW1hZScsICc8aW5maWxlLm1hZT4nLCAnLW9tYWUnLCAnPG91dGZpbGUubWFlPic=

> <r_lp_tautomer_probability>
1

> <r_epik_Ionization_Penalty>
0.154825

> <r_epik_Ionization_Penalty_Charging>
0

> <r_epik_Ionization_Penalty_Neutral>
0.154825

> <r_epik_State_Penalty>
0.144119

> <r_epik_Charging_Adjusted_Penalty>
0.144119

> <i_epik_Tot_Q>
1

> <i_epik_Tot_abs_Q>
1

> <r_epik_Metal_State_Penalty>
0.465431

> <b_epik_Metal_Only>
0

> <s_lp_Force_Field>
OPLS_2005

> <r_lp_Energy>
10.0187

> <b_lp_Chiralities_Consistent>
1

> <s_lp_Variant>
AV-unprocessed.smi:2795-2

> <Gold.Version>
5.8.1

> <Gold.Id.Protein>
6NUR|6NUR_protein|mol2

> <Gold.PLP.Fitness>
45.9101

> <Gold.PLP.PLP>
-45.0712

> <Gold.PLP.part.hbond>
-2.0000

> <Gold.PLP.part.metal>
0.0000

> <Gold.PLP.part.buried>
-5.1323

> <Gold.PLP.part.nonpolar>
-38.3195

> <Gold.PLP.part.repulsive>
0.2320

> <Gold.PLP.ligand.clash>
0.0000

> <Gold.PLP.ligand.torsion>
1.0876

> <Gold.PLP.Chemscore.Hbond>
1.0000

> <Gold.PLP.Chemscore.CHOScore>
0.0000

> <Gold.PLP.Chemscore.Metal>
0.0000

> <Gold.Chemscore.Hbonds>
donor molecule, donor type, donor heavy atom, donor atom, acceptor molecule, acceptor atom, score
      P1  H  7997  8008       L1    11  0.99

> <Gold.PLP.Chemscore.Internal.Correction>
0.0140

> <Gold.Rescore>
     Score         DG    S(hbond)    S(metal)    S(lipo)     H(rot)  DE(clash)    DE(int)     intcor
     10.77     -12.95       0.34        0.00      94.03       1.82       1.33       0.84       ----

> <Gold.Chemscore.Fitness>
10.7731

> <Gold.Chemscore.DG>
-12.9452

> <Gold.Chemscore.ZeroCoef>
-5.4800

> <Gold.Chemscore.Hbond>
0.3382

> <Gold.Chemscore.Metal>
0.0000

> <Gold.Chemscore.Lipo>
94.0315

> <Gold.Chemscore.Internal_Hbond>
0.0000

> <Gold.Chemscore.DEClash>
1.3317

> <Gold.Chemscore.DEInternal>
0.8404

> <Gold.Chemscore.Rot>
1.8227

> <Gold.Chemscore.Internal.Correction>
   9.000000E+99

> <Gold.Chemscore.Hbonds>
donor molecule, donor type, donor heavy atom, donor atom, acceptor molecule, acceptor atom, score
      P1  H  7997  8008       L1    11  0.47

> <Gold.Chemscore.Hbond.Weighted>
-1.1297

> <Gold.Chemscore.Metal.Weighted>
-0.0000

> <Gold.Chemscore.Lipo.Weighted>
-11.0017

> <Gold.Chemscore.Internal_Hbond.Weighted>
0.0000

> <Gold.Chemscore.DEClash.Weighted>
1.3317

> <Gold.Chemscore.DEInternal.Weighted>
0.8404

> <Gold.Chemscore.Rot.Weighted>
4.6662

> <Gold.Chemscore.Internal.Correction.Weighted>
   9.000000E+99

> <Gold.Protein.RotatedTorsions>
[ 6907 6896 6895 6894 ] final  117.69 input  -60.11 | X-H torsion
[ 7974 7965 7964 7962 ] final  -10.59 input  175.53 | X-H torsion
[ 8008 7997 7996 7995 ] final  -92.36 input   59.86 | X-H torsion
[ 10167 10162 10161 10158 ] final  155.68 input  -65.29 | X-H torsion
[ 10718 10713 10712 10709 ] final  125.11 input   66.30 | X-H torsion
[ 10763 10752 10751 10750 ] final   90.65 input  -60.55 | X-H torsion
[ 11005 11000 10999 10996 ] final  -85.02 input  -57.11 | X-H torsion

> <Gold.Protein.ActiveResidues>
 VAL166  LYS551  ARG553  GLY616  TRP617  ASP618  TYR619  PRO620  LYS621  CYS622 
 ASP623  PHE694  ASN695  SER759  ASP760  ASP761  ALA762  ILE779  LEU786  VAL792 
 PHE793  MET794  SER795  GLU796  ALA797  LYS798  CYS799  TRP800  GLU811  SER814 

> <Gold.Protein.RotatedAtoms>
  152.4595  133.7791  159.6840 H   0  0  0  0  0  0  0  0  0  0  0  0  # atno 6907 bound_to 6896
  150.8533  133.7744  159.3024 H   0  0  0  0  0  0  0  0  0  0  0  0  # atno 6908 bound_to 6896
  151.5332  135.1071  159.9960 H   0  0  0  0  0  0  0  0  0  0  0  0  # atno 6909 bound_to 6896
  146.2215  140.2787  142.8361 H   0  0  0  0  0  0  0  0  0  0  0  0  # atno 7974 bound_to 7965
  154.7222  140.0510  157.0650 H   0  0  0  0  0  0  0  0  0  0  0  0  # atno 8008 bound_to 7997
  155.0412  140.3169  155.4705 H   0  0  0  0  0  0  0  0  0  0  0  0  # atno 8009 bound_to 7997
  156.2819  140.2132  156.5536 H   0  0  0  0  0  0  0  0  0  0  0  0  # atno 8010 bound_to 7997
  139.4821  144.5077  151.8072 H   0  0  0  0  0  0  0  0  0  0  0  0  # atno 10167 bound_to 10162
  157.5530  131.1093  150.8670 H   0  0  0  0  0  0  0  0  0  0  0  0  # atno 10718 bound_to 10713
  153.1998  135.4426  155.0252 H   0  0  0  0  0  0  0  0  0  0  0  0  # atno 10763 bound_to 10752
  154.8140  135.3307  154.7230 H   0  0  0  0  0  0  0  0  0  0  0  0  # atno 10764 bound_to 10752
  153.7676  135.6987  153.4968 H   0  0  0  0  0  0  0  0  0  0  0  0  # atno 10765 bound_to 10752
  141.1645  133.7377  156.8954 H   0  0  0  0  0  0  0  0  0  0  0  0  # atno 11005 bound_to 11000
  144.9214  140.7872  143.5746 LP  0  0  0  0  0  0  0  0  0  0  0  0  # atno 17320 bound_to 7965
  145.2723  139.1949  143.4835 LP  0  0  0  0  0  0  0  0  0  0  0  0  # atno 17321 bound_to 7965
  140.4577  144.1766  150.5903 LP  0  0  0  0  0  0  0  0  0  0  0  0  # atno 17342 bound_to 10162
  140.4518  143.2484  151.9338 LP  0  0  0  0  0  0  0  0  0  0  0  0  # atno 17343 bound_to 10162
  156.9190  130.5308  149.5279 LP  0  0  0  0  0  0  0  0  0  0  0  0  # atno 17370 bound_to 10713
  156.0593  130.5649  150.9159 LP  0  0  0  0  0  0  0  0  0  0  0  0  # atno 17371 bound_to 10713
  140.1619  134.9159  157.2726 LP  0  0  0  0  0  0  0  0  0  0  0  0  # atno 17394 bound_to 11000
  140.2601  134.3581  155.7410 LP  0  0  0  0  0  0  0  0  0  0  0  0  # atno 17395 bound_to 11000

$$$$
