AV-unprocessed.smi:2331|AV-procd|sdf|9316|dock3
  -GOLD-   2272012533D 1   1.00000     0.00000
 Structure written by MMmdl.
 50 51  0  0  0  0  0  0  0  0  2 V2000
  150.3178  141.7060  155.3849 C   0  0  0  0  0  0  0  0  0  0  0  0
  149.8271  140.2433  155.5143 C   0  0  0  0  0  0  0  0  0  0  0  0
  150.8896  139.3578  154.8283 C   0  0  0  0  0  0  0  0  0  0  0  0
  149.7606  139.8646  157.0198 C   0  0  0  0  0  0  0  0  0  0  0  0
  150.7590  140.5621  157.8281 N   0  0  0  0  0  0  0  0  0  0  0  0
  150.5598  141.6916  158.5281 C   0  0  0  0  0  0  0  0  0  0  0  0
  149.5034  142.3211  158.4882 O   0  0  0  0  0  0  0  0  0  0  0  0
  151.6571  142.1038  159.2038 N   0  0  0  0  0  0  0  0  0  0  0  0
  152.7492  141.1905  159.5626 C   0  0  0  0  0  0  0  0  0  0  0  0
  153.2314  141.6489  160.9321 C   0  0  0  0  0  0  0  0  0  0  0  0
  152.9722  143.1431  160.9053 C   0  0  0  0  0  0  0  0  0  0  0  0
  151.7028  143.3161  160.0483 C   0  0  1  0  0  0  0  0  0  0  0  0
  151.6821  144.6650  159.2529 C   0  0  0  0  0  0  0  0  0  0  0  0
  151.8488  145.8838  160.1841 C   0  0  0  0  0  0  0  0  0  0  0  0
  152.6997  144.7232  158.0955 C   0  0  0  0  0  0  0  0  0  0  0  0
  150.3923  144.8461  158.7029 O   0  0  0  0  0  0  0  0  0  0  0  0
  148.4558  140.0171  154.8450 C   0  0  0  0  0  0  0  0  0  0  0  0
  148.2145  140.3090  153.4771 C   0  0  0  0  0  0  0  0  0  0  0  0
  146.9316  140.1009  152.9314 C   0  0  0  0  0  0  0  0  0  0  0  0
  145.9372  139.6242  153.7086 N   0  3  0  0  0  0  0  0  0  0  0  0
  146.1119  139.3297  155.0132 C   0  0  0  0  0  0  0  0  0  0  0  0
  147.3730  139.5203  155.6128 C   0  0  0  0  0  0  0  0  0  0  0  0
  151.2853  141.8406  155.8699 H   0  0  0  0  0  0  0  0  0  0  0  0
  149.6332  142.4162  155.8479 H   0  0  0  0  0  0  0  0  0  0  0  0
  150.4412  141.9972  154.3411 H   0  0  0  0  0  0  0  0  0  0  0  0
  151.8765  139.5130  155.2661 H   0  0  0  0  0  0  0  0  0  0  0  0
  150.9656  139.5841  153.7641 H   0  0  0  0  0  0  0  0  0  0  0  0
  150.6656  138.2953  154.9218 H   0  0  0  0  0  0  0  0  0  0  0  0
  148.7882  140.1390  157.4297 H   0  0  0  0  0  0  0  0  0  0  0  0
  149.8349  138.7835  157.1510 H   0  0  0  0  0  0  0  0  0  0  0  0
  151.6734  140.1377  157.8824 H   0  0  0  0  0  0  0  0  0  0  0  0
  152.4470  140.1421  159.5979 H   0  0  0  0  0  0  0  0  0  0  0  0
  153.5442  141.2885  158.8222 H   0  0  0  0  0  0  0  0  0  0  0  0
  152.6273  141.1837  161.7125 H   0  0  0  0  0  0  0  0  0  0  0  0
  154.2763  141.4009  161.1197 H   0  0  0  0  0  0  0  0  0  0  0  0
  152.8653  143.5657  161.9049 H   0  0  0  0  0  0  0  0  0  0  0  0
  153.8271  143.6274  160.4329 H   0  0  0  0  0  0  0  0  0  0  0  0
  150.8495  143.2835  160.7293 H   0  0  0  0  0  0  0  0  0  0  0  0
  152.8472  145.9333  160.6185 H   0  0  0  0  0  0  0  0  0  0  0  0
  151.1318  145.8570  161.0058 H   0  0  0  0  0  0  0  0  0  0  0  0
  151.6942  146.8204  159.6464 H   0  0  0  0  0  0  0  0  0  0  0  0
  153.7188  144.5819  158.4546 H   0  0  0  0  0  0  0  0  0  0  0  0
  152.6650  145.6877  157.5877 H   0  0  0  0  0  0  0  0  0  0  0  0
  152.5066  143.9592  157.3424 H   0  0  0  0  0  0  0  0  0  0  0  0
  150.4394  145.5140  158.0362 H   0  0  0  0  0  0  0  0  0  0  0  0
  148.9863  140.6947  152.8291 H   0  0  0  0  0  0  0  0  0  0  0  0
  146.6734  140.3019  151.9018 H   0  0  0  0  0  0  0  0  0  0  0  0
  145.2437  138.9557  155.5361 H   0  0  0  0  0  0  0  0  0  0  0  0
  147.4988  139.2891  156.6600 H   0  0  0  0  0  0  0  0  0  0  0  0
  145.0163  139.4808  153.2929 H   0  0  0  0  0  0  0  0  0  0  0  0
  1  2  1  0  0  0  0
  1 23  1  0  0  0  0
  1 24  1  0  0  0  0
  1 25  1  0  0  0  0
  2  3  1  0  0  0  0
  2  4  1  0  0  0  0
  2 17  1  0  0  0  0
  3 26  1  0  0  0  0
  3 27  1  0  0  0  0
  3 28  1  0  0  0  0
  4  5  1  0  0  0  0
  4 29  1  0  0  0  0
  4 30  1  0  0  0  0
  5  6  1  0  0  0  0
  5 31  1  0  0  0  0
  6  7  2  0  0  0  0
  6  8  1  0  0  0  0
  8 12  1  0  0  0  0
  8  9  1  0  0  0  0
  9 10  1  0  0  0  0
  9 32  1  0  0  0  0
  9 33  1  0  0  0  0
 10 11  1  0  0  0  0
 10 34  1  0  0  0  0
 10 35  1  0  0  0  0
 11 12  1  0  0  0  0
 11 36  1  0  0  0  0
 11 37  1  0  0  0  0
 12 13  1  0  0  0  0
 12 38  1  0  0  0  0
 13 14  1  0  0  0  0
 13 15  1  0  0  0  0
 13 16  1  0  0  0  0
 14 39  1  0  0  0  0
 14 40  1  0  0  0  0
 14 41  1  0  0  0  0
 15 42  1  0  0  0  0
 15 43  1  0  0  0  0
 15 44  1  0  0  0  0
 16 45  1  0  0  0  0
 17 22  1  0  0  0  0
 17 18  2  0  0  0  0
 18 19  1  0  0  0  0
 18 46  1  0  0  0  0
 19 20  2  0  0  0  0
 19 47  1  0  0  0  0
 20 21  1  0  0  0  0
 20 50  1  0  0  0  0
 21 22  2  0  0  0  0
 21 48  1  0  0  0  0
 22 49  1  0  0  0  0
M  CHG  1  20   1
M  END
> <s_m_source_file>
AV-unprocessed.smi

> <i_m_source_file_index>
2331

> <i_lp_mmshare_version>
43012

> <i_f3d_flags>
0

> <s_epik_input>
W2NIXTFbY0hdbltjSF1bY0hdYzFDKFtDSDNdKShbQ0gzXSlbQ0gyXVtOSF1DKD1PKU4yW0NIMl1bQ0gyXVtDSDJdW0NASF0yQyhbQ0gzXSkoW0NIM10pW09IXQ==

> <s_epik_cmdline>
J2VwaWtfcHl0aG9uJywgJy1waCcsICc3LjAnLCAnLXRuJywgJzgnLCAnLW1hJywgJzIwMCcsICctbWV0YWxfYmluZGluZycsICctaW1hZScsICc8aW5maWxlLm1hZT4nLCAnLW9tYWUnLCAnPG91dGZpbGUubWFlPic=

> <r_epik_Ionization_Penalty>
1.40501

> <r_epik_Ionization_Penalty_Charging>
1.40494

> <r_epik_Ionization_Penalty_Neutral>
7.00889e-05

> <r_epik_State_Penalty>
1.48741

> <r_epik_Charging_Adjusted_Penalty>
2.89235

> <i_epik_Tot_Q>
1

> <i_epik_Tot_abs_Q>
1

> <r_epik_Metal_State_Penalty>
1.54092

> <b_epik_Metal_Only>
0

> <s_lp_Force_Field>
OPLS_2005

> <r_lp_Energy>
55.517

> <b_lp_Chiralities_Consistent>
1

> <s_lp_Variant>
AV-unprocessed.smi:2331-3

> <Gold.Version>
5.8.1

> <Gold.Id.Protein>
6NUR|6NUR_protein|mol2

> <Gold.PLP.Fitness>
43.9958

> <Gold.PLP.PLP>
-41.9511

> <Gold.PLP.part.hbond>
-1.7602

> <Gold.PLP.part.metal>
0.0000

> <Gold.PLP.part.buried>
-0.1140

> <Gold.PLP.part.nonpolar>
-39.0688

> <Gold.PLP.part.repulsive>
0.2046

> <Gold.PLP.ligand.clash>
1.9043

> <Gold.PLP.ligand.torsion>
0.8597

> <Gold.PLP.Chemscore.Hbond>
1.7280

> <Gold.PLP.Chemscore.CHOScore>
0.0000

> <Gold.PLP.Chemscore.Metal>
0.0000

> <Gold.Chemscore.Hbonds>
donor molecule, donor type, donor heavy atom, donor atom, acceptor molecule, acceptor atom, score
      L1  H    20    50       P1 10175  1.57

> <Gold.PLP.Chemscore.Internal.Correction>
0.4845

> <Gold.Rescore>
     Score         DG    S(hbond)    S(metal)    S(lipo)     H(rot)  DE(clash)    DE(int)     intcor
     16.23     -18.69       0.91        0.00     131.12       2.02       1.76       0.70       ----

> <Gold.Chemscore.Fitness>
16.2277

> <Gold.Chemscore.DG>
-18.6891

> <Gold.Chemscore.ZeroCoef>
-5.4800

> <Gold.Chemscore.Hbond>
0.9093

> <Gold.Chemscore.Metal>
0.0000

> <Gold.Chemscore.Lipo>
131.1220

> <Gold.Chemscore.Internal_Hbond>
0.0000

> <Gold.Chemscore.DEClash>
1.7639

> <Gold.Chemscore.DEInternal>
0.6975

> <Gold.Chemscore.Rot>
2.0192

> <Gold.Chemscore.Internal.Correction>
   9.000000E+99

> <Gold.Chemscore.Hbonds>
donor molecule, donor type, donor heavy atom, donor atom, acceptor molecule, acceptor atom, score
      L1  H    20    50       P1 10175  0.78

> <Gold.Chemscore.Hbond.Weighted>
-3.0369

> <Gold.Chemscore.Metal.Weighted>
-0.0000

> <Gold.Chemscore.Lipo.Weighted>
-15.3413

> <Gold.Chemscore.Internal_Hbond.Weighted>
0.0000

> <Gold.Chemscore.DEClash.Weighted>
1.7639

> <Gold.Chemscore.DEInternal.Weighted>
0.6975

> <Gold.Chemscore.Rot.Weighted>
5.1691

> <Gold.Chemscore.Internal.Correction.Weighted>
   9.000000E+99

> <Gold.Protein.RotatedTorsions>
[ 6907 6896 6895 6894 ] final -152.92 input  -60.11 | X-H torsion
[ 7974 7965 7964 7962 ] final   42.26 input  175.53 | X-H torsion
[ 8008 7997 7996 7995 ] final   57.49 input   59.86 | X-H torsion
[ 10167 10162 10161 10158 ] final   58.93 input  -65.29 | X-H torsion
[ 10718 10713 10712 10709 ] final  -60.80 input   66.30 | X-H torsion
[ 10763 10752 10751 10750 ] final  115.90 input  -60.55 | X-H torsion
[ 11005 11000 10999 10996 ] final   77.90 input  -57.11 | X-H torsion

> <Gold.Protein.ActiveResidues>
 VAL166  LYS551  ARG553  GLY616  TRP617  ASP618  TYR619  PRO620  LYS621  CYS622 
 ASP623  PHE694  ASN695  SER759  ASP760  ASP761  ALA762  ILE779  LEU786  VAL792 
 PHE793  MET794  SER795  GLU796  ALA797  LYS798  CYS799  TRP800  GLU811  SER814 

> <Gold.Protein.RotatedAtoms>
  151.2349  133.4430  159.2604 H   0  0  0  0  0  0  0  0  0  0  0  0  # atno 6907 bound_to 6896
  151.0760  134.9828  159.8342 H   0  0  0  0  0  0  0  0  0  0  0  0  # atno 6908 bound_to 6896
  152.5418  134.2291  159.8871 H   0  0  0  0  0  0  0  0  0  0  0  0  # atno 6909 bound_to 6896
  146.0755  139.5320  142.9570 H   0  0  0  0  0  0  0  0  0  0  0  0  # atno 7974 bound_to 7965
  155.5346  140.3483  155.4433 H   0  0  0  0  0  0  0  0  0  0  0  0  # atno 8008 bound_to 7997
  156.0694  140.1359  156.9873 H   0  0  0  0  0  0  0  0  0  0  0  0  # atno 8009 bound_to 7997
  154.4520  140.0969  156.6621 H   0  0  0  0  0  0  0  0  0  0  0  0  # atno 8010 bound_to 7997
  140.1819  144.4173  150.6611 H   0  0  0  0  0  0  0  0  0  0  0  0  # atno 10167 bound_to 10162
  156.0965  130.4192  150.0905 H   0  0  0  0  0  0  0  0  0  0  0  0  # atno 10718 bound_to 10713
  153.5292  135.3582  155.2668 H   0  0  0  0  0  0  0  0  0  0  0  0  # atno 10763 bound_to 10752
  154.8728  135.4064  154.3171 H   0  0  0  0  0  0  0  0  0  0  0  0  # atno 10764 bound_to 10752
  153.3856  135.7070  153.6600 H   0  0  0  0  0  0  0  0  0  0  0  0  # atno 10765 bound_to 10752
  139.9235  134.7720  156.1580 H   0  0  0  0  0  0  0  0  0  0  0  0  # atno 11005 bound_to 11000
  145.6314  141.0303  143.1861 LP  0  0  0  0  0  0  0  0  0  0  0  0  # atno 17320 bound_to 7965
  144.7258  139.7879  143.7365 LP  0  0  0  0  0  0  0  0  0  0  0  0  # atno 17321 bound_to 7965
  140.6513  143.2226  151.6069 LP  0  0  0  0  0  0  0  0  0  0  0  0  # atno 17342 bound_to 10162
  139.5292  144.2966  152.1108 LP  0  0  0  0  0  0  0  0  0  0  0  0  # atno 17343 bound_to 10162
  156.8903  130.9586  151.3589 LP  0  0  0  0  0  0  0  0  0  0  0  0  # atno 17370 bound_to 10713
  157.6127  130.8595  149.8978 LP  0  0  0  0  0  0  0  0  0  0  0  0  # atno 17371 bound_to 10713
  141.0775  133.6769  156.2266 LP  0  0  0  0  0  0  0  0  0  0  0  0  # atno 17394 bound_to 11000
  140.6404  134.5172  157.5569 LP  0  0  0  0  0  0  0  0  0  0  0  0  # atno 17395 bound_to 11000

$$$$
