AV-unprocessed.smi:35|AV-procd|sdf|277|dock5
  -GOLD-   2262016 43D 1   1.00000     0.00000
 Structure written by MMmdl.
 28 29  0  0  0  0  0  0  0  0  2 V2000
  152.7528  141.4971  158.9351 O   0  0  0  0  0  0  0  0  0  0  0  0
  152.1467  141.1745  157.9150 C   0  0  0  0  0  0  0  0  0  0  0  0
  152.4977  140.0978  157.1538 N   0  5  0  0  0  0  0  0  0  0  0  0
  151.8189  139.7422  156.0236 C   0  0  0  0  0  0  0  0  0  0  0  0
  152.1199  138.7668  155.3353 O   0  0  0  0  0  0  0  0  0  0  0  0
  150.7019  140.5220  155.6163 N   0  0  0  0  0  0  0  0  0  0  0  0
  149.9513  140.1217  154.3608 C   0  0  2  0  0  0  0  0  0  0  0  0
  149.3195  141.2441  153.8042 O   0  0  0  0  0  0  0  0  0  0  0  0
  147.9107  141.0473  153.6764 C   0  0  2  0  0  0  0  0  0  0  0  0
  147.1904  141.8193  154.8027 C   0  0  0  0  0  0  0  0  0  0  0  0
  146.9842  143.1685  154.4395 O   0  0  0  0  0  0  0  0  0  0  0  0
  147.7608  139.5200  153.6874 C   0  0  2  0  0  0  0  0  0  0  0  0
  146.4766  139.0327  154.0297 O   0  0  0  0  0  0  0  0  0  0  0  0
  148.8709  139.0480  154.6140 C   0  0  2  0  0  0  0  0  0  0  0  0
  148.4557  138.9650  155.9686 O   0  0  0  0  0  0  0  0  0  0  0  0
  150.3243  141.6223  156.3678 C   0  0  0  0  0  0  0  0  0  0  0  0
  150.9978  141.9662  157.4839 C   0  0  0  0  0  0  0  0  0  0  0  0
  150.3433  143.5607  158.4617 Br  0  0  0  0  0  0  0  0  0  0  0  0
  150.7167  139.7965  153.6538 H   0  0  0  0  0  0  0  0  0  0  0  0
  147.5974  141.4540  152.7140 H   0  0  0  0  0  0  0  0  0  0  0  0
  146.2421  141.3580  155.0753 H   0  0  0  0  0  0  0  0  0  0  0  0
  147.8106  141.8235  155.6989 H   0  0  0  0  0  0  0  0  0  0  0  0
  147.5935  143.7053  154.9228 H   0  0  0  0  0  0  0  0  0  0  0  0
  147.9887  139.1574  152.6841 H   0  0  0  0  0  0  0  0  0  0  0  0
  146.5616  138.1314  154.2993 H   0  0  0  0  0  0  0  0  0  0  0  0
  149.2531  138.0707  154.3172 H   0  0  0  0  0  0  0  0  0  0  0  0
  148.3019  139.8427  156.2846 H   0  0  0  0  0  0  0  0  0  0  0  0
  149.4812  142.2244  156.0705 H   0  0  0  0  0  0  0  0  0  0  0  0
  1  2  2  0  0  0  0
  2 17  1  0  0  0  0
  2  3  1  0  0  0  0
  3  4  1  0  0  0  0
  4  5  2  0  0  0  0
  4  6  1  0  0  0  0
  6  7  1  0  0  0  0
  6 16  1  0  0  0  0
  7 14  1  0  0  0  0
  7  8  1  0  0  0  0
  7 19  1  0  0  0  0
  8  9  1  0  0  0  0
  9 10  1  0  0  0  0
  9 12  1  0  0  0  0
  9 20  1  0  0  0  0
 10 11  1  0  0  0  0
 10 21  1  0  0  0  0
 10 22  1  0  0  0  0
 11 23  1  0  0  0  0
 12 13  1  0  0  0  0
 12 14  1  0  0  0  0
 12 24  1  0  0  0  0
 13 25  1  0  0  0  0
 14 15  1  0  0  0  0
 14 26  1  0  0  0  0
 15 27  1  0  0  0  0
 16 17  2  0  0  0  0
 16 28  1  0  0  0  0
 17 18  1  0  0  0  0
M  CHG  1   3  -1
M  END
> <s_m_source_file>
AV-unprocessed.smi

> <i_m_source_file_index>
35

> <i_lp_mmshare_version>
43012

> <i_f3d_flags>
0

> <s_epik_input>
Tz1jMVtuSF1jKD1PKW4oW2NIXWMxQnIpW0NAQEhdMk9bQ0BASF0oW0NIMl1bT0hdKVtDQEBIXShbT0hdKVtDQEhdMltPSF0=

> <s_epik_cmdline>
J2VwaWtfcHl0aG9uJywgJy1waCcsICc3LjAnLCAnLXRuJywgJzgnLCAnLW1hJywgJzIwMCcsICctbWV0YWxfYmluZGluZycsICctaW1hZScsICc8aW5maWxlLm1hZT4nLCAnLW9tYWUnLCAnPG91dGZpbGUubWFlPic=

> <r_epik_Ionization_Penalty>
1.06112

> <r_epik_Ionization_Penalty_Charging>
2.1796e-09

> <r_epik_Ionization_Penalty_Neutral>
1.06112

> <r_epik_State_Penalty>
1.11484

> <r_epik_Charging_Adjusted_Penalty>
1.11484

> <i_epik_Tot_Q>
-1

> <i_epik_Tot_abs_Q>
1

> <r_epik_Metal_State_Penalty>
0.0032876

> <b_epik_Metal_Only>
0

> <s_epik_Chemistry_Notes>
This compound contains an acetal/aminal-like group ( X-CH(R)-Y where X, Y are N, S, or O) that may be acid/base labile, releasing an aldehyde.

> <s_lp_Force_Field>
OPLS_2005

> <r_lp_Energy>
49.5496

> <b_lp_Chiralities_Consistent>
1

> <s_lp_Variant>
AV-unprocessed.smi:35-31

> <Gold.Version>
5.8.1

> <Gold.Id.Protein>
6NUR|6NUR_protein|mol2

> <Gold.PLP.Fitness>
39.7630

> <Gold.PLP.PLP>
-26.8738

> <Gold.PLP.part.hbond>
-5.0000

> <Gold.PLP.part.metal>
0.0000

> <Gold.PLP.part.buried>
1.5533

> <Gold.PLP.part.nonpolar>
-23.1109

> <Gold.PLP.part.repulsive>
1.9933

> <Gold.PLP.ligand.clash>
0.0000

> <Gold.PLP.ligand.torsion>
0.9491

> <Gold.PLP.Chemscore.Hbond>
3.9280

> <Gold.PLP.Chemscore.CHOScore>
0.9997

> <Gold.PLP.Chemscore.Metal>
0.0000

> <Gold.Chemscore.Hbonds>
donor molecule, donor type, donor heavy atom, donor atom, acceptor molecule, acceptor atom, score
      L1  H    11    23       P1  8028  0.75
      P1  H  7997  8008       L1     3  2.00
      P1  H  8011  8017       L1     8  0.86
      L1  C    16    28       P1  8028  0.83

> <Gold.PLP.Chemscore.Internal.Correction>
0.0043

> <Gold.Rescore>
     Score         DG    S(hbond)    S(metal)    S(lipo)     H(rot)  DE(clash)    DE(int)     intcor
      4.41      -6.74       1.52        0.00      46.62       3.63       1.52       0.81       ----

> <Gold.Chemscore.Fitness>
4.4083

> <Gold.Chemscore.DG>
-6.7392

> <Gold.Chemscore.ZeroCoef>
-5.4800

> <Gold.Chemscore.Hbond>
1.5230

> <Gold.Chemscore.Metal>
0.0000

> <Gold.Chemscore.Lipo>
46.6239

> <Gold.Chemscore.Internal_Hbond>
0.0000

> <Gold.Chemscore.DEClash>
1.5164

> <Gold.Chemscore.DEInternal>
0.8145

> <Gold.Chemscore.Rot>
3.6261

> <Gold.Chemscore.Internal.Correction>
   9.000000E+99

> <Gold.Chemscore.Hbonds>
donor molecule, donor type, donor heavy atom, donor atom, acceptor molecule, acceptor atom, score
      L1  H    11    23       P1  8028  0.09
      P1  H  7997  8008       L1     3  0.51
      P1  H  8011  8017       L1     8  0.42

> <Gold.Chemscore.Hbond.Weighted>
-5.0869

> <Gold.Chemscore.Metal.Weighted>
-0.0000

> <Gold.Chemscore.Lipo.Weighted>
-5.4550

> <Gold.Chemscore.Internal_Hbond.Weighted>
0.0000

> <Gold.Chemscore.DEClash.Weighted>
1.5164

> <Gold.Chemscore.DEInternal.Weighted>
0.8145

> <Gold.Chemscore.Rot.Weighted>
9.2828

> <Gold.Chemscore.Internal.Correction.Weighted>
   9.000000E+99

> <Gold.Protein.RotatedTorsions>
[ 6907 6896 6895 6894 ] final   42.70 input  -60.11 | X-H torsion
[ 7974 7965 7964 7962 ] final   87.99 input  175.53 | X-H torsion
[ 8008 7997 7996 7995 ] final  -69.64 input   59.86 | X-H torsion
[ 10167 10162 10161 10158 ] final  -42.56 input  -65.29 | X-H torsion
[ 10718 10713 10712 10709 ] final -131.27 input   66.30 | X-H torsion
[ 10763 10752 10751 10750 ] final  103.91 input  -60.55 | X-H torsion
[ 11005 11000 10999 10996 ] final  154.78 input  -57.11 | X-H torsion

> <Gold.Protein.ActiveResidues>
 VAL166  LYS551  ARG553  GLY616  TRP617  ASP618  TYR619  PRO620  LYS621  CYS622 
 ASP623  PHE694  ASN695  SER759  ASP760  ASP761  ALA762  ILE779  LEU786  VAL792 
 PHE793  MET794  SER795  GLU796  ALA797  LYS798  CYS799  TRP800  GLU811  SER814 

> <Gold.Protein.RotatedAtoms>
  152.2111  134.8500  160.0496 H   0  0  0  0  0  0  0  0  0  0  0  0  # atno 6907 bound_to 6896
  151.9318  133.3608  159.3942 H   0  0  0  0  0  0  0  0  0  0  0  0  # atno 6908 bound_to 6896
  150.6976  134.4454  159.5355 H   0  0  0  0  0  0  0  0  0  0  0  0  # atno 6909 bound_to 6896
  145.5516  139.2296  143.2509 H   0  0  0  0  0  0  0  0  0  0  0  0  # atno 7974 bound_to 7965
  154.4953  140.0849  156.7683 H   0  0  0  0  0  0  0  0  0  0  0  0  # atno 8008 bound_to 7997
  155.4132  140.3442  155.4247 H   0  0  0  0  0  0  0  0  0  0  0  0  # atno 8009 bound_to 7997
  156.1385  140.1522  156.8945 H   0  0  0  0  0  0  0  0  0  0  0  0  # atno 8010 bound_to 7997
  140.6965  143.3031  151.3227 H   0  0  0  0  0  0  0  0  0  0  0  0  # atno 10167 bound_to 10162
  156.2227  130.6989  151.0774 H   0  0  0  0  0  0  0  0  0  0  0  0  # atno 10718 bound_to 10713
  153.3589  135.3961  155.1703 H   0  0  0  0  0  0  0  0  0  0  0  0  # atno 10763 bound_to 10752
  154.8675  135.3674  154.5125 H   0  0  0  0  0  0  0  0  0  0  0  0  # atno 10764 bound_to 10752
  153.5583  135.7081  153.5619 H   0  0  0  0  0  0  0  0  0  0  0  0  # atno 10765 bound_to 10752
  140.1520  134.8668  157.2467 H   0  0  0  0  0  0  0  0  0  0  0  0  # atno 11005 bound_to 11000
  146.1913  140.6339  142.9144 LP  0  0  0  0  0  0  0  0  0  0  0  0  # atno 17320 bound_to 7965
  144.7526  140.5230  143.6791 LP  0  0  0  0  0  0  0  0  0  0  0  0  # atno 17321 bound_to 7965
  139.6426  144.0511  152.2566 LP  0  0  0  0  0  0  0  0  0  0  0  0  # atno 17342 bound_to 10162
  140.0021  144.6286  150.7721 LP  0  0  0  0  0  0  0  0  0  0  0  0  # atno 17343 bound_to 10162
  157.7095  131.0741  150.6549 LP  0  0  0  0  0  0  0  0  0  0  0  0  # atno 17370 bound_to 10713
  156.6613  130.4513  149.5687 LP  0  0  0  0  0  0  0  0  0  0  0  0  # atno 17371 bound_to 10713
  140.2593  134.3590  155.7412 LP  0  0  0  0  0  0  0  0  0  0  0  0  # atno 17394 bound_to 11000
  141.2200  133.7360  156.9055 LP  0  0  0  0  0  0  0  0  0  0  0  0  # atno 17395 bound_to 11000

$$$$
