AV-unprocessed.smi:2439|AV-procd|sdf|9613|dock6
  -GOLD-   2272013243D 1   1.00000     0.00000
 Structure written by MMmdl.
 40 42  0  0  0  0  0  0  0  0  1 V2000
  154.4192  138.3534  158.3075 N   0  0  0  0  0  0  0  0  0  0  0  0
  154.5232  138.2215  159.4522 C   0  0  0  0  0  0  0  0  0  0  0  0
  154.6545  138.0553  160.8947 C   0  0  0  0  0  0  0  0  0  0  0  0
  154.1526  136.8815  161.4948 C   0  0  0  0  0  0  0  0  0  0  0  0
  154.2772  136.7147  162.8861 C   0  0  0  0  0  0  0  0  0  0  0  0
  154.9030  137.7348  163.6255 C   0  0  0  0  0  0  0  0  0  0  0  0
  155.3875  138.8623  163.0648 N   0  0  0  0  0  0  0  0  0  0  0  0
  155.2692  139.0313  161.7247 C   0  0  0  0  0  0  0  0  0  0  0  0
  155.7828  140.2173  161.1708 N   0  0  0  0  0  0  0  0  0  0  0  0
  154.9646  141.0633  160.3133 C   0  0  0  0  0  0  0  0  0  0  0  0
  153.4662  140.9110  160.6361 C   0  0  2  0  0  0  0  0  0  0  0  0
  152.5568  141.2560  159.4411 C   0  0  0  0  0  0  0  0  0  0  0  0
  152.5216  142.6850  159.1524 N   0  0  0  0  0  0  0  0  0  0  0  0
  151.6312  142.9727  158.0288 C   0  0  0  0  0  0  0  0  0  0  0  0
  151.5992  144.4669  157.6720 C   0  0  0  0  0  0  0  0  0  0  0  0
  151.1905  145.2971  158.8968 C   0  0  0  0  0  0  0  0  0  0  0  0
  152.0925  144.9524  160.0917 C   0  0  0  0  0  0  0  0  0  0  0  0
  152.1182  143.4307  160.3480 C   0  0  2  0  0  0  0  0  0  0  0  0
  153.0380  143.1024  161.5407 C   0  0  0  0  0  0  0  0  0  0  0  0
  153.0788  141.6953  161.7663 O   0  0  0  0  0  0  0  0  0  0  0  0
  153.6767  136.1145  160.9004 H   0  0  0  0  0  0  0  0  0  0  0  0
  153.9032  135.8269  163.3739 H   0  0  0  0  0  0  0  0  0  0  0  0
  155.0183  137.6436  164.6954 H   0  0  0  0  0  0  0  0  0  0  0  0
  156.7726  140.4093  161.2324 H   0  0  0  0  0  0  0  0  0  0  0  0
  155.2799  142.1026  160.4048 H   0  0  0  0  0  0  0  0  0  0  0  0
  155.1420  140.7729  159.2773 H   0  0  0  0  0  0  0  0  0  0  0  0
  153.2875  139.8671  160.8974 H   0  0  0  0  0  0  0  0  0  0  0  0
  152.8877  140.7063  158.5589 H   0  0  0  0  0  0  0  0  0  0  0  0
  151.5463  140.9063  159.6585 H   0  0  0  0  0  0  0  0  0  0  0  0
  151.9508  142.4052  157.1540 H   0  0  0  0  0  0  0  0  0  0  0  0
  150.6200  142.6355  158.2622 H   0  0  0  0  0  0  0  0  0  0  0  0
  152.5838  144.7817  157.3236 H   0  0  0  0  0  0  0  0  0  0  0  0
  150.9054  144.6427  156.8497 H   0  0  0  0  0  0  0  0  0  0  0  0
  151.2501  146.3619  158.6705 H   0  0  0  0  0  0  0  0  0  0  0  0
  150.1507  145.0874  159.1507 H   0  0  0  0  0  0  0  0  0  0  0  0
  153.1047  145.3106  159.8970 H   0  0  0  0  0  0  0  0  0  0  0  0
  151.7428  145.4789  160.9804 H   0  0  0  0  0  0  0  0  0  0  0  0
  151.1072  143.1229  160.6205 H   0  0  0  0  0  0  0  0  0  0  0  0
  154.0451  143.4864  161.3762 H   0  0  0  0  0  0  0  0  0  0  0  0
  152.6676  143.5841  162.4458 H   0  0  0  0  0  0  0  0  0  0  0  0
  1  2  3  0  0  0  0
  2  3  1  0  0  0  0
  3  8  1  0  0  0  0
  3  4  2  0  0  0  0
  4  5  1  0  0  0  0
  4 21  1  0  0  0  0
  5  6  2  0  0  0  0
  5 22  1  0  0  0  0
  6  7  1  0  0  0  0
  6 23  1  0  0  0  0
  7  8  2  0  0  0  0
  8  9  1  0  0  0  0
  9 10  1  0  0  0  0
  9 24  1  0  0  0  0
 10 11  1  0  0  0  0
 10 25  1  0  0  0  0
 10 26  1  0  0  0  0
 11 20  1  0  0  0  0
 11 12  1  0  0  0  0
 11 27  1  0  0  0  0
 12 13  1  0  0  0  0
 12 28  1  0  0  0  0
 12 29  1  0  0  0  0
 13 18  1  0  0  0  0
 13 14  1  0  0  0  0
 14 15  1  0  0  0  0
 14 30  1  0  0  0  0
 14 31  1  0  0  0  0
 15 16  1  0  0  0  0
 15 32  1  0  0  0  0
 15 33  1  0  0  0  0
 16 17  1  0  0  0  0
 16 34  1  0  0  0  0
 16 35  1  0  0  0  0
 17 18  1  0  0  0  0
 17 36  1  0  0  0  0
 17 37  1  0  0  0  0
 18 19  1  0  0  0  0
 18 38  1  0  0  0  0
 19 20  1  0  0  0  0
 19 39  1  0  0  0  0
 19 40  1  0  0  0  0
M  END
> <s_m_source_file>
AV-unprocessed.smi

> <i_m_source_file_index>
2439

> <i_lp_mmshare_version>
43012

> <i_f3d_flags>
0

> <s_epik_input>
TiNDYzFbY0hdW2NIXVtjSF1uYzFbTkhdW0NIMl1bQ0BIXShbQ0gyXTIpT1tDSDJdW0NAQEhdKE4yMylbQ0gyXVtDSDJdW0NIMl1bQ0gyXTM=

> <s_epik_cmdline>
J2VwaWtfcHl0aG9uJywgJy1waCcsICc3LjAnLCAnLXRuJywgJzgnLCAnLW1hJywgJzIwMCcsICctbWV0YWxfYmluZGluZycsICctaW1hZScsICc8aW5maWxlLm1hZT4nLCAnLW9tYWUnLCAnPG91dGZpbGUubWFlPic=

> <r_epik_Ionization_Penalty>
1.22355

> <r_epik_Ionization_Penalty_Charging>
0

> <r_epik_Ionization_Penalty_Neutral>
1.22355

> <r_epik_State_Penalty>
1.29103

> <r_epik_Charging_Adjusted_Penalty>
1.29103

> <i_epik_Tot_Q>
0

> <i_epik_Tot_abs_Q>
0

> <r_epik_Metal_State_Penalty>
1.29103

> <b_epik_Metal_Only>
0

> <s_lp_Force_Field>
OPLS_2005

> <r_lp_Energy>
40.6055

> <b_lp_Chiralities_Consistent>
1

> <s_lp_Variant>
AV-unprocessed.smi:2439-11

> <Gold.Version>
5.8.1

> <Gold.Id.Protein>
6NUR|6NUR_protein|mol2

> <Gold.PLP.Fitness>
42.7819

> <Gold.PLP.PLP>
-41.5748

> <Gold.PLP.part.hbond>
-1.6442

> <Gold.PLP.part.metal>
0.0000

> <Gold.PLP.part.buried>
-5.5878

> <Gold.PLP.part.nonpolar>
-34.0471

> <Gold.PLP.part.repulsive>
0.0462

> <Gold.PLP.ligand.clash>
0.0000

> <Gold.PLP.ligand.torsion>
0.8995

> <Gold.PLP.Chemscore.Hbond>
1.0000

> <Gold.PLP.Chemscore.CHOScore>
0.0000

> <Gold.PLP.Chemscore.Metal>
0.0000

> <Gold.Chemscore.Hbonds>
donor molecule, donor type, donor heavy atom, donor atom, acceptor molecule, acceptor atom, score
      P1  H  7997  8010       L1     1  1.00

> <Gold.PLP.Chemscore.Internal.Correction>
0.0061

> <Gold.Rescore>
     Score         DG    S(hbond)    S(metal)    S(lipo)     H(rot)  DE(clash)    DE(int)     intcor
     19.02     -20.08       0.90        0.00     126.29       1.25       0.08       0.97       ----

> <Gold.Chemscore.Fitness>
19.0246

> <Gold.Chemscore.DG>
-20.0761

> <Gold.Chemscore.ZeroCoef>
-5.4800

> <Gold.Chemscore.Hbond>
0.9029

> <Gold.Chemscore.Metal>
0.0000

> <Gold.Chemscore.Lipo>
126.2948

> <Gold.Chemscore.Internal_Hbond>
0.0000

> <Gold.Chemscore.DEClash>
0.0775

> <Gold.Chemscore.DEInternal>
0.9740

> <Gold.Chemscore.Rot>
1.2485

> <Gold.Chemscore.Internal.Correction>
   9.000000E+99

> <Gold.Chemscore.Hbonds>
donor molecule, donor type, donor heavy atom, donor atom, acceptor molecule, acceptor atom, score
      P1  H  7997  8010       L1     1  0.93

> <Gold.Chemscore.Hbond.Weighted>
-3.0157

> <Gold.Chemscore.Metal.Weighted>
-0.0000

> <Gold.Chemscore.Lipo.Weighted>
-14.7765

> <Gold.Chemscore.Internal_Hbond.Weighted>
0.0000

> <Gold.Chemscore.DEClash.Weighted>
0.0775

> <Gold.Chemscore.DEInternal.Weighted>
0.9740

> <Gold.Chemscore.Rot.Weighted>
3.1961

> <Gold.Chemscore.Internal.Correction.Weighted>
   9.000000E+99

> <Gold.Protein.RotatedTorsions>
[ 6907 6896 6895 6894 ] final   64.19 input  -60.11 | X-H torsion
[ 7974 7965 7964 7962 ] final  -72.96 input  175.53 | X-H torsion
[ 8008 7997 7996 7995 ] final    6.71 input   59.86 | X-H torsion
[ 10167 10162 10161 10158 ] final  111.24 input  -65.29 | X-H torsion
[ 10718 10713 10712 10709 ] final  -50.03 input   66.30 | X-H torsion
[ 10763 10752 10751 10750 ] final  -14.07 input  -60.55 | X-H torsion
[ 11005 11000 10999 10996 ] final   -1.54 input  -57.11 | X-H torsion

> <Gold.Protein.ActiveResidues>
 VAL166  LYS551  ARG553  GLY616  TRP617  ASP618  TYR619  PRO620  LYS621  CYS622 
 ASP623  PHE694  ASN695  SER759  ASP760  ASP761  ALA762  ILE779  LEU786  VAL792 
 PHE793  MET794  SER795  GLU796  ALA797  LYS798  CYS799  TRP800  GLU811  SER814 

> <Gold.Protein.RotatedAtoms>
  152.4312  134.5774  159.9938 H   0  0  0  0  0  0  0  0  0  0  0  0  # atno 6907 bound_to 6896
  151.5897  133.3362  159.3033 H   0  0  0  0  0  0  0  0  0  0  0  0  # atno 6908 bound_to 6896
  150.8205  134.7446  159.6833 H   0  0  0  0  0  0  0  0  0  0  0  0  # atno 6909 bound_to 6896
  145.6583  140.9261  143.0947 H   0  0  0  0  0  0  0  0  0  0  0  0  # atno 7974 bound_to 7965
  154.7445  140.2755  155.6345 H   0  0  0  0  0  0  0  0  0  0  0  0  # atno 8008 bound_to 7997
  156.2881  140.2690  156.2107 H   0  0  0  0  0  0  0  0  0  0  0  0  # atno 8009 bound_to 7997
  155.0216  140.0371  157.2429 H   0  0  0  0  0  0  0  0  0  0  0  0  # atno 8010 bound_to 7997
  139.6627  144.7128  151.1835 H   0  0  0  0  0  0  0  0  0  0  0  0  # atno 10167 bound_to 10162
  156.1838  130.4151  149.9469 H   0  0  0  0  0  0  0  0  0  0  0  0  # atno 10718 bound_to 10713
  153.5227  135.7015  153.5723 H   0  0  0  0  0  0  0  0  0  0  0  0  # atno 10763 bound_to 10752
  153.3765  135.3931  155.1826 H   0  0  0  0  0  0  0  0  0  0  0  0  # atno 10764 bound_to 10752
  154.8693  135.3824  154.4717 H   0  0  0  0  0  0  0  0  0  0  0  0  # atno 10765 bound_to 10752
  140.6485  133.9426  155.8366 H   0  0  0  0  0  0  0  0  0  0  0  0  # atno 11005 bound_to 11000
  144.7098  139.8416  143.7418 LP  0  0  0  0  0  0  0  0  0  0  0  0  # atno 17320 bound_to 7965
  146.1146  139.4156  143.0266 LP  0  0  0  0  0  0  0  0  0  0  0  0  # atno 17321 bound_to 7965
  140.7586  143.5969  150.8739 LP  0  0  0  0  0  0  0  0  0  0  0  0  # atno 17342 bound_to 10162
  139.9628  143.6145  152.2997 LP  0  0  0  0  0  0  0  0  0  0  0  0  # atno 17343 bound_to 10162
  156.7231  130.9014  151.3620 LP  0  0  0  0  0  0  0  0  0  0  0  0  # atno 17370 bound_to 10713
  157.6885  130.9210  150.0451 LP  0  0  0  0  0  0  0  0  0  0  0  0  # atno 17371 bound_to 10713
  141.0555  134.0423  157.3728 LP  0  0  0  0  0  0  0  0  0  0  0  0  # atno 17394 bound_to 11000
  139.9054  135.0178  156.7463 LP  0  0  0  0  0  0  0  0  0  0  0  0  # atno 17395 bound_to 11000

$$$$
