AV-unprocessed.smi:67|AV-procd|sdf|637|dock4
  -GOLD-   2262016533D 1   1.00000     0.00000
 Structure written by MMmdl.
 48 50  0  0  0  0  0  0  0  0  2 V2000
  147.6892  134.3841  153.1421 O   0  0  0  0  0  0  0  0  0  0  0  0
  146.7672  134.9189  154.0751 C   0  0  1  0  0  0  0  0  0  0  0  0
  147.5548  135.7223  155.1458 C   0  0  0  0  0  0  0  0  0  0  0  0
  148.3469  136.8720  154.6210 N   0  3  2  0  0  0  0  0  0  0  0  0
  149.6377  137.0139  155.3464 C   0  0  0  0  0  0  0  0  0  0  0  0
  150.5208  138.1129  154.7335 C   0  0  0  0  0  0  0  0  0  0  0  0
  149.7885  139.4671  154.7005 C   0  0  2  0  0  0  0  0  0  0  0  0
  149.4956  139.9328  156.0163 O   0  0  0  0  0  0  0  0  0  0  0  0
  150.5189  140.3133  156.8599 C   0  0  0  0  0  0  0  0  0  0  0  0
  151.4812  139.4314  157.4124 C   0  0  0  0  0  0  0  0  0  0  0  0
  152.4923  139.9227  158.2601 C   0  0  0  0  0  0  0  0  0  0  0  0
  152.5555  141.2942  158.5669 C   0  0  0  0  0  0  0  0  0  0  0  0
  151.6039  142.1851  158.0286 C   0  0  0  0  0  0  0  0  0  0  0  0
  151.6744  143.6708  158.3485 C   0  0  0  0  0  0  0  0  0  0  0  0
  150.5005  144.1189  158.7957 F   0  0  0  0  0  0  0  0  0  0  0  0
  152.5953  143.9118  159.2824 F   0  0  0  0  0  0  0  0  0  0  0  0
  151.9972  144.3416  157.2435 F   0  0  0  0  0  0  0  0  0  0  0  0
  150.5975  141.6858  157.1739 C   0  0  0  0  0  0  0  0  0  0  0  0
  148.4537  139.2892  153.9644 C   0  0  0  0  0  0  0  0  0  0  0  0
  147.6034  138.1600  154.5737 C   0  0  0  0  0  0  0  0  0  0  0  0
  145.6454  135.7173  153.3729 C   0  0  0  0  0  0  0  0  0  0  0  0
  144.3731  134.8948  153.5714 C   0  0  0  0  0  0  0  0  0  0  0  0
  144.6184  134.1262  154.7765 N   0  0  0  0  0  0  0  0  0  0  0  0
  146.0140  133.7294  154.7097 C   0  0  0  0  0  0  0  0  0  0  0  0
  148.2041  135.0920  152.7857 H   0  0  0  0  0  0  0  0  0  0  0  0
  146.8954  136.0542  155.9492 H   0  0  0  0  0  0  0  0  0  0  0  0
  148.2601  135.0326  155.6118 H   0  0  0  0  0  0  0  0  0  0  0  0
  149.4422  137.2319  156.3976 H   0  0  0  0  0  0  0  0  0  0  0  0
  150.1839  136.0702  155.3174 H   0  0  0  0  0  0  0  0  0  0  0  0
  151.4543  138.1854  155.2908 H   0  0  0  0  0  0  0  0  0  0  0  0
  150.7981  137.8274  153.7180 H   0  0  0  0  0  0  0  0  0  0  0  0
  150.3685  140.2099  154.1526 H   0  0  0  0  0  0  0  0  0  0  0  0
  151.4701  138.3733  157.2032 H   0  0  0  0  0  0  0  0  0  0  0  0
  153.2235  139.2448  158.6754 H   0  0  0  0  0  0  0  0  0  0  0  0
  153.3389  141.6593  159.2147 H   0  0  0  0  0  0  0  0  0  0  0  0
  149.8709  142.3627  156.7491 H   0  0  0  0  0  0  0  0  0  0  0  0
  147.8937  140.2249  153.9784 H   0  0  0  0  0  0  0  0  0  0  0  0
  148.6476  139.0655  152.9145 H   0  0  0  0  0  0  0  0  0  0  0  0
  146.7130  138.0585  153.9582 H   0  0  0  0  0  0  0  0  0  0  0  0
  147.2729  138.4311  155.5776 H   0  0  0  0  0  0  0  0  0  0  0  0
  145.5005  136.6841  153.8559 H   0  0  0  0  0  0  0  0  0  0  0  0
  145.8452  135.9051  152.3170 H   0  0  0  0  0  0  0  0  0  0  0  0
  143.4800  135.5146  153.6562 H   0  0  0  0  0  0  0  0  0  0  0  0
  144.2346  134.2209  152.7250 H   0  0  0  0  0  0  0  0  0  0  0  0
  144.0131  133.3116  154.8134 H   0  0  0  0  0  0  0  0  0  0  0  0
  146.0971  132.8468  154.0729 H   0  0  0  0  0  0  0  0  0  0  0  0
  146.3967  133.4474  155.6911 H   0  0  0  0  0  0  0  0  0  0  0  0
  148.5822  136.6384  153.6667 H   0  0  0  0  0  0  0  0  0  0  0  0
  1  2  1  0  0  0  0
  1 25  1  0  0  0  0
  2 24  1  0  0  0  0
  2  3  1  0  0  0  0
  2 21  1  0  0  0  0
  3  4  1  0  0  0  0
  3 26  1  0  0  0  0
  3 27  1  0  0  0  0
  4 20  1  0  0  0  0
  4  5  1  0  0  0  0
  4 48  1  0  0  0  0
  5  6  1  0  0  0  0
  5 28  1  0  0  0  0
  5 29  1  0  0  0  0
  6  7  1  0  0  0  0
  6 30  1  0  0  0  0
  6 31  1  0  0  0  0
  7  8  1  0  0  0  0
  7 19  1  0  0  0  0
  7 32  1  0  0  0  0
  8  9  1  0  0  0  0
  9 18  1  0  0  0  0
  9 10  2  0  0  0  0
 10 11  1  0  0  0  0
 10 33  1  0  0  0  0
 11 12  2  0  0  0  0
 11 34  1  0  0  0  0
 12 13  1  0  0  0  0
 12 35  1  0  0  0  0
 13 14  1  0  0  0  0
 13 18  2  0  0  0  0
 14 15  1  0  0  0  0
 14 16  1  0  0  0  0
 14 17  1  0  0  0  0
 18 36  1  0  0  0  0
 19 20  1  0  0  0  0
 19 37  1  0  0  0  0
 19 38  1  0  0  0  0
 20 39  1  0  0  0  0
 20 40  1  0  0  0  0
 21 22  1  0  0  0  0
 21 41  1  0  0  0  0
 21 42  1  0  0  0  0
 22 23  1  0  0  0  0
 22 43  1  0  0  0  0
 22 44  1  0  0  0  0
 23 24  1  0  0  0  0
 23 45  1  0  0  0  0
 24 46  1  0  0  0  0
 24 47  1  0  0  0  0
M  CHG  1   4   1
M  END
> <s_m_source_file>
AV-unprocessed.smi

> <i_m_source_file_index>
67

> <i_lp_mmshare_version>
43012

> <i_f3d_flags>
0

> <s_epik_input>
W0NIMl0xW05IXVtDSDJdW0NIMl1bQ0BAXTEoW09IXSlbQ0gyXU4yW0NIMl1bQ0gyXVtDSF0oW0NIMl1bQ0gyXTIpT2MzW2NIXVtjSF1bY0hdYyhDKEYpKEYpRilbY0hdMw==

> <s_epik_cmdline>
J2VwaWtfcHl0aG9uJywgJy1waCcsICc3LjAnLCAnLXRuJywgJzgnLCAnLW1hJywgJzIwMCcsICctbWV0YWxfYmluZGluZycsICctaW1hZScsICc8aW5maWxlLm1hZT4nLCAnLW9tYWUnLCAnPG91dGZpbGUubWFlPic=

> <r_epik_Ionization_Penalty>
2.37709

> <r_epik_Ionization_Penalty_Charging>
0.0305656

> <r_epik_Ionization_Penalty_Neutral>
2.34653

> <r_epik_State_Penalty>
2.56959

> <r_epik_Charging_Adjusted_Penalty>
2.60016

> <i_epik_Tot_Q>
1

> <i_epik_Tot_abs_Q>
1

> <r_epik_Metal_State_Penalty>
2.56925

> <b_epik_Metal_Only>
0

> <s_lp_Force_Field>
OPLS_2005

> <r_lp_Energy>
51.6978

> <b_lp_Chiralities_Consistent>
1

> <s_lp_Variant>
AV-unprocessed.smi:67-9

> <Gold.Version>
5.8.1

> <Gold.Id.Protein>
6NUR|6NUR_protein|mol2

> <Gold.PLP.Fitness>
47.4022

> <Gold.PLP.PLP>
-36.3184

> <Gold.PLP.part.hbond>
-2.8922

> <Gold.PLP.part.metal>
0.0000

> <Gold.PLP.part.buried>
-4.4764

> <Gold.PLP.part.nonpolar>
-29.0441

> <Gold.PLP.part.repulsive>
0.0066

> <Gold.PLP.ligand.clash>
1.3049

> <Gold.PLP.ligand.torsion>
0.7061

> <Gold.PLP.Chemscore.Hbond>
4.0000

> <Gold.PLP.Chemscore.CHOScore>
0.0000

> <Gold.PLP.Chemscore.Metal>
0.0000

> <Gold.Chemscore.Hbonds>
donor molecule, donor type, donor heavy atom, donor atom, acceptor molecule, acceptor atom, score
      L1  H     1    25       P1  7948  1.00
      L1  H     4    48       P1  7948  2.00
      L1  H    23    45       P1 10957  0.96

> <Gold.PLP.Chemscore.Internal.Correction>
1.8010

> <Gold.Rescore>
     Score         DG    S(hbond)    S(metal)    S(lipo)     H(rot)  DE(clash)    DE(int)     intcor
     19.13     -19.54       2.98        0.00      82.62       2.17       0.01       0.39       ----

> <Gold.Chemscore.Fitness>
19.1341

> <Gold.Chemscore.DG>
-19.5351

> <Gold.Chemscore.ZeroCoef>
-5.4800

> <Gold.Chemscore.Hbond>
2.9799

> <Gold.Chemscore.Metal>
0.0000

> <Gold.Chemscore.Lipo>
82.6188

> <Gold.Chemscore.Internal_Hbond>
0.0000

> <Gold.Chemscore.DEClash>
0.0073

> <Gold.Chemscore.DEInternal>
0.3937

> <Gold.Chemscore.Rot>
2.1734

> <Gold.Chemscore.Internal.Correction>
   9.000000E+99

> <Gold.Chemscore.Hbonds>
donor molecule, donor type, donor heavy atom, donor atom, acceptor molecule, acceptor atom, score
      L1  H     1    25       P1  7948  0.90
      L1  H     4    48       P1  7948  1.00
      L1  H    23    45       P1 10957  0.91

> <Gold.Chemscore.Hbond.Weighted>
-9.9527

> <Gold.Chemscore.Metal.Weighted>
-0.0000

> <Gold.Chemscore.Lipo.Weighted>
-9.6664

> <Gold.Chemscore.Internal_Hbond.Weighted>
0.0000

> <Gold.Chemscore.DEClash.Weighted>
0.0073

> <Gold.Chemscore.DEInternal.Weighted>
0.3937

> <Gold.Chemscore.Rot.Weighted>
5.5640

> <Gold.Chemscore.Internal.Correction.Weighted>
   9.000000E+99

> <Gold.Protein.RotatedTorsions>
[ 6907 6896 6895 6894 ] final -152.25 input  -60.11 | X-H torsion
[ 7974 7965 7964 7962 ] final    4.26 input  175.53 | X-H torsion
[ 8008 7997 7996 7995 ] final  -47.24 input   59.86 | X-H torsion
[ 10167 10162 10161 10158 ] final  -41.79 input  -65.29 | X-H torsion
[ 10718 10713 10712 10709 ] final   40.93 input   66.30 | X-H torsion
[ 10763 10752 10751 10750 ] final -115.89 input  -60.55 | X-H torsion
[ 11005 11000 10999 10996 ] final  153.24 input  -57.11 | X-H torsion

> <Gold.Protein.ActiveResidues>
 VAL166  LYS551  ARG553  GLY616  TRP617  ASP618  TYR619  PRO620  LYS621  CYS622 
 ASP623  PHE694  ASN695  SER759  ASP760  ASP761  ALA762  ILE779  LEU786  VAL792 
 PHE793  MET794  SER795  GLU796  ALA797  LYS798  CYS799  TRP800  GLU811  SER814 

> <Gold.Protein.RotatedAtoms>
  151.2250  133.4481  159.2601 H   0  0  0  0  0  0  0  0  0  0  0  0  # atno 6907 bound_to 6896
  151.0848  134.9881  159.8384 H   0  0  0  0  0  0  0  0  0  0  0  0  # atno 6908 bound_to 6896
  152.5428  134.2187  159.8832 H   0  0  0  0  0  0  0  0  0  0  0  0  # atno 6909 bound_to 6896
  146.2444  140.0562  142.8371 H   0  0  0  0  0  0  0  0  0  0  0  0  # atno 7974 bound_to 7965
  154.4015  140.1351  156.4143 H   0  0  0  0  0  0  0  0  0  0  0  0  # atno 8008 bound_to 7997
  155.7704  140.3484  155.5224 H   0  0  0  0  0  0  0  0  0  0  0  0  # atno 8009 bound_to 7997
  155.8772  140.0981  157.1500 H   0  0  0  0  0  0  0  0  0  0  0  0  # atno 8010 bound_to 7997
  140.6991  143.3074  151.3116 H   0  0  0  0  0  0  0  0  0  0  0  0  # atno 10167 bound_to 10162
  157.3878  130.7789  149.7244 H   0  0  0  0  0  0  0  0  0  0  0  0  # atno 10718 bound_to 10713
  154.8499  135.4365  154.1735 H   0  0  0  0  0  0  0  0  0  0  0  0  # atno 10763 bound_to 10752
  153.2842  135.6956  153.7361 H   0  0  0  0  0  0  0  0  0  0  0  0  # atno 10764 bound_to 10752
  153.6553  135.3444  155.3086 H   0  0  0  0  0  0  0  0  0  0  0  0  # atno 10765 bound_to 10752
  140.1380  134.8758  157.2293 H   0  0  0  0  0  0  0  0  0  0  0  0  # atno 11005 bound_to 11000
  145.0941  140.9303  143.4752 LP  0  0  0  0  0  0  0  0  0  0  0  0  # atno 17320 bound_to 7965
  145.0740  139.3009  143.5817 LP  0  0  0  0  0  0  0  0  0  0  0  0  # atno 17321 bound_to 7965
  139.6485  144.0406  152.2609 LP  0  0  0  0  0  0  0  0  0  0  0  0  # atno 17342 bound_to 10162
  139.9934  144.6345  150.7793 LP  0  0  0  0  0  0  0  0  0  0  0  0  # atno 17343 bound_to 10162
  155.9791  130.4044  150.3609 LP  0  0  0  0  0  0  0  0  0  0  0  0  # atno 17370 bound_to 10713
  157.1722  131.0371  151.2790 LP  0  0  0  0  0  0  0  0  0  0  0  0  # atno 17371 bound_to 10713
  140.2758  134.3407  155.7358 LP  0  0  0  0  0  0  0  0  0  0  0  0  # atno 17394 bound_to 11000
  141.2181  133.7450  156.9291 LP  0  0  0  0  0  0  0  0  0  0  0  0  # atno 17395 bound_to 11000

$$$$
