AV-unprocessed.smi:653|AV-procd|sdf|3209|dock1
  -GOLD-   22720 0143D 1   1.00000     0.00000
 Structure written by MMmdl.
 45 46  0  0  0  0  0  0  0  0  2 V2000
  143.9118  131.8498  150.6593 C   0  0  0  0  0  0  0  0  0  0  0  0
  143.9892  133.2460  151.2401 C   0  0  0  0  0  0  0  0  0  0  0  0
  144.4919  134.3393  150.5027 C   0  0  0  0  0  0  0  0  0  0  0  0
  144.5323  135.6149  151.1028 C   0  0  0  0  0  0  0  0  0  0  0  0
  144.0681  135.7729  152.4275 C   0  0  0  0  0  0  0  0  0  0  0  0
  144.1000  137.1327  153.1018 C   0  0  0  0  0  0  0  0  0  0  0  0
  145.4819  137.3966  153.7015 C   0  0  0  0  0  0  0  0  0  0  0  0
  146.2506  136.4572  153.9056 O   0  0  0  0  0  0  0  0  0  0  0  0
  145.7820  138.6757  153.9759 N   0  0  0  0  0  0  0  0  0  0  0  0
  147.0435  139.1520  154.5356 C   0  0  0  0  0  0  0  0  0  0  0  0
  147.7660  140.1397  153.5860 C   0  0  1  0  0  0  0  0  0  0  0  0
  146.9749  141.4165  153.3372 C   0  0  0  0  0  0  0  0  0  0  0  0
  147.3505  142.2974  154.5299 C   0  0  0  0  0  0  0  0  0  0  0  0
  148.5653  141.7598  155.0465 O   0  0  0  0  0  0  0  0  0  0  0  0
  149.0528  140.7530  154.1670 C   0  0  1  0  0  0  0  0  0  0  0  0
  150.0401  139.8028  154.8828 C   0  0  0  0  0  0  0  0  0  0  0  0
  151.2007  140.5887  155.5141 C   0  0  0  0  0  0  0  0  0  0  0  0
  150.5942  138.7310  153.9284 C   0  0  0  0  0  0  0  0  0  0  0  0
  143.5745  134.6430  153.1155 C   0  0  0  0  0  0  0  0  0  0  0  0
  143.5533  133.4379  152.5056 N   0  3  0  0  0  0  0  0  0  0  0  0
  144.6500  131.7176  149.8678 H   0  0  0  0  0  0  0  0  0  0  0  0
  142.9221  131.6720  150.2378 H   0  0  0  0  0  0  0  0  0  0  0  0
  144.1002  131.0979  151.4264 H   0  0  0  0  0  0  0  0  0  0  0  0
  144.8424  134.2042  149.4897 H   0  0  0  0  0  0  0  0  0  0  0  0
  144.9171  136.4609  150.5518 H   0  0  0  0  0  0  0  0  0  0  0  0
  143.8356  137.9098  152.3829 H   0  0  0  0  0  0  0  0  0  0  0  0
  143.3519  137.1704  153.8946 H   0  0  0  0  0  0  0  0  0  0  0  0
  145.0834  139.3775  153.7782 H   0  0  0  0  0  0  0  0  0  0  0  0
  146.8988  139.5976  155.5213 H   0  0  0  0  0  0  0  0  0  0  0  0
  147.6583  138.2673  154.6955 H   0  0  0  0  0  0  0  0  0  0  0  0
  147.9773  139.6329  152.6436 H   0  0  0  0  0  0  0  0  0  0  0  0
  147.3248  141.8848  152.4161 H   0  0  0  0  0  0  0  0  0  0  0  0
  145.8999  141.2741  153.2359 H   0  0  0  0  0  0  0  0  0  0  0  0
  147.4767  143.3400  154.2371 H   0  0  0  0  0  0  0  0  0  0  0  0
  146.5874  142.2529  155.3076 H   0  0  0  0  0  0  0  0  0  0  0  0
  149.5854  141.2614  153.3605 H   0  0  0  0  0  0  0  0  0  0  0  0
  149.5178  139.2986  155.6961 H   0  0  0  0  0  0  0  0  0  0  0  0
  151.7675  141.1346  154.7592 H   0  0  0  0  0  0  0  0  0  0  0  0
  151.8918  139.9222  156.0309 H   0  0  0  0  0  0  0  0  0  0  0  0
  150.8394  141.3117  156.2458 H   0  0  0  0  0  0  0  0  0  0  0  0
  151.1373  139.1843  153.0987 H   0  0  0  0  0  0  0  0  0  0  0  0
  149.8011  138.1147  153.5061 H   0  0  0  0  0  0  0  0  0  0  0  0
  151.2811  138.0620  154.4477 H   0  0  0  0  0  0  0  0  0  0  0  0
  143.2020  134.6664  154.1293 H   0  0  0  0  0  0  0  0  0  0  0  0
  143.1928  132.6364  153.0239 H   0  0  0  0  0  0  0  0  0  0  0  0
  1  2  1  0  0  0  0
  1 21  1  0  0  0  0
  1 22  1  0  0  0  0
  1 23  1  0  0  0  0
  2 20  1  0  0  0  0
  2  3  2  0  0  0  0
  3  4  1  0  0  0  0
  3 24  1  0  0  0  0
  4  5  2  0  0  0  0
  4 25  1  0  0  0  0
  5  6  1  0  0  0  0
  5 19  1  0  0  0  0
  6  7  1  0  0  0  0
  6 26  1  0  0  0  0
  6 27  1  0  0  0  0
  7  8  2  0  0  0  0
  7  9  1  0  0  0  0
  9 10  1  0  0  0  0
  9 28  1  0  0  0  0
 10 11  1  0  0  0  0
 10 29  1  0  0  0  0
 10 30  1  0  0  0  0
 11 15  1  0  0  0  0
 11 12  1  0  0  0  0
 11 31  1  0  0  0  0
 12 13  1  0  0  0  0
 12 32  1  0  0  0  0
 12 33  1  0  0  0  0
 13 14  1  0  0  0  0
 13 34  1  0  0  0  0
 13 35  1  0  0  0  0
 14 15  1  0  0  0  0
 15 16  1  0  0  0  0
 15 36  1  0  0  0  0
 16 17  1  0  0  0  0
 16 18  1  0  0  0  0
 16 37  1  0  0  0  0
 17 38  1  0  0  0  0
 17 39  1  0  0  0  0
 17 40  1  0  0  0  0
 18 41  1  0  0  0  0
 18 42  1  0  0  0  0
 18 43  1  0  0  0  0
 19 20  2  0  0  0  0
 19 44  1  0  0  0  0
 20 45  1  0  0  0  0
M  CHG  1  20   1
M  END
> <s_m_source_file>
AV-unprocessed.smi

> <i_m_source_file_index>
653

> <i_lp_mmshare_version>
43012

> <i_f3d_flags>
0

> <s_epik_input>
W0NIM11jMVtjSF1bY0hdYyhbY0hdbjEpW0NIMl1DKD1PKVtOSF1bQ0gyXVtDQEBIXTJbQ0gyXVtDSDJdT1tDQEhdMltDSF0oW0NIM10pW0NIM10=

> <s_epik_cmdline>
J2VwaWtfcHl0aG9uJywgJy1waCcsICc3LjAnLCAnLXRuJywgJzgnLCAnLW1hJywgJzIwMCcsICctbWV0YWxfYmluZGluZycsICctaW1hZScsICc8aW5maWxlLm1hZT4nLCAnLW9tYWUnLCAnPG91dGZpbGUubWFlPic=

> <r_epik_Ionization_Penalty>
2.12486

> <r_epik_Ionization_Penalty_Charging>
2.12486

> <r_epik_Ionization_Penalty_Neutral>
9.0873e-08

> <r_epik_State_Penalty>
2.26279

> <r_epik_Charging_Adjusted_Penalty>
4.38765

> <i_epik_Tot_Q>
1

> <i_epik_Tot_abs_Q>
1

> <r_epik_Metal_State_Penalty>
2.27914

> <b_epik_Metal_Only>
0

> <s_lp_Force_Field>
OPLS_2005

> <r_lp_Energy>
28.2902

> <b_lp_Chiralities_Consistent>
1

> <s_lp_Variant>
AV-unprocessed.smi:653-6

> <Gold.Version>
5.8.1

> <Gold.Id.Protein>
6NUR|6NUR_protein|mol2

> <Gold.PLP.Fitness>
43.9351

> <Gold.PLP.PLP>
-36.1222

> <Gold.PLP.part.hbond>
-2.0000

> <Gold.PLP.part.metal>
0.0000

> <Gold.PLP.part.buried>
-4.6643

> <Gold.PLP.part.nonpolar>
-31.7379

> <Gold.PLP.part.repulsive>
1.0355

> <Gold.PLP.ligand.clash>
0.0000

> <Gold.PLP.ligand.torsion>
0.6177

> <Gold.PLP.Chemscore.Hbond>
3.0000

> <Gold.PLP.Chemscore.CHOScore>
0.0000

> <Gold.PLP.Chemscore.Metal>
0.0000

> <Gold.Chemscore.Hbonds>
donor molecule, donor type, donor heavy atom, donor atom, acceptor molecule, acceptor atom, score
      L1  H     9    28       P1 10175  0.57
      L1  H    20    45       P1 10957  1.80

> <Gold.PLP.Chemscore.Internal.Correction>
0.0482

> <Gold.Rescore>
     Score         DG    S(hbond)    S(metal)    S(lipo)     H(rot)  DE(clash)    DE(int)     intcor
     16.27     -17.38       1.58        0.00      91.06       1.57       0.47       0.65       ----

> <Gold.Chemscore.Fitness>
16.2680

> <Gold.Chemscore.DG>
-17.3824

> <Gold.Chemscore.ZeroCoef>
-5.4800

> <Gold.Chemscore.Hbond>
1.5772

> <Gold.Chemscore.Metal>
0.0000

> <Gold.Chemscore.Lipo>
91.0604

> <Gold.Chemscore.Internal_Hbond>
0.0000

> <Gold.Chemscore.DEClash>
0.4657

> <Gold.Chemscore.DEInternal>
0.6487

> <Gold.Chemscore.Rot>
1.5701

> <Gold.Chemscore.Internal.Correction>
   9.000000E+99

> <Gold.Chemscore.Hbonds>
donor molecule, donor type, donor heavy atom, donor atom, acceptor molecule, acceptor atom, score
      L1  H     9    28       P1 10175  0.55
      L1  H    20    45       P1 10957  0.16

> <Gold.Chemscore.Hbond.Weighted>
-5.2679

> <Gold.Chemscore.Metal.Weighted>
-0.0000

> <Gold.Chemscore.Lipo.Weighted>
-10.6541

> <Gold.Chemscore.Internal_Hbond.Weighted>
0.0000

> <Gold.Chemscore.DEClash.Weighted>
0.4657

> <Gold.Chemscore.DEInternal.Weighted>
0.6487

> <Gold.Chemscore.Rot.Weighted>
4.0196

> <Gold.Chemscore.Internal.Correction.Weighted>
   9.000000E+99

> <Gold.Protein.RotatedTorsions>
[ 6907 6896 6895 6894 ] final   31.31 input  -60.11 | X-H torsion
[ 7974 7965 7964 7962 ] final  -66.68 input  175.53 | X-H torsion
[ 8008 7997 7996 7995 ] final  121.40 input   59.86 | X-H torsion
[ 10167 10162 10161 10158 ] final  147.19 input  -65.29 | X-H torsion
[ 10718 10713 10712 10709 ] final  -36.70 input   66.30 | X-H torsion
[ 10763 10752 10751 10750 ] final -136.31 input  -60.55 | X-H torsion
[ 11005 11000 10999 10996 ] final  171.03 input  -57.11 | X-H torsion

> <Gold.Protein.ActiveResidues>
 VAL166  LYS551  ARG553  GLY616  TRP617  ASP618  TYR619  PRO620  LYS621  CYS622 
 ASP623  PHE694  ASN695  SER759  ASP760  ASP761  ALA762  ILE779  LEU786  VAL792 
 PHE793  MET794  SER795  GLU796  ALA797  LYS798  CYS799  TRP800  GLU811  SER814 

> <Gold.Protein.RotatedAtoms>
  152.0584  134.9610  160.0574 H   0  0  0  0  0  0  0  0  0  0  0  0  # atno 6907 bound_to 6896
  152.0983  133.4231  159.4583 H   0  0  0  0  0  0  0  0  0  0  0  0  # atno 6908 bound_to 6896
  150.6838  134.2710  159.4631 H   0  0  0  0  0  0  0  0  0  0  0  0  # atno 6909 bound_to 6896
  145.7387  140.8963  143.0541 H   0  0  0  0  0  0  0  0  0  0  0  0  # atno 7974 bound_to 7965
  156.2685  140.2809  156.1303 H   0  0  0  0  0  0  0  0  0  0  0  0  # atno 8008 bound_to 7997
  155.1062  140.0390  157.2728 H   0  0  0  0  0  0  0  0  0  0  0  0  # atno 8009 bound_to 7997
  154.6777  140.2602  155.6946 H   0  0  0  0  0  0  0  0  0  0  0  0  # atno 8010 bound_to 7997
  139.4894  144.5774  151.6939 H   0  0  0  0  0  0  0  0  0  0  0  0  # atno 10167 bound_to 10162
  156.3238  130.4269  149.7935 H   0  0  0  0  0  0  0  0  0  0  0  0  # atno 10718 bound_to 10713
  154.8686  135.3676  154.5039 H   0  0  0  0  0  0  0  0  0  0  0  0  # atno 10763 bound_to 10752
  153.5678  135.7021  153.5523 H   0  0  0  0  0  0  0  0  0  0  0  0  # atno 10764 bound_to 10752
  153.3569  135.4057  155.1652 H   0  0  0  0  0  0  0  0  0  0  0  0  # atno 10765 bound_to 10752
  140.3147  134.7487  157.4018 H   0  0  0  0  0  0  0  0  0  0  0  0  # atno 11005 bound_to 11000
  144.6875  139.9431  143.7475 LP  0  0  0  0  0  0  0  0  0  0  0  0  # atno 17320 bound_to 7965
  146.0468  139.3473  143.0664 LP  0  0  0  0  0  0  0  0  0  0  0  0  # atno 17321 bound_to 7965
  140.5373  144.0636  150.6075 LP  0  0  0  0  0  0  0  0  0  0  0  0  # atno 17342 bound_to 10162
  140.3646  143.2888  152.0346 LP  0  0  0  0  0  0  0  0  0  0  0  0  # atno 17343 bound_to 10162
  156.5233  130.8225  151.3211 LP  0  0  0  0  0  0  0  0  0  0  0  0  # atno 17370 bound_to 10713
  157.7417  130.9875  150.2465 LP  0  0  0  0  0  0  0  0  0  0  0  0  # atno 17371 bound_to 10713
  140.0994  134.5493  155.8367 LP  0  0  0  0  0  0  0  0  0  0  0  0  # atno 17394 bound_to 11000
  141.2100  133.6690  156.6480 LP  0  0  0  0  0  0  0  0  0  0  0  0  # atno 17395 bound_to 11000

$$$$
