AV-unprocessed.smi:1205|AV-procd|sdf|5039|dock9
  -GOLD-   22720 4 63D 1   1.00000     0.00000
 Structure written by MMmdl.
 49 50  0  0  0  0  0  0  0  0  2 V2000
  145.4055  129.7257  152.0713 C   0  0  0  0  0  0  0  0  0  0  0  0
  146.0763  131.0660  152.1395 C   0  0  0  0  0  0  0  0  0  0  0  0
  147.3420  131.3857  152.7116 C   0  0  0  0  0  0  0  0  0  0  0  0
  147.4407  132.7324  152.4908 C   0  0  0  0  0  0  0  0  0  0  0  0
  148.4459  133.5830  152.8299 N   0  0  0  0  0  0  0  0  0  0  0  0
  149.4928  133.3635  153.6444 C   0  0  0  0  0  0  0  0  0  0  0  0
  149.7266  132.3135  154.2434 O   0  0  0  0  0  0  0  0  0  0  0  0
  150.2732  134.4500  153.7364 N   0  0  0  0  0  0  0  0  0  0  0  0
  151.4867  134.5391  154.5431 C   0  0  0  0  0  0  0  0  0  0  0  0
  151.3816  135.5988  155.6654 C   0  0  2  0  0  0  0  0  0  0  0  0
  149.9213  135.9771  155.9965 C   0  0  0  0  0  0  0  0  0  0  0  0
  152.2353  136.7829  155.3545 N   0  3  1  0  0  0  0  0  0  0  0  0
  151.9699  137.4343  154.0424 C   0  0  0  0  0  0  0  0  0  0  0  0
  153.0537  138.4762  153.7243 C   0  0  0  0  0  0  0  0  0  0  0  0
  153.1539  139.5211  154.8438 C   0  0  0  0  0  0  0  0  0  0  0  0
  153.3877  138.8334  156.2003 C   0  0  1  0  0  0  0  0  0  0  0  0
  153.4641  139.8557  157.3429 C   0  0  0  0  0  0  0  0  0  0  0  0
  152.2948  137.7768  156.4598 C   0  0  0  0  0  0  0  0  0  0  0  0
  146.3074  133.1602  151.8356 N   0  0  0  0  0  0  0  0  0  0  0  0
  145.9466  134.4926  151.3917 C   0  0  0  0  0  0  0  0  0  0  0  0
  145.4659  132.1257  151.6211 N   0  0  0  0  0  0  0  0  0  0  0  0
  146.0181  128.9547  152.5390 H   0  0  0  0  0  0  0  0  0  0  0  0
  145.2293  129.4269  151.0376 H   0  0  0  0  0  0  0  0  0  0  0  0
  144.4437  129.7412  152.5843 H   0  0  0  0  0  0  0  0  0  0  0  0
  148.0413  130.7224  153.1974 H   0  0  0  0  0  0  0  0  0  0  0  0
  148.3937  134.4980  152.4069 H   0  0  0  0  0  0  0  0  0  0  0  0
  150.0132  135.2709  153.2088 H   0  0  0  0  0  0  0  0  0  0  0  0
  151.7146  133.5589  154.9660 H   0  0  0  0  0  0  0  0  0  0  0  0
  152.3048  134.7765  153.8639 H   0  0  0  0  0  0  0  0  0  0  0  0
  151.8025  135.1393  156.5608 H   0  0  0  0  0  0  0  0  0  0  0  0
  149.3648  135.1134  156.3611 H   0  0  0  0  0  0  0  0  0  0  0  0
  149.3915  136.3556  155.1222 H   0  0  0  0  0  0  0  0  0  0  0  0
  149.8689  136.7371  156.7760 H   0  0  0  0  0  0  0  0  0  0  0  0
  151.9458  136.6932  153.2444 H   0  0  0  0  0  0  0  0  0  0  0  0
  150.9931  137.9196  154.0559 H   0  0  0  0  0  0  0  0  0  0  0  0
  154.0161  137.9785  153.5975 H   0  0  0  0  0  0  0  0  0  0  0  0
  152.8319  138.9676  152.7764 H   0  0  0  0  0  0  0  0  0  0  0  0
  153.9632  140.2195  154.6279 H   0  0  0  0  0  0  0  0  0  0  0  0
  152.2357  140.1096  154.8782 H   0  0  0  0  0  0  0  0  0  0  0  0
  154.3491  138.3192  156.1564 H   0  0  0  0  0  0  0  0  0  0  0  0
  152.5322  140.4134  157.4400 H   0  0  0  0  0  0  0  0  0  0  0  0
  154.2658  140.5748  157.1733 H   0  0  0  0  0  0  0  0  0  0  0  0
  153.6591  139.3648  158.2966 H   0  0  0  0  0  0  0  0  0  0  0  0
  151.3236  138.2599  156.5751 H   0  0  0  0  0  0  0  0  0  0  0  0
  152.5091  137.2680  157.4006 H   0  0  0  0  0  0  0  0  0  0  0  0
  146.7730  134.9302  150.8311 H   0  0  0  0  0  0  0  0  0  0  0  0
  145.7298  135.1195  152.2568 H   0  0  0  0  0  0  0  0  0  0  0  0
  145.0661  134.4574  150.7486 H   0  0  0  0  0  0  0  0  0  0  0  0
  153.1732  136.4133  155.2914 H   0  0  0  0  0  0  0  0  0  0  0  0
  1  2  1  0  0  0  0
  1 22  1  0  0  0  0
  1 23  1  0  0  0  0
  1 24  1  0  0  0  0
  2 21  2  0  0  0  0
  2  3  1  0  0  0  0
  3  4  2  0  0  0  0
  3 25  1  0  0  0  0
  4  5  1  0  0  0  0
  4 19  1  0  0  0  0
  5  6  1  0  0  0  0
  5 26  1  0  0  0  0
  6  7  2  0  0  0  0
  6  8  1  0  0  0  0
  8  9  1  0  0  0  0
  8 27  1  0  0  0  0
  9 10  1  0  0  0  0
  9 28  1  0  0  0  0
  9 29  1  0  0  0  0
 10 11  1  0  0  0  0
 10 12  1  0  0  0  0
 10 30  1  0  0  0  0
 11 31  1  0  0  0  0
 11 32  1  0  0  0  0
 11 33  1  0  0  0  0
 12 18  1  0  0  0  0
 12 13  1  0  0  0  0
 12 49  1  0  0  0  0
 13 14  1  0  0  0  0
 13 34  1  0  0  0  0
 13 35  1  0  0  0  0
 14 15  1  0  0  0  0
 14 36  1  0  0  0  0
 14 37  1  0  0  0  0
 15 16  1  0  0  0  0
 15 38  1  0  0  0  0
 15 39  1  0  0  0  0
 16 17  1  0  0  0  0
 16 18  1  0  0  0  0
 16 40  1  0  0  0  0
 17 41  1  0  0  0  0
 17 42  1  0  0  0  0
 17 43  1  0  0  0  0
 18 44  1  0  0  0  0
 18 45  1  0  0  0  0
 19 20  1  0  0  0  0
 19 21  1  0  0  0  0
 20 46  1  0  0  0  0
 20 47  1  0  0  0  0
 20 48  1  0  0  0  0
M  CHG  1  12   1
M  END
> <s_m_source_file>
AV-unprocessed.smi

> <i_m_source_file_index>
1205

> <i_lp_mmshare_version>
43012

> <i_f3d_flags>
0

> <s_epik_input>
W0NIM11jMVtjSF1jKG4objEpW0NIM10pW05IXUMoPU8pW05IXVtDSDJdW0NASF0oW0NIM10pTjJbQ0gyXVtDSDJdW0NIMl1bQ0BASF0oW0NIM10pW0NIMl0y

> <s_epik_cmdline>
J2VwaWtfcHl0aG9uJywgJy1waCcsICc3LjAnLCAnLXRuJywgJzgnLCAnLW1hJywgJzIwMCcsICctbWV0YWxfYmluZGluZycsICctaW1hZScsICc8aW5maWxlLm1hZT4nLCAnLW9tYWUnLCAnPG91dGZpbGUubWFlPic=

> <r_lp_tautomer_probability>
1

> <r_epik_Ionization_Penalty>
0.0020309

> <r_epik_Ionization_Penalty_Charging>
0.00195276

> <r_epik_Ionization_Penalty_Neutral>
7.81448e-05

> <r_epik_State_Penalty>
0.00133177

> <r_epik_Charging_Adjusted_Penalty>
0.00328452

> <i_epik_Tot_Q>
1

> <i_epik_Tot_abs_Q>
1

> <r_epik_Metal_State_Penalty>
-0

> <b_epik_Metal_Only>
0

> <s_lp_Force_Field>
OPLS_2005

> <r_lp_Energy>
21.646

> <b_lp_Chiralities_Consistent>
1

> <s_lp_Variant>
AV-unprocessed.smi:1205-1

> <Gold.Version>
5.8.1

> <Gold.Id.Protein>
6NUR|6NUR_protein|mol2

> <Gold.PLP.Fitness>
39.3290

> <Gold.PLP.PLP>
-34.6456

> <Gold.PLP.part.hbond>
-2.0000

> <Gold.PLP.part.metal>
0.0000

> <Gold.PLP.part.buried>
-4.4396

> <Gold.PLP.part.nonpolar>
-28.0768

> <Gold.PLP.part.repulsive>
0.2271

> <Gold.PLP.ligand.clash>
0.0000

> <Gold.PLP.ligand.torsion>
0.7161

> <Gold.PLP.Chemscore.Hbond>
2.0000

> <Gold.PLP.Chemscore.CHOScore>
0.0000

> <Gold.PLP.Chemscore.Metal>
0.0000

> <Gold.Chemscore.Hbonds>
donor molecule, donor type, donor heavy atom, donor atom, acceptor molecule, acceptor atom, score
      L1  H     5    26       P1  7948  0.75

> <Gold.PLP.Chemscore.Internal.Correction>
0.1156

> <Gold.Rescore>
     Score         DG    S(hbond)    S(metal)    S(lipo)     H(rot)  DE(clash)    DE(int)     intcor
     13.39     -15.13       1.47        0.00      72.47       1.47       0.16       1.58       ----

> <Gold.Chemscore.Fitness>
13.3936

> <Gold.Chemscore.DG>
-15.1322

> <Gold.Chemscore.ZeroCoef>
-5.4800

> <Gold.Chemscore.Hbond>
1.4747

> <Gold.Chemscore.Metal>
0.0000

> <Gold.Chemscore.Lipo>
72.4733

> <Gold.Chemscore.Internal_Hbond>
0.0000

> <Gold.Chemscore.DEClash>
0.1619

> <Gold.Chemscore.DEInternal>
1.5767

> <Gold.Chemscore.Rot>
1.4658

> <Gold.Chemscore.Internal.Correction>
   9.000000E+99

> <Gold.Chemscore.Hbonds>
donor molecule, donor type, donor heavy atom, donor atom, acceptor molecule, acceptor atom, score
      L1  H     5    26       P1  7948  0.09

> <Gold.Chemscore.Hbond.Weighted>
-4.9254

> <Gold.Chemscore.Metal.Weighted>
-0.0000

> <Gold.Chemscore.Lipo.Weighted>
-8.4794

> <Gold.Chemscore.Internal_Hbond.Weighted>
0.0000

> <Gold.Chemscore.DEClash.Weighted>
0.1619

> <Gold.Chemscore.DEInternal.Weighted>
1.5767

> <Gold.Chemscore.Rot.Weighted>
3.7526

> <Gold.Chemscore.Internal.Correction.Weighted>
   9.000000E+99

> <Gold.Protein.RotatedTorsions>
[ 6907 6896 6895 6894 ] final  116.70 input  -60.11 | X-H torsion
[ 7974 7965 7964 7962 ] final  -39.13 input  175.53 | X-H torsion
[ 8008 7997 7996 7995 ] final  175.93 input   59.86 | X-H torsion
[ 10167 10162 10161 10158 ] final   53.95 input  -65.29 | X-H torsion
[ 10718 10713 10712 10709 ] final   80.15 input   66.30 | X-H torsion
[ 10763 10752 10751 10750 ] final  162.00 input  -60.55 | X-H torsion
[ 11005 11000 10999 10996 ] final  -43.60 input  -57.11 | X-H torsion

> <Gold.Protein.ActiveResidues>
 VAL166  LYS551  ARG553  GLY616  TRP617  ASP618  TYR619  PRO620  LYS621  CYS622 
 ASP623  PHE694  ASN695  SER759  ASP760  ASP761  ALA762  ILE779  LEU786  VAL792 
 PHE793  MET794  SER795  GLU796  ALA797  LYS798  CYS799  TRP800  GLU811  SER814 

> <Gold.Protein.RotatedAtoms>
  152.4660  133.7925  159.6909 H   0  0  0  0  0  0  0  0  0  0  0  0  # atno 6907 bound_to 6896
  150.8625  133.7612  159.2994 H   0  0  0  0  0  0  0  0  0  0  0  0  # atno 6908 bound_to 6896
  151.5173  135.1069  159.9921 H   0  0  0  0  0  0  0  0  0  0  0  0  # atno 6909 bound_to 6896
  146.0424  140.6591  142.9081 H   0  0  0  0  0  0  0  0  0  0  0  0  # atno 7974 bound_to 7965
  156.0819  140.1396  156.9702 H   0  0  0  0  0  0  0  0  0  0  0  0  # atno 8008 bound_to 7997
  154.4590  140.0950  156.6888 H   0  0  0  0  0  0  0  0  0  0  0  0  # atno 8009 bound_to 7997
  155.5062  140.3452  155.4382 H   0  0  0  0  0  0  0  0  0  0  0  0  # atno 8010 bound_to 7997
  140.2353  144.3642  150.6399 H   0  0  0  0  0  0  0  0  0  0  0  0  # atno 10167 bound_to 10162
  157.6798  130.9946  150.2037 H   0  0  0  0  0  0  0  0  0  0  0  0  # atno 10718 bound_to 10713
  154.2716  135.2765  155.2736 H   0  0  0  0  0  0  0  0  0  0  0  0  # atno 10763 bound_to 10752
  154.5296  135.5733  153.6752 H   0  0  0  0  0  0  0  0  0  0  0  0  # atno 10764 bound_to 10752
  152.9944  135.6224  154.2871 H   0  0  0  0  0  0  0  0  0  0  0  0  # atno 10765 bound_to 10752
  141.0395  133.6786  156.2756 H   0  0  0  0  0  0  0  0  0  0  0  0  # atno 11005 bound_to 11000
  144.7081  140.3932  143.7102 LP  0  0  0  0  0  0  0  0  0  0  0  0  # atno 17320 bound_to 7965
  145.6862  139.1629  143.2672 LP  0  0  0  0  0  0  0  0  0  0  0  0  # atno 17321 bound_to 7965
  140.6154  143.2172  151.6802 LP  0  0  0  0  0  0  0  0  0  0  0  0  # atno 17342 bound_to 10162
  139.5096  144.3573  152.0596 LP  0  0  0  0  0  0  0  0  0  0  0  0  # atno 17343 bound_to 10162
  156.2722  130.3723  149.8020 LP  0  0  0  0  0  0  0  0  0  0  0  0  # atno 17370 bound_to 10713
  156.5733  130.8434  151.3362 LP  0  0  0  0  0  0  0  0  0  0  0  0  # atno 17371 bound_to 10713
  140.6261  134.5312  157.5554 LP  0  0  0  0  0  0  0  0  0  0  0  0  # atno 17394 bound_to 11000
  139.9265  134.8046  156.1054 LP  0  0  0  0  0  0  0  0  0  0  0  0  # atno 17395 bound_to 11000

$$$$
