AV-unprocessed.smi:1592|AV-procd|sdf|6406|dock6
  -GOLD-   22720 7 43D 1   1.00000     0.00000
 Structure written by MMmdl.
 26 27  0  0  0  0  0  0  0  0  2 V2000
  150.1147  140.5790  157.5390 O   0  0  0  0  0  0  0  0  0  0  0  0
  151.1910  140.0965  157.1743 C   0  0  0  0  0  0  0  0  0  0  0  0
  152.3903  139.9847  157.8738 N   0  0  0  0  0  0  0  0  0  0  0  0
  152.7233  140.7639  158.8668 C   0  0  0  0  0  0  0  0  0  0  0  0
  151.9015  141.7988  159.3462 N   0  0  0  0  0  0  0  0  0  0  0  0
  152.2545  142.6123  160.4020 C   0  0  0  0  0  0  0  0  0  0  0  0
  153.4180  142.4650  161.0374 C   0  0  0  0  0  0  0  0  0  0  0  0
  154.3259  141.4239  160.6019 C   0  0  0  0  0  0  0  0  0  0  0  0
  154.0207  140.5664  159.5383 C   0  0  0  0  0  0  0  0  0  0  0  0
  154.8356  139.6779  159.1973 O   0  5  0  0  0  0  0  0  0  0  0  0
  151.3146  139.5251  155.7512 C   0  0  1  0  0  0  0  0  0  0  0  0
  150.4233  138.2883  155.5180 C   0  0  0  0  0  0  0  0  0  0  0  0
  149.5313  138.6803  154.3530 C   0  0  0  0  0  0  0  0  0  0  0  0
  149.5368  140.1999  154.4223 C   0  0  0  0  0  0  0  0  0  0  0  0
  150.8755  140.4909  154.7939 O   0  0  0  0  0  0  0  0  0  0  0  0
  151.5214  143.3609  160.6631 H   0  0  0  0  0  0  0  0  0  0  0  0
  153.6786  143.1100  161.8635 H   0  0  0  0  0  0  0  0  0  0  0  0
  155.2659  141.3145  161.1235 H   0  0  0  0  0  0  0  0  0  0  0  0
  151.0032  141.9807  158.9234 H   0  0  0  0  0  0  0  0  0  0  0  0
  152.3615  139.2950  155.5485 H   0  0  0  0  0  0  0  0  0  0  0  0
  151.0110  137.3986  155.2900 H   0  0  0  0  0  0  0  0  0  0  0  0
  149.8106  138.0582  156.3914 H   0  0  0  0  0  0  0  0  0  0  0  0
  149.9803  138.3517  153.4151 H   0  0  0  0  0  0  0  0  0  0  0  0
  148.5298  138.2549  154.4190 H   0  0  0  0  0  0  0  0  0  0  0  0
  149.2704  140.6676  153.4743 H   0  0  0  0  0  0  0  0  0  0  0  0
  148.8509  140.5597  155.1909 H   0  0  0  0  0  0  0  0  0  0  0  0
  1  2  2  0  0  0  0
  2  3  1  0  0  0  0
  2 11  1  0  0  0  0
  3  4  2  0  0  0  0
  4  9  1  0  0  0  0
  4  5  1  0  0  0  0
  5 19  1  0  0  0  0
  5  6  1  0  0  0  0
  6 16  1  0  0  0  0
  6  7  2  0  0  0  0
  7 17  1  0  0  0  0
  7  8  1  0  0  0  0
  8  9  2  0  0  0  0
  8 18  1  0  0  0  0
  9 10  1  0  0  0  0
 11 15  1  0  0  0  0
 11 12  1  0  0  0  0
 11 20  1  0  0  0  0
 12 13  1  0  0  0  0
 12 21  1  0  0  0  0
 12 22  1  0  0  0  0
 13 14  1  0  0  0  0
 13 23  1  0  0  0  0
 13 24  1  0  0  0  0
 14 15  1  0  0  0  0
 14 25  1  0  0  0  0
 14 26  1  0  0  0  0
M  CHG  1  10  -1
M  END
> <s_m_source_file>
AV-unprocessed.smi

> <i_m_source_file_index>
1592

> <i_lp_mmshare_version>
43012

> <i_f3d_flags>
0

> <s_epik_input>
TzFbQ0gyXVtDSDJdW0NIMl1bQ0BIXTFDKD1PKVtOSF1jMm5bY0hdW2NIXVtjSF1jMltPSF0=

> <s_epik_cmdline>
J2VwaWtfcHl0aG9uJywgJy1waCcsICc3LjAnLCAnLXRuJywgJzgnLCAnLW1hJywgJzIwMCcsICctbWV0YWxfYmluZGluZycsICctaW1hZScsICc8aW5maWxlLm1hZT4nLCAnLW9tYWUnLCAnPG91dGZpbGUubWFlPic=

> <r_epik_Ionization_Penalty>
0.780127

> <r_epik_Ionization_Penalty_Charging>
0.780127

> <r_epik_Ionization_Penalty_Neutral>
6.55423e-13

> <r_epik_State_Penalty>
1.4426

> <r_epik_Charging_Adjusted_Penalty>
2.22273

> <i_epik_Tot_Q>
-1

> <i_epik_Tot_abs_Q>
1

> <r_epik_Metal_State_Penalty>
1.40439

> <b_epik_Metal_Only>
0

> <s_lp_Force_Field>
OPLS_2005

> <r_lp_Energy>
49.5573

> <b_lp_Chiralities_Consistent>
1

> <s_lp_Variant>
AV-unprocessed.smi:1592-6

> <Gold.Version>
5.8.1

> <Gold.Id.Protein>
6NUR|6NUR_protein|mol2

> <Gold.PLP.Fitness>
36.2310

> <Gold.PLP.PLP>
-27.6498

> <Gold.PLP.part.hbond>
-1.9752

> <Gold.PLP.part.metal>
0.0000

> <Gold.PLP.part.buried>
-2.4176

> <Gold.PLP.part.nonpolar>
-22.4378

> <Gold.PLP.part.repulsive>
0.2198

> <Gold.PLP.ligand.clash>
0.0000

> <Gold.PLP.ligand.torsion>
0.2131

> <Gold.PLP.Chemscore.Hbond>
3.0000

> <Gold.PLP.Chemscore.CHOScore>
0.0000

> <Gold.PLP.Chemscore.Metal>
0.0000

> <Gold.Chemscore.Hbonds>
donor molecule, donor type, donor heavy atom, donor atom, acceptor molecule, acceptor atom, score
      P1  H  7989  7998       L1    15  1.00
      P1  H  7997  8008       L1    10  2.00

> <Gold.PLP.Chemscore.Internal.Correction>
0.0073

> <Gold.Rescore>
     Score         DG    S(hbond)    S(metal)    S(lipo)     H(rot)  DE(clash)    DE(int)     intcor
     16.34     -16.60       1.87        0.00      63.65       1.00       0.00       0.26       ----

> <Gold.Chemscore.Fitness>
16.3404

> <Gold.Chemscore.DG>
-16.5966

> <Gold.Chemscore.ZeroCoef>
-5.4800

> <Gold.Chemscore.Hbond>
1.8652

> <Gold.Chemscore.Metal>
0.0000

> <Gold.Chemscore.Lipo>
63.6482

> <Gold.Chemscore.Internal_Hbond>
0.0000

> <Gold.Chemscore.DEClash>
0.0000

> <Gold.Chemscore.DEInternal>
0.2562

> <Gold.Chemscore.Rot>
1.0000

> <Gold.Chemscore.Internal.Correction>
   9.000000E+99

> <Gold.Chemscore.Hbonds>
donor molecule, donor type, donor heavy atom, donor atom, acceptor molecule, acceptor atom, score
      P1  H  7989  7998       L1    15  0.55
      P1  H  7997  8008       L1    10  0.34

> <Gold.Chemscore.Hbond.Weighted>
-6.2298

> <Gold.Chemscore.Metal.Weighted>
-0.0000

> <Gold.Chemscore.Lipo.Weighted>
-7.4468

> <Gold.Chemscore.Internal_Hbond.Weighted>
0.0000

> <Gold.Chemscore.DEClash.Weighted>
0.0000

> <Gold.Chemscore.DEInternal.Weighted>
0.2562

> <Gold.Chemscore.Rot.Weighted>
2.5600

> <Gold.Chemscore.Internal.Correction.Weighted>
   9.000000E+99

> <Gold.Protein.RotatedTorsions>
[ 6907 6896 6895 6894 ] final  156.75 input  -60.11 | X-H torsion
[ 7974 7965 7964 7962 ] final -167.50 input  175.53 | X-H torsion
[ 8008 7997 7996 7995 ] final -115.20 input   59.86 | X-H torsion
[ 10167 10162 10161 10158 ] final  169.29 input  -65.29 | X-H torsion
[ 10718 10713 10712 10709 ] final  152.29 input   66.30 | X-H torsion
[ 10763 10752 10751 10750 ] final   -6.04 input  -60.55 | X-H torsion
[ 11005 11000 10999 10996 ] final  -26.37 input  -57.11 | X-H torsion

> <Gold.Protein.ActiveResidues>
 VAL166  LYS551  ARG553  GLY616  TRP617  ASP618  TYR619  PRO620  LYS621  CYS622 
 ASP623  PHE694  ASN695  SER759  ASP760  ASP761  ALA762  ILE779  LEU786  VAL792 
 PHE793  MET794  SER795  GLU796  ALA797  LYS798  CYS799  TRP800  GLU811  SER814 

> <Gold.Protein.RotatedAtoms>
  152.0251  133.3914  159.4273 H   0  0  0  0  0  0  0  0  0  0  0  0  # atno 6907 bound_to 6896
  150.6887  134.3583  159.4948 H   0  0  0  0  0  0  0  0  0  0  0  0  # atno 6908 bound_to 6896
  152.1361  134.9097  160.0607 H   0  0  0  0  0  0  0  0  0  0  0  0  # atno 6909 bound_to 6896
  144.7222  140.2510  143.6278 H   0  0  0  0  0  0  0  0  0  0  0  0  # atno 7974 bound_to 7965
  155.0483  140.0392  157.2534 H   0  0  0  0  0  0  0  0  0  0  0  0  # atno 8008 bound_to 7997
  154.7159  140.2702  155.6562 H   0  0  0  0  0  0  0  0  0  0  0  0  # atno 8009 bound_to 7997
  156.2803  140.2712  156.1815 H   0  0  0  0  0  0  0  0  0  0  0  0  # atno 8010 bound_to 7997
  139.4988  144.3722  151.9712 H   0  0  0  0  0  0  0  0  0  0  0  0  # atno 10167 bound_to 10162
  157.2597  131.0795  151.1674 H   0  0  0  0  0  0  0  0  0  0  0  0  # atno 10718 bound_to 10713
  153.4069  135.7006  153.6387 H   0  0  0  0  0  0  0  0  0  0  0  0  # atno 10763 bound_to 10752
  153.4897  135.3675  155.2485 H   0  0  0  0  0  0  0  0  0  0  0  0  # atno 10764 bound_to 10752
  154.8714  135.4086  154.3414 H   0  0  0  0  0  0  0  0  0  0  0  0  # atno 10765 bound_to 10752
  140.9023  133.7516  156.0560 H   0  0  0  0  0  0  0  0  0  0  0  0  # atno 11005 bound_to 11000
  145.8228  139.2051  143.1928 LP  0  0  0  0  0  0  0  0  0  0  0  0  # atno 17320 bound_to 7965
  146.0499  140.8080  142.9787 LP  0  0  0  0  0  0  0  0  0  0  0  0  # atno 17321 bound_to 7965
  140.3158  144.3485  150.6022 LP  0  0  0  0  0  0  0  0  0  0  0  0  # atno 17342 bound_to 10162
  140.5762  143.2176  151.7511 LP  0  0  0  0  0  0  0  0  0  0  0  0  # atno 17343 bound_to 10162
  157.3188  130.6927  149.6257 LP  0  0  0  0  0  0  0  0  0  0  0  0  # atno 17370 bound_to 10713
  155.9664  130.4341  150.5036 LP  0  0  0  0  0  0  0  0  0  0  0  0  # atno 17371 bound_to 10713
  140.8214  134.3285  157.5380 LP  0  0  0  0  0  0  0  0  0  0  0  0  # atno 17394 bound_to 11000
  139.8744  134.9311  156.3520 LP  0  0  0  0  0  0  0  0  0  0  0  0  # atno 17395 bound_to 11000

$$$$
