AV-unprocessed.smi:34|AV-procd|sdf|235|dock6
  -GOLD-   2262015573D 1   1.00000     0.00000
 Structure written by MMmdl.
 54 58  0  0  0  0  0  0  0  0  2 V2000
  153.1594  139.9090  158.3832 O   0  0  0  0  0  0  0  0  0  0  0  0
  152.4030  140.8112  158.0164 C   0  0  0  0  0  0  0  0  0  0  0  0
  151.7608  140.9290  156.8264 N   0  5  0  0  0  0  0  0  0  0  0  0
  151.1815  139.8521  156.2739 C   0  0  0  0  0  0  0  0  0  0  0  0
  150.8994  139.8289  154.9458 N   0  0  0  0  0  0  0  0  0  0  0  0
  150.3281  138.7520  154.3940 C   0  0  0  0  0  0  0  0  0  0  0  0
  149.9567  137.6067  154.9748 N   0  0  0  0  0  0  0  0  0  0  0  0
  150.2234  137.6239  156.3135 C   0  0  0  0  0  0  0  0  0  0  0  0
  150.8223  138.7017  157.0283 C   0  0  0  0  0  0  0  0  0  0  0  0
  150.9418  138.3917  158.3755 N   0  0  0  0  0  0  0  0  0  0  0  0
  150.4248  137.1652  158.4160 C   0  0  0  0  0  0  0  0  0  0  0  0
  149.9920  136.6355  157.2537 N   0  0  0  0  0  0  0  0  0  0  0  0
  149.3847  135.2937  157.0154 C   0  0  2  0  0  0  0  0  0  0  0  0
  150.3963  134.3462  157.1800 O   0  0  0  0  0  0  0  0  0  0  0  0
  150.2893  133.3387  156.1819 C   0  0  1  0  0  0  0  0  0  0  0  0
  149.3264  132.2416  156.6654 C   0  0  0  0  0  0  0  0  0  0  0  0
  148.9259  131.4456  155.5623 O   0  0  0  0  0  0  0  0  0  0  0  0
  149.8473  130.7548  154.8612 C   0  0  0  0  0  0  0  0  0  0  0  0
  151.0564  130.7956  155.0989 O   0  0  0  0  0  0  0  0  0  0  0  0
  149.2523  129.9402  153.7627 C   0  0  0  0  0  0  0  0  0  0  0  0
  147.9189  130.1882  153.3610 C   0  0  0  0  0  0  0  0  0  0  0  0
  147.3285  129.4332  152.3290 C   0  0  0  0  0  0  0  0  0  0  0  0
  148.0650  128.4221  151.6848 C   0  0  0  0  0  0  0  0  0  0  0  0
  149.3929  128.1667  152.0740 C   0  0  0  0  0  0  0  0  0  0  0  0
  149.9846  128.9199  153.1068 C   0  0  0  0  0  0  0  0  0  0  0  0
  149.7589  134.1056  154.9700 C   0  0  2  0  0  0  0  0  0  0  0  0
  150.7802  134.6758  154.3290 F   0  0  0  0  0  0  0  0  0  0  0  0
  148.8684  135.1860  155.5699 C   0  0  1  0  0  0  0  0  0  0  0  0
  147.5121  134.7908  155.5196 O   0  0  0  0  0  0  0  0  0  0  0  0
  152.1783  141.9838  158.9325 C   0  0  0  0  0  0  0  0  0  0  0  0
  151.3917  143.0735  158.4944 C   0  0  0  0  0  0  0  0  0  0  0  0
  151.1914  144.1926  159.3258 C   0  0  0  0  0  0  0  0  0  0  0  0
  151.7849  144.2384  160.6012 C   0  0  0  0  0  0  0  0  0  0  0  0
  152.5812  143.1654  161.0431 C   0  0  0  0  0  0  0  0  0  0  0  0
  152.7807  142.0451  160.2128 C   0  0  0  0  0  0  0  0  0  0  0  0
  150.1429  138.8172  153.3321 H   0  0  0  0  0  0  0  0  0  0  0  0
  150.3609  136.6172  159.3444 H   0  0  0  0  0  0  0  0  0  0  0  0
  148.6096  135.1779  157.7742 H   0  0  0  0  0  0  0  0  0  0  0  0
  151.2664  132.9020  155.9701 H   0  0  0  0  0  0  0  0  0  0  0  0
  149.7982  131.6258  157.4324 H   0  0  0  0  0  0  0  0  0  0  0  0
  148.4382  132.6930  157.1090 H   0  0  0  0  0  0  0  0  0  0  0  0
  147.3334  130.9588  153.8415 H   0  0  0  0  0  0  0  0  0  0  0  0
  146.3090  129.6307  152.0318 H   0  0  0  0  0  0  0  0  0  0  0  0
  147.6120  127.8433  150.8933 H   0  0  0  0  0  0  0  0  0  0  0  0
  149.9596  127.3917  151.5795 H   0  0  0  0  0  0  0  0  0  0  0  0
  151.0057  128.6985  153.3810 H   0  0  0  0  0  0  0  0  0  0  0  0
  149.2530  133.4706  154.2413 H   0  0  0  0  0  0  0  0  0  0  0  0
  148.9683  136.1336  155.0380 H   0  0  0  0  0  0  0  0  0  0  0  0
  147.0423  135.2351  156.2085 H   0  0  0  0  0  0  0  0  0  0  0  0
  150.9317  143.0545  157.5169 H   0  0  0  0  0  0  0  0  0  0  0  0
  150.5836  145.0166  158.9832 H   0  0  0  0  0  0  0  0  0  0  0  0
  151.6331  145.0974  161.2378 H   0  0  0  0  0  0  0  0  0  0  0  0
  153.0430  143.2022  162.0187 H   0  0  0  0  0  0  0  0  0  0  0  0
  153.4044  141.2365  160.5662 H   0  0  0  0  0  0  0  0  0  0  0  0
  1  2  2  0  0  0  0
  2  3  1  0  0  0  0
  2 30  1  0  0  0  0
  3  4  1  0  0  0  0
  4  9  1  0  0  0  0
  4  5  2  0  0  0  0
  5  6  1  0  0  0  0
  6  7  2  0  0  0  0
  6 36  1  0  0  0  0
  7  8  1  0  0  0  0
  8 12  1  0  0  0  0
  8  9  2  0  0  0  0
  9 10  1  0  0  0  0
 10 11  2  0  0  0  0
 11 12  1  0  0  0  0
 11 37  1  0  0  0  0
 12 13  1  0  0  0  0
 13 28  1  0  0  0  0
 13 14  1  0  0  0  0
 13 38  1  0  0  0  0
 14 15  1  0  0  0  0
 15 16  1  0  0  0  0
 15 26  1  0  0  0  0
 15 39  1  0  0  0  0
 16 17  1  0  0  0  0
 16 40  1  0  0  0  0
 16 41  1  0  0  0  0
 17 18  1  0  0  0  0
 18 19  2  0  0  0  0
 18 20  1  0  0  0  0
 20 25  1  0  0  0  0
 20 21  2  0  0  0  0
 21 22  1  0  0  0  0
 21 42  1  0  0  0  0
 22 23  2  0  0  0  0
 22 43  1  0  0  0  0
 23 24  1  0  0  0  0
 23 44  1  0  0  0  0
 24 25  2  0  0  0  0
 24 45  1  0  0  0  0
 25 46  1  0  0  0  0
 26 27  1  0  0  0  0
 26 28  1  0  0  0  0
 26 47  1  0  0  0  0
 28 29  1  0  0  0  0
 28 48  1  0  0  0  0
 29 49  1  0  0  0  0
 30 35  1  0  0  0  0
 30 31  2  0  0  0  0
 31 32  1  0  0  0  0
 31 50  1  0  0  0  0
 32 33  2  0  0  0  0
 32 51  1  0  0  0  0
 33 34  1  0  0  0  0
 33 52  1  0  0  0  0
 34 35  2  0  0  0  0
 34 53  1  0  0  0  0
 35 54  1  0  0  0  0
M  CHG  1   3  -1
M  END
> <s_m_source_file>
AV-unprocessed.smi

> <i_m_source_file_index>
34

> <i_lp_mmshare_version>
43012

> <i_f3d_flags>
0

> <s_epik_input>
W2NIXTFbY0hdW2NIXVtjSF1bY0hdYzFDKD1PKVtOSF1jKG5bY0hdbjIpYyhjMjMpbltjSF1uM1tDQEBIXTRPW0NASF0oW0NAQEhdKEYpW0NASF00W09IXSlbQ0gyXU9DKD1PKWM1W2NIXVtjSF1bY0hdW2NIXVtjSF01

> <s_epik_cmdline>
J2VwaWtfcHl0aG9uJywgJy1waCcsICc3LjAnLCAnLXRuJywgJzgnLCAnLW1hJywgJzIwMCcsICctbWV0YWxfYmluZGluZycsICctaW1hZScsICc8aW5maWxlLm1hZT4nLCAnLW9tYWUnLCAnPG91dGZpbGUubWFlPic=

> <r_lp_tautomer_probability>
1

> <r_epik_Ionization_Penalty>
4.33227

> <r_epik_Ionization_Penalty_Charging>
3.41027

> <r_epik_Ionization_Penalty_Neutral>
0.922001

> <r_epik_State_Penalty>
3.41358

> <r_epik_Charging_Adjusted_Penalty>
6.82385

> <i_epik_Tot_Q>
-1

> <i_epik_Tot_abs_Q>
1

> <r_epik_Metal_State_Penalty>
0.496292

> <b_epik_Metal_Only>
1

> <s_epik_Chemistry_Notes>
This compound has an ester and may undergo hydrolysis at high or low pH. This compound contains an acetal/aminal-like group ( X-CH(R)-Y where X, Y are N, S, or O) that may be acid/base labile, releasing an aldehyde.

> <s_lp_Force_Field>
OPLS_2005

> <r_lp_Energy>
42.8672

> <b_lp_Chiralities_Consistent>
1

> <s_lp_Variant>
AV-unprocessed.smi:34-21

> <Gold.Version>
5.8.1

> <Gold.Id.Protein>
6NUR|6NUR_protein|mol2

> <Gold.PLP.Fitness>
58.3131

> <Gold.PLP.PLP>
-50.0474

> <Gold.PLP.part.hbond>
-3.0000

> <Gold.PLP.part.metal>
0.0000

> <Gold.PLP.part.buried>
-6.7456

> <Gold.PLP.part.nonpolar>
-39.9738

> <Gold.PLP.part.repulsive>
0.1918

> <Gold.PLP.ligand.clash>
1.3831

> <Gold.PLP.ligand.torsion>
0.7559

> <Gold.PLP.Chemscore.Hbond>
2.6201

> <Gold.PLP.Chemscore.CHOScore>
0.9915

> <Gold.PLP.Chemscore.Metal>
0.0000

> <Gold.Chemscore.Hbonds>
donor molecule, donor type, donor heavy atom, donor atom, acceptor molecule, acceptor atom, score
      P1  H  6896  6909       L1    14  0.41
      P1  H  7989  7998       L1     5  1.00
      P1  H  7997  8009       L1     1  1.00
      L1  C     6    36       P1  7957  0.99

> <Gold.PLP.Chemscore.Internal.Correction>
0.3258

> <Gold.Rescore>
     Score         DG    S(hbond)    S(metal)    S(lipo)     H(rot)  DE(clash)    DE(int)     intcor
     12.44     -19.85       2.48        0.00     110.90       2.69       0.13       7.28       ----

> <Gold.Chemscore.Fitness>
12.4448

> <Gold.Chemscore.DG>
-19.8530

> <Gold.Chemscore.ZeroCoef>
-5.4800

> <Gold.Chemscore.Hbond>
2.4837

> <Gold.Chemscore.Metal>
0.0000

> <Gold.Chemscore.Lipo>
110.8977

> <Gold.Chemscore.Internal_Hbond>
0.0000

> <Gold.Chemscore.DEClash>
0.1268

> <Gold.Chemscore.DEInternal>
7.2815

> <Gold.Chemscore.Rot>
2.6944

> <Gold.Chemscore.Internal.Correction>
   9.000000E+99

> <Gold.Chemscore.Hbonds>
donor molecule, donor type, donor heavy atom, donor atom, acceptor molecule, acceptor atom, score
      P1  H  6896  6909       L1    14  0.26
      P1  H  7989  7998       L1     5  0.60
      P1  H  7997  8009       L1     1  0.38

> <Gold.Chemscore.Hbond.Weighted>
-8.2956

> <Gold.Chemscore.Metal.Weighted>
-0.0000

> <Gold.Chemscore.Lipo.Weighted>
-12.9750

> <Gold.Chemscore.Internal_Hbond.Weighted>
0.0000

> <Gold.Chemscore.DEClash.Weighted>
0.1268

> <Gold.Chemscore.DEInternal.Weighted>
7.2815

> <Gold.Chemscore.Rot.Weighted>
6.8975

> <Gold.Chemscore.Internal.Correction.Weighted>
   9.000000E+99

> <Gold.Protein.RotatedTorsions>
[ 6907 6896 6895 6894 ] final   17.74 input  -60.11 | X-H torsion
[ 7974 7965 7964 7962 ] final  128.08 input  175.53 | X-H torsion
[ 8008 7997 7996 7995 ] final  147.70 input   59.86 | X-H torsion
[ 10167 10162 10161 10158 ] final  170.72 input  -65.29 | X-H torsion
[ 10718 10713 10712 10709 ] final  -68.81 input   66.30 | X-H torsion
[ 10763 10752 10751 10750 ] final -178.80 input  -60.55 | X-H torsion
[ 11005 11000 10999 10996 ] final -132.42 input  -57.11 | X-H torsion

> <Gold.Protein.ActiveResidues>
 VAL166  LYS551  ARG553  GLY616  TRP617  ASP618  TYR619  PRO620  LYS621  CYS622 
 ASP623  PHE694  ASN695  SER759  ASP760  ASP761  ALA762  ILE779  LEU786  VAL792 
 PHE793  MET794  SER795  GLU796  ALA797  LYS798  CYS799  TRP800  GLU811  SER814 

> <Gold.Protein.RotatedAtoms>
  151.8543  135.0546  160.0462 H   0  0  0  0  0  0  0  0  0  0  0  0  # atno 6907 bound_to 6896
  152.2712  133.5379  159.5448 H   0  0  0  0  0  0  0  0  0  0  0  0  # atno 6908 bound_to 6896
  150.7152  134.0611  159.3874 H   0  0  0  0  0  0  0  0  0  0  0  0  # atno 6909 bound_to 6896
  145.0435  139.3943  143.5090 H   0  0  0  0  0  0  0  0  0  0  0  0  # atno 7974 bound_to 7965
  156.2816  140.2148  156.5579 H   0  0  0  0  0  0  0  0  0  0  0  0  # atno 8008 bound_to 7997
  154.7237  140.0501  157.0686 H   0  0  0  0  0  0  0  0  0  0  0  0  # atno 8009 bound_to 7997
  155.0445  140.3149  155.4716 H   0  0  0  0  0  0  0  0  0  0  0  0  # atno 8010 bound_to 7997
  139.5026  144.3565  151.9868 H   0  0  0  0  0  0  0  0  0  0  0  0  # atno 10167 bound_to 10162
  156.0486  130.4301  150.2055 H   0  0  0  0  0  0  0  0  0  0  0  0  # atno 10718 bound_to 10713
  154.5431  135.2807  155.1077 H   0  0  0  0  0  0  0  0  0  0  0  0  # atno 10763 bound_to 10752
  154.2552  135.6332  153.5258 H   0  0  0  0  0  0  0  0  0  0  0  0  # atno 10764 bound_to 10752
  152.9984  135.5592  154.5976 H   0  0  0  0  0  0  0  0  0  0  0  0  # atno 10765 bound_to 10752
  140.9171  134.1492  157.4343 H   0  0  0  0  0  0  0  0  0  0  0  0  # atno 11005 bound_to 11000
  146.3511  140.0048  142.8672 LP  0  0  0  0  0  0  0  0  0  0  0  0  # atno 17320 bound_to 7965
  145.1618  140.9676  143.4373 LP  0  0  0  0  0  0  0  0  0  0  0  0  # atno 17321 bound_to 7965
  140.3002  144.3655  150.6062 LP  0  0  0  0  0  0  0  0  0  0  0  0  # atno 17342 bound_to 10162
  140.5879  143.2169  151.7307 LP  0  0  0  0  0  0  0  0  0  0  0  0  # atno 17343 bound_to 10162
  157.0142  130.9960  151.3357 LP  0  0  0  0  0  0  0  0  0  0  0  0  # atno 17370 bound_to 10713
  157.5389  130.8107  149.8005 LP  0  0  0  0  0  0  0  0  0  0  0  0  # atno 17371 bound_to 10713
  139.8768  134.9958  156.5760 LP  0  0  0  0  0  0  0  0  0  0  0  0  # atno 17394 bound_to 11000
  140.8035  133.8486  155.8747 LP  0  0  0  0  0  0  0  0  0  0  0  0  # atno 17395 bound_to 11000

$$$$
