AV-unprocessed.smi:730|AV-procd|sdf|3522|dock1
  -GOLD-   22720 0513D 1   1.00000     0.00000
 Structure written by MMmdl.
 40 41  0  0  0  0  0  0  0  0  1 V2000
  148.3191  124.0204  150.1564 C   0  0  0  0  0  0  0  0  0  0  0  0
  149.2226  124.9937  150.9394 C   0  0  0  0  0  0  0  0  0  0  0  0
  149.8354  124.2348  152.1313 C   0  0  0  0  0  0  0  0  0  0  0  0
  150.3514  125.4668  150.0043 C   0  0  0  0  0  0  0  0  0  0  0  0
  148.4347  126.1744  151.4344 C   0  0  0  0  0  0  0  0  0  0  0  0
  147.7090  127.1522  150.8094 C   0  0  0  0  0  0  0  0  0  0  0  0
  147.2280  127.9408  151.8876 C   0  0  0  0  0  0  0  0  0  0  0  0
  146.4143  129.0782  151.6516 N   0  0  0  0  0  0  0  0  0  0  0  0
  146.4923  130.2785  152.2509 C   0  0  0  0  0  0  0  0  0  0  0  0
  147.3056  130.5852  153.1230 O   0  0  0  0  0  0  0  0  0  0  0  0
  145.5604  131.1197  151.7799 N   0  0  0  0  0  0  0  0  0  0  0  0
  145.3811  132.5030  152.2157 C   0  0  2  0  0  0  0  0  0  0  0  0
  144.0618  133.0779  151.6661 C   0  0  0  0  0  0  0  0  0  0  0  0
  144.4551  133.9055  150.4441 C   0  0  0  0  0  0  0  0  0  0  0  0
  145.8034  134.5028  150.8322 C   0  0  0  0  0  0  0  0  0  0  0  0
  146.5014  133.3989  151.6392 C   0  0  1  0  0  0  0  0  0  0  0  0
  147.2896  133.9697  152.6633 O   0  0  0  0  0  0  0  0  0  0  0  0
  147.6215  127.4901  153.0678 N   0  0  0  0  0  0  0  0  0  0  0  0
  148.3940  126.3587  152.7843 O   0  0  0  0  0  0  0  0  0  0  0  0
  148.8812  123.1585  149.7950 H   0  0  0  0  0  0  0  0  0  0  0  0
  147.8706  124.5047  149.2881 H   0  0  0  0  0  0  0  0  0  0  0  0
  147.5075  123.6420  150.7791 H   0  0  0  0  0  0  0  0  0  0  0  0
  149.0622  123.8783  152.8126 H   0  0  0  0  0  0  0  0  0  0  0  0
  150.5100  124.8707  152.7060 H   0  0  0  0  0  0  0  0  0  0  0  0
  150.4080  123.3677  151.8005 H   0  0  0  0  0  0  0  0  0  0  0  0
  150.9326  124.6263  149.6236 H   0  0  0  0  0  0  0  0  0  0  0  0
  151.0437  126.1345  150.5186 H   0  0  0  0  0  0  0  0  0  0  0  0
  149.9531  126.0071  149.1448 H   0  0  0  0  0  0  0  0  0  0  0  0
  147.5475  127.2809  149.7494 H   0  0  0  0  0  0  0  0  0  0  0  0
  145.6961  128.9655  150.9519 H   0  0  0  0  0  0  0  0  0  0  0  0
  144.9320  130.7839  151.0649 H   0  0  0  0  0  0  0  0  0  0  0  0
  145.3721  132.5397  153.3072 H   0  0  0  0  0  0  0  0  0  0  0  0
  143.3156  132.3180  151.4300 H   0  0  0  0  0  0  0  0  0  0  0  0
  143.6207  133.7369  152.4152 H   0  0  0  0  0  0  0  0  0  0  0  0
  144.5727  133.2535  149.5777 H   0  0  0  0  0  0  0  0  0  0  0  0
  143.7137  134.6652  150.1951 H   0  0  0  0  0  0  0  0  0  0  0  0
  146.3864  134.8230  149.9681 H   0  0  0  0  0  0  0  0  0  0  0  0
  145.6312  135.3816  151.4563 H   0  0  0  0  0  0  0  0  0  0  0  0
  147.1542  132.8271  150.9772 H   0  0  0  0  0  0  0  0  0  0  0  0
  147.7508  134.7140  152.3075 H   0  0  0  0  0  0  0  0  0  0  0  0
  1  2  1  0  0  0  0
  1 20  1  0  0  0  0
  1 21  1  0  0  0  0
  1 22  1  0  0  0  0
  2  3  1  0  0  0  0
  2  4  1  0  0  0  0
  2  5  1  0  0  0  0
  3 23  1  0  0  0  0
  3 24  1  0  0  0  0
  3 25  1  0  0  0  0
  4 26  1  0  0  0  0
  4 27  1  0  0  0  0
  4 28  1  0  0  0  0
  5 19  1  0  0  0  0
  5  6  2  0  0  0  0
  6  7  1  0  0  0  0
  6 29  1  0  0  0  0
  7  8  1  0  0  0  0
  7 18  2  0  0  0  0
  8  9  1  0  0  0  0
  8 30  1  0  0  0  0
  9 10  2  0  0  0  0
  9 11  1  0  0  0  0
 11 12  1  0  0  0  0
 11 31  1  0  0  0  0
 12 16  1  0  0  0  0
 12 13  1  0  0  0  0
 12 32  1  0  0  0  0
 13 14  1  0  0  0  0
 13 33  1  0  0  0  0
 13 34  1  0  0  0  0
 14 15  1  0  0  0  0
 14 35  1  0  0  0  0
 14 36  1  0  0  0  0
 15 16  1  0  0  0  0
 15 37  1  0  0  0  0
 15 38  1  0  0  0  0
 16 17  1  0  0  0  0
 16 39  1  0  0  0  0
 17 40  1  0  0  0  0
 18 19  1  0  0  0  0
M  END
> <s_m_source_file>
AV-unprocessed.smi

> <i_m_source_file_index>
730

> <i_lp_mmshare_version>
43012

> <i_f3d_flags>
0

> <s_epik_input>
W0NIM11DKFtDSDNdKShbQ0gzXSljMVtjSF1jKG5vMSlbTkhdQyg9TylbTkhdW0NAQEhdMltDSDJdW0NIMl1bQ0gyXVtDQEhdMltPSF0=

> <s_epik_cmdline>
J2VwaWtfcHl0aG9uJywgJy1waCcsICc3LjAnLCAnLXRuJywgJzgnLCAnLW1hJywgJzIwMCcsICctbWV0YWxfYmluZGluZycsICctaW1hZScsICc8aW5maWxlLm1hZT4nLCAnLW9tYWUnLCAnPG91dGZpbGUubWFlPic=

> <r_lp_tautomer_probability>
1

> <r_epik_Ionization_Penalty>
2.23071e-05

> <r_epik_Ionization_Penalty_Charging>
0

> <r_epik_Ionization_Penalty_Neutral>
2.23071e-05

> <r_epik_State_Penalty>
-0

> <r_epik_Charging_Adjusted_Penalty>
0

> <i_epik_Tot_Q>
0

> <i_epik_Tot_abs_Q>
0

> <r_epik_Metal_State_Penalty>
-0

> <b_epik_Metal_Only>
0

> <s_lp_Force_Field>
OPLS_2005

> <r_lp_Energy>
16.5614

> <b_lp_Chiralities_Consistent>
1

> <s_lp_Variant>
AV-unprocessed.smi:730-1

> <Gold.Version>
5.8.1

> <Gold.Id.Protein>
6NUR|6NUR_protein|mol2

> <Gold.PLP.Fitness>
34.9956

> <Gold.PLP.PLP>
-32.9521

> <Gold.PLP.part.hbond>
-1.0000

> <Gold.PLP.part.metal>
0.0000

> <Gold.PLP.part.buried>
-5.3384

> <Gold.PLP.part.nonpolar>
-26.2145

> <Gold.PLP.part.repulsive>
0.3106

> <Gold.PLP.ligand.clash>
0.0000

> <Gold.PLP.ligand.torsion>
0.4822

> <Gold.PLP.Chemscore.Hbond>
1.0000

> <Gold.PLP.Chemscore.CHOScore>
0.0000

> <Gold.PLP.Chemscore.Metal>
0.0000

> <Gold.Chemscore.Hbonds>
donor molecule, donor type, donor heavy atom, donor atom, acceptor molecule, acceptor atom, score
      L1  H    17    40       P1  7948  1.00

> <Gold.PLP.Chemscore.Internal.Correction>
0.0078

> <Gold.Rescore>
     Score         DG    S(hbond)    S(metal)    S(lipo)     H(rot)  DE(clash)    DE(int)     intcor
     11.31     -12.06       0.88        0.00      68.58       1.71       0.28       0.47       ----

> <Gold.Chemscore.Fitness>
11.3087

> <Gold.Chemscore.DG>
-12.0630

> <Gold.Chemscore.ZeroCoef>
-5.4800

> <Gold.Chemscore.Hbond>
0.8811

> <Gold.Chemscore.Metal>
0.0000

> <Gold.Chemscore.Lipo>
68.5833

> <Gold.Chemscore.Internal_Hbond>
0.0000

> <Gold.Chemscore.DEClash>
0.2832

> <Gold.Chemscore.DEInternal>
0.4711

> <Gold.Chemscore.Rot>
1.7125

> <Gold.Chemscore.Internal.Correction>
   9.000000E+99

> <Gold.Chemscore.Hbonds>
donor molecule, donor type, donor heavy atom, donor atom, acceptor molecule, acceptor atom, score
      L1  H    17    40       P1  7948  0.74

> <Gold.Chemscore.Hbond.Weighted>
-2.9428

> <Gold.Chemscore.Metal.Weighted>
-0.0000

> <Gold.Chemscore.Lipo.Weighted>
-8.0242

> <Gold.Chemscore.Internal_Hbond.Weighted>
0.0000

> <Gold.Chemscore.DEClash.Weighted>
0.2832

> <Gold.Chemscore.DEInternal.Weighted>
0.4711

> <Gold.Chemscore.Rot.Weighted>
4.3841

> <Gold.Chemscore.Internal.Correction.Weighted>
   9.000000E+99

> <Gold.Protein.RotatedTorsions>
[ 6907 6896 6895 6894 ] final -104.87 input  -60.11 | X-H torsion
[ 7974 7965 7964 7962 ] final   -6.64 input  175.53 | X-H torsion
[ 8008 7997 7996 7995 ] final  108.89 input   59.86 | X-H torsion
[ 10167 10162 10161 10158 ] final -161.99 input  -65.29 | X-H torsion
[ 10718 10713 10712 10709 ] final  127.40 input   66.30 | X-H torsion
[ 10763 10752 10751 10750 ] final  -99.23 input  -60.55 | X-H torsion
[ 11005 11000 10999 10996 ] final   75.08 input  -57.11 | X-H torsion

> <Gold.Protein.ActiveResidues>
 VAL166  LYS551  ARG553  GLY616  TRP617  ASP618  TYR619  PRO620  LYS621  CYS622 
 ASP623  PHE694  ASN695  SER759  ASP760  ASP761  ALA762  ILE779  LEU786  VAL792 
 PHE793  MET794  SER795  GLU796  ALA797  LYS798  CYS799  TRP800  GLU811  SER814 

> <Gold.Protein.RotatedAtoms>
  150.7308  134.0213  159.3701 H   0  0  0  0  0  0  0  0  0  0  0  0  # atno 6907 bound_to 6896
  151.8178  135.0659  160.0430 H   0  0  0  0  0  0  0  0  0  0  0  0  # atno 6908 bound_to 6896
  152.3026  133.5634  159.5664 H   0  0  0  0  0  0  0  0  0  0  0  0  # atno 6909 bound_to 6896
  146.2326  140.2200  142.8337 H   0  0  0  0  0  0  0  0  0  0  0  0  # atno 7974 bound_to 7965
  156.1937  140.3068  155.9384 H   0  0  0  0  0  0  0  0  0  0  0  0  # atno 8008 bound_to 7997
  155.3114  140.0451  157.3052 H   0  0  0  0  0  0  0  0  0  0  0  0  # atno 8009 bound_to 7997
  154.5483  140.2283  155.8535 H   0  0  0  0  0  0  0  0  0  0  0  0  # atno 8010 bound_to 7997
  139.6424  144.0234  152.2102 H   0  0  0  0  0  0  0  0  0  0  0  0  # atno 10167 bound_to 10162
  157.5336  131.1098  150.8971 H   0  0  0  0  0  0  0  0  0  0  0  0  # atno 10718 bound_to 10713
  154.7481  135.4980  153.9240 H   0  0  0  0  0  0  0  0  0  0  0  0  # atno 10763 bound_to 10752
  153.1113  135.6710  153.9503 H   0  0  0  0  0  0  0  0  0  0  0  0  # atno 10764 bound_to 10752
  153.9261  135.3083  155.3426 H   0  0  0  0  0  0  0  0  0  0  0  0  # atno 10765 bound_to 10752
  139.9360  134.7487  156.1227 H   0  0  0  0  0  0  0  0  0  0  0  0  # atno 11005 bound_to 11000
  144.9639  140.8302  143.5496 LP  0  0  0  0  0  0  0  0  0  0  0  0  # atno 17320 bound_to 7965
  145.2174  139.2175  143.5111 LP  0  0  0  0  0  0  0  0  0  0  0  0  # atno 17321 bound_to 7965
  139.9927  144.6350  150.7800 LP  0  0  0  0  0  0  0  0  0  0  0  0  # atno 17342 bound_to 10162
  140.7498  143.2944  151.3244 LP  0  0  0  0  0  0  0  0  0  0  0  0  # atno 17343 bound_to 10162
  156.9544  130.5432  149.5283 LP  0  0  0  0  0  0  0  0  0  0  0  0  # atno 17370 bound_to 10713
  156.0441  130.5520  150.8840 LP  0  0  0  0  0  0  0  0  0  0  0  0  # atno 17371 bound_to 10713
  141.0974  133.6690  156.2677 LP  0  0  0  0  0  0  0  0  0  0  0  0  # atno 17394 bound_to 11000
  140.6074  134.5493  157.5528 LP  0  0  0  0  0  0  0  0  0  0  0  0  # atno 17395 bound_to 11000

$$$$
