AV-unprocessed.smi:1575|AV-procd|sdf|6342|dock7
  -GOLD-   22720 6563D 1   1.00000     0.00000
 Structure written by MMmdl.
 40 40  0  0  0  0  0  0  0  0  2 V2000
  144.3204  137.0807  152.4584 C   0  0  0  0  0  0  0  0  0  0  0  0
  145.0321  138.3274  152.6934 N   0  0  0  0  0  0  0  0  0  0  0  0
  146.2742  138.4037  153.1921 C   0  0  0  0  0  0  0  0  0  0  0  0
  146.9295  137.4123  153.5174 O   0  0  0  0  0  0  0  0  0  0  0  0
  146.8518  139.8181  153.3693 C   0  0  1  0  0  0  0  0  0  0  0  0
  146.2857  140.3997  154.6868 C   0  0  0  0  0  0  0  0  0  0  0  0
  146.6934  141.8597  154.9916 C   0  0  0  0  0  0  0  0  0  0  0  0
  146.3417  142.2258  156.4415 C   0  0  0  0  0  0  0  0  0  0  0  0
  146.0574  142.8649  154.0168 C   0  0  0  0  0  0  0  0  0  0  0  0
  148.3090  139.7452  153.4734 N   0  0  0  0  0  0  0  0  0  0  0  0
  148.9859  139.1074  154.4408 C   0  0  0  0  0  0  0  0  0  0  0  0
  148.4366  138.4693  155.3399 O   0  0  0  0  0  0  0  0  0  0  0  0
  150.5159  139.1856  154.3560 C   0  0  0  0  0  0  0  0  0  0  0  0
  151.1364  139.6556  155.6050 N   0  0  0  0  0  0  0  0  0  0  0  0
  150.6536  140.8502  156.1676 C   0  0  0  0  0  0  0  0  0  0  0  0
  151.1636  141.3560  157.3066 C   0  0  0  0  0  0  0  0  0  0  0  0
  152.2458  140.6308  157.9603 C   0  0  0  0  0  0  0  0  0  0  0  0
  152.7199  141.0750  159.0042 O   0  0  0  0  0  0  0  0  0  0  0  0
  152.6836  139.4792  157.3726 N   0  5  0  0  0  0  0  0  0  0  0  0
  152.1567  138.9775  156.2126 C   0  0  0  0  0  0  0  0  0  0  0  0
  152.5680  137.9367  155.6983 O   0  0  0  0  0  0  0  0  0  0  0  0
  143.3342  137.2880  152.0438 H   0  0  0  0  0  0  0  0  0  0  0  0
  144.1902  136.5263  153.3883 H   0  0  0  0  0  0  0  0  0  0  0  0
  144.8626  136.4523  151.7509 H   0  0  0  0  0  0  0  0  0  0  0  0
  144.5568  139.1852  152.4533 H   0  0  0  0  0  0  0  0  0  0  0  0
  146.5593  140.4401  152.5219 H   0  0  0  0  0  0  0  0  0  0  0  0
  145.1960  140.3399  154.6710 H   0  0  0  0  0  0  0  0  0  0  0  0
  146.6027  139.7693  155.5199 H   0  0  0  0  0  0  0  0  0  0  0  0
  147.7763  141.9467  154.8986 H   0  0  0  0  0  0  0  0  0  0  0  0
  145.2665  142.1687  156.6146 H   0  0  0  0  0  0  0  0  0  0  0  0
  146.6642  143.2395  156.6814 H   0  0  0  0  0  0  0  0  0  0  0  0
  146.8290  141.5528  157.1476 H   0  0  0  0  0  0  0  0  0  0  0  0
  144.9695  142.7947  154.0280 H   0  0  0  0  0  0  0  0  0  0  0  0
  146.3940  142.7011  152.9935 H   0  0  0  0  0  0  0  0  0  0  0  0
  146.3262  143.8883  154.2799 H   0  0  0  0  0  0  0  0  0  0  0  0
  148.8404  140.2479  152.7776 H   0  0  0  0  0  0  0  0  0  0  0  0
  150.8908  138.1962  154.0907 H   0  0  0  0  0  0  0  0  0  0  0  0
  150.8084  139.8344  153.5283 H   0  0  0  0  0  0  0  0  0  0  0  0
  149.8558  141.3283  155.6184 H   0  0  0  0  0  0  0  0  0  0  0  0
  150.7837  142.2767  157.7242 H   0  0  0  0  0  0  0  0  0  0  0  0
  1  2  1  0  0  0  0
  1 22  1  0  0  0  0
  1 23  1  0  0  0  0
  1 24  1  0  0  0  0
  2  3  1  0  0  0  0
  2 25  1  0  0  0  0
  3  4  2  0  0  0  0
  3  5  1  0  0  0  0
  5  6  1  0  0  0  0
  5 10  1  0  0  0  0
  5 26  1  0  0  0  0
  6  7  1  0  0  0  0
  6 27  1  0  0  0  0
  6 28  1  0  0  0  0
  7  8  1  0  0  0  0
  7  9  1  0  0  0  0
  7 29  1  0  0  0  0
  8 30  1  0  0  0  0
  8 31  1  0  0  0  0
  8 32  1  0  0  0  0
  9 33  1  0  0  0  0
  9 34  1  0  0  0  0
  9 35  1  0  0  0  0
 10 11  1  0  0  0  0
 10 36  1  0  0  0  0
 11 12  2  0  0  0  0
 11 13  1  0  0  0  0
 13 14  1  0  0  0  0
 13 37  1  0  0  0  0
 13 38  1  0  0  0  0
 14 20  1  0  0  0  0
 14 15  1  0  0  0  0
 15 16  2  0  0  0  0
 15 39  1  0  0  0  0
 16 17  1  0  0  0  0
 16 40  1  0  0  0  0
 17 18  2  0  0  0  0
 17 19  1  0  0  0  0
 19 20  1  0  0  0  0
 20 21  2  0  0  0  0
M  CHG  1  19  -1
M  END
> <s_m_source_file>
AV-unprocessed.smi

> <i_m_source_file_index>
1575

> <i_lp_mmshare_version>
43012

> <i_f3d_flags>
0

> <s_epik_input>
W0NIM11bTkhdQyg9TylbQ0BIXShbQ0gyXVtDSF0oW0NIM10pW0NIM10pW05IXUMoPU8pW0NIMl1uMVtjSF1bY0hdYyg9TylbbkhdYzE9Tw==

> <s_epik_cmdline>
J2VwaWtfcHl0aG9uJywgJy1waCcsICc3LjAnLCAnLXRuJywgJzgnLCAnLW1hJywgJzIwMCcsICctbWV0YWxfYmluZGluZycsICctaW1hZScsICc8aW5maWxlLm1hZT4nLCAnLW9tYWUnLCAnPG91dGZpbGUubWFlPic=

> <r_lp_tautomer_probability>
0.999537

> <r_epik_Ionization_Penalty>
3.03017

> <r_epik_Ionization_Penalty_Charging>
2.35557e-08

> <r_epik_Ionization_Penalty_Neutral>
3.03017

> <r_epik_State_Penalty>
3.02913

> <r_epik_Charging_Adjusted_Penalty>
3.02913

> <i_epik_Tot_Q>
-1

> <i_epik_Tot_abs_Q>
1

> <r_epik_Metal_State_Penalty>
0.455824

> <b_epik_Metal_Only>
1

> <s_lp_Force_Field>
OPLS_2005

> <r_lp_Energy>
14.624

> <b_lp_Chiralities_Consistent>
1

> <s_lp_Variant>
AV-unprocessed.smi:1575-4

> <Gold.Version>
5.8.1

> <Gold.Id.Protein>
6NUR|6NUR_protein|mol2

> <Gold.PLP.Fitness>
43.2165

> <Gold.PLP.PLP>
-32.8529

> <Gold.PLP.part.hbond>
-3.5386

> <Gold.PLP.part.metal>
0.0000

> <Gold.PLP.part.buried>
-5.2805

> <Gold.PLP.part.nonpolar>
-26.5460

> <Gold.PLP.part.repulsive>
1.2920

> <Gold.PLP.ligand.clash>
0.0000

> <Gold.PLP.ligand.torsion>
0.7652

> <Gold.PLP.Chemscore.Hbond>
3.9280

> <Gold.PLP.Chemscore.CHOScore>
0.0000

> <Gold.PLP.Chemscore.Metal>
0.0000

> <Gold.Chemscore.Hbonds>
donor molecule, donor type, donor heavy atom, donor atom, acceptor molecule, acceptor atom, score
      L1  H     2    25       P1 10175  1.00
      L1  H    10    36       P1  7957  0.83
      P1  H  7997  8008       L1    19  1.90

> <Gold.PLP.Chemscore.Internal.Correction>
0.1101

> <Gold.Rescore>
     Score         DG    S(hbond)    S(metal)    S(lipo)     H(rot)  DE(clash)    DE(int)     intcor
      7.58     -13.57       2.85        0.00      47.92       2.74       0.10       5.89       ----

> <Gold.Chemscore.Fitness>
7.5754

> <Gold.Chemscore.DG>
-13.5652

> <Gold.Chemscore.ZeroCoef>
-5.4800

> <Gold.Chemscore.Hbond>
2.8450

> <Gold.Chemscore.Metal>
0.0000

> <Gold.Chemscore.Lipo>
47.9154

> <Gold.Chemscore.Internal_Hbond>
0.0000

> <Gold.Chemscore.DEClash>
0.1036

> <Gold.Chemscore.DEInternal>
5.8862

> <Gold.Chemscore.Rot>
2.7435

> <Gold.Chemscore.Internal.Correction>
   9.000000E+99

> <Gold.Chemscore.Hbonds>
donor molecule, donor type, donor heavy atom, donor atom, acceptor molecule, acceptor atom, score
      L1  H     2    25       P1 10175  0.94
      L1  H    10    36       P1  7957  0.83
      P1  H  7997  8008       L1    19  0.10

> <Gold.Chemscore.Hbond.Weighted>
-9.5024

> <Gold.Chemscore.Metal.Weighted>
-0.0000

> <Gold.Chemscore.Lipo.Weighted>
-5.6061

> <Gold.Chemscore.Internal_Hbond.Weighted>
0.0000

> <Gold.Chemscore.DEClash.Weighted>
0.1036

> <Gold.Chemscore.DEInternal.Weighted>
5.8862

> <Gold.Chemscore.Rot.Weighted>
7.0233

> <Gold.Chemscore.Internal.Correction.Weighted>
   9.000000E+99

> <Gold.Protein.RotatedTorsions>
[ 6907 6896 6895 6894 ] final  142.93 input  -60.11 | X-H torsion
[ 7974 7965 7964 7962 ] final   36.82 input  175.53 | X-H torsion
[ 8008 7997 7996 7995 ] final  -75.49 input   59.86 | X-H torsion
[ 10167 10162 10161 10158 ] final   31.41 input  -65.29 | X-H torsion
[ 10718 10713 10712 10709 ] final   45.36 input   66.30 | X-H torsion
[ 10763 10752 10751 10750 ] final  -44.38 input  -60.55 | X-H torsion
[ 11005 11000 10999 10996 ] final   30.86 input  -57.11 | X-H torsion

> <Gold.Protein.ActiveResidues>
 VAL166  LYS551  ARG553  GLY616  TRP617  ASP618  TYR619  PRO620  LYS621  CYS622 
 ASP623  PHE694  ASN695  SER759  ASP760  ASP761  ALA762  ILE779  LEU786  VAL792 
 PHE793  MET794  SER795  GLU796  ALA797  LYS798  CYS799  TRP800  GLU811  SER814 

> <Gold.Protein.RotatedAtoms>
  152.2126  133.4922  159.5117 H   0  0  0  0  0  0  0  0  0  0  0  0  # atno 6907 bound_to 6896
  150.6993  134.1447  159.4127 H   0  0  0  0  0  0  0  0  0  0  0  0  # atno 6908 bound_to 6896
  151.9367  135.0232  160.0583 H   0  0  0  0  0  0  0  0  0  0  0  0  # atno 6909 bound_to 6896
  146.1183  139.5970  142.9306 H   0  0  0  0  0  0  0  0  0  0  0  0  # atno 7974 bound_to 7965
  154.5421  140.0743  156.8527 H   0  0  0  0  0  0  0  0  0  0  0  0  # atno 8008 bound_to 7997
  155.3160  140.3393  155.4224 H   0  0  0  0  0  0  0  0  0  0  0  0  # atno 8009 bound_to 7997
  156.1884  140.1677  156.8126 H   0  0  0  0  0  0  0  0  0  0  0  0  # atno 8010 bound_to 7997
  140.4591  144.0934  150.6208 H   0  0  0  0  0  0  0  0  0  0  0  0  # atno 10167 bound_to 10162
  157.4367  130.8056  149.7654 H   0  0  0  0  0  0  0  0  0  0  0  0  # atno 10718 bound_to 10713
  154.0111  135.6681  153.4765 H   0  0  0  0  0  0  0  0  0  0  0  0  # atno 10763 bound_to 10752
  153.0620  135.5022  154.8112 H   0  0  0  0  0  0  0  0  0  0  0  0  # atno 10764 bound_to 10752
  154.6995  135.3076  154.9326 H   0  0  0  0  0  0  0  0  0  0  0  0  # atno 10765 bound_to 10752
  140.2900  134.2875  155.7778 H   0  0  0  0  0  0  0  0  0  0  0  0  # atno 11005 bound_to 11000
  145.5520  141.0412  143.2273 LP  0  0  0  0  0  0  0  0  0  0  0  0  # atno 17320 bound_to 7965
  144.7573  139.7042  143.7248 LP  0  0  0  0  0  0  0  0  0  0  0  0  # atno 17321 bound_to 7965
  140.4115  143.2654  151.9826 LP  0  0  0  0  0  0  0  0  0  0  0  0  # atno 17342 bound_to 10162
  139.4804  144.5911  151.7770 LP  0  0  0  0  0  0  0  0  0  0  0  0  # atno 17343 bound_to 10162
  155.9933  130.3925  150.2906 LP  0  0  0  0  0  0  0  0  0  0  0  0  # atno 17370 bound_to 10713
  157.1067  131.0210  151.3064 LP  0  0  0  0  0  0  0  0  0  0  0  0  # atno 17371 bound_to 10713
  141.2148  133.7579  156.9610 LP  0  0  0  0  0  0  0  0  0  0  0  0  # atno 17394 bound_to 11000
  140.1204  134.9420  157.2195 LP  0  0  0  0  0  0  0  0  0  0  0  0  # atno 17395 bound_to 11000

$$$$
