AV-unprocessed.smi:1240|AV-procd|sdf|5204|dock4
  -GOLD-   22720 4293D 1   1.00000     0.00000
 Structure written by MMmdl.
 48 50  0  0  0  0  0  0  0  0  2 V2000
  153.8413  140.6323  158.6269 O   0  0  0  0  0  0  0  0  0  0  0  0
  154.0387  141.2045  159.6984 C   0  0  0  0  0  0  0  0  0  0  0  0
  155.0386  140.8914  160.5344 N   0  0  0  0  0  0  0  0  0  0  0  0
  156.0272  139.8372  160.3224 C   0  0  0  0  0  0  0  0  0  0  0  0
  156.3983  139.1270  161.6518 C   0  0  1  0  0  0  0  0  0  0  0  0
  155.1850  138.3713  162.2807 C   0  0  2  0  0  0  0  0  0  0  0  0
  155.3857  137.7884  163.6830 C   0  0  0  0  0  0  0  0  0  0  0  0
  154.8991  136.3454  163.5553 C   0  0  0  0  0  0  0  0  0  0  0  0
  153.9894  136.3827  162.4685 O   0  0  0  0  0  0  0  0  0  0  0  0
  154.5671  137.2151  161.4764 C   0  0  0  0  0  0  0  0  0  0  0  0
  157.6668  138.3700  161.6198 N   0  0  0  0  0  0  0  0  0  0  0  0
  158.8125  139.1769  161.2039 C   0  0  0  0  0  0  0  0  0  0  0  0
  160.1327  138.3998  161.3264 C   0  0  0  0  0  0  0  0  0  0  0  0
  160.0497  137.2095  160.5506 O   0  0  0  0  0  0  0  0  0  0  0  0
  158.9799  136.3645  160.9599 C   0  0  0  0  0  0  0  0  0  0  0  0
  157.6420  137.1196  160.8639 C   0  0  0  0  0  0  0  0  0  0  0  0
  153.2818  142.1959  160.1993 N   0  0  0  0  0  0  0  0  0  0  0  0
  152.1311  142.8073  159.6308 C   0  0  0  0  0  0  0  0  0  0  0  0
  151.8489  144.1402  160.0041 C   0  0  0  0  0  0  0  0  0  0  0  0
  150.7275  144.7945  159.4548 C   0  0  0  0  0  0  0  0  0  0  0  0
  149.9382  144.1479  158.5704 N   0  3  0  0  0  0  0  0  0  0  0  0
  150.1751  142.8796  158.1722 C   0  0  0  0  0  0  0  0  0  0  0  0
  151.2818  142.1743  158.6874 C   0  0  0  0  0  0  0  0  0  0  0  0
  155.1194  141.4154  161.3937 H   0  0  0  0  0  0  0  0  0  0  0  0
  155.6763  139.1080  159.5913 H   0  0  0  0  0  0  0  0  0  0  0  0
  156.8977  140.3173  159.8781 H   0  0  0  0  0  0  0  0  0  0  0  0
  156.5779  139.9369  162.3608 H   0  0  0  0  0  0  0  0  0  0  0  0
  154.3847  139.1060  162.3844 H   0  0  0  0  0  0  0  0  0  0  0  0
  156.4095  137.8273  164.0535 H   0  0  0  0  0  0  0  0  0  0  0  0
  154.7662  138.3308  164.3985 H   0  0  0  0  0  0  0  0  0  0  0  0
  155.7267  135.6780  163.3098 H   0  0  0  0  0  0  0  0  0  0  0  0
  154.4239  135.9797  164.4657 H   0  0  0  0  0  0  0  0  0  0  0  0
  153.8069  137.5563  160.7738 H   0  0  0  0  0  0  0  0  0  0  0  0
  155.3014  136.6467  160.9095 H   0  0  0  0  0  0  0  0  0  0  0  0
  158.6974  139.4951  160.1680 H   0  0  0  0  0  0  0  0  0  0  0  0
  158.8701  140.0827  161.8084 H   0  0  0  0  0  0  0  0  0  0  0  0
  160.9642  139.0046  160.9646 H   0  0  0  0  0  0  0  0  0  0  0  0
  160.3437  138.1538  162.3682 H   0  0  0  0  0  0  0  0  0  0  0  0
  158.9611  135.4789  160.3247 H   0  0  0  0  0  0  0  0  0  0  0  0
  159.1528  136.0213  161.9811 H   0  0  0  0  0  0  0  0  0  0  0  0
  156.8681  136.4606  161.2474 H   0  0  0  0  0  0  0  0  0  0  0  0
  157.4129  137.3161  159.8163 H   0  0  0  0  0  0  0  0  0  0  0  0
  153.5235  142.5087  161.1283 H   0  0  0  0  0  0  0  0  0  0  0  0
  152.4810  144.6592  160.7103 H   0  0  0  0  0  0  0  0  0  0  0  0
  150.4415  145.8087  159.6935 H   0  0  0  0  0  0  0  0  0  0  0  0
  149.4807  142.4702  157.4530 H   0  0  0  0  0  0  0  0  0  0  0  0
  151.4622  141.1687  158.3394 H   0  0  0  0  0  0  0  0  0  0  0  0
  149.1323  144.6396  158.1831 H   0  0  0  0  0  0  0  0  0  0  0  0
  1  2  2  0  0  0  0
  2  3  1  0  0  0  0
  2 17  1  0  0  0  0
  3  4  1  0  0  0  0
  3 24  1  0  0  0  0
  4  5  1  0  0  0  0
  4 25  1  0  0  0  0
  4 26  1  0  0  0  0
  5  6  1  0  0  0  0
  5 11  1  0  0  0  0
  5 27  1  0  0  0  0
  6 10  1  0  0  0  0
  6  7  1  0  0  0  0
  6 28  1  0  0  0  0
  7  8  1  0  0  0  0
  7 29  1  0  0  0  0
  7 30  1  0  0  0  0
  8  9  1  0  0  0  0
  8 31  1  0  0  0  0
  8 32  1  0  0  0  0
  9 10  1  0  0  0  0
 10 33  1  0  0  0  0
 10 34  1  0  0  0  0
 11 16  1  0  0  0  0
 11 12  1  0  0  0  0
 12 13  1  0  0  0  0
 12 35  1  0  0  0  0
 12 36  1  0  0  0  0
 13 14  1  0  0  0  0
 13 37  1  0  0  0  0
 13 38  1  0  0  0  0
 14 15  1  0  0  0  0
 15 16  1  0  0  0  0
 15 39  1  0  0  0  0
 15 40  1  0  0  0  0
 16 41  1  0  0  0  0
 16 42  1  0  0  0  0
 17 18  1  0  0  0  0
 17 43  1  0  0  0  0
 18 23  1  0  0  0  0
 18 19  2  0  0  0  0
 19 20  1  0  0  0  0
 19 44  1  0  0  0  0
 20 21  2  0  0  0  0
 20 45  1  0  0  0  0
 21 22  1  0  0  0  0
 21 48  1  0  0  0  0
 22 23  2  0  0  0  0
 22 46  1  0  0  0  0
 23 47  1  0  0  0  0
M  CHG  1  21   1
M  END
> <s_m_source_file>
AV-unprocessed.smi

> <i_m_source_file_index>
1240

> <i_lp_mmshare_version>
43012

> <i_f3d_flags>
0

> <s_epik_input>
W2NIXTFbY0hdbltjSF1bY0hdYzFbTkhdQyg9TylbTkhdW0NIMl1bQ0BIXShbQ0BASF0yW0NIMl1bQ0gyXU9bQ0gyXTIpTjNbQ0gyXVtDSDJdT1tDSDJdW0NIMl0z

> <s_epik_cmdline>
J2VwaWtfcHl0aG9uJywgJy1waCcsICc3LjAnLCAnLXRuJywgJzgnLCAnLW1hJywgJzIwMCcsICctbWV0YWxfYmluZGluZycsICctaW1hZScsICc8aW5maWxlLm1hZT4nLCAnLW9tYWUnLCAnPG91dGZpbGUubWFlPic=

> <r_epik_Ionization_Penalty>
1.15944

> <r_epik_Ionization_Penalty_Charging>
1.0344

> <r_epik_Ionization_Penalty_Neutral>
0.125034

> <r_epik_State_Penalty>
1.2199

> <r_epik_Charging_Adjusted_Penalty>
2.25431

> <i_epik_Tot_Q>
1

> <i_epik_Tot_abs_Q>
1

> <r_epik_Metal_State_Penalty>
1.3155

> <b_epik_Metal_Only>
0

> <s_lp_Force_Field>
OPLS_2005

> <r_lp_Energy>
64.7191

> <b_lp_Chiralities_Consistent>
1

> <s_lp_Variant>
AV-unprocessed.smi:1240-10

> <Gold.Version>
5.8.1

> <Gold.Id.Protein>
6NUR|6NUR_protein|mol2

> <Gold.PLP.Fitness>
42.5019

> <Gold.PLP.PLP>
-34.9673

> <Gold.PLP.part.hbond>
-3.1683

> <Gold.PLP.part.metal>
0.0000

> <Gold.PLP.part.buried>
-5.2368

> <Gold.PLP.part.nonpolar>
-27.3707

> <Gold.PLP.part.repulsive>
0.2927

> <Gold.PLP.ligand.clash>
0.0000

> <Gold.PLP.ligand.torsion>
0.5206

> <Gold.PLP.Chemscore.Hbond>
2.7389

> <Gold.PLP.Chemscore.CHOScore>
0.0000

> <Gold.PLP.Chemscore.Metal>
0.0000

> <Gold.Chemscore.Hbonds>
donor molecule, donor type, donor heavy atom, donor atom, acceptor molecule, acceptor atom, score
      L1  H    21    48       P1  8029  2.00
      P1  H  7997  8009       L1     1  0.66

> <Gold.PLP.Chemscore.Internal.Correction>
0.3590

> <Gold.Rescore>
     Score         DG    S(hbond)    S(metal)    S(lipo)     H(rot)  DE(clash)    DE(int)     intcor
     14.17     -16.08       1.27        0.00      91.26       1.69       0.26       1.64       ----

> <Gold.Chemscore.Fitness>
14.1733

> <Gold.Chemscore.DG>
-16.0817

> <Gold.Chemscore.ZeroCoef>
-5.4800

> <Gold.Chemscore.Hbond>
1.2736

> <Gold.Chemscore.Metal>
0.0000

> <Gold.Chemscore.Lipo>
91.2601

> <Gold.Chemscore.Internal_Hbond>
0.0000

> <Gold.Chemscore.DEClash>
0.2646

> <Gold.Chemscore.DEInternal>
1.6438

> <Gold.Chemscore.Rot>
1.6912

> <Gold.Chemscore.Internal.Correction>
   9.000000E+99

> <Gold.Chemscore.Hbonds>
donor molecule, donor type, donor heavy atom, donor atom, acceptor molecule, acceptor atom, score
      L1  H    21    48       P1  8029  0.24
      P1  H  7997  8009       L1     1  0.66

> <Gold.Chemscore.Hbond.Weighted>
-4.2537

> <Gold.Chemscore.Metal.Weighted>
-0.0000

> <Gold.Chemscore.Lipo.Weighted>
-10.6774

> <Gold.Chemscore.Internal_Hbond.Weighted>
0.0000

> <Gold.Chemscore.DEClash.Weighted>
0.2646

> <Gold.Chemscore.DEInternal.Weighted>
1.6438

> <Gold.Chemscore.Rot.Weighted>
4.3295

> <Gold.Chemscore.Internal.Correction.Weighted>
   9.000000E+99

> <Gold.Protein.RotatedTorsions>
[ 6907 6896 6895 6894 ] final -147.54 input  -60.11 | X-H torsion
[ 7974 7965 7964 7962 ] final  142.28 input  175.53 | X-H torsion
[ 8008 7997 7996 7995 ] final  139.55 input   59.86 | X-H torsion
[ 10167 10162 10161 10158 ] final   96.14 input  -65.29 | X-H torsion
[ 10718 10713 10712 10709 ] final  175.03 input   66.30 | X-H torsion
[ 10763 10752 10751 10750 ] final  -34.34 input  -60.55 | X-H torsion
[ 11005 11000 10999 10996 ] final  -94.29 input  -57.11 | X-H torsion

> <Gold.Protein.ActiveResidues>
 VAL166  LYS551  ARG553  GLY616  TRP617  ASP618  TYR619  PRO620  LYS621  CYS622 
 ASP623  PHE694  ASN695  SER759  ASP760  ASP761  ALA762  ILE779  LEU786  VAL792 
 PHE793  MET794  SER795  GLU796  ALA797  LYS798  CYS799  TRP800  GLU811  SER814 

> <Gold.Protein.RotatedAtoms>
  151.1571  133.4869  159.2594 H   0  0  0  0  0  0  0  0  0  0  0  0  # atno 6907 bound_to 6896
  151.1493  135.0219  159.8671 H   0  0  0  0  0  0  0  0  0  0  0  0  # atno 6908 bound_to 6896
  152.5463  134.1456  159.8550 H   0  0  0  0  0  0  0  0  0  0  0  0  # atno 6909 bound_to 6896
  144.9022  139.5407  143.5748 H   0  0  0  0  0  0  0  0  0  0  0  0  # atno 7974 bound_to 7965
  156.2988  140.2364  156.4256 H   0  0  0  0  0  0  0  0  0  0  0  0  # atno 8008 bound_to 7997
  154.8316  140.0432  157.1501 H   0  0  0  0  0  0  0  0  0  0  0  0  # atno 8009 bound_to 7997
  154.9202  140.3002  155.5224 H   0  0  0  0  0  0  0  0  0  0  0  0  # atno 8010 bound_to 7997
  139.7922  144.6847  150.9876 H   0  0  0  0  0  0  0  0  0  0  0  0  # atno 10167 bound_to 10162
  156.9408  131.0000  151.2969 H   0  0  0  0  0  0  0  0  0  0  0  0  # atno 10718 bound_to 10713
  153.8451  135.6854  153.4798 H   0  0  0  0  0  0  0  0  0  0  0  0  # atno 10763 bound_to 10752
  153.1430  135.4649  154.9523 H   0  0  0  0  0  0  0  0  0  0  0  0  # atno 10764 bound_to 10752
  154.7827  135.3274  154.7901 H   0  0  0  0  0  0  0  0  0  0  0  0  # atno 10765 bound_to 10752
  141.1474  133.7946  157.0277 H   0  0  0  0  0  0  0  0  0  0  0  0  # atno 11005 bound_to 11000
  146.3114  139.7761  142.9017 LP  0  0  0  0  0  0  0  0  0  0  0  0  # atno 17320 bound_to 7965
  145.3597  141.0323  143.3292 LP  0  0  0  0  0  0  0  0  0  0  0  0  # atno 17321 bound_to 7965
  140.7820  143.4368  151.0611 LP  0  0  0  0  0  0  0  0  0  0  0  0  # atno 17342 bound_to 10162
  139.8044  143.8038  152.3166 LP  0  0  0  0  0  0  0  0  0  0  0  0  # atno 17343 bound_to 10162
  157.5786  130.8360  149.8490 LP  0  0  0  0  0  0  0  0  0  0  0  0  # atno 17370 bound_to 10713
  156.0405  130.3740  150.1448 LP  0  0  0  0  0  0  0  0  0  0  0  0  # atno 17371 bound_to 10713
  140.0774  134.9668  157.1568 LP  0  0  0  0  0  0  0  0  0  0  0  0  # atno 17394 bound_to 11000
  140.3625  134.2479  155.7185 LP  0  0  0  0  0  0  0  0  0  0  0  0  # atno 17395 bound_to 11000

$$$$
