AV-unprocessed.smi:1412|AV-procd|sdf|5742|dock4
  -GOLD-   22720 5373D 1   1.00000     0.00000
 Structure written by MMmdl.
 42 43  0  0  0  0  0  0  0  0  2 V2000
  148.6708  136.5392  157.7614 C   0  0  0  0  0  0  0  0  0  0  0  0
  149.6691  135.6121  157.0452 C   0  0  0  0  0  0  0  0  0  0  0  0
  149.4562  135.4490  155.5087 C   0  0  1  0  0  0  0  0  0  0  0  0
  150.3701  134.2861  155.0388 C   0  0  0  0  0  0  0  0  0  0  0  0
  147.9712  135.0697  155.2126 C   0  0  0  0  0  0  0  0  0  0  0  0
  147.6556  134.9944  153.7858 N   0  0  0  0  0  0  0  0  0  0  0  0
  146.6435  134.2974  153.2478 C   0  0  0  0  0  0  0  0  0  0  0  0
  145.8544  133.6261  153.9125 O   0  0  0  0  0  0  0  0  0  0  0  0
  146.6200  134.4262  151.9095 N   0  0  0  0  0  0  0  0  0  0  0  0
  145.7287  133.8218  150.9836 C   0  0  0  0  0  0  0  0  0  0  0  0
  146.0825  132.8351  150.1451 N   0  0  0  0  0  0  0  0  0  0  0  0
  145.0230  132.4282  149.3446 N   0  0  0  0  0  0  0  0  0  0  0  0
  143.9134  133.1233  149.6098 C   0  0  0  0  0  0  0  0  0  0  0  0
  144.0542  134.3429  150.8642 S   0  0  0  0  0  0  0  0  0  0  0  0
  149.8284  136.7296  154.8029 N   0  3  0  0  0  0  0  0  0  0  0  0
  148.9442  137.9022  155.0574 C   0  0  0  0  0  0  0  0  0  0  0  0
  149.3196  139.0717  154.1309 C   0  0  0  0  0  0  0  0  0  0  0  0
  150.6862  139.4143  154.3124 O   0  0  0  0  0  0  0  0  0  0  0  0
  151.5467  138.3319  153.9868 C   0  0  0  0  0  0  0  0  0  0  0  0
  151.2547  137.1479  154.9220 C   0  0  0  0  0  0  0  0  0  0  0  0
  148.9091  136.6041  158.8233 H   0  0  0  0  0  0  0  0  0  0  0  0
  147.6471  136.1738  157.6824 H   0  0  0  0  0  0  0  0  0  0  0  0
  148.6997  137.5527  157.3624 H   0  0  0  0  0  0  0  0  0  0  0  0
  150.6680  136.0049  157.2364 H   0  0  0  0  0  0  0  0  0  0  0  0
  149.6626  134.6394  157.5366 H   0  0  0  0  0  0  0  0  0  0  0  0
  150.2796  133.4138  155.6871 H   0  0  0  0  0  0  0  0  0  0  0  0
  151.4218  134.5727  155.0336 H   0  0  0  0  0  0  0  0  0  0  0  0
  150.1172  133.9459  154.0343 H   0  0  0  0  0  0  0  0  0  0  0  0
  147.7033  134.1270  155.6900 H   0  0  0  0  0  0  0  0  0  0  0  0
  147.2989  135.8152  155.6365 H   0  0  0  0  0  0  0  0  0  0  0  0
  148.2532  135.5177  153.1624 H   0  0  0  0  0  0  0  0  0  0  0  0
  147.3296  135.0171  151.5025 H   0  0  0  0  0  0  0  0  0  0  0  0
  143.0058  132.9165  149.0622 H   0  0  0  0  0  0  0  0  0  0  0  0
  147.8979  137.6643  154.8751 H   0  0  0  0  0  0  0  0  0  0  0  0
  149.0275  138.2189  156.0973 H   0  0  0  0  0  0  0  0  0  0  0  0
  149.1324  138.8159  153.0865 H   0  0  0  0  0  0  0  0  0  0  0  0
  148.7054  139.9431  154.3588 H   0  0  0  0  0  0  0  0  0  0  0  0
  151.4193  138.0459  152.9414 H   0  0  0  0  0  0  0  0  0  0  0  0
  152.5805  138.6574  154.1045 H   0  0  0  0  0  0  0  0  0  0  0  0
  151.4809  137.4442  155.9463 H   0  0  0  0  0  0  0  0  0  0  0  0
  151.9339  136.3377  154.6649 H   0  0  0  0  0  0  0  0  0  0  0  0
  149.6994  136.5176  153.8237 H   0  0  0  0  0  0  0  0  0  0  0  0
  1  2  1  0  0  0  0
  1 21  1  0  0  0  0
  1 22  1  0  0  0  0
  1 23  1  0  0  0  0
  2  3  1  0  0  0  0
  2 24  1  0  0  0  0
  2 25  1  0  0  0  0
  3  4  1  0  0  0  0
  3  5  1  0  0  0  0
  3 15  1  0  0  0  0
  4 26  1  0  0  0  0
  4 27  1  0  0  0  0
  4 28  1  0  0  0  0
  5  6  1  0  0  0  0
  5 29  1  0  0  0  0
  5 30  1  0  0  0  0
  6  7  1  0  0  0  0
  6 31  1  0  0  0  0
  7  8  2  0  0  0  0
  7  9  1  0  0  0  0
  9 10  1  0  0  0  0
  9 32  1  0  0  0  0
 10 14  1  0  0  0  0
 10 11  2  0  0  0  0
 11 12  1  0  0  0  0
 12 13  2  0  0  0  0
 13 14  1  0  0  0  0
 13 33  1  0  0  0  0
 15 20  1  0  0  0  0
 15 16  1  0  0  0  0
 15 42  1  0  0  0  0
 16 17  1  0  0  0  0
 16 34  1  0  0  0  0
 16 35  1  0  0  0  0
 17 18  1  0  0  0  0
 17 36  1  0  0  0  0
 17 37  1  0  0  0  0
 18 19  1  0  0  0  0
 19 20  1  0  0  0  0
 19 38  1  0  0  0  0
 19 39  1  0  0  0  0
 20 40  1  0  0  0  0
 20 41  1  0  0  0  0
M  CHG  1  15   1
M  END
> <s_m_source_file>
AV-unprocessed.smi

> <i_m_source_file_index>
1412

> <i_lp_mmshare_version>
43012

> <i_f3d_flags>
0

> <s_epik_input>
W0NIMl0xW0NIMl1PW0NIMl1bQ0gyXU4xW0NAQF0oW0NIM10pKFtDSDJdW0NIM10pW0NIMl1bTkhdQyg9TylbTkhdYzJubltjSF1zMg==

> <s_epik_cmdline>
J2VwaWtfcHl0aG9uJywgJy1waCcsICc3LjAnLCAnLXRuJywgJzgnLCAnLW1hJywgJzIwMCcsICctbWV0YWxfYmluZGluZycsICctaW1hZScsICc8aW5maWxlLm1hZT4nLCAnLW9tYWUnLCAnPG91dGZpbGUubWFlPic=

> <r_lp_tautomer_probability>
1

> <r_epik_Ionization_Penalty>
0.554649

> <r_epik_Ionization_Penalty_Charging>
0.553838

> <r_epik_Ionization_Penalty_Neutral>
0.000811527

> <r_epik_State_Penalty>
0.564424

> <r_epik_Charging_Adjusted_Penalty>
1.11826

> <i_epik_Tot_Q>
1

> <i_epik_Tot_abs_Q>
1

> <r_epik_Metal_State_Penalty>
0.786249

> <b_epik_Metal_Only>
0

> <s_lp_Force_Field>
OPLS_2005

> <r_lp_Energy>
27.1522

> <b_lp_Chiralities_Consistent>
1

> <s_lp_Variant>
AV-unprocessed.smi:1412-3

> <Gold.Version>
5.8.1

> <Gold.Id.Protein>
6NUR|6NUR_protein|mol2

> <Gold.PLP.Fitness>
38.4569

> <Gold.PLP.PLP>
-24.6219

> <Gold.PLP.part.hbond>
-3.8578

> <Gold.PLP.part.metal>
0.0000

> <Gold.PLP.part.buried>
-4.9718

> <Gold.PLP.part.nonpolar>
-16.6182

> <Gold.PLP.part.repulsive>
0.6764

> <Gold.PLP.ligand.clash>
0.0000

> <Gold.PLP.ligand.torsion>
0.9930

> <Gold.PLP.Chemscore.Hbond>
4.7150

> <Gold.PLP.Chemscore.CHOScore>
0.4811

> <Gold.PLP.Chemscore.Metal>
0.0000

> <Gold.Chemscore.Hbonds>
donor molecule, donor type, donor heavy atom, donor atom, acceptor molecule, acceptor atom, score
      L1  H     6    31       P1  7948  1.00
      L1  H     9    32       P1  7948  0.94
      L1  H    15    42       P1  7948  1.72
      P1  H  7989  7998       L1    18  1.00
      L1  C    13    33       P1 10186  0.72

> <Gold.PLP.Chemscore.Internal.Correction>
0.2325

> <Gold.Rescore>
     Score         DG    S(hbond)    S(metal)    S(lipo)     H(rot)  DE(clash)    DE(int)     intcor
     13.55     -16.14       2.66        0.00      56.99       1.91       0.67       1.92       ----

> <Gold.Chemscore.Fitness>
13.5537

> <Gold.Chemscore.DG>
-16.1435

> <Gold.Chemscore.ZeroCoef>
-5.4800

> <Gold.Chemscore.Hbond>
2.6635

> <Gold.Chemscore.Metal>
0.0000

> <Gold.Chemscore.Lipo>
56.9850

> <Gold.Chemscore.Internal_Hbond>
0.0000

> <Gold.Chemscore.DEClash>
0.6676

> <Gold.Chemscore.DEInternal>
1.9222

> <Gold.Chemscore.Rot>
1.9140

> <Gold.Chemscore.Internal.Correction>
   9.000000E+99

> <Gold.Chemscore.Hbonds>
donor molecule, donor type, donor heavy atom, donor atom, acceptor molecule, acceptor atom, score
      L1  H     6    31       P1  7948  0.99
      L1  H     9    32       P1  7948  0.64
      L1  H    15    42       P1  7948  0.46
      P1  H  7989  7998       L1    18  0.26

> <Gold.Chemscore.Hbond.Weighted>
-8.8961

> <Gold.Chemscore.Metal.Weighted>
-0.0000

> <Gold.Chemscore.Lipo.Weighted>
-6.6672

> <Gold.Chemscore.Internal_Hbond.Weighted>
0.0000

> <Gold.Chemscore.DEClash.Weighted>
0.6676

> <Gold.Chemscore.DEInternal.Weighted>
1.9222

> <Gold.Chemscore.Rot.Weighted>
4.8998

> <Gold.Chemscore.Internal.Correction.Weighted>
   9.000000E+99

> <Gold.Protein.RotatedTorsions>
[ 6907 6896 6895 6894 ] final  -19.27 input  -60.11 | X-H torsion
[ 7974 7965 7964 7962 ] final -140.20 input  175.53 | X-H torsion
[ 8008 7997 7996 7995 ] final   59.07 input   59.86 | X-H torsion
[ 10167 10162 10161 10158 ] final  -91.69 input  -65.29 | X-H torsion
[ 10718 10713 10712 10709 ] final  116.00 input   66.30 | X-H torsion
[ 10763 10752 10751 10750 ] final  -45.66 input  -60.55 | X-H torsion
[ 11005 11000 10999 10996 ] final  150.03 input  -57.11 | X-H torsion

> <Gold.Protein.ActiveResidues>
 VAL166  LYS551  ARG553  GLY616  TRP617  ASP618  TYR619  PRO620  LYS621  CYS622 
 ASP623  PHE694  ASN695  SER759  ASP760  ASP761  ALA762  ILE779  LEU786  VAL792 
 PHE793  MET794  SER795  GLU796  ALA797  LYS798  CYS799  TRP800  GLU811  SER814 

> <Gold.Protein.RotatedAtoms>
  151.2657  135.0668  159.9114 H   0  0  0  0  0  0  0  0  0  0  0  0  # atno 6907 bound_to 6896
  152.5359  134.0184  159.7980 H   0  0  0  0  0  0  0  0  0  0  0  0  # atno 6908 bound_to 6896
  151.0414  133.5653  159.2682 H   0  0  0  0  0  0  0  0  0  0  0  0  # atno 6909 bound_to 6896
  144.8616  140.6228  143.5325 H   0  0  0  0  0  0  0  0  0  0  0  0  # atno 7974 bound_to 7965
  155.5602  140.3488  155.4489 H   0  0  0  0  0  0  0  0  0  0  0  0  # atno 8008 bound_to 7997
  156.0519  140.1320  157.0065 H   0  0  0  0  0  0  0  0  0  0  0  0  # atno 8009 bound_to 7997
  154.4438  140.1003  156.6374 H   0  0  0  0  0  0  0  0  0  0  0  0  # atno 8010 bound_to 7997
  140.3424  143.2935  151.9820 H   0  0  0  0  0  0  0  0  0  0  0  0  # atno 10167 bound_to 10162
  157.6188  131.1020  150.7409 H   0  0  0  0  0  0  0  0  0  0  0  0  # atno 10718 bound_to 10713
  154.0322  135.6655  153.4782 H   0  0  0  0  0  0  0  0  0  0  0  0  # atno 10763 bound_to 10752
  153.0536  135.5069  154.7922 H   0  0  0  0  0  0  0  0  0  0  0  0  # atno 10764 bound_to 10752
  154.6871  135.3055  154.9497 H   0  0  0  0  0  0  0  0  0  0  0  0  # atno 10765 bound_to 10752
  140.1096  134.8932  157.1916 H   0  0  0  0  0  0  0  0  0  0  0  0  # atno 11005 bound_to 11000
  145.4302  139.1550  143.4026 LP  0  0  0  0  0  0  0  0  0  0  0  0  # atno 17320 bound_to 7965
  146.2864  140.4417  142.8756 LP  0  0  0  0  0  0  0  0  0  0  0  0  # atno 17321 bound_to 7965
  139.4838  144.6146  151.7371 LP  0  0  0  0  0  0  0  0  0  0  0  0  # atno 17342 bound_to 10162
  140.5297  144.0750  150.6049 LP  0  0  0  0  0  0  0  0  0  0  0  0  # atno 17343 bound_to 10162
  156.7771  130.4847  149.5407 LP  0  0  0  0  0  0  0  0  0  0  0  0  # atno 17370 bound_to 10713
  156.1323  130.6186  151.0350 LP  0  0  0  0  0  0  0  0  0  0  0  0  # atno 17371 bound_to 10713
  140.3109  134.3024  155.7267 LP  0  0  0  0  0  0  0  0  0  0  0  0  # atno 17394 bound_to 11000
  141.2127  133.7650  156.9775 LP  0  0  0  0  0  0  0  0  0  0  0  0  # atno 17395 bound_to 11000

$$$$
