AV-unprocessed.smi:1763|AV-procd|sdf|7131|dock10
  -GOLD-   22720 8363D 1   1.00000     0.00000
 Structure written by MMmdl.
 42 43  0  0  0  0  0  0  0  0  3 V2000
  150.5577  133.1549  156.5117 C   0  0  0  0  0  0  0  0  0  0  0  0
  150.1525  134.2686  157.3616 N   0  5  0  0  0  0  0  0  0  0  0  0
  149.2734  135.2315  156.9687 C   0  0  0  0  0  0  0  0  0  0  0  0
  148.6563  136.0758  157.6257 O   0  0  0  0  0  0  0  0  0  0  0  0
  149.0641  135.2002  155.4495 C   0  0  0  0  0  0  0  0  0  0  0  0
  149.5008  136.4771  154.8283 N   0  3  2  0  0  0  0  0  0  0  0  0
  150.9745  136.6505  154.8641 C   0  0  0  0  0  0  0  0  0  0  0  0
  151.4082  137.9003  154.0767 C   0  0  0  0  0  0  0  0  0  0  0  0
  150.6936  139.1720  154.5663 C   0  0  2  0  0  0  0  0  0  0  0  0
  151.2001  139.5732  155.8787 N   0  0  0  0  0  0  0  0  0  0  0  0
  151.0881  140.7998  156.4102 C   0  0  0  0  0  0  0  0  0  0  0  0
  150.5291  141.7367  155.8394 O   0  0  0  0  0  0  0  0  0  0  0  0
  151.6582  140.8580  157.6269 N   0  0  0  0  0  0  0  0  0  0  0  0
  151.7418  141.9722  158.5043 C   0  0  0  0  0  0  0  0  0  0  0  0
  151.5953  143.2343  157.8852 C   0  0  0  0  0  0  0  0  0  0  0  0
  151.6630  144.4023  158.6693 C   0  0  0  0  0  0  0  0  0  0  0  0
  151.8755  144.2781  160.0539 C   0  0  0  0  0  0  0  0  0  0  0  0
  152.0115  142.9845  160.5905 C   0  0  0  0  0  0  0  0  0  0  0  0
  151.9472  141.8638  159.8409 N   0  0  0  0  0  0  0  0  0  0  0  0
  149.1699  138.9377  154.5871 C   0  0  0  0  0  0  0  0  0  0  0  0
  148.7922  137.6675  155.3688 C   0  0  0  0  0  0  0  0  0  0  0  0
  151.2441  132.4825  157.0261 H   0  0  0  0  0  0  0  0  0  0  0  0
  151.0710  133.4877  155.6092 H   0  0  0  0  0  0  0  0  0  0  0  0
  149.7122  132.5466  156.1891 H   0  0  0  0  0  0  0  0  0  0  0  0
  149.5962  134.3587  155.0027 H   0  0  0  0  0  0  0  0  0  0  0  0
  148.0022  135.0303  155.2634 H   0  0  0  0  0  0  0  0  0  0  0  0
  151.3088  136.7157  155.9006 H   0  0  0  0  0  0  0  0  0  0  0  0
  151.4569  135.7735  154.4308 H   0  0  0  0  0  0  0  0  0  0  0  0
  152.4900  138.0259  154.1374 H   0  0  0  0  0  0  0  0  0  0  0  0
  151.1807  137.7485  153.0205 H   0  0  0  0  0  0  0  0  0  0  0  0
  150.9157  139.9745  153.8604 H   0  0  0  0  0  0  0  0  0  0  0  0
  151.6792  138.8664  156.4172 H   0  0  0  0  0  0  0  0  0  0  0  0
  152.0818  140.0072  157.9659 H   0  0  0  0  0  0  0  0  0  0  0  0
  151.4322  143.3122  156.8199 H   0  0  0  0  0  0  0  0  0  0  0  0
  151.5535  145.3762  158.2154 H   0  0  0  0  0  0  0  0  0  0  0  0
  151.9336  145.1506  160.6878 H   0  0  0  0  0  0  0  0  0  0  0  0
  152.1762  142.8450  161.6489 H   0  0  0  0  0  0  0  0  0  0  0  0
  148.6525  139.8021  155.0049 H   0  0  0  0  0  0  0  0  0  0  0  0
  148.8104  138.8406  153.5618 H   0  0  0  0  0  0  0  0  0  0  0  0
  147.7132  137.5228  155.3077 H   0  0  0  0  0  0  0  0  0  0  0  0
  149.0321  137.7876  156.4264 H   0  0  0  0  0  0  0  0  0  0  0  0
  149.2449  136.3976  153.8538 H   0  0  0  0  0  0  0  0  0  0  0  0
  1  2  1  0  0  0  0
  1 22  1  0  0  0  0
  1 23  1  0  0  0  0
  1 24  1  0  0  0  0
  2  3  1  0  0  0  0
  3  4  2  0  0  0  0
  3  5  1  0  0  0  0
  5  6  1  0  0  0  0
  5 25  1  0  0  0  0
  5 26  1  0  0  0  0
  6 21  1  0  0  0  0
  6  7  1  0  0  0  0
  6 42  1  0  0  0  0
  7  8  1  0  0  0  0
  7 27  1  0  0  0  0
  7 28  1  0  0  0  0
  8  9  1  0  0  0  0
  8 29  1  0  0  0  0
  8 30  1  0  0  0  0
  9 10  1  0  0  0  0
  9 20  1  0  0  0  0
  9 31  1  0  0  0  0
 10 11  1  0  0  0  0
 10 32  1  0  0  0  0
 11 12  2  0  0  0  0
 11 13  1  0  0  0  0
 13 14  1  0  0  0  0
 13 33  1  0  0  0  0
 14 19  1  0  0  0  0
 14 15  2  0  0  0  0
 15 16  1  0  0  0  0
 15 34  1  0  0  0  0
 16 17  2  0  0  0  0
 16 35  1  0  0  0  0
 17 18  1  0  0  0  0
 17 36  1  0  0  0  0
 18 19  2  0  0  0  0
 18 37  1  0  0  0  0
 20 21  1  0  0  0  0
 20 38  1  0  0  0  0
 20 39  1  0  0  0  0
 21 40  1  0  0  0  0
 21 41  1  0  0  0  0
M  CHG  1   2  -1
M  CHG  1   6   1
M  END
> <s_m_source_file>
AV-unprocessed.smi

> <i_m_source_file_index>
1763

> <i_lp_mmshare_version>
43012

> <i_f3d_flags>
0

> <s_epik_input>
W0NIM11bTkhdQyg9TylbQ0gyXU4xW0NIMl1bQ0gyXVtDSF0oW0NIMl1bQ0gyXTEpW05IXUMoPU8pW05IXWMyW2NIXVtjSF1bY0hdW2NIXW4y

> <s_epik_cmdline>
J2VwaWtfcHl0aG9uJywgJy1waCcsICc3LjAnLCAnLXRuJywgJzgnLCAnLW1hJywgJzIwMCcsICctbWV0YWxfYmluZGluZycsICctaW1hZScsICc8aW5maWxlLm1hZT4nLCAnLW9tYWUnLCAnPG91dGZpbGUubWFlPic=

> <r_epik_Ionization_Penalty>
6.1395

> <r_epik_Ionization_Penalty_Charging>
6.13946

> <r_epik_Ionization_Penalty_Neutral>
3.77655e-05

> <r_epik_State_Penalty>
6.9595

> <r_epik_Charging_Adjusted_Penalty>
13.099

> <i_epik_Tot_Q>
0

> <i_epik_Tot_abs_Q>
2

> <r_epik_Metal_State_Penalty>
2.8914

> <b_epik_Metal_Only>
1

> <s_lp_Force_Field>
OPLS_2005

> <r_lp_Energy>
12.7162

> <b_lp_Chiralities_Consistent>
1

> <s_lp_Variant>
AV-unprocessed.smi:1763-5

> <Gold.Version>
5.8.1

> <Gold.Id.Protein>
6NUR|6NUR_protein|mol2

> <Gold.PLP.Fitness>
44.9826

> <Gold.PLP.PLP>
-34.3926

> <Gold.PLP.part.hbond>
-2.4912

> <Gold.PLP.part.metal>
0.0000

> <Gold.PLP.part.buried>
-3.6445

> <Gold.PLP.part.nonpolar>
-28.9485

> <Gold.PLP.part.repulsive>
0.2968

> <Gold.PLP.ligand.clash>
0.1336

> <Gold.PLP.ligand.torsion>
0.4398

> <Gold.PLP.Chemscore.Hbond>
3.8560

> <Gold.PLP.Chemscore.CHOScore>
0.0000

> <Gold.PLP.Chemscore.Metal>
0.0000

> <Gold.Chemscore.Hbonds>
donor molecule, donor type, donor heavy atom, donor atom, acceptor molecule, acceptor atom, score
      L1  H     6    42       P1  7948  2.00
      P1  H  6896  6907       L1     2  1.62

> <Gold.PLP.Chemscore.Internal.Correction>
0.0353

> <Gold.Rescore>
     Score         DG    S(hbond)    S(metal)    S(lipo)     H(rot)  DE(clash)    DE(int)     intcor
     13.16     -16.37       1.56        0.00      85.07       1.67       0.02       3.19       ----

> <Gold.Chemscore.Fitness>
13.1624

> <Gold.Chemscore.DG>
-16.3699

> <Gold.Chemscore.ZeroCoef>
-5.4800

> <Gold.Chemscore.Hbond>
1.5629

> <Gold.Chemscore.Metal>
0.0000

> <Gold.Chemscore.Lipo>
85.0660

> <Gold.Chemscore.Internal_Hbond>
0.0000

> <Gold.Chemscore.DEClash>
0.0195

> <Gold.Chemscore.DEInternal>
3.1880

> <Gold.Chemscore.Rot>
1.6730

> <Gold.Chemscore.Internal.Correction>
   9.000000E+99

> <Gold.Chemscore.Hbonds>
donor molecule, donor type, donor heavy atom, donor atom, acceptor molecule, acceptor atom, score
      L1  H     6    42       P1  7948  0.91
      P1  H  6896  6907       L1     2  0.63

> <Gold.Chemscore.Hbond.Weighted>
-5.2202

> <Gold.Chemscore.Metal.Weighted>
-0.0000

> <Gold.Chemscore.Lipo.Weighted>
-9.9527

> <Gold.Chemscore.Internal_Hbond.Weighted>
0.0000

> <Gold.Chemscore.DEClash.Weighted>
0.0195

> <Gold.Chemscore.DEInternal.Weighted>
3.1880

> <Gold.Chemscore.Rot.Weighted>
4.2830

> <Gold.Chemscore.Internal.Correction.Weighted>
   9.000000E+99

> <Gold.Protein.RotatedTorsions>
[ 6907 6896 6895 6894 ] final -104.87 input  -60.11 | X-H torsion
[ 7974 7965 7964 7962 ] final   48.63 input  175.53 | X-H torsion
[ 8008 7997 7996 7995 ] final   80.00 input   59.86 | X-H torsion
[ 10167 10162 10161 10158 ] final  161.63 input  -65.29 | X-H torsion
[ 10718 10713 10712 10709 ] final  165.61 input   66.30 | X-H torsion
[ 10763 10752 10751 10750 ] final  131.44 input  -60.55 | X-H torsion
[ 11005 11000 10999 10996 ] final   43.01 input  -57.11 | X-H torsion

> <Gold.Protein.ActiveResidues>
 VAL166  LYS551  ARG553  GLY616  TRP617  ASP618  TYR619  PRO620  LYS621  CYS622 
 ASP623  PHE694  ASN695  SER759  ASP760  ASP761  ALA762  ILE779  LEU786  VAL792 
 PHE793  MET794  SER795  GLU796  ALA797  LYS798  CYS799  TRP800  GLU811  SER814 

> <Gold.Protein.RotatedAtoms>
  150.7308  134.0212  159.3701 H   0  0  0  0  0  0  0  0  0  0  0  0  # atno 6907 bound_to 6896
  151.8177  135.0659  160.0430 H   0  0  0  0  0  0  0  0  0  0  0  0  # atno 6908 bound_to 6896
  152.3027  133.5635  159.5665 H   0  0  0  0  0  0  0  0  0  0  0  0  # atno 6909 bound_to 6896
  146.0186  139.4625  142.9911 H   0  0  0  0  0  0  0  0  0  0  0  0  # atno 7974 bound_to 7965
  155.8774  140.3446  155.5864 H   0  0  0  0  0  0  0  0  0  0  0  0  # atno 8008 bound_to 7997
  155.7758  140.0851  157.2103 H   0  0  0  0  0  0  0  0  0  0  0  0  # atno 8009 bound_to 7997
  154.4022  140.1510  156.2982 H   0  0  0  0  0  0  0  0  0  0  0  0  # atno 8010 bound_to 7997
  139.4851  144.4517  151.8821 H   0  0  0  0  0  0  0  0  0  0  0  0  # atno 10167 bound_to 10162
  157.0777  131.0383  151.2587 H   0  0  0  0  0  0  0  0  0  0  0  0  # atno 10718 bound_to 10713
  153.7744  135.3177  155.3357 H   0  0  0  0  0  0  0  0  0  0  0  0  # atno 10763 bound_to 10752
  154.8184  135.4620  154.0712 H   0  0  0  0  0  0  0  0  0  0  0  0  # atno 10764 bound_to 10752
  153.1982  135.6918  153.8350 H   0  0  0  0  0  0  0  0  0  0  0  0  # atno 10765 bound_to 10752
  140.1685  134.4251  155.8272 H   0  0  0  0  0  0  0  0  0  0  0  0  # atno 11005 bound_to 11000
  145.7229  141.0069  143.1393 LP  0  0  0  0  0  0  0  0  0  0  0  0  # atno 17320 bound_to 7965
  144.6981  139.8892  143.7452 LP  0  0  0  0  0  0  0  0  0  0  0  0  # atno 17321 bound_to 7965
  140.3974  144.2537  150.5895 LP  0  0  0  0  0  0  0  0  0  0  0  0  # atno 17342 bound_to 10162
  140.5089  143.2296  151.8566 LP  0  0  0  0  0  0  0  0  0  0  0  0  # atno 17343 bound_to 10162
  157.4826  130.7774  149.7428 LP  0  0  0  0  0  0  0  0  0  0  0  0  # atno 17370 bound_to 10713
  155.9932  130.3926  150.2909 LP  0  0  0  0  0  0  0  0  0  0  0  0  # atno 17371 bound_to 10713
  141.2215  133.6945  156.7722 LP  0  0  0  0  0  0  0  0  0  0  0  0  # atno 17394 bound_to 11000
  140.2405  134.8617  157.3568 LP  0  0  0  0  0  0  0  0  0  0  0  0  # atno 17395 bound_to 11000

$$$$
