AV-unprocessed.smi:1696|AV-procd|sdf|6802|dock7
  -GOLD-   22720 7573D 1   1.00000     0.00000
 Structure written by MMmdl.
 38 39  0  0  0  0  0  0  0  0  3 V2000
  152.0492  138.8131  154.6819 C   0  0  0  0  0  0  0  0  0  0  0  0
  151.5321  137.3902  154.4171 C   0  0  0  0  0  0  0  0  0  0  0  0
  150.2242  137.0241  155.1700 C   0  0  1  0  0  0  0  0  0  0  0  0
  150.1921  137.5807  156.6170 C   0  0  0  0  0  0  0  0  0  0  0  0
  149.8084  136.5580  157.5861 N   0  0  0  0  0  0  0  0  0  0  0  0
  149.3370  136.7651  158.8238 C   0  0  0  0  0  0  0  0  0  0  0  0
  149.1664  137.9134  159.2388 O   0  0  0  0  0  0  0  0  0  0  0  0
  149.0956  135.6230  159.5050 N   0  5  0  0  0  0  0  0  0  0  0  0
  148.3697  135.6551  160.6344 C   0  0  0  0  0  0  0  0  0  0  0  0
  148.1161  136.7832  161.3076 N   0  0  0  0  0  0  0  0  0  0  0  0
  147.3478  136.5831  162.4559 C   0  0  0  0  0  0  0  0  0  0  0  0
  147.0162  135.2710  162.6668 C   0  0  0  0  0  0  0  0  0  0  0  0
  147.6628  134.2412  161.4214 S   0  0  0  0  0  0  0  0  0  0  0  0
  149.0231  137.4387  154.3869 N   0  3  0  0  0  0  0  0  0  0  0  0
  147.7151  137.0936  155.0008 C   0  0  0  0  0  0  0  0  0  0  0  0
  146.7553  138.2566  154.7131 C   0  0  0  0  0  0  0  0  0  0  0  0
  147.4831  139.1165  153.6867 C   0  0  0  0  0  0  0  0  0  0  0  0
  148.9505  138.8684  154.0146 C   0  0  0  0  0  0  0  0  0  0  0  0
  152.9554  139.0035  154.1068 H   0  0  0  0  0  0  0  0  0  0  0  0
  152.2952  138.9641  155.7323 H   0  0  0  0  0  0  0  0  0  0  0  0
  151.3153  139.5669  154.3966 H   0  0  0  0  0  0  0  0  0  0  0  0
  151.3947  137.2645  153.3435 H   0  0  0  0  0  0  0  0  0  0  0  0
  152.3178  136.6801  154.6761 H   0  0  0  0  0  0  0  0  0  0  0  0
  150.1901  135.9361  155.2492 H   0  0  0  0  0  0  0  0  0  0  0  0
  151.1493  138.0404  156.8667 H   0  0  0  0  0  0  0  0  0  0  0  0
  149.4472  138.3707  156.7090 H   0  0  0  0  0  0  0  0  0  0  0  0
  149.9223  135.5967  157.2990 H   0  0  0  0  0  0  0  0  0  0  0  0
  147.0845  137.4334  163.0676 H   0  0  0  0  0  0  0  0  0  0  0  0
  146.4364  134.8489  163.4736 H   0  0  0  0  0  0  0  0  0  0  0  0
  147.3514  136.1621  154.5660 H   0  0  0  0  0  0  0  0  0  0  0  0
  147.7988  136.9468  156.0787 H   0  0  0  0  0  0  0  0  0  0  0  0
  145.7806  137.9195  154.3586 H   0  0  0  0  0  0  0  0  0  0  0  0
  146.5941  138.8328  155.6254 H   0  0  0  0  0  0  0  0  0  0  0  0
  147.2626  138.7604  152.6794 H   0  0  0  0  0  0  0  0  0  0  0  0
  147.2074  140.1701  153.7409 H   0  0  0  0  0  0  0  0  0  0  0  0
  149.2466  139.4864  154.8640 H   0  0  0  0  0  0  0  0  0  0  0  0
  149.6022  139.1055  153.1729 H   0  0  0  0  0  0  0  0  0  0  0  0
  149.0609  136.9342  153.5125 H   0  0  0  0  0  0  0  0  0  0  0  0
  1  2  1  0  0  0  0
  1 19  1  0  0  0  0
  1 20  1  0  0  0  0
  1 21  1  0  0  0  0
  2  3  1  0  0  0  0
  2 22  1  0  0  0  0
  2 23  1  0  0  0  0
  3  4  1  0  0  0  0
  3 14  1  0  0  0  0
  3 24  1  0  0  0  0
  4  5  1  0  0  0  0
  4 25  1  0  0  0  0
  4 26  1  0  0  0  0
  5  6  1  0  0  0  0
  5 27  1  0  0  0  0
  6  7  2  0  0  0  0
  6  8  1  0  0  0  0
  8  9  1  0  0  0  0
  9 13  1  0  0  0  0
  9 10  2  0  0  0  0
 10 11  1  0  0  0  0
 11 12  2  0  0  0  0
 11 28  1  0  0  0  0
 12 13  1  0  0  0  0
 12 29  1  0  0  0  0
 14 18  1  0  0  0  0
 14 15  1  0  0  0  0
 14 38  1  0  0  0  0
 15 16  1  0  0  0  0
 15 30  1  0  0  0  0
 15 31  1  0  0  0  0
 16 17  1  0  0  0  0
 16 32  1  0  0  0  0
 16 33  1  0  0  0  0
 17 18  1  0  0  0  0
 17 34  1  0  0  0  0
 17 35  1  0  0  0  0
 18 36  1  0  0  0  0
 18 37  1  0  0  0  0
M  CHG  1   8  -1
M  CHG  1  14   1
M  END
> <s_m_source_file>
AV-unprocessed.smi

> <i_m_source_file_index>
1696

> <i_lp_mmshare_version>
43012

> <i_f3d_flags>
0

> <s_epik_input>
W0NIMl0xW0NIMl1bQ0gyXVtDSDJdTjFbQ0BIXShbQ0gyXVtDSDNdKVtDSDJdW05IXUMoPU8pW05IXWMybltjSF1bY0hdczI=

> <s_epik_cmdline>
J2VwaWtfcHl0aG9uJywgJy1waCcsICc3LjAnLCAnLXRuJywgJzgnLCAnLW1hJywgJzIwMCcsICctbWV0YWxfYmluZGluZycsICctaW1hZScsICc8aW5maWxlLm1hZT4nLCAnLW9tYWUnLCAnPG91dGZpbGUubWFlPic=

> <r_lp_tautomer_probability>
1

> <r_epik_Ionization_Penalty>
7.71903

> <r_epik_Ionization_Penalty_Charging>
6.3282

> <r_epik_Ionization_Penalty_Neutral>
1.39083

> <r_epik_State_Penalty>
6.32705

> <r_epik_Charging_Adjusted_Penalty>
12.6552

> <i_epik_Tot_Q>
0

> <i_epik_Tot_abs_Q>
2

> <r_epik_Metal_State_Penalty>
2.26116

> <b_epik_Metal_Only>
1

> <s_lp_Force_Field>
OPLS_2005

> <r_lp_Energy>
23.2163

> <b_lp_Chiralities_Consistent>
1

> <s_lp_Variant>
AV-unprocessed.smi:1696-4

> <Gold.Version>
5.8.1

> <Gold.Id.Protein>
6NUR|6NUR_protein|mol2

> <Gold.PLP.Fitness>
44.6479

> <Gold.PLP.PLP>
-31.0827

> <Gold.PLP.part.hbond>
-5.6850

> <Gold.PLP.part.metal>
0.0000

> <Gold.PLP.part.buried>
-2.4050

> <Gold.PLP.part.nonpolar>
-23.5975

> <Gold.PLP.part.repulsive>
0.0591

> <Gold.PLP.ligand.clash>
0.0000

> <Gold.PLP.ligand.torsion>
1.1744

> <Gold.PLP.Chemscore.Hbond>
5.1833

> <Gold.PLP.Chemscore.CHOScore>
0.0000

> <Gold.PLP.Chemscore.Metal>
0.0000

> <Gold.Chemscore.Hbonds>
donor molecule, donor type, donor heavy atom, donor atom, acceptor molecule, acceptor atom, score
      L1  H    14    38       P1  7948  2.00
      P1  H  6896  6909       L1     8  2.00
      P1  H  6931  6943       L1    10  0.85

> <Gold.PLP.Chemscore.Internal.Correction>
0.3642

> <Gold.Rescore>
     Score         DG    S(hbond)    S(metal)    S(lipo)     H(rot)  DE(clash)    DE(int)     intcor
     13.67     -16.74       2.46        0.00      63.88       1.73       0.11       2.97       ----

> <Gold.Chemscore.Fitness>
13.6664

> <Gold.Chemscore.DG>
-16.7442

> <Gold.Chemscore.ZeroCoef>
-5.4800

> <Gold.Chemscore.Hbond>
2.4585

> <Gold.Chemscore.Metal>
0.0000

> <Gold.Chemscore.Lipo>
63.8795

> <Gold.Chemscore.Internal_Hbond>
0.0000

> <Gold.Chemscore.DEClash>
0.1081

> <Gold.Chemscore.DEInternal>
2.9697

> <Gold.Chemscore.Rot>
1.7270

> <Gold.Chemscore.Internal.Correction>
   9.000000E+99

> <Gold.Chemscore.Hbonds>
donor molecule, donor type, donor heavy atom, donor atom, acceptor molecule, acceptor atom, score
      L1  H    14    38       P1  7948  1.00
      P1  H  6896  6909       L1     8  0.70
      P1  H  6931  6943       L1    10  0.15

> <Gold.Chemscore.Hbond.Weighted>
-8.2115

> <Gold.Chemscore.Metal.Weighted>
-0.0000

> <Gold.Chemscore.Lipo.Weighted>
-7.4739

> <Gold.Chemscore.Internal_Hbond.Weighted>
0.0000

> <Gold.Chemscore.DEClash.Weighted>
0.1081

> <Gold.Chemscore.DEInternal.Weighted>
2.9697

> <Gold.Chemscore.Rot.Weighted>
4.4212

> <Gold.Chemscore.Internal.Correction.Weighted>
   9.000000E+99

> <Gold.Protein.RotatedTorsions>
[ 6907 6896 6895 6894 ] final   43.82 input  -60.11 | X-H torsion
[ 7974 7965 7964 7962 ] final -141.97 input  175.53 | X-H torsion
[ 8008 7997 7996 7995 ] final -142.26 input   59.86 | X-H torsion
[ 10167 10162 10161 10158 ] final  -10.72 input  -65.29 | X-H torsion
[ 10718 10713 10712 10709 ] final    0.94 input   66.30 | X-H torsion
[ 10763 10752 10751 10750 ] final  -90.35 input  -60.55 | X-H torsion
[ 11005 11000 10999 10996 ] final  177.85 input  -57.11 | X-H torsion

> <Gold.Protein.ActiveResidues>
 VAL166  LYS551  ARG553  GLY616  TRP617  ASP618  TYR619  PRO620  LYS621  CYS622 
 ASP623  PHE694  ASN695  SER759  ASP760  ASP761  ALA762  ILE779  LEU786  VAL792 
 PHE793  MET794  SER795  GLU796  ALA797  LYS798  CYS799  TRP800  GLU811  SER814 

> <Gold.Protein.RotatedAtoms>
  152.2249  134.8377  160.0480 H   0  0  0  0  0  0  0  0  0  0  0  0  # atno 6907 bound_to 6896
  151.9147  133.3565  159.3884 H   0  0  0  0  0  0  0  0  0  0  0  0  # atno 6908 bound_to 6896
  150.7010  134.4622  159.5430 H   0  0  0  0  0  0  0  0  0  0  0  0  # atno 6909 bound_to 6896
  144.8479  140.6015  143.5409 H   0  0  0  0  0  0  0  0  0  0  0  0  # atno 7974 bound_to 7965
  155.4912  140.0568  157.2953 H   0  0  0  0  0  0  0  0  0  0  0  0  # atno 8008 bound_to 7997
  154.4622  140.2002  156.0164 H   0  0  0  0  0  0  0  0  0  0  0  0  # atno 8009 bound_to 7997
  156.0911  140.3233  155.7821 H   0  0  0  0  0  0  0  0  0  0  0  0  # atno 8010 bound_to 7997
  140.7121  143.5718  150.9085 H   0  0  0  0  0  0  0  0  0  0  0  0  # atno 10167 bound_to 10162
  156.8408  130.5520  149.5678 H   0  0  0  0  0  0  0  0  0  0  0  0  # atno 10718 bound_to 10713
  154.6648  135.5308  153.8063 H   0  0  0  0  0  0  0  0  0  0  0  0  # atno 10763 bound_to 10752
  153.0464  135.6514  154.0816 H   0  0  0  0  0  0  0  0  0  0  0  0  # atno 10764 bound_to 10752
  154.0721  135.2953  155.3286 H   0  0  0  0  0  0  0  0  0  0  0  0  # atno 10765 bound_to 10752
  140.3886  134.6882  157.4494 H   0  0  0  0  0  0  0  0  0  0  0  0  # atno 11005 bound_to 11000
  145.4560  139.1518  143.3892 LP  0  0  0  0  0  0  0  0  0  0  0  0  # atno 17320 bound_to 7965
  146.2760  140.4688  142.8795 LP  0  0  0  0  0  0  0  0  0  0  0  0  # atno 17321 bound_to 7965
  139.9444  143.6345  152.3045 LP  0  0  0  0  0  0  0  0  0  0  0  0  # atno 17342 bound_to 10162
  139.6841  144.7653  151.1556 LP  0  0  0  0  0  0  0  0  0  0  0  0  # atno 17343 bound_to 10162
  156.0881  130.5874  150.9685 LP  0  0  0  0  0  0  0  0  0  0  0  0  # atno 17370 bound_to 10713
  157.6356  131.0916  150.8354 LP  0  0  0  0  0  0  0  0  0  0  0  0  # atno 17371 bound_to 10713
  140.0423  134.6249  155.8965 LP  0  0  0  0  0  0  0  0  0  0  0  0  # atno 17394 bound_to 11000
  141.1898  133.6566  156.5386 LP  0  0  0  0  0  0  0  0  0  0  0  0  # atno 17395 bound_to 11000

$$$$
