AV-unprocessed.smi:1228|AV-procd|sdf|5148|dock6
  -GOLD-   22720 4213D 1   1.00000     0.00000
 Structure written by MMmdl.
 44 46  0  0  0  0  0  0  0  0  2 V2000
  149.7432  142.2930  155.6168 C   0  0  0  0  0  0  0  0  0  0  0  0
  149.6517  140.9354  154.9853 C   0  0  0  0  0  0  0  0  0  0  0  0
  148.5194  140.3302  154.3665 C   0  0  0  0  0  0  0  0  0  0  0  0
  149.0050  139.1122  153.9760 C   0  0  0  0  0  0  0  0  0  0  0  0
  148.3648  138.1048  153.3250 N   0  0  0  0  0  0  0  0  0  0  0  0
  147.0458  137.9406  153.1227 C   0  0  0  0  0  0  0  0  0  0  0  0
  146.1612  138.6968  153.5245 O   0  0  0  0  0  0  0  0  0  0  0  0
  146.7979  136.8259  152.4190 N   0  0  0  0  0  0  0  0  0  0  0  0
  145.4713  136.3608  152.0245 C   0  0  2  0  0  0  0  0  0  0  0  0
  145.0925  135.0742  152.7816 C   0  0  0  0  0  0  0  0  0  0  0  0
  143.7379  134.5222  152.2986 C   0  0  0  0  0  0  0  0  0  0  0  0
  143.7139  134.3030  150.8295 N   0  3  2  0  0  0  0  0  0  0  0  0
  144.4779  133.1076  150.4019 C   0  0  0  0  0  0  0  0  0  0  0  0
  143.9327  132.4563  149.1525 C   0  0  0  0  0  0  0  0  0  0  0  0
  143.6952  131.8192  150.5032 C   0  0  0  0  0  0  0  0  0  0  0  0
  144.0720  135.5317  150.0745 C   0  0  0  0  0  0  0  0  0  0  0  0
  145.4347  136.1039  150.5090 C   0  0  0  0  0  0  0  0  0  0  0  0
  150.3294  139.0229  154.3426 N   0  0  0  0  0  0  0  0  0  0  0  0
  151.2677  137.9351  154.1465 C   0  0  0  0  0  0  0  0  0  0  0  0
  150.7247  140.1524  154.9687 N   0  0  0  0  0  0  0  0  0  0  0  0
  148.8352  142.8706  155.4420 H   0  0  0  0  0  0  0  0  0  0  0  0
  150.5803  142.8613  155.2103 H   0  0  0  0  0  0  0  0  0  0  0  0
  149.8841  142.2145  156.6948 H   0  0  0  0  0  0  0  0  0  0  0  0
  147.5286  140.7401  154.2405 H   0  0  0  0  0  0  0  0  0  0  0  0
  148.9668  137.3876  152.9486 H   0  0  0  0  0  0  0  0  0  0  0  0
  147.5842  136.2620  152.1305 H   0  0  0  0  0  0  0  0  0  0  0  0
  144.7381  137.1364  152.2545 H   0  0  0  0  0  0  0  0  0  0  0  0
  145.8690  134.3200  152.6471 H   0  0  0  0  0  0  0  0  0  0  0  0
  145.0423  135.2699  153.8534 H   0  0  0  0  0  0  0  0  0  0  0  0
  143.4984  133.5936  152.8179 H   0  0  0  0  0  0  0  0  0  0  0  0
  142.9465  135.2283  152.5531 H   0  0  0  0  0  0  0  0  0  0  0  0
  145.5487  133.1132  150.5950 H   0  0  0  0  0  0  0  0  0  0  0  0
  143.0796  132.9189  148.6592 H   0  0  0  0  0  0  0  0  0  0  0  0
  144.6436  131.9678  148.4890 H   0  0  0  0  0  0  0  0  0  0  0  0
  144.2505  130.9115  150.7306 H   0  0  0  0  0  0  0  0  0  0  0  0
  142.6843  131.8583  150.9051 H   0  0  0  0  0  0  0  0  0  0  0  0
  144.0702  135.3253  149.0036 H   0  0  0  0  0  0  0  0  0  0  0  0
  143.2943  136.2776  150.2441 H   0  0  0  0  0  0  0  0  0  0  0  0
  145.6287  137.0320  149.9700 H   0  0  0  0  0  0  0  0  0  0  0  0
  146.2321  135.4153  150.2260 H   0  0  0  0  0  0  0  0  0  0  0  0
  150.8992  137.0394  154.6471 H   0  0  0  0  0  0  0  0  0  0  0  0
  152.2456  138.1925  154.5558 H   0  0  0  0  0  0  0  0  0  0  0  0
  151.3740  137.7306  153.0807 H   0  0  0  0  0  0  0  0  0  0  0  0
  142.7529  134.1005  150.5931 H   0  0  0  0  0  0  0  0  0  0  0  0
  1  2  1  0  0  0  0
  1 21  1  0  0  0  0
  1 22  1  0  0  0  0
  1 23  1  0  0  0  0
  2 20  2  0  0  0  0
  2  3  1  0  0  0  0
  3  4  2  0  0  0  0
  3 24  1  0  0  0  0
  4  5  1  0  0  0  0
  4 18  1  0  0  0  0
  5  6  1  0  0  0  0
  5 25  1  0  0  0  0
  6  7  2  0  0  0  0
  6  8  1  0  0  0  0
  8  9  1  0  0  0  0
  8 26  1  0  0  0  0
  9 17  1  0  0  0  0
  9 10  1  0  0  0  0
  9 27  1  0  0  0  0
 10 11  1  0  0  0  0
 10 28  1  0  0  0  0
 10 29  1  0  0  0  0
 11 12  1  0  0  0  0
 11 30  1  0  0  0  0
 11 31  1  0  0  0  0
 12 13  1  0  0  0  0
 12 16  1  0  0  0  0
 12 44  1  0  0  0  0
 13 15  1  0  0  0  0
 13 14  1  0  0  0  0
 13 32  1  0  0  0  0
 14 15  1  0  0  0  0
 14 33  1  0  0  0  0
 14 34  1  0  0  0  0
 15 35  1  0  0  0  0
 15 36  1  0  0  0  0
 16 17  1  0  0  0  0
 16 37  1  0  0  0  0
 16 38  1  0  0  0  0
 17 39  1  0  0  0  0
 17 40  1  0  0  0  0
 18 19  1  0  0  0  0
 18 20  1  0  0  0  0
 19 41  1  0  0  0  0
 19 42  1  0  0  0  0
 19 43  1  0  0  0  0
M  CHG  1  12   1
M  END
> <s_m_source_file>
AV-unprocessed.smi

> <i_m_source_file_index>
1228

> <i_lp_mmshare_version>
43012

> <i_f3d_flags>
0

> <s_epik_input>
W0NIM11jMVtjSF1jKG4objEpW0NIM10pW05IXUMoPU8pW05IXVtDSF0yW0NIMl1bQ0gyXU4oW0NIMl1bQ0gyXTIpW0NIXTNbQ0gyXVtDSDJdMw==

> <s_epik_cmdline>
J2VwaWtfcHl0aG9uJywgJy1waCcsICc3LjAnLCAnLXRuJywgJzgnLCAnLW1hJywgJzIwMCcsICctbWV0YWxfYmluZGluZycsICctaW1hZScsICc8aW5maWxlLm1hZT4nLCAnLW9tYWUnLCAnPG91dGZpbGUubWFlPic=

> <r_lp_tautomer_probability>
1

> <r_epik_Ionization_Penalty>
0.11882

> <r_epik_Ionization_Penalty_Charging>
0.11874

> <r_epik_Ionization_Penalty_Neutral>
8.03064e-05

> <r_epik_State_Penalty>
0.108313

> <r_epik_Charging_Adjusted_Penalty>
0.227053

> <i_epik_Tot_Q>
1

> <i_epik_Tot_abs_Q>
1

> <r_epik_Metal_State_Penalty>
0.108316

> <b_epik_Metal_Only>
0

> <s_lp_Force_Field>
OPLS_2005

> <r_lp_Energy>
29.8379

> <b_lp_Chiralities_Consistent>
1

> <s_lp_Variant>
AV-unprocessed.smi:1228-2

> <Gold.Version>
5.8.1

> <Gold.Id.Protein>
6NUR|6NUR_protein|mol2

> <Gold.PLP.Fitness>
43.6059

> <Gold.PLP.PLP>
-31.3684

> <Gold.PLP.part.hbond>
-3.5063

> <Gold.PLP.part.metal>
0.0000

> <Gold.PLP.part.buried>
5.8089

> <Gold.PLP.part.nonpolar>
-34.9617

> <Gold.PLP.part.repulsive>
0.3473

> <Gold.PLP.ligand.clash>
0.0000

> <Gold.PLP.ligand.torsion>
0.7356

> <Gold.PLP.Chemscore.Hbond>
4.1478

> <Gold.PLP.Chemscore.CHOScore>
0.0000

> <Gold.PLP.Chemscore.Metal>
0.0000

> <Gold.Chemscore.Hbonds>
donor molecule, donor type, donor heavy atom, donor atom, acceptor molecule, acceptor atom, score
      L1  H     5    25       P1  7948  0.83
      L1  H     8    26       P1  7948  0.58
      L1  H    12    44       P1 10186  1.89
      P1  H  7989  7998       L1    20  0.80

> <Gold.PLP.Chemscore.Internal.Correction>
1.2653

> <Gold.Rescore>
     Score         DG    S(hbond)    S(metal)    S(lipo)     H(rot)  DE(clash)    DE(int)     intcor
     17.17     -21.60       2.53        0.00      91.97       1.21       2.73       1.71       ----

> <Gold.Chemscore.Fitness>
17.1684

> <Gold.Chemscore.DG>
-21.6042

> <Gold.Chemscore.ZeroCoef>
-5.4800

> <Gold.Chemscore.Hbond>
2.5332

> <Gold.Chemscore.Metal>
0.0000

> <Gold.Chemscore.Lipo>
91.9688

> <Gold.Chemscore.Internal_Hbond>
0.0000

> <Gold.Chemscore.DEClash>
2.7258

> <Gold.Chemscore.DEInternal>
1.7101

> <Gold.Chemscore.Rot>
1.2097

> <Gold.Chemscore.Internal.Correction>
   9.000000E+99

> <Gold.Chemscore.Hbonds>
donor molecule, donor type, donor heavy atom, donor atom, acceptor molecule, acceptor atom, score
      L1  H     5    25       P1  7948  0.79
      L1  H     8    26       P1  7948  0.57
      L1  H    12    44       P1 10186  0.68
      P1  H  7989  7998       L1    20  0.03

> <Gold.Chemscore.Hbond.Weighted>
-8.4608

> <Gold.Chemscore.Metal.Weighted>
-0.0000

> <Gold.Chemscore.Lipo.Weighted>
-10.7604

> <Gold.Chemscore.Internal_Hbond.Weighted>
0.0000

> <Gold.Chemscore.DEClash.Weighted>
2.7258

> <Gold.Chemscore.DEInternal.Weighted>
1.7101

> <Gold.Chemscore.Rot.Weighted>
3.0969

> <Gold.Chemscore.Internal.Correction.Weighted>
   9.000000E+99

> <Gold.Protein.RotatedTorsions>
[ 6907 6896 6895 6894 ] final  -32.92 input  -60.11 | X-H torsion
[ 7974 7965 7964 7962 ] final   12.41 input  175.53 | X-H torsion
[ 8008 7997 7996 7995 ] final   56.32 input   59.86 | X-H torsion
[ 10167 10162 10161 10158 ] final -121.70 input  -65.29 | X-H torsion
[ 10718 10713 10712 10709 ] final  -85.97 input   66.30 | X-H torsion
[ 10763 10752 10751 10750 ] final   53.45 input  -60.55 | X-H torsion
[ 11005 11000 10999 10996 ] final   22.22 input  -57.11 | X-H torsion

> <Gold.Protein.ActiveResidues>
 VAL166  LYS551  ARG553  GLY616  TRP617  ASP618  TYR619  PRO620  LYS621  CYS622 
 ASP623  PHE694  ASN695  SER759  ASP760  ASP761  ALA762  ILE779  LEU786  VAL792 
 PHE793  MET794  SER795  GLU796  ALA797  LYS798  CYS799  TRP800  GLU811  SER814 

> <Gold.Protein.RotatedAtoms>
  151.0724  134.9807  159.8315 H   0  0  0  0  0  0  0  0  0  0  0  0  # atno 6907 bound_to 6896
  152.5410  134.2282  159.8824 H   0  0  0  0  0  0  0  0  0  0  0  0  # atno 6908 bound_to 6896
  151.2308  133.4408  159.2637 H   0  0  0  0  0  0  0  0  0  0  0  0  # atno 6909 bound_to 6896
  146.2352  139.9340  142.8492 H   0  0  0  0  0  0  0  0  0  0  0  0  # atno 7974 bound_to 7965
  155.5155  140.3478  155.4396 H   0  0  0  0  0  0  0  0  0  0  0  0  # atno 8008 bound_to 7997
  156.0820  140.1389  156.9727 H   0  0  0  0  0  0  0  0  0  0  0  0  # atno 8009 bound_to 7997
  154.4585  140.0944  156.6803 H   0  0  0  0  0  0  0  0  0  0  0  0  # atno 8010 bound_to 7997
  140.0222  143.5333  152.2215 H   0  0  0  0  0  0  0  0  0  0  0  0  # atno 10167 bound_to 10162
  155.9993  130.4749  150.4643 H   0  0  0  0  0  0  0  0  0  0  0  0  # atno 10718 bound_to 10713
  152.9795  135.5778  154.4743 H   0  0  0  0  0  0  0  0  0  0  0  0  # atno 10763 bound_to 10752
  154.4301  135.2773  155.1920 H   0  0  0  0  0  0  0  0  0  0  0  0  # atno 10764 bound_to 10752
  154.3632  135.6184  153.5755 H   0  0  0  0  0  0  0  0  0  0  0  0  # atno 10765 bound_to 10752
  140.3830  134.1901  155.7663 H   0  0  0  0  0  0  0  0  0  0  0  0  # atno 11005 bound_to 11000
  145.2017  140.9857  143.4152 LP  0  0  0  0  0  0  0  0  0  0  0  0  # atno 17320 bound_to 7965
  144.9768  139.3824  143.6282 LP  0  0  0  0  0  0  0  0  0  0  0  0  # atno 17321 bound_to 7965
  139.6132  144.7613  151.2904 LP  0  0  0  0  0  0  0  0  0  0  0  0  # atno 17342 bound_to 10162
  140.7338  143.6785  150.8021 LP  0  0  0  0  0  0  0  0  0  0  0  0  # atno 17343 bound_to 10162
  157.2665  131.0578  151.2287 LP  0  0  0  0  0  0  0  0  0  0  0  0  # atno 17370 bound_to 10713
  157.3383  130.7020  149.6366 LP  0  0  0  0  0  0  0  0  0  0  0  0  # atno 17371 bound_to 10713
  141.1917  133.8189  157.0868 LP  0  0  0  0  0  0  0  0  0  0  0  0  # atno 17394 bound_to 11000
  140.0464  134.9828  157.1057 LP  0  0  0  0  0  0  0  0  0  0  0  0  # atno 17395 bound_to 11000

$$$$
