AV-unprocessed.smi:54|AV-procd|sdf|542|dock2
  -GOLD-   2262016433D 1   1.00000     0.00000
 Structure written by MMmdl.
 44 46  0  0  0  0  0  0  0  0  1 V2000
  146.7242  134.9194  162.7387 C   0  0  0  0  0  0  0  0  0  0  0  0
  146.8641  136.2675  162.0137 C   0  0  0  0  0  0  0  0  0  0  0  0
  145.5066  136.7631  161.4896 C   0  0  0  0  0  0  0  0  0  0  0  0
  147.8810  136.1595  160.8716 C   0  0  0  0  0  0  0  0  0  0  0  0
  148.8783  136.8803  160.8148 O   0  0  0  0  0  0  0  0  0  0  0  0
  147.5788  135.1606  159.8615 N   0  0  0  0  0  0  0  0  0  0  0  0
  148.2940  134.8775  158.7482 C   0  0  0  0  0  0  0  0  0  0  0  0
  148.6347  135.7952  157.8546 N   0  0  0  0  0  0  0  0  0  0  0  0
  149.3497  135.3171  156.7922 C   0  0  0  0  0  0  0  0  0  0  0  0
  149.7440  134.0121  156.5866 C   0  0  0  0  0  0  0  0  0  0  0  0
  150.4586  133.9107  155.3986 N   0  0  0  0  0  0  0  0  0  0  0  0
  150.4752  135.1289  154.9330 C   0  0  0  0  0  0  0  0  0  0  0  0
  149.8080  136.0442  155.7148 N   0  0  0  0  0  0  0  0  0  0  0  0
  149.6281  137.5194  155.5221 C   0  0  1  0  0  0  0  0  0  0  0  0
  149.9699  138.1599  156.7146 O   0  0  0  0  0  0  0  0  0  0  0  0
  151.3260  138.5877  156.6488 C   0  0  2  0  0  0  0  0  0  0  0  0
  151.6359  139.6340  157.7332 C   0  0  0  0  0  0  0  0  0  0  0  0
  153.0253  139.8786  157.7811 O   0  0  0  0  0  0  0  0  0  0  0  0
  151.4264  139.0786  155.1997 C   0  0  2  0  0  0  0  0  0  0  0  0
  150.8911  140.3871  155.0803 O   0  0  0  0  0  0  0  0  0  0  0  0
  150.6038  138.0339  154.4449 C   0  0  2  0  0  0  0  0  0  0  0  0
  149.9546  138.5639  153.3042 O   0  0  0  0  0  0  0  0  0  0  0  0
  149.3966  133.0091  157.5519 C   0  0  0  0  0  0  0  0  0  0  0  0
  149.6642  131.8097  157.5349 O   0  0  0  0  0  0  0  0  0  0  0  0
  148.6582  133.5369  158.6197 N   0  0  0  0  0  0  0  0  0  0  0  0
  148.5703  137.6450  155.2869 H   0  0  0  0  0  0  0  0  0  0  0  0
  151.9839  137.7237  156.7647 H   0  0  0  0  0  0  0  0  0  0  0  0
  152.4597  139.1022  154.8520 H   0  0  0  0  0  0  0  0  0  0  0  0
  151.2603  137.2213  154.1289 H   0  0  0  0  0  0  0  0  0  0  0  0
  147.6873  134.5672  163.1105 H   0  0  0  0  0  0  0  0  0  0  0  0
  146.3193  134.1491  162.0808 H   0  0  0  0  0  0  0  0  0  0  0  0
  146.0558  135.0060  163.5957 H   0  0  0  0  0  0  0  0  0  0  0  0
  147.2349  137.0005  162.7318 H   0  0  0  0  0  0  0  0  0  0  0  0
  145.6062  137.7142  160.9651 H   0  0  0  0  0  0  0  0  0  0  0  0
  144.8053  136.9151  162.3103 H   0  0  0  0  0  0  0  0  0  0  0  0
  145.0562  136.0476  160.8002 H   0  0  0  0  0  0  0  0  0  0  0  0
  146.7206  134.6461  159.9922 H   0  0  0  0  0  0  0  0  0  0  0  0
  150.9733  135.3843  154.0089 H   0  0  0  0  0  0  0  0  0  0  0  0
  151.1456  140.5781  157.4944 H   0  0  0  0  0  0  0  0  0  0  0  0
  151.2748  139.3167  158.7119 H   0  0  0  0  0  0  0  0  0  0  0  0
  153.4000  139.3369  158.4588 H   0  0  0  0  0  0  0  0  0  0  0  0
  149.9755  140.3550  155.3136 H   0  0  0  0  0  0  0  0  0  0  0  0
  149.7672  137.8529  152.7092 H   0  0  0  0  0  0  0  0  0  0  0  0
  148.3736  132.8851  159.3359 H   0  0  0  0  0  0  0  0  0  0  0  0
  1  2  1  0  0  0  0
  1 30  1  0  0  0  0
  1 31  1  0  0  0  0
  1 32  1  0  0  0  0
  2  3  1  0  0  0  0
  2  4  1  0  0  0  0
  2 33  1  0  0  0  0
  3 34  1  0  0  0  0
  3 35  1  0  0  0  0
  3 36  1  0  0  0  0
  4  5  2  0  0  0  0
  4  6  1  0  0  0  0
  6 37  1  0  0  0  0
  6  7  1  0  0  0  0
  7 25  1  0  0  0  0
  7  8  2  0  0  0  0
  8  9  1  0  0  0  0
  9 13  1  0  0  0  0
  9 10  2  0  0  0  0
 10 11  1  0  0  0  0
 10 23  1  0  0  0  0
 11 12  2  0  0  0  0
 12 13  1  0  0  0  0
 12 38  1  0  0  0  0
 13 14  1  0  0  0  0
 14 26  1  0  0  0  0
 14 21  1  0  0  0  0
 14 15  1  0  0  0  0
 15 16  1  0  0  0  0
 16 27  1  0  0  0  0
 16 17  1  0  0  0  0
 16 19  1  0  0  0  0
 17 18  1  0  0  0  0
 17 39  1  0  0  0  0
 17 40  1  0  0  0  0
 18 41  1  0  0  0  0
 19 28  1  0  0  0  0
 19 20  1  0  0  0  0
 19 21  1  0  0  0  0
 20 42  1  0  0  0  0
 21 29  1  0  0  0  0
 21 22  1  0  0  0  0
 22 43  1  0  0  0  0
 23 24  2  0  0  0  0
 23 25  1  0  0  0  0
 25 44  1  0  0  0  0
M  END
> <s_m_source_file>
AV-unprocessed.smi

> <i_m_source_file_index>
54

> <i_lp_mmshare_version>
43012

> <i_f3d_flags>
0

> <s_epik_input>
W0NIM11bQ0hdKFtDSDNdKUMoPU8pW05IXWMobjEpW25IXWMoPU8pYyhjMTIpbltjSF1uMltDQEBIXTNPW0NASF0oW0NIMl1bT0hdKVtDQEBIXShbT0hdKVtDQEhdM1tPSF0=

> <s_epik_cmdline>
J2VwaWtfcHl0aG9uJywgJy1waCcsICc3LjAnLCAnLXRuJywgJzgnLCAnLW1hJywgJzIwMCcsICctbWV0YWxfYmluZGluZycsICctaW1hZScsICc8aW5maWxlLm1hZT4nLCAnLW9tYWUnLCAnPG91dGZpbGUubWFlPic=

> <r_lp_tautomer_probability>
0.85571

> <r_epik_Ionization_Penalty>
0.0316551

> <r_epik_Ionization_Penalty_Charging>
0.0316043

> <r_epik_Ionization_Penalty_Neutral>
5.07097e-05

> <r_epik_State_Penalty>
3.15494e-07

> <r_epik_Charging_Adjusted_Penalty>
0.0316047

> <i_epik_Tot_Q>
0

> <i_epik_Tot_abs_Q>
0

> <r_epik_Metal_State_Penalty>
0.421206

> <b_epik_Metal_Only>
0

> <s_epik_Chemistry_Notes>
This compound contains an acetal/aminal-like group ( X-CH(R)-Y where X, Y are N, S, or O) that may be acid/base labile, releasing an aldehyde.

> <s_lp_Force_Field>
OPLS_2005

> <r_lp_Energy>
43.5631

> <b_lp_Chiralities_Consistent>
1

> <s_lp_Variant>
AV-unprocessed.smi:54-14

> <Gold.Version>
5.8.1

> <Gold.Id.Protein>
6NUR|6NUR_protein|mol2

> <Gold.PLP.Fitness>
43.7059

> <Gold.PLP.PLP>
-32.0604

> <Gold.PLP.part.hbond>
-5.0000

> <Gold.PLP.part.metal>
0.0000

> <Gold.PLP.part.buried>
-5.1487

> <Gold.PLP.part.nonpolar>
-22.3051

> <Gold.PLP.part.repulsive>
0.2065

> <Gold.PLP.ligand.clash>
0.0000

> <Gold.PLP.ligand.torsion>
0.9144

> <Gold.PLP.Chemscore.Hbond>
3.8800

> <Gold.PLP.Chemscore.CHOScore>
0.5834

> <Gold.PLP.Chemscore.Metal>
0.0000

> <Gold.Chemscore.Hbonds>
donor molecule, donor type, donor heavy atom, donor atom, acceptor molecule, acceptor atom, score
      L1  H    22    43       P1  7948  1.00
      P1  H  6931  6943       L1     5  0.90
      P1  H  7989  7998       L1    20  1.00
      P1  H  7997  8010       L1    18  0.96
      L1  C    12    38       P1  7949  0.70

> <Gold.PLP.Chemscore.Internal.Correction>
0.0841

> <Gold.Rescore>
     Score         DG    S(hbond)    S(metal)    S(lipo)     H(rot)  DE(clash)    DE(int)     intcor
     12.28     -13.33       3.71        0.00      49.84       4.05       0.17       0.87       ----

> <Gold.Chemscore.Fitness>
12.2846

> <Gold.Chemscore.DG>
-13.3276

> <Gold.Chemscore.ZeroCoef>
-5.4800

> <Gold.Chemscore.Hbond>
3.7075

> <Gold.Chemscore.Metal>
0.0000

> <Gold.Chemscore.Lipo>
49.8369

> <Gold.Chemscore.Internal_Hbond>
0.0000

> <Gold.Chemscore.DEClash>
0.1736

> <Gold.Chemscore.DEInternal>
0.8693

> <Gold.Chemscore.Rot>
4.0493

> <Gold.Chemscore.Internal.Correction>
   9.000000E+99

> <Gold.Chemscore.Hbonds>
donor molecule, donor type, donor heavy atom, donor atom, acceptor molecule, acceptor atom, score
      L1  H    22    43       P1  7948  0.39
      P1  H  6931  6943       L1     5  0.87
      P1  H  7989  7998       L1    20  0.25
      P1  H  7997  8010       L1    18  0.37

> <Gold.Chemscore.Hbond.Weighted>
-12.3829

> <Gold.Chemscore.Metal.Weighted>
-0.0000

> <Gold.Chemscore.Lipo.Weighted>
-5.8309

> <Gold.Chemscore.Internal_Hbond.Weighted>
0.0000

> <Gold.Chemscore.DEClash.Weighted>
0.1736

> <Gold.Chemscore.DEInternal.Weighted>
0.8693

> <Gold.Chemscore.Rot.Weighted>
10.3662

> <Gold.Chemscore.Internal.Correction.Weighted>
   9.000000E+99

> <Gold.Protein.RotatedTorsions>
[ 6907 6896 6895 6894 ] final  114.24 input  -60.11 | X-H torsion
[ 7974 7965 7964 7962 ] final -145.58 input  175.53 | X-H torsion
[ 8008 7997 7996 7995 ] final   61.06 input   59.86 | X-H torsion
[ 10167 10162 10161 10158 ] final -136.46 input  -65.29 | X-H torsion
[ 10718 10713 10712 10709 ] final  -86.79 input   66.30 | X-H torsion
[ 10763 10752 10751 10750 ] final  -45.46 input  -60.55 | X-H torsion
[ 11005 11000 10999 10996 ] final  132.44 input  -57.11 | X-H torsion

> <Gold.Protein.ActiveResidues>
 VAL166  LYS551  ARG553  GLY616  TRP617  ASP618  TYR619  PRO620  LYS621  CYS622 
 ASP623  PHE694  ASN695  SER759  ASP760  ASP761  ALA762  ILE779  LEU786  VAL792 
 PHE793  MET794  SER795  GLU796  ALA797  LYS798  CYS799  TRP800  GLU811  SER814 

> <Gold.Protein.RotatedAtoms>
  152.4814  133.8264  159.7079 H   0  0  0  0  0  0  0  0  0  0  0  0  # atno 6907 bound_to 6896
  150.8867  133.7289  159.2923 H   0  0  0  0  0  0  0  0  0  0  0  0  # atno 6908 bound_to 6896
  151.4776  135.1053  159.9821 H   0  0  0  0  0  0  0  0  0  0  0  0  # atno 6909 bound_to 6896
  144.8218  140.5565  143.5573 H   0  0  0  0  0  0  0  0  0  0  0  0  # atno 7974 bound_to 7965
  155.5924  140.3493  155.4570 H   0  0  0  0  0  0  0  0  0  0  0  0  # atno 8008 bound_to 7997
  156.0291  140.1270  157.0301 H   0  0  0  0  0  0  0  0  0  0  0  0  # atno 8009 bound_to 7997
  154.4345  140.1047  156.6060 H   0  0  0  0  0  0  0  0  0  0  0  0  # atno 8010 bound_to 7997
  139.8676  143.6998  152.2643 H   0  0  0  0  0  0  0  0  0  0  0  0  # atno 10167 bound_to 10162
  155.9988  130.4777  150.4768 H   0  0  0  0  0  0  0  0  0  0  0  0  # atno 10718 bound_to 10713
  154.0289  135.6659  153.4779 H   0  0  0  0  0  0  0  0  0  0  0  0  # atno 10763 bound_to 10752
  153.0549  135.5062  154.7952 H   0  0  0  0  0  0  0  0  0  0  0  0  # atno 10764 bound_to 10752
  154.6891  135.3058  154.9470 H   0  0  0  0  0  0  0  0  0  0  0  0  # atno 10765 bound_to 10752
  139.9790  134.9554  156.9582 H   0  0  0  0  0  0  0  0  0  0  0  0  # atno 11005 bound_to 11000
  145.5089  139.1480  143.3616 LP  0  0  0  0  0  0  0  0  0  0  0  0  # atno 17320 bound_to 7965
  146.2523  140.5229  142.8888 LP  0  0  0  0  0  0  0  0  0  0  0  0  # atno 17321 bound_to 7965
  139.7314  144.7581  151.0796 LP  0  0  0  0  0  0  0  0  0  0  0  0  # atno 17342 bound_to 10162
  140.7766  143.5083  150.9684 LP  0  0  0  0  0  0  0  0  0  0  0  0  # atno 17343 bound_to 10162
  157.2778  131.0600  151.2218 LP  0  0  0  0  0  0  0  0  0  0  0  0  # atno 17370 bound_to 10713
  157.3275  130.6968  149.6305 LP  0  0  0  0  0  0  0  0  0  0  0  0  # atno 17371 bound_to 10713
  140.5135  134.0978  155.7275 LP  0  0  0  0  0  0  0  0  0  0  0  0  # atno 17394 bound_to 11000
  141.1464  133.9047  157.2204 LP  0  0  0  0  0  0  0  0  0  0  0  0  # atno 17395 bound_to 11000

$$$$
