AV-unprocessed.smi:2216|AV-procd|sdf|8965|dock3
  -GOLD-   2272012183D 1   1.00000     0.00000
 Structure written by MMmdl.
 41 42  0  0  0  0  0  0  0  0  1 V2000
  145.8773  131.1625  151.0056 C   0  0  0  0  0  0  0  0  0  0  0  0
  145.4338  132.6054  150.8413 C   0  0  0  0  0  0  0  0  0  0  0  0
  146.1468  133.6326  151.3591 C   0  0  0  0  0  0  0  0  0  0  0  0
  145.7261  135.0202  151.1920 C   0  0  0  0  0  0  0  0  0  0  0  0
  146.4023  136.1428  151.6904 N   0  0  0  0  0  0  0  0  0  0  0  0
  145.9053  137.2270  152.3133 C   0  0  0  0  0  0  0  0  0  0  0  0
  144.7159  137.4529  152.5326 O   0  0  0  0  0  0  0  0  0  0  0  0
  146.8890  138.0661  152.6688 N   0  0  0  0  0  0  0  0  0  0  0  0
  146.6989  139.3415  153.3506 C   0  0  0  0  0  0  0  0  0  0  0  0
  147.9689  140.2078  153.2910 C   0  0  0  0  0  0  0  0  0  0  0  0
  148.9455  139.9193  154.4421 C   0  0  1  0  0  0  0  0  0  0  0  0
  149.8262  138.6878  154.1534 C   0  0  0  0  0  0  0  0  0  0  0  0
  150.8377  138.4711  155.2845 C   0  0  0  0  0  0  0  0  0  0  0  0
  151.6265  139.7623  155.5247 C   0  0  0  0  0  0  0  0  0  0  0  0
  150.6654  140.9427  155.7376 C   0  0  0  0  0  0  0  0  0  0  0  0
  149.7847  141.0587  154.6240 O   0  0  0  0  0  0  0  0  0  0  0  0
  144.6021  135.2292  150.4846 C   0  0  0  0  0  0  0  0  0  0  0  0
  143.8643  134.1703  149.9503 N   0  0  0  0  0  0  0  0  0  0  0  0
  144.1981  132.8669  150.0853 C   0  0  0  0  0  0  0  0  0  0  0  0
  143.4923  131.9885  149.5924 O   0  0  0  0  0  0  0  0  0  0  0  0
  143.0273  134.4067  149.4371 H   0  0  0  0  0  0  0  0  0  0  0  0
  146.7960  131.0908  151.5888 H   0  0  0  0  0  0  0  0  0  0  0  0
  146.0603  130.7073  150.0317 H   0  0  0  0  0  0  0  0  0  0  0  0
  145.1083  130.5828  151.5174 H   0  0  0  0  0  0  0  0  0  0  0  0
  147.0520  133.3892  151.8907 H   0  0  0  0  0  0  0  0  0  0  0  0
  147.4026  136.1262  151.5560 H   0  0  0  0  0  0  0  0  0  0  0  0
  147.8394  137.8055  152.4507 H   0  0  0  0  0  0  0  0  0  0  0  0
  145.8485  139.8733  152.9205 H   0  0  0  0  0  0  0  0  0  0  0  0
  146.4403  139.1333  154.3890 H   0  0  0  0  0  0  0  0  0  0  0  0
  148.4742  140.0279  152.3411 H   0  0  0  0  0  0  0  0  0  0  0  0
  147.6999  141.2650  153.2995 H   0  0  0  0  0  0  0  0  0  0  0  0
  148.3718  139.7464  155.3545 H   0  0  0  0  0  0  0  0  0  0  0  0
  149.2072  137.7981  154.0329 H   0  0  0  0  0  0  0  0  0  0  0  0
  150.3584  138.8286  153.2116 H   0  0  0  0  0  0  0  0  0  0  0  0
  150.3131  138.1853  156.1971 H   0  0  0  0  0  0  0  0  0  0  0  0
  151.5133  137.6510  155.0398 H   0  0  0  0  0  0  0  0  0  0  0  0
  152.2841  139.6485  156.3869 H   0  0  0  0  0  0  0  0  0  0  0  0
  152.2677  139.9656  154.6662 H   0  0  0  0  0  0  0  0  0  0  0  0
  150.0915  140.8166  156.6569 H   0  0  0  0  0  0  0  0  0  0  0  0
  151.2285  141.8706  155.8397 H   0  0  0  0  0  0  0  0  0  0  0  0
  144.1821  136.2033  150.2800 H   0  0  0  0  0  0  0  0  0  0  0  0
  1  2  1  0  0  0  0
  1 22  1  0  0  0  0
  1 23  1  0  0  0  0
  1 24  1  0  0  0  0
  2 19  1  0  0  0  0
  2  3  2  0  0  0  0
  3  4  1  0  0  0  0
  3 25  1  0  0  0  0
  4  5  1  0  0  0  0
  4 17  2  0  0  0  0
  5  6  1  0  0  0  0
  5 26  1  0  0  0  0
  6  7  2  0  0  0  0
  6  8  1  0  0  0  0
  8  9  1  0  0  0  0
  8 27  1  0  0  0  0
  9 10  1  0  0  0  0
  9 28  1  0  0  0  0
  9 29  1  0  0  0  0
 10 11  1  0  0  0  0
 10 30  1  0  0  0  0
 10 31  1  0  0  0  0
 11 16  1  0  0  0  0
 11 12  1  0  0  0  0
 11 32  1  0  0  0  0
 12 13  1  0  0  0  0
 12 33  1  0  0  0  0
 12 34  1  0  0  0  0
 13 14  1  0  0  0  0
 13 35  1  0  0  0  0
 13 36  1  0  0  0  0
 14 15  1  0  0  0  0
 14 37  1  0  0  0  0
 14 38  1  0  0  0  0
 15 16  1  0  0  0  0
 15 39  1  0  0  0  0
 15 40  1  0  0  0  0
 17 18  1  0  0  0  0
 17 41  1  0  0  0  0
 18 21  1  0  0  0  0
 18 19  1  0  0  0  0
 19 20  2  0  0  0  0
M  END
> <s_m_source_file>
AV-unprocessed.smi

> <i_m_source_file_index>
2216

> <i_lp_mmshare_version>
43012

> <i_f3d_flags>
0

> <s_epik_input>
Tz1jMVtuSF1bY0hdYyhbY0hdYzFbQ0gzXSlbTkhdQyg9TylbTkhdW0NIMl1bQ0gyXVtDQEBIXTJbQ0gyXVtDSDJdW0NIMl1bQ0gyXU8y

> <s_epik_cmdline>
J2VwaWtfcHl0aG9uJywgJy1waCcsICc3LjAnLCAnLXRuJywgJzgnLCAnLW1hJywgJzIwMCcsICctbWV0YWxfYmluZGluZycsICctaW1hZScsICc8aW5maWxlLm1hZT4nLCAnLW9tYWUnLCAnPG91dGZpbGUubWFlPic=

> <r_lp_tautomer_probability>
1

> <r_epik_Ionization_Penalty>
4.73984e-05

> <r_epik_Ionization_Penalty_Charging>
2.74455e-05

> <r_epik_Ionization_Penalty_Neutral>
1.99529e-05

> <r_epik_State_Penalty>
-0

> <r_epik_Charging_Adjusted_Penalty>
2.74455e-05

> <i_epik_Tot_Q>
0

> <i_epik_Tot_abs_Q>
0

> <r_epik_Metal_State_Penalty>
0.0206128

> <b_epik_Metal_Only>
0

> <s_lp_Force_Field>
OPLS_2005

> <r_lp_Energy>
17.5226

> <b_lp_Chiralities_Consistent>
1

> <s_lp_Variant>
AV-unprocessed.smi:2216-2

> <Gold.Version>
5.8.1

> <Gold.Id.Protein>
6NUR|6NUR_protein|mol2

> <Gold.PLP.Fitness>
51.0609

> <Gold.PLP.PLP>
-38.3902

> <Gold.PLP.part.hbond>
-5.0146

> <Gold.PLP.part.metal>
0.0000

> <Gold.PLP.part.buried>
-1.7035

> <Gold.PLP.part.nonpolar>
-32.7855

> <Gold.PLP.part.repulsive>
0.9384

> <Gold.PLP.ligand.clash>
0.0000

> <Gold.PLP.ligand.torsion>
0.8491

> <Gold.PLP.Chemscore.Hbond>
3.7837

> <Gold.PLP.Chemscore.CHOScore>
1.0000

> <Gold.PLP.Chemscore.Metal>
0.0000

> <Gold.Chemscore.Hbonds>
donor molecule, donor type, donor heavy atom, donor atom, acceptor molecule, acceptor atom, score
      L1  H     5    26       P1  7948  1.00
      L1  H     8    27       P1  7948  0.85
      L1  H    18    21       P1 10186  0.88
      P1  H  7989  7998       L1    16  0.06
      P1  H 10785 10796       L1    20  0.94
      L1  C    17    41       P1 10171  1.00

> <Gold.PLP.Chemscore.Internal.Correction>
0.0179

> <Gold.Rescore>
     Score         DG    S(hbond)    S(metal)    S(lipo)     H(rot)  DE(clash)    DE(int)     intcor
     20.24     -24.17       3.75        0.00      85.52       1.50       2.06       1.87       ----

> <Gold.Chemscore.Fitness>
20.2354

> <Gold.Chemscore.DG>
-24.1667

> <Gold.Chemscore.ZeroCoef>
-5.4800

> <Gold.Chemscore.Hbond>
3.7461

> <Gold.Chemscore.Metal>
0.0000

> <Gold.Chemscore.Lipo>
85.5172

> <Gold.Chemscore.Internal_Hbond>
0.0000

> <Gold.Chemscore.DEClash>
2.0638

> <Gold.Chemscore.DEInternal>
1.8675

> <Gold.Chemscore.Rot>
1.4964

> <Gold.Chemscore.Internal.Correction>
   9.000000E+99

> <Gold.Chemscore.Hbonds>
donor molecule, donor type, donor heavy atom, donor atom, acceptor molecule, acceptor atom, score
      L1  H     5    26       P1  7948  0.94
      L1  H     8    27       P1  7948  0.80
      L1  H    18    21       P1 10186  0.81
      P1  H 10785 10796       L1    20  0.86

> <Gold.Chemscore.Hbond.Weighted>
-12.5120

> <Gold.Chemscore.Metal.Weighted>
-0.0000

> <Gold.Chemscore.Lipo.Weighted>
-10.0055

> <Gold.Chemscore.Internal_Hbond.Weighted>
0.0000

> <Gold.Chemscore.DEClash.Weighted>
2.0638

> <Gold.Chemscore.DEInternal.Weighted>
1.8675

> <Gold.Chemscore.Rot.Weighted>
3.8308

> <Gold.Chemscore.Internal.Correction.Weighted>
   9.000000E+99

> <Gold.Protein.RotatedTorsions>
[ 6907 6896 6895 6894 ] final -138.69 input  -60.11 | X-H torsion
[ 7974 7965 7964 7962 ] final   31.16 input  175.53 | X-H torsion
[ 8008 7997 7996 7995 ] final  122.47 input   59.86 | X-H torsion
[ 10167 10162 10161 10158 ] final  -92.37 input  -65.29 | X-H torsion
[ 10718 10713 10712 10709 ] final   95.34 input   66.30 | X-H torsion
[ 10763 10752 10751 10750 ] final -104.55 input  -60.55 | X-H torsion
[ 11005 11000 10999 10996 ] final   81.21 input  -57.11 | X-H torsion

> <Gold.Protein.ActiveResidues>
 VAL166  LYS551  ARG553  GLY616  TRP617  ASP618  TYR619  PRO620  LYS621  CYS622 
 ASP623  PHE694  ASN695  SER759  ASP760  ASP761  ALA762  ILE779  LEU786  VAL792 
 PHE793  MET794  SER795  GLU796  ALA797  LYS798  CYS799  TRP800  GLU811  SER814 

> <Gold.Protein.RotatedAtoms>
  151.0382  133.5730  159.2653 H   0  0  0  0  0  0  0  0  0  0  0  0  # atno 6907 bound_to 6896
  151.2786  135.0706  159.9171 H   0  0  0  0  0  0  0  0  0  0  0  0  # atno 6908 bound_to 6896
  152.5359  134.0100  159.7988 H   0  0  0  0  0  0  0  0  0  0  0  0  # atno 6909 bound_to 6896
  146.1567  139.6693  142.9061 H   0  0  0  0  0  0  0  0  0  0  0  0  # atno 7974 bound_to 7965
  156.2728  140.2785  156.1472 H   0  0  0  0  0  0  0  0  0  0  0  0  # atno 8008 bound_to 7997
  155.0891  140.0388  157.2681 H   0  0  0  0  0  0  0  0  0  0  0  0  # atno 8009 bound_to 7997
  154.6903  140.2627  155.6825 H   0  0  0  0  0  0  0  0  0  0  0  0  # atno 8010 bound_to 7997
  140.3355  143.2971  151.9894 H   0  0  0  0  0  0  0  0  0  0  0  0  # atno 10167 bound_to 10162
  157.6939  131.0542  150.4324 H   0  0  0  0  0  0  0  0  0  0  0  0  # atno 10718 bound_to 10713
  154.7886  135.4782  154.0001 H   0  0  0  0  0  0  0  0  0  0  0  0  # atno 10763 bound_to 10752
  153.1597  135.6806  153.8768 H   0  0  0  0  0  0  0  0  0  0  0  0  # atno 10764 bound_to 10752
  153.8386  135.3182  155.3402 H   0  0  0  0  0  0  0  0  0  0  0  0  # atno 10765 bound_to 10752
  139.9106  134.7979  156.2011 H   0  0  0  0  0  0  0  0  0  0  0  0  # atno 11005 bound_to 11000
  145.4690  141.0435  143.2709 LP  0  0  0  0  0  0  0  0  0  0  0  0  # atno 17320 bound_to 7965
  144.7973  139.6209  143.7087 LP  0  0  0  0  0  0  0  0  0  0  0  0  # atno 17321 bound_to 7965
  139.4849  144.6200  151.7273 LP  0  0  0  0  0  0  0  0  0  0  0  0  # atno 17342 bound_to 10162
  140.5358  144.0658  150.6070 LP  0  0  0  0  0  0  0  0  0  0  0  0  # atno 17343 bound_to 10162
  156.4689  130.4048  149.6530 LP  0  0  0  0  0  0  0  0  0  0  0  0  # atno 17370 bound_to 10713
  156.3617  130.7485  151.2458 LP  0  0  0  0  0  0  0  0  0  0  0  0  # atno 17371 bound_to 10713
  141.0524  133.6882  156.1796 LP  0  0  0  0  0  0  0  0  0  0  0  0  # atno 17394 bound_to 11000
  140.6790  134.4788  157.5588 LP  0  0  0  0  0  0  0  0  0  0  0  0  # atno 17395 bound_to 11000

$$$$
