AV-unprocessed.smi:110|AV-procd|sdf|1075|dock2
  -GOLD-   2262018163D 1   1.00000     0.00000
 Structure written by MMmdl.
 46 50  0  0  0  0  0  0  0  0  1 V2000
  144.5922  142.1481  154.6740 O   0  0  0  0  0  0  0  0  0  0  0  0
  145.9407  142.5649  154.6562 C   0  0  0  0  0  0  0  0  0  0  0  0
  146.7906  141.5951  153.8155 C   0  0  1  0  0  0  0  0  0  0  0  0
  148.1817  141.8744  153.9680 O   0  0  0  0  0  0  0  0  0  0  0  0
  148.9365  140.6993  153.9195 C   0  0  1  0  0  0  0  0  0  0  0  0
  149.5974  140.5325  155.2549 N   0  0  0  0  0  0  0  0  0  0  0  0
  149.1415  140.8908  156.5049 C   0  0  0  0  0  0  0  0  0  0  0  0
  149.9489  140.6162  157.4928 N   0  0  0  0  0  0  0  0  0  0  0  0
  151.0519  140.0297  156.8828 C   0  0  0  0  0  0  0  0  0  0  0  0
  152.2915  139.5060  157.3514 C   0  0  0  0  0  0  0  0  0  0  0  0
  152.6376  139.4566  158.6634 N   0  0  0  0  0  0  0  0  0  0  0  0
  153.2508  138.2324  159.2015 C   0  0  0  0  0  0  0  0  0  0  0  0
  154.0106  138.6079  160.4859 C   0  0  0  0  0  0  0  0  0  0  0  0
  153.6293  140.0441  160.6295 C   0  0  0  0  0  0  0  0  0  0  0  0
  153.9680  140.9101  161.6837 C   0  0  0  0  0  0  0  0  0  0  0  0
  153.4916  142.2371  161.6339 C   0  0  0  0  0  0  0  0  0  0  0  0
  152.6925  142.6680  160.5499 C   0  0  0  0  0  0  0  0  0  0  0  0
  152.3648  141.7800  159.5017 C   0  0  0  0  0  0  0  0  0  0  0  0
  152.8538  140.4565  159.5493 C   0  0  0  0  0  0  0  0  0  0  0  0
  153.1467  139.0087  156.4204 N   0  0  0  0  0  0  0  0  0  0  0  0
  152.8225  139.0253  155.1247 C   0  0  0  0  0  0  0  0  0  0  0  0
  151.7091  139.4822  154.5496 N   0  0  0  0  0  0  0  0  0  0  0  0
  150.8412  139.9817  155.4755 C   0  0  0  0  0  0  0  0  0  0  0  0
  147.9628  139.5468  153.6111 C   0  0  1  0  0  0  0  0  0  0  0  0
  148.2956  138.2934  154.1809 O   0  0  0  0  0  0  0  0  0  0  0  0
  146.6268  140.0927  154.0963 C   0  0  1  0  0  0  0  0  0  0  0  0
  146.3933  139.8327  155.4706 O   0  0  0  0  0  0  0  0  0  0  0  0
  146.5712  141.7633  152.7597 H   0  0  0  0  0  0  0  0  0  0  0  0
  149.7608  140.7832  153.2104 H   0  0  0  0  0  0  0  0  0  0  0  0
  147.9268  139.4384  152.5264 H   0  0  0  0  0  0  0  0  0  0  0  0
  145.7951  139.6697  153.5317 H   0  0  0  0  0  0  0  0  0  0  0  0
  144.4783  141.4721  154.0234 H   0  0  0  0  0  0  0  0  0  0  0  0
  145.9834  143.5645  154.2232 H   0  0  0  0  0  0  0  0  0  0  0  0
  146.3139  142.6478  155.6771 H   0  0  0  0  0  0  0  0  0  0  0  0
  148.1858  141.3656  156.6682 H   0  0  0  0  0  0  0  0  0  0  0  0
  152.4645  137.5136  159.4335 H   0  0  0  0  0  0  0  0  0  0  0  0
  153.9196  137.7725  158.4727 H   0  0  0  0  0  0  0  0  0  0  0  0
  153.6887  138.0207  161.3463 H   0  0  0  0  0  0  0  0  0  0  0  0
  155.0900  138.5134  160.3636 H   0  0  0  0  0  0  0  0  0  0  0  0
  154.5730  140.5684  162.5106 H   0  0  0  0  0  0  0  0  0  0  0  0
  153.7333  142.9251  162.4305 H   0  0  0  0  0  0  0  0  0  0  0  0
  152.3253  143.6833  160.5251 H   0  0  0  0  0  0  0  0  0  0  0  0
  151.7407  142.1186  158.6884 H   0  0  0  0  0  0  0  0  0  0  0  0
  153.5603  138.6110  154.4535 H   0  0  0  0  0  0  0  0  0  0  0  0
  148.5256  137.7036  153.4787 H   0  0  0  0  0  0  0  0  0  0  0  0
  146.7763  140.5340  155.9753 H   0  0  0  0  0  0  0  0  0  0  0  0
  1  2  1  0  0  0  0
  1 32  1  0  0  0  0
  2  3  1  0  0  0  0
  2 33  1  0  0  0  0
  2 34  1  0  0  0  0
  3 28  1  0  0  0  0
  3 26  1  0  0  0  0
  3  4  1  0  0  0  0
  4  5  1  0  0  0  0
  5 29  1  0  0  0  0
  5  6  1  0  0  0  0
  5 24  1  0  0  0  0
  6 23  1  0  0  0  0
  6  7  1  0  0  0  0
  7  8  2  0  0  0  0
  7 35  1  0  0  0  0
  8  9  1  0  0  0  0
  9 23  2  0  0  0  0
  9 10  1  0  0  0  0
 10 11  1  0  0  0  0
 10 20  2  0  0  0  0
 11 19  1  0  0  0  0
 11 12  1  0  0  0  0
 12 13  1  0  0  0  0
 12 36  1  0  0  0  0
 12 37  1  0  0  0  0
 13 14  1  0  0  0  0
 13 38  1  0  0  0  0
 13 39  1  0  0  0  0
 14 19  2  0  0  0  0
 14 15  1  0  0  0  0
 15 16  2  0  0  0  0
 15 40  1  0  0  0  0
 16 17  1  0  0  0  0
 16 41  1  0  0  0  0
 17 18  2  0  0  0  0
 17 42  1  0  0  0  0
 18 19  1  0  0  0  0
 18 43  1  0  0  0  0
 20 21  1  0  0  0  0
 21 22  2  0  0  0  0
 21 44  1  0  0  0  0
 22 23  1  0  0  0  0
 24 30  1  0  0  0  0
 24 25  1  0  0  0  0
 24 26  1  0  0  0  0
 25 45  1  0  0  0  0
 26 31  1  0  0  0  0
 26 27  1  0  0  0  0
 27 46  1  0  0  0  0
M  END
> <s_m_source_file>
AV-unprocessed.smi

> <i_m_source_file_index>
110

> <i_lp_mmshare_version>
43012

> <i_f3d_flags>
0

> <s_epik_input>
W09IXVtDSDJdW0NASF0xT1tDQEhdKFtDQEhdKFtPSF0pW0NAQEhdMVtPSF0pbihbY0hdbjIpYyhjMjMpbltjSF1uYzNOKFtDSDJdW0NIMl00KWMoYzQ1KVtjSF1bY0hdW2NIXVtjSF01

> <s_epik_cmdline>
J2VwaWtfcHl0aG9uJywgJy1waCcsICc3LjAnLCAnLXRuJywgJzgnLCAnLW1hJywgJzIwMCcsICctbWV0YWxfYmluZGluZycsICctaW1hZScsICc8aW5maWxlLm1hZT4nLCAnLW9tYWUnLCAnPG91dGZpbGUubWFlPic=

> <r_lp_tautomer_probability>
1

> <r_epik_Ionization_Penalty>
0.00068475

> <r_epik_Ionization_Penalty_Charging>
0

> <r_epik_Ionization_Penalty_Neutral>
0.00068475

> <r_epik_State_Penalty>
0.000417442

> <r_epik_Charging_Adjusted_Penalty>
0.000417442

> <i_epik_Tot_Q>
0

> <i_epik_Tot_abs_Q>
0

> <r_epik_Metal_State_Penalty>
-0

> <b_epik_Metal_Only>
0

> <s_epik_Chemistry_Notes>
This compound contains an acetal/aminal-like group ( X-CH(R)-Y where X, Y are N, S, or O) that may be acid/base labile, releasing an aldehyde.

> <s_lp_Force_Field>
OPLS_2005

> <r_lp_Energy>
64.6633

> <b_lp_Chiralities_Consistent>
1

> <s_lp_Variant>
AV-unprocessed.smi:110-13

> <Gold.Version>
5.8.1

> <Gold.Id.Protein>
6NUR|6NUR_protein|mol2

> <Gold.PLP.Fitness>
53.3524

> <Gold.PLP.PLP>
-46.1360

> <Gold.PLP.part.hbond>
-4.8789

> <Gold.PLP.part.metal>
0.0000

> <Gold.PLP.part.buried>
-0.6503

> <Gold.PLP.part.nonpolar>
-41.3267

> <Gold.PLP.part.repulsive>
0.2665

> <Gold.PLP.ligand.clash>
0.0000

> <Gold.PLP.ligand.torsion>
1.7180

> <Gold.PLP.Chemscore.Hbond>
3.2875

> <Gold.PLP.Chemscore.CHOScore>
0.0000

> <Gold.PLP.Chemscore.Metal>
0.0000

> <Gold.Chemscore.Hbonds>
donor molecule, donor type, donor heavy atom, donor atom, acceptor molecule, acceptor atom, score
      L1  H     1    32       P1 10175  1.00
      L1  H    25    45       P1  7948  0.54
      P1  H  7989  7998       L1    22  0.80
      P1  H  7997  8009       L1    20  1.00

> <Gold.PLP.Chemscore.Internal.Correction>
0.7899

> <Gold.Rescore>
     Score         DG    S(hbond)    S(metal)    S(lipo)     H(rot)  DE(clash)    DE(int)     intcor
     14.35     -16.64       2.62        0.00      94.47       3.38       0.60       1.69       ----

> <Gold.Chemscore.Fitness>
14.3460

> <Gold.Chemscore.DG>
-16.6357

> <Gold.Chemscore.ZeroCoef>
-5.4800

> <Gold.Chemscore.Hbond>
2.6242

> <Gold.Chemscore.Metal>
0.0000

> <Gold.Chemscore.Lipo>
94.4702

> <Gold.Chemscore.Internal_Hbond>
0.0000

> <Gold.Chemscore.DEClash>
0.5967

> <Gold.Chemscore.DEInternal>
1.6931

> <Gold.Chemscore.Rot>
3.3837

> <Gold.Chemscore.Internal.Correction>
   9.000000E+99

> <Gold.Chemscore.Hbonds>
donor molecule, donor type, donor heavy atom, donor atom, acceptor molecule, acceptor atom, score
      L1  H     1    32       P1 10175  0.25
      L1  H    25    45       P1  7948  0.54
      P1  H  7989  7998       L1    22  0.11
      P1  H  7997  8009       L1    20  0.12

> <Gold.Chemscore.Hbond.Weighted>
-8.7649

> <Gold.Chemscore.Metal.Weighted>
-0.0000

> <Gold.Chemscore.Lipo.Weighted>
-11.0530

> <Gold.Chemscore.Internal_Hbond.Weighted>
0.0000

> <Gold.Chemscore.DEClash.Weighted>
0.5967

> <Gold.Chemscore.DEInternal.Weighted>
1.6931

> <Gold.Chemscore.Rot.Weighted>
8.6622

> <Gold.Chemscore.Internal.Correction.Weighted>
   9.000000E+99

> <Gold.Protein.RotatedTorsions>
[ 6907 6896 6895 6894 ] final  126.31 input  -60.11 | X-H torsion
[ 7974 7965 7964 7962 ] final  110.73 input  175.53 | X-H torsion
[ 8008 7997 7996 7995 ] final -170.43 input   59.86 | X-H torsion
[ 10167 10162 10161 10158 ] final   24.92 input  -65.29 | X-H torsion
[ 10718 10713 10712 10709 ] final   30.92 input   66.30 | X-H torsion
[ 10763 10752 10751 10750 ] final  -69.50 input  -60.55 | X-H torsion
[ 11005 11000 10999 10996 ] final   19.62 input  -57.11 | X-H torsion

> <Gold.Protein.ActiveResidues>
 VAL166  LYS551  ARG553  GLY616  TRP617  ASP618  TYR619  PRO620  LYS621  CYS622 
 ASP623  PHE694  ASN695  SER759  ASP760  ASP761  ALA762  ILE779  LEU786  VAL792 
 PHE793  MET794  SER795  GLU796  ALA797  LYS798  CYS799  TRP800  GLU811  SER814 

> <Gold.Protein.RotatedAtoms>
  152.3915  133.6685  159.6241 H   0  0  0  0  0  0  0  0  0  0  0  0  # atno 6907 bound_to 6896
  150.7822  133.8946  159.3332 H   0  0  0  0  0  0  0  0  0  0  0  0  # atno 6908 bound_to 6896
  151.6732  135.0974  160.0253 H   0  0  0  0  0  0  0  0  0  0  0  0  # atno 6909 bound_to 6896
  145.2512  139.2739  143.4066 H   0  0  0  0  0  0  0  0  0  0  0  0  # atno 7974 bound_to 7965
  155.9182  140.1069  157.1227 H   0  0  0  0  0  0  0  0  0  0  0  0  # atno 8008 bound_to 7997
  154.4050  140.1261  156.4710 H   0  0  0  0  0  0  0  0  0  0  0  0  # atno 8009 bound_to 7997
  155.7228  140.3469  155.5026 H   0  0  0  0  0  0  0  0  0  0  0  0  # atno 8010 bound_to 7997
  140.5148  144.0100  150.6389 H   0  0  0  0  0  0  0  0  0  0  0  0  # atno 10167 bound_to 10162
  157.2657  130.7183  149.6477 H   0  0  0  0  0  0  0  0  0  0  0  0  # atno 10718 bound_to 10713
  154.4042  135.6024  153.5915 H   0  0  0  0  0  0  0  0  0  0  0  0  # atno 10763 bound_to 10752
  152.9789  135.5914  154.4147 H   0  0  0  0  0  0  0  0  0  0  0  0  # atno 10764 bound_to 10752
  154.3950  135.2842  155.2110 H   0  0  0  0  0  0  0  0  0  0  0  0  # atno 10765 bound_to 10752
  140.4117  134.1611  155.7667 H   0  0  0  0  0  0  0  0  0  0  0  0  # atno 11005 bound_to 11000
  146.3302  140.2903  142.8615 LP  0  0  0  0  0  0  0  0  0  0  0  0  # atno 17320 bound_to 7965
  144.9501  140.8170  143.5577 LP  0  0  0  0  0  0  0  0  0  0  0  0  # atno 17321 bound_to 7965
  140.3433  143.3006  152.0565 LP  0  0  0  0  0  0  0  0  0  0  0  0  # atno 17342 bound_to 10162
  139.4906  144.6427  151.6844 LP  0  0  0  0  0  0  0  0  0  0  0  0  # atno 17343 bound_to 10162
  155.9663  130.4383  150.5212 LP  0  0  0  0  0  0  0  0  0  0  0  0  # atno 17370 bound_to 10713
  157.3126  131.0666  151.1990 LP  0  0  0  0  0  0  0  0  0  0  0  0  # atno 17371 bound_to 10713
  141.1818  133.8397  157.1229 LP  0  0  0  0  0  0  0  0  0  0  0  0  # atno 17394 bound_to 11000
  140.0263  134.9922  157.0692 LP  0  0  0  0  0  0  0  0  0  0  0  0  # atno 17395 bound_to 11000

$$$$
