AV-unprocessed.smi:2886|AV-procd|sdf|11093|dock7
  -GOLD-   2272015563D 1   1.00000     0.00000
 Structure written by MMmdl.
 28 30  0  0  0  0  0  0  0  0  3 V2000
  153.3837  138.3505  156.3170 O   0  0  0  0  0  0  0  0  0  0  0  0
  152.4033  138.3797  155.5756 C   0  0  0  0  0  0  0  0  0  0  0  0
  152.2386  137.5304  154.5181 N   0  5  0  0  0  0  0  0  0  0  0  0
  151.1805  137.5857  153.7403 N   0  3  0  0  0  0  0  0  0  0  0  0
  150.1900  138.4567  153.9054 C   0  0  0  0  0  0  0  0  0  0  0  0
  150.2338  139.3938  154.9754 C   0  0  0  0  0  0  0  0  0  0  0  0
  149.2260  140.3255  155.1920 N   0  0  0  0  0  0  0  0  0  0  0  0
  147.9952  140.5459  154.4434 C   0  0  2  0  0  0  0  0  0  0  0  0
  147.7743  142.0080  154.0534 C   0  0  0  0  0  0  0  0  0  0  0  0
  146.3705  142.2701  154.6177 C   0  0  2  0  0  0  0  0  0  0  0  0
  146.3975  142.4204  156.1442 C   0  0  0  0  0  0  0  0  0  0  0  0
  146.6414  140.9808  156.5933 C   0  0  0  0  0  0  0  0  0  0  0  0
  146.7223  140.2358  155.2495 C   0  0  1  0  0  0  0  0  0  0  0  0
  145.7825  140.9846  154.4965 O   0  0  0  0  0  0  0  0  0  0  0  0
  151.3240  139.3601  155.7950 C   0  0  0  0  0  0  0  0  0  0  0  0
  151.4714  140.4665  157.1208 Cl  0  0  0  0  0  0  0  0  0  0  0  0
  151.0797  136.9358  152.9449 H   0  0  0  0  0  0  0  0  0  0  0  0
  149.3753  138.4115  153.1944 H   0  0  0  0  0  0  0  0  0  0  0  0
  149.2931  140.8616  156.0459 H   0  0  0  0  0  0  0  0  0  0  0  0
  147.9780  139.9305  153.5445 H   0  0  0  0  0  0  0  0  0  0  0  0
  148.5169  142.6899  154.4710 H   0  0  0  0  0  0  0  0  0  0  0  0
  147.7873  142.1155  152.9684 H   0  0  0  0  0  0  0  0  0  0  0  0
  145.8281  143.0650  154.1052 H   0  0  0  0  0  0  0  0  0  0  0  0
  147.1741  143.1077  156.4817 H   0  0  0  0  0  0  0  0  0  0  0  0
  145.4372  142.7794  156.5167 H   0  0  0  0  0  0  0  0  0  0  0  0
  147.5403  140.8706  157.2003 H   0  0  0  0  0  0  0  0  0  0  0  0
  145.7955  140.6204  157.1797 H   0  0  0  0  0  0  0  0  0  0  0  0
  146.4937  139.1720  155.3200 H   0  0  0  0  0  0  0  0  0  0  0  0
  1  2  2  0  0  0  0
  2  3  1  0  0  0  0
  2 15  1  0  0  0  0
  3  4  1  0  0  0  0
  4  5  2  0  0  0  0
  4 17  1  0  0  0  0
  5  6  1  0  0  0  0
  5 18  1  0  0  0  0
  6 15  2  0  0  0  0
  6  7  1  0  0  0  0
  7  8  1  0  0  0  0
  7 19  1  0  0  0  0
  8 13  1  0  0  0  0
  8  9  1  0  0  0  0
  8 20  1  0  0  0  0
  9 10  1  0  0  0  0
  9 21  1  0  0  0  0
  9 22  1  0  0  0  0
 10 14  1  0  0  0  0
 10 11  1  0  0  0  0
 10 23  1  0  0  0  0
 11 12  1  0  0  0  0
 11 24  1  0  0  0  0
 11 25  1  0  0  0  0
 12 13  1  0  0  0  0
 12 26  1  0  0  0  0
 12 27  1  0  0  0  0
 13 14  1  0  0  0  0
 13 28  1  0  0  0  0
 15 16  1  0  0  0  0
M  CHG  1   3  -1
M  CHG  1   4   1
M  END
> <s_m_source_file>
AV-unprocessed.smi

> <i_m_source_file_index>
2886

> <i_lp_mmshare_version>
43012

> <i_f3d_flags>
0

> <s_epik_input>
Tz1jMVtuSF1uW2NIXWMoYzFDbClbTkhdW0NASF0oW0NIMl1bQ0BASF0yMylbQ0BASF0oTzMpW0NIMl1bQ0gyXTI=

> <s_epik_cmdline>
J2VwaWtfcHl0aG9uJywgJy1waCcsICc3LjAnLCAnLXRuJywgJzgnLCAnLW1hJywgJzIwMCcsICctbWV0YWxfYmluZGluZycsICctaW1hZScsICc8aW5maWxlLm1hZT4nLCAnLW9tYWUnLCAnPG91dGZpbGUubWFlPic=

> <r_lp_tautomer_probability>
0.0138196

> <r_epik_Ionization_Penalty>
2.43027

> <r_epik_Ionization_Penalty_Charging>
2.43027

> <r_epik_Ionization_Penalty_Neutral>
1.33267e-06

> <r_epik_State_Penalty>
2.7044

> <r_epik_Charging_Adjusted_Penalty>
5.13467

> <i_epik_Tot_Q>
0

> <i_epik_Tot_abs_Q>
2

> <r_epik_Metal_State_Penalty>
2.98589

> <b_epik_Metal_Only>
0

> <s_lp_Force_Field>
OPLS_2005

> <r_lp_Energy>
57.8079

> <b_lp_Chiralities_Consistent>
1

> <s_lp_Variant>
AV-unprocessed.smi:2886-7

> <Gold.Version>
5.8.1

> <Gold.Id.Protein>
6NUR|6NUR_protein|mol2

> <Gold.PLP.Fitness>
38.5981

> <Gold.PLP.PLP>
-25.9396

> <Gold.PLP.part.hbond>
-3.5682

> <Gold.PLP.part.metal>
0.0000

> <Gold.PLP.part.buried>
-4.4322

> <Gold.PLP.part.nonpolar>
-19.2262

> <Gold.PLP.part.repulsive>
0.7465

> <Gold.PLP.ligand.clash>
0.0000

> <Gold.PLP.ligand.torsion>
0.0594

> <Gold.PLP.Chemscore.Hbond>
4.2560

> <Gold.PLP.Chemscore.CHOScore>
0.0000

> <Gold.PLP.Chemscore.Metal>
0.0000

> <Gold.Chemscore.Hbonds>
donor molecule, donor type, donor heavy atom, donor atom, acceptor molecule, acceptor atom, score
      L1  H     4    17       P1  7949  2.00
      P1  H  7997  8010       L1     1  0.83
      P1  H 10752 10763       L1     3  1.47

> <Gold.PLP.Chemscore.Internal.Correction>
0.0093

> <Gold.Rescore>
     Score         DG    S(hbond)    S(metal)    S(lipo)     H(rot)  DE(clash)    DE(int)     intcor
     14.13     -14.23       1.59        0.00      51.42       1.00       0.09       0.01       ----

> <Gold.Chemscore.Fitness>
14.1309

> <Gold.Chemscore.DG>
-14.2321

> <Gold.Chemscore.ZeroCoef>
-5.4800

> <Gold.Chemscore.Hbond>
1.5856

> <Gold.Chemscore.Metal>
0.0000

> <Gold.Chemscore.Lipo>
51.4206

> <Gold.Chemscore.Internal_Hbond>
0.0000

> <Gold.Chemscore.DEClash>
0.0922

> <Gold.Chemscore.DEInternal>
0.0090

> <Gold.Chemscore.Rot>
1.0000

> <Gold.Chemscore.Internal.Correction>
   9.000000E+99

> <Gold.Chemscore.Hbonds>
donor molecule, donor type, donor heavy atom, donor atom, acceptor molecule, acceptor atom, score
      L1  H     4    17       P1  7949  0.40
      P1  H  7997  8010       L1     1  0.69
      P1  H 10752 10763       L1     3  0.39

> <Gold.Chemscore.Hbond.Weighted>
-5.2959

> <Gold.Chemscore.Metal.Weighted>
-0.0000

> <Gold.Chemscore.Lipo.Weighted>
-6.0162

> <Gold.Chemscore.Internal_Hbond.Weighted>
0.0000

> <Gold.Chemscore.DEClash.Weighted>
0.0922

> <Gold.Chemscore.DEInternal.Weighted>
0.0090

> <Gold.Chemscore.Rot.Weighted>
2.5600

> <Gold.Chemscore.Internal.Correction.Weighted>
   9.000000E+99

> <Gold.Protein.RotatedTorsions>
[ 6907 6896 6895 6894 ] final  -55.19 input  -60.11 | X-H torsion
[ 7974 7965 7964 7962 ] final -138.15 input  175.53 | X-H torsion
[ 8008 7997 7996 7995 ] final   76.75 input   59.86 | X-H torsion
[ 10167 10162 10161 10158 ] final  -80.68 input  -65.29 | X-H torsion
[ 10718 10713 10712 10709 ] final  -75.25 input   66.30 | X-H torsion
[ 10763 10752 10751 10750 ] final   43.46 input  -60.55 | X-H torsion
[ 11005 11000 10999 10996 ] final   70.48 input  -57.11 | X-H torsion

> <Gold.Protein.ActiveResidues>
 VAL166  LYS551  ARG553  GLY616  TRP617  ASP618  TYR619  PRO620  LYS621  CYS622 
 ASP623  PHE694  ASN695  SER759  ASP760  ASP761  ALA762  ILE779  LEU786  VAL792 
 PHE793  MET794  SER795  GLU796  ALA797  LYS798  CYS799  TRP800  GLU811  SER814 

> <Gold.Protein.RotatedAtoms>
  150.8273  134.7510  159.6823 H   0  0  0  0  0  0  0  0  0  0  0  0  # atno 6907 bound_to 6896
  152.4382  134.5640  159.9912 H   0  0  0  0  0  0  0  0  0  0  0  0  # atno 6908 bound_to 6896
  151.5809  133.3340  159.3044 H   0  0  0  0  0  0  0  0  0  0  0  0  # atno 6909 bound_to 6896
  144.8782  140.6469  143.5223 H   0  0  0  0  0  0  0  0  0  0  0  0  # atno 7974 bound_to 7965
  155.8318  140.3466  155.5577 H   0  0  0  0  0  0  0  0  0  0  0  0  # atno 8008 bound_to 7997
  155.8234  140.0916  157.1855 H   0  0  0  0  0  0  0  0  0  0  0  0  # atno 8009 bound_to 7997
  154.4004  140.1426  156.3515 H   0  0  0  0  0  0  0  0  0  0  0  0  # atno 8010 bound_to 7997
  140.4481  143.2492  151.8529 H   0  0  0  0  0  0  0  0  0  0  0  0  # atno 10167 bound_to 10162
  156.0214  130.4436  150.3014 H   0  0  0  0  0  0  0  0  0  0  0  0  # atno 10718 bound_to 10713
  152.9860  135.6101  154.3115 H   0  0  0  0  0  0  0  0  0  0  0  0  # atno 10763 bound_to 10752
  154.2830  135.2776  155.2690 H   0  0  0  0  0  0  0  0  0  0  0  0  # atno 10764 bound_to 10752
  154.5021  135.5864  153.6595 H   0  0  0  0  0  0  0  0  0  0  0  0  # atno 10765 bound_to 10752
  139.9595  134.7085  156.0677 H   0  0  0  0  0  0  0  0  0  0  0  0  # atno 11005 bound_to 11000
  145.4003  139.1599  143.4181 LP  0  0  0  0  0  0  0  0  0  0  0  0  # atno 17320 bound_to 7965
  146.2977  140.4099  142.8715 LP  0  0  0  0  0  0  0  0  0  0  0  0  # atno 17321 bound_to 7965
  139.4794  144.5152  151.8878 LP  0  0  0  0  0  0  0  0  0  0  0  0  # atno 17342 bound_to 10162
  140.4240  144.2205  150.5887 LP  0  0  0  0  0  0  0  0  0  0  0  0  # atno 17343 bound_to 10162
  157.1117  131.0223  151.3045 LP  0  0  0  0  0  0  0  0  0  0  0  0  # atno 17370 bound_to 10713
  157.4699  130.7702  149.7313 LP  0  0  0  0  0  0  0  0  0  0  0  0  # atno 17371 bound_to 10713
  141.1271  133.6596  156.3365 LP  0  0  0  0  0  0  0  0  0  0  0  0  # atno 17394 bound_to 11000
  140.5532  134.6007  157.5413 LP  0  0  0  0  0  0  0  0  0  0  0  0  # atno 17395 bound_to 11000

$$$$
