AV-unprocessed.smi:34|AV-procd|sdf|240|dock2
  -GOLD-   2262015583D 1   1.00000     0.00000
 Structure written by MMmdl.
 54 58  0  0  0  0  0  0  0  0  2 V2000
  153.3602  140.2747  159.8653 O   0  0  0  0  0  0  0  0  0  0  0  0
  152.7492  140.9139  159.0062 C   0  0  0  0  0  0  0  0  0  0  0  0
  152.3630  140.4974  157.7738 N   0  5  0  0  0  0  0  0  0  0  0  0
  152.4652  139.2009  157.4440 C   0  0  0  0  0  0  0  0  0  0  0  0
  153.6589  138.5609  157.5362 N   0  0  0  0  0  0  0  0  0  0  0  0
  153.7607  137.2688  157.2036 C   0  0  0  0  0  0  0  0  0  0  0  0
  152.8130  136.4393  156.7566 N   0  0  0  0  0  0  0  0  0  0  0  0
  151.6095  137.0738  156.6487 C   0  0  0  0  0  0  0  0  0  0  0  0
  151.3620  138.4410  156.9671 C   0  0  0  0  0  0  0  0  0  0  0  0
  150.0333  138.7670  156.7376 N   0  0  0  0  0  0  0  0  0  0  0  0
  149.5439  137.6085  156.3012 C   0  0  0  0  0  0  0  0  0  0  0  0
  150.3931  136.5648  156.2234 N   0  0  0  0  0  0  0  0  0  0  0  0
  150.0850  135.1758  155.7710 C   0  0  1  0  0  0  0  0  0  0  0  0
  150.8265  134.2948  156.5545 O   0  0  0  0  0  0  0  0  0  0  0  0
  150.0696  133.1073  156.7274 C   0  0  1  0  0  0  0  0  0  0  0  0
  150.5900  132.2917  157.9172 C   0  0  0  0  0  0  0  0  0  0  0  0
  151.6159  131.4187  157.4733 O   0  0  0  0  0  0  0  0  0  0  0  0
  152.8818  131.8672  157.3643 C   0  0  0  0  0  0  0  0  0  0  0  0
  153.3191  132.8350  157.9903 O   0  0  0  0  0  0  0  0  0  0  0  0
  153.7003  131.0691  156.4061 C   0  0  0  0  0  0  0  0  0  0  0  0
  153.0928  130.0110  155.6901 C   0  0  0  0  0  0  0  0  0  0  0  0
  153.8397  129.2399  154.7783 C   0  0  0  0  0  0  0  0  0  0  0  0
  155.2034  129.5171  154.5712 C   0  0  0  0  0  0  0  0  0  0  0  0
  155.8197  130.5666  155.2774 C   0  0  0  0  0  0  0  0  0  0  0  0
  155.0743  131.3391  156.1898 C   0  0  0  0  0  0  0  0  0  0  0  0
  148.6413  133.6291  156.8957 C   0  0  1  0  0  0  0  0  0  0  0  0
  148.4203  134.0157  158.1534 F   0  0  0  0  0  0  0  0  0  0  0  0
  148.5955  134.8430  155.9750 C   0  0  2  0  0  0  0  0  0  0  0  0
  147.9624  134.4967  154.7599 O   0  0  0  0  0  0  0  0  0  0  0  0
  152.4201  142.3577  159.2742 C   0  0  0  0  0  0  0  0  0  0  0  0
  151.7658  143.1228  158.2817 C   0  0  0  0  0  0  0  0  0  0  0  0
  151.4703  144.4818  158.5043 C   0  0  0  0  0  0  0  0  0  0  0  0
  151.8360  145.0934  159.7180 C   0  0  0  0  0  0  0  0  0  0  0  0
  152.5010  144.3458  160.7078 C   0  0  0  0  0  0  0  0  0  0  0  0
  152.7955  142.9862  160.4867 C   0  0  0  0  0  0  0  0  0  0  0  0
  154.7450  136.8374  157.3099 H   0  0  0  0  0  0  0  0  0  0  0  0
  148.5043  137.5126  156.0248 H   0  0  0  0  0  0  0  0  0  0  0  0
  150.4087  135.1319  154.7297 H   0  0  0  0  0  0  0  0  0  0  0  0
  150.1257  132.5175  155.8103 H   0  0  0  0  0  0  0  0  0  0  0  0
  150.9588  132.9537  158.7024 H   0  0  0  0  0  0  0  0  0  0  0  0
  149.7802  131.6956  158.3402 H   0  0  0  0  0  0  0  0  0  0  0  0
  152.0472  129.7791  155.8323 H   0  0  0  0  0  0  0  0  0  0  0  0
  153.3650  128.4345  154.2373 H   0  0  0  0  0  0  0  0  0  0  0  0
  155.7759  128.9256  153.8720 H   0  0  0  0  0  0  0  0  0  0  0  0
  156.8666  130.7805  155.1193 H   0  0  0  0  0  0  0  0  0  0  0  0
  155.5782  132.1373  156.7152 H   0  0  0  0  0  0  0  0  0  0  0  0
  147.8873  132.8752  156.6663 H   0  0  0  0  0  0  0  0  0  0  0  0
  148.0595  135.6765  156.4322 H   0  0  0  0  0  0  0  0  0  0  0  0
  148.3301  135.0272  154.0695 H   0  0  0  0  0  0  0  0  0  0  0  0
  151.4802  142.6682  157.3441 H   0  0  0  0  0  0  0  0  0  0  0  0
  150.9635  145.0548  157.7421 H   0  0  0  0  0  0  0  0  0  0  0  0
  151.6103  146.1357  159.8880 H   0  0  0  0  0  0  0  0  0  0  0  0
  152.7879  144.8149  161.6373 H   0  0  0  0  0  0  0  0  0  0  0  0
  153.3149  142.4322  161.2553 H   0  0  0  0  0  0  0  0  0  0  0  0
  1  2  2  0  0  0  0
  2  3  1  0  0  0  0
  2 30  1  0  0  0  0
  3  4  1  0  0  0  0
  4  9  1  0  0  0  0
  4  5  2  0  0  0  0
  5  6  1  0  0  0  0
  6  7  2  0  0  0  0
  6 36  1  0  0  0  0
  7  8  1  0  0  0  0
  8 12  1  0  0  0  0
  8  9  2  0  0  0  0
  9 10  1  0  0  0  0
 10 11  2  0  0  0  0
 11 12  1  0  0  0  0
 11 37  1  0  0  0  0
 12 13  1  0  0  0  0
 13 28  1  0  0  0  0
 13 14  1  0  0  0  0
 13 38  1  0  0  0  0
 14 15  1  0  0  0  0
 15 16  1  0  0  0  0
 15 26  1  0  0  0  0
 15 39  1  0  0  0  0
 16 17  1  0  0  0  0
 16 40  1  0  0  0  0
 16 41  1  0  0  0  0
 17 18  1  0  0  0  0
 18 19  2  0  0  0  0
 18 20  1  0  0  0  0
 20 25  1  0  0  0  0
 20 21  2  0  0  0  0
 21 22  1  0  0  0  0
 21 42  1  0  0  0  0
 22 23  2  0  0  0  0
 22 43  1  0  0  0  0
 23 24  1  0  0  0  0
 23 44  1  0  0  0  0
 24 25  2  0  0  0  0
 24 45  1  0  0  0  0
 25 46  1  0  0  0  0
 26 27  1  0  0  0  0
 26 28  1  0  0  0  0
 26 47  1  0  0  0  0
 28 29  1  0  0  0  0
 28 48  1  0  0  0  0
 29 49  1  0  0  0  0
 30 35  1  0  0  0  0
 30 31  2  0  0  0  0
 31 32  1  0  0  0  0
 31 50  1  0  0  0  0
 32 33  2  0  0  0  0
 32 51  1  0  0  0  0
 33 34  1  0  0  0  0
 33 52  1  0  0  0  0
 34 35  2  0  0  0  0
 34 53  1  0  0  0  0
 35 54  1  0  0  0  0
M  CHG  1   3  -1
M  END
> <s_m_source_file>
AV-unprocessed.smi

> <i_m_source_file_index>
34

> <i_lp_mmshare_version>
43012

> <i_f3d_flags>
0

> <s_epik_input>
W2NIXTFbY0hdW2NIXVtjSF1bY0hdYzFDKD1PKVtOSF1jKG5bY0hdbjIpYyhjMjMpbltjSF1uM1tDQEBIXTRPW0NASF0oW0NAQEhdKEYpW0NASF00W09IXSlbQ0gyXU9DKD1PKWM1W2NIXVtjSF1bY0hdW2NIXVtjSF01

> <s_epik_cmdline>
J2VwaWtfcHl0aG9uJywgJy1waCcsICc3LjAnLCAnLXRuJywgJzgnLCAnLW1hJywgJzIwMCcsICctbWV0YWxfYmluZGluZycsICctaW1hZScsICc8aW5maWxlLm1hZT4nLCAnLW9tYWUnLCAnPG91dGZpbGUubWFlPic=

> <r_lp_tautomer_probability>
1

> <r_epik_Ionization_Penalty>
4.33227

> <r_epik_Ionization_Penalty_Charging>
3.41027

> <r_epik_Ionization_Penalty_Neutral>
0.922001

> <r_epik_State_Penalty>
3.41358

> <r_epik_Charging_Adjusted_Penalty>
6.82385

> <i_epik_Tot_Q>
-1

> <i_epik_Tot_abs_Q>
1

> <r_epik_Metal_State_Penalty>
0.496292

> <b_epik_Metal_Only>
1

> <s_epik_Chemistry_Notes>
This compound has an ester and may undergo hydrolysis at high or low pH. This compound contains an acetal/aminal-like group ( X-CH(R)-Y where X, Y are N, S, or O) that may be acid/base labile, releasing an aldehyde.

> <s_lp_Force_Field>
OPLS_2005

> <r_lp_Energy>
44.0615

> <b_lp_Chiralities_Consistent>
1

> <s_lp_Variant>
AV-unprocessed.smi:34-26

> <Gold.Version>
5.8.1

> <Gold.Id.Protein>
6NUR|6NUR_protein|mol2

> <Gold.PLP.Fitness>
59.7167

> <Gold.PLP.PLP>
-52.5649

> <Gold.PLP.part.hbond>
-4.4130

> <Gold.PLP.part.metal>
0.0000

> <Gold.PLP.part.buried>
-6.7230

> <Gold.PLP.part.nonpolar>
-41.5428

> <Gold.PLP.part.repulsive>
0.0155

> <Gold.PLP.ligand.clash>
0.3662

> <Gold.PLP.ligand.torsion>
1.9680

> <Gold.PLP.Chemscore.Hbond>
3.7064

> <Gold.PLP.Chemscore.CHOScore>
0.0000

> <Gold.PLP.Chemscore.Metal>
0.0000

> <Gold.Chemscore.Hbonds>
donor molecule, donor type, donor heavy atom, donor atom, acceptor molecule, acceptor atom, score
      P1  H  6896  6908       L1    19  1.00
      P1  H  7997  8009       L1     5  0.74
      P1  H 10752 10765       L1     7  1.00

> <Gold.PLP.Chemscore.Internal.Correction>
0.3349

> <Gold.Rescore>
     Score         DG    S(hbond)    S(metal)    S(lipo)     H(rot)  DE(clash)    DE(int)     intcor
     18.38     -22.72       3.06        0.00     119.06       2.69       0.03       4.32       ----

> <Gold.Chemscore.Fitness>
18.3751

> <Gold.Chemscore.DG>
-22.7182

> <Gold.Chemscore.ZeroCoef>
-5.4800

> <Gold.Chemscore.Hbond>
3.0556

> <Gold.Chemscore.Metal>
0.0000

> <Gold.Chemscore.Lipo>
119.0595

> <Gold.Chemscore.Internal_Hbond>
0.0000

> <Gold.Chemscore.DEClash>
0.0262

> <Gold.Chemscore.DEInternal>
4.3169

> <Gold.Chemscore.Rot>
2.6944

> <Gold.Chemscore.Internal.Correction>
   9.000000E+99

> <Gold.Chemscore.Hbonds>
donor molecule, donor type, donor heavy atom, donor atom, acceptor molecule, acceptor atom, score
      P1  H  6896  6908       L1    19  0.83
      P1  H  7997  8009       L1     5  0.26
      P1  H 10752 10765       L1     7  0.75

> <Gold.Chemscore.Hbond.Weighted>
-10.2057

> <Gold.Chemscore.Metal.Weighted>
-0.0000

> <Gold.Chemscore.Lipo.Weighted>
-13.9300

> <Gold.Chemscore.Internal_Hbond.Weighted>
0.0000

> <Gold.Chemscore.DEClash.Weighted>
0.0262

> <Gold.Chemscore.DEInternal.Weighted>
4.3169

> <Gold.Chemscore.Rot.Weighted>
6.8975

> <Gold.Chemscore.Internal.Correction.Weighted>
   9.000000E+99

> <Gold.Protein.RotatedTorsions>
[ 6907 6896 6895 6894 ] final   30.17 input  -60.11 | X-H torsion
[ 7974 7965 7964 7962 ] final -168.98 input  175.53 | X-H torsion
[ 8008 7997 7996 7995 ] final  131.15 input   59.86 | X-H torsion
[ 10167 10162 10161 10158 ] final -116.08 input  -65.29 | X-H torsion
[ 10718 10713 10712 10709 ] final   32.83 input   66.30 | X-H torsion
[ 10763 10752 10751 10750 ] final -127.44 input  -60.55 | X-H torsion
[ 11005 11000 10999 10996 ] final   14.25 input  -57.11 | X-H torsion

> <Gold.Protein.ActiveResidues>
 VAL166  LYS551  ARG553  GLY616  TRP617  ASP618  TYR619  PRO620  LYS621  CYS622 
 ASP623  PHE694  ASN695  SER759  ASP760  ASP761  ALA762  ILE779  LEU786  VAL792 
 PHE793  MET794  SER795  GLU796  ALA797  LYS798  CYS799  TRP800  GLU811  SER814 

> <Gold.Protein.RotatedAtoms>
  152.0421  134.9705  160.0573 H   0  0  0  0  0  0  0  0  0  0  0  0  # atno 6907 bound_to 6896
  152.1139  133.4311  159.4652 H   0  0  0  0  0  0  0  0  0  0  0  0  # atno 6908 bound_to 6896
  150.6845  134.2534  159.4563 H   0  0  0  0  0  0  0  0  0  0  0  0  # atno 6909 bound_to 6896
  144.7193  140.2290  143.6306 H   0  0  0  0  0  0  0  0  0  0  0  0  # atno 7974 bound_to 7965
  156.2966  140.2578  156.2879 H   0  0  0  0  0  0  0  0  0  0  0  0  # atno 8008 bound_to 7997
  154.9538  140.0394  157.2176 H   0  0  0  0  0  0  0  0  0  0  0  0  # atno 8009 bound_to 7997
  154.8011  140.2828  155.5925 H   0  0  0  0  0  0  0  0  0  0  0  0  # atno 8010 bound_to 7997
  140.0831  143.4769  152.1914 H   0  0  0  0  0  0  0  0  0  0  0  0  # atno 10167 bound_to 10162
  157.2902  130.7299  149.6606 H   0  0  0  0  0  0  0  0  0  0  0  0  # atno 10718 bound_to 10713
  154.8752  135.3962  154.3593 H   0  0  0  0  0  0  0  0  0  0  0  0  # atno 10763 bound_to 10752
  153.4368  135.7026  153.6200 H   0  0  0  0  0  0  0  0  0  0  0  0  # atno 10764 bound_to 10752
  153.4798  135.3772  155.2405 H   0  0  0  0  0  0  0  0  0  0  0  0  # atno 10765 bound_to 10752
  140.4716  134.1025  155.7734 H   0  0  0  0  0  0  0  0  0  0  0  0  # atno 11005 bound_to 11000
  145.8429  139.2138  143.1817 LP  0  0  0  0  0  0  0  0  0  0  0  0  # atno 17320 bound_to 7965
  146.0330  140.8239  142.9866 LP  0  0  0  0  0  0  0  0  0  0  0  0  # atno 17321 bound_to 7965
  139.5768  144.7491  151.3745 LP  0  0  0  0  0  0  0  0  0  0  0  0  # atno 17342 bound_to 10162
  140.7067  143.7495  150.7495 LP  0  0  0  0  0  0  0  0  0  0  0  0  # atno 17343 bound_to 10162
  155.9667  130.4311  150.4906 LP  0  0  0  0  0  0  0  0  0  0  0  0  # atno 17370 bound_to 10713
  157.2867  131.0618  151.2161 LP  0  0  0  0  0  0  0  0  0  0  0  0  # atno 17371 bound_to 10713
  141.1574  133.8857  157.1940 LP  0  0  0  0  0  0  0  0  0  0  0  0  # atno 17394 bound_to 11000
  139.9882  135.0074  156.9912 LP  0  0  0  0  0  0  0  0  0  0  0  0  # atno 17395 bound_to 11000

$$$$
