AV-unprocessed.smi:2789|AV-procd|sdf|10762|dock6
  -GOLD-   2272015193D 1   1.00000     0.00000
 Structure written by MMmdl.
 35 36  0  0  0  0  0  0  0  0  1 V2000
  150.8334  137.9225  154.3408 C   0  0  0  0  0  0  0  0  0  0  0  0
  150.7350  139.3346  154.2460 O   0  0  0  0  0  0  0  0  0  0  0  0
  149.5782  139.8723  154.8727 C   0  0  2  0  0  0  0  0  0  0  0  0
  148.2824  139.2974  154.2849 C   0  0  0  0  0  0  0  0  0  0  0  0
  147.2647  140.4219  154.4363 C   0  0  0  0  0  0  0  0  0  0  0  0
  148.0709  141.6864  154.1447 C   0  0  0  0  0  0  0  0  0  0  0  0
  149.5040  141.3961  154.6343 C   0  0  1  0  0  0  0  0  0  0  0  0
  149.7986  142.1254  155.8656 N   0  0  0  0  0  0  0  0  0  0  0  0
  150.7939  141.8338  156.7148 C   0  0  0  0  0  0  0  0  0  0  0  0
  151.5865  140.9085  156.5375 O   0  0  0  0  0  0  0  0  0  0  0  0
  150.8031  142.6806  157.7589 N   0  0  0  0  0  0  0  0  0  0  0  0
  151.6475  142.7074  158.8243 C   0  0  0  0  0  0  0  0  0  0  0  0
  152.3369  141.6765  159.4026 C   0  0  0  0  0  0  0  0  0  0  0  0
  153.0339  142.3272  160.4606 C   0  0  0  0  0  0  0  0  0  0  0  0
  152.7906  143.6303  160.5196 N   0  0  0  0  0  0  0  0  0  0  0  0
  151.9294  143.8707  159.5067 N   0  0  0  0  0  0  0  0  0  0  0  0
  151.4425  145.2161  159.2717 C   0  0  0  0  0  0  0  0  0  0  0  0
  151.7532  137.5893  153.8601 H   0  0  0  0  0  0  0  0  0  0  0  0
  149.9997  137.4261  153.8435 H   0  0  0  0  0  0  0  0  0  0  0  0
  150.8638  137.5981  155.3817 H   0  0  0  0  0  0  0  0  0  0  0  0
  149.6038  139.6691  155.9456 H   0  0  0  0  0  0  0  0  0  0  0  0
  148.4200  139.0779  153.2252 H   0  0  0  0  0  0  0  0  0  0  0  0
  147.9674  138.3772  154.7776 H   0  0  0  0  0  0  0  0  0  0  0  0
  146.4078  140.3071  153.7720 H   0  0  0  0  0  0  0  0  0  0  0  0
  146.8936  140.4484  155.4618 H   0  0  0  0  0  0  0  0  0  0  0  0
  148.0900  141.8579  153.0676 H   0  0  0  0  0  0  0  0  0  0  0  0
  147.6235  142.5712  154.5997 H   0  0  0  0  0  0  0  0  0  0  0  0
  150.2148  141.6873  153.8581 H   0  0  0  0  0  0  0  0  0  0  0  0
  149.1943  142.9028  156.0874 H   0  0  0  0  0  0  0  0  0  0  0  0
  150.0914  143.3963  157.7565 H   0  0  0  0  0  0  0  0  0  0  0  0
  152.3539  140.6313  159.1331 H   0  0  0  0  0  0  0  0  0  0  0  0
  153.7067  141.8931  161.1855 H   0  0  0  0  0  0  0  0  0  0  0  0
  151.7890  145.5653  158.2990 H   0  0  0  0  0  0  0  0  0  0  0  0
  151.8059  145.8971  160.0424 H   0  0  0  0  0  0  0  0  0  0  0  0
  150.3522  145.2192  159.2849 H   0  0  0  0  0  0  0  0  0  0  0  0
  1  2  1  0  0  0  0
  1 18  1  0  0  0  0
  1 19  1  0  0  0  0
  1 20  1  0  0  0  0
  2  3  1  0  0  0  0
  3  7  1  0  0  0  0
  3  4  1  0  0  0  0
  3 21  1  0  0  0  0
  4  5  1  0  0  0  0
  4 22  1  0  0  0  0
  4 23  1  0  0  0  0
  5  6  1  0  0  0  0
  5 24  1  0  0  0  0
  5 25  1  0  0  0  0
  6  7  1  0  0  0  0
  6 26  1  0  0  0  0
  6 27  1  0  0  0  0
  7  8  1  0  0  0  0
  7 28  1  0  0  0  0
  8  9  1  0  0  0  0
  8 29  1  0  0  0  0
  9 10  2  0  0  0  0
  9 11  1  0  0  0  0
 11 12  1  0  0  0  0
 11 30  1  0  0  0  0
 12 16  1  0  0  0  0
 12 13  2  0  0  0  0
 13 14  1  0  0  0  0
 13 31  1  0  0  0  0
 14 15  2  0  0  0  0
 14 32  1  0  0  0  0
 15 16  1  0  0  0  0
 16 17  1  0  0  0  0
 17 33  1  0  0  0  0
 17 34  1  0  0  0  0
 17 35  1  0  0  0  0
M  END
> <s_m_source_file>
AV-unprocessed.smi

> <i_m_source_file_index>
2789

> <i_lp_mmshare_version>
43012

> <i_f3d_flags>
0

> <s_epik_input>
W0NIM11PW0NAQEhdMVtDSDJdW0NIMl1bQ0gyXVtDQEhdMVtOSF1DKD1PKVtOSF1jMltjSF1bY0hdbm4yW0NIM10=

> <s_epik_cmdline>
J2VwaWtfcHl0aG9uJywgJy1waCcsICc3LjAnLCAnLXRuJywgJzgnLCAnLW1hJywgJzIwMCcsICctbWV0YWxfYmluZGluZycsICctaW1hZScsICc8aW5maWxlLm1hZT4nLCAnLW9tYWUnLCAnPG91dGZpbGUubWFlPic=

> <r_lp_tautomer_probability>
1

> <r_epik_Ionization_Penalty>
4.40608e-05

> <r_epik_Ionization_Penalty_Charging>
0

> <r_epik_Ionization_Penalty_Neutral>
4.40608e-05

> <r_epik_State_Penalty>
-0

> <r_epik_Charging_Adjusted_Penalty>
0

> <i_epik_Tot_Q>
0

> <i_epik_Tot_abs_Q>
0

> <r_epik_Metal_State_Penalty>
-0

> <b_epik_Metal_Only>
0

> <s_lp_Force_Field>
OPLS_2005

> <r_lp_Energy>
20.8704

> <b_lp_Chiralities_Consistent>
1

> <s_lp_Variant>
AV-unprocessed.smi:2789-1

> <Gold.Version>
5.8.1

> <Gold.Id.Protein>
6NUR|6NUR_protein|mol2

> <Gold.PLP.Fitness>
41.1998

> <Gold.PLP.PLP>
-36.2036

> <Gold.PLP.part.hbond>
-2.0000

> <Gold.PLP.part.metal>
0.0000

> <Gold.PLP.part.buried>
-3.4961

> <Gold.PLP.part.nonpolar>
-30.4457

> <Gold.PLP.part.repulsive>
0.3643

> <Gold.PLP.ligand.clash>
0.0000

> <Gold.PLP.ligand.torsion>
0.3967

> <Gold.PLP.Chemscore.Hbond>
1.9280

> <Gold.PLP.Chemscore.CHOScore>
0.0000

> <Gold.PLP.Chemscore.Metal>
0.0000

> <Gold.Chemscore.Hbonds>
donor molecule, donor type, donor heavy atom, donor atom, acceptor molecule, acceptor atom, score
      L1  H     8    29       P1  8028  0.85
      P1  H  7989  7998       L1     2  1.00

> <Gold.PLP.Chemscore.Internal.Correction>
0.0056

> <Gold.Rescore>
     Score         DG    S(hbond)    S(metal)    S(lipo)     H(rot)  DE(clash)    DE(int)     intcor
     12.42     -16.49       1.69        0.00      73.61       1.27       0.14       3.94       ----

> <Gold.Chemscore.Fitness>
12.4189

> <Gold.Chemscore.DG>
-16.4923

> <Gold.Chemscore.ZeroCoef>
-5.4800

> <Gold.Chemscore.Hbond>
1.6928

> <Gold.Chemscore.Metal>
0.0000

> <Gold.Chemscore.Lipo>
73.6125

> <Gold.Chemscore.Internal_Hbond>
0.0000

> <Gold.Chemscore.DEClash>
0.1379

> <Gold.Chemscore.DEInternal>
3.9354

> <Gold.Chemscore.Rot>
1.2712

> <Gold.Chemscore.Internal.Correction>
   9.000000E+99

> <Gold.Chemscore.Hbonds>
donor molecule, donor type, donor heavy atom, donor atom, acceptor molecule, acceptor atom, score
      L1  H     8    29       P1  8028  0.83
      P1  H  7989  7998       L1     2  0.50

> <Gold.Chemscore.Hbond.Weighted>
-5.6540

> <Gold.Chemscore.Metal.Weighted>
-0.0000

> <Gold.Chemscore.Lipo.Weighted>
-8.6127

> <Gold.Chemscore.Internal_Hbond.Weighted>
0.0000

> <Gold.Chemscore.DEClash.Weighted>
0.1379

> <Gold.Chemscore.DEInternal.Weighted>
3.9354

> <Gold.Chemscore.Rot.Weighted>
3.2544

> <Gold.Chemscore.Internal.Correction.Weighted>
   9.000000E+99

> <Gold.Protein.RotatedTorsions>
[ 6907 6896 6895 6894 ] final  -53.32 input  -60.11 | X-H torsion
[ 7974 7965 7964 7962 ] final  -97.98 input  175.53 | X-H torsion
[ 8008 7997 7996 7995 ] final  123.85 input   59.86 | X-H torsion
[ 10167 10162 10161 10158 ] final  -36.20 input  -65.29 | X-H torsion
[ 10718 10713 10712 10709 ] final  144.28 input   66.30 | X-H torsion
[ 10763 10752 10751 10750 ] final  -30.04 input  -60.55 | X-H torsion
[ 11005 11000 10999 10996 ] final  -34.44 input  -57.11 | X-H torsion

> <Gold.Protein.ActiveResidues>
 VAL166  LYS551  ARG553  GLY616  TRP617  ASP618  TYR619  PRO620  LYS621  CYS622 
 ASP623  PHE694  ASN695  SER759  ASP760  ASP761  ALA762  ILE779  LEU786  VAL792 
 PHE793  MET794  SER795  GLU796  ALA797  LYS798  CYS799  TRP800  GLU811  SER814 

> <Gold.Protein.RotatedAtoms>
  150.8437  134.7738  159.6952 H   0  0  0  0  0  0  0  0  0  0  0  0  # atno 6907 bound_to 6896
  152.4519  134.5372  159.9838 H   0  0  0  0  0  0  0  0  0  0  0  0  # atno 6908 bound_to 6896
  151.5507  133.3380  159.2988 H   0  0  0  0  0  0  0  0  0  0  0  0  # atno 6909 bound_to 6896
  145.3266  140.9433  143.2685 H   0  0  0  0  0  0  0  0  0  0  0  0  # atno 7974 bound_to 7965
  156.2781  140.2753  156.1693 H   0  0  0  0  0  0  0  0  0  0  0  0  # atno 8008 bound_to 7997
  155.0671  140.0387  157.2614 H   0  0  0  0  0  0  0  0  0  0  0  0  # atno 8009 bound_to 7997
  154.7070  140.2661  155.6671 H   0  0  0  0  0  0  0  0  0  0  0  0  # atno 8010 bound_to 7997
  140.7148  143.3425  151.2327 H   0  0  0  0  0  0  0  0  0  0  0  0  # atno 10167 bound_to 10162
  157.3590  131.0962  151.0932 H   0  0  0  0  0  0  0  0  0  0  0  0  # atno 10718 bound_to 10713
  153.7745  135.6910  153.4900 H   0  0  0  0  0  0  0  0  0  0  0  0  # atno 10763 bound_to 10752
  153.1852  135.4491  155.0078 H   0  0  0  0  0  0  0  0  0  0  0  0  # atno 10764 bound_to 10752
  154.8105  135.3375  154.7252 H   0  0  0  0  0  0  0  0  0  0  0  0  # atno 10765 bound_to 10752
  140.9716  133.7106  156.1534 H   0  0  0  0  0  0  0  0  0  0  0  0  # atno 11005 bound_to 11000
  144.8897  139.4792  143.6684 LP  0  0  0  0  0  0  0  0  0  0  0  0  # atno 17320 bound_to 7965
  146.3062  139.7587  142.9055 LP  0  0  0  0  0  0  0  0  0  0  0  0  # atno 17321 bound_to 7965
  139.6936  143.9651  152.2871 LP  0  0  0  0  0  0  0  0  0  0  0  0  # atno 17342 bound_to 10162
  139.9320  144.6735  150.8353 LP  0  0  0  0  0  0  0  0  0  0  0  0  # atno 17343 bound_to 10162
  157.2079  130.6424  149.5763 LP  0  0  0  0  0  0  0  0  0  0  0  0  # atno 17370 bound_to 10713
  155.9734  130.4669  150.6307 LP  0  0  0  0  0  0  0  0  0  0  0  0  # atno 17371 bound_to 10713
  140.7320  134.4244  157.5565 LP  0  0  0  0  0  0  0  0  0  0  0  0  # atno 17394 bound_to 11000
  139.8914  134.8779  156.2319 LP  0  0  0  0  0  0  0  0  0  0  0  0  # atno 17395 bound_to 11000

$$$$
