AV-unprocessed.smi:1897|AV-procd|sdf|7697|dock10
  -GOLD-   22720 9433D 1   1.00000     0.00000
 Structure written by MMmdl.
 38 40  0  0  0  0  0  0  0  0  3 V2000
  152.5090  138.4224  154.4606 C   0  0  0  0  0  0  0  0  0  0  0  0
  151.1104  137.9577  154.6816 C   0  0  0  0  0  0  0  0  0  0  0  0
  150.0805  138.7986  154.8006 N   0  0  0  0  0  0  0  0  0  0  0  0
  148.8820  138.1316  155.0072 N   0  0  0  0  0  0  0  0  0  0  0  0
  149.0187  136.7983  155.0274 C   0  0  0  0  0  0  0  0  0  0  0  0
  147.9751  135.9679  155.2103 N   0  5  0  0  0  0  0  0  0  0  0  0
  148.0030  134.6629  154.8342 C   0  0  0  0  0  0  0  0  0  0  0  0
  147.6364  133.7403  155.5608 O   0  0  0  0  0  0  0  0  0  0  0  0
  148.4572  134.3763  153.6000 N   0  0  0  0  0  0  0  0  0  0  0  0
  148.5654  133.0450  153.0173 C   0  0  1  0  0  0  0  0  0  0  0  0
  149.1860  131.9986  153.9626 C   0  0  0  0  0  0  0  0  0  0  0  0
  148.3783  130.7073  153.7272 C   0  0  0  0  0  0  0  0  0  0  0  0
  147.4622  131.0196  152.6139 N   0  3  1  0  0  0  0  0  0  0  0  0
  146.2309  130.2080  152.5027 C   0  0  0  0  0  0  0  0  0  0  0  0
  145.4542  130.6339  151.2403 C   0  0  0  0  0  0  0  0  0  0  0  0
  145.1942  132.1546  151.2129 C   0  0  0  0  0  0  0  0  0  0  0  0
  146.4984  132.9465  151.4287 C   0  0  0  0  0  0  0  0  0  0  0  0
  147.1881  132.4603  152.7136 C   0  0  2  0  0  0  0  0  0  0  0  0
  150.6823  136.2592  154.8008 S   0  0  0  0  0  0  0  0  0  0  0  0
  152.6646  138.6470  153.4054 H   0  0  0  0  0  0  0  0  0  0  0  0
  153.2163  137.6502  154.7634 H   0  0  0  0  0  0  0  0  0  0  0  0
  152.7054  139.3219  155.0446 H   0  0  0  0  0  0  0  0  0  0  0  0
  148.7469  135.1526  153.0232 H   0  0  0  0  0  0  0  0  0  0  0  0
  149.1452  133.0865  152.0927 H   0  0  0  0  0  0  0  0  0  0  0  0
  150.2458  131.8599  153.7469 H   0  0  0  0  0  0  0  0  0  0  0  0
  149.1019  132.3036  155.0068 H   0  0  0  0  0  0  0  0  0  0  0  0
  149.0141  129.8568  153.4807 H   0  0  0  0  0  0  0  0  0  0  0  0
  147.8071  130.4563  154.6223 H   0  0  0  0  0  0  0  0  0  0  0  0
  146.4927  129.1510  152.4455 H   0  0  0  0  0  0  0  0  0  0  0  0
  145.6154  130.3419  153.3938 H   0  0  0  0  0  0  0  0  0  0  0  0
  146.0254  130.3523  150.3545 H   0  0  0  0  0  0  0  0  0  0  0  0
  144.5097  130.0921  151.1814 H   0  0  0  0  0  0  0  0  0  0  0  0
  144.7334  132.4399  150.2667 H   0  0  0  0  0  0  0  0  0  0  0  0
  144.4794  132.4139  151.9951 H   0  0  0  0  0  0  0  0  0  0  0  0
  147.1601  132.8118  150.5720 H   0  0  0  0  0  0  0  0  0  0  0  0
  146.2846  134.0138  151.4951 H   0  0  0  0  0  0  0  0  0  0  0  0
  146.5282  132.6302  153.5682 H   0  0  0  0  0  0  0  0  0  0  0  0
  147.9899  130.8888  151.7627 H   0  0  0  0  0  0  0  0  0  0  0  0
  1  2  1  0  0  0  0
  1 20  1  0  0  0  0
  1 21  1  0  0  0  0
  1 22  1  0  0  0  0
  2 19  1  0  0  0  0
  2  3  2  0  0  0  0
  3  4  1  0  0  0  0
  4  5  2  0  0  0  0
  5  6  1  0  0  0  0
  5 19  1  0  0  0  0
  6  7  1  0  0  0  0
  7  8  2  0  0  0  0
  7  9  1  0  0  0  0
  9 10  1  0  0  0  0
  9 23  1  0  0  0  0
 10 18  1  0  0  0  0
 10 11  1  0  0  0  0
 10 24  1  0  0  0  0
 11 12  1  0  0  0  0
 11 25  1  0  0  0  0
 11 26  1  0  0  0  0
 12 13  1  0  0  0  0
 12 27  1  0  0  0  0
 12 28  1  0  0  0  0
 13 18  1  0  0  0  0
 13 14  1  0  0  0  0
 13 38  1  0  0  0  0
 14 15  1  0  0  0  0
 14 29  1  0  0  0  0
 14 30  1  0  0  0  0
 15 16  1  0  0  0  0
 15 31  1  0  0  0  0
 15 32  1  0  0  0  0
 16 17  1  0  0  0  0
 16 33  1  0  0  0  0
 16 34  1  0  0  0  0
 17 18  1  0  0  0  0
 17 35  1  0  0  0  0
 17 36  1  0  0  0  0
 18 37  1  0  0  0  0
M  CHG  1   6  -1
M  CHG  1  13   1
M  END
> <s_m_source_file>
AV-unprocessed.smi

> <i_m_source_file_index>
1897

> <i_lp_mmshare_version>
43012

> <i_f3d_flags>
0

> <s_epik_input>
W0NIM11jMW5uYyhzMSlbTkhdQyg9TylbTkhdW0NASF0oW0NIMl1bQ0gyXTIpW0NAQEhdKE4yMylbQ0gyXVtDSDJdW0NIMl1bQ0gyXTM=

> <s_epik_cmdline>
J2VwaWtfcHl0aG9uJywgJy1waCcsICc3LjAnLCAnLXRuJywgJzgnLCAnLW1hJywgJzIwMCcsICctbWV0YWxfYmluZGluZycsICctaW1hZScsICc8aW5maWxlLm1hZT4nLCAnLW9tYWUnLCAnPG91dGZpbGUubWFlPic=

> <r_lp_tautomer_probability>
1

> <r_epik_Ionization_Penalty>
3.77712

> <r_epik_Ionization_Penalty_Charging>
3.67739

> <r_epik_Ionization_Penalty_Neutral>
0.0997294

> <r_epik_State_Penalty>
3.67514

> <r_epik_Charging_Adjusted_Penalty>
7.35254

> <i_epik_Tot_Q>
0

> <i_epik_Tot_abs_Q>
2

> <r_epik_Metal_State_Penalty>
0.540795

> <b_epik_Metal_Only>
1

> <s_lp_Force_Field>
OPLS_2005

> <r_lp_Energy>
28.3621

> <b_lp_Chiralities_Consistent>
1

> <s_lp_Variant>
AV-unprocessed.smi:1897-14

> <Gold.Version>
5.8.1

> <Gold.Id.Protein>
6NUR|6NUR_protein|mol2

> <Gold.PLP.Fitness>
35.7467

> <Gold.PLP.PLP>
-31.0174

> <Gold.PLP.part.hbond>
-2.0000

> <Gold.PLP.part.metal>
0.0000

> <Gold.PLP.part.buried>
-3.6298

> <Gold.PLP.part.nonpolar>
-25.7946

> <Gold.PLP.part.repulsive>
0.3475

> <Gold.PLP.ligand.clash>
0.0000

> <Gold.PLP.ligand.torsion>
0.6412

> <Gold.PLP.Chemscore.Hbond>
2.0000

> <Gold.PLP.Chemscore.CHOScore>
0.0000

> <Gold.PLP.Chemscore.Metal>
0.0000

> <Gold.Chemscore.Hbonds>
donor molecule, donor type, donor heavy atom, donor atom, acceptor molecule, acceptor atom, score
      L1  H     9    23       P1  7948  1.00
      L1  H    13    38       P1 10747  1.00

> <Gold.PLP.Chemscore.Internal.Correction>
0.0118

> <Gold.Rescore>
     Score         DG    S(hbond)    S(metal)    S(lipo)     H(rot)  DE(clash)    DE(int)     intcor
     16.29     -18.36       1.82        0.00      79.98       1.00       0.09       1.99       ----

> <Gold.Chemscore.Fitness>
16.2871

> <Gold.Chemscore.DG>
-18.3604

> <Gold.Chemscore.ZeroCoef>
-5.4800

> <Gold.Chemscore.Hbond>
1.8211

> <Gold.Chemscore.Metal>
0.0000

> <Gold.Chemscore.Lipo>
79.9824

> <Gold.Chemscore.Internal_Hbond>
0.0000

> <Gold.Chemscore.DEClash>
0.0853

> <Gold.Chemscore.DEInternal>
1.9879

> <Gold.Chemscore.Rot>
1.0000

> <Gold.Chemscore.Internal.Correction>
   9.000000E+99

> <Gold.Chemscore.Hbonds>
donor molecule, donor type, donor heavy atom, donor atom, acceptor molecule, acceptor atom, score
      L1  H     9    23       P1  7948  0.48
      L1  H    13    38       P1 10747  1.00

> <Gold.Chemscore.Hbond.Weighted>
-6.0824

> <Gold.Chemscore.Metal.Weighted>
-0.0000

> <Gold.Chemscore.Lipo.Weighted>
-9.3579

> <Gold.Chemscore.Internal_Hbond.Weighted>
0.0000

> <Gold.Chemscore.DEClash.Weighted>
0.0853

> <Gold.Chemscore.DEInternal.Weighted>
1.9879

> <Gold.Chemscore.Rot.Weighted>
2.5600

> <Gold.Chemscore.Internal.Correction.Weighted>
   9.000000E+99

> <Gold.Protein.RotatedTorsions>
[ 6907 6896 6895 6894 ] final  -93.17 input  -60.11 | X-H torsion
[ 7974 7965 7964 7962 ] final  -86.99 input  175.53 | X-H torsion
[ 8008 7997 7996 7995 ] final -105.01 input   59.86 | X-H torsion
[ 10167 10162 10161 10158 ] final   75.54 input  -65.29 | X-H torsion
[ 10718 10713 10712 10709 ] final  -49.83 input   66.30 | X-H torsion
[ 10763 10752 10751 10750 ] final  -62.49 input  -60.55 | X-H torsion
[ 11005 11000 10999 10996 ] final -118.31 input  -57.11 | X-H torsion

> <Gold.Protein.ActiveResidues>
 VAL166  LYS551  ARG553  GLY616  TRP617  ASP618  TYR619  PRO620  LYS621  CYS622 
 ASP623  PHE694  ASN695  SER759  ASP760  ASP761  ALA762  ILE779  LEU786  VAL792 
 PHE793  MET794  SER795  GLU796  ALA797  LYS798  CYS799  TRP800  GLU811  SER814 

> <Gold.Protein.RotatedAtoms>
  150.6918  134.2008  159.4321 H   0  0  0  0  0  0  0  0  0  0  0  0  # atno 6907 bound_to 6896
  151.9975  134.9944  160.0573 H   0  0  0  0  0  0  0  0  0  0  0  0  # atno 6908 bound_to 6896
  152.1610  133.4547  159.4898 H   0  0  0  0  0  0  0  0  0  0  0  0  # atno 6909 bound_to 6896
  145.4724  140.9559  143.1909 H   0  0  0  0  0  0  0  0  0  0  0  0  # atno 7974 bound_to 7965
  154.8937  140.0415  157.1853 H   0  0  0  0  0  0  0  0  0  0  0  0  # atno 8008 bound_to 7997
  154.8515  140.2930  155.5574 H   0  0  0  0  0  0  0  0  0  0  0  0  # atno 8009 bound_to 7997
  156.2996  140.2464  156.3474 H   0  0  0  0  0  0  0  0  0  0  0  0  # atno 8010 bound_to 7997
  140.0019  144.5680  150.7730 H   0  0  0  0  0  0  0  0  0  0  0  0  # atno 10167 bound_to 10162
  156.1857  130.4151  149.9443 H   0  0  0  0  0  0  0  0  0  0  0  0  # atno 10718 bound_to 10713
  154.3007  135.6235  153.5424 H   0  0  0  0  0  0  0  0  0  0  0  0  # atno 10763 bound_to 10752
  152.9841  135.5678  154.5287 H   0  0  0  0  0  0  0  0  0  0  0  0  # atno 10764 bound_to 10752
  154.4917  135.2867  155.1468 H   0  0  0  0  0  0  0  0  0  0  0  0  # atno 10765 bound_to 10752
  141.0295  134.0003  157.3165 H   0  0  0  0  0  0  0  0  0  0  0  0  # atno 11005 bound_to 11000
  144.7937  139.6277  143.7102 LP  0  0  0  0  0  0  0  0  0  0  0  0  # atno 17320 bound_to 7965
  146.2389  139.5960  142.9505 LP  0  0  0  0  0  0  0  0  0  0  0  0  # atno 17321 bound_to 7965
  140.7415  143.2819  151.3572 LP  0  0  0  0  0  0  0  0  0  0  0  0  # atno 17342 bound_to 10162
  139.6266  144.0803  152.2439 LP  0  0  0  0  0  0  0  0  0  0  0  0  # atno 17343 bound_to 10162
  156.7199  130.9003  151.3617 LP  0  0  0  0  0  0  0  0  0  0  0  0  # atno 17370 bound_to 10713
  157.6897  130.9221  150.0480 LP  0  0  0  0  0  0  0  0  0  0  0  0  # atno 17371 bound_to 10713
  139.9198  135.0200  156.8021 LP  0  0  0  0  0  0  0  0  0  0  0  0  # atno 17394 bound_to 11000
  140.6432  133.9799  155.7718 LP  0  0  0  0  0  0  0  0  0  0  0  0  # atno 17395 bound_to 11000

$$$$
