AV-unprocessed.smi:2079|AV-procd|sdf|8485|dock8
  -GOLD-   2272011193D 1   1.00000     0.00000
 Structure written by MMmdl.
 41 42  0  0  0  0  0  0  0  0  3 V2000
  152.9244  142.6904  161.0870 C   0  0  0  0  0  0  0  0  0  0  0  0
  152.7558  141.8255  159.8853 C   0  0  0  0  0  0  0  0  0  0  0  0
  151.9283  141.8916  158.7999 C   0  0  0  0  0  0  0  0  0  0  0  0
  152.3034  140.7514  158.0401 C   0  0  0  0  0  0  0  0  0  0  0  0
  151.6621  140.4600  156.8069 N   0  0  0  0  0  0  0  0  0  0  0  0
  152.0470  139.6099  155.8373 C   0  0  0  0  0  0  0  0  0  0  0  0
  153.0812  138.9433  155.9643 O   0  0  0  0  0  0  0  0  0  0  0  0
  151.1818  139.6006  154.7853 N   0  5  0  0  0  0  0  0  0  0  0  0
  150.1163  138.6186  154.5895 C   0  0  0  0  0  0  0  0  0  0  0  0
  150.5569  137.2351  155.1103 C   0  0  0  0  0  0  0  0  0  0  0  0
  149.5891  136.1677  154.7377 N   0  3  2  0  0  0  0  0  0  0  0  0
  148.2360  136.3291  155.3446 C   0  0  0  0  0  0  0  0  0  0  0  0
  147.2353  135.3372  154.7295 C   0  0  0  0  0  0  0  0  0  0  0  0
  147.7326  133.8923  154.8625 C   0  0  0  0  0  0  0  0  0  0  0  0
  149.1440  133.7620  154.2702 C   0  0  0  0  0  0  0  0  0  0  0  0
  150.1271  134.7818  154.8826 C   0  0  2  0  0  0  0  0  0  0  0  0
  150.5164  134.4252  156.3341 C   0  0  0  0  0  0  0  0  0  0  0  0
  153.2706  140.0509  158.6137 N   0  0  0  0  0  0  0  0  0  0  0  0
  153.5659  140.7361  159.7981 O   0  0  0  0  0  0  0  0  0  0  0  0
  152.1257  143.4296  161.1503 H   0  0  0  0  0  0  0  0  0  0  0  0
  153.8754  143.2217  161.0485 H   0  0  0  0  0  0  0  0  0  0  0  0
  152.9059  142.0938  161.9990 H   0  0  0  0  0  0  0  0  0  0  0  0
  151.1783  142.6378  158.5838 H   0  0  0  0  0  0  0  0  0  0  0  0
  150.8093  140.9692  156.6282 H   0  0  0  0  0  0  0  0  0  0  0  0
  149.2100  138.9204  155.1146 H   0  0  0  0  0  0  0  0  0  0  0  0
  149.8255  138.5289  153.5417 H   0  0  0  0  0  0  0  0  0  0  0  0
  151.5318  137.0101  154.6754 H   0  0  0  0  0  0  0  0  0  0  0  0
  150.7022  137.2483  156.1918 H   0  0  0  0  0  0  0  0  0  0  0  0
  148.2896  136.1967  156.4254 H   0  0  0  0  0  0  0  0  0  0  0  0
  147.8690  137.3425  155.1801 H   0  0  0  0  0  0  0  0  0  0  0  0
  146.2622  135.4424  155.2103 H   0  0  0  0  0  0  0  0  0  0  0  0
  147.0866  135.5765  153.6757 H   0  0  0  0  0  0  0  0  0  0  0  0
  147.7359  133.5968  155.9119 H   0  0  0  0  0  0  0  0  0  0  0  0
  147.0481  133.2127  154.3541 H   0  0  0  0  0  0  0  0  0  0  0  0
  149.5161  132.7460  154.4074 H   0  0  0  0  0  0  0  0  0  0  0  0
  149.0914  133.9207  153.1921 H   0  0  0  0  0  0  0  0  0  0  0  0
  151.0396  134.7318  154.2865 H   0  0  0  0  0  0  0  0  0  0  0  0
  150.9367  133.4205  156.3824 H   0  0  0  0  0  0  0  0  0  0  0  0
  149.6645  134.4504  157.0125 H   0  0  0  0  0  0  0  0  0  0  0  0
  151.2714  135.1043  156.7298 H   0  0  0  0  0  0  0  0  0  0  0  0
  149.4572  136.2875  153.7434 H   0  0  0  0  0  0  0  0  0  0  0  0
  1  2  1  0  0  0  0
  1 20  1  0  0  0  0
  1 21  1  0  0  0  0
  1 22  1  0  0  0  0
  2 19  1  0  0  0  0
  2  3  2  0  0  0  0
  3  4  1  0  0  0  0
  3 23  1  0  0  0  0
  4  5  1  0  0  0  0
  4 18  2  0  0  0  0
  5  6  1  0  0  0  0
  5 24  1  0  0  0  0
  6  7  2  0  0  0  0
  6  8  1  0  0  0  0
  8  9  1  0  0  0  0
  9 10  1  0  0  0  0
  9 25  1  0  0  0  0
  9 26  1  0  0  0  0
 10 11  1  0  0  0  0
 10 27  1  0  0  0  0
 10 28  1  0  0  0  0
 11 16  1  0  0  0  0
 11 12  1  0  0  0  0
 11 41  1  0  0  0  0
 12 13  1  0  0  0  0
 12 29  1  0  0  0  0
 12 30  1  0  0  0  0
 13 14  1  0  0  0  0
 13 31  1  0  0  0  0
 13 32  1  0  0  0  0
 14 15  1  0  0  0  0
 14 33  1  0  0  0  0
 14 34  1  0  0  0  0
 15 16  1  0  0  0  0
 15 35  1  0  0  0  0
 15 36  1  0  0  0  0
 16 17  1  0  0  0  0
 16 37  1  0  0  0  0
 17 38  1  0  0  0  0
 17 39  1  0  0  0  0
 17 40  1  0  0  0  0
 18 19  1  0  0  0  0
M  CHG  1   8  -1
M  CHG  1  11   1
M  END
> <s_m_source_file>
AV-unprocessed.smi

> <i_m_source_file_index>
2079

> <i_lp_mmshare_version>
43012

> <i_f3d_flags>
0

> <s_epik_input>
W0NIM11jMVtjSF1jKG5vMSlbTkhdQyg9TylbTkhdW0NIMl1bQ0gyXU4yW0NIMl1bQ0gyXVtDSDJdW0NIMl1bQ0BIXTJbQ0gzXQ==

> <s_epik_cmdline>
J2VwaWtfcHl0aG9uJywgJy1waCcsICc3LjAnLCAnLXRuJywgJzgnLCAnLW1hJywgJzIwMCcsICctbWV0YWxfYmluZGluZycsICctaW1hZScsICc8aW5maWxlLm1hZT4nLCAnLW9tYWUnLCAnPG91dGZpbGUubWFlPic=

> <r_epik_Ionization_Penalty>
6.7666

> <r_epik_Ionization_Penalty_Charging>
6.7666

> <r_epik_Ionization_Penalty_Neutral>
5.77131e-06

> <r_epik_State_Penalty>
6.79217

> <r_epik_Charging_Adjusted_Penalty>
13.5588

> <i_epik_Tot_Q>
0

> <i_epik_Tot_abs_Q>
2

> <r_epik_Metal_State_Penalty>
2.72569

> <b_epik_Metal_Only>
1

> <s_lp_Force_Field>
OPLS_2005

> <r_lp_Energy>
14.7709

> <b_lp_Chiralities_Consistent>
1

> <s_lp_Variant>
AV-unprocessed.smi:2079-11

> <Gold.Version>
5.8.1

> <Gold.Id.Protein>
6NUR|6NUR_protein|mol2

> <Gold.PLP.Fitness>
42.8488

> <Gold.PLP.PLP>
-32.8400

> <Gold.PLP.part.hbond>
-4.0000

> <Gold.PLP.part.metal>
0.0000

> <Gold.PLP.part.buried>
-5.6982

> <Gold.PLP.part.nonpolar>
-23.7302

> <Gold.PLP.part.repulsive>
0.2435

> <Gold.PLP.ligand.clash>
0.0000

> <Gold.PLP.ligand.torsion>
1.0482

> <Gold.PLP.Chemscore.Hbond>
3.9920

> <Gold.PLP.Chemscore.CHOScore>
0.0000

> <Gold.PLP.Chemscore.Metal>
0.0000

> <Gold.Chemscore.Hbonds>
donor molecule, donor type, donor heavy atom, donor atom, acceptor molecule, acceptor atom, score
      L1  H    11    41       P1  7948  2.00
      P1  H  7989  7998       L1     8  1.00
      P1  H  7997  8010       L1    18  0.90

> <Gold.PLP.Chemscore.Internal.Correction>
0.1291

> <Gold.Rescore>
     Score         DG    S(hbond)    S(metal)    S(lipo)     H(rot)  DE(clash)    DE(int)     intcor
     15.74     -18.02       2.64        0.00      65.46       1.54       0.01       2.27       ----

> <Gold.Chemscore.Fitness>
15.7415

> <Gold.Chemscore.DG>
-18.0228

> <Gold.Chemscore.ZeroCoef>
-5.4800

> <Gold.Chemscore.Hbond>
2.6432

> <Gold.Chemscore.Metal>
0.0000

> <Gold.Chemscore.Lipo>
65.4633

> <Gold.Chemscore.Internal_Hbond>
0.0000

> <Gold.Chemscore.DEClash>
0.0089

> <Gold.Chemscore.DEInternal>
2.2724

> <Gold.Chemscore.Rot>
1.5409

> <Gold.Chemscore.Internal.Correction>
   9.000000E+99

> <Gold.Chemscore.Hbonds>
donor molecule, donor type, donor heavy atom, donor atom, acceptor molecule, acceptor atom, score
      L1  H    11    41       P1  7948  0.74
      P1  H  7989  7998       L1     8  0.82
      P1  H  7997  8010       L1     7  0.20

> <Gold.Chemscore.Hbond.Weighted>
-8.8282

> <Gold.Chemscore.Metal.Weighted>
-0.0000

> <Gold.Chemscore.Lipo.Weighted>
-7.6592

> <Gold.Chemscore.Internal_Hbond.Weighted>
0.0000

> <Gold.Chemscore.DEClash.Weighted>
0.0089

> <Gold.Chemscore.DEInternal.Weighted>
2.2724

> <Gold.Chemscore.Rot.Weighted>
3.9446

> <Gold.Chemscore.Internal.Correction.Weighted>
   9.000000E+99

> <Gold.Protein.RotatedTorsions>
[ 6907 6896 6895 6894 ] final -168.79 input  -60.11 | X-H torsion
[ 7974 7965 7964 7962 ] final  157.89 input  175.53 | X-H torsion
[ 8008 7997 7996 7995 ] final   32.66 input   59.86 | X-H torsion
[ 10167 10162 10161 10158 ] final  -21.58 input  -65.29 | X-H torsion
[ 10718 10713 10712 10709 ] final  178.63 input   66.30 | X-H torsion
[ 10763 10752 10751 10750 ] final   64.05 input  -60.55 | X-H torsion
[ 11005 11000 10999 10996 ] final  -96.36 input  -57.11 | X-H torsion

> <Gold.Protein.ActiveResidues>
 VAL166  LYS551  ARG553  GLY616  TRP617  ASP618  TYR619  PRO620  LYS621  CYS622 
 ASP623  PHE694  ASN695  SER759  ASP760  ASP761  ALA762  ILE779  LEU786  VAL792 
 PHE793  MET794  SER795  GLU796  ALA797  LYS798  CYS799  TRP800  GLU811  SER814 

> <Gold.Protein.RotatedAtoms>
  151.4812  133.3546  159.2838 H   0  0  0  0  0  0  0  0  0  0  0  0  # atno 6907 bound_to 6896
  150.8896  134.8300  159.7295 H   0  0  0  0  0  0  0  0  0  0  0  0  # atno 6908 bound_to 6896
  152.4815  134.4720  159.9690 H   0  0  0  0  0  0  0  0  0  0  0  0  # atno 6909 bound_to 6896
  144.7877  139.7402  143.6234 H   0  0  0  0  0  0  0  0  0  0  0  0  # atno 7974 bound_to 7965
  155.1261  140.3253  155.4485 H   0  0  0  0  0  0  0  0  0  0  0  0  # atno 8008 bound_to 7997
  156.2648  140.2018  156.6330 H   0  0  0  0  0  0  0  0  0  0  0  0  # atno 8009 bound_to 7997
  154.6647  140.0543  157.0087 H   0  0  0  0  0  0  0  0  0  0  0  0  # atno 8010 bound_to 7997
  140.7282  143.4615  151.0374 H   0  0  0  0  0  0  0  0  0  0  0  0  # atno 10167 bound_to 10162
  156.8877  130.9837  151.3053 H   0  0  0  0  0  0  0  0  0  0  0  0  # atno 10718 bound_to 10713
  153.0040  135.5407  154.6448 H   0  0  0  0  0  0  0  0  0  0  0  0  # atno 10763 bound_to 10752
  154.5694  135.2840  155.0844 H   0  0  0  0  0  0  0  0  0  0  0  0  # atno 10764 bound_to 10752
  154.2015  135.6483  153.5141 H   0  0  0  0  0  0  0  0  0  0  0  0  # atno 10765 bound_to 10752
  141.1414  133.8092  157.0561 H   0  0  0  0  0  0  0  0  0  0  0  0  # atno 11005 bound_to 11000
  146.2116  139.5477  142.9677 LP  0  0  0  0  0  0  0  0  0  0  0  0  # atno 17320 bound_to 7965
  145.5877  141.0374  143.2087 LP  0  0  0  0  0  0  0  0  0  0  0  0  # atno 17321 bound_to 7965
  139.8299  143.7705  152.3179 LP  0  0  0  0  0  0  0  0  0  0  0  0  # atno 17342 bound_to 10162
  139.7817  144.7442  151.0079 LP  0  0  0  0  0  0  0  0  0  0  0  0  # atno 17343 bound_to 10162
  157.6103  130.8577  149.8940 LP  0  0  0  0  0  0  0  0  0  0  0  0  # atno 17370 bound_to 10713
  156.0645  130.3694  150.0909 LP  0  0  0  0  0  0  0  0  0  0  0  0  # atno 17371 bound_to 10713
  140.0601  134.9759  157.1289 LP  0  0  0  0  0  0  0  0  0  0  0  0  # atno 17394 bound_to 11000
  140.3861  134.2235  155.7168 LP  0  0  0  0  0  0  0  0  0  0  0  0  # atno 17395 bound_to 11000

$$$$
