AV-unprocessed.smi:107|AV-procd|sdf|1013|dock4
  -GOLD-   2262018 13D 1   1.00000     0.00000
 Structure written by MMmdl.
 31 32  0  0  0  0  0  0  0  0  1 V2000
  150.3904  143.6083  158.6270 C   0  0  0  0  0  0  0  0  0  0  0  0
  151.3549  142.4340  158.6171 C   0  0  0  0  0  0  0  0  0  0  0  0
  151.1151  141.3016  157.9078 C   0  0  0  0  0  0  0  0  0  0  0  0
  151.9756  140.2132  157.8776 N   0  0  0  0  0  0  0  0  0  0  0  0
  151.6458  138.9797  157.0675 C   0  0  2  0  0  0  0  0  0  0  0  0
  152.5800  138.8523  155.8596 C   0  0  0  0  0  0  0  0  0  0  0  0
  151.6381  138.3672  154.7755 C   0  0  1  0  0  0  0  0  0  0  0  0
  151.5444  136.9549  154.7917 O   0  0  0  0  0  0  0  0  0  0  0  0
  150.3179  139.0456  155.1685 C   0  0  1  0  0  0  0  0  0  0  0  0
  149.0212  138.4002  154.6496 C   0  0  0  0  0  0  0  0  0  0  0  0
  148.9183  137.0690  155.1085 O   0  0  0  0  0  0  0  0  0  0  0  0
  150.3343  139.0845  156.5937 O   0  0  0  0  0  0  0  0  0  0  0  0
  153.1856  140.2696  158.6005 C   0  0  0  0  0  0  0  0  0  0  0  0
  154.0123  139.3583  158.6005 O   0  0  0  0  0  0  0  0  0  0  0  0
  153.4310  141.4303  159.3322 N   0  0  0  0  0  0  0  0  0  0  0  0
  152.5875  142.5419  159.4020 C   0  0  0  0  0  0  0  0  0  0  0  0
  152.9139  143.5102  160.0866 O   0  0  0  0  0  0  0  0  0  0  0  0
  154.2944  141.4735  159.8539 H   0  0  0  0  0  0  0  0  0  0  0  0
  149.5113  143.4148  158.0116 H   0  0  0  0  0  0  0  0  0  0  0  0
  150.8778  144.5045  158.2414 H   0  0  0  0  0  0  0  0  0  0  0  0
  150.0491  143.8132  159.6423 H   0  0  0  0  0  0  0  0  0  0  0  0
  150.2037  141.2506  157.3318 H   0  0  0  0  0  0  0  0  0  0  0  0
  151.6817  138.1155  157.7323 H   0  0  0  0  0  0  0  0  0  0  0  0
  152.9753  139.8342  155.5950 H   0  0  0  0  0  0  0  0  0  0  0  0
  153.4152  138.1827  156.0687 H   0  0  0  0  0  0  0  0  0  0  0  0
  151.9699  138.6764  153.7839 H   0  0  0  0  0  0  0  0  0  0  0  0
  151.0668  136.6780  154.0243 H   0  0  0  0  0  0  0  0  0  0  0  0
  150.3540  140.0811  154.8270 H   0  0  0  0  0  0  0  0  0  0  0  0
  148.1405  138.9655  154.9547 H   0  0  0  0  0  0  0  0  0  0  0  0
  149.0257  138.3857  153.5595 H   0  0  0  0  0  0  0  0  0  0  0  0
  148.7155  136.5123  154.3720 H   0  0  0  0  0  0  0  0  0  0  0  0
  1  2  1  0  0  0  0
  1 19  1  0  0  0  0
  1 20  1  0  0  0  0
  1 21  1  0  0  0  0
  2 16  1  0  0  0  0
  2  3  2  0  0  0  0
  3  4  1  0  0  0  0
  3 22  1  0  0  0  0
  4  5  1  0  0  0  0
  4 13  1  0  0  0  0
  5 12  1  0  0  0  0
  5  6  1  0  0  0  0
  5 23  1  0  0  0  0
  6  7  1  0  0  0  0
  6 24  1  0  0  0  0
  6 25  1  0  0  0  0
  7  8  1  0  0  0  0
  7  9  1  0  0  0  0
  7 26  1  0  0  0  0
  8 27  1  0  0  0  0
  9 10  1  0  0  0  0
  9 12  1  0  0  0  0
  9 28  1  0  0  0  0
 10 11  1  0  0  0  0
 10 29  1  0  0  0  0
 10 30  1  0  0  0  0
 11 31  1  0  0  0  0
 13 14  2  0  0  0  0
 13 15  1  0  0  0  0
 15 18  1  0  0  0  0
 15 16  1  0  0  0  0
 16 17  2  0  0  0  0
M  END
> <s_m_source_file>
AV-unprocessed.smi

> <i_m_source_file_index>
107

> <i_lp_mmshare_version>
43012

> <i_f3d_flags>
0

> <s_epik_input>
Tz1jMVtuSF1jKD1PKW4oW2NIXWMxW0NIM10pW0NAQEhdMltDSDJdW0NAQEhdKFtPSF0pW0NASF0oTzIpW0NIMl1bT0hd

> <s_epik_cmdline>
J2VwaWtfcHl0aG9uJywgJy1waCcsICc3LjAnLCAnLXRuJywgJzgnLCAnLW1hJywgJzIwMCcsICctbWV0YWxfYmluZGluZycsICctaW1hZScsICc8aW5maWxlLm1hZT4nLCAnLW9tYWUnLCAnPG91dGZpbGUubWFlPic=

> <r_lp_tautomer_probability>
0.999537

> <r_epik_Ionization_Penalty>
0.00121888

> <r_epik_Ionization_Penalty_Charging>
0.00121876

> <r_epik_Ionization_Penalty_Neutral>
1.19946e-07

> <r_epik_State_Penalty>
0.000805124

> <r_epik_Charging_Adjusted_Penalty>
0.00202389

> <i_epik_Tot_Q>
0

> <i_epik_Tot_abs_Q>
0

> <r_epik_Metal_State_Penalty>
0.662472

> <b_epik_Metal_Only>
0

> <s_epik_Chemistry_Notes>
This compound contains an acetal/aminal-like group ( X-CH(R)-Y where X, Y are N, S, or O) that may be acid/base labile, releasing an aldehyde.

> <s_lp_Force_Field>
OPLS_2005

> <r_lp_Energy>
27.6975

> <b_lp_Chiralities_Consistent>
1

> <s_lp_Variant>
AV-unprocessed.smi:107-1

> <Gold.Version>
5.8.1

> <Gold.Id.Protein>
6NUR|6NUR_protein|mol2

> <Gold.PLP.Fitness>
37.6323

> <Gold.PLP.PLP>
-26.9810

> <Gold.PLP.part.hbond>
-4.0000

> <Gold.PLP.part.metal>
0.0000

> <Gold.PLP.part.buried>
-1.1777

> <Gold.PLP.part.nonpolar>
-20.2356

> <Gold.PLP.part.repulsive>
0.0857

> <Gold.PLP.ligand.clash>
0.0000

> <Gold.PLP.ligand.torsion>
0.1497

> <Gold.PLP.Chemscore.Hbond>
3.6495

> <Gold.PLP.Chemscore.CHOScore>
0.0000

> <Gold.PLP.Chemscore.Metal>
0.0000

> <Gold.Chemscore.Hbonds>
donor molecule, donor type, donor heavy atom, donor atom, acceptor molecule, acceptor atom, score
      P1  H  7997  8008       L1    14  0.85
      P1  H 10752 10765       L1     8  0.45

> <Gold.PLP.Chemscore.Internal.Correction>
0.0021

> <Gold.Rescore>
     Score         DG    S(hbond)    S(metal)    S(lipo)     H(rot)  DE(clash)    DE(int)     intcor
     10.62     -11.49       2.07        0.00      51.98       2.73       0.77       0.10       ----

> <Gold.Chemscore.Fitness>
10.6168

> <Gold.Chemscore.DG>
-11.4898

> <Gold.Chemscore.ZeroCoef>
-5.4800

> <Gold.Chemscore.Hbond>
2.0673

> <Gold.Chemscore.Metal>
0.0000

> <Gold.Chemscore.Lipo>
51.9835

> <Gold.Chemscore.Internal_Hbond>
0.0000

> <Gold.Chemscore.DEClash>
0.7731

> <Gold.Chemscore.DEInternal>
0.0999

> <Gold.Chemscore.Rot>
2.7253

> <Gold.Chemscore.Internal.Correction>
   9.000000E+99

> <Gold.Chemscore.Hbonds>
donor molecule, donor type, donor heavy atom, donor atom, acceptor molecule, acceptor atom, score
      L1  H    11    31       P1  7948  0.01
      P1  H  7997  8008       L1    14  0.14
      P1  H 10752 10765       L1     8  0.02

> <Gold.Chemscore.Hbond.Weighted>
-6.9046

> <Gold.Chemscore.Metal.Weighted>
-0.0000

> <Gold.Chemscore.Lipo.Weighted>
-6.0821

> <Gold.Chemscore.Internal_Hbond.Weighted>
0.0000

> <Gold.Chemscore.DEClash.Weighted>
0.7731

> <Gold.Chemscore.DEInternal.Weighted>
0.0999

> <Gold.Chemscore.Rot.Weighted>
6.9769

> <Gold.Chemscore.Internal.Correction.Weighted>
   9.000000E+99

> <Gold.Protein.RotatedTorsions>
[ 6907 6896 6895 6894 ] final  -84.41 input  -60.11 | X-H torsion
[ 7974 7965 7964 7962 ] final -115.98 input  175.53 | X-H torsion
[ 8008 7997 7996 7995 ] final -119.04 input   59.86 | X-H torsion
[ 10167 10162 10161 10158 ] final -130.97 input  -65.29 | X-H torsion
[ 10718 10713 10712 10709 ] final -176.32 input   66.30 | X-H torsion
[ 10763 10752 10751 10750 ] final  164.54 input  -60.55 | X-H torsion
[ 11005 11000 10999 10996 ] final   55.08 input  -57.11 | X-H torsion

> <Gold.Protein.ActiveResidues>
 VAL166  LYS551  ARG553  GLY616  TRP617  ASP618  TYR619  PRO620  LYS621  CYS622 
 ASP623  PHE694  ASN695  SER759  ASP760  ASP761  ALA762  ILE779  LEU786  VAL792 
 PHE793  MET794  SER795  GLU796  ALA797  LYS798  CYS799  TRP800  GLU811  SER814 

> <Gold.Protein.RotatedAtoms>
  150.6877  134.3362  159.4847 H   0  0  0  0  0  0  0  0  0  0  0  0  # atno 6907 bound_to 6896
  152.1221  134.9195  160.0572 H   0  0  0  0  0  0  0  0  0  0  0  0  # atno 6908 bound_to 6896
  152.0398  133.3938  159.4369 H   0  0  0  0  0  0  0  0  0  0  0  0  # atno 6909 bound_to 6896
  145.1021  140.8558  143.3920 H   0  0  0  0  0  0  0  0  0  0  0  0  # atno 7974 bound_to 7965
  155.1093  140.0397  157.2719 H   0  0  0  0  0  0  0  0  0  0  0  0  # atno 8008 bound_to 7997
  154.6697  140.2609  155.6994 H   0  0  0  0  0  0  0  0  0  0  0  0  # atno 8009 bound_to 7997
  156.2653  140.2800  156.1202 H   0  0  0  0  0  0  0  0  0  0  0  0  # atno 8010 bound_to 7997
  139.9238  143.6351  152.2547 H   0  0  0  0  0  0  0  0  0  0  0  0  # atno 10167 bound_to 10162
  156.8130  130.9593  151.3115 H   0  0  0  0  0  0  0  0  0  0  0  0  # atno 10718 bound_to 10713
  154.3104  135.2757  155.2568 H   0  0  0  0  0  0  0  0  0  0  0  0  # atno 10763 bound_to 10752
  154.4966  135.5819  153.6503 H   0  0  0  0  0  0  0  0  0  0  0  0  # atno 10764 bound_to 10752
  152.9889  135.6147  154.3281 H   0  0  0  0  0  0  0  0  0  0  0  0  # atno 10765 bound_to 10752
  140.0635  134.5569  155.9125 H   0  0  0  0  0  0  0  0  0  0  0  0  # atno 11005 bound_to 11000
  145.0944  139.2867  143.5718 LP  0  0  0  0  0  0  0  0  0  0  0  0  # atno 17320 bound_to 7965
  146.3529  140.0491  142.8637 LP  0  0  0  0  0  0  0  0  0  0  0  0  # atno 17321 bound_to 7965
  139.6839  144.7653  151.1558 LP  0  0  0  0  0  0  0  0  0  0  0  0  # atno 17342 bound_to 10162
  140.7655  143.5685  150.9022 LP  0  0  0  0  0  0  0  0  0  0  0  0  # atno 17343 bound_to 10162
  157.6496  130.8873  149.9607 LP  0  0  0  0  0  0  0  0  0  0  0  0  # atno 17370 bound_to 10713
  156.1033  130.3654  150.0178 LP  0  0  0  0  0  0  0  0  0  0  0  0  # atno 17371 bound_to 10713
  141.1983  133.6601  156.5785 LP  0  0  0  0  0  0  0  0  0  0  0  0  # atno 17394 bound_to 11000
  140.3734  134.7586  157.4614 LP  0  0  0  0  0  0  0  0  0  0  0  0  # atno 17395 bound_to 11000

$$$$
