AV-unprocessed.smi:3122|AV-procd|sdf|11896|dock3
  -GOLD-   2272017283D 1   1.00000     0.00000
 Structure written by MMmdl.
 30 31  0  0  0  0  0  0  0  0  2 V2000
  152.2513  144.1521  158.7039 C   0  0  0  0  0  0  0  0  0  0  0  0
  151.9678  142.8433  159.4543 C   0  0  0  0  0  0  0  0  0  0  0  0
  152.8476  142.6860  160.7032 C   0  0  0  0  0  0  0  0  0  0  0  0
  152.0681  141.6573  158.5472 C   0  0  0  0  0  0  0  0  0  0  0  0
  152.8895  140.6101  158.6651 N   0  0  0  0  0  0  0  0  0  0  0  0
  152.6608  139.8249  157.5584 N   0  0  0  0  0  0  0  0  0  0  0  0
  151.7520  140.4788  156.8300 C   0  0  0  0  0  0  0  0  0  0  0  0
  151.1125  140.0348  155.5541 C   0  0  2  0  0  0  0  0  0  0  0  0
  150.0015  140.9961  155.0910 C   0  0  0  0  0  0  0  0  0  0  0  0
  149.3421  140.4611  153.8836 N   0  3  0  0  0  0  0  0  0  0  0  0
  148.8426  139.0891  154.1034 C   0  0  0  0  0  0  0  0  0  0  0  0
  149.9815  138.1843  154.6059 C   0  0  0  0  0  0  0  0  0  0  0  0
  150.5551  138.7428  155.7834 O   0  0  0  0  0  0  0  0  0  0  0  0
  151.3347  141.6373  157.4034 O   0  0  0  0  0  0  0  0  0  0  0  0
  151.5678  144.2793  157.8639 H   0  0  0  0  0  0  0  0  0  0  0  0
  153.2686  144.1713  158.3112 H   0  0  0  0  0  0  0  0  0  0  0  0
  152.1318  145.0146  159.3601 H   0  0  0  0  0  0  0  0  0  0  0  0
  150.9342  142.8909  159.7999 H   0  0  0  0  0  0  0  0  0  0  0  0
  152.5855  141.7833  161.2559 H   0  0  0  0  0  0  0  0  0  0  0  0
  152.7250  143.5332  161.3786 H   0  0  0  0  0  0  0  0  0  0  0  0
  153.9041  142.6213  160.4406 H   0  0  0  0  0  0  0  0  0  0  0  0
  151.8905  139.9621  154.7918 H   0  0  0  0  0  0  0  0  0  0  0  0
  149.2557  141.1232  155.8774 H   0  0  0  0  0  0  0  0  0  0  0  0
  150.4103  141.9831  154.8723 H   0  0  0  0  0  0  0  0  0  0  0  0
  148.5721  141.0624  153.6261 H   0  0  0  0  0  0  0  0  0  0  0  0
  148.0323  139.1149  154.8331 H   0  0  0  0  0  0  0  0  0  0  0  0
  148.4264  138.7018  153.1732 H   0  0  0  0  0  0  0  0  0  0  0  0
  149.5981  137.1903  154.8368 H   0  0  0  0  0  0  0  0  0  0  0  0
  150.7477  138.0602  153.8390 H   0  0  0  0  0  0  0  0  0  0  0  0
  150.0127  140.4437  153.1283 H   0  0  0  0  0  0  0  0  0  0  0  0
  1  2  1  0  0  0  0
  1 15  1  0  0  0  0
  1 16  1  0  0  0  0
  1 17  1  0  0  0  0
  2  3  1  0  0  0  0
  2  4  1  0  0  0  0
  2 18  1  0  0  0  0
  3 19  1  0  0  0  0
  3 20  1  0  0  0  0
  3 21  1  0  0  0  0
  4 14  1  0  0  0  0
  4  5  2  0  0  0  0
  5  6  1  0  0  0  0
  6  7  2  0  0  0  0
  7  8  1  0  0  0  0
  7 14  1  0  0  0  0
  8 13  1  0  0  0  0
  8  9  1  0  0  0  0
  8 22  1  0  0  0  0
  9 10  1  0  0  0  0
  9 23  1  0  0  0  0
  9 24  1  0  0  0  0
 10 11  1  0  0  0  0
 10 25  1  0  0  0  0
 10 30  1  0  0  0  0
 11 12  1  0  0  0  0
 11 26  1  0  0  0  0
 11 27  1  0  0  0  0
 12 13  1  0  0  0  0
 12 28  1  0  0  0  0
 12 29  1  0  0  0  0
M  CHG  1  10   1
M  END
> <s_m_source_file>
AV-unprocessed.smi

> <i_m_source_file_index>
3122

> <i_lp_mmshare_version>
43012

> <i_f3d_flags>
0

> <s_epik_input>
W0NIM11bQ0hdKFtDSDNdKWMxbm5jKG8xKVtDQEBIXTJbQ0gyXVtOSF1bQ0gyXVtDSDJdTzI=

> <s_epik_cmdline>
J2VwaWtfcHl0aG9uJywgJy1waCcsICc3LjAnLCAnLXRuJywgJzgnLCAnLW1hJywgJzIwMCcsICctbWV0YWxfYmluZGluZycsICctaW1hZScsICc8aW5maWxlLm1hZT4nLCAnLW9tYWUnLCAnPG91dGZpbGUubWFlPic=

> <r_lp_tautomer_probability>
1

> <r_epik_Ionization_Penalty>
0.0380945

> <r_epik_Ionization_Penalty_Charging>
0.0380945

> <r_epik_Ionization_Penalty_Neutral>
3.26791e-13

> <r_epik_State_Penalty>
0.0319257

> <r_epik_Charging_Adjusted_Penalty>
0.0700202

> <i_epik_Tot_Q>
1

> <i_epik_Tot_abs_Q>
1

> <r_epik_Metal_State_Penalty>
0.0319257

> <b_epik_Metal_Only>
0

> <s_lp_Force_Field>
OPLS_2005

> <r_lp_Energy>
10.6056

> <b_lp_Chiralities_Consistent>
1

> <s_lp_Variant>
AV-unprocessed.smi:3122-1

> <Gold.Version>
5.8.1

> <Gold.Id.Protein>
6NUR|6NUR_protein|mol2

> <Gold.PLP.Fitness>
32.8558

> <Gold.PLP.PLP>
-28.0640

> <Gold.PLP.part.hbond>
-2.9109

> <Gold.PLP.part.metal>
0.0000

> <Gold.PLP.part.buried>
-0.1449

> <Gold.PLP.part.nonpolar>
-23.8366

> <Gold.PLP.part.repulsive>
0.2148

> <Gold.PLP.ligand.clash>
0.0000

> <Gold.PLP.ligand.torsion>
0.0802

> <Gold.PLP.Chemscore.Hbond>
1.6185

> <Gold.PLP.Chemscore.CHOScore>
0.0000

> <Gold.PLP.Chemscore.Metal>
0.0000

> <Gold.Chemscore.Hbonds>
donor molecule, donor type, donor heavy atom, donor atom, acceptor molecule, acceptor atom, score
      L1  H    10    30       P1  7957  0.53
      P1  H  7997  8010       L1     6  1.00

> <Gold.PLP.Chemscore.Internal.Correction>
0.0966

> <Gold.Rescore>
     Score         DG    S(hbond)    S(metal)    S(lipo)     H(rot)  DE(clash)    DE(int)     intcor
     13.56     -13.71       1.40        0.00      57.91       1.26       0.09       0.07       ----

> <Gold.Chemscore.Fitness>
13.5593

> <Gold.Chemscore.DG>
-13.7127

> <Gold.Chemscore.ZeroCoef>
-5.4800

> <Gold.Chemscore.Hbond>
1.4039

> <Gold.Chemscore.Metal>
0.0000

> <Gold.Chemscore.Lipo>
57.9115

> <Gold.Chemscore.Internal_Hbond>
0.0000

> <Gold.Chemscore.DEClash>
0.0853

> <Gold.Chemscore.DEInternal>
0.0682

> <Gold.Chemscore.Rot>
1.2625

> <Gold.Chemscore.Internal.Correction>
   9.000000E+99

> <Gold.Chemscore.Hbonds>
donor molecule, donor type, donor heavy atom, donor atom, acceptor molecule, acceptor atom, score
      L1  H    10    30       P1  7957  0.49
      P1  H  7997  8010       L1     6  0.11

> <Gold.Chemscore.Hbond.Weighted>
-4.6891

> <Gold.Chemscore.Metal.Weighted>
-0.0000

> <Gold.Chemscore.Lipo.Weighted>
-6.7757

> <Gold.Chemscore.Internal_Hbond.Weighted>
0.0000

> <Gold.Chemscore.DEClash.Weighted>
0.0853

> <Gold.Chemscore.DEInternal.Weighted>
0.0682

> <Gold.Chemscore.Rot.Weighted>
3.2320

> <Gold.Chemscore.Internal.Correction.Weighted>
   9.000000E+99

> <Gold.Protein.RotatedTorsions>
[ 6907 6896 6895 6894 ] final   -3.31 input  -60.11 | X-H torsion
[ 7974 7965 7964 7962 ] final   85.39 input  175.53 | X-H torsion
[ 8008 7997 7996 7995 ] final   65.86 input   59.86 | X-H torsion
[ 10167 10162 10161 10158 ] final  156.76 input  -65.29 | X-H torsion
[ 10718 10713 10712 10709 ] final  -55.06 input   66.30 | X-H torsion
[ 10763 10752 10751 10750 ] final   34.86 input  -60.55 | X-H torsion
[ 11005 11000 10999 10996 ] final  -14.18 input  -57.11 | X-H torsion

> <Gold.Protein.ActiveResidues>
 VAL166  LYS551  ARG553  GLY616  TRP617  ASP618  TYR619  PRO620  LYS621  CYS622 
 ASP623  PHE694  ASN695  SER759  ASP760  ASP761  ALA762  ILE779  LEU786  VAL792 
 PHE793  MET794  SER795  GLU796  ALA797  LYS798  CYS799  TRP800  GLU811  SER814 

> <Gold.Protein.RotatedAtoms>
  151.5158  135.1066  159.9865 H   0  0  0  0  0  0  0  0  0  0  0  0  # atno 6907 bound_to 6896
  152.4642  133.7883  159.6898 H   0  0  0  0  0  0  0  0  0  0  0  0  # atno 6908 bound_to 6896
  150.8618  133.7569  159.3015 H   0  0  0  0  0  0  0  0  0  0  0  0  # atno 6909 bound_to 6896
  145.5861  139.2331  143.2325 H   0  0  0  0  0  0  0  0  0  0  0  0  # atno 7974 bound_to 7965
  155.6684  140.3497  155.4809 H   0  0  0  0  0  0  0  0  0  0  0  0  # atno 8008 bound_to 7997
  155.9709  140.1155  157.0836 H   0  0  0  0  0  0  0  0  0  0  0  0  # atno 8009 bound_to 7997
  154.4166  140.1157  156.5291 H   0  0  0  0  0  0  0  0  0  0  0  0  # atno 8010 bound_to 7997
  139.4821  144.4979  151.8212 H   0  0  0  0  0  0  0  0  0  0  0  0  # atno 10167 bound_to 10162
  156.1399  130.4155  150.0121 H   0  0  0  0  0  0  0  0  0  0  0  0  # atno 10718 bound_to 10713
  153.0145  135.6349  154.1735 H   0  0  0  0  0  0  0  0  0  0  0  0  # atno 10763 bound_to 10752
  154.1475  135.2831  155.3146 H   0  0  0  0  0  0  0  0  0  0  0  0  # atno 10764 bound_to 10752
  154.6078  135.5566  153.7503 H   0  0  0  0  0  0  0  0  0  0  0  0  # atno 10765 bound_to 10752
  140.7837  133.8342  155.9315 H   0  0  0  0  0  0  0  0  0  0  0  0  # atno 11005 bound_to 11000
  146.1681  140.6688  142.9246 LP  0  0  0  0  0  0  0  0  0  0  0  0  # atno 17320 bound_to 7965
  144.7372  140.4841  143.6895 LP  0  0  0  0  0  0  0  0  0  0  0  0  # atno 17321 bound_to 7965
  140.4470  144.1908  150.5894 LP  0  0  0  0  0  0  0  0  0  0  0  0  # atno 17342 bound_to 10162
  140.4625  143.2443  151.9201 LP  0  0  0  0  0  0  0  0  0  0  0  0  # atno 17343 bound_to 10162
  156.8009  130.9290  151.3646 LP  0  0  0  0  0  0  0  0  0  0  0  0  # atno 17370 bound_to 10713
  157.6566  130.8930  149.9742 LP  0  0  0  0  0  0  0  0  0  0  0  0  # atno 17371 bound_to 10713
  140.9457  134.1843  157.4765 LP  0  0  0  0  0  0  0  0  0  0  0  0  # atno 17394 bound_to 11000
  139.8739  134.9889  156.5435 LP  0  0  0  0  0  0  0  0  0  0  0  0  # atno 17395 bound_to 11000

$$$$
