AV-unprocessed.smi:99|AV-procd|sdf|866|dock5
  -GOLD-   2262017323D 1   1.00000     0.00000
 Structure written by MMmdl.
 53 56  0  0  0  0  0  0  0  0  1 V2000
  148.4730  136.9046  161.7251 O   0  0  0  0  0  0  0  0  0  0  0  0
  147.8652  136.3090  160.8333 C   0  0  0  0  0  0  0  0  0  0  0  0
  147.7840  136.7500  159.5634 O   0  0  0  0  0  0  0  0  0  0  0  0
  148.6802  137.7463  159.1023 C   0  0  0  0  0  0  0  0  0  0  0  0
  150.1156  137.1929  159.1452 C   0  0  1  0  0  0  0  0  0  0  0  0
  150.1564  135.9013  158.5371 O   0  0  0  0  0  0  0  0  0  0  0  0
  150.6149  135.9664  157.2130 C   0  0  1  0  0  0  0  0  0  0  0  0
  149.5721  135.3806  156.2808 N   0  0  0  0  0  0  0  0  0  0  0  0
  148.3654  134.8625  156.7366 C   0  0  0  0  0  0  0  0  0  0  0  0
  147.4294  134.3362  155.9119 C   0  0  0  0  0  0  0  0  0  0  0  0
  147.6547  134.2856  154.4712 C   0  0  0  0  0  0  0  0  0  0  0  0
  146.8669  133.8283  153.6461 O   0  0  0  0  0  0  0  0  0  0  0  0
  148.8815  134.8120  154.0571 N   0  0  0  0  0  0  0  0  0  0  0  0
  149.8533  135.3571  154.8973 C   0  0  0  0  0  0  0  0  0  0  0  0
  150.9024  135.7957  154.4266 O   0  0  0  0  0  0  0  0  0  0  0  0
  150.9520  137.4436  156.9075 C   0  0  1  0  0  0  0  0  0  0  0  0
  149.9216  138.1168  156.1997 O   0  0  0  0  0  0  0  0  0  0  0  0
  151.1257  137.9872  158.3184 C   0  0  1  0  0  0  0  0  0  0  0  0
  150.9931  139.4008  158.4237 O   0  0  0  0  0  0  0  0  0  0  0  0
  152.0789  140.2000  158.4801 C   0  0  0  0  0  0  0  0  0  0  0  0
  153.2368  139.7882  158.3859 O   0  0  0  0  0  0  0  0  0  0  0  0
  151.7267  141.6376  158.6614 C   0  0  0  0  0  0  0  0  0  0  0  0
  152.7414  142.5635  158.9986 C   0  0  0  0  0  0  0  0  0  0  0  0
  152.4380  143.9280  159.1726 C   0  0  0  0  0  0  0  0  0  0  0  0
  151.1166  144.3832  159.0101 C   0  0  0  0  0  0  0  0  0  0  0  0
  150.0982  143.4721  158.6745 C   0  0  0  0  0  0  0  0  0  0  0  0
  150.3992  142.1071  158.5016 C   0  0  0  0  0  0  0  0  0  0  0  0
  147.1429  135.0221  161.0471 C   0  0  0  0  0  0  0  0  0  0  0  0
  146.3657  134.8494  162.2163 C   0  0  0  0  0  0  0  0  0  0  0  0
  145.6715  133.6453  162.4446 C   0  0  0  0  0  0  0  0  0  0  0  0
  145.7450  132.5999  161.5058 C   0  0  0  0  0  0  0  0  0  0  0  0
  146.5132  132.7600  160.3378 C   0  0  0  0  0  0  0  0  0  0  0  0
  147.2087  133.9632  160.1080 C   0  0  0  0  0  0  0  0  0  0  0  0
  149.0805  134.7968  153.0674 H   0  0  0  0  0  0  0  0  0  0  0  0
  148.4073  138.0615  158.0953 H   0  0  0  0  0  0  0  0  0  0  0  0
  148.5946  138.6187  159.7514 H   0  0  0  0  0  0  0  0  0  0  0  0
  150.4478  137.1295  160.1820 H   0  0  0  0  0  0  0  0  0  0  0  0
  151.4817  135.3065  157.1370 H   0  0  0  0  0  0  0  0  0  0  0  0
  148.1370  134.8639  157.7907 H   0  0  0  0  0  0  0  0  0  0  0  0
  146.5080  133.9480  156.3213 H   0  0  0  0  0  0  0  0  0  0  0  0
  151.8739  137.5037  156.3283 H   0  0  0  0  0  0  0  0  0  0  0  0
  149.8857  139.0118  156.5009 H   0  0  0  0  0  0  0  0  0  0  0  0
  152.1151  137.6929  158.6732 H   0  0  0  0  0  0  0  0  0  0  0  0
  153.7636  142.2377  159.1275 H   0  0  0  0  0  0  0  0  0  0  0  0
  153.2209  144.6260  159.4303 H   0  0  0  0  0  0  0  0  0  0  0  0
  150.8846  145.4296  159.1423 H   0  0  0  0  0  0  0  0  0  0  0  0
  149.0834  143.8199  158.5483 H   0  0  0  0  0  0  0  0  0  0  0  0
  149.5932  141.4357  158.2434 H   0  0  0  0  0  0  0  0  0  0  0  0
  146.2947  135.6380  162.9518 H   0  0  0  0  0  0  0  0  0  0  0  0
  145.0826  133.5245  163.3421 H   0  0  0  0  0  0  0  0  0  0  0  0
  145.2131  131.6767  161.6813 H   0  0  0  0  0  0  0  0  0  0  0  0
  146.5699  131.9585  159.6159 H   0  0  0  0  0  0  0  0  0  0  0  0
  147.7869  134.0539  159.1999 H   0  0  0  0  0  0  0  0  0  0  0  0
  1  2  2  0  0  0  0
  2  3  1  0  0  0  0
  2 28  1  0  0  0  0
  3  4  1  0  0  0  0
  4  5  1  0  0  0  0
  4 35  1  0  0  0  0
  4 36  1  0  0  0  0
  5 18  1  0  0  0  0
  5  6  1  0  0  0  0
  5 37  1  0  0  0  0
  6  7  1  0  0  0  0
  7  8  1  0  0  0  0
  7 16  1  0  0  0  0
  7 38  1  0  0  0  0
  8 14  1  0  0  0  0
  8  9  1  0  0  0  0
  9 10  2  0  0  0  0
  9 39  1  0  0  0  0
 10 11  1  0  0  0  0
 10 40  1  0  0  0  0
 11 12  2  0  0  0  0
 11 13  1  0  0  0  0
 13 34  1  0  0  0  0
 13 14  1  0  0  0  0
 14 15  2  0  0  0  0
 16 17  1  0  0  0  0
 16 18  1  0  0  0  0
 16 41  1  0  0  0  0
 17 42  1  0  0  0  0
 18 19  1  0  0  0  0
 18 43  1  0  0  0  0
 19 20  1  0  0  0  0
 20 21  2  0  0  0  0
 20 22  1  0  0  0  0
 22 27  1  0  0  0  0
 22 23  2  0  0  0  0
 23 24  1  0  0  0  0
 23 44  1  0  0  0  0
 24 25  2  0  0  0  0
 24 45  1  0  0  0  0
 25 26  1  0  0  0  0
 25 46  1  0  0  0  0
 26 27  2  0  0  0  0
 26 47  1  0  0  0  0
 27 48  1  0  0  0  0
 28 33  1  0  0  0  0
 28 29  2  0  0  0  0
 29 30  1  0  0  0  0
 29 49  1  0  0  0  0
 30 31  2  0  0  0  0
 30 50  1  0  0  0  0
 31 32  1  0  0  0  0
 31 51  1  0  0  0  0
 32 33  2  0  0  0  0
 32 52  1  0  0  0  0
 33 53  1  0  0  0  0
M  END
> <s_m_source_file>
AV-unprocessed.smi

> <i_m_source_file_index>
99

> <i_lp_mmshare_version>
43012

> <i_f3d_flags>
0

> <s_epik_input>
W2NIXTFbY0hdW2NIXVtjSF1bY0hdYzFDKD1PKU9bQ0gyXVtDQEBIXTJPW0NAQEhdKG4zW2NIXVtjSF1jKD1PKVtuSF1jMz1PKVtDQEBIXShbT0hdKVtDQEhdMk9DKD1PKWM0W2NIXVtjSF1bY0hdW2NIXVtjSF00

> <s_epik_cmdline>
J2VwaWtfcHl0aG9uJywgJy1waCcsICc3LjAnLCAnLXRuJywgJzgnLCAnLW1hJywgJzIwMCcsICctbWV0YWxfYmluZGluZycsICctaW1hZScsICc8aW5maWxlLm1hZT4nLCAnLW9tYWUnLCAnPG91dGZpbGUubWFlPic=

> <r_lp_tautomer_probability>
1

> <r_epik_Ionization_Penalty>
0.00454555

> <r_epik_Ionization_Penalty_Charging>
0.0045191

> <r_epik_Ionization_Penalty_Neutral>
2.64449e-05

> <r_epik_State_Penalty>
-0

> <r_epik_Charging_Adjusted_Penalty>
0.0045191

> <i_epik_Tot_Q>
0

> <i_epik_Tot_abs_Q>
0

> <r_epik_Metal_State_Penalty>
1.27877

> <b_epik_Metal_Only>
0

> <s_epik_Chemistry_Notes>
This compound has an ester and may undergo hydrolysis at high or low pH. This compound contains an acetal/aminal-like group ( X-CH(R)-Y where X, Y are N, S, or O) that may be acid/base labile, releasing an aldehyde.

> <s_lp_Force_Field>
OPLS_2005

> <r_lp_Energy>
46.8901

> <b_lp_Chiralities_Consistent>
1

> <s_lp_Variant>
AV-unprocessed.smi:99-2

> <Gold.Version>
5.8.1

> <Gold.Id.Protein>
6NUR|6NUR_protein|mol2

> <Gold.PLP.Fitness>
52.8422

> <Gold.PLP.PLP>
-43.3839

> <Gold.PLP.part.hbond>
-4.7939

> <Gold.PLP.part.metal>
0.0000

> <Gold.PLP.part.buried>
-4.9951

> <Gold.PLP.part.nonpolar>
-35.9803

> <Gold.PLP.part.repulsive>
1.3256

> <Gold.PLP.ligand.clash>
0.0000

> <Gold.PLP.ligand.torsion>
1.6243

> <Gold.PLP.Chemscore.Hbond>
4.1515

> <Gold.PLP.Chemscore.CHOScore>
0.0000

> <Gold.PLP.Chemscore.Metal>
0.0000

> <Gold.Chemscore.Hbonds>
donor molecule, donor type, donor heavy atom, donor atom, acceptor molecule, acceptor atom, score
      L1  H    13    34       P1  7948  0.35
      P1  H  6896  6908       L1     6  1.00
      P1  H  6931  6943       L1     1  0.83
      P1  H  7997  8009       L1    21  1.00
      P1  H 10752 10763       L1    15  1.00

> <Gold.PLP.Chemscore.Internal.Correction>
0.2526

> <Gold.Rescore>
     Score         DG    S(hbond)    S(metal)    S(lipo)     H(rot)  DE(clash)    DE(int)     intcor
     19.66     -22.25       3.70        0.00     107.60       3.19       0.12       2.47       ----

> <Gold.Chemscore.Fitness>
19.6635

> <Gold.Chemscore.DG>
-22.2490

> <Gold.Chemscore.ZeroCoef>
-5.4800

> <Gold.Chemscore.Hbond>
3.6967

> <Gold.Chemscore.Metal>
0.0000

> <Gold.Chemscore.Lipo>
107.5988

> <Gold.Chemscore.Internal_Hbond>
0.0000

> <Gold.Chemscore.DEClash>
0.1169

> <Gold.Chemscore.DEInternal>
2.4685

> <Gold.Chemscore.Rot>
3.1903

> <Gold.Chemscore.Internal.Correction>
   9.000000E+99

> <Gold.Chemscore.Hbonds>
donor molecule, donor type, donor heavy atom, donor atom, acceptor molecule, acceptor atom, score
      L1  H    13    34       P1  7948  0.02
      P1  H  6896  6908       L1     6  0.66
      P1  H  6931  6943       L1     1  0.82
      P1  H  7997  8009       L1    21  0.97
      P1  H 10752 10763       L1    15  0.94

> <Gold.Chemscore.Hbond.Weighted>
-12.3470

> <Gold.Chemscore.Metal.Weighted>
-0.0000

> <Gold.Chemscore.Lipo.Weighted>
-12.5891

> <Gold.Chemscore.Internal_Hbond.Weighted>
0.0000

> <Gold.Chemscore.DEClash.Weighted>
0.1169

> <Gold.Chemscore.DEInternal.Weighted>
2.4685

> <Gold.Chemscore.Rot.Weighted>
8.1671

> <Gold.Chemscore.Internal.Correction.Weighted>
   9.000000E+99

> <Gold.Protein.RotatedTorsions>
[ 6907 6896 6895 6894 ] final -175.95 input  -60.11 | X-H torsion
[ 7974 7965 7964 7962 ] final  133.69 input  175.53 | X-H torsion
[ 8008 7997 7996 7995 ] final  162.68 input   59.86 | X-H torsion
[ 10167 10162 10161 10158 ] final   -1.33 input  -65.29 | X-H torsion
[ 10718 10713 10712 10709 ] final  -48.32 input   66.30 | X-H torsion
[ 10763 10752 10751 10750 ] final   54.06 input  -60.55 | X-H torsion
[ 11005 11000 10999 10996 ] final -120.75 input  -57.11 | X-H torsion

> <Gold.Protein.ActiveResidues>
 VAL166  LYS551  ARG553  GLY616  TRP617  ASP618  TYR619  PRO620  LYS621  CYS622 
 ASP623  PHE694  ASN695  SER759  ASP760  ASP761  ALA762  ILE779  LEU786  VAL792 
 PHE793  MET794  SER795  GLU796  ALA797  LYS798  CYS799  TRP800  GLU811  SER814 

> <Gold.Protein.RotatedAtoms>
  151.5969  133.3360  159.3039 H   0  0  0  0  0  0  0  0  0  0  0  0  # atno 6907 bound_to 6896
  150.8229  134.7449  159.6799 H   0  0  0  0  0  0  0  0  0  0  0  0  # atno 6908 bound_to 6896
  152.4321  134.5763  159.9987 H   0  0  0  0  0  0  0  0  0  0  0  0  # atno 6909 bound_to 6896
  144.9840  139.4475  143.5372 H   0  0  0  0  0  0  0  0  0  0  0  0  # atno 7974 bound_to 7965
  156.2013  140.1744  156.7893 H   0  0  0  0  0  0  0  0  0  0  0  0  # atno 8008 bound_to 7997
  154.5596  140.0702  156.8828 H   0  0  0  0  0  0  0  0  0  0  0  0  # atno 8009 bound_to 7997
  155.2874  140.3353  155.4257 H   0  0  0  0  0  0  0  0  0  0  0  0  # atno 8010 bound_to 7997
  140.6805  143.6788  150.8123 H   0  0  0  0  0  0  0  0  0  0  0  0  # atno 10167 bound_to 10162
  156.1999  130.4156  149.9255 H   0  0  0  0  0  0  0  0  0  0  0  0  # atno 10718 bound_to 10713
  152.9801  135.5758  154.4843 H   0  0  0  0  0  0  0  0  0  0  0  0  # atno 10763 bound_to 10752
  154.4387  135.2775  155.1865 H   0  0  0  0  0  0  0  0  0  0  0  0  # atno 10764 bound_to 10752
  154.3542  135.6202  153.5711 H   0  0  0  0  0  0  0  0  0  0  0  0  # atno 10765 bound_to 10752
  141.0121  134.0249  157.3400 H   0  0  0  0  0  0  0  0  0  0  0  0  # atno 11005 bound_to 11000
  146.3415  139.9130  142.8777 LP  0  0  0  0  0  0  0  0  0  0  0  0  # atno 17320 bound_to 7965
  145.2381  140.9998  143.3952 LP  0  0  0  0  0  0  0  0  0  0  0  0  # atno 17321 bound_to 7965
  140.0488  143.5271  152.2683 LP  0  0  0  0  0  0  0  0  0  0  0  0  # atno 17342 bound_to 10162
  139.6125  144.7612  151.2920 LP  0  0  0  0  0  0  0  0  0  0  0  0  # atno 17343 bound_to 10162
  156.6968  130.8917  151.3595 LP  0  0  0  0  0  0  0  0  0  0  0  0  # atno 17370 bound_to 10713
  157.6979  130.9302  150.0699 LP  0  0  0  0  0  0  0  0  0  0  0  0  # atno 17371 bound_to 10713
  139.9096  135.0187  156.7633 LP  0  0  0  0  0  0  0  0  0  0  0  0  # atno 17394 bound_to 11000
  140.6716  133.9554  155.7860 LP  0  0  0  0  0  0  0  0  0  0  0  0  # atno 17395 bound_to 11000

$$$$
