AV-unprocessed.smi:438|AV-procd|sdf|2574|dock1
  -GOLD-   2262022553D 1   1.00000     0.00000
 Structure written by MMmdl.
 47 48  0  0  0  0  0  0  0  0  2 V2000
  146.7878  136.6799  162.2479 C   0  0  0  0  0  0  0  0  0  0  0  0
  147.5719  136.1586  161.0568 C   0  0  0  0  0  0  0  0  0  0  0  0
  148.6181  136.9808  160.6059 N   0  0  0  0  0  0  0  0  0  0  0  0
  149.3194  136.6148  159.6013 C   0  0  0  0  0  0  0  0  0  0  0  0
  150.6559  137.6703  159.0138 S   0  0  0  0  0  0  0  0  0  0  0  0
  149.9246  138.5486  157.5996 C   0  0  0  0  0  0  0  0  0  0  0  0
  150.5697  139.9099  157.3441 C   0  0  0  0  0  0  0  0  0  0  0  0
  150.4557  140.4570  156.2467 O   0  0  0  0  0  0  0  0  0  0  0  0
  151.2496  140.4470  158.3689 N   0  0  0  0  0  0  0  0  0  0  0  0
  151.9327  141.7388  158.3487 C   0  0  1  0  0  0  0  0  0  0  0  0
  150.9745  142.8204  157.8082 C   0  0  0  0  0  0  0  0  0  0  0  0
  151.6241  144.2115  157.8216 C   0  0  0  0  0  0  0  0  0  0  0  0
  152.1182  144.5733  159.2288 C   0  0  0  0  0  0  0  0  0  0  0  0
  153.0854  143.5073  159.7649 C   0  0  0  0  0  0  0  0  0  0  0  0
  152.4510  142.1013  159.7631 C   0  0  2  0  0  0  0  0  0  0  0  0
  153.4445  141.0611  160.3113 C   0  0  0  0  0  0  0  0  0  0  0  0
  149.1204  135.4401  158.9140 N   0  5  0  0  0  0  0  0  0  0  0  0
  148.1261  134.5866  159.2912 C   0  0  0  0  0  0  0  0  0  0  0  0
  147.9142  133.5272  158.7023 O   0  0  0  0  0  0  0  0  0  0  0  0
  147.2906  134.9750  160.4412 C   0  0  0  0  0  0  0  0  0  0  0  0
  146.1738  134.0357  160.8903 C   0  0  0  0  0  0  0  0  0  0  0  0
  146.4091  133.4962  162.3084 C   0  0  0  0  0  0  0  0  0  0  0  0
  145.2067  132.9721  162.8293 O   0  0  0  0  0  0  0  0  0  0  0  0
  145.7188  136.6789  162.0343 H   0  0  0  0  0  0  0  0  0  0  0  0
  147.0781  137.7018  162.4954 H   0  0  0  0  0  0  0  0  0  0  0  0
  146.9694  136.0567  163.1237 H   0  0  0  0  0  0  0  0  0  0  0  0
  148.8599  138.6963  157.7826 H   0  0  0  0  0  0  0  0  0  0  0  0
  150.0180  137.9229  156.7106 H   0  0  0  0  0  0  0  0  0  0  0  0
  151.2914  139.9244  159.2319 H   0  0  0  0  0  0  0  0  0  0  0  0
  152.7954  141.6775  157.6822 H   0  0  0  0  0  0  0  0  0  0  0  0
  150.6654  142.5743  156.7915 H   0  0  0  0  0  0  0  0  0  0  0  0
  150.0645  142.8417  158.4099 H   0  0  0  0  0  0  0  0  0  0  0  0
  152.4604  144.2317  157.1218 H   0  0  0  0  0  0  0  0  0  0  0  0
  150.9106  144.9588  157.4737 H   0  0  0  0  0  0  0  0  0  0  0  0
  152.6102  145.5462  159.2109 H   0  0  0  0  0  0  0  0  0  0  0  0
  151.2667  144.6689  159.9036 H   0  0  0  0  0  0  0  0  0  0  0  0
  153.9917  143.5029  159.1576 H   0  0  0  0  0  0  0  0  0  0  0  0
  153.3952  143.7753  160.7756 H   0  0  0  0  0  0  0  0  0  0  0  0
  151.5959  142.1255  160.4409 H   0  0  0  0  0  0  0  0  0  0  0  0
  154.3101  140.9589  159.6559 H   0  0  0  0  0  0  0  0  0  0  0  0
  152.9854  140.0777  160.4120 H   0  0  0  0  0  0  0  0  0  0  0  0
  153.8087  141.3494  161.2977 H   0  0  0  0  0  0  0  0  0  0  0  0
  146.0812  133.2030  160.1935 H   0  0  0  0  0  0  0  0  0  0  0  0
  145.2168  134.5573  160.8399 H   0  0  0  0  0  0  0  0  0  0  0  0
  147.1652  132.7104  162.3010 H   0  0  0  0  0  0  0  0  0  0  0  0
  146.7660  134.2863  162.9699 H   0  0  0  0  0  0  0  0  0  0  0  0
  144.7501  132.5240  162.1338 H   0  0  0  0  0  0  0  0  0  0  0  0
  1 24  1  0  0  0  0
  1 25  1  0  0  0  0
  1 26  1  0  0  0  0
  1  2  1  0  0  0  0
  2 20  2  0  0  0  0
  2  3  1  0  0  0  0
  3  4  2  0  0  0  0
  4  5  1  0  0  0  0
  4 17  1  0  0  0  0
  5  6  1  0  0  0  0
  6  7  1  0  0  0  0
  6 27  1  0  0  0  0
  6 28  1  0  0  0  0
  7  8  2  0  0  0  0
  7  9  1  0  0  0  0
  9 10  1  0  0  0  0
  9 29  1  0  0  0  0
 10 15  1  0  0  0  0
 10 11  1  0  0  0  0
 10 30  1  0  0  0  0
 11 12  1  0  0  0  0
 11 31  1  0  0  0  0
 11 32  1  0  0  0  0
 12 13  1  0  0  0  0
 12 33  1  0  0  0  0
 12 34  1  0  0  0  0
 13 14  1  0  0  0  0
 13 35  1  0  0  0  0
 13 36  1  0  0  0  0
 14 15  1  0  0  0  0
 14 37  1  0  0  0  0
 14 38  1  0  0  0  0
 15 16  1  0  0  0  0
 15 39  1  0  0  0  0
 16 40  1  0  0  0  0
 16 41  1  0  0  0  0
 16 42  1  0  0  0  0
 17 18  1  0  0  0  0
 18 19  2  0  0  0  0
 18 20  1  0  0  0  0
 20 21  1  0  0  0  0
 21 22  1  0  0  0  0
 21 43  1  0  0  0  0
 21 44  1  0  0  0  0
 22 23  1  0  0  0  0
 22 45  1  0  0  0  0
 22 46  1  0  0  0  0
 23 47  1  0  0  0  0
M  CHG  1  17  -1
M  END
> <s_m_source_file>
AV-unprocessed.smi

> <i_m_source_file_index>
438

> <i_lp_mmshare_version>
43012

> <i_f3d_flags>
0

> <s_epik_input>
W09IXVtDSDJdW0NIMl1jMWMoW09IXSluYyhuYzFbQ0gzXSlTW0NIMl1DKD1PKVtOSF1bQ0BASF0yW0NIMl1bQ0gyXVtDSDJdW0NIMl1bQ0BIXTJbQ0gzXQ==

> <s_epik_cmdline>
J2VwaWtfcHl0aG9uJywgJy1waCcsICc3LjAnLCAnLXRuJywgJzgnLCAnLW1hJywgJzIwMCcsICctbWV0YWxfYmluZGluZycsICctaW1hZScsICc8aW5maWxlLm1hZT4nLCAnLW9tYWUnLCAnPG91dGZpbGUubWFlPic=

> <r_lp_tautomer_probability>
1

> <r_epik_Ionization_Penalty>
3.69231

> <r_epik_Ionization_Penalty_Charging>
0.00434774

> <r_epik_Ionization_Penalty_Neutral>
3.68796

> <r_epik_State_Penalty>
2.13826

> <r_epik_Charging_Adjusted_Penalty>
2.14261

> <i_epik_Tot_Q>
-1

> <i_epik_Tot_abs_Q>
1

> <r_epik_Metal_State_Penalty>
0.260979

> <b_epik_Metal_Only>
0

> <s_lp_Force_Field>
OPLS_2005

> <r_lp_Energy>
18.4405

> <b_lp_Chiralities_Consistent>
1

> <s_lp_Variant>
AV-unprocessed.smi:438-12

> <Gold.Version>
5.8.1

> <Gold.Id.Protein>
6NUR|6NUR_protein|mol2

> <Gold.PLP.Fitness>
54.1774

> <Gold.PLP.PLP>
-47.1101

> <Gold.PLP.part.hbond>
-3.9871

> <Gold.PLP.part.metal>
0.0000

> <Gold.PLP.part.buried>
-5.9389

> <Gold.PLP.part.nonpolar>
-38.6918

> <Gold.PLP.part.repulsive>
0.1509

> <Gold.PLP.ligand.clash>
0.0000

> <Gold.PLP.ligand.torsion>
0.8883

> <Gold.PLP.Chemscore.Hbond>
2.9069

> <Gold.PLP.Chemscore.CHOScore>
0.0000

> <Gold.PLP.Chemscore.Metal>
0.0000

> <Gold.Chemscore.Hbonds>
donor molecule, donor type, donor heavy atom, donor atom, acceptor molecule, acceptor atom, score
      P1  H  6896  6908       L1    17  1.70
      P1  H  6931  6943       L1     3  0.83

> <Gold.PLP.Chemscore.Internal.Correction>
0.1232

> <Gold.Rescore>
     Score         DG    S(hbond)    S(metal)    S(lipo)     H(rot)  DE(clash)    DE(int)     intcor
     14.93     -16.00       1.16        0.00     118.00       2.79       0.27       0.80       ----

> <Gold.Chemscore.Fitness>
14.9307

> <Gold.Chemscore.DG>
-16.0011

> <Gold.Chemscore.ZeroCoef>
-5.4800

> <Gold.Chemscore.Hbond>
1.1569

> <Gold.Chemscore.Metal>
0.0000

> <Gold.Chemscore.Lipo>
118.0012

> <Gold.Chemscore.Internal_Hbond>
0.0000

> <Gold.Chemscore.DEClash>
0.2656

> <Gold.Chemscore.DEInternal>
0.8047

> <Gold.Chemscore.Rot>
2.7927

> <Gold.Chemscore.Internal.Correction>
   9.000000E+99

> <Gold.Chemscore.Hbonds>
donor molecule, donor type, donor heavy atom, donor atom, acceptor molecule, acceptor atom, score
      P1  H  6896  6908       L1    17  0.05
      P1  H  6931  6943       L1     3  0.65

> <Gold.Chemscore.Hbond.Weighted>
-3.8642

> <Gold.Chemscore.Metal.Weighted>
-0.0000

> <Gold.Chemscore.Lipo.Weighted>
-13.8061

> <Gold.Chemscore.Internal_Hbond.Weighted>
0.0000

> <Gold.Chemscore.DEClash.Weighted>
0.2656

> <Gold.Chemscore.DEInternal.Weighted>
0.8047

> <Gold.Chemscore.Rot.Weighted>
7.1492

> <Gold.Chemscore.Internal.Correction.Weighted>
   9.000000E+99

> <Gold.Protein.RotatedTorsions>
[ 6907 6896 6895 6894 ] final  167.84 input  -60.11 | X-H torsion
[ 7974 7965 7964 7962 ] final   73.07 input  175.53 | X-H torsion
[ 8008 7997 7996 7995 ] final  164.21 input   59.86 | X-H torsion
[ 10167 10162 10161 10158 ] final   -8.12 input  -65.29 | X-H torsion
[ 10718 10713 10712 10709 ] final  -16.30 input   66.30 | X-H torsion
[ 10763 10752 10751 10750 ] final -159.62 input  -60.55 | X-H torsion
[ 11005 11000 10999 10996 ] final -121.47 input  -57.11 | X-H torsion

> <Gold.Protein.ActiveResidues>
 VAL166  LYS551  ARG553  GLY616  TRP617  ASP618  TYR619  PRO620  LYS621  CYS622 
 ASP623  PHE694  ASN695  SER759  ASP760  ASP761  ALA762  ILE779  LEU786  VAL792 
 PHE793  MET794  SER795  GLU796  ALA797  LYS798  CYS799  TRP800  GLU811  SER814 

> <Gold.Protein.RotatedAtoms>
  151.8571  133.3450  159.3691 H   0  0  0  0  0  0  0  0  0  0  0  0  # atno 6907 bound_to 6896
  150.7190  134.5243  159.5678 H   0  0  0  0  0  0  0  0  0  0  0  0  # atno 6908 bound_to 6896
  152.2748  134.7894  160.0458 H   0  0  0  0  0  0  0  0  0  0  0  0  # atno 6909 bound_to 6896
  145.7455  139.2738  143.1462 H   0  0  0  0  0  0  0  0  0  0  0  0  # atno 7974 bound_to 7965
  156.1898  140.1703  156.8115 H   0  0  0  0  0  0  0  0  0  0  0  0  # atno 8008 bound_to 7997
  154.5457  140.0727  156.8617 H   0  0  0  0  0  0  0  0  0  0  0  0  # atno 8009 bound_to 7997
  155.3127  140.3368  155.4246 H   0  0  0  0  0  0  0  0  0  0  0  0  # atno 8010 bound_to 7997
  140.7050  143.6004  150.8804 H   0  0  0  0  0  0  0  0  0  0  0  0  # atno 10167 bound_to 10162
  156.5895  130.4795  149.6285 H   0  0  0  0  0  0  0  0  0  0  0  0  # atno 10718 bound_to 10713
  154.7460  135.3080  154.8644 H   0  0  0  0  0  0  0  0  0  0  0  0  # atno 10763 bound_to 10752
  153.9445  135.6771  153.4748 H   0  0  0  0  0  0  0  0  0  0  0  0  # atno 10764 bound_to 10752
  153.1056  135.4891  154.8872 H   0  0  0  0  0  0  0  0  0  0  0  0  # atno 10765 bound_to 10752
  141.0067  134.0324  157.3467 H   0  0  0  0  0  0  0  0  0  0  0  0  # atno 11005 bound_to 11000
  146.0407  140.8167  142.9830 LP  0  0  0  0  0  0  0  0  0  0  0  0  # atno 17320 bound_to 7965
  144.6861  140.2906  143.7278 LP  0  0  0  0  0  0  0  0  0  0  0  0  # atno 17321 bound_to 7965
  139.9728  143.6037  152.2968 LP  0  0  0  0  0  0  0  0  0  0  0  0  # atno 17342 bound_to 10162
  139.6630  144.7662  151.1926 LP  0  0  0  0  0  0  0  0  0  0  0  0  # atno 17343 bound_to 10162
  156.2562  130.6936  151.1689 LP  0  0  0  0  0  0  0  0  0  0  0  0  # atno 17370 bound_to 10713
  157.7307  131.0614  150.5714 LP  0  0  0  0  0  0  0  0  0  0  0  0  # atno 17371 bound_to 10713
  139.9067  135.0181  156.7518 LP  0  0  0  0  0  0  0  0  0  0  0  0  # atno 17394 bound_to 11000
  140.6800  133.9482  155.7905 LP  0  0  0  0  0  0  0  0  0  0  0  0  # atno 17395 bound_to 11000

$$$$
