AV-unprocessed.smi:1376|AV-procd|sdf|5592|dock2
  -GOLD-   22720 5193D 1   1.00000     0.00000
 Structure written by MMmdl.
 42 43  0  0  0  0  0  0  0  0  1 V2000
  149.1310  139.8560  156.8388 O   0  0  0  0  0  0  0  0  0  0  0  0
  150.3578  139.9252  156.9269 C   0  0  0  0  0  0  0  0  0  0  0  0
  151.1071  141.2045  156.5271 C   0  0  0  0  0  0  0  0  0  0  0  0
  151.6548  141.9436  157.6768 N   0  0  0  0  0  0  0  0  0  0  0  0
  151.1684  143.2490  157.8890 C   0  0  0  0  0  0  0  0  0  0  0  0
  151.6041  144.0128  158.9031 C   0  0  0  0  0  0  0  0  0  0  0  0
  152.5996  143.4633  159.7925 C   0  0  0  0  0  0  0  0  0  0  0  0
  153.0750  142.2174  159.5959 C   0  0  0  0  0  0  0  0  0  0  0  0
  152.6045  141.3805  158.4859 C   0  0  0  0  0  0  0  0  0  0  0  0
  153.0377  140.2437  158.2953 O   0  0  0  0  0  0  0  0  0  0  0  0
  151.1181  138.9200  157.3869 N   0  0  0  0  0  0  0  0  0  0  0  0
  150.6190  137.6218  157.8306 C   0  0  2  0  0  0  0  0  0  0  0  0
  149.7649  136.9635  156.7287 C   0  0  0  0  0  0  0  0  0  0  0  0
  149.1726  135.6281  157.2048 C   0  0  0  0  0  0  0  0  0  0  0  0
  148.3676  135.8068  158.5011 C   0  0  0  0  0  0  0  0  0  0  0  0
  149.2211  136.4486  159.6081 C   0  0  2  0  0  0  0  0  0  0  0  0
  148.3797  136.6285  160.7398 O   0  0  0  0  0  0  0  0  0  0  0  0
  147.6891  135.4586  161.1577 C   0  0  0  0  0  0  0  0  0  0  0  0
  146.9130  135.7614  162.4452 C   0  0  0  0  0  0  0  0  0  0  0  0
  147.7589  136.2049  163.3745 F   0  0  0  0  0  0  0  0  0  0  0  0
  145.9941  136.7001  162.2201 F   0  0  0  0  0  0  0  0  0  0  0  0
  146.3222  134.6556  162.8975 F   0  0  0  0  0  0  0  0  0  0  0  0
  149.8052  137.7936  159.1269 C   0  0  0  0  0  0  0  0  0  0  0  0
  151.9063  140.9286  155.8377 H   0  0  0  0  0  0  0  0  0  0  0  0
  150.4412  141.8470  155.9480 H   0  0  0  0  0  0  0  0  0  0  0  0
  150.4320  143.5875  157.1746 H   0  0  0  0  0  0  0  0  0  0  0  0
  151.2237  145.0135  159.0464 H   0  0  0  0  0  0  0  0  0  0  0  0
  152.9663  144.0547  160.6185 H   0  0  0  0  0  0  0  0  0  0  0  0
  153.8207  141.8233  160.2709 H   0  0  0  0  0  0  0  0  0  0  0  0
  152.1164  139.0642  157.4330 H   0  0  0  0  0  0  0  0  0  0  0  0
  151.4677  136.9720  158.0530 H   0  0  0  0  0  0  0  0  0  0  0  0
  148.9558  137.6347  156.4372 H   0  0  0  0  0  0  0  0  0  0  0  0
  150.3656  136.7973  155.8336 H   0  0  0  0  0  0  0  0  0  0  0  0
  148.5359  135.2061  156.4271 H   0  0  0  0  0  0  0  0  0  0  0  0
  149.9767  134.9098  157.3699 H   0  0  0  0  0  0  0  0  0  0  0  0
  147.4932  136.4284  158.3035 H   0  0  0  0  0  0  0  0  0  0  0  0
  147.9895  134.8404  158.8364 H   0  0  0  0  0  0  0  0  0  0  0  0
  150.0323  135.7610  159.8550 H   0  0  0  0  0  0  0  0  0  0  0  0
  146.9963  135.1333  160.3800 H   0  0  0  0  0  0  0  0  0  0  0  0
  148.3874  134.6407  161.3358 H   0  0  0  0  0  0  0  0  0  0  0  0
  150.4445  138.2280  159.8952 H   0  0  0  0  0  0  0  0  0  0  0  0
  148.9926  138.5030  158.9625 H   0  0  0  0  0  0  0  0  0  0  0  0
  1  2  2  0  0  0  0
  2  3  1  0  0  0  0
  2 11  1  0  0  0  0
  3  4  1  0  0  0  0
  3 24  1  0  0  0  0
  3 25  1  0  0  0  0
  4  9  1  0  0  0  0
  4  5  1  0  0  0  0
  5  6  2  0  0  0  0
  5 26  1  0  0  0  0
  6  7  1  0  0  0  0
  6 27  1  0  0  0  0
  7  8  2  0  0  0  0
  7 28  1  0  0  0  0
  8  9  1  0  0  0  0
  8 29  1  0  0  0  0
  9 10  2  0  0  0  0
 11 12  1  0  0  0  0
 11 30  1  0  0  0  0
 12 23  1  0  0  0  0
 12 13  1  0  0  0  0
 12 31  1  0  0  0  0
 13 14  1  0  0  0  0
 13 32  1  0  0  0  0
 13 33  1  0  0  0  0
 14 15  1  0  0  0  0
 14 34  1  0  0  0  0
 14 35  1  0  0  0  0
 15 16  1  0  0  0  0
 15 36  1  0  0  0  0
 15 37  1  0  0  0  0
 16 17  1  0  0  0  0
 16 23  1  0  0  0  0
 16 38  1  0  0  0  0
 17 18  1  0  0  0  0
 18 19  1  0  0  0  0
 18 39  1  0  0  0  0
 18 40  1  0  0  0  0
 19 20  1  0  0  0  0
 19 21  1  0  0  0  0
 19 22  1  0  0  0  0
 23 41  1  0  0  0  0
 23 42  1  0  0  0  0
M  END
> <s_m_source_file>
AV-unprocessed.smi

> <i_m_source_file_index>
1376

> <i_lp_mmshare_version>
43012

> <i_f3d_flags>
0

> <s_epik_input>
Tz1jMVtjSF1bY0hdW2NIXVtjSF1uMVtDSDJdQyg9TylbTkhdW0NAQEhdMltDSDJdW0NIMl1bQ0gyXVtDQEhdKFtDSDJdMilPW0NIMl1DKEYpKEYpRg==

> <s_epik_cmdline>
J2VwaWtfcHl0aG9uJywgJy1waCcsICc3LjAnLCAnLXRuJywgJzgnLCAnLW1hJywgJzIwMCcsICctbWV0YWxfYmluZGluZycsICctaW1hZScsICc8aW5maWxlLm1hZT4nLCAnLW9tYWUnLCAnPG91dGZpbGUubWFlPic=

> <r_lp_tautomer_probability>
1

> <r_epik_Ionization_Penalty>
4.08567e-07

> <r_epik_Ionization_Penalty_Charging>
3.90028e-07

> <r_epik_Ionization_Penalty_Neutral>
1.85393e-08

> <r_epik_State_Penalty>
-0

> <r_epik_Charging_Adjusted_Penalty>
3.90028e-07

> <i_epik_Tot_Q>
0

> <i_epik_Tot_abs_Q>
0

> <r_epik_Metal_State_Penalty>
-0

> <b_epik_Metal_Only>
0

> <s_lp_Force_Field>
OPLS_2005

> <r_lp_Energy>
18.479

> <b_lp_Chiralities_Consistent>
1

> <s_lp_Variant>
AV-unprocessed.smi:1376-3

> <Gold.Version>
5.8.1

> <Gold.Id.Protein>
6NUR|6NUR_protein|mol2

> <Gold.PLP.Fitness>
49.9858

> <Gold.PLP.PLP>
-41.5739

> <Gold.PLP.part.hbond>
-2.0000

> <Gold.PLP.part.metal>
0.0000

> <Gold.PLP.part.buried>
-4.5015

> <Gold.PLP.part.nonpolar>
-34.7971

> <Gold.PLP.part.repulsive>
0.0335

> <Gold.PLP.ligand.clash>
0.0000

> <Gold.PLP.ligand.torsion>
0.1974

> <Gold.PLP.Chemscore.Hbond>
1.9033

> <Gold.PLP.Chemscore.CHOScore>
1.0000

> <Gold.PLP.Chemscore.Metal>
0.0000

> <Gold.Chemscore.Hbonds>
donor molecule, donor type, donor heavy atom, donor atom, acceptor molecule, acceptor atom, score
      P1  H  6931  6943       L1    17  0.83
      P1  H  7997  8008       L1    10  0.94
      L1  C     5    26       P1  8028  1.00

> <Gold.PLP.Chemscore.Internal.Correction>
0.0970

> <Gold.Rescore>
     Score         DG    S(hbond)    S(metal)    S(lipo)     H(rot)  DE(clash)    DE(int)     intcor
     11.73     -14.84       1.33        0.00      89.63       2.18       0.69       2.42       ----

> <Gold.Chemscore.Fitness>
11.7316

> <Gold.Chemscore.DG>
-14.8416

> <Gold.Chemscore.ZeroCoef>
-5.4800

> <Gold.Chemscore.Hbond>
1.3338

> <Gold.Chemscore.Metal>
0.0000

> <Gold.Chemscore.Lipo>
89.6323

> <Gold.Chemscore.Internal_Hbond>
0.0000

> <Gold.Chemscore.DEClash>
0.6915

> <Gold.Chemscore.DEInternal>
2.4184

> <Gold.Chemscore.Rot>
2.1797

> <Gold.Chemscore.Internal.Correction>
   9.000000E+99

> <Gold.Chemscore.Hbonds>
donor molecule, donor type, donor heavy atom, donor atom, acceptor molecule, acceptor atom, score
      P1  H  6931  6943       L1    17  0.59
      P1  H  7997  8008       L1    10  0.82

> <Gold.Chemscore.Hbond.Weighted>
-4.4548

> <Gold.Chemscore.Metal.Weighted>
-0.0000

> <Gold.Chemscore.Lipo.Weighted>
-10.4870

> <Gold.Chemscore.Internal_Hbond.Weighted>
0.0000

> <Gold.Chemscore.DEClash.Weighted>
0.6915

> <Gold.Chemscore.DEInternal.Weighted>
2.4184

> <Gold.Chemscore.Rot.Weighted>
5.5802

> <Gold.Chemscore.Internal.Correction.Weighted>
   9.000000E+99

> <Gold.Protein.RotatedTorsions>
[ 6907 6896 6895 6894 ] final  -19.55 input  -60.11 | X-H torsion
[ 7974 7965 7964 7962 ] final  -51.06 input  175.53 | X-H torsion
[ 8008 7997 7996 7995 ] final  -86.23 input   59.86 | X-H torsion
[ 10167 10162 10161 10158 ] final  138.40 input  -65.29 | X-H torsion
[ 10718 10713 10712 10709 ] final   65.51 input   66.30 | X-H torsion
[ 10763 10752 10751 10750 ] final   55.51 input  -60.55 | X-H torsion
[ 11005 11000 10999 10996 ] final  -12.69 input  -57.11 | X-H torsion

> <Gold.Protein.ActiveResidues>
 VAL166  LYS551  ARG553  GLY616  TRP617  ASP618  TYR619  PRO620  LYS621  CYS622 
 ASP623  PHE694  ASN695  SER759  ASP760  ASP761  ALA762  ILE779  LEU786  VAL792 
 PHE793  MET794  SER795  GLU796  ALA797  LYS798  CYS799  TRP800  GLU811  SER814 

> <Gold.Protein.RotatedAtoms>
  151.2614  135.0655  159.9099 H   0  0  0  0  0  0  0  0  0  0  0  0  # atno 6907 bound_to 6896
  152.5365  134.0227  159.7999 H   0  0  0  0  0  0  0  0  0  0  0  0  # atno 6908 bound_to 6896
  151.0450  133.5623  159.2678 H   0  0  0  0  0  0  0  0  0  0  0  0  # atno 6909 bound_to 6896
  145.9231  140.7816  142.9637 H   0  0  0  0  0  0  0  0  0  0  0  0  # atno 7974 bound_to 7965
  154.6495  140.0581  156.9939 H   0  0  0  0  0  0  0  0  0  0  0  0  # atno 8008 bound_to 7997
  155.1392  140.3264  155.4437 H   0  0  0  0  0  0  0  0  0  0  0  0  # atno 8009 bound_to 7997
  156.2569  140.1967  156.6509 H   0  0  0  0  0  0  0  0  0  0  0  0  # atno 8010 bound_to 7997
  139.5112  144.6356  151.5706 H   0  0  0  0  0  0  0  0  0  0  0  0  # atno 10167 bound_to 10162
  157.6110  130.9218  149.9986 H   0  0  0  0  0  0  0  0  0  0  0  0  # atno 10718 bound_to 10713
  152.9818  135.5708  154.5078 H   0  0  0  0  0  0  0  0  0  0  0  0  # atno 10763 bound_to 10752
  154.4587  135.2781  155.1731 H   0  0  0  0  0  0  0  0  0  0  0  0  # atno 10764 bound_to 10752
  154.3328  135.6246  153.5613 H   0  0  0  0  0  0  0  0  0  0  0  0  # atno 10765 bound_to 10752
  140.7684  133.8458  155.9185 H   0  0  0  0  0  0  0  0  0  0  0  0  # atno 11005 bound_to 11000
  144.6755  140.2007  143.7387 LP  0  0  0  0  0  0  0  0  0  0  0  0  # atno 17320 bound_to 7965
  145.8524  139.2182  143.1764 LP  0  0  0  0  0  0  0  0  0  0  0  0  # atno 17321 bound_to 7965
  140.6103  143.9448  150.6448 LP  0  0  0  0  0  0  0  0  0  0  0  0  # atno 17342 bound_to 10162
  140.2688  143.3470  152.1256 LP  0  0  0  0  0  0  0  0  0  0  0  0  # atno 17343 bound_to 10162
  156.1213  130.3646  149.9883 LP  0  0  0  0  0  0  0  0  0  0  0  0  # atno 17370 bound_to 10713
  156.7962  130.9274  151.3646 LP  0  0  0  0  0  0  0  0  0  0  0  0  # atno 17371 bound_to 10713
  140.9597  134.1671  157.4663 LP  0  0  0  0  0  0  0  0  0  0  0  0  # atno 17394 bound_to 11000
  139.8759  134.9940  156.5673 LP  0  0  0  0  0  0  0  0  0  0  0  0  # atno 17395 bound_to 11000

$$$$
