AV-unprocessed.smi:3131|AV-procd|sdf|11928|dock7
  -GOLD-   2272017313D 1   1.00000     0.00000
 Structure written by MMmdl.
 43 43  0  0  0  0  0  0  0  0  2 V2000
  151.8830  145.5718  159.4459 C   0  0  0  0  0  0  0  0  0  0  0  0
  151.4482  144.7031  158.2560 C   0  0  0  0  0  0  0  0  0  0  0  0
  150.9792  143.2790  158.6384 C   0  0  0  0  0  0  0  0  0  0  0  0
  151.9354  142.6384  159.6749 C   0  0  0  0  0  0  0  0  0  0  0  0
  153.4207  142.7078  159.2899 C   0  0  0  0  0  0  0  0  0  0  0  0
  150.8413  142.3818  157.3879 C   0  0  0  0  0  0  0  0  0  0  0  0
  149.4409  142.2983  156.9280 N   0  3  0  0  0  0  0  0  0  0  0  0
  149.1565  141.1551  156.0352 C   0  0  0  0  0  0  0  0  0  0  0  0
  148.2059  141.5521  154.8850 C   0  0  2  0  0  0  0  0  0  0  0  0
  147.9602  140.3556  153.9504 C   0  0  0  0  0  0  0  0  0  0  0  0
  148.8716  142.5273  154.1033 O   0  0  0  0  0  0  0  0  0  0  0  0
  146.8871  142.0640  155.4251 C   0  0  0  0  0  0  0  0  0  0  0  0
  146.4457  142.0684  156.7811 C   0  0  0  0  0  0  0  0  0  0  0  0
  145.2461  142.6021  156.9347 N   0  0  0  0  0  0  0  0  0  0  0  0
  144.8713  142.9482  155.6871 N   0  0  0  0  0  0  0  0  0  0  0  0
  143.5809  143.5685  155.4767 C   0  0  0  0  0  0  0  0  0  0  0  0
  145.8383  142.6350  154.7567 C   0  0  0  0  0  0  0  0  0  0  0  0
  152.2930  146.5197  159.0966 H   0  0  0  0  0  0  0  0  0  0  0  0
  152.6552  145.0764  160.0351 H   0  0  0  0  0  0  0  0  0  0  0  0
  151.0509  145.8082  160.1081 H   0  0  0  0  0  0  0  0  0  0  0  0
  150.6635  145.2148  157.6973 H   0  0  0  0  0  0  0  0  0  0  0  0
  152.3002  144.6412  157.5805 H   0  0  0  0  0  0  0  0  0  0  0  0
  149.9931  143.3631  159.0984 H   0  0  0  0  0  0  0  0  0  0  0  0
  151.8331  143.1411  160.6367 H   0  0  0  0  0  0  0  0  0  0  0  0
  151.6501  141.6007  159.8527 H   0  0  0  0  0  0  0  0  0  0  0  0
  154.0441  142.3188  160.0953 H   0  0  0  0  0  0  0  0  0  0  0  0
  153.7314  143.7360  159.1018 H   0  0  0  0  0  0  0  0  0  0  0  0
  153.6427  142.1206  158.3996 H   0  0  0  0  0  0  0  0  0  0  0  0
  151.4311  142.7768  156.5617 H   0  0  0  0  0  0  0  0  0  0  0  0
  151.2185  141.3800  157.5984 H   0  0  0  0  0  0  0  0  0  0  0  0
  148.8458  142.2177  157.7403 H   0  0  0  0  0  0  0  0  0  0  0  0
  150.0953  140.7613  155.6426 H   0  0  0  0  0  0  0  0  0  0  0  0
  148.7045  140.3572  156.6264 H   0  0  0  0  0  0  0  0  0  0  0  0
  147.4716  139.5343  154.4758 H   0  0  0  0  0  0  0  0  0  0  0  0
  148.8943  139.9698  153.5401 H   0  0  0  0  0  0  0  0  0  0  0  0
  147.3214  140.6330  153.1107 H   0  0  0  0  0  0  0  0  0  0  0  0
  148.9489  143.3217  154.6099 H   0  0  0  0  0  0  0  0  0  0  0  0
  146.9655  141.7066  157.6561 H   0  0  0  0  0  0  0  0  0  0  0  0
  143.4581  143.8304  154.4254 H   0  0  0  0  0  0  0  0  0  0  0  0
  143.5031  144.4743  156.0789 H   0  0  0  0  0  0  0  0  0  0  0  0
  142.7883  142.8772  155.7647 H   0  0  0  0  0  0  0  0  0  0  0  0
  145.7034  142.8451  153.7057 H   0  0  0  0  0  0  0  0  0  0  0  0
  149.2032  143.1508  156.4411 H   0  0  0  0  0  0  0  0  0  0  0  0
  1  2  1  0  0  0  0
  1 18  1  0  0  0  0
  1 19  1  0  0  0  0
  1 20  1  0  0  0  0
  2  3  1  0  0  0  0
  2 21  1  0  0  0  0
  2 22  1  0  0  0  0
  3  4  1  0  0  0  0
  3  6  1  0  0  0  0
  3 23  1  0  0  0  0
  4  5  1  0  0  0  0
  4 24  1  0  0  0  0
  4 25  1  0  0  0  0
  5 26  1  0  0  0  0
  5 27  1  0  0  0  0
  5 28  1  0  0  0  0
  6  7  1  0  0  0  0
  6 29  1  0  0  0  0
  6 30  1  0  0  0  0
  7  8  1  0  0  0  0
  7 31  1  0  0  0  0
  7 43  1  0  0  0  0
  8  9  1  0  0  0  0
  8 32  1  0  0  0  0
  8 33  1  0  0  0  0
  9 10  1  0  0  0  0
  9 11  1  0  0  0  0
  9 12  1  0  0  0  0
 10 34  1  0  0  0  0
 10 35  1  0  0  0  0
 10 36  1  0  0  0  0
 11 37  1  0  0  0  0
 12 17  2  0  0  0  0
 12 13  1  0  0  0  0
 13 14  2  0  0  0  0
 13 38  1  0  0  0  0
 14 15  1  0  0  0  0
 15 16  1  0  0  0  0
 15 17  1  0  0  0  0
 16 39  1  0  0  0  0
 16 40  1  0  0  0  0
 16 41  1  0  0  0  0
 17 42  1  0  0  0  0
M  CHG  1   7   1
M  END
> <s_m_source_file>
AV-unprocessed.smi

> <i_m_source_file_index>
3131

> <i_lp_mmshare_version>
43012

> <i_f3d_flags>
0

> <s_epik_input>
W0NIM11bQ0gyXVtDSF0oW0NIMl1bQ0gzXSlbQ0gyXVtOSF1bQ0gyXVtDQEBdKFtDSDNdKShbT0hdKWMxW2NIXW5uKFtDSDNdKVtjSF0x

> <s_epik_cmdline>
J2VwaWtfcHl0aG9uJywgJy1waCcsICc3LjAnLCAnLXRuJywgJzgnLCAnLW1hJywgJzIwMCcsICctbWV0YWxfYmluZGluZycsICctaW1hZScsICc8aW5maWxlLm1hZT4nLCAnLW9tYWUnLCAnPG91dGZpbGUubWFlPic=

> <r_lp_tautomer_probability>
1

> <r_epik_Ionization_Penalty>
0.00304809

> <r_epik_Ionization_Penalty_Charging>
0.00302982

> <r_epik_Ionization_Penalty_Neutral>
1.82731e-05

> <r_epik_State_Penalty>
0.00212874

> <r_epik_Charging_Adjusted_Penalty>
0.00515857

> <i_epik_Tot_Q>
1

> <i_epik_Tot_abs_Q>
1

> <r_epik_Metal_State_Penalty>
-0

> <b_epik_Metal_Only>
0

> <s_lp_Force_Field>
OPLS_2005

> <r_lp_Energy>
9.85369

> <b_lp_Chiralities_Consistent>
1

> <s_lp_Variant>
AV-unprocessed.smi:3131-2

> <Gold.Version>
5.8.1

> <Gold.Id.Protein>
6NUR|6NUR_protein|mol2

> <Gold.PLP.Fitness>
43.8183

> <Gold.PLP.PLP>
-36.6367

> <Gold.PLP.part.hbond>
-2.9172

> <Gold.PLP.part.metal>
0.0000

> <Gold.PLP.part.buried>
-3.1878

> <Gold.PLP.part.nonpolar>
-30.3610

> <Gold.PLP.part.repulsive>
0.0841

> <Gold.PLP.ligand.clash>
0.0000

> <Gold.PLP.ligand.torsion>
1.2206

> <Gold.PLP.Chemscore.Hbond>
3.1280

> <Gold.PLP.Chemscore.CHOScore>
0.0000

> <Gold.PLP.Chemscore.Metal>
0.0000

> <Gold.Chemscore.Hbonds>
donor molecule, donor type, donor heavy atom, donor atom, acceptor molecule, acceptor atom, score
      L1  H     7    43       P1  8028  2.00
      L1  H    11    37       P1  8028  1.00
      P1  H  8011  8017       L1    11  0.11

> <Gold.PLP.Chemscore.Internal.Correction>
0.2388

> <Gold.Rescore>
     Score         DG    S(hbond)    S(metal)    S(lipo)     H(rot)  DE(clash)    DE(int)     intcor
     16.45     -17.83       2.14        0.00      95.71       2.34       0.00       1.38       ----

> <Gold.Chemscore.Fitness>
16.4541

> <Gold.Chemscore.DG>
-17.8302

> <Gold.Chemscore.ZeroCoef>
-5.4800

> <Gold.Chemscore.Hbond>
2.1404

> <Gold.Chemscore.Metal>
0.0000

> <Gold.Chemscore.Lipo>
95.7121

> <Gold.Chemscore.Internal_Hbond>
0.0000

> <Gold.Chemscore.DEClash>
0.0000

> <Gold.Chemscore.DEInternal>
1.3760

> <Gold.Chemscore.Rot>
2.3426

> <Gold.Chemscore.Internal.Correction>
   9.000000E+99

> <Gold.Chemscore.Hbonds>
donor molecule, donor type, donor heavy atom, donor atom, acceptor molecule, acceptor atom, score
      L1  H     7    43       P1  8028  1.00
      L1  H    11    37       P1  8028  1.00
      P1  H  8011  8017       L1    11  0.13

> <Gold.Chemscore.Hbond.Weighted>
-7.1490

> <Gold.Chemscore.Metal.Weighted>
-0.0000

> <Gold.Chemscore.Lipo.Weighted>
-11.1983

> <Gold.Chemscore.Internal_Hbond.Weighted>
0.0000

> <Gold.Chemscore.DEClash.Weighted>
0.0000

> <Gold.Chemscore.DEInternal.Weighted>
1.3760

> <Gold.Chemscore.Rot.Weighted>
5.9972

> <Gold.Chemscore.Internal.Correction.Weighted>
   9.000000E+99

> <Gold.Protein.RotatedTorsions>
[ 6907 6896 6895 6894 ] final   70.69 input  -60.11 | X-H torsion
[ 7974 7965 7964 7962 ] final  162.78 input  175.53 | X-H torsion
[ 8008 7997 7996 7995 ] final  -45.77 input   59.86 | X-H torsion
[ 10167 10162 10161 10158 ] final  135.32 input  -65.29 | X-H torsion
[ 10718 10713 10712 10709 ] final   -6.14 input   66.30 | X-H torsion
[ 10763 10752 10751 10750 ] final   85.17 input  -60.55 | X-H torsion
[ 11005 11000 10999 10996 ] final    0.88 input  -57.11 | X-H torsion

> <Gold.Protein.ActiveResidues>
 VAL166  LYS551  ARG553  GLY616  TRP617  ASP618  TYR619  PRO620  LYS621  CYS622 
 ASP623  PHE694  ASN695  SER759  ASP760  ASP761  ALA762  ILE779  LEU786  VAL792 
 PHE793  MET794  SER795  GLU796  ALA797  LYS798  CYS799  TRP800  GLU811  SER814 

> <Gold.Protein.RotatedAtoms>
  152.4765  134.4831  159.9671 H   0  0  0  0  0  0  0  0  0  0  0  0  # atno 6907 bound_to 6896
  151.4846  133.3533  159.2851 H   0  0  0  0  0  0  0  0  0  0  0  0  # atno 6908 bound_to 6896
  150.8807  134.8224  159.7284 H   0  0  0  0  0  0  0  0  0  0  0  0  # atno 6909 bound_to 6896
  144.7621  139.8088  143.6329 H   0  0  0  0  0  0  0  0  0  0  0  0  # atno 7974 bound_to 7965
  154.4003  140.1388  156.3902 H   0  0  0  0  0  0  0  0  0  0  0  0  # atno 8008 bound_to 7997
  155.7921  140.3478  155.5335 H   0  0  0  0  0  0  0  0  0  0  0  0  # atno 8009 bound_to 7997
  155.8569  140.0950  157.1629 H   0  0  0  0  0  0  0  0  0  0  0  0  # atno 8010 bound_to 7997
  139.5222  144.6523  151.5266 H   0  0  0  0  0  0  0  0  0  0  0  0  # atno 10167 bound_to 10162
  156.7362  130.5195  149.5834 H   0  0  0  0  0  0  0  0  0  0  0  0  # atno 10718 bound_to 10713
  153.1450  135.4627  154.9552 H   0  0  0  0  0  0  0  0  0  0  0  0  # atno 10763 bound_to 10752
  154.7779  135.3179  154.8056 H   0  0  0  0  0  0  0  0  0  0  0  0  # atno 10764 bound_to 10752
  153.8572  135.6916  153.4840 H   0  0  0  0  0  0  0  0  0  0  0  0  # atno 10765 bound_to 10752
  140.6216  133.9656  155.8228 H   0  0  0  0  0  0  0  0  0  0  0  0  # atno 11005 bound_to 11000
  146.1693  139.4837  142.9938 LP  0  0  0  0  0  0  0  0  0  0  0  0  # atno 17320 bound_to 7965
  145.6587  141.0245  143.1720 LP  0  0  0  0  0  0  0  0  0  0  0  0  # atno 17321 bound_to 7965
  140.6333  143.9033  150.6625 LP  0  0  0  0  0  0  0  0  0  0  0  0  # atno 17342 bound_to 10162
  140.2344  143.3711  152.1539 LP  0  0  0  0  0  0  0  0  0  0  0  0  # atno 17343 bound_to 10162
  156.1495  130.6300  151.0577 LP  0  0  0  0  0  0  0  0  0  0  0  0  # atno 17370 bound_to 10713
  157.6838  131.0830  150.7299 LP  0  0  0  0  0  0  0  0  0  0  0  0  # atno 17371 bound_to 10713
  141.0738  134.0165  157.3487 LP  0  0  0  0  0  0  0  0  0  0  0  0  # atno 17394 bound_to 11000
  139.9151  135.0196  156.7849 LP  0  0  0  0  0  0  0  0  0  0  0  0  # atno 17395 bound_to 11000

$$$$
