AV-unprocessed.smi:240|AV-procd|sdf|1830|dock7
  -GOLD-   2262020433D 1   1.00000     0.00000
 Structure written by MMmdl.
 55 59  0  0  0  0  0  0  0  0  1 V2000
  144.7906  135.6328  150.1560 O   0  0  0  0  0  0  0  0  0  0  0  0
  145.3568  134.9116  151.2349 C   0  0  2  0  0  0  0  0  0  0  0  0
  145.9620  133.6144  150.6883 C   0  0  0  0  0  0  0  0  0  0  0  0
  144.8404  132.5705  150.7362 C   0  0  0  0  0  0  0  0  0  0  0  0
  143.6820  133.2219  151.5013 C   0  0  0  0  0  0  0  0  0  0  0  0
  144.2726  134.4431  152.2311 C   0  0  2  0  0  0  0  0  0  0  0  0
  143.2227  135.4996  152.7177 C   0  0  1  0  0  0  0  0  0  0  0  0
  141.9767  134.7912  153.3133 C   0  0  0  0  0  0  0  0  0  0  0  0
  141.0280  135.7316  153.8009 O   0  0  0  0  0  0  0  0  0  0  0  0
  141.5622  136.5178  154.8540 C   0  0  0  0  0  0  0  0  0  0  0  0
  142.7437  137.3218  154.3037 C   0  0  0  0  0  0  0  0  0  0  0  0
  143.7484  136.4281  153.7343 N   0  0  0  0  0  0  0  0  0  0  0  0
  144.8621  137.1247  153.4216 C   0  0  0  0  0  0  0  0  0  0  0  0
  145.0147  137.4962  152.1269 N   0  0  0  0  0  0  0  0  0  0  0  0
  146.0910  138.1965  151.7569 C   0  0  0  0  0  0  0  0  0  0  0  0
  147.1123  138.6172  152.5067 N   0  0  0  0  0  0  0  0  0  0  0  0
  146.9681  138.2301  153.8067 C   0  0  0  0  0  0  0  0  0  0  0  0
  145.8842  137.4824  154.3459 C   0  0  0  0  0  0  0  0  0  0  0  0
  146.0783  137.2771  155.7063 N   0  0  0  0  0  0  0  0  0  0  0  0
  147.2110  137.8744  155.9582 C   0  0  0  0  0  0  0  0  0  0  0  0
  147.8151  138.4713  154.8743 N   0  0  0  0  0  0  0  0  0  0  0  0
  149.0710  139.2060  154.8763 C   0  0  0  0  0  0  0  0  0  0  0  0
  150.1558  138.5775  153.9713 C   0  0  1  0  0  0  0  0  0  0  0  0
  149.7065  138.6013  152.6270 O   0  0  0  0  0  0  0  0  0  0  0  0
  151.5114  139.2743  154.0440 C   0  0  0  0  0  0  0  0  0  0  0  0
  152.4924  138.1353  153.8041 C   0  0  0  0  0  0  0  0  0  0  0  0
  151.9046  137.0647  154.5228 O   0  0  0  0  0  0  0  0  0  0  0  0
  150.4927  137.1199  154.3450 C   0  0  0  0  0  0  0  0  0  0  0  0
  145.2179  135.3641  149.3566 H   0  0  0  0  0  0  0  0  0  0  0  0
  146.1319  135.5187  151.6990 H   0  0  0  0  0  0  0  0  0  0  0  0
  146.3847  133.7309  149.6893 H   0  0  0  0  0  0  0  0  0  0  0  0
  146.7742  133.2941  151.3423 H   0  0  0  0  0  0  0  0  0  0  0  0
  144.5237  132.2802  149.7339 H   0  0  0  0  0  0  0  0  0  0  0  0
  145.1848  131.6688  151.2441 H   0  0  0  0  0  0  0  0  0  0  0  0
  142.9237  133.5478  150.7879 H   0  0  0  0  0  0  0  0  0  0  0  0
  143.2078  132.5166  152.1848 H   0  0  0  0  0  0  0  0  0  0  0  0
  144.7843  134.0570  153.1147 H   0  0  0  0  0  0  0  0  0  0  0  0
  142.8811  136.0853  151.8639 H   0  0  0  0  0  0  0  0  0  0  0  0
  141.4671  134.1957  152.5565 H   0  0  0  0  0  0  0  0  0  0  0  0
  142.2631  134.1074  154.1145 H   0  0  0  0  0  0  0  0  0  0  0  0
  140.7887  137.1896  155.2260 H   0  0  0  0  0  0  0  0  0  0  0  0
  141.8686  135.8850  155.6886 H   0  0  0  0  0  0  0  0  0  0  0  0
  142.3868  138.0152  153.5413 H   0  0  0  0  0  0  0  0  0  0  0  0
  143.1835  137.9205  155.1030 H   0  0  0  0  0  0  0  0  0  0  0  0
  146.1401  138.4593  150.7105 H   0  0  0  0  0  0  0  0  0  0  0  0
  147.6418  137.8951  156.9489 H   0  0  0  0  0  0  0  0  0  0  0  0
  148.8681  140.2310  154.5628 H   0  0  0  0  0  0  0  0  0  0  0  0
  149.4288  139.2676  155.9050 H   0  0  0  0  0  0  0  0  0  0  0  0
  149.3686  137.7459  152.4092 H   0  0  0  0  0  0  0  0  0  0  0  0
  151.6239  140.0986  153.3382 H   0  0  0  0  0  0  0  0  0  0  0  0
  151.6791  139.6698  155.0463 H   0  0  0  0  0  0  0  0  0  0  0  0
  152.5514  137.8820  152.7445 H   0  0  0  0  0  0  0  0  0  0  0  0
  153.4966  138.3586  154.1650 H   0  0  0  0  0  0  0  0  0  0  0  0
  150.0074  136.8063  155.2699 H   0  0  0  0  0  0  0  0  0  0  0  0
  150.1944  136.4160  153.5664 H   0  0  0  0  0  0  0  0  0  0  0  0
  1  2  1  0  0  0  0
  1 29  1  0  0  0  0
  2  6  1  0  0  0  0
  2  3  1  0  0  0  0
  2 30  1  0  0  0  0
  3  4  1  0  0  0  0
  3 31  1  0  0  0  0
  3 32  1  0  0  0  0
  4  5  1  0  0  0  0
  4 33  1  0  0  0  0
  4 34  1  0  0  0  0
  5  6  1  0  0  0  0
  5 35  1  0  0  0  0
  5 36  1  0  0  0  0
  6  7  1  0  0  0  0
  6 37  1  0  0  0  0
  7 12  1  0  0  0  0
  7  8  1  0  0  0  0
  7 38  1  0  0  0  0
  8  9  1  0  0  0  0
  8 39  1  0  0  0  0
  8 40  1  0  0  0  0
  9 10  1  0  0  0  0
 10 11  1  0  0  0  0
 10 41  1  0  0  0  0
 10 42  1  0  0  0  0
 11 12  1  0  0  0  0
 11 43  1  0  0  0  0
 11 44  1  0  0  0  0
 12 13  1  0  0  0  0
 13 18  1  0  0  0  0
 13 14  2  0  0  0  0
 14 15  1  0  0  0  0
 15 16  2  0  0  0  0
 15 45  1  0  0  0  0
 16 17  1  0  0  0  0
 17 21  1  0  0  0  0
 17 18  2  0  0  0  0
 18 19  1  0  0  0  0
 19 20  2  0  0  0  0
 20 21  1  0  0  0  0
 20 46  1  0  0  0  0
 21 22  1  0  0  0  0
 22 23  1  0  0  0  0
 22 47  1  0  0  0  0
 22 48  1  0  0  0  0
 23 28  1  0  0  0  0
 23 24  1  0  0  0  0
 23 25  1  0  0  0  0
 24 49  1  0  0  0  0
 25 26  1  0  0  0  0
 25 50  1  0  0  0  0
 25 51  1  0  0  0  0
 26 27  1  0  0  0  0
 26 52  1  0  0  0  0
 26 53  1  0  0  0  0
 27 28  1  0  0  0  0
 28 54  1  0  0  0  0
 28 55  1  0  0  0  0
M  END
> <s_m_source_file>
AV-unprocessed.smi

> <i_m_source_file_index>
240

> <i_lp_mmshare_version>
43012

> <i_f3d_flags>
0

> <s_epik_input>
W09IXVtDQEBIXTFbQ0gyXVtDSDJdW0NIMl1bQ0BIXTFbQ0BASF0yW0NIMl1PW0NIMl1bQ0gyXU4yYyhuW2NIXW4zKWMoYzM0KW5bY0hdbjRbQ0gyXVtDQEBdNShbT0hdKVtDSDJdW0NIMl1PW0NIMl01

> <s_epik_cmdline>
J2VwaWtfcHl0aG9uJywgJy1waCcsICc3LjAnLCAnLXRuJywgJzgnLCAnLW1hJywgJzIwMCcsICctbWV0YWxfYmluZGluZycsICctaW1hZScsICc8aW5maWxlLm1hZT4nLCAnLW9tYWUnLCAnPG91dGZpbGUubWFlPic=

> <r_lp_tautomer_probability>
1

> <r_epik_Ionization_Penalty>
0.000130618

> <r_epik_Ionization_Penalty_Charging>
0

> <r_epik_Ionization_Penalty_Neutral>
0.000130618

> <r_epik_State_Penalty>
-0

> <r_epik_Charging_Adjusted_Penalty>
0

> <i_epik_Tot_Q>
0

> <i_epik_Tot_abs_Q>
0

> <r_epik_Metal_State_Penalty>
-0

> <b_epik_Metal_Only>
0

> <s_lp_Force_Field>
OPLS_2005

> <r_lp_Energy>
63.9037

> <b_lp_Chiralities_Consistent>
1

> <s_lp_Variant>
AV-unprocessed.smi:240-7

> <Gold.Version>
5.8.1

> <Gold.Id.Protein>
6NUR|6NUR_protein|mol2

> <Gold.PLP.Fitness>
46.6683

> <Gold.PLP.PLP>
-38.3513

> <Gold.PLP.part.hbond>
-4.6687

> <Gold.PLP.part.metal>
0.0000

> <Gold.PLP.part.buried>
-6.2337

> <Gold.PLP.part.nonpolar>
-30.3383

> <Gold.PLP.part.repulsive>
2.1873

> <Gold.PLP.ligand.clash>
0.0000

> <Gold.PLP.ligand.torsion>
0.9732

> <Gold.PLP.Chemscore.Hbond>
3.0000

> <Gold.PLP.Chemscore.CHOScore>
0.3138

> <Gold.PLP.Chemscore.Metal>
0.0000

> <Gold.Chemscore.Hbonds>
donor molecule, donor type, donor heavy atom, donor atom, acceptor molecule, acceptor atom, score
      L1  H     1    29       P1  7921  1.00
      L1  H    24    49       P1  7948  1.00
      P1  H 10752 10763       L1    27  0.94
      L1  C    15    45       P1 10171  0.60

> <Gold.PLP.Chemscore.Internal.Correction>
0.3219

> <Gold.Rescore>
     Score         DG    S(hbond)    S(metal)    S(lipo)     H(rot)  DE(clash)    DE(int)     intcor
     10.38     -14.11       2.07        0.00      80.25       3.00       0.29       3.44       ----

> <Gold.Chemscore.Fitness>
10.3802

> <Gold.Chemscore.DG>
-14.1068

> <Gold.Chemscore.ZeroCoef>
-5.4800

> <Gold.Chemscore.Hbond>
2.0742

> <Gold.Chemscore.Metal>
0.0000

> <Gold.Chemscore.Lipo>
80.2478

> <Gold.Chemscore.Internal_Hbond>
0.0000

> <Gold.Chemscore.DEClash>
0.2898

> <Gold.Chemscore.DEInternal>
3.4368

> <Gold.Chemscore.Rot>
3.0039

> <Gold.Chemscore.Internal.Correction>
   9.000000E+99

> <Gold.Chemscore.Hbonds>
donor molecule, donor type, donor heavy atom, donor atom, acceptor molecule, acceptor atom, score
      L1  H     1    29       P1  7921  0.94
      L1  H    24    49       P1  7948  0.74
      P1  H 10752 10763       L1    27  0.75

> <Gold.Chemscore.Hbond.Weighted>
-6.9278

> <Gold.Chemscore.Metal.Weighted>
-0.0000

> <Gold.Chemscore.Lipo.Weighted>
-9.3890

> <Gold.Chemscore.Internal_Hbond.Weighted>
0.0000

> <Gold.Chemscore.DEClash.Weighted>
0.2898

> <Gold.Chemscore.DEInternal.Weighted>
3.4368

> <Gold.Chemscore.Rot.Weighted>
7.6899

> <Gold.Chemscore.Internal.Correction.Weighted>
   9.000000E+99

> <Gold.Protein.RotatedTorsions>
[ 6907 6896 6895 6894 ] final  160.56 input  -60.11 | X-H torsion
[ 7974 7965 7964 7962 ] final   81.21 input  175.53 | X-H torsion
[ 8008 7997 7996 7995 ] final   27.80 input   59.86 | X-H torsion
[ 10167 10162 10161 10158 ] final   97.68 input  -65.29 | X-H torsion
[ 10718 10713 10712 10709 ] final -114.50 input   66.30 | X-H torsion
[ 10763 10752 10751 10750 ] final   58.14 input  -60.55 | X-H torsion
[ 11005 11000 10999 10996 ] final -176.62 input  -57.11 | X-H torsion

> <Gold.Protein.ActiveResidues>
 VAL166  LYS551  ARG553  GLY616  TRP617  ASP618  TYR619  PRO620  LYS621  CYS622 
 ASP623  PHE694  ASN695  SER759  ASP760  ASP761  ALA762  ILE779  LEU786  VAL792 
 PHE793  MET794  SER795  GLU796  ALA797  LYS798  CYS799  TRP800  GLU811  SER814 

> <Gold.Protein.RotatedAtoms>
  151.9687  133.3719  159.4062 H   0  0  0  0  0  0  0  0  0  0  0  0  # atno 6907 bound_to 6896
  150.6952  134.4163  159.5194 H   0  0  0  0  0  0  0  0  0  0  0  0  # atno 6908 bound_to 6896
  152.1863  134.8710  160.0572 H   0  0  0  0  0  0  0  0  0  0  0  0  # atno 6909 bound_to 6896
  145.6412  139.2426  143.2030 H   0  0  0  0  0  0  0  0  0  0  0  0  # atno 7974 bound_to 7965
  155.0487  140.3177  155.4699 H   0  0  0  0  0  0  0  0  0  0  0  0  # atno 8008 bound_to 7997
  156.2839  140.2150  156.5556 H   0  0  0  0  0  0  0  0  0  0  0  0  # atno 8009 bound_to 7997
  154.7229  140.0488  157.0643 H   0  0  0  0  0  0  0  0  0  0  0  0  # atno 8010 bound_to 7997
  139.7778  144.6899  151.0065 H   0  0  0  0  0  0  0  0  0  0  0  0  # atno 10167 bound_to 10162
  156.0834  130.6030  150.8782 H   0  0  0  0  0  0  0  0  0  0  0  0  # atno 10718 bound_to 10713
  152.9864  135.5617  154.5504 H   0  0  0  0  0  0  0  0  0  0  0  0  # atno 10763 bound_to 10752
  154.4942  135.2794  155.1475 H   0  0  0  0  0  0  0  0  0  0  0  0  # atno 10764 bound_to 10752
  154.2932  135.6322  153.5447 H   0  0  0  0  0  0  0  0  0  0  0  0  # atno 10765 bound_to 10752
  140.4500  134.6352  157.4797 H   0  0  0  0  0  0  0  0  0  0  0  0  # atno 11005 bound_to 11000
  146.1279  140.7224  142.9426 LP  0  0  0  0  0  0  0  0  0  0  0  0  # atno 17320 bound_to 7965
  144.7157  140.4200  143.7046 LP  0  0  0  0  0  0  0  0  0  0  0  0  # atno 17321 bound_to 7965
  140.7817  143.4516  151.0404 LP  0  0  0  0  0  0  0  0  0  0  0  0  # atno 17342 bound_to 10162
  139.8198  143.7836  152.3176 LP  0  0  0  0  0  0  0  0  0  0  0  0  # atno 17343 bound_to 10162
  157.5959  131.0943  150.9041 LP  0  0  0  0  0  0  0  0  0  0  0  0  # atno 17370 bound_to 10713
  156.9208  130.5314  149.5279 LP  0  0  0  0  0  0  0  0  0  0  0  0  # atno 17371 bound_to 10713
  140.0013  134.6832  155.9526 LP  0  0  0  0  0  0  0  0  0  0  0  0  # atno 17394 bound_to 11000
  141.1668  133.6537  156.4508 LP  0  0  0  0  0  0  0  0  0  0  0  0  # atno 17395 bound_to 11000

$$$$
