AV-unprocessed.smi:1851|AV-procd|sdf|7524|dock4
  -GOLD-   22720 9233D 1   1.00000     0.00000
 Structure written by MMmdl.
 40 42  0  0  0  0  0  0  0  0  2 V2000
  147.3385  138.7536  153.2676 O   0  0  0  0  0  0  0  0  0  0  0  0
  146.5554  139.0101  152.3545 C   0  0  0  0  0  0  0  0  0  0  0  0
  145.4286  138.3255  152.1120 N   0  0  0  0  0  0  0  0  0  0  0  0
  144.9356  137.2141  152.9203 C   0  0  0  0  0  0  0  0  0  0  0  0
  144.9917  135.8790  152.2387 C   0  0  0  0  0  0  0  0  0  0  0  0
  146.0589  135.3320  151.5864 N   0  3  0  0  0  0  0  0  0  0  0  0
  145.7160  134.0771  151.0821 C   0  0  0  0  0  0  0  0  0  0  0  0
  146.4581  133.1523  150.3538 C   0  0  0  0  0  0  0  0  0  0  0  0
  145.7994  131.9596  149.9888 C   0  0  0  0  0  0  0  0  0  0  0  0
  144.4560  131.7232  150.3472 C   0  0  0  0  0  0  0  0  0  0  0  0
  143.7149  132.6678  151.0876 C   0  0  0  0  0  0  0  0  0  0  0  0
  144.3747  133.8431  151.4451 C   0  0  0  0  0  0  0  0  0  0  0  0
  143.9726  134.9758  152.1606 N   0  0  0  0  0  0  0  0  0  0  0  0
  142.6056  135.0388  152.6927 C   0  0  0  0  0  0  0  0  0  0  0  0
  142.5837  135.0092  154.2256 C   0  0  0  0  0  0  0  0  0  0  0  0
  141.2343  135.1117  154.6555 O   0  0  0  0  0  0  0  0  0  0  0  0
  140.5402  136.2645  154.3579 C   0  0  0  0  0  0  0  0  0  0  0  0
  139.1341  136.2052  154.4491 C   0  0  0  0  0  0  0  0  0  0  0  0
  138.3444  137.3353  154.1625 C   0  0  0  0  0  0  0  0  0  0  0  0
  138.9574  138.5427  153.7796 C   0  0  0  0  0  0  0  0  0  0  0  0
  137.9924  139.9290  153.4279 Cl  0  0  0  0  0  0  0  0  0  0  0  0
  140.3597  138.6164  153.6847 C   0  0  0  0  0  0  0  0  0  0  0  0
  141.1492  137.4857  153.9719 C   0  0  0  0  0  0  0  0  0  0  0  0
  146.6852  139.8260  151.6270 H   0  0  0  0  0  0  0  0  0  0  0  0
  144.8552  138.6148  151.3325 H   0  0  0  0  0  0  0  0  0  0  0  0
  145.4862  137.1570  153.8606 H   0  0  0  0  0  0  0  0  0  0  0  0
  143.8990  137.4270  153.1824 H   0  0  0  0  0  0  0  0  0  0  0  0
  147.4869  133.3317  150.0778 H   0  0  0  0  0  0  0  0  0  0  0  0
  146.3348  131.2113  149.4223 H   0  0  0  0  0  0  0  0  0  0  0  0
  143.9838  130.7984  150.0487 H   0  0  0  0  0  0  0  0  0  0  0  0
  142.6863  132.4782  151.3567 H   0  0  0  0  0  0  0  0  0  0  0  0
  142.1187  135.9359  152.3087 H   0  0  0  0  0  0  0  0  0  0  0  0
  142.0503  134.1903  152.2921 H   0  0  0  0  0  0  0  0  0  0  0  0
  143.0242  134.0770  154.5830 H   0  0  0  0  0  0  0  0  0  0  0  0
  143.1699  135.8393  154.6228 H   0  0  0  0  0  0  0  0  0  0  0  0
  138.6551  135.2824  154.7420 H   0  0  0  0  0  0  0  0  0  0  0  0
  137.2686  137.2732  154.2374 H   0  0  0  0  0  0  0  0  0  0  0  0
  140.8331  139.5419  153.3915 H   0  0  0  0  0  0  0  0  0  0  0  0
  142.2209  137.5821  153.8882 H   0  0  0  0  0  0  0  0  0  0  0  0
  146.9580  135.7880  151.4996 H   0  0  0  0  0  0  0  0  0  0  0  0
  1  2  2  0  0  0  0
  2  3  1  0  0  0  0
  2 24  1  0  0  0  0
  3  4  1  0  0  0  0
  3 25  1  0  0  0  0
  4  5  1  0  0  0  0
  4 26  1  0  0  0  0
  4 27  1  0  0  0  0
  5 13  1  0  0  0  0
  5  6  2  0  0  0  0
  6  7  1  0  0  0  0
  6 40  1  0  0  0  0
  7 12  2  0  0  0  0
  7  8  1  0  0  0  0
  8  9  2  0  0  0  0
  8 28  1  0  0  0  0
  9 10  1  0  0  0  0
  9 29  1  0  0  0  0
 10 11  2  0  0  0  0
 10 30  1  0  0  0  0
 11 12  1  0  0  0  0
 11 31  1  0  0  0  0
 12 13  1  0  0  0  0
 13 14  1  0  0  0  0
 14 15  1  0  0  0  0
 14 32  1  0  0  0  0
 14 33  1  0  0  0  0
 15 16  1  0  0  0  0
 15 34  1  0  0  0  0
 15 35  1  0  0  0  0
 16 17  1  0  0  0  0
 17 23  1  0  0  0  0
 17 18  2  0  0  0  0
 18 19  1  0  0  0  0
 18 36  1  0  0  0  0
 19 20  2  0  0  0  0
 19 37  1  0  0  0  0
 20 21  1  0  0  0  0
 20 22  1  0  0  0  0
 22 23  2  0  0  0  0
 22 38  1  0  0  0  0
 23 39  1  0  0  0  0
M  CHG  1   6   1
M  END
> <s_m_source_file>
AV-unprocessed.smi

> <i_m_source_file_index>
1851

> <i_lp_mmshare_version>
43012

> <i_f3d_flags>
0

> <s_epik_input>
Tz1bQ0hdW05IXVtDSDJdYyhuMSluKGMoYzEyKVtjSF1bY0hdW2NIXVtjSF0yKVtDSDJdW0NIMl1PYzNbY0hdW2NIXWMoQ2wpW2NIXVtjSF0z

> <s_epik_cmdline>
J2VwaWtfcHl0aG9uJywgJy1waCcsICc3LjAnLCAnLXRuJywgJzgnLCAnLW1hJywgJzIwMCcsICctbWV0YWxfYmluZGluZycsICctaW1hZScsICc8aW5maWxlLm1hZT4nLCAnLW9tYWUnLCAnPG91dGZpbGUubWFlPic=

> <r_lp_tautomer_probability>
1

> <r_epik_Ionization_Penalty>
1.32442

> <r_epik_Ionization_Penalty_Charging>
1.32442

> <r_epik_Ionization_Penalty_Neutral>
7.38905e-08

> <r_epik_State_Penalty>
1.4003

> <r_epik_Charging_Adjusted_Penalty>
2.72472

> <i_epik_Tot_Q>
1

> <i_epik_Tot_abs_Q>
1

> <r_epik_Metal_State_Penalty>
1.46133

> <b_epik_Metal_Only>
0

> <s_lp_Force_Field>
OPLS_2005

> <r_lp_Energy>
15.621

> <b_lp_Chiralities_Consistent>
1

> <s_lp_Variant>
AV-unprocessed.smi:1851-2

> <Gold.Version>
5.8.1

> <Gold.Id.Protein>
6NUR|6NUR_protein|mol2

> <Gold.PLP.Fitness>
60.9001

> <Gold.PLP.PLP>
-50.2834

> <Gold.PLP.part.hbond>
-4.0000

> <Gold.PLP.part.metal>
0.0000

> <Gold.PLP.part.buried>
-4.6403

> <Gold.PLP.part.nonpolar>
-42.2423

> <Gold.PLP.part.repulsive>
0.4280

> <Gold.PLP.ligand.clash>
0.0000

> <Gold.PLP.ligand.torsion>
0.4307

> <Gold.PLP.Chemscore.Hbond>
3.8000

> <Gold.PLP.Chemscore.CHOScore>
0.0000

> <Gold.PLP.Chemscore.Metal>
0.0000

> <Gold.Chemscore.Hbonds>
donor molecule, donor type, donor heavy atom, donor atom, acceptor molecule, acceptor atom, score
      L1  H     3    25       P1 10171  1.00
      L1  H     6    40       P1  7948  1.98
      P1  H 11000 11005       L1    16  0.72

> <Gold.PLP.Chemscore.Internal.Correction>
0.0781

> <Gold.Rescore>
     Score         DG    S(hbond)    S(metal)    S(lipo)     H(rot)  DE(clash)    DE(int)     intcor
     21.58     -22.13       2.80        0.00     116.85       2.49       0.28       0.27       ----

> <Gold.Chemscore.Fitness>
21.5771

> <Gold.Chemscore.DG>
-22.1255

> <Gold.Chemscore.ZeroCoef>
-5.4800

> <Gold.Chemscore.Hbond>
2.7953

> <Gold.Chemscore.Metal>
0.0000

> <Gold.Chemscore.Lipo>
116.8538

> <Gold.Chemscore.Internal_Hbond>
0.0000

> <Gold.Chemscore.DEClash>
0.2774

> <Gold.Chemscore.DEInternal>
0.2710

> <Gold.Chemscore.Rot>
2.4854

> <Gold.Chemscore.Internal.Correction>
   9.000000E+99

> <Gold.Chemscore.Hbonds>
donor molecule, donor type, donor heavy atom, donor atom, acceptor molecule, acceptor atom, score
      L1  H     3    25       P1 10171  1.00
      L1  H     6    40       P1  7948  0.92
      P1  H 11000 11005       L1    16  0.32

> <Gold.Chemscore.Hbond.Weighted>
-9.3363

> <Gold.Chemscore.Metal.Weighted>
-0.0000

> <Gold.Chemscore.Lipo.Weighted>
-13.6719

> <Gold.Chemscore.Internal_Hbond.Weighted>
0.0000

> <Gold.Chemscore.DEClash.Weighted>
0.2774

> <Gold.Chemscore.DEInternal.Weighted>
0.2710

> <Gold.Chemscore.Rot.Weighted>
6.3627

> <Gold.Chemscore.Internal.Correction.Weighted>
   9.000000E+99

> <Gold.Protein.RotatedTorsions>
[ 6907 6896 6895 6894 ] final  144.56 input  -60.11 | X-H torsion
[ 7974 7965 7964 7962 ] final  -36.91 input  175.53 | X-H torsion
[ 8008 7997 7996 7995 ] final   98.52 input   59.86 | X-H torsion
[ 10167 10162 10161 10158 ] final -144.14 input  -65.29 | X-H torsion
[ 10718 10713 10712 10709 ] final -177.82 input   66.30 | X-H torsion
[ 10763 10752 10751 10750 ] final  -29.57 input  -60.55 | X-H torsion
[ 11005 11000 10999 10996 ] final   34.25 input  -57.11 | X-H torsion

> <Gold.Protein.ActiveResidues>
 VAL166  LYS551  ARG553  GLY616  TRP617  ASP618  TYR619  PRO620  LYS621  CYS622 
 ASP623  PHE694  ASN695  SER759  ASP760  ASP761  ALA762  ILE779  LEU786  VAL792 
 PHE793  MET794  SER795  GLU796  ALA797  LYS798  CYS799  TRP800  GLU811  SER814 

> <Gold.Protein.RotatedAtoms>
  152.1921  133.4780  159.5013 H   0  0  0  0  0  0  0  0  0  0  0  0  # atno 6907 bound_to 6896
  150.6953  134.1699  159.4217 H   0  0  0  0  0  0  0  0  0  0  0  0  # atno 6908 bound_to 6896
  151.9614  135.0121  160.0598 H   0  0  0  0  0  0  0  0  0  0  0  0  # atno 6909 bound_to 6896
  146.0620  140.6334  142.8992 H   0  0  0  0  0  0  0  0  0  0  0  0  # atno 7974 bound_to 7965
  156.1013  140.3242  155.7945 H   0  0  0  0  0  0  0  0  0  0  0  0  # atno 8008 bound_to 7997
  155.4832  140.0555  157.2981 H   0  0  0  0  0  0  0  0  0  0  0  0  # atno 8009 bound_to 7997
  154.4698  140.2006  156.0038 H   0  0  0  0  0  0  0  0  0  0  0  0  # atno 8010 bound_to 7997
  139.7927  143.7943  152.2651 H   0  0  0  0  0  0  0  0  0  0  0  0  # atno 10167 bound_to 10162
  156.8352  130.9667  151.3104 H   0  0  0  0  0  0  0  0  0  0  0  0  # atno 10718 bound_to 10713
  153.7668  135.6915  153.4914 H   0  0  0  0  0  0  0  0  0  0  0  0  # atno 10763 bound_to 10752
  153.1901  135.4474  155.0137 H   0  0  0  0  0  0  0  0  0  0  0  0  # atno 10764 bound_to 10752
  154.8132  135.3387  154.7180 H   0  0  0  0  0  0  0  0  0  0  0  0  # atno 10765 bound_to 10752
  140.2547  134.3262  155.7878 H   0  0  0  0  0  0  0  0  0  0  0  0  # atno 11005 bound_to 11000
  144.7180  140.4278  143.7029 LP  0  0  0  0  0  0  0  0  0  0  0  0  # atno 17320 bound_to 7965
  145.6543  139.1570  143.2844 LP  0  0  0  0  0  0  0  0  0  0  0  0  # atno 17321 bound_to 7965
  139.8039  144.7363  150.9787 LP  0  0  0  0  0  0  0  0  0  0  0  0  # atno 17342 bound_to 10162
  140.7820  143.4317  151.0684 LP  0  0  0  0  0  0  0  0  0  0  0  0  # atno 17343 bound_to 10162
  157.6385  130.8786  149.9404 LP  0  0  0  0  0  0  0  0  0  0  0  0  # atno 17370 bound_to 10713
  156.0912  130.3663  150.0392 LP  0  0  0  0  0  0  0  0  0  0  0  0  # atno 17371 bound_to 10713
  141.2197  133.7374  156.9093 LP  0  0  0  0  0  0  0  0  0  0  0  0  # atno 17394 bound_to 11000
  140.1523  134.9222  157.2609 LP  0  0  0  0  0  0  0  0  0  0  0  0  # atno 17395 bound_to 11000

$$$$
