AV-unprocessed.smi:1409|AV-procd|sdf|5728|dock5
  -GOLD-   22720 5363D 1   1.00000     0.00000
 Structure written by MMmdl.
 37 38  0  0  0  0  0  0  0  0  1 V2000
  151.7786  138.6008  153.6687 C   0  0  0  0  0  0  0  0  0  0  0  0
  150.3802  138.4004  153.4933 O   0  0  0  0  0  0  0  0  0  0  0  0
  149.5229  139.4485  153.7708 C   0  0  0  0  0  0  0  0  0  0  0  0
  150.0561  140.6182  154.2049 N   0  0  0  0  0  0  0  0  0  0  0  0
  149.2227  141.6434  154.4747 C   0  0  0  0  0  0  0  0  0  0  0  0
  147.8270  141.5602  154.3233 C   0  0  0  0  0  0  0  0  0  0  0  0
  147.2713  140.3491  153.8716 C   0  0  0  0  0  0  0  0  0  0  0  0
  148.1320  139.2585  153.5921 C   0  0  0  0  0  0  0  0  0  0  0  0
  147.6938  137.9876  153.1213 N   0  0  0  0  0  0  0  0  0  0  0  0
  146.5583  137.3182  153.3842 C   0  0  0  0  0  0  0  0  0  0  0  0
  145.6535  137.7011  154.1246 O   0  0  0  0  0  0  0  0  0  0  0  0
  146.5307  136.1483  152.7298 N   0  0  0  0  0  0  0  0  0  0  0  0
  145.4492  135.1687  152.7826 C   0  0  0  0  0  0  0  0  0  0  0  0
  145.6927  133.9934  151.8171 C   0  0  1  0  0  0  0  0  0  0  0  0
  146.7866  133.0349  152.3265 C   0  0  0  0  0  0  0  0  0  0  0  0
  146.7873  131.7816  151.4462 C   0  0  0  0  0  0  0  0  0  0  0  0
  145.0379  131.5092  150.9782 S   0  0  0  0  0  0  0  0  0  0  0  0
  144.9436  131.4158  149.5135 O   0  0  0  0  0  0  0  0  0  0  0  0
  144.4550  130.4718  151.8425 O   0  0  0  0  0  0  0  0  0  0  0  0
  144.4373  133.1516  151.5283 C   0  0  0  0  0  0  0  0  0  0  0  0
  152.3084  137.6830  153.4143 H   0  0  0  0  0  0  0  0  0  0  0  0
  152.0218  138.8469  154.7033 H   0  0  0  0  0  0  0  0  0  0  0  0
  152.1522  139.3900  153.0147 H   0  0  0  0  0  0  0  0  0  0  0  0
  149.6827  142.5582  154.8181 H   0  0  0  0  0  0  0  0  0  0  0  0
  147.1962  142.4081  154.5462 H   0  0  0  0  0  0  0  0  0  0  0  0
  146.2023  140.2950  153.7447 H   0  0  0  0  0  0  0  0  0  0  0  0
  148.3522  137.5112  152.5221 H   0  0  0  0  0  0  0  0  0  0  0  0
  147.3205  135.9166  152.1451 H   0  0  0  0  0  0  0  0  0  0  0  0
  145.3959  134.7940  153.8050 H   0  0  0  0  0  0  0  0  0  0  0  0
  144.4840  135.6365  152.5814 H   0  0  0  0  0  0  0  0  0  0  0  0
  146.0411  134.3977  150.8653 H   0  0  0  0  0  0  0  0  0  0  0  0
  147.7675  133.5107  152.3407 H   0  0  0  0  0  0  0  0  0  0  0  0
  146.5593  132.7438  153.3530 H   0  0  0  0  0  0  0  0  0  0  0  0
  147.3588  131.9500  150.5332 H   0  0  0  0  0  0  0  0  0  0  0  0
  147.1862  130.9022  151.9521 H   0  0  0  0  0  0  0  0  0  0  0  0
  143.8476  133.0030  152.4336 H   0  0  0  0  0  0  0  0  0  0  0  0
  143.7943  133.5910  150.7656 H   0  0  0  0  0  0  0  0  0  0  0  0
  1  2  1  0  0  0  0
  1 21  1  0  0  0  0
  1 22  1  0  0  0  0
  1 23  1  0  0  0  0
  2  3  1  0  0  0  0
  3  8  1  0  0  0  0
  3  4  2  0  0  0  0
  4  5  1  0  0  0  0
  5  6  2  0  0  0  0
  5 24  1  0  0  0  0
  6  7  1  0  0  0  0
  6 25  1  0  0  0  0
  7  8  2  0  0  0  0
  7 26  1  0  0  0  0
  8  9  1  0  0  0  0
  9 10  1  0  0  0  0
  9 27  1  0  0  0  0
 10 11  2  0  0  0  0
 10 12  1  0  0  0  0
 12 13  1  0  0  0  0
 12 28  1  0  0  0  0
 13 14  1  0  0  0  0
 13 29  1  0  0  0  0
 13 30  1  0  0  0  0
 14 20  1  0  0  0  0
 14 15  1  0  0  0  0
 14 31  1  0  0  0  0
 15 16  1  0  0  0  0
 15 32  1  0  0  0  0
 15 33  1  0  0  0  0
 16 17  1  0  0  0  0
 16 34  1  0  0  0  0
 16 35  1  0  0  0  0
 17 18  2  0  0  0  0
 17 19  2  0  0  0  0
 17 20  1  0  0  0  0
 20 36  1  0  0  0  0
 20 37  1  0  0  0  0
M  END
> <s_m_source_file>
AV-unprocessed.smi

> <i_m_source_file_index>
1409

> <i_lp_mmshare_version>
43012

> <i_f3d_flags>
0

> <s_epik_input>
W0NIM11PYzFuW2NIXVtjSF1bY0hdYzFbTkhdQyg9TylbTkhdW0NIMl1bQ0BASF0oW0NIMl0yKVtDSDJdW0NIMl1TMig9Tyk9Tw==

> <s_epik_cmdline>
J2VwaWtfcHl0aG9uJywgJy1waCcsICc3LjAnLCAnLXRuJywgJzgnLCAnLW1hJywgJzIwMCcsICctbWV0YWxfYmluZGluZycsICctaW1hZScsICc8aW5maWxlLm1hZT4nLCAnLW9tYWUnLCAnPG91dGZpbGUubWFlPic=

> <r_lp_tautomer_probability>
1

> <r_epik_Ionization_Penalty>
9.0549e-05

> <r_epik_Ionization_Penalty_Charging>
0

> <r_epik_Ionization_Penalty_Neutral>
9.0549e-05

> <r_epik_State_Penalty>
-0

> <r_epik_Charging_Adjusted_Penalty>
0

> <i_epik_Tot_Q>
0

> <i_epik_Tot_abs_Q>
0

> <r_epik_Metal_State_Penalty>
-0

> <b_epik_Metal_Only>
0

> <s_lp_Force_Field>
OPLS_2005

> <r_lp_Energy>
6.49732

> <b_lp_Chiralities_Consistent>
1

> <s_lp_Variant>
AV-unprocessed.smi:1409-2

> <Gold.Version>
5.8.1

> <Gold.Id.Protein>
6NUR|6NUR_protein|mol2

> <Gold.PLP.Fitness>
46.2245

> <Gold.PLP.PLP>
-33.7582

> <Gold.PLP.part.hbond>
-6.1567

> <Gold.PLP.part.metal>
0.0000

> <Gold.PLP.part.buried>
0.7649

> <Gold.PLP.part.nonpolar>
-32.1676

> <Gold.PLP.part.repulsive>
3.6304

> <Gold.PLP.ligand.clash>
0.0000

> <Gold.PLP.ligand.torsion>
0.3436

> <Gold.PLP.Chemscore.Hbond>
3.3831

> <Gold.PLP.Chemscore.CHOScore>
0.9957

> <Gold.PLP.Chemscore.Metal>
0.0000

> <Gold.Chemscore.Hbonds>
donor molecule, donor type, donor heavy atom, donor atom, acceptor molecule, acceptor atom, score
      L1  H     9    27       P1  7948  1.00
      L1  H    12    28       P1  7948  0.91
      P1  H  7989  7998       L1     4  0.75
      P1  H 10785 10796       L1    18  0.09
      L1  C     5    24       P1  8028  1.00

> <Gold.PLP.Chemscore.Internal.Correction>
0.0171

> <Gold.Rescore>
     Score         DG    S(hbond)    S(metal)    S(lipo)     H(rot)  DE(clash)    DE(int)     intcor
     14.29     -16.42       2.24        0.00      64.28       1.59       0.71       1.41       ----

> <Gold.Chemscore.Fitness>
14.2937

> <Gold.Chemscore.DG>
-16.4172

> <Gold.Chemscore.ZeroCoef>
-5.4800

> <Gold.Chemscore.Hbond>
2.2430

> <Gold.Chemscore.Metal>
0.0000

> <Gold.Chemscore.Lipo>
64.2814

> <Gold.Chemscore.Internal_Hbond>
0.0000

> <Gold.Chemscore.DEClash>
0.7116

> <Gold.Chemscore.DEInternal>
1.4119

> <Gold.Chemscore.Rot>
1.5919

> <Gold.Chemscore.Internal.Correction>
   9.000000E+99

> <Gold.Chemscore.Hbonds>
donor molecule, donor type, donor heavy atom, donor atom, acceptor molecule, acceptor atom, score
      L1  H     9    27       P1  7948  0.92
      L1  H    12    28       P1  7948  0.89
      P1  H  7989  7998       L1     4  0.57
      P1  H 10785 10796       L1    18  0.08

> <Gold.Chemscore.Hbond.Weighted>
-7.4916

> <Gold.Chemscore.Metal.Weighted>
-0.0000

> <Gold.Chemscore.Lipo.Weighted>
-7.5209

> <Gold.Chemscore.Internal_Hbond.Weighted>
0.0000

> <Gold.Chemscore.DEClash.Weighted>
0.7116

> <Gold.Chemscore.DEInternal.Weighted>
1.4119

> <Gold.Chemscore.Rot.Weighted>
4.0754

> <Gold.Chemscore.Internal.Correction.Weighted>
   9.000000E+99

> <Gold.Protein.RotatedTorsions>
[ 6907 6896 6895 6894 ] final  -92.64 input  -60.11 | X-H torsion
[ 7974 7965 7964 7962 ] final -147.08 input  175.53 | X-H torsion
[ 8008 7997 7996 7995 ] final   34.24 input   59.86 | X-H torsion
[ 10167 10162 10161 10158 ] final -173.30 input  -65.29 | X-H torsion
[ 10718 10713 10712 10709 ] final   62.16 input   66.30 | X-H torsion
[ 10763 10752 10751 10750 ] final   60.53 input  -60.55 | X-H torsion
[ 11005 11000 10999 10996 ] final  -18.19 input  -57.11 | X-H torsion

> <Gold.Protein.ActiveResidues>
 VAL166  LYS551  ARG553  GLY616  TRP617  ASP618  TYR619  PRO620  LYS621  CYS622 
 ASP623  PHE694  ASN695  SER759  ASP760  ASP761  ALA762  ILE779  LEU786  VAL792 
 PHE793  MET794  SER795  GLU796  ALA797  LYS798  CYS799  TRP800  GLU811  SER814 

> <Gold.Protein.RotatedAtoms>
  150.6909  134.2091  159.4352 H   0  0  0  0  0  0  0  0  0  0  0  0  # atno 6907 bound_to 6896
  152.0054  134.9903  160.0576 H   0  0  0  0  0  0  0  0  0  0  0  0  # atno 6908 bound_to 6896
  152.1539  133.4504  159.4864 H   0  0  0  0  0  0  0  0  0  0  0  0  # atno 6909 bound_to 6896
  144.8116  140.5372  143.5638 H   0  0  0  0  0  0  0  0  0  0  0  0  # atno 7974 bound_to 7965
  155.1516  140.3275  155.4430 H   0  0  0  0  0  0  0  0  0  0  0  0  # atno 8008 bound_to 7997
  156.2572  140.1976  156.6578 H   0  0  0  0  0  0  0  0  0  0  0  0  # atno 8009 bound_to 7997
  154.6469  140.0563  156.9897 H   0  0  0  0  0  0  0  0  0  0  0  0  # atno 8010 bound_to 7997
  139.5696  144.1674  152.1364 H   0  0  0  0  0  0  0  0  0  0  0  0  # atno 10167 bound_to 10162
  157.5881  130.9035  149.9553 H   0  0  0  0  0  0  0  0  0  0  0  0  # atno 10718 bound_to 10713
  152.9924  135.5533  154.5888 H   0  0  0  0  0  0  0  0  0  0  0  0  # atno 10763 bound_to 10752
  154.5254  135.2810  155.1229 H   0  0  0  0  0  0  0  0  0  0  0  0  # atno 10764 bound_to 10752
  154.2565  135.6389  153.5312 H   0  0  0  0  0  0  0  0  0  0  0  0  # atno 10765 bound_to 10752
  140.8244  133.8044  155.9692 H   0  0  0  0  0  0  0  0  0  0  0  0  # atno 11005 bound_to 11000
  145.5310  139.1475  143.3500 LP  0  0  0  0  0  0  0  0  0  0  0  0  # atno 17320 bound_to 7965
  146.2416  140.5450  142.8932 LP  0  0  0  0  0  0  0  0  0  0  0  0  # atno 17321 bound_to 7965
  140.1204  144.5379  150.6867 LP  0  0  0  0  0  0  0  0  0  0  0  0  # atno 17342 bound_to 10162
  140.6980  143.2416  151.4946 LP  0  0  0  0  0  0  0  0  0  0  0  0  # atno 17343 bound_to 10162
  156.0932  130.3661  150.0355 LP  0  0  0  0  0  0  0  0  0  0  0  0  # atno 17370 bound_to 10713
  156.8483  130.9450  151.3627 LP  0  0  0  0  0  0  0  0  0  0  0  0  # atno 17371 bound_to 10713
  140.9065  134.2313  157.5011 LP  0  0  0  0  0  0  0  0  0  0  0  0  # atno 17394 bound_to 11000
  139.8707  134.9730  156.4795 LP  0  0  0  0  0  0  0  0  0  0  0  0  # atno 17395 bound_to 11000

$$$$
