AV-unprocessed.smi:1269|AV-procd|sdf|5328|dock5
  -GOLD-   22720 4453D 1   1.00000     0.00000
 Structure written by MMmdl.
 43 44  0  0  0  0  0  0  0  0  1 V2000
  143.8165  132.8059  150.9035 C   0  0  0  0  0  0  0  0  0  0  0  0
  143.6095  133.7269  151.9689 O   0  0  0  0  0  0  0  0  0  0  0  0
  144.4253  134.8374  152.0424 C   0  0  0  0  0  0  0  0  0  0  0  0
  145.4262  135.0046  151.0651 C   0  0  0  0  0  0  0  0  0  0  0  0
  146.2605  136.1361  151.1356 C   0  0  0  0  0  0  0  0  0  0  0  0
  146.0667  137.0709  152.1723 C   0  0  0  0  0  0  0  0  0  0  0  0
  146.9359  138.1941  152.2266 N   0  0  0  0  0  0  0  0  0  0  0  0
  146.9448  139.2055  153.1120 C   0  0  0  0  0  0  0  0  0  0  0  0
  146.1511  139.3454  154.0420 O   0  0  0  0  0  0  0  0  0  0  0  0
  147.9291  140.0754  152.8414 N   0  0  0  0  0  0  0  0  0  0  0  0
  148.2239  141.2887  153.6011 C   0  0  1  0  0  0  0  0  0  0  0  0
  147.0043  142.2169  153.4895 C   0  0  0  0  0  0  0  0  0  0  0  0
  148.6196  140.8961  155.0467 C   0  0  0  0  0  0  0  0  0  0  0  0
  149.9023  140.2050  155.2080 N   0  0  0  0  0  0  0  0  0  0  0  0
  149.7434  138.7641  155.0270 C   0  0  0  0  0  0  0  0  0  0  0  0
  151.0753  138.0102  155.1843 C   0  0  0  0  0  0  0  0  0  0  0  0
  151.6320  138.2880  156.4643 O   0  0  0  0  0  0  0  0  0  0  0  0
  151.8406  139.6795  156.6788 C   0  0  0  0  0  0  0  0  0  0  0  0
  150.5078  140.4321  156.5206 C   0  0  0  0  0  0  0  0  0  0  0  0
  145.0415  136.8072  153.1134 C   0  0  0  0  0  0  0  0  0  0  0  0
  144.2392  135.7229  153.0520 N   0  0  0  0  0  0  0  0  0  0  0  0
  143.0967  131.9915  150.9858 H   0  0  0  0  0  0  0  0  0  0  0  0
  144.8157  132.3695  150.9423 H   0  0  0  0  0  0  0  0  0  0  0  0
  143.6700  133.2793  149.9316 H   0  0  0  0  0  0  0  0  0  0  0  0
  145.5520  134.2777  150.2763 H   0  0  0  0  0  0  0  0  0  0  0  0
  147.0367  136.2830  150.3988 H   0  0  0  0  0  0  0  0  0  0  0  0
  147.6010  138.2620  151.4703 H   0  0  0  0  0  0  0  0  0  0  0  0
  148.5271  139.8821  152.0515 H   0  0  0  0  0  0  0  0  0  0  0  0
  149.0694  141.7925  153.1287 H   0  0  0  0  0  0  0  0  0  0  0  0
  147.2506  143.2366  153.7808 H   0  0  0  0  0  0  0  0  0  0  0  0
  146.1759  141.8684  154.1070 H   0  0  0  0  0  0  0  0  0  0  0  0
  146.6490  142.2744  152.4599 H   0  0  0  0  0  0  0  0  0  0  0  0
  148.5744  141.7661  155.7037 H   0  0  0  0  0  0  0  0  0  0  0  0
  147.8332  140.2311  155.4074 H   0  0  0  0  0  0  0  0  0  0  0  0
  149.0213  138.3766  155.7479 H   0  0  0  0  0  0  0  0  0  0  0  0
  149.3359  138.5580  154.0365 H   0  0  0  0  0  0  0  0  0  0  0  0
  150.9170  136.9358  155.0899 H   0  0  0  0  0  0  0  0  0  0  0  0
  151.7784  138.3014  154.4025 H   0  0  0  0  0  0  0  0  0  0  0  0
  152.2431  139.8285  157.6807 H   0  0  0  0  0  0  0  0  0  0  0  0
  152.5835  140.0572  155.9746 H   0  0  0  0  0  0  0  0  0  0  0  0
  150.6897  141.4885  156.6915 H   0  0  0  0  0  0  0  0  0  0  0  0
  149.8218  140.1085  157.3051 H   0  0  0  0  0  0  0  0  0  0  0  0
  144.8560  137.4548  153.9556 H   0  0  0  0  0  0  0  0  0  0  0  0
  1  2  1  0  0  0  0
  1 22  1  0  0  0  0
  1 23  1  0  0  0  0
  1 24  1  0  0  0  0
  2  3  1  0  0  0  0
  3 21  1  0  0  0  0
  3  4  2  0  0  0  0
  4  5  1  0  0  0  0
  4 25  1  0  0  0  0
  5  6  2  0  0  0  0
  5 26  1  0  0  0  0
  6  7  1  0  0  0  0
  6 20  1  0  0  0  0
  7  8  1  0  0  0  0
  7 27  1  0  0  0  0
  8  9  2  0  0  0  0
  8 10  1  0  0  0  0
 10 11  1  0  0  0  0
 10 28  1  0  0  0  0
 11 12  1  0  0  0  0
 11 13  1  0  0  0  0
 11 29  1  0  0  0  0
 12 30  1  0  0  0  0
 12 31  1  0  0  0  0
 12 32  1  0  0  0  0
 13 14  1  0  0  0  0
 13 33  1  0  0  0  0
 13 34  1  0  0  0  0
 14 19  1  0  0  0  0
 14 15  1  0  0  0  0
 15 16  1  0  0  0  0
 15 35  1  0  0  0  0
 15 36  1  0  0  0  0
 16 17  1  0  0  0  0
 16 37  1  0  0  0  0
 16 38  1  0  0  0  0
 17 18  1  0  0  0  0
 18 19  1  0  0  0  0
 18 39  1  0  0  0  0
 18 40  1  0  0  0  0
 19 41  1  0  0  0  0
 19 42  1  0  0  0  0
 20 21  2  0  0  0  0
 20 43  1  0  0  0  0
M  END
> <s_m_source_file>
AV-unprocessed.smi

> <i_m_source_file_index>
1269

> <i_lp_mmshare_version>
43012

> <i_f3d_flags>
0

> <s_epik_input>
W0NIM11PYzFbY0hdW2NIXWMoW2NIXW4xKVtOSF1DKD1PKVtOSF1bQ0BIXShbQ0gzXSlbQ0gyXU4yW0NIMl1bQ0gyXU9bQ0gyXVtDSDJdMg==

> <s_epik_cmdline>
J2VwaWtfcHl0aG9uJywgJy1waCcsICc3LjAnLCAnLXRuJywgJzgnLCAnLW1hJywgJzIwMCcsICctbWV0YWxfYmluZGluZycsICctaW1hZScsICc8aW5maWxlLm1hZT4nLCAnLW9tYWUnLCAnPG91dGZpbGUubWFlPic=

> <r_lp_tautomer_probability>
1

> <r_epik_Ionization_Penalty>
0.266086

> <r_epik_Ionization_Penalty_Charging>
0

> <r_epik_Ionization_Penalty_Neutral>
0.266086

> <r_epik_State_Penalty>
0.257924

> <r_epik_Charging_Adjusted_Penalty>
0.257924

> <i_epik_Tot_Q>
0

> <i_epik_Tot_abs_Q>
0

> <r_epik_Metal_State_Penalty>
0.25792

> <b_epik_Metal_Only>
0

> <s_lp_Force_Field>
OPLS_2005

> <r_lp_Energy>
29.6845

> <b_lp_Chiralities_Consistent>
1

> <s_lp_Variant>
AV-unprocessed.smi:1269-2

> <Gold.Version>
5.8.1

> <Gold.Id.Protein>
6NUR|6NUR_protein|mol2

> <Gold.PLP.Fitness>
41.2252

> <Gold.PLP.PLP>
-38.4457

> <Gold.PLP.part.hbond>
-2.7404

> <Gold.PLP.part.metal>
0.0000

> <Gold.PLP.part.buried>
-3.9725

> <Gold.PLP.part.nonpolar>
-32.1711

> <Gold.PLP.part.repulsive>
0.6084

> <Gold.PLP.ligand.clash>
0.7356

> <Gold.PLP.ligand.torsion>
0.3721

> <Gold.PLP.Chemscore.Hbond>
1.4038

> <Gold.PLP.Chemscore.CHOScore>
0.0000

> <Gold.PLP.Chemscore.Metal>
0.0000

> <Gold.Chemscore.Hbonds>
donor molecule, donor type, donor heavy atom, donor atom, acceptor molecule, acceptor atom, score
      L1  H    10    28       P1  7957  0.67

> <Gold.PLP.Chemscore.Internal.Correction>
0.0481

> <Gold.Rescore>
     Score         DG    S(hbond)    S(metal)    S(lipo)     H(rot)  DE(clash)    DE(int)     intcor
      9.60     -13.60       0.94        0.00      80.06       1.72       1.29       2.71       ----

> <Gold.Chemscore.Fitness>
9.6013

> <Gold.Chemscore.DG>
-13.5974

> <Gold.Chemscore.ZeroCoef>
-5.4800

> <Gold.Chemscore.Hbond>
0.9432

> <Gold.Chemscore.Metal>
0.0000

> <Gold.Chemscore.Lipo>
80.0645

> <Gold.Chemscore.Internal_Hbond>
0.0000

> <Gold.Chemscore.DEClash>
1.2894

> <Gold.Chemscore.DEInternal>
2.7066

> <Gold.Chemscore.Rot>
1.7189

> <Gold.Chemscore.Internal.Correction>
   9.000000E+99

> <Gold.Chemscore.Hbonds>
donor molecule, donor type, donor heavy atom, donor atom, acceptor molecule, acceptor atom, score
      L1  H     7    27       P1  7948  0.01
      L1  H    10    28       P1  7957  0.66

> <Gold.Chemscore.Hbond.Weighted>
-3.1503

> <Gold.Chemscore.Metal.Weighted>
-0.0000

> <Gold.Chemscore.Lipo.Weighted>
-9.3675

> <Gold.Chemscore.Internal_Hbond.Weighted>
0.0000

> <Gold.Chemscore.DEClash.Weighted>
1.2894

> <Gold.Chemscore.DEInternal.Weighted>
2.7066

> <Gold.Chemscore.Rot.Weighted>
4.4004

> <Gold.Chemscore.Internal.Correction.Weighted>
   9.000000E+99

> <Gold.Protein.RotatedTorsions>
[ 6907 6896 6895 6894 ] final -144.12 input  -60.11 | X-H torsion
[ 7974 7965 7964 7962 ] final   -5.43 input  175.53 | X-H torsion
[ 8008 7997 7996 7995 ] final -109.47 input   59.86 | X-H torsion
[ 10167 10162 10161 10158 ] final  168.84 input  -65.29 | X-H torsion
[ 10718 10713 10712 10709 ] final  166.39 input   66.30 | X-H torsion
[ 10763 10752 10751 10750 ] final  -26.90 input  -60.55 | X-H torsion
[ 11005 11000 10999 10996 ] final  -99.37 input  -57.11 | X-H torsion

> <Gold.Protein.ActiveResidues>
 VAL166  LYS551  ARG553  GLY616  TRP617  ASP618  TYR619  PRO620  LYS621  CYS622 
 ASP623  PHE694  ASN695  SER759  ASP760  ASP761  ALA762  ILE779  LEU786  VAL792 
 PHE793  MET794  SER795  GLU796  ALA797  LYS798  CYS799  TRP800  GLU811  SER814 

> <Gold.Protein.RotatedAtoms>
  151.1097  133.5182  159.2605 H   0  0  0  0  0  0  0  0  0  0  0  0  # atno 6907 bound_to 6896
  151.1980  135.0430  159.8870 H   0  0  0  0  0  0  0  0  0  0  0  0  # atno 6908 bound_to 6896
  152.5449  134.0929  159.8338 H   0  0  0  0  0  0  0  0  0  0  0  0  # atno 6909 bound_to 6896
  146.2353  140.2020  142.8334 H   0  0  0  0  0  0  0  0  0  0  0  0  # atno 7974 bound_to 7965
  154.9598  140.0399  157.2184 H   0  0  0  0  0  0  0  0  0  0  0  0  # atno 8008 bound_to 7997
  154.7900  140.2834  155.5976 H   0  0  0  0  0  0  0  0  0  0  0  0  # atno 8009 bound_to 7997
  156.2948  140.2575  156.2745 H   0  0  0  0  0  0  0  0  0  0  0  0  # atno 8010 bound_to 7997
  139.4977  144.3771  151.9662 H   0  0  0  0  0  0  0  0  0  0  0  0  # atno 10167 bound_to 10162
  157.0666  131.0354  151.2627 H   0  0  0  0  0  0  0  0  0  0  0  0  # atno 10718 bound_to 10713
  153.7234  135.6943  153.5007 H   0  0  0  0  0  0  0  0  0  0  0  0  # atno 10763 bound_to 10752
  153.2187  135.4377  155.0463 H   0  0  0  0  0  0  0  0  0  0  0  0  # atno 10764 bound_to 10752
  154.8277  135.3455  154.6767 H   0  0  0  0  0  0  0  0  0  0  0  0  # atno 10765 bound_to 10752
  141.1311  133.8316  157.0963 H   0  0  0  0  0  0  0  0  0  0  0  0  # atno 11005 bound_to 11000
  144.9775  140.8427  143.5418 LP  0  0  0  0  0  0  0  0  0  0  0  0  # atno 17320 bound_to 7965
  145.2009  139.2253  143.5193 LP  0  0  0  0  0  0  0  0  0  0  0  0  # atno 17321 bound_to 7965
  140.3207  144.3431  150.6010 LP  0  0  0  0  0  0  0  0  0  0  0  0  # atno 17342 bound_to 10162
  140.5725  143.2179  151.7574 LP  0  0  0  0  0  0  0  0  0  0  0  0  # atno 17343 bound_to 10162
  157.4912  130.7823  149.7509 LP  0  0  0  0  0  0  0  0  0  0  0  0  # atno 17370 bound_to 10713
  155.9963  130.3907  150.2786 LP  0  0  0  0  0  0  0  0  0  0  0  0  # atno 17371 bound_to 10713
  140.0361  134.9877  157.0874 LP  0  0  0  0  0  0  0  0  0  0  0  0  # atno 17394 bound_to 11000
  140.4208  134.1882  155.7164 LP  0  0  0  0  0  0  0  0  0  0  0  0  # atno 17395 bound_to 11000

$$$$
