AV-unprocessed.smi:3030|AV-procd|sdf|11539|dock8
  -GOLD-   2272016483D 1   1.00000     0.00000
 Structure written by MMmdl.
 52 53  0  0  0  0  0  0  0  0  1 V2000
  153.3777  143.1626  163.4312 C   0  0  0  0  0  0  0  0  0  0  0  0
  152.7046  143.4497  162.0845 C   0  0  0  0  0  0  0  0  0  0  0  0
  153.0050  142.4195  161.1008 N   0  0  0  0  0  0  0  0  0  0  0  0
  154.0111  141.4841  161.3175 C   0  0  0  0  0  0  0  0  0  0  0  0
  154.3021  140.4784  160.4700 C   0  0  0  0  0  0  0  0  0  0  0  0
  153.5189  140.3306  159.2266 C   0  0  0  0  0  0  0  0  0  0  0  0
  153.7567  139.4225  158.4302 O   0  0  0  0  0  0  0  0  0  0  0  0
  152.4407  141.3284  158.9959 C   0  0  0  0  0  0  0  0  0  0  0  0
  151.6975  141.1757  157.8138 N   0  0  0  0  0  0  0  0  0  0  0  0
  150.5004  141.6935  157.4841 C   0  0  0  0  0  0  0  0  0  0  0  0
  149.8164  142.4382  158.1857 O   0  0  0  0  0  0  0  0  0  0  0  0
  150.1384  141.3049  156.2528 N   0  0  0  0  0  0  0  0  0  0  0  0
  148.9214  141.7112  155.5566 C   0  0  2  0  0  0  0  0  0  0  0  0
  147.6820  141.5035  156.4469 C   0  0  0  0  0  0  0  0  0  0  0  0
  146.4271  142.1247  155.8006 C   0  0  2  0  0  0  0  0  0  0  0  0
  145.1758  141.8856  156.6576 C   0  0  0  0  0  0  0  0  0  0  0  0
  146.2346  141.6119  154.3586 C   0  0  0  0  0  0  0  0  0  0  0  0
  147.5132  141.7821  153.5152 C   0  0  0  0  0  0  0  0  0  0  0  0
  148.7326  141.0658  154.1494 C   0  0  2  0  0  0  0  0  0  0  0  0
  148.6244  139.5003  154.0991 C   0  0  0  0  0  0  0  0  0  0  0  0
  147.4518  138.9235  154.9176 C   0  0  0  0  0  0  0  0  0  0  0  0
  149.9175  138.8063  154.5738 C   0  0  0  0  0  0  0  0  0  0  0  0
  152.2516  142.2899  159.9357 C   0  0  0  0  0  0  0  0  0  0  0  0
  153.1406  143.9412  164.1562 H   0  0  0  0  0  0  0  0  0  0  0  0
  154.4624  143.1223  163.3285 H   0  0  0  0  0  0  0  0  0  0  0  0
  153.0439  142.2101  163.8436 H   0  0  0  0  0  0  0  0  0  0  0  0
  151.6246  143.5211  162.2191 H   0  0  0  0  0  0  0  0  0  0  0  0
  153.0297  144.4195  161.7062 H   0  0  0  0  0  0  0  0  0  0  0  0
  154.5618  141.6269  162.2362 H   0  0  0  0  0  0  0  0  0  0  0  0
  155.0961  139.7763  160.6789 H   0  0  0  0  0  0  0  0  0  0  0  0
  152.1485  140.6102  157.1093 H   0  0  0  0  0  0  0  0  0  0  0  0
  150.7631  140.6941  155.7473 H   0  0  0  0  0  0  0  0  0  0  0  0
  149.0140  142.7900  155.4129 H   0  0  0  0  0  0  0  0  0  0  0  0
  147.5250  140.4417  156.6384 H   0  0  0  0  0  0  0  0  0  0  0  0
  147.8492  141.9653  157.4210 H   0  0  0  0  0  0  0  0  0  0  0  0
  146.5835  143.2033  155.7472 H   0  0  0  0  0  0  0  0  0  0  0  0
  144.9584  140.8214  156.7539 H   0  0  0  0  0  0  0  0  0  0  0  0
  144.3010  142.3660  156.2187 H   0  0  0  0  0  0  0  0  0  0  0  0
  145.3046  142.2912  157.6616 H   0  0  0  0  0  0  0  0  0  0  0  0
  145.9359  140.5636  154.3713 H   0  0  0  0  0  0  0  0  0  0  0  0
  145.4148  142.1525  153.8842 H   0  0  0  0  0  0  0  0  0  0  0  0
  147.3396  141.4574  152.4909 H   0  0  0  0  0  0  0  0  0  0  0  0
  147.7329  142.8472  153.4294 H   0  0  0  0  0  0  0  0  0  0  0  0
  149.5989  141.3375  153.5444 H   0  0  0  0  0  0  0  0  0  0  0  0
  148.4693  139.1888  153.0667 H   0  0  0  0  0  0  0  0  0  0  0  0
  147.4323  139.3309  155.9290 H   0  0  0  0  0  0  0  0  0  0  0  0
  147.5209  137.8387  155.0027 H   0  0  0  0  0  0  0  0  0  0  0  0
  146.4899  139.1203  154.4480 H   0  0  0  0  0  0  0  0  0  0  0  0
  150.2078  139.1463  155.5684 H   0  0  0  0  0  0  0  0  0  0  0  0
  150.7509  138.9843  153.8953 H   0  0  0  0  0  0  0  0  0  0  0  0
  149.7937  137.7239  154.6190 H   0  0  0  0  0  0  0  0  0  0  0  0
  151.4871  143.0463  159.8582 H   0  0  0  0  0  0  0  0  0  0  0  0
  1  2  1  0  0  0  0
  1 24  1  0  0  0  0
  1 25  1  0  0  0  0
  1 26  1  0  0  0  0
  2  3  1  0  0  0  0
  2 27  1  0  0  0  0
  2 28  1  0  0  0  0
  3 23  1  0  0  0  0
  3  4  1  0  0  0  0
  4  5  2  0  0  0  0
  4 29  1  0  0  0  0
  5  6  1  0  0  0  0
  5 30  1  0  0  0  0
  6  7  2  0  0  0  0
  6  8  1  0  0  0  0
  8  9  1  0  0  0  0
  8 23  2  0  0  0  0
  9 10  1  0  0  0  0
  9 31  1  0  0  0  0
 10 11  2  0  0  0  0
 10 12  1  0  0  0  0
 12 13  1  0  0  0  0
 12 32  1  0  0  0  0
 13 19  1  0  0  0  0
 13 14  1  0  0  0  0
 13 33  1  0  0  0  0
 14 15  1  0  0  0  0
 14 34  1  0  0  0  0
 14 35  1  0  0  0  0
 15 16  1  0  0  0  0
 15 17  1  0  0  0  0
 15 36  1  0  0  0  0
 16 37  1  0  0  0  0
 16 38  1  0  0  0  0
 16 39  1  0  0  0  0
 17 18  1  0  0  0  0
 17 40  1  0  0  0  0
 17 41  1  0  0  0  0
 18 19  1  0  0  0  0
 18 42  1  0  0  0  0
 18 43  1  0  0  0  0
 19 20  1  0  0  0  0
 19 44  1  0  0  0  0
 20 21  1  0  0  0  0
 20 22  1  0  0  0  0
 20 45  1  0  0  0  0
 21 46  1  0  0  0  0
 21 47  1  0  0  0  0
 21 48  1  0  0  0  0
 22 49  1  0  0  0  0
 22 50  1  0  0  0  0
 22 51  1  0  0  0  0
 23 52  1  0  0  0  0
M  END
> <s_m_source_file>
AV-unprocessed.smi

> <i_m_source_file_index>
3030

> <i_lp_mmshare_version>
43012

> <i_f3d_flags>
0

> <s_epik_input>
W0NIM11bQ0gyXW4xW2NIXVtjSF1jKD1PKWMoW2NIXTEpW05IXUMoPU8pW05IXVtDQEBIXTJbQ0gyXVtDQEBIXShbQ0gzXSlbQ0gyXVtDSDJdW0NASF0yW0NIXShbQ0gzXSlbQ0gzXQ==

> <s_epik_cmdline>
J2VwaWtfcHl0aG9uJywgJy1waCcsICc3LjAnLCAnLXRuJywgJzgnLCAnLW1hJywgJzIwMCcsICctbWV0YWxfYmluZGluZycsICctaW1hZScsICc8aW5maWxlLm1hZT4nLCAnLW9tYWUnLCAnPG91dGZpbGUubWFlPic=

> <r_lp_tautomer_probability>
1

> <r_epik_Ionization_Penalty>
0.00147933

> <r_epik_Ionization_Penalty_Charging>
0.00145753

> <r_epik_Ionization_Penalty_Neutral>
2.17987e-05

> <r_epik_State_Penalty>
0.00097457

> <r_epik_Charging_Adjusted_Penalty>
0.0024321

> <i_epik_Tot_Q>
0

> <i_epik_Tot_abs_Q>
0

> <r_epik_Metal_State_Penalty>
-0

> <b_epik_Metal_Only>
0

> <s_lp_Force_Field>
OPLS_2005

> <r_lp_Energy>
13.9811

> <b_lp_Chiralities_Consistent>
1

> <s_lp_Variant>
AV-unprocessed.smi:3030-7

> <Gold.Version>
5.8.1

> <Gold.Id.Protein>
6NUR|6NUR_protein|mol2

> <Gold.PLP.Fitness>
47.1180

> <Gold.PLP.PLP>
-44.6399

> <Gold.PLP.part.hbond>
-1.0000

> <Gold.PLP.part.metal>
0.0000

> <Gold.PLP.part.buried>
-3.5594

> <Gold.PLP.part.nonpolar>
-38.6192

> <Gold.PLP.part.repulsive>
0.2762

> <Gold.PLP.ligand.clash>
0.0000

> <Gold.PLP.ligand.torsion>
0.3078

> <Gold.PLP.Chemscore.Hbond>
1.0000

> <Gold.PLP.Chemscore.CHOScore>
0.0000

> <Gold.PLP.Chemscore.Metal>
0.0000

> <Gold.Chemscore.Hbonds>
donor molecule, donor type, donor heavy atom, donor atom, acceptor molecule, acceptor atom, score
      P1  H  7997  8009       L1     7  1.00

> <Gold.PLP.Chemscore.Internal.Correction>
0.0938

> <Gold.Rescore>
     Score         DG    S(hbond)    S(metal)    S(lipo)     H(rot)  DE(clash)    DE(int)     intcor
     14.00     -18.66       0.97        0.00     112.61       1.27       0.12       4.54       ----

> <Gold.Chemscore.Fitness>
14.0025

> <Gold.Chemscore.DG>
-18.6591

> <Gold.Chemscore.ZeroCoef>
-5.4800

> <Gold.Chemscore.Hbond>
0.9736

> <Gold.Chemscore.Metal>
0.0000

> <Gold.Chemscore.Lipo>
112.6051

> <Gold.Chemscore.Internal_Hbond>
0.0000

> <Gold.Chemscore.DEClash>
0.1177

> <Gold.Chemscore.DEInternal>
4.5389

> <Gold.Chemscore.Rot>
1.2685

> <Gold.Chemscore.Internal.Correction>
   9.000000E+99

> <Gold.Chemscore.Hbonds>
donor molecule, donor type, donor heavy atom, donor atom, acceptor molecule, acceptor atom, score
      P1  H  7997  8009       L1     7  0.74

> <Gold.Chemscore.Hbond.Weighted>
-3.2517

> <Gold.Chemscore.Metal.Weighted>
-0.0000

> <Gold.Chemscore.Lipo.Weighted>
-13.1748

> <Gold.Chemscore.Internal_Hbond.Weighted>
0.0000

> <Gold.Chemscore.DEClash.Weighted>
0.1177

> <Gold.Chemscore.DEInternal.Weighted>
4.5389

> <Gold.Chemscore.Rot.Weighted>
3.2474

> <Gold.Chemscore.Internal.Correction.Weighted>
   9.000000E+99

> <Gold.Protein.RotatedTorsions>
[ 6907 6896 6895 6894 ] final  -76.96 input  -60.11 | X-H torsion
[ 7974 7965 7964 7962 ] final  173.79 input  175.53 | X-H torsion
[ 8008 7997 7996 7995 ] final  146.71 input   59.86 | X-H torsion
[ 10167 10162 10161 10158 ] final -117.46 input  -65.29 | X-H torsion
[ 10718 10713 10712 10709 ] final -172.11 input   66.30 | X-H torsion
[ 10763 10752 10751 10750 ] final  176.68 input  -60.55 | X-H torsion
[ 11005 11000 10999 10996 ] final -172.74 input  -57.11 | X-H torsion

> <Gold.Protein.ActiveResidues>
 VAL166  LYS551  ARG553  GLY616  TRP617  ASP618  TYR619  PRO620  LYS621  CYS622 
 ASP623  PHE694  ASN695  SER759  ASP760  ASP761  ALA762  ILE779  LEU786  VAL792 
 PHE793  MET794  SER795  GLU796  ALA797  LYS798  CYS799  TRP800  GLU811  SER814 

> <Gold.Protein.RotatedAtoms>
  150.7012  134.4493  159.5328 H   0  0  0  0  0  0  0  0  0  0  0  0  # atno 6907 bound_to 6896
  152.2189  134.8429  160.0497 H   0  0  0  0  0  0  0  0  0  0  0  0  # atno 6908 bound_to 6896
  151.9287  133.3570  159.3960 H   0  0  0  0  0  0  0  0  0  0  0  0  # atno 6909 bound_to 6896
  144.7236  139.9700  143.6437 H   0  0  0  0  0  0  0  0  0  0  0  0  # atno 7974 bound_to 7965
  156.2847  140.2175  156.5420 H   0  0  0  0  0  0  0  0  0  0  0  0  # atno 8008 bound_to 7997
  154.7362  140.0491  157.0792 H   0  0  0  0  0  0  0  0  0  0  0  0  # atno 8009 bound_to 7997
  155.0290  140.3133  155.4768 H   0  0  0  0  0  0  0  0  0  0  0  0  # atno 8010 bound_to 7997
  140.0682  143.4903  152.1995 H   0  0  0  0  0  0  0  0  0  0  0  0  # atno 10167 bound_to 10162
  156.7508  130.9377  151.3114 H   0  0  0  0  0  0  0  0  0  0  0  0  # atno 10718 bound_to 10713
  154.4844  135.2776  155.1546 H   0  0  0  0  0  0  0  0  0  0  0  0  # atno 10763 bound_to 10752
  154.3243  135.6203  153.5525 H   0  0  0  0  0  0  0  0  0  0  0  0  # atno 10764 bound_to 10752
  152.9879  135.5750  154.5251 H   0  0  0  0  0  0  0  0  0  0  0  0  # atno 10765 bound_to 10752
  140.4936  134.5961  157.4963 H   0  0  0  0  0  0  0  0  0  0  0  0  # atno 11005 bound_to 11000
  146.0570  139.3566  143.0604 LP  0  0  0  0  0  0  0  0  0  0  0  0  # atno 17320 bound_to 7965
  145.8141  140.9711  143.0933 LP  0  0  0  0  0  0  0  0  0  0  0  0  # atno 17321 bound_to 7965
  139.5852  144.7528  151.3538 LP  0  0  0  0  0  0  0  0  0  0  0  0  # atno 17342 bound_to 10162
  140.7139  143.7319  150.7618 LP  0  0  0  0  0  0  0  0  0  0  0  0  # atno 17343 bound_to 10162
  157.6778  130.9111  150.0192 LP  0  0  0  0  0  0  0  0  0  0  0  0  # atno 17370 bound_to 10713
  156.1402  130.3642  149.9593 LP  0  0  0  0  0  0  0  0  0  0  0  0  # atno 17371 bound_to 10713
  139.9755  134.7223  155.9959 LP  0  0  0  0  0  0  0  0  0  0  0  0  # atno 17394 bound_to 11000
  141.1472  133.6554  156.3902 LP  0  0  0  0  0  0  0  0  0  0  0  0  # atno 17395 bound_to 11000

$$$$
