AV-unprocessed.smi:1388|AV-procd|sdf|5643|dock9
  -GOLD-   22720 5263D 1   1.00000     0.00000
 Structure written by MMmdl.
 46 47  0  0  0  0  0  0  0  0  2 V2000
  141.5803  139.1772  154.5354 C   0  0  0  0  0  0  0  0  0  0  0  0
  142.5085  140.2973  154.5730 N   0  0  0  0  0  0  0  0  0  0  0  0
  142.9638  140.8611  155.7005 C   0  0  0  0  0  0  0  0  0  0  0  0
  142.6312  140.4848  156.8250 O   0  0  0  0  0  0  0  0  0  0  0  0
  143.9270  142.0399  155.5267 C   0  0  0  0  0  0  0  0  0  0  0  0
  145.1473  141.6870  154.7559 N   0  3  2  0  0  0  0  0  0  0  0  0
  146.0251  140.7399  155.4894 C   0  0  0  0  0  0  0  0  0  0  0  0
  147.2050  140.2789  154.6141 C   0  0  0  0  0  0  0  0  0  0  0  0
  148.0175  141.4643  154.0655 C   0  0  2  0  0  0  0  0  0  0  0  0
  148.7862  142.0981  155.1364 N   0  0  0  0  0  0  0  0  0  0  0  0
  149.5862  141.4549  155.9997 C   0  0  0  0  0  0  0  0  0  0  0  0
  149.7656  140.2371  155.9775 O   0  0  0  0  0  0  0  0  0  0  0  0
  150.1571  142.3126  156.8640 N   0  0  0  0  0  0  0  0  0  0  0  0
  151.0494  142.0265  157.9357 C   0  0  0  0  0  0  0  0  0  0  0  0
  151.1670  140.7888  158.4788 N   0  0  0  0  0  0  0  0  0  0  0  0
  152.0281  140.5881  159.4971 C   0  0  0  0  0  0  0  0  0  0  0  0
  152.8276  141.6091  160.0385 C   0  0  0  0  0  0  0  0  0  0  0  0
  152.7188  142.8972  159.4871 C   0  0  0  0  0  0  0  0  0  0  0  0
  151.8196  143.1170  158.4219 C   0  0  0  0  0  0  0  0  0  0  0  0
  151.7012  144.5097  157.8243 C   0  0  0  0  0  0  0  0  0  0  0  0
  147.0725  142.4647  153.3708 C   0  0  0  0  0  0  0  0  0  0  0  0
  145.9020  142.8774  154.2804 C   0  0  0  0  0  0  0  0  0  0  0  0
  141.3867  138.8892  153.5023 H   0  0  0  0  0  0  0  0  0  0  0  0
  140.6296  139.4449  154.9985 H   0  0  0  0  0  0  0  0  0  0  0  0
  141.9915  138.3128  155.0581 H   0  0  0  0  0  0  0  0  0  0  0  0
  142.8196  140.6669  153.6860 H   0  0  0  0  0  0  0  0  0  0  0  0
  143.4194  142.8845  155.0579 H   0  0  0  0  0  0  0  0  0  0  0  0
  144.2069  142.3609  156.5308 H   0  0  0  0  0  0  0  0  0  0  0  0
  146.3894  141.2126  156.4029 H   0  0  0  0  0  0  0  0  0  0  0  0
  145.4486  139.8658  155.7949 H   0  0  0  0  0  0  0  0  0  0  0  0
  147.8511  139.6059  155.1794 H   0  0  0  0  0  0  0  0  0  0  0  0
  146.8182  139.6948  153.7779 H   0  0  0  0  0  0  0  0  0  0  0  0
  148.7230  141.0762  153.3284 H   0  0  0  0  0  0  0  0  0  0  0  0
  148.6939  143.0986  155.2337 H   0  0  0  0  0  0  0  0  0  0  0  0
  149.9288  143.2881  156.7443 H   0  0  0  0  0  0  0  0  0  0  0  0
  152.0808  139.5840  159.8911 H   0  0  0  0  0  0  0  0  0  0  0  0
  153.5058  141.4092  160.8546 H   0  0  0  0  0  0  0  0  0  0  0  0
  153.3194  143.7045  159.8797 H   0  0  0  0  0  0  0  0  0  0  0  0
  152.3852  145.2082  158.3070 H   0  0  0  0  0  0  0  0  0  0  0  0
  150.6882  144.8927  157.9479 H   0  0  0  0  0  0  0  0  0  0  0  0
  151.9386  144.4907  156.7606 H   0  0  0  0  0  0  0  0  0  0  0  0
  147.6208  143.3482  153.0419 H   0  0  0  0  0  0  0  0  0  0  0  0
  146.6725  142.0068  152.4650 H   0  0  0  0  0  0  0  0  0  0  0  0
  145.2413  143.5446  153.7264 H   0  0  0  0  0  0  0  0  0  0  0  0
  146.2710  143.4441  155.1367 H   0  0  0  0  0  0  0  0  0  0  0  0
  144.8252  141.1963  153.9333 H   0  0  0  0  0  0  0  0  0  0  0  0
  1  2  1  0  0  0  0
  1 23  1  0  0  0  0
  1 24  1  0  0  0  0
  1 25  1  0  0  0  0
  2  3  1  0  0  0  0
  2 26  1  0  0  0  0
  3  4  2  0  0  0  0
  3  5  1  0  0  0  0
  5  6  1  0  0  0  0
  5 27  1  0  0  0  0
  5 28  1  0  0  0  0
  6 22  1  0  0  0  0
  6  7  1  0  0  0  0
  6 46  1  0  0  0  0
  7  8  1  0  0  0  0
  7 29  1  0  0  0  0
  7 30  1  0  0  0  0
  8  9  1  0  0  0  0
  8 31  1  0  0  0  0
  8 32  1  0  0  0  0
  9 10  1  0  0  0  0
  9 21  1  0  0  0  0
  9 33  1  0  0  0  0
 10 11  1  0  0  0  0
 10 34  1  0  0  0  0
 11 12  2  0  0  0  0
 11 13  1  0  0  0  0
 13 14  1  0  0  0  0
 13 35  1  0  0  0  0
 14 19  1  0  0  0  0
 14 15  2  0  0  0  0
 15 16  1  0  0  0  0
 16 17  2  0  0  0  0
 16 36  1  0  0  0  0
 17 18  1  0  0  0  0
 17 37  1  0  0  0  0
 18 19  2  0  0  0  0
 18 38  1  0  0  0  0
 19 20  1  0  0  0  0
 20 39  1  0  0  0  0
 20 40  1  0  0  0  0
 20 41  1  0  0  0  0
 21 22  1  0  0  0  0
 21 42  1  0  0  0  0
 21 43  1  0  0  0  0
 22 44  1  0  0  0  0
 22 45  1  0  0  0  0
M  CHG  1   6   1
M  END
> <s_m_source_file>
AV-unprocessed.smi

> <i_m_source_file_index>
1388

> <i_lp_mmshare_version>
43012

> <i_f3d_flags>
0

> <s_epik_input>
W0NIM11bTkhdQyg9TylbQ0gyXU4xW0NIMl1bQ0gyXVtDSF0oW0NIMl1bQ0gyXTEpW05IXUMoPU8pW05IXWMybltjSF1bY0hdW2NIXWMyW0NIM10=

> <s_epik_cmdline>
J2VwaWtfcHl0aG9uJywgJy1waCcsICc3LjAnLCAnLXRuJywgJzgnLCAnLW1hJywgJzIwMCcsICctbWV0YWxfYmluZGluZycsICctaW1hZScsICc8aW5maWxlLm1hZT4nLCAnLW9tYWUnLCAnPG91dGZpbGUubWFlPic=

> <r_epik_Ionization_Penalty>
0.83891

> <r_epik_Ionization_Penalty_Charging>
0.838844

> <r_epik_Ionization_Penalty_Neutral>
6.58477e-05

> <r_epik_State_Penalty>
0.8734

> <r_epik_Charging_Adjusted_Penalty>
1.71224

> <i_epik_Tot_Q>
1

> <i_epik_Tot_abs_Q>
1

> <r_epik_Metal_State_Penalty>
0.877924

> <b_epik_Metal_Only>
0

> <s_lp_Force_Field>
OPLS_2005

> <r_lp_Energy>
16.2558

> <b_lp_Chiralities_Consistent>
1

> <s_lp_Variant>
AV-unprocessed.smi:1388-3

> <Gold.Version>
5.8.1

> <Gold.Id.Protein>
6NUR|6NUR_protein|mol2

> <Gold.PLP.Fitness>
51.4083

> <Gold.PLP.PLP>
-37.0917

> <Gold.PLP.part.hbond>
-4.0000

> <Gold.PLP.part.metal>
0.0000

> <Gold.PLP.part.buried>
-7.2071

> <Gold.PLP.part.nonpolar>
-26.4933

> <Gold.PLP.part.repulsive>
0.2899

> <Gold.PLP.ligand.clash>
0.0000

> <Gold.PLP.ligand.torsion>
0.2214

> <Gold.PLP.Chemscore.Hbond>
4.9120

> <Gold.PLP.Chemscore.CHOScore>
0.0000

> <Gold.PLP.Chemscore.Metal>
0.0000

> <Gold.Chemscore.Hbonds>
donor molecule, donor type, donor heavy atom, donor atom, acceptor molecule, acceptor atom, score
      L1  H     2    26       P1 10175  0.71
      L1  H     6    46       P1 10175  2.00
      L1  H    10    34       P1  8028  1.00
      L1  H    13    35       P1  8028  0.86

> <Gold.PLP.Chemscore.Internal.Correction>
0.0234

> <Gold.Rescore>
     Score         DG    S(hbond)    S(metal)    S(lipo)     H(rot)  DE(clash)    DE(int)     intcor
     20.29     -24.21       3.86        0.00      86.74       1.69       1.41       2.52       ----

> <Gold.Chemscore.Fitness>
20.2903

> <Gold.Chemscore.DG>
-24.2148

> <Gold.Chemscore.ZeroCoef>
-5.4800

> <Gold.Chemscore.Hbond>
3.8623

> <Gold.Chemscore.Metal>
0.0000

> <Gold.Chemscore.Lipo>
86.7450

> <Gold.Chemscore.Internal_Hbond>
0.0000

> <Gold.Chemscore.DEClash>
1.4086

> <Gold.Chemscore.DEInternal>
2.5159

> <Gold.Chemscore.Rot>
1.6853

> <Gold.Chemscore.Internal.Correction>
   9.000000E+99

> <Gold.Chemscore.Hbonds>
donor molecule, donor type, donor heavy atom, donor atom, acceptor molecule, acceptor atom, score
      L1  H     2    26       P1 10175  0.34
      L1  H     6    46       P1 10175  0.59
      L1  H    10    34       P1  8028  1.00
      L1  H    13    35       P1  8028  0.80

> <Gold.Chemscore.Hbond.Weighted>
-12.9000

> <Gold.Chemscore.Metal.Weighted>
-0.0000

> <Gold.Chemscore.Lipo.Weighted>
-10.1492

> <Gold.Chemscore.Internal_Hbond.Weighted>
0.0000

> <Gold.Chemscore.DEClash.Weighted>
1.4086

> <Gold.Chemscore.DEInternal.Weighted>
2.5159

> <Gold.Chemscore.Rot.Weighted>
4.3143

> <Gold.Chemscore.Internal.Correction.Weighted>
   9.000000E+99

> <Gold.Protein.RotatedTorsions>
[ 6907 6896 6895 6894 ] final  168.09 input  -60.11 | X-H torsion
[ 7974 7965 7964 7962 ] final -142.45 input  175.53 | X-H torsion
[ 8008 7997 7996 7995 ] final   90.27 input   59.86 | X-H torsion
[ 10167 10162 10161 10158 ] final    8.56 input  -65.29 | X-H torsion
[ 10718 10713 10712 10709 ] final  -39.25 input   66.30 | X-H torsion
[ 10763 10752 10751 10750 ] final   37.80 input  -60.55 | X-H torsion
[ 11005 11000 10999 10996 ] final -150.90 input  -57.11 | X-H torsion

> <Gold.Protein.ActiveResidues>
 VAL166  LYS551  ARG553  GLY616  TRP617  ASP618  TYR619  PRO620  LYS621  CYS622 
 ASP623  PHE694  ASN695  SER759  ASP760  ASP761  ALA762  ILE779  LEU786  VAL792 
 PHE793  MET794  SER795  GLU796  ALA797  LYS798  CYS799  TRP800  GLU811  SER814 

> <Gold.Protein.RotatedAtoms>
  151.8531  133.3443  159.3679 H   0  0  0  0  0  0  0  0  0  0  0  0  # atno 6907 bound_to 6896
  150.7200  134.5280  159.5695 H   0  0  0  0  0  0  0  0  0  0  0  0  # atno 6908 bound_to 6896
  152.2777  134.7863  160.0453 H   0  0  0  0  0  0  0  0  0  0  0  0  # atno 6909 bound_to 6896
  144.8442  140.5956  143.5432 H   0  0  0  0  0  0  0  0  0  0  0  0  # atno 7974 bound_to 7965
  156.0099  140.3351  155.6930 H   0  0  0  0  0  0  0  0  0  0  0  0  # atno 8008 bound_to 7997
  155.6172  140.0671  157.2706 H   0  0  0  0  0  0  0  0  0  0  0  0  # atno 8009 bound_to 7997
  154.4278  140.1783  156.1322 H   0  0  0  0  0  0  0  0  0  0  0  0  # atno 8010 bound_to 7997
  140.6307  143.8000  150.7292 H   0  0  0  0  0  0  0  0  0  0  0  0  # atno 10167 bound_to 10162
  156.2946  130.4232  149.8204 H   0  0  0  0  0  0  0  0  0  0  0  0  # atno 10718 bound_to 10713
  153.0024  135.6267  154.2203 H   0  0  0  0  0  0  0  0  0  0  0  0  # atno 10763 bound_to 10752
  154.1946  135.2807  155.3012 H   0  0  0  0  0  0  0  0  0  0  0  0  # atno 10764 bound_to 10752
  154.5732  135.5670  153.7174 H   0  0  0  0  0  0  0  0  0  0  0  0  # atno 10765 bound_to 10752
  140.7353  134.3575  157.5158 H   0  0  0  0  0  0  0  0  0  0  0  0  # atno 11005 bound_to 11000
  145.4630  139.1511  143.3856 LP  0  0  0  0  0  0  0  0  0  0  0  0  # atno 17320 bound_to 7965
  146.2730  140.4761  142.8807 LP  0  0  0  0  0  0  0  0  0  0  0  0  # atno 17321 bound_to 7965
  140.1610  143.4275  152.2067 LP  0  0  0  0  0  0  0  0  0  0  0  0  # atno 17342 bound_to 10162
  139.5522  144.7346  151.4402 LP  0  0  0  0  0  0  0  0  0  0  0  0  # atno 17343 bound_to 10162
  156.5605  130.8381  151.3327 LP  0  0  0  0  0  0  0  0  0  0  0  0  # atno 17370 bound_to 10713
  157.7352  130.9758  150.2067 LP  0  0  0  0  0  0  0  0  0  0  0  0  # atno 17371 bound_to 10713
  139.8817  134.9045  156.2879 LP  0  0  0  0  0  0  0  0  0  0  0  0  # atno 17394 bound_to 11000
  140.9885  133.7223  156.0778 LP  0  0  0  0  0  0  0  0  0  0  0  0  # atno 17395 bound_to 11000

$$$$
