AV-unprocessed.smi:1047|AV-procd|sdf|4596|dock4
  -GOLD-   22720 3 83D 1   1.00000     0.00000
 Structure written by MMmdl.
 57 59  0  0  0  0  0  0  0  0  3 V2000
  146.2946  142.2645  155.2157 C   0  0  0  0  0  0  0  0  0  0  0  0
  146.8352  141.9706  153.8090 C   0  0  0  0  0  0  0  0  0  0  0  0
  146.5261  140.5921  153.3535 N   0  3  1  0  0  0  0  0  0  0  0  0
  146.9887  140.3423  151.9679 C   0  0  0  0  0  0  0  0  0  0  0  0
  146.6076  138.9220  151.5210 C   0  0  0  0  0  0  0  0  0  0  0  0
  147.1540  137.9779  152.4324 O   0  0  0  0  0  0  0  0  0  0  0  0
  146.6371  138.1373  153.7499 C   0  0  1  0  0  0  0  0  0  0  0  0
  147.2225  137.0217  154.6281 C   0  0  0  0  0  0  0  0  0  0  0  0
  148.6798  137.0091  154.5598 N   0  0  0  0  0  0  0  0  0  0  0  0
  149.3101  137.9641  155.4686 C   0  0  0  0  0  0  0  0  0  0  0  0
  150.7681  138.2651  155.0773 C   0  0  2  0  0  0  0  0  0  0  0  0
  151.4202  137.0619  154.7218 O   0  0  0  0  0  0  0  0  0  0  0  0
  151.5648  139.0367  156.1503 C   0  0  0  0  0  0  0  0  0  0  0  0
  151.1119  140.4255  156.3012 N   0  0  0  0  0  0  0  0  0  0  0  0
  150.2719  141.1618  155.5239 C   0  0  0  0  0  0  0  0  0  0  0  0
  150.1673  142.3965  156.0890 N   0  3  0  0  0  0  0  0  0  0  0  0
  150.9545  142.4501  157.2416 C   0  0  0  0  0  0  0  0  0  0  0  0
  151.1732  143.4798  158.1491 C   0  0  0  0  0  0  0  0  0  0  0  0
  152.0433  143.2124  159.2303 C   0  0  0  0  0  0  0  0  0  0  0  0
  152.3067  144.3172  160.2394 C   0  0  0  0  0  0  0  0  0  0  0  0
  152.6604  141.9426  159.3746 C   0  0  0  0  0  0  0  0  0  0  0  0
  153.5941  141.6665  160.5409 C   0  0  0  0  0  0  0  0  0  0  0  0
  152.4246  140.9080  158.4410 C   0  0  0  0  0  0  0  0  0  0  0  0
  151.5654  141.1889  157.3818 C   0  0  0  0  0  0  0  0  0  0  0  0
  147.0338  139.5356  154.2642 C   0  0  0  0  0  0  0  0  0  0  0  0
  146.4543  143.3114  155.4745 H   0  0  0  0  0  0  0  0  0  0  0  0
  146.7906  141.6658  155.9791 H   0  0  0  0  0  0  0  0  0  0  0  0
  145.2232  142.0701  155.2752 H   0  0  0  0  0  0  0  0  0  0  0  0
  146.3765  142.6819  153.1206 H   0  0  0  0  0  0  0  0  0  0  0  0
  147.9108  142.1481  153.7651 H   0  0  0  0  0  0  0  0  0  0  0  0
  146.5443  141.0711  151.2890 H   0  0  0  0  0  0  0  0  0  0  0  0
  148.0711  140.4717  151.9151 H   0  0  0  0  0  0  0  0  0  0  0  0
  145.5241  138.8068  151.4612 H   0  0  0  0  0  0  0  0  0  0  0  0
  147.0045  138.7220  150.5255 H   0  0  0  0  0  0  0  0  0  0  0  0
  145.5484  138.0533  153.7351 H   0  0  0  0  0  0  0  0  0  0  0  0
  146.8881  137.1495  155.6586 H   0  0  0  0  0  0  0  0  0  0  0  0
  146.8401  136.0569  154.2927 H   0  0  0  0  0  0  0  0  0  0  0  0
  148.9773  137.2066  153.6091 H   0  0  0  0  0  0  0  0  0  0  0  0
  148.7418  138.8953  155.4876 H   0  0  0  0  0  0  0  0  0  0  0  0
  149.2868  137.5698  156.4851 H   0  0  0  0  0  0  0  0  0  0  0  0
  150.7382  138.8704  154.1708 H   0  0  0  0  0  0  0  0  0  0  0  0
  150.7779  136.4680  154.3648 H   0  0  0  0  0  0  0  0  0  0  0  0
  151.4951  138.5421  157.1199 H   0  0  0  0  0  0  0  0  0  0  0  0
  152.6248  139.0700  155.8952 H   0  0  0  0  0  0  0  0  0  0  0  0
  149.7754  140.8265  154.6246 H   0  0  0  0  0  0  0  0  0  0  0  0
  150.6993  144.4436  158.0333 H   0  0  0  0  0  0  0  0  0  0  0  0
  153.3716  144.5457  160.2885 H   0  0  0  0  0  0  0  0  0  0  0  0
  151.9700  144.0175  161.2320 H   0  0  0  0  0  0  0  0  0  0  0  0
  151.7820  145.2351  159.9725 H   0  0  0  0  0  0  0  0  0  0  0  0
  153.9579  140.6388  160.5266 H   0  0  0  0  0  0  0  0  0  0  0  0
  153.0813  141.8243  161.4898 H   0  0  0  0  0  0  0  0  0  0  0  0
  154.4601  142.3273  160.5004 H   0  0  0  0  0  0  0  0  0  0  0  0
  152.8939  139.9413  158.5494 H   0  0  0  0  0  0  0  0  0  0  0  0
  148.1195  139.6129  154.3430 H   0  0  0  0  0  0  0  0  0  0  0  0
  146.6302  139.6766  155.2663 H   0  0  0  0  0  0  0  0  0  0  0  0
  145.5193  140.5102  153.3362 H   0  0  0  0  0  0  0  0  0  0  0  0
  149.6005  143.1458  155.7125 H   0  0  0  0  0  0  0  0  0  0  0  0
  1  2  1  0  0  0  0
  1 26  1  0  0  0  0
  1 27  1  0  0  0  0
  1 28  1  0  0  0  0
  2  3  1  0  0  0  0
  2 29  1  0  0  0  0
  2 30  1  0  0  0  0
  3 25  1  0  0  0  0
  3  4  1  0  0  0  0
  3 56  1  0  0  0  0
  4  5  1  0  0  0  0
  4 31  1  0  0  0  0
  4 32  1  0  0  0  0
  5  6  1  0  0  0  0
  5 33  1  0  0  0  0
  5 34  1  0  0  0  0
  6  7  1  0  0  0  0
  7  8  1  0  0  0  0
  7 25  1  0  0  0  0
  7 35  1  0  0  0  0
  8  9  1  0  0  0  0
  8 36  1  0  0  0  0
  8 37  1  0  0  0  0
  9 10  1  0  0  0  0
  9 38  1  0  0  0  0
 10 11  1  0  0  0  0
 10 39  1  0  0  0  0
 10 40  1  0  0  0  0
 11 12  1  0  0  0  0
 11 13  1  0  0  0  0
 11 41  1  0  0  0  0
 12 42  1  0  0  0  0
 13 14  1  0  0  0  0
 13 43  1  0  0  0  0
 13 44  1  0  0  0  0
 14 24  1  0  0  0  0
 14 15  1  0  0  0  0
 15 16  2  0  0  0  0
 15 45  1  0  0  0  0
 16 17  1  0  0  0  0
 16 57  1  0  0  0  0
 17 24  2  0  0  0  0
 17 18  1  0  0  0  0
 18 19  2  0  0  0  0
 18 46  1  0  0  0  0
 19 20  1  0  0  0  0
 19 21  1  0  0  0  0
 20 47  1  0  0  0  0
 20 48  1  0  0  0  0
 20 49  1  0  0  0  0
 21 22  1  0  0  0  0
 21 23  2  0  0  0  0
 22 50  1  0  0  0  0
 22 51  1  0  0  0  0
 22 52  1  0  0  0  0
 23 24  1  0  0  0  0
 23 53  1  0  0  0  0
 25 54  1  0  0  0  0
 25 55  1  0  0  0  0
M  CHG  1   3   1
M  CHG  1  16   1
M  END
> <s_m_source_file>
AV-unprocessed.smi

> <i_m_source_file_index>
1047

> <i_lp_mmshare_version>
43012

> <i_f3d_flags>
0

> <s_epik_input>
W0NIM11bQ0gyXU4xW0NIMl1bQ0gyXU9bQ0BIXShbQ0gyXTEpW0NIMl1bTkhdW0NIMl1bQ0BIXShbT0hdKVtDSDJdbihbY0hdbjIpYyhjMjMpW2NIXWMoW0NIM10pYyhbY0hdMylbQ0gzXQ==

> <s_epik_cmdline>
J2VwaWtfcHl0aG9uJywgJy1waCcsICc3LjAnLCAnLXRuJywgJzgnLCAnLW1hJywgJzIwMCcsICctbWV0YWxfYmluZGluZycsICctaW1hZScsICc8aW5maWxlLm1hZT4nLCAnLW9tYWUnLCAnPG91dGZpbGUubWFlPic=

> <r_epik_Ionization_Penalty>
2.03028

> <r_epik_Ionization_Penalty_Charging>
1.21256

> <r_epik_Ionization_Penalty_Neutral>
0.817715

> <r_epik_State_Penalty>
2.54959

> <r_epik_Charging_Adjusted_Penalty>
3.76215

> <i_epik_Tot_Q>
2

> <i_epik_Tot_abs_Q>
2

> <r_epik_Metal_State_Penalty>
6.52811

> <b_epik_Metal_Only>
0

> <s_lp_Force_Field>
OPLS_2005

> <r_lp_Energy>
37.5009

> <b_lp_Chiralities_Consistent>
1

> <s_lp_Variant>
AV-unprocessed.smi:1047-37

> <Gold.Version>
5.8.1

> <Gold.Id.Protein>
6NUR|6NUR_protein|mol2

> <Gold.PLP.Fitness>
60.0840

> <Gold.PLP.PLP>
-45.0850

> <Gold.PLP.part.hbond>
-3.8740

> <Gold.PLP.part.metal>
0.0000

> <Gold.PLP.part.buried>
-3.6406

> <Gold.PLP.part.nonpolar>
-42.4436

> <Gold.PLP.part.repulsive>
4.0229

> <Gold.PLP.ligand.clash>
0.0000

> <Gold.PLP.ligand.torsion>
0.5187

> <Gold.PLP.Chemscore.Hbond>
5.2647

> <Gold.PLP.Chemscore.CHOScore>
0.0000

> <Gold.PLP.Chemscore.Metal>
0.0000

> <Gold.Chemscore.Hbonds>
donor molecule, donor type, donor heavy atom, donor atom, acceptor molecule, acceptor atom, score
      L1  H     3    56       P1 10175  2.00
      L1  H     9    38       P1  7948  0.74
      L1  H    16    57       P1  8028  2.00
      P1  H 10752 10764       L1    12  0.46

> <Gold.PLP.Chemscore.Internal.Correction>
0.2422

> <Gold.Rescore>
     Score         DG    S(hbond)    S(metal)    S(lipo)     H(rot)  DE(clash)    DE(int)     intcor
     19.91     -22.86       2.61        0.00     133.25       2.71       2.38       0.57       ----

> <Gold.Chemscore.Fitness>
19.9103

> <Gold.Chemscore.DG>
-22.8598

> <Gold.Chemscore.ZeroCoef>
-5.4800

> <Gold.Chemscore.Hbond>
2.6120

> <Gold.Chemscore.Metal>
0.0000

> <Gold.Chemscore.Lipo>
133.2515

> <Gold.Chemscore.Internal_Hbond>
0.0000

> <Gold.Chemscore.DEClash>
2.3767

> <Gold.Chemscore.DEInternal>
0.5727

> <Gold.Chemscore.Rot>
2.7088

> <Gold.Chemscore.Internal.Correction>
   9.000000E+99

> <Gold.Chemscore.Hbonds>
donor molecule, donor type, donor heavy atom, donor atom, acceptor molecule, acceptor atom, score
      L1  H     3    56       P1 10175  0.87
      L1  H     9    38       P1  7948  0.72
      L1  H    16    57       P1  8028  0.99
      P1  H 10752 10764       L1    12  0.04

> <Gold.Chemscore.Hbond.Weighted>
-8.7240

> <Gold.Chemscore.Metal.Weighted>
-0.0000

> <Gold.Chemscore.Lipo.Weighted>
-15.5904

> <Gold.Chemscore.Internal_Hbond.Weighted>
0.0000

> <Gold.Chemscore.DEClash.Weighted>
2.3767

> <Gold.Chemscore.DEInternal.Weighted>
0.5727

> <Gold.Chemscore.Rot.Weighted>
6.9346

> <Gold.Chemscore.Internal.Correction.Weighted>
   9.000000E+99

> <Gold.Protein.RotatedTorsions>
[ 6907 6896 6895 6894 ] final  110.26 input  -60.11 | X-H torsion
[ 7974 7965 7964 7962 ] final -126.16 input  175.53 | X-H torsion
[ 8008 7997 7996 7995 ] final -168.82 input   59.86 | X-H torsion
[ 10167 10162 10161 10158 ] final  129.15 input  -65.29 | X-H torsion
[ 10718 10713 10712 10709 ] final -104.40 input   66.30 | X-H torsion
[ 10763 10752 10751 10750 ] final  -51.50 input  -60.55 | X-H torsion
[ 11005 11000 10999 10996 ] final  -35.34 input  -57.11 | X-H torsion

> <Gold.Protein.ActiveResidues>
 VAL166  LYS551  ARG553  GLY616  TRP617  ASP618  TYR619  PRO620  LYS621  CYS622 
 ASP623  PHE694  ASN695  SER759  ASP760  ASP761  ALA762  ILE779  LEU786  VAL792 
 PHE793  MET794  SER795  GLU796  ALA797  LYS798  CYS799  TRP800  GLU811  SER814 

> <Gold.Protein.RotatedAtoms>
  152.5028  133.8826  159.7353 H   0  0  0  0  0  0  0  0  0  0  0  0  # atno 6907 bound_to 6896
  150.9284  133.6787  159.2823 H   0  0  0  0  0  0  0  0  0  0  0  0  # atno 6908 bound_to 6896
  151.4140  135.0993  159.9646 H   0  0  0  0  0  0  0  0  0  0  0  0  # atno 6909 bound_to 6896
  144.9901  140.7723  143.4559 H   0  0  0  0  0  0  0  0  0  0  0  0  # atno 7974 bound_to 7965
  155.8966  140.1034  157.1380 H   0  0  0  0  0  0  0  0  0  0  0  0  # atno 8008 bound_to 7997
  154.4021  140.1300  156.4447 H   0  0  0  0  0  0  0  0  0  0  0  0  # atno 8009 bound_to 7997
  155.7472  140.3466  155.5135 H   0  0  0  0  0  0  0  0  0  0  0  0  # atno 8010 bound_to 7997
  139.5492  144.6799  151.4377 H   0  0  0  0  0  0  0  0  0  0  0  0  # atno 10167 bound_to 10162
  156.0303  130.5513  150.7390 H   0  0  0  0  0  0  0  0  0  0  0  0  # atno 10718 bound_to 10713
  154.1276  135.6525  153.4915 H   0  0  0  0  0  0  0  0  0  0  0  0  # atno 10763 bound_to 10752
  153.0205  135.5285  154.7034 H   0  0  0  0  0  0  0  0  0  0  0  0  # atno 10764 bound_to 10752
  154.6259  135.2970  155.0243 H   0  0  0  0  0  0  0  0  0  0  0  0  # atno 10765 bound_to 10752
  140.9788  133.7068  156.1649 H   0  0  0  0  0  0  0  0  0  0  0  0  # atno 11005 bound_to 11000
  145.2298  139.2120  143.5049 LP  0  0  0  0  0  0  0  0  0  0  0  0  # atno 17320 bound_to 7965
  146.3429  140.2173  142.8591 LP  0  0  0  0  0  0  0  0  0  0  0  0  # atno 17321 bound_to 7965
  140.6750  143.8211  150.7046 LP  0  0  0  0  0  0  0  0  0  0  0  0  # atno 17342 bound_to 10162
  140.1646  143.4246  152.2043 LP  0  0  0  0  0  0  0  0  0  0  0  0  # atno 17343 bound_to 10162
  157.4964  131.0915  151.0367 LP  0  0  0  0  0  0  0  0  0  0  0  0  # atno 17370 bound_to 10713
  157.0759  130.5883  149.5411 LP  0  0  0  0  0  0  0  0  0  0  0  0  # atno 17371 bound_to 10713
  140.7217  134.4351  157.5574 LP  0  0  0  0  0  0  0  0  0  0  0  0  # atno 17394 bound_to 11000
  139.8942  134.8713  156.2189 LP  0  0  0  0  0  0  0  0  0  0  0  0  # atno 17395 bound_to 11000

$$$$
