AV-unprocessed.smi:1579|AV-procd|sdf|6355|dock3
  -GOLD-   22720 6573D 1   1.00000     0.00000
 Structure written by MMmdl.
 47 48  0  0  0  0  0  0  0  0  2 V2000
  148.8615  136.0654  157.5596 C   0  0  0  0  0  0  0  0  0  0  0  0
  149.3494  137.1740  156.6665 C   0  0  0  0  0  0  0  0  0  0  0  0
  148.4463  137.8620  156.0480 N   0  0  0  0  0  0  0  0  0  0  0  0
  148.7860  138.9026  155.2070 N   0  0  0  0  0  0  0  0  0  0  0  0
  147.6344  139.5722  154.5902 C   0  0  0  0  0  0  0  0  0  0  0  0
  146.9591  138.6931  153.5146 C   0  0  1  0  0  0  0  0  0  0  0  0
  147.8664  138.5338  152.4413 O   0  0  0  0  0  0  0  0  0  0  0  0
  146.6311  137.2863  154.0552 C   0  0  0  0  0  0  0  0  0  0  0  0
  146.4705  136.2838  152.9707 N   0  3  2  0  0  0  0  0  0  0  0  0
  145.4164  136.6446  151.9857 C   0  0  0  0  0  0  0  0  0  0  0  0
  145.3922  135.6501  150.8129 C   0  0  0  0  0  0  0  0  0  0  0  0
  145.1920  134.2074  151.3069 C   0  0  1  0  0  0  0  0  0  0  0  0
  145.2021  133.2033  150.1458 C   0  0  0  0  0  0  0  0  0  0  0  0
  146.2683  133.8763  152.3544 C   0  0  0  0  0  0  0  0  0  0  0  0
  146.2752  134.9080  153.4951 C   0  0  0  0  0  0  0  0  0  0  0  0
  150.0628  139.3026  154.9419 C   0  0  0  0  0  0  0  0  0  0  0  0
  150.3183  140.2311  154.1731 O   0  0  0  0  0  0  0  0  0  0  0  0
  151.0810  138.5202  155.6459 C   0  0  0  0  0  0  0  0  0  0  0  0
  152.4325  138.9089  155.4005 C   0  0  0  0  0  0  0  0  0  0  0  0
  153.5220  139.2399  155.1924 N   0  0  0  0  0  0  0  0  0  0  0  0
  150.7603  137.4946  156.4738 C   0  0  0  0  0  0  0  0  0  0  0  0
  151.7802  136.6512  157.2265 C   0  0  0  0  0  0  0  0  0  0  0  0
  149.2692  136.1687  158.5653 H   0  0  0  0  0  0  0  0  0  0  0  0
  149.1653  135.0939  157.1691 H   0  0  0  0  0  0  0  0  0  0  0  0
  147.7739  136.0612  157.6461 H   0  0  0  0  0  0  0  0  0  0  0  0
  146.9083  139.8826  155.3447 H   0  0  0  0  0  0  0  0  0  0  0  0
  147.9820  140.5048  154.1419 H   0  0  0  0  0  0  0  0  0  0  0  0
  146.0548  139.1765  153.1471 H   0  0  0  0  0  0  0  0  0  0  0  0
  148.0226  137.6098  152.3144 H   0  0  0  0  0  0  0  0  0  0  0  0
  147.4319  136.9806  154.7308 H   0  0  0  0  0  0  0  0  0  0  0  0
  145.7207  137.3073  154.6563 H   0  0  0  0  0  0  0  0  0  0  0  0
  144.4442  136.6627  152.4808 H   0  0  0  0  0  0  0  0  0  0  0  0
  145.5865  137.6464  151.5932 H   0  0  0  0  0  0  0  0  0  0  0  0
  144.5953  135.9215  150.1195 H   0  0  0  0  0  0  0  0  0  0  0  0
  146.3265  135.7249  150.2544 H   0  0  0  0  0  0  0  0  0  0  0  0
  144.2160  134.1457  151.7908 H   0  0  0  0  0  0  0  0  0  0  0  0
  146.1548  133.2187  149.6153 H   0  0  0  0  0  0  0  0  0  0  0  0
  144.4160  133.4289  149.4248 H   0  0  0  0  0  0  0  0  0  0  0  0
  145.0376  132.1869  150.5046 H   0  0  0  0  0  0  0  0  0  0  0  0
  146.0987  132.8794  152.7629 H   0  0  0  0  0  0  0  0  0  0  0  0
  147.2511  133.8520  151.8810 H   0  0  0  0  0  0  0  0  0  0  0  0
  147.0775  134.6615  154.1917 H   0  0  0  0  0  0  0  0  0  0  0  0
  145.3406  134.8586  154.0561 H   0  0  0  0  0  0  0  0  0  0  0  0
  152.8033  136.8793  156.9289 H   0  0  0  0  0  0  0  0  0  0  0  0
  151.6188  135.5890  157.0398 H   0  0  0  0  0  0  0  0  0  0  0  0
  151.7006  136.8282  158.2996 H   0  0  0  0  0  0  0  0  0  0  0  0
  147.3496  136.2700  152.4731 H   0  0  0  0  0  0  0  0  0  0  0  0
  1  2  1  0  0  0  0
  1 23  1  0  0  0  0
  1 24  1  0  0  0  0
  1 25  1  0  0  0  0
  2 21  1  0  0  0  0
  2  3  2  0  0  0  0
  3  4  1  0  0  0  0
  4  5  1  0  0  0  0
  4 16  1  0  0  0  0
  5  6  1  0  0  0  0
  5 26  1  0  0  0  0
  5 27  1  0  0  0  0
  6  7  1  0  0  0  0
  6  8  1  0  0  0  0
  6 28  1  0  0  0  0
  7 29  1  0  0  0  0
  8  9  1  0  0  0  0
  8 30  1  0  0  0  0
  8 31  1  0  0  0  0
  9 15  1  0  0  0  0
  9 10  1  0  0  0  0
  9 47  1  0  0  0  0
 10 11  1  0  0  0  0
 10 32  1  0  0  0  0
 10 33  1  0  0  0  0
 11 12  1  0  0  0  0
 11 34  1  0  0  0  0
 11 35  1  0  0  0  0
 12 13  1  0  0  0  0
 12 14  1  0  0  0  0
 12 36  1  0  0  0  0
 13 37  1  0  0  0  0
 13 38  1  0  0  0  0
 13 39  1  0  0  0  0
 14 15  1  0  0  0  0
 14 40  1  0  0  0  0
 14 41  1  0  0  0  0
 15 42  1  0  0  0  0
 15 43  1  0  0  0  0
 16 17  2  0  0  0  0
 16 18  1  0  0  0  0
 18 19  1  0  0  0  0
 18 21  2  0  0  0  0
 19 20  3  0  0  0  0
 21 22  1  0  0  0  0
 22 44  1  0  0  0  0
 22 45  1  0  0  0  0
 22 46  1  0  0  0  0
M  CHG  1   9   1
M  END
> <s_m_source_file>
AV-unprocessed.smi

> <i_m_source_file_index>
1579

> <i_lp_mmshare_version>
43012

> <i_f3d_flags>
0

> <s_epik_input>
TiNDYyhjMVtDSDNdKWMoPU8pbihuYzFbQ0gzXSlbQ0gyXVtDQEhdKFtPSF0pW0NIMl1OMltDSDJdW0NIMl1bQ0hdKFtDSDNdKVtDSDJdW0NIMl0y

> <s_epik_cmdline>
J2VwaWtfcHl0aG9uJywgJy1waCcsICc3LjAnLCAnLXRuJywgJzgnLCAnLW1hJywgJzIwMCcsICctbWV0YWxfYmluZGluZycsICctaW1hZScsICc8aW5maWxlLm1hZT4nLCAnLW9tYWUnLCAnPG91dGZpbGUubWFlPic=

> <r_epik_Ionization_Penalty>
0.00136816

> <r_epik_Ionization_Penalty_Charging>
0.00136813

> <r_epik_Ionization_Penalty_Neutral>
3.19884e-08

> <r_epik_State_Penalty>
0.000910892

> <r_epik_Charging_Adjusted_Penalty>
0.00227902

> <i_epik_Tot_Q>
1

> <i_epik_Tot_abs_Q>
1

> <r_epik_Metal_State_Penalty>
-0

> <b_epik_Metal_Only>
0

> <s_lp_Force_Field>
OPLS_2005

> <r_lp_Energy>
37.5904

> <b_lp_Chiralities_Consistent>
1

> <s_lp_Variant>
AV-unprocessed.smi:1579-2

> <Gold.Version>
5.8.1

> <Gold.Id.Protein>
6NUR|6NUR_protein|mol2

> <Gold.PLP.Fitness>
44.1466

> <Gold.PLP.PLP>
-30.0143

> <Gold.PLP.part.hbond>
-4.7396

> <Gold.PLP.part.metal>
0.0000

> <Gold.PLP.part.buried>
-6.7239

> <Gold.PLP.part.nonpolar>
-20.2821

> <Gold.PLP.part.repulsive>
1.1766

> <Gold.PLP.ligand.clash>
0.0000

> <Gold.PLP.ligand.torsion>
0.3619

> <Gold.PLP.Chemscore.Hbond>
4.9440

> <Gold.PLP.Chemscore.CHOScore>
0.0000

> <Gold.PLP.Chemscore.Metal>
0.0000

> <Gold.Chemscore.Hbonds>
donor molecule, donor type, donor heavy atom, donor atom, acceptor molecule, acceptor atom, score
      L1  H     7    29       P1  7948  1.00
      L1  H     9    47       P1  7948  2.00
      P1  H  7989  7998       L1    17  1.00
      P1  H  7997  8010       L1    20  0.98

> <Gold.PLP.Chemscore.Internal.Correction>
0.0242

> <Gold.Rescore>
     Score         DG    S(hbond)    S(metal)    S(lipo)     H(rot)  DE(clash)    DE(int)     intcor
     17.84     -19.71       3.87        0.00      58.66       2.17       0.06       1.82       ----

> <Gold.Chemscore.Fitness>
17.8381

> <Gold.Chemscore.DG>
-19.7129

> <Gold.Chemscore.ZeroCoef>
-5.4800

> <Gold.Chemscore.Hbond>
3.8708

> <Gold.Chemscore.Metal>
0.0000

> <Gold.Chemscore.Lipo>
58.6613

> <Gold.Chemscore.Internal_Hbond>
0.0000

> <Gold.Chemscore.DEClash>
0.0580

> <Gold.Chemscore.DEInternal>
1.8168

> <Gold.Chemscore.Rot>
2.1715

> <Gold.Chemscore.Internal.Correction>
   9.000000E+99

> <Gold.Chemscore.Hbonds>
donor molecule, donor type, donor heavy atom, donor atom, acceptor molecule, acceptor atom, score
      L1  H     7    29       P1  7948  0.98
      L1  H     9    47       P1  7948  1.00
      P1  H  7989  7998       L1    17  0.93
      P1  H  7997  8010       L1    20  0.89

> <Gold.Chemscore.Hbond.Weighted>
-12.9286

> <Gold.Chemscore.Metal.Weighted>
-0.0000

> <Gold.Chemscore.Lipo.Weighted>
-6.8634

> <Gold.Chemscore.Internal_Hbond.Weighted>
0.0000

> <Gold.Chemscore.DEClash.Weighted>
0.0580

> <Gold.Chemscore.DEInternal.Weighted>
1.8168

> <Gold.Chemscore.Rot.Weighted>
5.5591

> <Gold.Chemscore.Internal.Correction.Weighted>
   9.000000E+99

> <Gold.Protein.RotatedTorsions>
[ 6907 6896 6895 6894 ] final   -1.27 input  -60.11 | X-H torsion
[ 7974 7965 7964 7962 ] final -154.25 input  175.53 | X-H torsion
[ 8008 7997 7996 7995 ] final  120.91 input   59.86 | X-H torsion
[ 10167 10162 10161 10158 ] final -129.17 input  -65.29 | X-H torsion
[ 10718 10713 10712 10709 ] final  -49.27 input   66.30 | X-H torsion
[ 10763 10752 10751 10750 ] final   52.08 input  -60.55 | X-H torsion
[ 11005 11000 10999 10996 ] final  135.54 input  -57.11 | X-H torsion

> <Gold.Protein.ActiveResidues>
 VAL166  LYS551  ARG553  GLY616  TRP617  ASP618  TYR619  PRO620  LYS621  CYS622 
 ASP623  PHE694  ASN695  SER759  ASP760  ASP761  ALA762  ILE779  LEU786  VAL792 
 PHE793  MET794  SER795  GLU796  ALA797  LYS798  CYS799  TRP800  GLU811  SER814 

> <Gold.Protein.RotatedAtoms>
  151.5488  135.1067  159.9944 H   0  0  0  0  0  0  0  0  0  0  0  0  # atno 6907 bound_to 6896
  152.4501  133.7609  159.6756 H   0  0  0  0  0  0  0  0  0  0  0  0  # atno 6908 bound_to 6896
  150.8427  133.7843  159.3079 H   0  0  0  0  0  0  0  0  0  0  0  0  # atno 6909 bound_to 6896
  144.7699  140.4414  143.5915 H   0  0  0  0  0  0  0  0  0  0  0  0  # atno 7974 bound_to 7965
  156.2664  140.2820  156.1225 H   0  0  0  0  0  0  0  0  0  0  0  0  # atno 8008 bound_to 7997
  155.1140  140.0391  157.2749 H   0  0  0  0  0  0  0  0  0  0  0  0  # atno 8009 bound_to 7997
  154.6721  140.2590  155.7002 H   0  0  0  0  0  0  0  0  0  0  0  0  # atno 8010 bound_to 7997
  139.9426  143.6146  152.2499 H   0  0  0  0  0  0  0  0  0  0  0  0  # atno 10167 bound_to 10162
  156.1909  130.4153  149.9373 H   0  0  0  0  0  0  0  0  0  0  0  0  # atno 10718 bound_to 10713
  152.9787  135.5824  154.4520 H   0  0  0  0  0  0  0  0  0  0  0  0  # atno 10763 bound_to 10752
  154.4107  135.2770  155.2040 H   0  0  0  0  0  0  0  0  0  0  0  0  # atno 10764 bound_to 10752
  154.3831  135.6142  153.5856 H   0  0  0  0  0  0  0  0  0  0  0  0  # atno 10765 bound_to 10752
  139.9987  134.9487  157.0022 H   0  0  0  0  0  0  0  0  0  0  0  0  # atno 11005 bound_to 11000
  145.6356  139.1542  143.2944 LP  0  0  0  0  0  0  0  0  0  0  0  0  # atno 17320 bound_to 7965
  146.1837  140.6457  142.9177 LP  0  0  0  0  0  0  0  0  0  0  0  0  # atno 17321 bound_to 7965
  139.6692  144.7661  151.1814 LP  0  0  0  0  0  0  0  0  0  0  0  0  # atno 17342 bound_to 10162
  140.7606  143.5890  150.8815 LP  0  0  0  0  0  0  0  0  0  0  0  0  # atno 17343 bound_to 10162
  156.7113  130.8971  151.3609 LP  0  0  0  0  0  0  0  0  0  0  0  0  # atno 17370 bound_to 10713
  157.6928  130.9251  150.0561 LP  0  0  0  0  0  0  0  0  0  0  0  0  # atno 17371 bound_to 10713
  140.4770  134.1329  155.7211 LP  0  0  0  0  0  0  0  0  0  0  0  0  # atno 17394 bound_to 11000
  141.1624  133.8767  157.1809 LP  0  0  0  0  0  0  0  0  0  0  0  0  # atno 17395 bound_to 11000

$$$$
