AV-unprocessed.smi:2760|AV-procd|sdf|10630|dock9
  -GOLD-   2272015 83D 1   1.00000     0.00000
 Structure written by MMmdl.
 31 32  0  0  0  0  0  0  0  0  2 V2000
  151.3741  139.7965  156.7822 O   0  0  0  0  0  0  0  0  0  0  0  0
  151.9082  140.4780  157.6548 C   0  0  0  0  0  0  0  0  0  0  0  0
  151.3680  141.8004  157.9683 C   0  0  0  0  0  0  0  0  0  0  0  0
  151.9656  142.5467  158.9309 C   0  0  0  0  0  0  0  0  0  0  0  0
  151.4554  143.9007  159.2967 C   0  0  0  0  0  0  0  0  0  0  0  0
  152.3079  145.1354  159.1085 C   0  0  0  0  0  0  0  0  0  0  0  0
  151.9629  144.6669  160.5009 C   0  0  0  0  0  0  0  0  0  0  0  0
  153.0869  142.0474  159.6210 N   0  0  0  0  0  0  0  0  0  0  0  0
  153.5418  140.8864  159.3324 C   0  0  0  0  0  0  0  0  0  0  0  0
  154.9755  140.3101  160.2617 S   0  0  0  0  0  0  0  0  0  0  0  0
  154.3074  139.8592  161.8904 C   0  0  0  0  0  0  0  0  0  0  0  0
  155.4309  139.5806  162.8926 C   0  0  0  0  0  0  0  0  0  0  0  0
  155.7087  140.7647  163.6208 O   0  0  0  0  0  0  0  0  0  0  0  0
  154.9786  140.8442  164.8348 C   0  0  0  0  0  0  0  0  0  0  0  0
  155.4442  142.0645  165.6382 C   0  0  0  0  0  0  0  0  0  0  0  0
  155.0999  141.9059  166.9156 F   0  0  0  0  0  0  0  0  0  0  0  0
  156.7693  142.1883  165.5655 F   0  0  0  0  0  0  0  0  0  0  0  0
  154.8647  143.1712  165.1739 F   0  0  0  0  0  0  0  0  0  0  0  0
  152.9984  140.0666  158.3641 N   0  5  0  0  0  0  0  0  0  0  0  0
  150.5049  142.1718  157.4353 H   0  0  0  0  0  0  0  0  0  0  0  0
  150.3946  144.0135  159.0795 H   0  0  0  0  0  0  0  0  0  0  0  0
  153.3345  144.9998  158.7736 H   0  0  0  0  0  0  0  0  0  0  0  0
  151.8143  146.0331  158.7426 H   0  0  0  0  0  0  0  0  0  0  0  0
  151.2384  145.2539  161.0610 H   0  0  0  0  0  0  0  0  0  0  0  0
  152.7639  144.2320  161.0954 H   0  0  0  0  0  0  0  0  0  0  0  0
  153.6738  138.9778  161.7841 H   0  0  0  0  0  0  0  0  0  0  0  0
  153.6791  140.6714  162.2574 H   0  0  0  0  0  0  0  0  0  0  0  0
  155.1342  138.7837  163.5762 H   0  0  0  0  0  0  0  0  0  0  0  0
  156.3255  139.2473  162.3642 H   0  0  0  0  0  0  0  0  0  0  0  0
  153.9109  140.9243  164.6246 H   0  0  0  0  0  0  0  0  0  0  0  0
  155.1293  139.9355  165.4194 H   0  0  0  0  0  0  0  0  0  0  0  0
  1  2  2  0  0  0  0
  2 19  1  0  0  0  0
  2  3  1  0  0  0  0
  3 20  1  0  0  0  0
  3  4  2  0  0  0  0
  4  5  1  0  0  0  0
  4  8  1  0  0  0  0
  5  7  1  0  0  0  0
  5  6  1  0  0  0  0
  5 21  1  0  0  0  0
  6  7  1  0  0  0  0
  6 22  1  0  0  0  0
  6 23  1  0  0  0  0
  7 24  1  0  0  0  0
  7 25  1  0  0  0  0
  8  9  2  0  0  0  0
  9 10  1  0  0  0  0
  9 19  1  0  0  0  0
 10 11  1  0  0  0  0
 11 12  1  0  0  0  0
 11 26  1  0  0  0  0
 11 27  1  0  0  0  0
 12 13  1  0  0  0  0
 12 28  1  0  0  0  0
 12 29  1  0  0  0  0
 13 14  1  0  0  0  0
 14 15  1  0  0  0  0
 14 30  1  0  0  0  0
 14 31  1  0  0  0  0
 15 16  1  0  0  0  0
 15 17  1  0  0  0  0
 15 18  1  0  0  0  0
M  CHG  1  19  -1
M  END
> <s_m_source_file>
AV-unprocessed.smi

> <i_m_source_file_index>
2760

> <i_lp_mmshare_version>
43012

> <i_f3d_flags>
0

> <s_epik_input>
W09IXWMxW2NIXWMoW0NIXTJbQ0gyXVtDSDJdMiluYyhuMSlTW0NIMl1bQ0gyXU9bQ0gyXUMoRikoRilG

> <s_epik_cmdline>
J2VwaWtfcHl0aG9uJywgJy1waCcsICc3LjAnLCAnLXRuJywgJzgnLCAnLW1hJywgJzIwMCcsICctbWV0YWxfYmluZGluZycsICctaW1hZScsICc8aW5maWxlLm1hZT4nLCAnLW9tYWUnLCAnPG91dGZpbGUubWFlPic=

> <r_lp_tautomer_probability>
1

> <r_epik_Ionization_Penalty>
4.02042

> <r_epik_Ionization_Penalty_Charging>
0.00362968

> <r_epik_Ionization_Penalty_Neutral>
4.01679

> <r_epik_State_Penalty>
2.30798

> <r_epik_Charging_Adjusted_Penalty>
2.31161

> <i_epik_Tot_Q>
-1

> <i_epik_Tot_abs_Q>
1

> <r_epik_Metal_State_Penalty>
0.234281

> <b_epik_Metal_Only>
0

> <s_lp_Force_Field>
OPLS_2005

> <r_lp_Energy>
16.4735

> <b_lp_Chiralities_Consistent>
1

> <s_lp_Variant>
AV-unprocessed.smi:2760-3

> <Gold.Version>
5.8.1

> <Gold.Id.Protein>
6NUR|6NUR_protein|mol2

> <Gold.PLP.Fitness>
47.6622

> <Gold.PLP.PLP>
-43.5706

> <Gold.PLP.part.hbond>
-1.4897

> <Gold.PLP.part.metal>
0.0000

> <Gold.PLP.part.buried>
-4.2917

> <Gold.PLP.part.nonpolar>
-36.6774

> <Gold.PLP.part.repulsive>
0.0000

> <Gold.PLP.ligand.clash>
0.0000

> <Gold.PLP.ligand.torsion>
1.0374

> <Gold.PLP.Chemscore.Hbond>
1.9840

> <Gold.PLP.Chemscore.CHOScore>
0.0000

> <Gold.PLP.Chemscore.Metal>
0.0000

> <Gold.Chemscore.Hbonds>
donor molecule, donor type, donor heavy atom, donor atom, acceptor molecule, acceptor atom, score
      P1  H  7997  8009       L1    19  1.29

> <Gold.PLP.Chemscore.Internal.Correction>
0.2144

> <Gold.Rescore>
     Score         DG    S(hbond)    S(metal)    S(lipo)     H(rot)  DE(clash)    DE(int)     intcor
      8.29     -10.74       0.25        0.00      92.20       2.48       1.53       0.92       ----

> <Gold.Chemscore.Fitness>
8.2921

> <Gold.Chemscore.DG>
-10.7421

> <Gold.Chemscore.ZeroCoef>
-5.4800

> <Gold.Chemscore.Hbond>
0.2492

> <Gold.Chemscore.Metal>
0.0000

> <Gold.Chemscore.Lipo>
92.1970

> <Gold.Chemscore.Internal_Hbond>
0.0000

> <Gold.Chemscore.DEClash>
1.5307

> <Gold.Chemscore.DEInternal>
0.9193

> <Gold.Chemscore.Rot>
2.4833

> <Gold.Chemscore.Internal.Correction>
   9.000000E+99

> <Gold.Chemscore.Hbonds>
donor molecule, donor type, donor heavy atom, donor atom, acceptor molecule, acceptor atom, score
      P1  H  7997  8009       L1    19  0.07

> <Gold.Chemscore.Hbond.Weighted>
-0.8323

> <Gold.Chemscore.Metal.Weighted>
-0.0000

> <Gold.Chemscore.Lipo.Weighted>
-10.7870

> <Gold.Chemscore.Internal_Hbond.Weighted>
0.0000

> <Gold.Chemscore.DEClash.Weighted>
1.5307

> <Gold.Chemscore.DEInternal.Weighted>
0.9193

> <Gold.Chemscore.Rot.Weighted>
6.3572

> <Gold.Chemscore.Internal.Correction.Weighted>
   9.000000E+99

> <Gold.Protein.RotatedTorsions>
[ 6907 6896 6895 6894 ] final   52.03 input  -60.11 | X-H torsion
[ 7974 7965 7964 7962 ] final   15.12 input  175.53 | X-H torsion
[ 8008 7997 7996 7995 ] final  145.34 input   59.86 | X-H torsion
[ 10167 10162 10161 10158 ] final  -81.75 input  -65.29 | X-H torsion
[ 10718 10713 10712 10709 ] final -141.90 input   66.30 | X-H torsion
[ 10763 10752 10751 10750 ] final  159.43 input  -60.55 | X-H torsion
[ 11005 11000 10999 10996 ] final -124.30 input  -57.11 | X-H torsion

> <Gold.Protein.ActiveResidues>
 VAL166  LYS551  ARG553  GLY616  TRP617  ASP618  TYR619  PRO620  LYS621  CYS622 
 ASP623  PHE694  ASN695  SER759  ASP760  ASP761  ALA762  ILE779  LEU786  VAL792 
 PHE793  MET794  SER795  GLU796  ALA797  LYS798  CYS799  TRP800  GLU811  SER814 

> <Gold.Protein.RotatedAtoms>
  152.3190  134.7404  160.0318 H   0  0  0  0  0  0  0  0  0  0  0  0  # atno 6907 bound_to 6896
  151.7859  133.3349  159.3493 H   0  0  0  0  0  0  0  0  0  0  0  0  # atno 6908 bound_to 6896
  150.7359  134.5818  159.5987 H   0  0  0  0  0  0  0  0  0  0  0  0  # atno 6909 bound_to 6896
  146.2287  139.8941  142.8550 H   0  0  0  0  0  0  0  0  0  0  0  0  # atno 7974 bound_to 7965
  156.2885  140.2212  156.5199 H   0  0  0  0  0  0  0  0  0  0  0  0  # atno 8008 bound_to 7997
  154.7537  140.0478  157.0937 H   0  0  0  0  0  0  0  0  0  0  0  0  # atno 8009 bound_to 7997
  155.0077  140.3109  155.4845 H   0  0  0  0  0  0  0  0  0  0  0  0  # atno 8010 bound_to 7997
  140.4383  143.2523  151.8662 H   0  0  0  0  0  0  0  0  0  0  0  0  # atno 10167 bound_to 10162
  156.3395  130.7629  151.1763 H   0  0  0  0  0  0  0  0  0  0  0  0  # atno 10718 bound_to 10713
  154.2317  135.2778  155.2887 H   0  0  0  0  0  0  0  0  0  0  0  0  # atno 10763 bound_to 10752
  154.5618  135.5644  153.7018 H   0  0  0  0  0  0  0  0  0  0  0  0  # atno 10764 bound_to 10752
  153.0019  135.6300  154.2459 H   0  0  0  0  0  0  0  0  0  0  0  0  # atno 10765 bound_to 10752
  140.9852  134.0617  157.3719 H   0  0  0  0  0  0  0  0  0  0  0  0  # atno 11005 bound_to 11000
  145.2388  141.0001  143.3948 LP  0  0  0  0  0  0  0  0  0  0  0  0  # atno 17320 bound_to 7965
  144.9469  139.4126  143.6421 LP  0  0  0  0  0  0  0  0  0  0  0  0  # atno 17321 bound_to 7965
  139.4788  144.5257  151.8738 LP  0  0  0  0  0  0  0  0  0  0  0  0  # atno 17342 bound_to 10162
  140.4348  144.2067  150.5889 LP  0  0  0  0  0  0  0  0  0  0  0  0  # atno 17343 bound_to 10162
  157.7444  131.0458  150.4864 LP  0  0  0  0  0  0  0  0  0  0  0  0  # atno 17370 bound_to 10713
  156.5042  130.4124  149.6336 LP  0  0  0  0  0  0  0  0  0  0  0  0  # atno 17371 bound_to 10713
  139.8967  135.0147  156.7065 LP  0  0  0  0  0  0  0  0  0  0  0  0  # atno 17394 bound_to 11000
  140.7126  133.9210  155.8094 LP  0  0  0  0  0  0  0  0  0  0  0  0  # atno 17395 bound_to 11000

$$$$
