AV-unprocessed.smi:663|AV-procd|sdf|3247|dock9
  -GOLD-   22720 0193D 1   1.00000     0.00000
 Structure written by MMmdl.
 30 31  0  0  0  0  0  0  0  0  1 V2000
  150.6802  137.5404  153.7139 N   0  0  0  0  0  0  0  0  0  0  0  0
  150.7667  137.4930  155.0456 C   0  0  0  0  0  0  0  0  0  0  0  0
  151.6412  136.8466  155.6192 O   0  0  0  0  0  0  0  0  0  0  0  0
  149.7052  138.2650  155.8419 C   0  0  0  0  0  0  0  0  0  0  0  0
  148.6361  138.9617  154.9673 C   0  0  2  0  0  0  0  0  0  0  0  0
  148.1066  138.0326  153.9697 N   0  0  0  0  0  0  0  0  0  0  0  0
  146.8255  137.6530  153.8601 C   0  0  0  0  0  0  0  0  0  0  0  0
  145.9278  138.0676  154.5932 O   0  0  0  0  0  0  0  0  0  0  0  0
  146.6664  136.7720  152.8595 N   0  0  0  0  0  0  0  0  0  0  0  0
  145.4680  136.1512  152.4271 C   0  0  0  0  0  0  0  0  0  0  0  0
  144.3920  136.2431  153.2173 N   0  0  0  0  0  0  0  0  0  0  0  0
  143.2909  135.5914  152.6755 N   0  0  0  0  0  0  0  0  0  0  0  0
  143.5807  135.0317  151.4971 C   0  0  0  0  0  0  0  0  0  0  0  0
  145.2276  135.2446  150.9308 S   0  0  0  0  0  0  0  0  0  0  0  0
  149.2019  140.2287  154.3467 C   0  0  0  0  0  0  0  0  0  0  0  0
  149.4144  141.4727  155.1768 C   0  0  0  0  0  0  0  0  0  0  0  0
  148.3393  141.4470  154.1150 C   0  0  0  0  0  0  0  0  0  0  0  0
  151.3586  137.0479  153.1507 H   0  0  0  0  0  0  0  0  0  0  0  0
  149.9403  138.0674  153.2733 H   0  0  0  0  0  0  0  0  0  0  0  0
  149.2157  137.5755  156.5316 H   0  0  0  0  0  0  0  0  0  0  0  0
  150.2123  139.0017  156.4666 H   0  0  0  0  0  0  0  0  0  0  0  0
  147.8192  139.2576  155.6293 H   0  0  0  0  0  0  0  0  0  0  0  0
  148.7742  137.6342  153.3254 H   0  0  0  0  0  0  0  0  0  0  0  0
  147.4974  136.5146  152.3476 H   0  0  0  0  0  0  0  0  0  0  0  0
  142.8186  134.4895  150.9575 H   0  0  0  0  0  0  0  0  0  0  0  0
  149.9630  140.0379  153.5921 H   0  0  0  0  0  0  0  0  0  0  0  0
  149.0922  141.4508  156.2161 H   0  0  0  0  0  0  0  0  0  0  0  0
  150.3058  142.0638  154.9769 H   0  0  0  0  0  0  0  0  0  0  0  0
  148.5138  142.0184  153.2057 H   0  0  0  0  0  0  0  0  0  0  0  0
  147.3053  141.4121  154.4520 H   0  0  0  0  0  0  0  0  0  0  0  0
  1  2  1  0  0  0  0
  1 18  1  0  0  0  0
  1 19  1  0  0  0  0
  2  3  2  0  0  0  0
  2  4  1  0  0  0  0
  4  5  1  0  0  0  0
  4 20  1  0  0  0  0
  4 21  1  0  0  0  0
  5  6  1  0  0  0  0
  5 15  1  0  0  0  0
  5 22  1  0  0  0  0
  6  7  1  0  0  0  0
  6 23  1  0  0  0  0
  7  8  2  0  0  0  0
  7  9  1  0  0  0  0
  9 10  1  0  0  0  0
  9 24  1  0  0  0  0
 10 14  1  0  0  0  0
 10 11  2  0  0  0  0
 11 12  1  0  0  0  0
 12 13  2  0  0  0  0
 13 14  1  0  0  0  0
 13 25  1  0  0  0  0
 15 17  1  0  0  0  0
 15 16  1  0  0  0  0
 15 26  1  0  0  0  0
 16 17  1  0  0  0  0
 16 27  1  0  0  0  0
 16 28  1  0  0  0  0
 17 29  1  0  0  0  0
 17 30  1  0  0  0  0
M  END
> <s_m_source_file>
AV-unprocessed.smi

> <i_m_source_file_index>
663

> <i_lp_mmshare_version>
43012

> <i_f3d_flags>
0

> <s_epik_input>
W05IMl1DKD1PKVtDSDJdW0NAQEhdKFtDSF0xW0NIMl1bQ0gyXTEpW05IXUMoPU8pW05IXWMybm5bY0hdczI=

> <s_epik_cmdline>
J2VwaWtfcHl0aG9uJywgJy1waCcsICc3LjAnLCAnLXRuJywgJzgnLCAnLW1hJywgJzIwMCcsICctbWV0YWxfYmluZGluZycsICctaW1hZScsICc8aW5maWxlLm1hZT4nLCAnLW9tYWUnLCAnPG91dGZpbGUubWFlPic=

> <r_lp_tautomer_probability>
1

> <r_epik_Ionization_Penalty>
0.000388224

> <r_epik_Ionization_Penalty_Charging>
0

> <r_epik_Ionization_Penalty_Neutral>
0.000388224

> <r_epik_State_Penalty>
-0

> <r_epik_Charging_Adjusted_Penalty>
0

> <i_epik_Tot_Q>
0

> <i_epik_Tot_abs_Q>
0

> <r_epik_Metal_State_Penalty>
0.191941

> <b_epik_Metal_Only>
0

> <s_lp_Force_Field>
OPLS_2005

> <r_lp_Energy>
6.58878

> <b_lp_Chiralities_Consistent>
1

> <s_lp_Variant>
AV-unprocessed.smi:663-1

> <Gold.Version>
5.8.1

> <Gold.Id.Protein>
6NUR|6NUR_protein|mol2

> <Gold.PLP.Fitness>
35.6188

> <Gold.PLP.PLP>
-22.5605

> <Gold.PLP.part.hbond>
-4.9619

> <Gold.PLP.part.metal>
0.0000

> <Gold.PLP.part.buried>
-2.2055

> <Gold.PLP.part.nonpolar>
-16.9634

> <Gold.PLP.part.repulsive>
0.4540

> <Gold.PLP.ligand.clash>
0.0000

> <Gold.PLP.ligand.torsion>
0.6978

> <Gold.PLP.Chemscore.Hbond>
3.5200

> <Gold.PLP.Chemscore.CHOScore>
0.9328

> <Gold.PLP.Chemscore.Metal>
0.0000

> <Gold.Chemscore.Hbonds>
donor molecule, donor type, donor heavy atom, donor atom, acceptor molecule, acceptor atom, score
      L1  H     1    18       P1  7949  0.64
      L1  H     6    23       P1  7948  0.86
      L1  H     9    24       P1  7948  1.00
      P1  H 10752 10765       L1     3  0.98
      L1  C    13    25       P1 10186  0.92

> <Gold.PLP.Chemscore.Internal.Correction>
1.0953

> <Gold.Rescore>
     Score         DG    S(hbond)    S(metal)    S(lipo)     H(rot)  DE(clash)    DE(int)     intcor
     11.46     -15.38       3.50        0.00      39.92       2.52       0.16       3.76       ----

> <Gold.Chemscore.Fitness>
11.4566

> <Gold.Chemscore.DG>
-15.3779

> <Gold.Chemscore.ZeroCoef>
-5.4800

> <Gold.Chemscore.Hbond>
3.4981

> <Gold.Chemscore.Metal>
0.0000

> <Gold.Chemscore.Lipo>
39.9168

> <Gold.Chemscore.Internal_Hbond>
0.0000

> <Gold.Chemscore.DEClash>
0.1596

> <Gold.Chemscore.DEInternal>
3.7617

> <Gold.Chemscore.Rot>
2.5218

> <Gold.Chemscore.Internal.Correction>
   9.000000E+99

> <Gold.Chemscore.Hbonds>
donor molecule, donor type, donor heavy atom, donor atom, acceptor molecule, acceptor atom, score
      L1  H     1    18       P1  7949  0.49
      L1  H     6    23       P1  7948  0.80
      L1  H     9    24       P1  7948  0.95
      P1  H 10752 10765       L1     3  0.91

> <Gold.Chemscore.Hbond.Weighted>
-11.6836

> <Gold.Chemscore.Metal.Weighted>
-0.0000

> <Gold.Chemscore.Lipo.Weighted>
-4.6703

> <Gold.Chemscore.Internal_Hbond.Weighted>
0.0000

> <Gold.Chemscore.DEClash.Weighted>
0.1596

> <Gold.Chemscore.DEInternal.Weighted>
3.7617

> <Gold.Chemscore.Rot.Weighted>
6.4559

> <Gold.Chemscore.Internal.Correction.Weighted>
   9.000000E+99

> <Gold.Protein.RotatedTorsions>
[ 6907 6896 6895 6894 ] final  -48.73 input  -60.11 | X-H torsion
[ 7974 7965 7964 7962 ] final  106.97 input  175.53 | X-H torsion
[ 8008 7997 7996 7995 ] final  -70.73 input   59.86 | X-H torsion
[ 10167 10162 10161 10158 ] final  149.29 input  -65.29 | X-H torsion
[ 10718 10713 10712 10709 ] final  -95.01 input   66.30 | X-H torsion
[ 10763 10752 10751 10750 ] final -167.99 input  -60.55 | X-H torsion
[ 11005 11000 10999 10996 ] final   23.57 input  -57.11 | X-H torsion

> <Gold.Protein.ActiveResidues>
 VAL166  LYS551  ARG553  GLY616  TRP617  ASP618  TYR619  PRO620  LYS621  CYS622 
 ASP623  PHE694  ASN695  SER759  ASP760  ASP761  ALA762  ILE779  LEU786  VAL792 
 PHE793  MET794  SER795  GLU796  ALA797  LYS798  CYS799  TRP800  GLU811  SER814 

> <Gold.Protein.RotatedAtoms>
  150.8876  134.8276  159.7270 H   0  0  0  0  0  0  0  0  0  0  0  0  # atno 6907 bound_to 6896
  152.4817  134.4698  159.9641 H   0  0  0  0  0  0  0  0  0  0  0  0  # atno 6908 bound_to 6896
  151.4764  133.3518  159.2867 H   0  0  0  0  0  0  0  0  0  0  0  0  # atno 6909 bound_to 6896
  145.2997  139.2573  143.3820 H   0  0  0  0  0  0  0  0  0  0  0  0  # atno 7974 bound_to 7965
  154.5034  140.0829  156.7845 H   0  0  0  0  0  0  0  0  0  0  0  0  # atno 8008 bound_to 7997
  155.3950  140.3434  155.4235 H   0  0  0  0  0  0  0  0  0  0  0  0  # atno 8009 bound_to 7997
  156.1485  140.1551  156.8795 H   0  0  0  0  0  0  0  0  0  0  0  0  # atno 8010 bound_to 7997
  139.4863  144.5613  151.7225 H   0  0  0  0  0  0  0  0  0  0  0  0  # atno 10167 bound_to 10162
  156.0036  130.5091  150.6012 H   0  0  0  0  0  0  0  0  0  0  0  0  # atno 10718 bound_to 10713
  154.6675  135.2934  154.9786 H   0  0  0  0  0  0  0  0  0  0  0  0  # atno 10763 bound_to 10752
  154.0824  135.6602  153.4844 H   0  0  0  0  0  0  0  0  0  0  0  0  # atno 10764 bound_to 10752
  153.0466  135.5200  154.7655 H   0  0  0  0  0  0  0  0  0  0  0  0  # atno 10765 bound_to 10752
  140.3682  134.2051  155.7668 H   0  0  0  0  0  0  0  0  0  0  0  0  # atno 11005 bound_to 11000
  146.3156  140.3508  142.8656 LP  0  0  0  0  0  0  0  0  0  0  0  0  # atno 17320 bound_to 7965
  144.9104  140.7750  143.5811 LP  0  0  0  0  0  0  0  0  0  0  0  0  # atno 17321 bound_to 7965
  140.5184  144.0917  150.6015 LP  0  0  0  0  0  0  0  0  0  0  0  0  # atno 17342 bound_to 10162
  140.3867  143.2774  152.0108 LP  0  0  0  0  0  0  0  0  0  0  0  0  # atno 17343 bound_to 10162
  157.3861  131.0788  151.1435 LP  0  0  0  0  0  0  0  0  0  0  0  0  # atno 17370 bound_to 10713
  157.2142  130.6451  149.5786 LP  0  0  0  0  0  0  0  0  0  0  0  0  # atno 17371 bound_to 10713
  141.1963  133.8086  157.0678 LP  0  0  0  0  0  0  0  0  0  0  0  0  # atno 17394 bound_to 11000
  140.0572  134.9774  157.1242 LP  0  0  0  0  0  0  0  0  0  0  0  0  # atno 17395 bound_to 11000

$$$$
