AV-unprocessed.smi:3020|AV-procd|sdf|11497|dock1
  -GOLD-   2272016433D 1   1.00000     0.00000
 Structure written by MMmdl.
 28 29  0  0  0  0  0  0  0  0  1 V2000
  151.3851  140.5095  155.4805 O   0  0  0  0  0  0  0  0  0  0  0  0
  150.8009  141.5230  155.8636 C   0  0  0  0  0  0  0  0  0  0  0  0
  151.5063  142.4720  156.8325 C   0  0  0  0  0  0  0  0  0  0  0  0
  151.8991  141.7541  157.9926 O   0  0  0  0  0  0  0  0  0  0  0  0
  151.5774  142.4375  159.1912 C   0  0  0  0  0  0  0  0  0  0  0  0
  152.4668  143.6559  159.3155 C   0  0  0  0  0  0  0  0  0  0  0  0
  151.9658  144.9099  159.9955 C   0  0  0  0  0  0  0  0  0  0  0  0
  152.1804  144.8984  158.5033 C   0  0  0  0  0  0  0  0  0  0  0  0
  149.5638  141.8862  155.4759 N   0  0  0  0  0  0  0  0  0  0  0  0
  148.6857  141.2057  154.5925 C   0  0  0  0  0  0  0  0  0  0  0  0
  147.5550  141.9405  154.1637 C   0  0  0  0  0  0  0  0  0  0  0  0
  146.6291  141.4295  153.3221 N   0  0  0  0  0  0  0  0  0  0  0  0
  146.8316  140.1637  152.8984 C   0  0  0  0  0  0  0  0  0  0  0  0
  147.9520  139.4170  153.3143 C   0  0  0  0  0  0  0  0  0  0  0  0
  148.8736  139.9339  154.1560 N   0  0  0  0  0  0  0  0  0  0  0  0
  152.3788  142.9124  156.3469 H   0  0  0  0  0  0  0  0  0  0  0  0
  150.8241  143.2818  157.0959 H   0  0  0  0  0  0  0  0  0  0  0  0
  150.5350  142.7589  159.1786 H   0  0  0  0  0  0  0  0  0  0  0  0
  151.7191  141.7851  160.0547 H   0  0  0  0  0  0  0  0  0  0  0  0
  153.5191  143.4183  159.4608 H   0  0  0  0  0  0  0  0  0  0  0  0
  150.9389  144.9162  160.3556 H   0  0  0  0  0  0  0  0  0  0  0  0
  152.6757  145.4688  160.6022 H   0  0  0  0  0  0  0  0  0  0  0  0
  153.0327  145.4515  158.1140 H   0  0  0  0  0  0  0  0  0  0  0  0
  151.2955  144.8989  157.8697 H   0  0  0  0  0  0  0  0  0  0  0  0
  149.2089  142.7458  155.8693 H   0  0  0  0  0  0  0  0  0  0  0  0
  147.3885  142.9538  154.4995 H   0  0  0  0  0  0  0  0  0  0  0  0
  146.0982  139.7449  152.2254 H   0  0  0  0  0  0  0  0  0  0  0  0
  148.1094  138.4049  152.9723 H   0  0  0  0  0  0  0  0  0  0  0  0
  1  2  2  0  0  0  0
  2  3  1  0  0  0  0
  2  9  1  0  0  0  0
  3  4  1  0  0  0  0
  3 16  1  0  0  0  0
  3 17  1  0  0  0  0
  4  5  1  0  0  0  0
  5  6  1  0  0  0  0
  5 18  1  0  0  0  0
  5 19  1  0  0  0  0
  6  8  1  0  0  0  0
  6  7  1  0  0  0  0
  6 20  1  0  0  0  0
  7  8  1  0  0  0  0
  7 21  1  0  0  0  0
  7 22  1  0  0  0  0
  8 23  1  0  0  0  0
  8 24  1  0  0  0  0
  9 10  1  0  0  0  0
  9 25  1  0  0  0  0
 10 15  1  0  0  0  0
 10 11  2  0  0  0  0
 11 12  1  0  0  0  0
 11 26  1  0  0  0  0
 12 13  2  0  0  0  0
 13 14  1  0  0  0  0
 13 27  1  0  0  0  0
 14 15  2  0  0  0  0
 14 28  1  0  0  0  0
M  END
> <s_m_source_file>
AV-unprocessed.smi

> <i_m_source_file_index>
3020

> <i_lp_mmshare_version>
43012

> <i_f3d_flags>
0

> <s_epik_input>
W0NIMl0xW0NIMl1bQ0hdMVtDSDJdT1tDSDJdQyg9TylbTkhdYzJbY0hdbltjSF1bY0hdbjI=

> <s_epik_cmdline>
J2VwaWtfcHl0aG9uJywgJy1waCcsICc3LjAnLCAnLXRuJywgJzgnLCAnLW1hJywgJzIwMCcsICctbWV0YWxfYmluZGluZycsICctaW1hZScsICc8aW5maWxlLm1hZT4nLCAnLW9tYWUnLCAnPG91dGZpbGUubWFlPic=

> <r_lp_tautomer_probability>
1

> <r_epik_Ionization_Penalty>
2.93955e-06

> <r_epik_Ionization_Penalty_Charging>
0

> <r_epik_Ionization_Penalty_Neutral>
2.93955e-06

> <r_epik_State_Penalty>
-0

> <r_epik_Charging_Adjusted_Penalty>
0

> <i_epik_Tot_Q>
0

> <i_epik_Tot_abs_Q>
0

> <r_epik_Metal_State_Penalty>
-0

> <b_epik_Metal_Only>
0

> <s_lp_Force_Field>
OPLS_2005

> <r_lp_Energy>
21.027

> <b_lp_Chiralities_Consistent>
1

> <s_lp_Variant>
AV-unprocessed.smi:3020-1

> <Gold.Version>
5.8.1

> <Gold.Id.Protein>
6NUR|6NUR_protein|mol2

> <Gold.PLP.Fitness>
42.7733

> <Gold.PLP.PLP>
-30.1082

> <Gold.PLP.part.hbond>
-2.0000

> <Gold.PLP.part.metal>
0.0000

> <Gold.PLP.part.buried>
-0.8341

> <Gold.PLP.part.nonpolar>
-26.6149

> <Gold.PLP.part.repulsive>
0.7502

> <Gold.PLP.ligand.clash>
0.0000

> <Gold.PLP.ligand.torsion>
0.6769

> <Gold.PLP.Chemscore.Hbond>
1.8344

> <Gold.PLP.Chemscore.CHOScore>
2.6533

> <Gold.PLP.Chemscore.Metal>
0.0000

> <Gold.Chemscore.Hbonds>
donor molecule, donor type, donor heavy atom, donor atom, acceptor molecule, acceptor atom, score
      L1  H     9    25       P1  8028  0.96
      P1  H  7989  7998       L1     1  0.85
      L1  C    11    26       P1  8028  0.97
      L1  C    13    27       P1 10175  0.78
      L1  C    14    28       P1  7948  0.92

> <Gold.PLP.Chemscore.Internal.Correction>
0.5559

> <Gold.Rescore>
     Score         DG    S(hbond)    S(metal)    S(lipo)     H(rot)  DE(clash)    DE(int)     intcor
     10.68     -14.87       1.36        0.00      79.74       1.75       2.20       2.00       ----

> <Gold.Chemscore.Fitness>
10.6765

> <Gold.Chemscore.DG>
-14.8675

> <Gold.Chemscore.ZeroCoef>
-5.4800

> <Gold.Chemscore.Hbond>
1.3577

> <Gold.Chemscore.Metal>
0.0000

> <Gold.Chemscore.Lipo>
79.7394

> <Gold.Chemscore.Internal_Hbond>
0.0000

> <Gold.Chemscore.DEClash>
2.1955

> <Gold.Chemscore.DEInternal>
1.9955

> <Gold.Chemscore.Rot>
1.7487

> <Gold.Chemscore.Internal.Correction>
   9.000000E+99

> <Gold.Chemscore.Hbonds>
donor molecule, donor type, donor heavy atom, donor atom, acceptor molecule, acceptor atom, score
      L1  H     9    25       P1  8028  0.88
      P1  H  7989  7998       L1     1  0.28

> <Gold.Chemscore.Hbond.Weighted>
-4.5346

> <Gold.Chemscore.Metal.Weighted>
-0.0000

> <Gold.Chemscore.Lipo.Weighted>
-9.3295

> <Gold.Chemscore.Internal_Hbond.Weighted>
0.0000

> <Gold.Chemscore.DEClash.Weighted>
2.1955

> <Gold.Chemscore.DEInternal.Weighted>
1.9955

> <Gold.Chemscore.Rot.Weighted>
4.4767

> <Gold.Chemscore.Internal.Correction.Weighted>
   9.000000E+99

> <Gold.Protein.RotatedTorsions>
[ 6907 6896 6895 6894 ] final  155.98 input  -60.11 | X-H torsion
[ 7974 7965 7964 7962 ] final  -79.78 input  175.53 | X-H torsion
[ 8008 7997 7996 7995 ] final -146.48 input   59.86 | X-H torsion
[ 10167 10162 10161 10158 ] final  113.55 input  -65.29 | X-H torsion
[ 10718 10713 10712 10709 ] final  -32.16 input   66.30 | X-H torsion
[ 10763 10752 10751 10750 ] final   90.97 input  -60.55 | X-H torsion
[ 11005 11000 10999 10996 ] final  160.81 input  -57.11 | X-H torsion

> <Gold.Protein.ActiveResidues>
 VAL166  LYS551  ARG553  GLY616  TRP617  ASP618  TYR619  PRO620  LYS621  CYS622 
 ASP623  PHE694  ASN695  SER759  ASP760  ASP761  ALA762  ILE779  LEU786  VAL792 
 PHE793  MET794  SER795  GLU796  ALA797  LYS798  CYS799  TRP800  GLU811  SER814 

> <Gold.Protein.RotatedAtoms>
  152.0363  133.3958  159.4317 H   0  0  0  0  0  0  0  0  0  0  0  0  # atno 6907 bound_to 6896
  150.6878  134.3465  159.4900 H   0  0  0  0  0  0  0  0  0  0  0  0  # atno 6908 bound_to 6896
  152.1258  134.9171  160.0611 H   0  0  0  0  0  0  0  0  0  0  0  0  # atno 6909 bound_to 6896
  145.5686  140.9470  143.1408 H   0  0  0  0  0  0  0  0  0  0  0  0  # atno 7974 bound_to 7965
  155.5601  140.0624  157.2831 H   0  0  0  0  0  0  0  0  0  0  0  0  # atno 8008 bound_to 7997
  154.4393  140.1887  156.0819 H   0  0  0  0  0  0  0  0  0  0  0  0  # atno 8009 bound_to 7997
  156.0453  140.3291  155.7293 H   0  0  0  0  0  0  0  0  0  0  0  0  # atno 8010 bound_to 7997
  139.6453  144.7126  151.2155 H   0  0  0  0  0  0  0  0  0  0  0  0  # atno 10167 bound_to 10162
  156.3783  130.4351  149.7489 H   0  0  0  0  0  0  0  0  0  0  0  0  # atno 10718 bound_to 10713
  153.2033  135.4414  155.0292 H   0  0  0  0  0  0  0  0  0  0  0  0  # atno 10763 bound_to 10752
  154.8159  135.3315  154.7180 H   0  0  0  0  0  0  0  0  0  0  0  0  # atno 10764 bound_to 10752
  153.7623  135.6990  153.4978 H   0  0  0  0  0  0  0  0  0  0  0  0  # atno 10765 bound_to 10752
  140.2096  134.8277  157.3106 H   0  0  0  0  0  0  0  0  0  0  0  0  # atno 11005 bound_to 11000
  144.7448  139.7349  143.7296 LP  0  0  0  0  0  0  0  0  0  0  0  0  # atno 17320 bound_to 7965
  146.1800  139.4988  142.9872 LP  0  0  0  0  0  0  0  0  0  0  0  0  # atno 17321 bound_to 7965
  140.7511  143.6242  150.8484 LP  0  0  0  0  0  0  0  0  0  0  0  0  # atno 17342 bound_to 10162
  139.9884  143.5874  152.2919 LP  0  0  0  0  0  0  0  0  0  0  0  0  # atno 17343 bound_to 10162
  156.4589  130.7942  151.2963 LP  0  0  0  0  0  0  0  0  0  0  0  0  # atno 17370 bound_to 10713
  157.7490  131.0072  150.3180 LP  0  0  0  0  0  0  0  0  0  0  0  0  # atno 17371 bound_to 10713
  140.1965  134.4307  155.7686 LP  0  0  0  0  0  0  0  0  0  0  0  0  # atno 17394 bound_to 11000
  141.2226  133.7051  156.8113 LP  0  0  0  0  0  0  0  0  0  0  0  0  # atno 17395 bound_to 11000

$$$$
