AV-unprocessed.smi:540|AV-procd|sdf|2870|dock2
  -GOLD-   2262023363D 1   1.00000     0.00000
 Structure written by MMmdl.
 48 50  0  0  0  0  0  0  0  0  2 V2000
  148.9427  140.3261  154.9586 C   0  0  0  0  0  0  0  0  0  0  0  0
  150.0949  139.5093  155.5472 C   0  0  0  0  0  0  0  0  0  0  0  0
  151.2936  140.2474  155.3964 O   0  0  0  0  0  0  0  0  0  0  0  0
  152.3301  139.8051  156.2567 C   0  0  0  0  0  0  0  0  0  0  0  0
  152.0123  140.2168  157.7009 C   0  0  0  0  0  0  0  0  0  0  0  0
  153.0644  139.7998  158.6278 N   0  0  0  0  0  0  0  0  0  0  0  0
  153.7786  140.5770  159.4880 C   0  0  0  0  0  0  0  0  0  0  0  0
  153.5555  141.9493  159.6227 N   0  0  0  0  0  0  0  0  0  0  0  0
  153.4505  142.8630  158.4870 C   0  0  0  0  0  0  0  0  0  0  0  0
  152.1942  143.7459  158.5915 C   0  0  0  0  0  0  0  0  0  0  0  0
  152.1938  144.5553  159.9002 C   0  0  0  0  0  0  0  0  0  0  0  0
  150.9078  145.3767  160.0648 C   0  0  0  0  0  0  0  0  0  0  0  0
  152.4222  143.6041  161.0877 C   0  0  0  0  0  0  0  0  0  0  0  0
  153.6677  142.7300  160.8546 C   0  0  0  0  0  0  0  0  0  0  0  0
  154.7403  139.9333  160.1516 N   0  0  0  0  0  0  0  0  0  0  0  0
  154.6173  138.6308  159.6952 C   0  0  0  0  0  0  0  0  0  0  0  0
  153.6241  138.5231  158.7717 C   0  0  0  0  0  0  0  0  0  0  0  0
  153.2904  137.2593  158.0729 C   0  0  0  0  0  0  0  0  0  0  0  0
  152.3993  137.2107  157.2279 O   0  0  0  0  0  0  0  0  0  0  0  0
  154.0800  136.2164  158.4823 N   0  5  0  0  0  0  0  0  0  0  0  0
  155.0900  136.2823  159.4171 C   0  0  0  0  0  0  0  0  0  0  0  0
  155.7575  135.2936  159.7237 O   0  0  0  0  0  0  0  0  0  0  0  0
  155.3725  137.4741  160.0303 N   0  0  0  0  0  0  0  0  0  0  0  0
  156.4458  137.5757  161.0235 C   0  0  0  0  0  0  0  0  0  0  0  0
  147.9972  139.7917  155.0509 H   0  0  0  0  0  0  0  0  0  0  0  0
  149.1108  140.5306  153.9008 H   0  0  0  0  0  0  0  0  0  0  0  0
  148.8398  141.2825  155.4720 H   0  0  0  0  0  0  0  0  0  0  0  0
  149.9074  139.3061  156.6025 H   0  0  0  0  0  0  0  0  0  0  0  0
  150.1753  138.5507  155.0329 H   0  0  0  0  0  0  0  0  0  0  0  0
  152.4256  138.7202  156.1936 H   0  0  0  0  0  0  0  0  0  0  0  0
  153.2838  140.2352  155.9484 H   0  0  0  0  0  0  0  0  0  0  0  0
  151.8676  141.2907  157.7569 H   0  0  0  0  0  0  0  0  0  0  0  0
  151.0564  139.8030  158.0120 H   0  0  0  0  0  0  0  0  0  0  0  0
  154.3477  143.4811  158.4343 H   0  0  0  0  0  0  0  0  0  0  0  0
  153.4139  142.2900  157.5599 H   0  0  0  0  0  0  0  0  0  0  0  0
  152.1450  144.4187  157.7350 H   0  0  0  0  0  0  0  0  0  0  0  0
  151.3046  143.1161  158.5425 H   0  0  0  0  0  0  0  0  0  0  0  0
  153.0319  145.2529  159.8631 H   0  0  0  0  0  0  0  0  0  0  0  0
  150.0284  144.7334  160.1065 H   0  0  0  0  0  0  0  0  0  0  0  0
  150.7754  146.0686  159.2325 H   0  0  0  0  0  0  0  0  0  0  0  0
  150.9335  145.9654  160.9821 H   0  0  0  0  0  0  0  0  0  0  0  0
  152.5415  144.1768  162.0079 H   0  0  0  0  0  0  0  0  0  0  0  0
  151.5466  142.9701  161.2292 H   0  0  0  0  0  0  0  0  0  0  0  0
  153.8469  142.0747  161.7062 H   0  0  0  0  0  0  0  0  0  0  0  0
  154.5522  143.3645  160.7858 H   0  0  0  0  0  0  0  0  0  0  0  0
  156.2813  136.8729  161.8414 H   0  0  0  0  0  0  0  0  0  0  0  0
  156.5214  138.5703  161.4622 H   0  0  0  0  0  0  0  0  0  0  0  0
  157.4088  137.3460  160.5658 H   0  0  0  0  0  0  0  0  0  0  0  0
  1  2  1  0  0  0  0
  1 25  1  0  0  0  0
  1 26  1  0  0  0  0
  1 27  1  0  0  0  0
  2  3  1  0  0  0  0
  2 28  1  0  0  0  0
  2 29  1  0  0  0  0
  3  4  1  0  0  0  0
  4  5  1  0  0  0  0
  4 30  1  0  0  0  0
  4 31  1  0  0  0  0
  5  6  1  0  0  0  0
  5 32  1  0  0  0  0
  5 33  1  0  0  0  0
  6 17  1  0  0  0  0
  6  7  1  0  0  0  0
  7  8  1  0  0  0  0
  7 15  2  0  0  0  0
  8 14  1  0  0  0  0
  8  9  1  0  0  0  0
  9 10  1  0  0  0  0
  9 34  1  0  0  0  0
  9 35  1  0  0  0  0
 10 11  1  0  0  0  0
 10 36  1  0  0  0  0
 10 37  1  0  0  0  0
 11 12  1  0  0  0  0
 11 13  1  0  0  0  0
 11 38  1  0  0  0  0
 12 39  1  0  0  0  0
 12 40  1  0  0  0  0
 12 41  1  0  0  0  0
 13 14  1  0  0  0  0
 13 42  1  0  0  0  0
 13 43  1  0  0  0  0
 14 44  1  0  0  0  0
 14 45  1  0  0  0  0
 15 16  1  0  0  0  0
 16 23  1  0  0  0  0
 16 17  2  0  0  0  0
 17 18  1  0  0  0  0
 18 19  2  0  0  0  0
 18 20  1  0  0  0  0
 20 21  1  0  0  0  0
 21 22  2  0  0  0  0
 21 23  1  0  0  0  0
 23 24  1  0  0  0  0
 24 46  1  0  0  0  0
 24 47  1  0  0  0  0
 24 48  1  0  0  0  0
M  CHG  1  20  -1
M  END
> <s_m_source_file>
AV-unprocessed.smi

> <i_m_source_file_index>
540

> <i_lp_mmshare_version>
43012

> <i_f3d_flags>
0

> <s_epik_input>
W0NIM11uMWMoPU8pW25IXWMoPU8pYyhjMTIpbihbQ0gyXVtDSDJdT1tDSDJdW0NIM10pYyhuMilOM1tDSDJdW0NIMl1bQ0hdKFtDSDNdKVtDSDJdW0NIMl0z

> <s_epik_cmdline>
J2VwaWtfcHl0aG9uJywgJy1waCcsICc3LjAnLCAnLXRuJywgJzgnLCAnLW1hJywgJzIwMCcsICctbWV0YWxfYmluZGluZycsICctaW1hZScsICc8aW5maWxlLm1hZT4nLCAnLW9tYWUnLCAnPG91dGZpbGUubWFlPic=

> <r_lp_tautomer_probability>
1

> <r_epik_Ionization_Penalty>
5.11981

> <r_epik_Ionization_Penalty_Charging>
0.0737583

> <r_epik_Ionization_Penalty_Neutral>
5.04605

> <r_epik_State_Penalty>
5.03218

> <r_epik_Charging_Adjusted_Penalty>
5.10594

> <i_epik_Tot_Q>
-1

> <i_epik_Tot_abs_Q>
1

> <r_epik_Metal_State_Penalty>
1.14277

> <b_epik_Metal_Only>
1

> <s_lp_Force_Field>
OPLS_2005

> <r_lp_Energy>
41.1943

> <b_lp_Chiralities_Consistent>
1

> <s_lp_Variant>
AV-unprocessed.smi:540-2

> <Gold.Version>
5.8.1

> <Gold.Id.Protein>
6NUR|6NUR_protein|mol2

> <Gold.PLP.Fitness>
47.0431

> <Gold.PLP.PLP>
-44.1016

> <Gold.PLP.part.hbond>
-3.0000

> <Gold.PLP.part.metal>
0.0000

> <Gold.PLP.part.buried>
-2.1484

> <Gold.PLP.part.nonpolar>
-39.2565

> <Gold.PLP.part.repulsive>
0.0196

> <Gold.PLP.ligand.clash>
0.0000

> <Gold.PLP.ligand.torsion>
0.8593

> <Gold.PLP.Chemscore.Hbond>
1.3745

> <Gold.PLP.Chemscore.CHOScore>
0.0000

> <Gold.PLP.Chemscore.Metal>
0.0000

> <Gold.Chemscore.Hbonds>
donor molecule, donor type, donor heavy atom, donor atom, acceptor molecule, acceptor atom, score
      P1  H  7989  7998       L1     3  1.00

> <Gold.PLP.Chemscore.Internal.Correction>
0.5367

> <Gold.Rescore>
     Score         DG    S(hbond)    S(metal)    S(lipo)     H(rot)  DE(clash)    DE(int)     intcor
     13.41     -16.05       0.88        0.00      99.36       1.55       0.25       2.39       ----

> <Gold.Chemscore.Fitness>
13.4118

> <Gold.Chemscore.DG>
-16.0520

> <Gold.Chemscore.ZeroCoef>
-5.4800

> <Gold.Chemscore.Hbond>
0.8755

> <Gold.Chemscore.Metal>
0.0000

> <Gold.Chemscore.Lipo>
99.3566

> <Gold.Chemscore.Internal_Hbond>
0.0000

> <Gold.Chemscore.DEClash>
0.2498

> <Gold.Chemscore.DEInternal>
2.3904

> <Gold.Chemscore.Rot>
1.5534

> <Gold.Chemscore.Internal.Correction>
   9.000000E+99

> <Gold.Chemscore.Hbonds>
donor molecule, donor type, donor heavy atom, donor atom, acceptor molecule, acceptor atom, score
      P1  H  7989  7998       L1     3  0.78

> <Gold.Chemscore.Hbond.Weighted>
-2.9241

> <Gold.Chemscore.Metal.Weighted>
-0.0000

> <Gold.Chemscore.Lipo.Weighted>
-11.6247

> <Gold.Chemscore.Internal_Hbond.Weighted>
0.0000

> <Gold.Chemscore.DEClash.Weighted>
0.2498

> <Gold.Chemscore.DEInternal.Weighted>
2.3904

> <Gold.Chemscore.Rot.Weighted>
3.9768

> <Gold.Chemscore.Internal.Correction.Weighted>
   9.000000E+99

> <Gold.Protein.RotatedTorsions>
[ 6907 6896 6895 6894 ] final  108.59 input  -60.11 | X-H torsion
[ 7974 7965 7964 7962 ] final -161.32 input  175.53 | X-H torsion
[ 8008 7997 7996 7995 ] final -127.48 input   59.86 | X-H torsion
[ 10167 10162 10161 10158 ] final -138.80 input  -65.29 | X-H torsion
[ 10718 10713 10712 10709 ] final   58.34 input   66.30 | X-H torsion
[ 10763 10752 10751 10750 ] final  -17.24 input  -60.55 | X-H torsion
[ 11005 11000 10999 10996 ] final   28.58 input  -57.11 | X-H torsion

> <Gold.Protein.ActiveResidues>
 VAL166  LYS551  ARG553  GLY616  TRP617  ASP618  TYR619  PRO620  LYS621  CYS622 
 ASP623  PHE694  ASN695  SER759  ASP760  ASP761  ALA762  ILE779  LEU786  VAL792 
 PHE793  MET794  SER795  GLU796  ALA797  LYS798  CYS799  TRP800  GLU811  SER814 

> <Gold.Protein.RotatedAtoms>
  152.5105  133.9066  159.7466 H   0  0  0  0  0  0  0  0  0  0  0  0  # atno 6907 bound_to 6896
  150.9469  133.6584  159.2786 H   0  0  0  0  0  0  0  0  0  0  0  0  # atno 6908 bound_to 6896
  151.3876  135.0955  159.9568 H   0  0  0  0  0  0  0  0  0  0  0  0  # atno 6909 bound_to 6896
  144.7395  140.3414  143.6134 H   0  0  0  0  0  0  0  0  0  0  0  0  # atno 7974 bound_to 7965
  155.2469  140.0431  157.2982 H   0  0  0  0  0  0  0  0  0  0  0  0  # atno 8008 bound_to 7997
  154.5793  140.2396  155.8046 H   0  0  0  0  0  0  0  0  0  0  0  0  # atno 8009 bound_to 7997
  156.2181  140.2978  155.9895 H   0  0  0  0  0  0  0  0  0  0  0  0  # atno 8010 bound_to 7997
  139.8442  143.7282  152.2661 H   0  0  0  0  0  0  0  0  0  0  0  0  # atno 10167 bound_to 10162
  157.5588  130.8820  149.9078 H   0  0  0  0  0  0  0  0  0  0  0  0  # atno 10718 bound_to 10713
  153.5708  135.7007  153.5505 H   0  0  0  0  0  0  0  0  0  0  0  0  # atno 10763 bound_to 10752
  153.3346  135.4038  155.1523 H   0  0  0  0  0  0  0  0  0  0  0  0  # atno 10764 bound_to 10752
  154.8633  135.3727  154.5231 H   0  0  0  0  0  0  0  0  0  0  0  0  # atno 10765 bound_to 10752
  140.3141  134.2617  155.7729 H   0  0  0  0  0  0  0  0  0  0  0  0  # atno 11005 bound_to 11000
  145.7370  139.1753  143.2397 LP  0  0  0  0  0  0  0  0  0  0  0  0  # atno 17320 bound_to 7965
  146.1163  140.7366  142.9479 LP  0  0  0  0  0  0  0  0  0  0  0  0  # atno 17321 bound_to 7965
  139.7529  144.7529  151.0479 LP  0  0  0  0  0  0  0  0  0  0  0  0  # atno 17342 bound_to 10162
  140.7795  143.4839  150.9981 LP  0  0  0  0  0  0  0  0  0  0  0  0  # atno 17343 bound_to 10162
  156.0643  130.3695  150.0913 LP  0  0  0  0  0  0  0  0  0  0  0  0  # atno 17370 bound_to 10713
  156.9079  130.9642  151.3567 LP  0  0  0  0  0  0  0  0  0  0  0  0  # atno 17371 bound_to 10713
  141.2102  133.7727  156.9950 LP  0  0  0  0  0  0  0  0  0  0  0  0  # atno 17394 bound_to 11000
  140.0999  134.9541  157.1907 LP  0  0  0  0  0  0  0  0  0  0  0  0  # atno 17395 bound_to 11000

$$$$
