AV-unprocessed.smi:2810|AV-procd|sdf|10827|dock10
  -GOLD-   2272015263D 1   1.00000     0.00000
 Structure written by MMmdl.
 39 40  0  0  0  0  0  0  0  0  1 V2000
  154.2518  140.1972  161.0177 C   0  0  0  0  0  0  0  0  0  0  0  0
  153.3752  140.8681  159.9819 C   0  0  0  0  0  0  0  0  0  0  0  0
  152.7553  140.1305  158.9524 C   0  0  0  0  0  0  0  0  0  0  0  0
  151.9675  140.8643  158.0322 C   0  0  0  0  0  0  0  0  0  0  0  0
  151.2867  140.2646  156.9533 N   0  0  0  0  0  0  0  0  0  0  0  0
  152.2142  139.6500  156.0059 C   0  0  0  0  0  0  0  0  0  0  0  0
  151.4549  138.8087  154.9700 C   0  0  0  0  0  0  0  0  0  0  0  0
  150.4815  139.6226  154.3298 O   0  0  0  0  0  0  0  0  0  0  0  0
  149.5110  140.0992  155.2542 C   0  0  0  0  0  0  0  0  0  0  0  0
  150.1756  140.9953  156.3257 C   0  0  1  0  0  0  0  0  0  0  0  0
  149.0804  141.4706  157.2985 C   0  0  0  0  0  0  0  0  0  0  0  0
  148.8121  142.7784  157.3161 N   0  0  0  0  0  0  0  0  0  0  0  0
  148.4786  140.6709  158.0130 O   0  0  0  0  0  0  0  0  0  0  0  0
  151.8173  142.2019  158.1661 N   0  0  0  0  0  0  0  0  0  0  0  0
  152.4501  142.8017  159.1799 C   0  0  0  0  0  0  0  0  0  0  0  0
  152.2763  144.3095  159.3061 C   0  0  0  0  0  0  0  0  0  0  0  0
  151.8704  144.7241  160.7288 C   0  0  0  0  0  0  0  0  0  0  0  0
  151.3399  144.8721  158.2257 C   0  0  0  0  0  0  0  0  0  0  0  0
  153.2216  142.2046  160.0932 N   0  0  0  0  0  0  0  0  0  0  0  0
  154.1848  139.1114  160.9462 H   0  0  0  0  0  0  0  0  0  0  0  0
  153.9491  140.4908  162.0232 H   0  0  0  0  0  0  0  0  0  0  0  0
  155.2932  140.4857  160.8729 H   0  0  0  0  0  0  0  0  0  0  0  0
  152.8842  139.0612  158.8818 H   0  0  0  0  0  0  0  0  0  0  0  0
  152.7837  140.4334  155.5029 H   0  0  0  0  0  0  0  0  0  0  0  0
  152.9355  139.0140  156.5212 H   0  0  0  0  0  0  0  0  0  0  0  0
  152.1451  138.4235  154.2193 H   0  0  0  0  0  0  0  0  0  0  0  0
  150.9792  137.9457  155.4389 H   0  0  0  0  0  0  0  0  0  0  0  0
  148.7606  140.6630  154.6984 H   0  0  0  0  0  0  0  0  0  0  0  0
  148.9934  139.2523  155.7099 H   0  0  0  0  0  0  0  0  0  0  0  0
  150.5937  141.8648  155.8156 H   0  0  0  0  0  0  0  0  0  0  0  0
  148.1010  143.1399  157.9348 H   0  0  0  0  0  0  0  0  0  0  0  0
  149.3219  143.4016  156.7069 H   0  0  0  0  0  0  0  0  0  0  0  0
  153.2533  144.7614  159.1256 H   0  0  0  0  0  0  0  0  0  0  0  0
  152.5967  144.3705  161.4610 H   0  0  0  0  0  0  0  0  0  0  0  0
  150.8966  144.3155  161.0010 H   0  0  0  0  0  0  0  0  0  0  0  0
  151.8111  145.8088  160.8188 H   0  0  0  0  0  0  0  0  0  0  0  0
  151.6998  144.6220  157.2271 H   0  0  0  0  0  0  0  0  0  0  0  0
  151.2738  145.9584  158.2906 H   0  0  0  0  0  0  0  0  0  0  0  0
  150.3302  144.4726  158.3259 H   0  0  0  0  0  0  0  0  0  0  0  0
  1  2  1  0  0  0  0
  1 20  1  0  0  0  0
  1 21  1  0  0  0  0
  1 22  1  0  0  0  0
  2 19  1  0  0  0  0
  2  3  2  0  0  0  0
  3  4  1  0  0  0  0
  3 23  1  0  0  0  0
  4  5  1  0  0  0  0
  4 14  2  0  0  0  0
  5 10  1  0  0  0  0
  5  6  1  0  0  0  0
  6  7  1  0  0  0  0
  6 24  1  0  0  0  0
  6 25  1  0  0  0  0
  7  8  1  0  0  0  0
  7 26  1  0  0  0  0
  7 27  1  0  0  0  0
  8  9  1  0  0  0  0
  9 10  1  0  0  0  0
  9 28  1  0  0  0  0
  9 29  1  0  0  0  0
 10 11  1  0  0  0  0
 10 30  1  0  0  0  0
 11 12  1  0  0  0  0
 11 13  2  0  0  0  0
 12 31  1  0  0  0  0
 12 32  1  0  0  0  0
 14 15  1  0  0  0  0
 15 16  1  0  0  0  0
 15 19  2  0  0  0  0
 16 17  1  0  0  0  0
 16 18  1  0  0  0  0
 16 33  1  0  0  0  0
 17 34  1  0  0  0  0
 17 35  1  0  0  0  0
 17 36  1  0  0  0  0
 18 37  1  0  0  0  0
 18 38  1  0  0  0  0
 18 39  1  0  0  0  0
M  END
> <s_m_source_file>
AV-unprocessed.smi

> <i_m_source_file_index>
2810

> <i_lp_mmshare_version>
43012

> <i_f3d_flags>
0

> <s_epik_input>
W0NIM11bQ0hdKFtDSDNdKWMobjEpbmMoW2NIXWMxW0NIM10pTjJbQ0gyXVtDSDJdT1tDSDJdW0NASF0yQyg9TylbTkgyXQ==

> <s_epik_cmdline>
J2VwaWtfcHl0aG9uJywgJy1waCcsICc3LjAnLCAnLXRuJywgJzgnLCAnLW1hJywgJzIwMCcsICctbWV0YWxfYmluZGluZycsICctaW1hZScsICc8aW5maWxlLm1hZT4nLCAnLW9tYWUnLCAnPG91dGZpbGUubWFlPic=

> <r_lp_tautomer_probability>
1

> <r_epik_Ionization_Penalty>
0.00607782

> <r_epik_Ionization_Penalty_Charging>
0

> <r_epik_Ionization_Penalty_Neutral>
0.00607782

> <r_epik_State_Penalty>
0.00441345

> <r_epik_Charging_Adjusted_Penalty>
0.00441345

> <i_epik_Tot_Q>
0

> <i_epik_Tot_abs_Q>
0

> <r_epik_Metal_State_Penalty>
-0

> <b_epik_Metal_Only>
0

> <s_lp_Force_Field>
OPLS_2005

> <r_lp_Energy>
6.57668

> <b_lp_Chiralities_Consistent>
1

> <s_lp_Variant>
AV-unprocessed.smi:2810-1

> <Gold.Version>
5.8.1

> <Gold.Id.Protein>
6NUR|6NUR_protein|mol2

> <Gold.PLP.Fitness>
43.4832

> <Gold.PLP.PLP>
-38.8840

> <Gold.PLP.part.hbond>
-2.5880

> <Gold.PLP.part.metal>
0.0000

> <Gold.PLP.part.buried>
-5.5135

> <Gold.PLP.part.nonpolar>
-31.5415

> <Gold.PLP.part.repulsive>
0.2010

> <Gold.PLP.ligand.clash>
0.0000

> <Gold.PLP.ligand.torsion>
0.3978

> <Gold.PLP.Chemscore.Hbond>
1.6880

> <Gold.PLP.Chemscore.CHOScore>
0.0000

> <Gold.PLP.Chemscore.Metal>
0.0000

> <Gold.Chemscore.Hbonds>
donor molecule, donor type, donor heavy atom, donor atom, acceptor molecule, acceptor atom, score
      L1  H    12    32       P1  8028  0.69
      P1  H  7989  7998       L1     8  0.95

> <Gold.PLP.Chemscore.Internal.Correction>
0.3308

> <Gold.Rescore>
     Score         DG    S(hbond)    S(metal)    S(lipo)     H(rot)  DE(clash)    DE(int)     intcor
     13.88     -16.24       1.52        0.00      86.11       1.71       0.68       1.68       ----

> <Gold.Chemscore.Fitness>
13.8770

> <Gold.Chemscore.DG>
-16.2410

> <Gold.Chemscore.ZeroCoef>
-5.4800

> <Gold.Chemscore.Hbond>
1.5173

> <Gold.Chemscore.Metal>
0.0000

> <Gold.Chemscore.Lipo>
86.1134

> <Gold.Chemscore.Internal_Hbond>
0.0000

> <Gold.Chemscore.DEClash>
0.6802

> <Gold.Chemscore.DEInternal>
1.6839

> <Gold.Chemscore.Rot>
1.7117

> <Gold.Chemscore.Internal.Correction>
   9.000000E+99

> <Gold.Chemscore.Hbonds>
donor molecule, donor type, donor heavy atom, donor atom, acceptor molecule, acceptor atom, score
      L1  H    12    32       P1  8028  0.67
      P1  H  7989  7998       L1     8  0.21

> <Gold.Chemscore.Hbond.Weighted>
-5.0678

> <Gold.Chemscore.Metal.Weighted>
-0.0000

> <Gold.Chemscore.Lipo.Weighted>
-10.0753

> <Gold.Chemscore.Internal_Hbond.Weighted>
0.0000

> <Gold.Chemscore.DEClash.Weighted>
0.6802

> <Gold.Chemscore.DEInternal.Weighted>
1.6839

> <Gold.Chemscore.Rot.Weighted>
4.3820

> <Gold.Chemscore.Internal.Correction.Weighted>
   9.000000E+99

> <Gold.Protein.RotatedTorsions>
[ 6907 6896 6895 6894 ] final  115.04 input  -60.11 | X-H torsion
[ 7974 7965 7964 7962 ] final  150.33 input  175.53 | X-H torsion
[ 8008 7997 7996 7995 ] final -178.56 input   59.86 | X-H torsion
[ 10167 10162 10161 10158 ] final  176.01 input  -65.29 | X-H torsion
[ 10718 10713 10712 10709 ] final -165.96 input   66.30 | X-H torsion
[ 10763 10752 10751 10750 ] final  -14.69 input  -60.55 | X-H torsion
[ 11005 11000 10999 10996 ] final -161.48 input  -57.11 | X-H torsion

> <Gold.Protein.ActiveResidues>
 VAL166  LYS551  ARG553  GLY616  TRP617  ASP618  TYR619  PRO620  LYS621  CYS622 
 ASP623  PHE694  ASN695  SER759  ASP760  ASP761  ALA762  ILE779  LEU786  VAL792 
 PHE793  MET794  SER795  GLU796  ALA797  LYS798  CYS799  TRP800  GLU811  SER814 

> <Gold.Protein.RotatedAtoms>
  152.4766  133.8153  159.7024 H   0  0  0  0  0  0  0  0  0  0  0  0  # atno 6907 bound_to 6896
  150.8787  133.7393  159.2945 H   0  0  0  0  0  0  0  0  0  0  0  0  # atno 6908 bound_to 6896
  151.4904  135.1060  159.9854 H   0  0  0  0  0  0  0  0  0  0  0  0  # atno 6909 bound_to 6896
  144.8372  139.6395  143.6032 H   0  0  0  0  0  0  0  0  0  0  0  0  # atno 7974 bound_to 7965
  156.0202  140.1259  157.0365 H   0  0  0  0  0  0  0  0  0  0  0  0  # atno 8008 bound_to 7997
  154.4309  140.1070  156.6023 H   0  0  0  0  0  0  0  0  0  0  0  0  # atno 8009 bound_to 7997
  155.5955  140.3470  155.4581 H   0  0  0  0  0  0  0  0  0  0  0  0  # atno 8010 bound_to 7997
  139.5198  144.2965  152.0417 H   0  0  0  0  0  0  0  0  0  0  0  0  # atno 10167 bound_to 10162
  156.6609  130.9045  151.3029 H   0  0  0  0  0  0  0  0  0  0  0  0  # atno 10718 bound_to 10713
  153.5321  135.7014  153.5678 H   0  0  0  0  0  0  0  0  0  0  0  0  # atno 10763 bound_to 10752
  153.3681  135.3952  155.1768 H   0  0  0  0  0  0  0  0  0  0  0  0  # atno 10764 bound_to 10752
  154.8683  135.3805  154.4819 H   0  0  0  0  0  0  0  0  0  0  0  0  # atno 10765 bound_to 10752
  140.6199  134.4761  157.5223 H   0  0  0  0  0  0  0  0  0  0  0  0  # atno 11005 bound_to 11000
  146.2669  139.6542  142.9323 LP  0  0  0  0  0  0  0  0  0  0  0  0  # atno 17320 bound_to 7965
  145.4770  141.0437  143.2667 LP  0  0  0  0  0  0  0  0  0  0  0  0  # atno 17321 bound_to 7965
  140.2414  144.4265  150.6258 LP  0  0  0  0  0  0  0  0  0  0  0  0  # atno 17342 bound_to 10162
  140.6288  143.2184  151.6540 LP  0  0  0  0  0  0  0  0  0  0  0  0  # atno 17343 bound_to 10162
  157.7110  130.9440  150.1088 LP  0  0  0  0  0  0  0  0  0  0  0  0  # atno 17370 bound_to 10713
  156.2011  130.3660  149.8787 LP  0  0  0  0  0  0  0  0  0  0  0  0  # atno 17371 bound_to 10713
  139.9157  134.8250  156.1373 LP  0  0  0  0  0  0  0  0  0  0  0  0  # atno 17394 bound_to 11000
  141.0749  133.6780  156.2216 LP  0  0  0  0  0  0  0  0  0  0  0  0  # atno 17395 bound_to 11000

$$$$
