AV-unprocessed.smi:2061|AV-procd|sdf|8380|dock5
  -GOLD-   2272011 53D 1   1.00000     0.00000
 Structure written by MMmdl.
 45 46  0  0  0  0  0  0  0  0  3 V2000
  152.0557  139.2087  157.8870 C   0  0  0  0  0  0  0  0  0  0  0  0
  152.2130  138.1362  156.8638 C   0  0  0  0  0  0  0  0  0  0  0  0
  151.3412  137.2327  156.3256 C   0  0  0  0  0  0  0  0  0  0  0  0
  152.1476  136.5143  155.4011 C   0  0  0  0  0  0  0  0  0  0  0  0
  151.7383  135.5019  154.6207 N   0  5  0  0  0  0  0  0  0  0  0  0
  150.7412  134.6862  155.0324 C   0  0  0  0  0  0  0  0  0  0  0  0
  150.8165  133.8212  155.9083 O   0  0  0  0  0  0  0  0  0  0  0  0
  149.5846  134.8779  154.3821 N   0  0  0  0  0  0  0  0  0  0  0  0
  148.3526  134.1241  154.5965 C   0  0  0  0  0  0  0  0  0  0  0  0
  147.9422  133.2664  153.3683 C   0  0  2  0  0  0  0  0  0  0  0  0
  149.1949  132.6063  152.7411 C   0  0  0  0  0  0  0  0  0  0  0  0
  147.1520  134.0853  152.3909 N   0  3  1  0  0  0  0  0  0  0  0  0
  146.5945  133.3290  151.2351 C   0  0  0  0  0  0  0  0  0  0  0  0
  145.8262  134.2566  150.2741 C   0  0  1  0  0  0  0  0  0  0  0  0
  145.1668  133.4806  149.1283 C   0  0  0  0  0  0  0  0  0  0  0  0
  144.8039  134.9371  150.9885 O   0  0  0  0  0  0  0  0  0  0  0  0
  145.3291  135.7559  152.0239 C   0  0  1  0  0  0  0  0  0  0  0  0
  144.1644  136.5237  152.6595 C   0  0  0  0  0  0  0  0  0  0  0  0
  146.0614  134.8623  153.0417 C   0  0  0  0  0  0  0  0  0  0  0  0
  153.4028  136.9312  155.3938 N   0  0  0  0  0  0  0  0  0  0  0  0
  153.4515  137.9763  156.3241 O   0  0  0  0  0  0  0  0  0  0  0  0
  152.0233  138.7824  158.8895 H   0  0  0  0  0  0  0  0  0  0  0  0
  151.1321  139.7644  157.7248 H   0  0  0  0  0  0  0  0  0  0  0  0
  152.8851  139.9152  157.8461 H   0  0  0  0  0  0  0  0  0  0  0  0
  150.2928  137.1083  156.5521 H   0  0  0  0  0  0  0  0  0  0  0  0
  149.5645  135.5999  153.6765 H   0  0  0  0  0  0  0  0  0  0  0  0
  148.4881  133.5247  155.4953 H   0  0  0  0  0  0  0  0  0  0  0  0
  147.5617  134.8382  154.8276 H   0  0  0  0  0  0  0  0  0  0  0  0
  147.2958  132.4543  153.7048 H   0  0  0  0  0  0  0  0  0  0  0  0
  149.7740  132.0519  153.4792 H   0  0  0  0  0  0  0  0  0  0  0  0
  149.8585  133.3502  152.2988 H   0  0  0  0  0  0  0  0  0  0  0  0
  148.9334  131.8788  151.9730 H   0  0  0  0  0  0  0  0  0  0  0  0
  147.3914  132.8577  150.6611 H   0  0  0  0  0  0  0  0  0  0  0  0
  145.9404  132.5362  151.6025 H   0  0  0  0  0  0  0  0  0  0  0  0
  146.5122  134.9893  149.8447 H   0  0  0  0  0  0  0  0  0  0  0  0
  145.9104  132.9480  148.5349 H   0  0  0  0  0  0  0  0  0  0  0  0
  144.6293  134.1541  148.4603 H   0  0  0  0  0  0  0  0  0  0  0  0
  144.4531  132.7478  149.5064 H   0  0  0  0  0  0  0  0  0  0  0  0
  146.0269  136.4784  151.5967 H   0  0  0  0  0  0  0  0  0  0  0  0
  144.5144  137.1800  153.4568 H   0  0  0  0  0  0  0  0  0  0  0  0
  143.4278  135.8422  153.0859 H   0  0  0  0  0  0  0  0  0  0  0  0
  143.6561  137.1429  151.9201 H   0  0  0  0  0  0  0  0  0  0  0  0
  145.3558  134.1731  153.5088 H   0  0  0  0  0  0  0  0  0  0  0  0
  146.4495  135.4981  153.8347 H   0  0  0  0  0  0  0  0  0  0  0  0
  147.7977  134.7552  151.9983 H   0  0  0  0  0  0  0  0  0  0  0  0
  1  2  1  0  0  0  0
  1 22  1  0  0  0  0
  1 23  1  0  0  0  0
  1 24  1  0  0  0  0
  2 21  1  0  0  0  0
  2  3  2  0  0  0  0
  3  4  1  0  0  0  0
  3 25  1  0  0  0  0
  4  5  1  0  0  0  0
  4 20  2  0  0  0  0
  5  6  1  0  0  0  0
  6  7  2  0  0  0  0
  6  8  1  0  0  0  0
  8  9  1  0  0  0  0
  8 26  1  0  0  0  0
  9 10  1  0  0  0  0
  9 27  1  0  0  0  0
  9 28  1  0  0  0  0
 10 11  1  0  0  0  0
 10 12  1  0  0  0  0
 10 29  1  0  0  0  0
 11 30  1  0  0  0  0
 11 31  1  0  0  0  0
 11 32  1  0  0  0  0
 12 19  1  0  0  0  0
 12 13  1  0  0  0  0
 12 45  1  0  0  0  0
 13 14  1  0  0  0  0
 13 33  1  0  0  0  0
 13 34  1  0  0  0  0
 14 15  1  0  0  0  0
 14 16  1  0  0  0  0
 14 35  1  0  0  0  0
 15 36  1  0  0  0  0
 15 37  1  0  0  0  0
 15 38  1  0  0  0  0
 16 17  1  0  0  0  0
 17 18  1  0  0  0  0
 17 19  1  0  0  0  0
 17 39  1  0  0  0  0
 18 40  1  0  0  0  0
 18 41  1  0  0  0  0
 18 42  1  0  0  0  0
 19 43  1  0  0  0  0
 19 44  1  0  0  0  0
 20 21  1  0  0  0  0
M  CHG  1   5  -1
M  CHG  1  12   1
M  END
> <s_m_source_file>
AV-unprocessed.smi

> <i_m_source_file_index>
2061

> <i_lp_mmshare_version>
43012

> <i_f3d_flags>
0

> <s_epik_input>
W0NIM11jMVtjSF1jKG5vMSlbTkhdQyg9TylbTkhdW0NIMl1bQ0BIXShbQ0gzXSlOMltDSDJdW0NAQEhdKFtDSDNdKU9bQ0BASF0oW0NIM10pW0NIMl0y

> <s_epik_cmdline>
J2VwaWtfcHl0aG9uJywgJy1waCcsICc3LjAnLCAnLXRuJywgJzgnLCAnLW1hJywgJzIwMCcsICctbWV0YWxfYmluZGluZycsICctaW1hZScsICc8aW5maWxlLm1hZT4nLCAnLW9tYWUnLCAnPG91dGZpbGUubWFlPic=

> <r_epik_Ionization_Penalty>
6.73511

> <r_epik_Ionization_Penalty_Charging>
6.73502

> <r_epik_Ionization_Penalty_Neutral>
9.50841e-05

> <r_epik_State_Penalty>
6.93549

> <r_epik_Charging_Adjusted_Penalty>
13.6705

> <i_epik_Tot_Q>
0

> <i_epik_Tot_abs_Q>
2

> <r_epik_Metal_State_Penalty>
2.87211

> <b_epik_Metal_Only>
1

> <s_lp_Force_Field>
OPLS_2005

> <r_lp_Energy>
7.84015

> <b_lp_Chiralities_Consistent>
1

> <s_lp_Variant>
AV-unprocessed.smi:2061-21

> <Gold.Version>
5.8.1

> <Gold.Id.Protein>
6NUR|6NUR_protein|mol2

> <Gold.PLP.Fitness>
52.9922

> <Gold.PLP.PLP>
-37.2243

> <Gold.PLP.part.hbond>
-4.8251

> <Gold.PLP.part.metal>
0.0000

> <Gold.PLP.part.buried>
-3.4420

> <Gold.PLP.part.nonpolar>
-28.4194

> <Gold.PLP.part.repulsive>
1.1689

> <Gold.PLP.ligand.clash>
0.0000

> <Gold.PLP.ligand.torsion>
1.1861

> <Gold.PLP.Chemscore.Hbond>
6.0000

> <Gold.PLP.Chemscore.CHOScore>
0.0000

> <Gold.PLP.Chemscore.Metal>
0.0000

> <Gold.Chemscore.Hbonds>
donor molecule, donor type, donor heavy atom, donor atom, acceptor molecule, acceptor atom, score
      L1  H     8    26       P1  7948  0.93
      L1  H    12    45       P1  7948  2.00

> <Gold.PLP.Chemscore.Internal.Correction>
0.1401

> <Gold.Rescore>
     Score         DG    S(hbond)    S(metal)    S(lipo)     H(rot)  DE(clash)    DE(int)     intcor
     17.54     -18.93       2.92        0.00      65.64       1.56       0.04       1.36       ----

> <Gold.Chemscore.Fitness>
17.5392

> <Gold.Chemscore.DG>
-18.9342

> <Gold.Chemscore.ZeroCoef>
-5.4800

> <Gold.Chemscore.Hbond>
2.9208

> <Gold.Chemscore.Metal>
0.0000

> <Gold.Chemscore.Lipo>
65.6369

> <Gold.Chemscore.Internal_Hbond>
0.0000

> <Gold.Chemscore.DEClash>
0.0359

> <Gold.Chemscore.DEInternal>
1.3592

> <Gold.Chemscore.Rot>
1.5550

> <Gold.Chemscore.Internal.Correction>
   9.000000E+99

> <Gold.Chemscore.Hbonds>
donor molecule, donor type, donor heavy atom, donor atom, acceptor molecule, acceptor atom, score
      L1  H     8    26       P1  7948  0.20
      L1  H    12    45       P1  7948  0.50

> <Gold.Chemscore.Hbond.Weighted>
-9.7556

> <Gold.Chemscore.Metal.Weighted>
-0.0000

> <Gold.Chemscore.Lipo.Weighted>
-7.6795

> <Gold.Chemscore.Internal_Hbond.Weighted>
0.0000

> <Gold.Chemscore.DEClash.Weighted>
0.0359

> <Gold.Chemscore.DEInternal.Weighted>
1.3592

> <Gold.Chemscore.Rot.Weighted>
3.9809

> <Gold.Chemscore.Internal.Correction.Weighted>
   9.000000E+99

> <Gold.Protein.RotatedTorsions>
[ 6907 6896 6895 6894 ] final   18.48 input  -60.11 | X-H torsion
[ 7974 7965 7964 7962 ] final   69.35 input  175.53 | X-H torsion
[ 8008 7997 7996 7995 ] final -121.83 input   59.86 | X-H torsion
[ 10167 10162 10161 10158 ] final -144.63 input  -65.29 | X-H torsion
[ 10718 10713 10712 10709 ] final   71.90 input   66.30 | X-H torsion
[ 10763 10752 10751 10750 ] final  161.32 input  -60.55 | X-H torsion
[ 11005 11000 10999 10996 ] final   -4.89 input  -57.11 | X-H torsion

> <Gold.Protein.ActiveResidues>
 VAL166  LYS551  ARG553  GLY616  TRP617  ASP618  TYR619  PRO620  LYS621  CYS622 
 ASP623  PHE694  ASN695  SER759  ASP760  ASP761  ALA762  ILE779  LEU786  VAL792 
 PHE793  MET794  SER795  GLU796  ALA797  LYS798  CYS799  TRP800  GLU811  SER814 

> <Gold.Protein.RotatedAtoms>
  151.8659  135.0507  160.0473 H   0  0  0  0  0  0  0  0  0  0  0  0  # atno 6907 bound_to 6896
  152.2626  133.5306  159.5399 H   0  0  0  0  0  0  0  0  0  0  0  0  # atno 6908 bound_to 6896
  150.7122  134.0725  159.3911 H   0  0  0  0  0  0  0  0  0  0  0  0  # atno 6909 bound_to 6896
  145.7915  139.2936  143.1207 H   0  0  0  0  0  0  0  0  0  0  0  0  # atno 7974 bound_to 7965
  155.1543  140.0404  157.2828 H   0  0  0  0  0  0  0  0  0  0  0  0  # atno 8008 bound_to 7997
  154.6381  140.2540  155.7327 H   0  0  0  0  0  0  0  0  0  0  0  0  # atno 8009 bound_to 7997
  156.2519  140.2861  156.0763 H   0  0  0  0  0  0  0  0  0  0  0  0  # atno 8010 bound_to 7997
  139.7881  143.8005  152.2647 H   0  0  0  0  0  0  0  0  0  0  0  0  # atno 10167 bound_to 10162
  157.6474  130.9551  150.0853 H   0  0  0  0  0  0  0  0  0  0  0  0  # atno 10718 bound_to 10713
  154.2612  135.2768  155.2777 H   0  0  0  0  0  0  0  0  0  0  0  0  # atno 10763 bound_to 10752
  154.5382  135.5710  153.6820 H   0  0  0  0  0  0  0  0  0  0  0  0  # atno 10764 bound_to 10752
  152.9962  135.6244  154.2762 H   0  0  0  0  0  0  0  0  0  0  0  0  # atno 10765 bound_to 10752
  140.6852  133.9119  155.8581 H   0  0  0  0  0  0  0  0  0  0  0  0  # atno 11005 bound_to 11000
  145.9972  140.8552  143.0037 LP  0  0  0  0  0  0  0  0  0  0  0  0  # atno 17320 bound_to 7965
  144.6781  140.2300  143.7356 LP  0  0  0  0  0  0  0  0  0  0  0  0  # atno 17321 bound_to 7965
  139.8088  144.7344  150.9725 LP  0  0  0  0  0  0  0  0  0  0  0  0  # atno 17342 bound_to 10162
  140.7820  143.4271  151.0751 LP  0  0  0  0  0  0  0  0  0  0  0  0  # atno 17343 bound_to 10162
  156.1818  130.3650  149.9025 LP  0  0  0  0  0  0  0  0  0  0  0  0  # atno 17370 bound_to 10713
  156.6976  130.8920  151.3595 LP  0  0  0  0  0  0  0  0  0  0  0  0  # atno 17371 bound_to 10713
  141.0286  134.0788  157.4040 LP  0  0  0  0  0  0  0  0  0  0  0  0  # atno 17394 bound_to 11000
  139.8940  135.0133  156.6927 LP  0  0  0  0  0  0  0  0  0  0  0  0  # atno 17395 bound_to 11000

$$$$
