AV-unprocessed.smi:1218|AV-procd|sdf|5108|dock3
  -GOLD-   22720 4163D 1   1.00000     0.00000
 Structure written by MMmdl.
 45 46  0  0  0  0  0  0  0  0  2 V2000
  145.8660  129.4183  151.7893 C   0  0  0  0  0  0  0  0  0  0  0  0
  146.8214  130.3043  152.6062 C   0  0  0  0  0  0  0  0  0  0  0  0
  146.8916  129.8167  154.0610 C   0  0  0  0  0  0  0  0  0  0  0  0
  146.4153  131.7932  152.5534 C   0  0  0  0  0  0  0  0  0  0  0  0
  146.6073  132.4053  151.2100 N   0  3  1  0  0  0  0  0  0  0  0  0
  145.6134  131.9538  150.2057 C   0  0  0  0  0  0  0  0  0  0  0  0
  144.2647  132.6705  150.3974 C   0  0  0  0  0  0  0  0  0  0  0  0
  144.4638  134.0772  150.3300 O   0  0  0  0  0  0  0  0  0  0  0  0
  145.3237  134.5567  151.3598 C   0  0  2  0  0  0  0  0  0  0  0  0
  145.4180  136.0883  151.2409 C   0  0  0  0  0  0  0  0  0  0  0  0
  146.4135  136.6485  152.1485 N   0  0  0  0  0  0  0  0  0  0  0  0
  146.1510  137.5144  153.1394 C   0  0  0  0  0  0  0  0  0  0  0  0
  145.0202  137.9433  153.3742 O   0  0  0  0  0  0  0  0  0  0  0  0
  147.3501  137.9497  153.9894 C   0  0  0  0  0  0  0  0  0  0  0  0
  147.5378  139.3912  153.9864 N   0  0  0  0  0  0  0  0  0  0  0  0
  146.9090  140.3370  153.2029 C   0  0  0  0  0  0  0  0  0  0  0  0
  147.4124  141.5566  153.5543 C   0  0  0  0  0  0  0  0  0  0  0  0
  148.3574  141.2510  154.5735 C   0  0  0  0  0  0  0  0  0  0  0  0
  148.4312  139.9547  154.8288 N   0  0  0  0  0  0  0  0  0  0  0  0
  146.7076  133.8878  151.2049 C   0  0  0  0  0  0  0  0  0  0  0  0
  144.8437  129.4867  152.1626 H   0  0  0  0  0  0  0  0  0  0  0  0
  146.1664  128.3711  151.8373 H   0  0  0  0  0  0  0  0  0  0  0  0
  145.8565  129.7034  150.7370 H   0  0  0  0  0  0  0  0  0  0  0  0
  147.8220  130.1886  152.1914 H   0  0  0  0  0  0  0  0  0  0  0  0
  145.9217  129.8929  154.5536 H   0  0  0  0  0  0  0  0  0  0  0  0
  147.6055  130.4043  154.6392 H   0  0  0  0  0  0  0  0  0  0  0  0
  147.2098  128.7750  154.1120 H   0  0  0  0  0  0  0  0  0  0  0  0
  145.3638  131.8655  152.8351 H   0  0  0  0  0  0  0  0  0  0  0  0
  146.9629  132.3617  153.3048 H   0  0  0  0  0  0  0  0  0  0  0  0
  146.0030  132.1804  149.2122 H   0  0  0  0  0  0  0  0  0  0  0  0
  145.4887  130.8712  150.2439 H   0  0  0  0  0  0  0  0  0  0  0  0
  143.5704  132.3775  149.6098 H   0  0  0  0  0  0  0  0  0  0  0  0
  143.7999  132.3980  151.3462 H   0  0  0  0  0  0  0  0  0  0  0  0
  144.8984  134.3040  152.3316 H   0  0  0  0  0  0  0  0  0  0  0  0
  145.6624  136.3743  150.2163 H   0  0  0  0  0  0  0  0  0  0  0  0
  144.4524  136.5427  151.4656 H   0  0  0  0  0  0  0  0  0  0  0  0
  147.3685  136.3453  152.0223 H   0  0  0  0  0  0  0  0  0  0  0  0
  147.2082  137.6031  155.0143 H   0  0  0  0  0  0  0  0  0  0  0  0
  148.2642  137.4854  153.6165 H   0  0  0  0  0  0  0  0  0  0  0  0
  146.1638  140.0656  152.4696 H   0  0  0  0  0  0  0  0  0  0  0  0
  147.1470  142.5204  153.1457 H   0  0  0  0  0  0  0  0  0  0  0  0
  148.9882  141.9275  155.1310 H   0  0  0  0  0  0  0  0  0  0  0  0
  147.3909  134.2384  151.9771 H   0  0  0  0  0  0  0  0  0  0  0  0
  147.1485  134.1898  150.2539 H   0  0  0  0  0  0  0  0  0  0  0  0
  147.4990  132.0545  150.8901 H   0  0  0  0  0  0  0  0  0  0  0  0
  1  2  1  0  0  0  0
  1 21  1  0  0  0  0
  1 22  1  0  0  0  0
  1 23  1  0  0  0  0
  2  3  1  0  0  0  0
  2  4  1  0  0  0  0
  2 24  1  0  0  0  0
  3 25  1  0  0  0  0
  3 26  1  0  0  0  0
  3 27  1  0  0  0  0
  4  5  1  0  0  0  0
  4 28  1  0  0  0  0
  4 29  1  0  0  0  0
  5 20  1  0  0  0  0
  5  6  1  0  0  0  0
  5 45  1  0  0  0  0
  6  7  1  0  0  0  0
  6 30  1  0  0  0  0
  6 31  1  0  0  0  0
  7  8  1  0  0  0  0
  7 32  1  0  0  0  0
  7 33  1  0  0  0  0
  8  9  1  0  0  0  0
  9 10  1  0  0  0  0
  9 20  1  0  0  0  0
  9 34  1  0  0  0  0
 10 11  1  0  0  0  0
 10 35  1  0  0  0  0
 10 36  1  0  0  0  0
 11 12  1  0  0  0  0
 11 37  1  0  0  0  0
 12 13  2  0  0  0  0
 12 14  1  0  0  0  0
 14 15  1  0  0  0  0
 14 38  1  0  0  0  0
 14 39  1  0  0  0  0
 15 19  1  0  0  0  0
 15 16  1  0  0  0  0
 16 17  2  0  0  0  0
 16 40  1  0  0  0  0
 17 18  1  0  0  0  0
 17 41  1  0  0  0  0
 18 19  2  0  0  0  0
 18 42  1  0  0  0  0
 20 43  1  0  0  0  0
 20 44  1  0  0  0  0
M  CHG  1   5   1
M  END
> <s_m_source_file>
AV-unprocessed.smi

> <i_m_source_file_index>
1218

> <i_lp_mmshare_version>
43012

> <i_f3d_flags>
0

> <s_epik_input>
W0NIM11bQ0hdKFtDSDNdKVtDSDJdTjFbQ0gyXVtDSDJdT1tDQEhdKFtDSDJdMSlbQ0gyXVtOSF1DKD1PKVtDSDJdbjJbY0hdW2NIXVtjSF1uMg==

> <s_epik_cmdline>
J2VwaWtfcHl0aG9uJywgJy1waCcsICc3LjAnLCAnLXRuJywgJzgnLCAnLW1hJywgJzIwMCcsICctbWV0YWxfYmluZGluZycsICctaW1hZScsICc8aW5maWxlLm1hZT4nLCAnLW9tYWUnLCAnPG91dGZpbGUubWFlPic=

> <r_lp_tautomer_probability>
1

> <r_epik_Ionization_Penalty>
0.0995066

> <r_epik_Ionization_Penalty_Charging>
0.0994921

> <r_epik_Ionization_Penalty_Neutral>
1.44634e-05

> <r_epik_State_Penalty>
0.0895432

> <r_epik_Charging_Adjusted_Penalty>
0.189035

> <i_epik_Tot_Q>
1

> <i_epik_Tot_abs_Q>
1

> <r_epik_Metal_State_Penalty>
0.0895432

> <b_epik_Metal_Only>
0

> <s_lp_Force_Field>
OPLS_2005

> <r_lp_Energy>
21.49

> <b_lp_Chiralities_Consistent>
1

> <s_lp_Variant>
AV-unprocessed.smi:1218-3

> <Gold.Version>
5.8.1

> <Gold.Id.Protein>
6NUR|6NUR_protein|mol2

> <Gold.PLP.Fitness>
42.1424

> <Gold.PLP.PLP>
-32.9546

> <Gold.PLP.part.hbond>
-2.0000

> <Gold.PLP.part.metal>
0.0000

> <Gold.PLP.part.buried>
-5.6268

> <Gold.PLP.part.nonpolar>
-26.2153

> <Gold.PLP.part.repulsive>
1.4626

> <Gold.PLP.ligand.clash>
0.0000

> <Gold.PLP.ligand.torsion>
0.3149

> <Gold.PLP.Chemscore.Hbond>
2.0000

> <Gold.PLP.Chemscore.CHOScore>
1.2317

> <Gold.PLP.Chemscore.Metal>
0.0000

> <Gold.Chemscore.Hbonds>
donor molecule, donor type, donor heavy atom, donor atom, acceptor molecule, acceptor atom, score
      L1  H     5    45       P1 10747  1.00
      L1  H    11    37       P1  7948  1.00
      L1  C    16    40       P1 10175  1.00
      L1  C    18    42       P1  8028  0.24

> <Gold.PLP.Chemscore.Internal.Correction>
0.1225

> <Gold.Rescore>
     Score         DG    S(hbond)    S(metal)    S(lipo)     H(rot)  DE(clash)    DE(int)     intcor
     16.92     -17.55       1.96        0.00      90.00       1.96       0.16       0.47       ----

> <Gold.Chemscore.Fitness>
16.9162

> <Gold.Chemscore.DG>
-17.5459

> <Gold.Chemscore.ZeroCoef>
-5.4800

> <Gold.Chemscore.Hbond>
1.9639

> <Gold.Chemscore.Metal>
0.0000

> <Gold.Chemscore.Lipo>
90.0030

> <Gold.Chemscore.Internal_Hbond>
0.0000

> <Gold.Chemscore.DEClash>
0.1585

> <Gold.Chemscore.DEInternal>
0.4712

> <Gold.Chemscore.Rot>
1.9624

> <Gold.Chemscore.Internal.Correction>
   9.000000E+99

> <Gold.Chemscore.Hbonds>
donor molecule, donor type, donor heavy atom, donor atom, acceptor molecule, acceptor atom, score
      L1  H     5    45       P1 10747  0.97
      L1  H    11    37       P1  7948  0.97

> <Gold.Chemscore.Hbond.Weighted>
-6.5593

> <Gold.Chemscore.Metal.Weighted>
-0.0000

> <Gold.Chemscore.Lipo.Weighted>
-10.5303

> <Gold.Chemscore.Internal_Hbond.Weighted>
0.0000

> <Gold.Chemscore.DEClash.Weighted>
0.1585

> <Gold.Chemscore.DEInternal.Weighted>
0.4712

> <Gold.Chemscore.Rot.Weighted>
5.0237

> <Gold.Chemscore.Internal.Correction.Weighted>
   9.000000E+99

> <Gold.Protein.RotatedTorsions>
[ 6907 6896 6895 6894 ] final   70.25 input  -60.11 | X-H torsion
[ 7974 7965 7964 7962 ] final  -55.64 input  175.53 | X-H torsion
[ 8008 7997 7996 7995 ] final  -64.70 input   59.86 | X-H torsion
[ 10167 10162 10161 10158 ] final  -94.39 input  -65.29 | X-H torsion
[ 10718 10713 10712 10709 ] final  -12.78 input   66.30 | X-H torsion
[ 10763 10752 10751 10750 ] final -137.18 input  -60.55 | X-H torsion
[ 11005 11000 10999 10996 ] final  109.36 input  -57.11 | X-H torsion

> <Gold.Protein.ActiveResidues>
 VAL166  LYS551  ARG553  GLY616  TRP617  ASP618  TYR619  PRO620  LYS621  CYS622 
 ASP623  PHE694  ASN695  SER759  ASP760  ASP761  ALA762  ILE779  LEU786  VAL792 
 PHE793  MET794  SER795  GLU796  ALA797  LYS798  CYS799  TRP800  GLU811  SER814 

> <Gold.Protein.RotatedAtoms>
  152.4737  134.4896  159.9690 H   0  0  0  0  0  0  0  0  0  0  0  0  # atno 6907 bound_to 6896
  151.4917  133.3517  159.2862 H   0  0  0  0  0  0  0  0  0  0  0  0  # atno 6908 bound_to 6896
  150.8763  134.8173  159.7253 H   0  0  0  0  0  0  0  0  0  0  0  0  # atno 6909 bound_to 6896
  145.8718  140.8210  142.9884 H   0  0  0  0  0  0  0  0  0  0  0  0  # atno 7974 bound_to 7965
  154.4627  140.0948  156.6937 H   0  0  0  0  0  0  0  0  0  0  0  0  # atno 8008 bound_to 7997
  155.4947  140.3472  155.4342 H   0  0  0  0  0  0  0  0  0  0  0  0  # atno 8009 bound_to 7997
  156.0900  140.1395  156.9592 H   0  0  0  0  0  0  0  0  0  0  0  0  # atno 8010 bound_to 7997
  140.3149  143.3083  152.0108 H   0  0  0  0  0  0  0  0  0  0  0  0  # atno 10167 bound_to 10162
  156.6397  130.4924  149.6099 H   0  0  0  0  0  0  0  0  0  0  0  0  # atno 10718 bound_to 10713
  154.8667  135.3650  154.5181 H   0  0  0  0  0  0  0  0  0  0  0  0  # atno 10763 bound_to 10752
  153.5812  135.7018  153.5467 H   0  0  0  0  0  0  0  0  0  0  0  0  # atno 10764 bound_to 10752
  153.3455  135.4086  155.1568 H   0  0  0  0  0  0  0  0  0  0  0  0  # atno 10765 bound_to 10752
  139.8860  134.9456  156.6113 H   0  0  0  0  0  0  0  0  0  0  0  0  # atno 11005 bound_to 11000
  144.6726  140.1250  143.7447 LP  0  0  0  0  0  0  0  0  0  0  0  0  # atno 17320 bound_to 7965
  145.9128  139.2497  143.1427 LP  0  0  0  0  0  0  0  0  0  0  0  0  # atno 17321 bound_to 7965
  139.4886  144.6356  151.6983 LP  0  0  0  0  0  0  0  0  0  0  0  0  # atno 17342 bound_to 10162
  140.5535  144.0386  150.6137 LP  0  0  0  0  0  0  0  0  0  0  0  0  # atno 17343 bound_to 10162
  156.2169  130.6713  151.1328 LP  0  0  0  0  0  0  0  0  0  0  0  0  # atno 17370 bound_to 10713
  157.7175  131.0701  150.6270 LP  0  0  0  0  0  0  0  0  0  0  0  0  # atno 17371 bound_to 10713
  140.7809  133.8661  155.8567 LP  0  0  0  0  0  0  0  0  0  0  0  0  # atno 17394 bound_to 11000
  140.9761  134.1467  157.4535 LP  0  0  0  0  0  0  0  0  0  0  0  0  # atno 17395 bound_to 11000

$$$$
