AV-unprocessed.smi:1805|AV-procd|sdf|7297|dock1
  -GOLD-   22720 8553D 1   1.00000     0.00000
 Structure written by MMmdl.
 29 30  0  0  0  0  0  0  0  0  1 V2000
  153.0890  139.8610  156.7958 O   0  0  0  0  0  0  0  0  0  0  0  0
  151.9974  140.4303  156.7845 C   0  0  0  0  0  0  0  0  0  0  0  0
  151.7370  141.5524  157.4699 N   0  0  0  0  0  0  0  0  0  0  0  0
  152.6866  142.2499  158.3298 C   0  0  0  0  0  0  0  0  0  0  0  0
  151.9711  143.1985  159.3053 C   0  0  2  0  0  0  0  0  0  0  0  0
  151.4258  144.4643  158.6453 C   0  0  0  0  0  0  0  0  0  0  0  0
  151.3949  145.4793  159.7785 C   0  0  0  0  0  0  0  0  0  0  0  0
  152.2253  144.8281  160.8878 C   0  0  0  0  0  0  0  0  0  0  0  0
  152.8718  143.7280  160.2651 O   0  0  0  0  0  0  0  0  0  0  0  0
  150.9205  140.0205  156.0944 N   0  0  0  0  0  0  0  0  0  0  0  0
  150.8192  138.8856  155.2505 C   0  0  0  0  0  0  0  0  0  0  0  0
  151.7818  137.8424  155.1780 C   0  0  0  0  0  0  0  0  0  0  0  0
  151.4223  136.9124  154.3048 N   0  0  0  0  0  0  0  0  0  0  0  0
  150.2393  137.3521  153.8193 N   0  0  0  0  0  0  0  0  0  0  0  0
  149.8331  138.5495  154.3660 C   0  0  0  0  0  0  0  0  0  0  0  0
  149.7266  136.8298  153.1232 H   0  0  0  0  0  0  0  0  0  0  0  0
  150.8117  141.9492  157.3993 H   0  0  0  0  0  0  0  0  0  0  0  0
  153.3186  141.5424  158.8694 H   0  0  0  0  0  0  0  0  0  0  0  0
  153.3505  142.8257  157.6846 H   0  0  0  0  0  0  0  0  0  0  0  0
  151.1642  142.6763  159.8233 H   0  0  0  0  0  0  0  0  0  0  0  0
  152.1094  144.8096  157.8683 H   0  0  0  0  0  0  0  0  0  0  0  0
  150.4487  144.3096  158.1870 H   0  0  0  0  0  0  0  0  0  0  0  0
  151.8277  146.4276  159.4586 H   0  0  0  0  0  0  0  0  0  0  0  0
  150.3774  145.6726  160.1201 H   0  0  0  0  0  0  0  0  0  0  0  0
  152.9498  145.5137  161.3278 H   0  0  0  0  0  0  0  0  0  0  0  0
  151.5782  144.4584  161.6844 H   0  0  0  0  0  0  0  0  0  0  0  0
  150.0857  140.5820  156.1780 H   0  0  0  0  0  0  0  0  0  0  0  0
  152.7101  137.7310  155.7189 H   0  0  0  0  0  0  0  0  0  0  0  0
  148.9095  139.0314  154.0815 H   0  0  0  0  0  0  0  0  0  0  0  0
  1  2  2  0  0  0  0
  2  3  1  0  0  0  0
  2 10  1  0  0  0  0
  3  4  1  0  0  0  0
  3 17  1  0  0  0  0
  4  5  1  0  0  0  0
  4 18  1  0  0  0  0
  4 19  1  0  0  0  0
  5  9  1  0  0  0  0
  5  6  1  0  0  0  0
  5 20  1  0  0  0  0
  6  7  1  0  0  0  0
  6 21  1  0  0  0  0
  6 22  1  0  0  0  0
  7  8  1  0  0  0  0
  7 23  1  0  0  0  0
  7 24  1  0  0  0  0
  8  9  1  0  0  0  0
  8 25  1  0  0  0  0
  8 26  1  0  0  0  0
 10 11  1  0  0  0  0
 10 27  1  0  0  0  0
 11 15  2  0  0  0  0
 11 12  1  0  0  0  0
 12 13  2  0  0  0  0
 12 28  1  0  0  0  0
 13 14  1  0  0  0  0
 14 16  1  0  0  0  0
 14 15  1  0  0  0  0
 15 29  1  0  0  0  0
M  END
> <s_m_source_file>
AV-unprocessed.smi

> <i_m_source_file_index>
1805

> <i_lp_mmshare_version>
43012

> <i_f3d_flags>
0

> <s_epik_input>
W2NIXTFbbkhdbltjSF1jMVtOSF1DKD1PKVtOSF1bQ0gyXVtDQEBIXTJbQ0gyXVtDSDJdW0NIMl1PMg==

> <s_epik_cmdline>
J2VwaWtfcHl0aG9uJywgJy1waCcsICc3LjAnLCAnLXRuJywgJzgnLCAnLW1hJywgJzIwMCcsICctbWV0YWxfYmluZGluZycsICctaW1hZScsICc8aW5maWxlLm1hZT4nLCAnLW9tYWUnLCAnPG91dGZpbGUubWFlPic=

> <r_lp_tautomer_probability>
1

> <r_epik_Ionization_Penalty>
4.81496e-05

> <r_epik_Ionization_Penalty_Charging>
0

> <r_epik_Ionization_Penalty_Neutral>
4.81496e-05

> <r_epik_State_Penalty>
-0

> <r_epik_Charging_Adjusted_Penalty>
0

> <i_epik_Tot_Q>
0

> <i_epik_Tot_abs_Q>
0

> <r_epik_Metal_State_Penalty>
-0

> <b_epik_Metal_Only>
0

> <s_lp_Force_Field>
OPLS_2005

> <r_lp_Energy>
19.369

> <b_lp_Chiralities_Consistent>
1

> <s_lp_Variant>
AV-unprocessed.smi:1805-1

> <Gold.Version>
5.8.1

> <Gold.Id.Protein>
6NUR|6NUR_protein|mol2

> <Gold.PLP.Fitness>
40.8388

> <Gold.PLP.PLP>
-30.5953

> <Gold.PLP.part.hbond>
-4.0000

> <Gold.PLP.part.metal>
0.0000

> <Gold.PLP.part.buried>
-3.3569

> <Gold.PLP.part.nonpolar>
-23.8639

> <Gold.PLP.part.repulsive>
0.4937

> <Gold.PLP.ligand.clash>
0.0000

> <Gold.PLP.ligand.torsion>
0.2255

> <Gold.PLP.Chemscore.Hbond>
2.6000

> <Gold.PLP.Chemscore.CHOScore>
0.9612

> <Gold.PLP.Chemscore.Metal>
0.0000

> <Gold.Chemscore.Hbonds>
donor molecule, donor type, donor heavy atom, donor atom, acceptor molecule, acceptor atom, score
      L1  H    14    16       P1  7948  1.00
      P1  H  7997  8010       L1     1  0.56
      P1  H 10752 10765       L1    13  1.00

> <Gold.PLP.Chemscore.Internal.Correction>
0.0108

> <Gold.Rescore>
     Score         DG    S(hbond)    S(metal)    S(lipo)     H(rot)  DE(clash)    DE(int)     intcor
     15.76     -17.29       1.95        0.00      74.48       1.33       0.03       1.49       ----

> <Gold.Chemscore.Fitness>
15.7588

> <Gold.Chemscore.DG>
-17.2874

> <Gold.Chemscore.ZeroCoef>
-5.4800

> <Gold.Chemscore.Hbond>
1.9459

> <Gold.Chemscore.Metal>
0.0000

> <Gold.Chemscore.Lipo>
74.4805

> <Gold.Chemscore.Internal_Hbond>
0.0000

> <Gold.Chemscore.DEClash>
0.0346

> <Gold.Chemscore.DEInternal>
1.4941

> <Gold.Chemscore.Rot>
1.3306

> <Gold.Chemscore.Internal.Correction>
   9.000000E+99

> <Gold.Chemscore.Hbonds>
donor molecule, donor type, donor heavy atom, donor atom, acceptor molecule, acceptor atom, score
      L1  H    14    16       P1  7948  0.33
      P1  H  7997  8010       L1     1  0.53
      P1  H 10752 10765       L1    13  0.44

> <Gold.Chemscore.Hbond.Weighted>
-6.4994

> <Gold.Chemscore.Metal.Weighted>
-0.0000

> <Gold.Chemscore.Lipo.Weighted>
-8.7142

> <Gold.Chemscore.Internal_Hbond.Weighted>
0.0000

> <Gold.Chemscore.DEClash.Weighted>
0.0346

> <Gold.Chemscore.DEInternal.Weighted>
1.4941

> <Gold.Chemscore.Rot.Weighted>
3.4063

> <Gold.Chemscore.Internal.Correction.Weighted>
   9.000000E+99

> <Gold.Protein.RotatedTorsions>
[ 6907 6896 6895 6894 ] final  -44.64 input  -60.11 | X-H torsion
[ 7974 7965 7964 7962 ] final  151.96 input  175.53 | X-H torsion
[ 8008 7997 7996 7995 ] final   31.82 input   59.86 | X-H torsion
[ 10167 10162 10161 10158 ] final -104.45 input  -65.29 | X-H torsion
[ 10718 10713 10712 10709 ] final  160.29 input   66.30 | X-H torsion
[ 10763 10752 10751 10750 ] final  161.42 input  -60.55 | X-H torsion
[ 11005 11000 10999 10996 ] final  -62.24 input  -57.11 | X-H torsion

> <Gold.Protein.ActiveResidues>
 VAL166  LYS551  ARG553  GLY616  TRP617  ASP618  TYR619  PRO620  LYS621  CYS622 
 ASP623  PHE694  ASN695  SER759  ASP760  ASP761  ALA762  ILE779  LEU786  VAL792 
 PHE793  MET794  SER795  GLU796  ALA797  LYS798  CYS799  TRP800  GLU811  SER814 

> <Gold.Protein.RotatedAtoms>
  150.9306  134.8721  159.7548 H   0  0  0  0  0  0  0  0  0  0  0  0  # atno 6907 bound_to 6896
  152.5036  134.4085  159.9450 H   0  0  0  0  0  0  0  0  0  0  0  0  # atno 6908 bound_to 6896
  151.4112  133.3687  159.2779 H   0  0  0  0  0  0  0  0  0  0  0  0  # atno 6909 bound_to 6896
  144.8256  139.6605  143.6081 H   0  0  0  0  0  0  0  0  0  0  0  0  # atno 7974 bound_to 7965
  155.1125  140.3240  155.4518 H   0  0  0  0  0  0  0  0  0  0  0  0  # atno 8008 bound_to 7997
  156.2686  140.2041  156.6197 H   0  0  0  0  0  0  0  0  0  0  0  0  # atno 8009 bound_to 7997
  154.6745  140.0533  157.0188 H   0  0  0  0  0  0  0  0  0  0  0  0  # atno 8010 bound_to 7997
  140.2091  143.3760  152.1065 H   0  0  0  0  0  0  0  0  0  0  0  0  # atno 10167 bound_to 10162
  157.1524  131.0567  151.2273 H   0  0  0  0  0  0  0  0  0  0  0  0  # atno 10718 bound_to 10713
  154.2626  135.2768  155.2771 H   0  0  0  0  0  0  0  0  0  0  0  0  # atno 10763 bound_to 10752
  154.5370  135.5713  153.6811 H   0  0  0  0  0  0  0  0  0  0  0  0  # atno 10764 bound_to 10752
  152.9959  135.6242  154.2777 H   0  0  0  0  0  0  0  0  0  0  0  0  # atno 10765 bound_to 10752
  141.1353  133.6638  156.5498 H   0  0  0  0  0  0  0  0  0  0  0  0  # atno 11005 bound_to 11000
  146.2561  139.6305  142.9394 LP  0  0  0  0  0  0  0  0  0  0  0  0  # atno 17320 bound_to 7965
  145.5008  141.0437  143.2541 LP  0  0  0  0  0  0  0  0  0  0  0  0  # atno 17321 bound_to 7965
  139.5187  144.7009  151.5496 LP  0  0  0  0  0  0  0  0  0  0  0  0  # atno 17342 bound_to 10162
  140.6336  143.9028  150.6627 LP  0  0  0  0  0  0  0  0  0  0  0  0  # atno 17343 bound_to 10162
  157.4208  130.7436  149.6912 LP  0  0  0  0  0  0  0  0  0  0  0  0  # atno 17370 bound_to 10713
  155.9768  130.4071  150.3754 LP  0  0  0  0  0  0  0  0  0  0  0  0  # atno 17371 bound_to 10713
  140.4073  134.7304  157.4815 LP  0  0  0  0  0  0  0  0  0  0  0  0  # atno 17394 bound_to 11000
  140.0453  134.6209  155.8929 LP  0  0  0  0  0  0  0  0  0  0  0  0  # atno 17395 bound_to 11000

$$$$
