AV-unprocessed.smi:2504|AV-procd|sdf|9852|dock5
  -GOLD-   2272013483D 1   1.00000     0.00000
 Structure written by MMmdl.
 46 48  0  0  0  0  0  0  0  0  3 V2000
  153.4174  142.8398  159.3454 O   0  0  0  0  0  0  0  0  0  0  0  0
  152.4459  142.7979  158.5897 C   0  0  0  0  0  0  0  0  0  0  0  0
  151.5751  144.0500  158.3554 C   0  0  0  0  0  0  0  0  0  0  0  0
  152.2257  145.3175  158.9284 C   0  0  0  0  0  0  0  0  0  0  0  0
  151.7622  145.3865  160.3847 C   0  0  0  0  0  0  0  0  0  0  0  0
  150.3686  144.7484  160.4029 C   0  0  0  0  0  0  0  0  0  0  0  0
  150.2196  143.9735  159.0834 C   0  0  0  0  0  0  0  0  0  0  0  0
  152.1448  141.6474  157.8566 N   0  0  0  0  0  0  0  0  0  0  0  0
  150.8036  141.3860  157.3507 C   0  0  0  0  0  0  0  0  0  0  0  0
  151.1316  139.8977  157.5420 C   0  0  0  0  0  0  0  0  0  0  0  0
  151.5370  138.9508  155.9926 S   0  0  0  0  0  0  0  0  0  0  0  0
  151.1501  139.8389  154.8835 O   0  0  0  0  0  0  0  0  0  0  0  0
  152.9585  138.5866  156.0993 O   0  0  0  0  0  0  0  0  0  0  0  0
  150.5709  137.6540  156.1132 N   0  5  0  0  0  0  0  0  0  0  0  0
  150.7938  136.4916  155.2735 C   0  0  0  0  0  0  0  0  0  0  0  0
  150.8471  135.2231  156.1532 C   0  0  0  0  0  0  0  0  0  0  0  0
  150.2655  133.9755  155.4931 C   0  0  0  0  0  0  0  0  0  0  0  0
  149.5481  134.0737  154.2773 C   0  0  0  0  0  0  0  0  0  0  0  0
  149.0317  132.9065  153.6789 C   0  0  0  0  0  0  0  0  0  0  0  0
  149.2411  131.6631  154.3081 C   0  0  0  0  0  0  0  0  0  0  0  0
  149.9242  131.6053  155.4722 N   0  3  0  0  0  0  0  0  0  0  0  0
  150.4318  132.7001  156.0794 C   0  0  0  0  0  0  0  0  0  0  0  0
  152.3589  140.3012  158.3700 C   0  0  0  0  0  0  0  0  0  0  0  0
  151.4013  144.1618  157.2845 H   0  0  0  0  0  0  0  0  0  0  0  0
  153.3138  145.3198  158.8507 H   0  0  0  0  0  0  0  0  0  0  0  0
  151.8612  146.1896  158.3842 H   0  0  0  0  0  0  0  0  0  0  0  0
  152.4386  144.8039  161.0114 H   0  0  0  0  0  0  0  0  0  0  0  0
  151.7589  146.4063  160.7705 H   0  0  0  0  0  0  0  0  0  0  0  0
  150.2554  144.0920  161.2661 H   0  0  0  0  0  0  0  0  0  0  0  0
  149.5964  145.5151  160.4752 H   0  0  0  0  0  0  0  0  0  0  0  0
  149.4511  144.4453  158.4700 H   0  0  0  0  0  0  0  0  0  0  0  0
  149.8908  142.9477  159.2581 H   0  0  0  0  0  0  0  0  0  0  0  0
  150.0130  141.7340  158.0178 H   0  0  0  0  0  0  0  0  0  0  0  0
  150.6461  141.7053  156.3202 H   0  0  0  0  0  0  0  0  0  0  0  0
  150.3842  139.3592  158.1248 H   0  0  0  0  0  0  0  0  0  0  0  0
  150.0019  136.3664  154.5344 H   0  0  0  0  0  0  0  0  0  0  0  0
  151.7223  136.5748  154.7087 H   0  0  0  0  0  0  0  0  0  0  0  0
  151.8829  135.0183  156.4255 H   0  0  0  0  0  0  0  0  0  0  0  0
  150.3234  135.4045  157.0931 H   0  0  0  0  0  0  0  0  0  0  0  0
  149.4075  135.0332  153.8005 H   0  0  0  0  0  0  0  0  0  0  0  0
  148.4864  132.9656  152.7490 H   0  0  0  0  0  0  0  0  0  0  0  0
  148.8855  130.7205  153.9182 H   0  0  0  0  0  0  0  0  0  0  0  0
  150.9636  132.5242  157.0031 H   0  0  0  0  0  0  0  0  0  0  0  0
  153.3014  139.8559  158.0492 H   0  0  0  0  0  0  0  0  0  0  0  0
  152.1932  140.2056  159.4438 H   0  0  0  0  0  0  0  0  0  0  0  0
  150.0657  130.6953  155.9109 H   0  0  0  0  0  0  0  0  0  0  0  0
  1  2  2  0  0  0  0
  2  3  1  0  0  0  0
  2  8  1  0  0  0  0
  3  7  1  0  0  0  0
  3  4  1  0  0  0  0
  3 24  1  0  0  0  0
  4  5  1  0  0  0  0
  4 25  1  0  0  0  0
  4 26  1  0  0  0  0
  5  6  1  0  0  0  0
  5 27  1  0  0  0  0
  5 28  1  0  0  0  0
  6  7  1  0  0  0  0
  6 29  1  0  0  0  0
  6 30  1  0  0  0  0
  7 31  1  0  0  0  0
  7 32  1  0  0  0  0
  8 23  1  0  0  0  0
  8  9  1  0  0  0  0
  9 10  1  0  0  0  0
  9 33  1  0  0  0  0
  9 34  1  0  0  0  0
 10 11  1  0  0  0  0
 10 23  1  0  0  0  0
 10 35  1  0  0  0  0
 11 12  2  0  0  0  0
 11 13  2  0  0  0  0
 11 14  1  0  0  0  0
 14 15  1  0  0  0  0
 15 16  1  0  0  0  0
 15 36  1  0  0  0  0
 15 37  1  0  0  0  0
 16 17  1  0  0  0  0
 16 38  1  0  0  0  0
 16 39  1  0  0  0  0
 17 22  1  0  0  0  0
 17 18  2  0  0  0  0
 18 19  1  0  0  0  0
 18 40  1  0  0  0  0
 19 20  2  0  0  0  0
 19 41  1  0  0  0  0
 20 21  1  0  0  0  0
 20 42  1  0  0  0  0
 21 22  2  0  0  0  0
 21 46  1  0  0  0  0
 22 43  1  0  0  0  0
 23 44  1  0  0  0  0
 23 45  1  0  0  0  0
M  CHG  1  14  -1
M  CHG  1  21   1
M  END
> <s_m_source_file>
AV-unprocessed.smi

> <i_m_source_file_index>
2504

> <i_lp_mmshare_version>
43012

> <i_f3d_flags>
0

> <s_epik_input>
W0NIMl0xW0NIMl1bQ0gyXVtDSDJdW0NIXTFDKD1PKU4yW0NIMl1bQ0hdKFtDSDJdMilTKD1PKSg9TylbTkhdW0NIMl1bQ0gyXWMzW2NIXVtjSF1bY0hdbltjSF0z

> <s_epik_cmdline>
J2VwaWtfcHl0aG9uJywgJy1waCcsICc3LjAnLCAnLXRuJywgJzgnLCAnLW1hJywgJzIwMCcsICctbWV0YWxfYmluZGluZycsICctaW1hZScsICc8aW5maWxlLm1hZT4nLCAnLW9tYWUnLCAnPG91dGZpbGUubWFlPic=

> <r_epik_Ionization_Penalty>
7.23206

> <r_epik_Ionization_Penalty_Charging>
7.23206

> <r_epik_Ionization_Penalty_Neutral>
2.37876e-07

> <r_epik_State_Penalty>
7.91796

> <r_epik_Charging_Adjusted_Penalty>
15.15

> <i_epik_Tot_Q>
0

> <i_epik_Tot_abs_Q>
2

> <r_epik_Metal_State_Penalty>
3.92928

> <b_epik_Metal_Only>
1

> <s_lp_Force_Field>
OPLS_2005

> <r_lp_Energy>
37.1942

> <b_lp_Chiralities_Consistent>
1

> <s_lp_Variant>
AV-unprocessed.smi:2504-4

> <Gold.Version>
5.8.1

> <Gold.Id.Protein>
6NUR|6NUR_protein|mol2

> <Gold.PLP.Fitness>
50.0460

> <Gold.PLP.PLP>
-45.6635

> <Gold.PLP.part.hbond>
-2.0000

> <Gold.PLP.part.metal>
0.0000

> <Gold.PLP.part.buried>
-8.1951

> <Gold.PLP.part.nonpolar>
-35.6521

> <Gold.PLP.part.repulsive>
0.0704

> <Gold.PLP.ligand.clash>
0.0000

> <Gold.PLP.ligand.torsion>
1.9688

> <Gold.PLP.Chemscore.Hbond>
2.0000

> <Gold.PLP.Chemscore.CHOScore>
0.0000

> <Gold.PLP.Chemscore.Metal>
0.0000

> <Gold.Chemscore.Hbonds>
donor molecule, donor type, donor heavy atom, donor atom, acceptor molecule, acceptor atom, score
      P1  H  7989  7998       L1    12  1.00
      P1  H  7997  8008       L1    13  0.91

> <Gold.PLP.Chemscore.Internal.Correction>
2.3199

> <Gold.Rescore>
     Score         DG    S(hbond)    S(metal)    S(lipo)     H(rot)  DE(clash)    DE(int)     intcor
     18.50     -20.65       1.99        0.00     110.29       1.72       0.26       1.89       ----

> <Gold.Chemscore.Fitness>
18.4987

> <Gold.Chemscore.DG>
-20.6490

> <Gold.Chemscore.ZeroCoef>
-5.4800

> <Gold.Chemscore.Hbond>
1.9934

> <Gold.Chemscore.Metal>
0.0000

> <Gold.Chemscore.Lipo>
110.2858

> <Gold.Chemscore.Internal_Hbond>
0.0000

> <Gold.Chemscore.DEClash>
0.2590

> <Gold.Chemscore.DEInternal>
1.8913

> <Gold.Chemscore.Rot>
1.7158

> <Gold.Chemscore.Internal.Correction>
   9.000000E+99

> <Gold.Chemscore.Hbonds>
donor molecule, donor type, donor heavy atom, donor atom, acceptor molecule, acceptor atom, score
      P1  H  7989  7998       L1    12  1.00
      P1  H  7997  8008       L1    13  0.83

> <Gold.Chemscore.Hbond.Weighted>
-6.6579

> <Gold.Chemscore.Metal.Weighted>
-0.0000

> <Gold.Chemscore.Lipo.Weighted>
-12.9034

> <Gold.Chemscore.Internal_Hbond.Weighted>
0.0000

> <Gold.Chemscore.DEClash.Weighted>
0.2590

> <Gold.Chemscore.DEInternal.Weighted>
1.8913

> <Gold.Chemscore.Rot.Weighted>
4.3924

> <Gold.Chemscore.Internal.Correction.Weighted>
   9.000000E+99

> <Gold.Protein.RotatedTorsions>
[ 6907 6896 6895 6894 ] final -165.83 input  -60.11 | X-H torsion
[ 7974 7965 7964 7962 ] final   81.32 input  175.53 | X-H torsion
[ 8008 7997 7996 7995 ] final  -43.86 input   59.86 | X-H torsion
[ 10167 10162 10161 10158 ] final  168.30 input  -65.29 | X-H torsion
[ 10718 10713 10712 10709 ] final   82.02 input   66.30 | X-H torsion
[ 10763 10752 10751 10750 ] final   47.17 input  -60.55 | X-H torsion
[ 11005 11000 10999 10996 ] final  144.70 input  -57.11 | X-H torsion

> <Gold.Protein.ActiveResidues>
 VAL166  LYS551  ARG553  GLY616  TRP617  ASP618  TYR619  PRO620  LYS621  CYS622 
 ASP623  PHE694  ASN695  SER759  ASP760  ASP761  ALA762  ILE779  LEU786  VAL792 
 PHE793  MET794  SER795  GLU796  ALA797  LYS798  CYS799  TRP800  GLU811  SER814 

> <Gold.Protein.RotatedAtoms>
  151.4340  133.3662  159.2772 H   0  0  0  0  0  0  0  0  0  0  0  0  # atno 6907 bound_to 6896
  150.9205  134.8624  159.7496 H   0  0  0  0  0  0  0  0  0  0  0  0  # atno 6908 bound_to 6896
  152.4979  134.4277  159.9554 H   0  0  0  0  0  0  0  0  0  0  0  0  # atno 6909 bound_to 6896
  145.6396  139.2422  143.2038 H   0  0  0  0  0  0  0  0  0  0  0  0  # atno 7974 bound_to 7965
  154.3997  140.1437  156.3588 H   0  0  0  0  0  0  0  0  0  0  0  0  # atno 8008 bound_to 7997
  155.8200  140.3470  155.5488 H   0  0  0  0  0  0  0  0  0  0  0  0  # atno 8009 bound_to 7997
  155.8297  140.0910  157.1790 H   0  0  0  0  0  0  0  0  0  0  0  0  # atno 8010 bound_to 7997
  139.4964  144.3830  151.9602 H   0  0  0  0  0  0  0  0  0  0  0  0  # atno 10167 bound_to 10162
  157.6847  131.0029  150.2312 H   0  0  0  0  0  0  0  0  0  0  0  0  # atno 10718 bound_to 10713
  152.9802  135.5985  154.3719 H   0  0  0  0  0  0  0  0  0  0  0  0  # atno 10763 bound_to 10752
  154.3392  135.2768  155.2433 H   0  0  0  0  0  0  0  0  0  0  0  0  # atno 10764 bound_to 10752
  154.4523  135.5987  153.6255 H   0  0  0  0  0  0  0  0  0  0  0  0  # atno 10765 bound_to 10752
  140.0653  134.9182  157.1254 H   0  0  0  0  0  0  0  0  0  0  0  0  # atno 11005 bound_to 11000
  146.1291  140.7209  142.9421 LP  0  0  0  0  0  0  0  0  0  0  0  0  # atno 17320 bound_to 7965
  144.7162  140.4218  143.7042 LP  0  0  0  0  0  0  0  0  0  0  0  0  # atno 17321 bound_to 7965
  140.3266  144.3365  150.5997 LP  0  0  0  0  0  0  0  0  0  0  0  0  # atno 17342 bound_to 10162
  140.5679  143.2184  151.7651 LP  0  0  0  0  0  0  0  0  0  0  0  0  # atno 17343 bound_to 10162
  156.2944  130.3750  149.7810 LP  0  0  0  0  0  0  0  0  0  0  0  0  # atno 17370 bound_to 10713
  156.5459  130.8320  151.3284 LP  0  0  0  0  0  0  0  0  0  0  0  0  # atno 17371 bound_to 10713
  140.3708  134.2392  155.7178 LP  0  0  0  0  0  0  0  0  0  0  0  0  # atno 17394 bound_to 11000
  141.1990  133.8022  157.0556 LP  0  0  0  0  0  0  0  0  0  0  0  0  # atno 17395 bound_to 11000

$$$$
