AV-unprocessed.smi:2268|AV-procd|sdf|9151|dock4
  -GOLD-   2272012353D 1   1.00000     0.00000
 Structure written by MMmdl.
 37 38  0  0  0  0  0  0  0  0  1 V2000
  153.3243  142.3146  162.7212 C   0  0  0  0  0  0  0  0  0  0  0  0
  152.9434  142.8677  161.3584 C   0  0  0  0  0  0  0  0  0  0  0  0
  152.2318  144.0855  161.2998 C   0  0  0  0  0  0  0  0  0  0  0  0
  151.8701  144.6450  160.0608 C   0  0  0  0  0  0  0  0  0  0  0  0
  151.1891  145.8146  160.0176 F   0  0  0  0  0  0  0  0  0  0  0  0
  152.2211  143.9901  158.8676 C   0  0  0  0  0  0  0  0  0  0  0  0
  152.9287  142.7749  158.9162 C   0  0  0  0  0  0  0  0  0  0  0  0
  153.2898  142.1959  160.1553 C   0  0  0  0  0  0  0  0  0  0  0  0
  154.0656  140.8788  160.1655 C   0  0  1  0  0  0  0  0  0  0  0  0
  155.2922  141.0048  160.8588 O   0  0  0  0  0  0  0  0  0  0  0  0
  153.2304  139.7585  160.8267 C   0  0  0  0  0  0  0  0  0  0  0  0
  153.7792  138.4163  160.5639 N   0  0  0  0  0  0  0  0  0  0  0  0
  153.9819  137.5955  161.6861 C   0  0  0  0  0  0  0  0  0  0  0  0
  154.4517  136.3964  161.5760 N   0  0  0  0  0  0  0  0  0  0  0  0
  154.7724  135.8870  160.3146 C   0  0  0  0  0  0  0  0  0  0  0  0
  155.3168  134.4696  160.2985 C   0  0  0  0  0  0  0  0  0  0  0  0
  154.6008  136.6304  159.1876 C   0  0  0  0  0  0  0  0  0  0  0  0
  154.9341  136.1288  157.7880 C   0  0  0  0  0  0  0  0  0  0  0  0
  154.0672  137.9980  159.2976 C   0  0  0  0  0  0  0  0  0  0  0  0
  153.8892  138.7242  158.3180 O   0  0  0  0  0  0  0  0  0  0  0  0
  153.0841  143.0197  163.5176 H   0  0  0  0  0  0  0  0  0  0  0  0
  154.3945  142.1148  162.7703 H   0  0  0  0  0  0  0  0  0  0  0  0
  152.7853  141.3886  162.9224 H   0  0  0  0  0  0  0  0  0  0  0  0
  151.9612  144.6015  162.2096 H   0  0  0  0  0  0  0  0  0  0  0  0
  151.9498  144.4195  157.9144 H   0  0  0  0  0  0  0  0  0  0  0  0
  153.1967  142.2892  157.9894 H   0  0  0  0  0  0  0  0  0  0  0  0
  154.3246  140.5993  159.1453 H   0  0  0  0  0  0  0  0  0  0  0  0
  155.8653  141.5631  160.3558 H   0  0  0  0  0  0  0  0  0  0  0  0
  153.1090  139.9511  161.8945 H   0  0  0  0  0  0  0  0  0  0  0  0
  152.2122  139.7954  160.4335 H   0  0  0  0  0  0  0  0  0  0  0  0
  153.7136  138.0392  162.6463 H   0  0  0  0  0  0  0  0  0  0  0  0
  154.6741  133.8205  159.7032 H   0  0  0  0  0  0  0  0  0  0  0  0
  155.3710  134.0528  161.3051 H   0  0  0  0  0  0  0  0  0  0  0  0
  156.3211  134.4515  159.8746 H   0  0  0  0  0  0  0  0  0  0  0  0
  155.6885  136.7691  157.3296 H   0  0  0  0  0  0  0  0  0  0  0  0
  154.0442  136.1507  157.1585 H   0  0  0  0  0  0  0  0  0  0  0  0
  155.3190  135.1105  157.7763 H   0  0  0  0  0  0  0  0  0  0  0  0
  1  2  1  0  0  0  0
  1 21  1  0  0  0  0
  1 22  1  0  0  0  0
  1 23  1  0  0  0  0
  2  8  1  0  0  0  0
  2  3  2  0  0  0  0
  3  4  1  0  0  0  0
  3 24  1  0  0  0  0
  4  5  1  0  0  0  0
  4  6  2  0  0  0  0
  6  7  1  0  0  0  0
  6 25  1  0  0  0  0
  7  8  2  0  0  0  0
  7 26  1  0  0  0  0
  8  9  1  0  0  0  0
  9 10  1  0  0  0  0
  9 11  1  0  0  0  0
  9 27  1  0  0  0  0
 10 28  1  0  0  0  0
 11 12  1  0  0  0  0
 11 29  1  0  0  0  0
 11 30  1  0  0  0  0
 12 19  1  0  0  0  0
 12 13  1  0  0  0  0
 13 14  2  0  0  0  0
 13 31  1  0  0  0  0
 14 15  1  0  0  0  0
 15 16  1  0  0  0  0
 15 17  2  0  0  0  0
 16 32  1  0  0  0  0
 16 33  1  0  0  0  0
 16 34  1  0  0  0  0
 17 18  1  0  0  0  0
 17 19  1  0  0  0  0
 18 35  1  0  0  0  0
 18 36  1  0  0  0  0
 18 37  1  0  0  0  0
 19 20  2  0  0  0  0
M  END
> <s_m_source_file>
AV-unprocessed.smi

> <i_m_source_file_index>
2268

> <i_lp_mmshare_version>
43012

> <i_f3d_flags>
0

> <s_epik_input>
W0NIM11jMVtjSF1jKEYpW2NIXVtjSF1jMVtDQEhdKFtPSF0pW0NIMl1uMltjSF1uYyhbQ0gzXSljKFtDSDNdKWMyPU8=

> <s_epik_cmdline>
J2VwaWtfcHl0aG9uJywgJy1waCcsICc3LjAnLCAnLXRuJywgJzgnLCAnLW1hJywgJzIwMCcsICctbWV0YWxfYmluZGluZycsICctaW1hZScsICc8aW5maWxlLm1hZT4nLCAnLW9tYWUnLCAnPG91dGZpbGUubWFlPic=

> <r_lp_tautomer_probability>
1

> <r_epik_Ionization_Penalty>
5.07449e-05

> <r_epik_Ionization_Penalty_Charging>
7.56727e-08

> <r_epik_Ionization_Penalty_Neutral>
5.06692e-05

> <r_epik_State_Penalty>
-0

> <r_epik_Charging_Adjusted_Penalty>
7.56727e-08

> <i_epik_Tot_Q>
0

> <i_epik_Tot_abs_Q>
0

> <r_epik_Metal_State_Penalty>
-0

> <b_epik_Metal_Only>
0

> <s_lp_Force_Field>
OPLS_2005

> <r_lp_Energy>
20.6014

> <b_lp_Chiralities_Consistent>
1

> <s_lp_Variant>
AV-unprocessed.smi:2268-2

> <Gold.Version>
5.8.1

> <Gold.Id.Protein>
6NUR|6NUR_protein|mol2

> <Gold.PLP.Fitness>
43.8926

> <Gold.PLP.PLP>
-41.2470

> <Gold.PLP.part.hbond>
-2.0000

> <Gold.PLP.part.metal>
0.0000

> <Gold.PLP.part.buried>
-2.8534

> <Gold.PLP.part.nonpolar>
-36.3498

> <Gold.PLP.part.repulsive>
0.0000

> <Gold.PLP.ligand.clash>
0.0000

> <Gold.PLP.ligand.torsion>
0.1816

> <Gold.PLP.Chemscore.Hbond>
1.0000

> <Gold.PLP.Chemscore.CHOScore>
0.0000

> <Gold.PLP.Chemscore.Metal>
0.0000

> <Gold.Chemscore.Hbonds>
donor molecule, donor type, donor heavy atom, donor atom, acceptor molecule, acceptor atom, score
      P1  H  7997  8008       L1    20  1.00

> <Gold.PLP.Chemscore.Internal.Correction>
0.0089

> <Gold.Rescore>
     Score         DG    S(hbond)    S(metal)    S(lipo)     H(rot)  DE(clash)    DE(int)     intcor
     13.42     -17.35       1.00        0.00     116.36       1.98       1.89       2.04       ----

> <Gold.Chemscore.Fitness>
13.4184

> <Gold.Chemscore.DG>
-17.3506

> <Gold.Chemscore.ZeroCoef>
-5.4800

> <Gold.Chemscore.Hbond>
0.9975

> <Gold.Chemscore.Metal>
0.0000

> <Gold.Chemscore.Lipo>
116.3558

> <Gold.Chemscore.Internal_Hbond>
0.0000

> <Gold.Chemscore.DEClash>
1.8886

> <Gold.Chemscore.DEInternal>
2.0436

> <Gold.Chemscore.Rot>
1.9823

> <Gold.Chemscore.Internal.Correction>
   9.000000E+99

> <Gold.Chemscore.Hbonds>
donor molecule, donor type, donor heavy atom, donor atom, acceptor molecule, acceptor atom, score
      P1  H  7997  8008       L1    20  0.99

> <Gold.Chemscore.Hbond.Weighted>
-3.3318

> <Gold.Chemscore.Metal.Weighted>
-0.0000

> <Gold.Chemscore.Lipo.Weighted>
-13.6136

> <Gold.Chemscore.Internal_Hbond.Weighted>
0.0000

> <Gold.Chemscore.DEClash.Weighted>
1.8886

> <Gold.Chemscore.DEInternal.Weighted>
2.0436

> <Gold.Chemscore.Rot.Weighted>
5.0748

> <Gold.Chemscore.Internal.Correction.Weighted>
   9.000000E+99

> <Gold.Protein.RotatedTorsions>
[ 6907 6896 6895 6894 ] final  111.86 input  -60.11 | X-H torsion
[ 7974 7965 7964 7962 ] final -135.45 input  175.53 | X-H torsion
[ 8008 7997 7996 7995 ] final  -98.68 input   59.86 | X-H torsion
[ 10167 10162 10161 10158 ] final -119.40 input  -65.29 | X-H torsion
[ 10718 10713 10712 10709 ] final  -99.11 input   66.30 | X-H torsion
[ 10763 10752 10751 10750 ] final   19.33 input  -60.55 | X-H torsion
[ 11005 11000 10999 10996 ] final   48.12 input  -57.11 | X-H torsion

> <Gold.Protein.ActiveResidues>
 VAL166  LYS551  ARG553  GLY616  TRP617  ASP618  TYR619  PRO620  LYS621  CYS622 
 ASP623  PHE694  ASN695  SER759  ASP760  ASP761  ALA762  ILE779  LEU786  VAL792 
 PHE793  MET794  SER795  GLU796  ALA797  LYS798  CYS799  TRP800  GLU811  SER814 

> <Gold.Protein.RotatedAtoms>
  152.4947  133.8598  159.7243 H   0  0  0  0  0  0  0  0  0  0  0  0  # atno 6907 bound_to 6896
  150.9112  133.6986  159.2861 H   0  0  0  0  0  0  0  0  0  0  0  0  # atno 6908 bound_to 6896
  151.4394  135.1023  159.9718 H   0  0  0  0  0  0  0  0  0  0  0  0  # atno 6909 bound_to 6896
  144.9013  140.6775  143.5083 H   0  0  0  0  0  0  0  0  0  0  0  0  # atno 7974 bound_to 7965
  154.8045  140.0453  157.1297 H   0  0  0  0  0  0  0  0  0  0  0  0  # atno 8008 bound_to 7997
  154.9440  140.3056  155.5087 H   0  0  0  0  0  0  0  0  0  0  0  0  # atno 8009 bound_to 7997
  156.2965  140.2300  156.4511 H   0  0  0  0  0  0  0  0  0  0  0  0  # atno 8010 bound_to 7997
  140.0471  143.5096  152.2101 H   0  0  0  0  0  0  0  0  0  0  0  0  # atno 10167 bound_to 10162
  156.0125  130.5268  150.6623 H   0  0  0  0  0  0  0  0  0  0  0  0  # atno 10718 bound_to 10713
  153.1171  135.6710  153.9399 H   0  0  0  0  0  0  0  0  0  0  0  0  # atno 10763 bound_to 10752
  153.8926  135.3045  155.3449 H   0  0  0  0  0  0  0  0  0  0  0  0  # atno 10764 bound_to 10752
  154.7586  135.4999  153.9500 H   0  0  0  0  0  0  0  0  0  0  0  0  # atno 10765 bound_to 10752
  140.1218  134.4819  155.8591 H   0  0  0  0  0  0  0  0  0  0  0  0  # atno 11005 bound_to 11000
  145.3612  139.1681  143.4382 LP  0  0  0  0  0  0  0  0  0  0  0  0  # atno 17320 bound_to 7965
  146.3110  140.3674  142.8671 LP  0  0  0  0  0  0  0  0  0  0  0  0  # atno 17321 bound_to 7965
  139.5977  144.7572  151.3247 LP  0  0  0  0  0  0  0  0  0  0  0  0  # atno 17342 bound_to 10162
  140.7234  143.7073  150.7797 LP  0  0  0  0  0  0  0  0  0  0  0  0  # atno 17343 bound_to 10162
  157.4362  131.0855  151.0989 LP  0  0  0  0  0  0  0  0  0  0  0  0  # atno 17370 bound_to 10713
  157.1547  130.6199  149.5592 LP  0  0  0  0  0  0  0  0  0  0  0  0  # atno 17371 bound_to 10713
  141.2153  133.6763  156.6903 LP  0  0  0  0  0  0  0  0  0  0  0  0  # atno 17394 bound_to 11000
  140.2955  134.8206  157.4053 LP  0  0  0  0  0  0  0  0  0  0  0  0  # atno 17395 bound_to 11000

$$$$
