AV-unprocessed.smi:3061|AV-procd|sdf|11681|dock2
  -GOLD-   2272017 83D 1   1.00000     0.00000
 Structure written by MMmdl.
 35 36  0  0  0  0  0  0  0  0  1 V2000
  151.4908  140.6405  156.6548 C   0  0  0  0  0  0  0  0  0  0  0  0
  150.9220  142.0358  156.3642 C   0  0  2  0  0  0  0  0  0  0  0  0
  150.6403  142.8117  157.6685 C   0  0  0  0  0  0  0  0  0  0  0  0
  151.6657  142.6046  158.6764 N   0  0  0  0  0  0  0  0  0  0  0  0
  151.8760  141.5790  159.5031 C   0  0  0  0  0  0  0  0  0  0  0  0
  152.9348  141.7313  160.2863 N   0  0  0  0  0  0  0  0  0  0  0  0
  153.3587  142.9586  159.8611 C   0  0  0  0  0  0  0  0  0  0  0  0
  152.6305  143.5276  158.9004 N   0  0  0  0  0  0  0  0  0  0  0  0
  149.7029  141.8972  155.5682 N   0  0  0  0  0  0  0  0  0  0  0  0
  149.5394  141.0646  154.5276 C   0  0  0  0  0  0  0  0  0  0  0  0
  150.4050  140.2738  154.1502 O   0  0  0  0  0  0  0  0  0  0  0  0
  148.1990  141.1545  153.7829 C   0  0  1  0  0  0  0  0  0  0  0  0
  147.4481  139.8078  153.8260 C   0  0  0  0  0  0  0  0  0  0  0  0
  146.2355  140.0908  154.6970 C   0  0  0  0  0  0  0  0  0  0  0  0
  145.4436  139.2161  155.0448 O   0  0  0  0  0  0  0  0  0  0  0  0
  146.1713  141.3852  155.0209 N   0  0  0  0  0  0  0  0  0  0  0  0
  145.1510  142.0048  155.8552 C   0  0  0  0  0  0  0  0  0  0  0  0
  147.2334  142.1758  154.4230 C   0  0  0  0  0  0  0  0  0  0  0  0
  152.4179  140.7062  157.2248 H   0  0  0  0  0  0  0  0  0  0  0  0
  151.7111  140.1061  155.7301 H   0  0  0  0  0  0  0  0  0  0  0  0
  150.7887  140.0362  157.2304 H   0  0  0  0  0  0  0  0  0  0  0  0
  151.6786  142.5778  155.7939 H   0  0  0  0  0  0  0  0  0  0  0  0
  150.5482  143.8804  157.4664 H   0  0  0  0  0  0  0  0  0  0  0  0
  149.6881  142.4930  158.0941 H   0  0  0  0  0  0  0  0  0  0  0  0
  151.2483  140.7003  159.5257 H   0  0  0  0  0  0  0  0  0  0  0  0
  154.2291  143.4481  160.2726 H   0  0  0  0  0  0  0  0  0  0  0  0
  148.9366  142.5115  155.8034 H   0  0  0  0  0  0  0  0  0  0  0  0
  148.3871  141.4367  152.7455 H   0  0  0  0  0  0  0  0  0  0  0  0
  147.1191  139.5089  152.8305 H   0  0  0  0  0  0  0  0  0  0  0  0
  148.0360  138.9895  154.2455 H   0  0  0  0  0  0  0  0  0  0  0  0
  144.1545  141.7894  155.4684 H   0  0  0  0  0  0  0  0  0  0  0  0
  145.2739  143.0876  155.8868 H   0  0  0  0  0  0  0  0  0  0  0  0
  145.2137  141.6265  156.8763 H   0  0  0  0  0  0  0  0  0  0  0  0
  147.7118  142.8051  155.1758 H   0  0  0  0  0  0  0  0  0  0  0  0
  146.8097  142.8353  153.6646 H   0  0  0  0  0  0  0  0  0  0  0  0
  1  2  1  0  0  0  0
  1 19  1  0  0  0  0
  1 20  1  0  0  0  0
  1 21  1  0  0  0  0
  2  3  1  0  0  0  0
  2  9  1  0  0  0  0
  2 22  1  0  0  0  0
  3  4  1  0  0  0  0
  3 23  1  0  0  0  0
  3 24  1  0  0  0  0
  4  8  1  0  0  0  0
  4  5  1  0  0  0  0
  5  6  2  0  0  0  0
  5 25  1  0  0  0  0
  6  7  1  0  0  0  0
  7  8  2  0  0  0  0
  7 26  1  0  0  0  0
  9 10  1  0  0  0  0
  9 27  1  0  0  0  0
 10 11  2  0  0  0  0
 10 12  1  0  0  0  0
 12 18  1  0  0  0  0
 12 13  1  0  0  0  0
 12 28  1  0  0  0  0
 13 14  1  0  0  0  0
 13 29  1  0  0  0  0
 13 30  1  0  0  0  0
 14 15  2  0  0  0  0
 14 16  1  0  0  0  0
 16 17  1  0  0  0  0
 16 18  1  0  0  0  0
 17 31  1  0  0  0  0
 17 32  1  0  0  0  0
 17 33  1  0  0  0  0
 18 34  1  0  0  0  0
 18 35  1  0  0  0  0
M  END
> <s_m_source_file>
AV-unprocessed.smi

> <i_m_source_file_index>
3061

> <i_lp_mmshare_version>
43012

> <i_f3d_flags>
0

> <s_epik_input>
bjFbY0hdbltjSF1uMVtDSDJdW0NAQEhdKFtDSDNdKVtOSF1DKD1PKVtDQEBIXTJbQ0gyXUMoPU8pTihbQ0gzXSlbQ0gyXTI=

> <s_epik_cmdline>
J2VwaWtfcHl0aG9uJywgJy1waCcsICc3LjAnLCAnLXRuJywgJzgnLCAnLW1hJywgJzIwMCcsICctbWV0YWxfYmluZGluZycsICctaW1hZScsICc8aW5maWxlLm1hZT4nLCAnLW9tYWUnLCAnPG91dGZpbGUubWFlPic=

> <r_lp_tautomer_probability>
1

> <r_epik_Ionization_Penalty>
4.97611e-05

> <r_epik_Ionization_Penalty_Charging>
0

> <r_epik_Ionization_Penalty_Neutral>
4.97611e-05

> <r_epik_State_Penalty>
-0

> <r_epik_Charging_Adjusted_Penalty>
0

> <i_epik_Tot_Q>
0

> <i_epik_Tot_abs_Q>
0

> <r_epik_Metal_State_Penalty>
-0

> <b_epik_Metal_Only>
0

> <s_lp_Force_Field>
OPLS_2005

> <r_lp_Energy>
12.1986

> <b_lp_Chiralities_Consistent>
1

> <s_lp_Variant>
AV-unprocessed.smi:3061-3

> <Gold.Version>
5.8.1

> <Gold.Id.Protein>
6NUR|6NUR_protein|mol2

> <Gold.PLP.Fitness>
35.0968

> <Gold.PLP.PLP>
-32.5768

> <Gold.PLP.part.hbond>
-1.9401

> <Gold.PLP.part.metal>
0.0000

> <Gold.PLP.part.buried>
-3.5838

> <Gold.PLP.part.nonpolar>
-26.8053

> <Gold.PLP.part.repulsive>
0.6112

> <Gold.PLP.ligand.clash>
0.4941

> <Gold.PLP.ligand.torsion>
0.6423

> <Gold.PLP.Chemscore.Hbond>
1.4248

> <Gold.PLP.Chemscore.CHOScore>
0.0000

> <Gold.PLP.Chemscore.Metal>
0.0000

> <Gold.Chemscore.Hbonds>
donor molecule, donor type, donor heavy atom, donor atom, acceptor molecule, acceptor atom, score
      L1  H     9    27       P1  8028  0.31
      P1  H  7989  7998       L1    11  0.94

> <Gold.PLP.Chemscore.Internal.Correction>
0.0242

> <Gold.Rescore>
     Score         DG    S(hbond)    S(metal)    S(lipo)     H(rot)  DE(clash)    DE(int)     intcor
      6.24      -9.09       1.33        0.00      45.78       2.42       0.29       2.56       ----

> <Gold.Chemscore.Fitness>
6.2378

> <Gold.Chemscore.DG>
-9.0862

> <Gold.Chemscore.ZeroCoef>
-5.4800

> <Gold.Chemscore.Hbond>
1.3307

> <Gold.Chemscore.Metal>
0.0000

> <Gold.Chemscore.Lipo>
45.7787

> <Gold.Chemscore.Internal_Hbond>
0.0000

> <Gold.Chemscore.DEClash>
0.2900

> <Gold.Chemscore.DEInternal>
2.5584

> <Gold.Chemscore.Rot>
2.4197

> <Gold.Chemscore.Internal.Correction>
   9.000000E+99

> <Gold.Chemscore.Hbonds>
donor molecule, donor type, donor heavy atom, donor atom, acceptor molecule, acceptor atom, score
      L1  H     9    27       P1  8028  0.30
      P1  H  7989  7998       L1    11  0.80

> <Gold.Chemscore.Hbond.Weighted>
-4.4446

> <Gold.Chemscore.Metal.Weighted>
-0.0000

> <Gold.Chemscore.Lipo.Weighted>
-5.3561

> <Gold.Chemscore.Internal_Hbond.Weighted>
0.0000

> <Gold.Chemscore.DEClash.Weighted>
0.2900

> <Gold.Chemscore.DEInternal.Weighted>
2.5584

> <Gold.Chemscore.Rot.Weighted>
6.1945

> <Gold.Chemscore.Internal.Correction.Weighted>
   9.000000E+99

> <Gold.Protein.RotatedTorsions>
[ 6907 6896 6895 6894 ] final   27.80 input  -60.11 | X-H torsion
[ 7974 7965 7964 7962 ] final   10.01 input  175.53 | X-H torsion
[ 8008 7997 7996 7995 ] final  128.08 input   59.86 | X-H torsion
[ 10167 10162 10161 10158 ] final -109.43 input  -65.29 | X-H torsion
[ 10718 10713 10712 10709 ] final  159.32 input   66.30 | X-H torsion
[ 10763 10752 10751 10750 ] final  115.34 input  -60.55 | X-H torsion
[ 11005 11000 10999 10996 ] final  137.40 input  -57.11 | X-H torsion

> <Gold.Protein.ActiveResidues>
 VAL166  LYS551  ARG553  GLY616  TRP617  ASP618  TYR619  PRO620  LYS621  CYS622 
 ASP623  PHE694  ASN695  SER759  ASP760  ASP761  ALA762  ILE779  LEU786  VAL792 
 PHE793  MET794  SER795  GLU796  ALA797  LYS798  CYS799  TRP800  GLU811  SER814 

> <Gold.Protein.RotatedAtoms>
  152.0075  134.9894  160.0566 H   0  0  0  0  0  0  0  0  0  0  0  0  # atno 6907 bound_to 6896
  152.1460  133.4488  159.4798 H   0  0  0  0  0  0  0  0  0  0  0  0  # atno 6908 bound_to 6896
  150.6870  134.2165  159.4423 H   0  0  0  0  0  0  0  0  0  0  0  0  # atno 6909 bound_to 6896
  146.2395  139.9698  142.8448 H   0  0  0  0  0  0  0  0  0  0  0  0  # atno 7974 bound_to 7965
  156.2906  140.2653  156.2378 H   0  0  0  0  0  0  0  0  0  0  0  0  # atno 8008 bound_to 7997
  155.0007  140.0388  157.2377 H   0  0  0  0  0  0  0  0  0  0  0  0  # atno 8009 bound_to 7997
  154.7604  140.2759  155.6224 H   0  0  0  0  0  0  0  0  0  0  0  0  # atno 8010 bound_to 7997
  140.1554  143.4164  152.1464 H   0  0  0  0  0  0  0  0  0  0  0  0  # atno 10167 bound_to 10162
  157.1658  131.0598  151.2209 H   0  0  0  0  0  0  0  0  0  0  0  0  # atno 10718 bound_to 10713
  153.5207  135.3598  155.2630 H   0  0  0  0  0  0  0  0  0  0  0  0  # atno 10763 bound_to 10752
  154.8735  135.4045  154.3263 H   0  0  0  0  0  0  0  0  0  0  0  0  # atno 10764 bound_to 10752
  153.3933  135.7072  153.6546 H   0  0  0  0  0  0  0  0  0  0  0  0  # atno 10765 bound_to 10752
  140.0111  134.9438  157.0280 H   0  0  0  0  0  0  0  0  0  0  0  0  # atno 11005 bound_to 11000
  145.1692  140.9712  143.4332 LP  0  0  0  0  0  0  0  0  0  0  0  0  # atno 17320 bound_to 7965
  145.0044  139.3568  143.6151 LP  0  0  0  0  0  0  0  0  0  0  0  0  # atno 17321 bound_to 7965
  139.5406  144.7252  151.4747 LP  0  0  0  0  0  0  0  0  0  0  0  0  # atno 17342 bound_to 10162
  140.6676  143.8363  150.6961 LP  0  0  0  0  0  0  0  0  0  0  0  0  # atno 17343 bound_to 10162
  157.4090  130.7374  149.6824 LP  0  0  0  0  0  0  0  0  0  0  0  0  # atno 17370 bound_to 10713
  155.9746  130.4100  150.3909 LP  0  0  0  0  0  0  0  0  0  0  0  0  # atno 17371 bound_to 10713
  140.4552  134.1541  155.7185 LP  0  0  0  0  0  0  0  0  0  0  0  0  # atno 17394 bound_to 11000
  141.1712  133.8606  157.1566 LP  0  0  0  0  0  0  0  0  0  0  0  0  # atno 17395 bound_to 11000

$$$$
