AV-unprocessed.smi:385|AV-procd|sdf|2471|dock2
  -GOLD-   2262022413D 1   1.00000     0.00000
 Structure written by MMmdl.
 37 38  0  0  0  0  0  0  0  0  2 V2000
  150.7095  140.4189  155.2309 O   0  0  0  0  0  0  0  0  0  0  0  0
  149.9778  141.3978  155.3798 C   0  0  0  0  0  0  0  0  0  0  0  0
  150.2600  142.4070  156.2174 N   0  0  0  0  0  0  0  0  0  0  0  0
  151.4705  142.5172  157.0260 C   0  0  0  0  0  0  0  0  0  0  0  0
  151.4946  143.7841  157.9058 C   0  0  0  0  0  0  0  0  0  0  0  0
  151.9466  143.5268  159.3338 C   0  0  0  0  0  0  0  0  0  0  0  0
  151.7228  144.4857  160.3454 C   0  0  0  0  0  0  0  0  0  0  0  0
  152.1532  144.1936  161.6539 C   0  0  0  0  0  0  0  0  0  0  0  0
  152.7868  142.9604  161.8998 C   0  0  0  0  0  0  0  0  0  0  0  0
  152.9642  142.0712  160.8210 C   0  0  0  0  0  0  0  0  0  0  0  0
  152.5549  142.3413  159.5627 N   0  0  0  0  0  0  0  0  0  0  0  0
  148.6774  141.5215  154.5756 C   0  0  0  0  0  0  0  0  0  0  0  0
  147.4851  141.8775  155.4876 C   0  0  0  0  0  0  0  0  0  0  0  0
  146.1752  141.9451  154.6841 C   0  0  0  0  0  0  0  0  0  0  0  0
  145.9360  140.6757  153.9635 N   0  3  0  0  0  0  0  0  0  0  0  0
  147.0429  140.3131  153.0520 C   0  0  0  0  0  0  0  0  0  0  0  0
  148.3717  140.2117  153.8202 C   0  0  0  0  0  0  0  0  0  0  0  0
  149.6032  143.1715  156.2796 H   0  0  0  0  0  0  0  0  0  0  0  0
  151.5105  141.6346  157.6652 H   0  0  0  0  0  0  0  0  0  0  0  0
  152.3563  142.4771  156.3905 H   0  0  0  0  0  0  0  0  0  0  0  0
  152.1498  144.5308  157.4554 H   0  0  0  0  0  0  0  0  0  0  0  0
  150.5019  144.2350  157.9268 H   0  0  0  0  0  0  0  0  0  0  0  0
  151.2296  145.4215  160.1257 H   0  0  0  0  0  0  0  0  0  0  0  0
  151.9993  144.9022  162.4543 H   0  0  0  0  0  0  0  0  0  0  0  0
  153.1304  142.7016  162.8905 H   0  0  0  0  0  0  0  0  0  0  0  0
  153.4464  141.1171  160.9733 H   0  0  0  0  0  0  0  0  0  0  0  0
  148.7984  142.3214  153.8425 H   0  0  0  0  0  0  0  0  0  0  0  0
  147.3798  141.1360  156.2813 H   0  0  0  0  0  0  0  0  0  0  0  0
  147.6612  142.8343  155.9811 H   0  0  0  0  0  0  0  0  0  0  0  0
  145.3334  142.1402  155.3489 H   0  0  0  0  0  0  0  0  0  0  0  0
  146.2110  142.7655  153.9659 H   0  0  0  0  0  0  0  0  0  0  0  0
  145.8254  139.9371  154.6435 H   0  0  0  0  0  0  0  0  0  0  0  0
  146.8103  139.3629  152.5712 H   0  0  0  0  0  0  0  0  0  0  0  0
  147.1169  141.0610  152.2614 H   0  0  0  0  0  0  0  0  0  0  0  0
  149.1792  139.9822  153.1231 H   0  0  0  0  0  0  0  0  0  0  0  0
  148.3213  139.3746  154.5188 H   0  0  0  0  0  0  0  0  0  0  0  0
  145.0828  140.7571  153.4288 H   0  0  0  0  0  0  0  0  0  0  0  0
  1  2  2  0  0  0  0
  2  3  1  0  0  0  0
  2 12  1  0  0  0  0
  3  4  1  0  0  0  0
  3 18  1  0  0  0  0
  4  5  1  0  0  0  0
  4 19  1  0  0  0  0
  4 20  1  0  0  0  0
  5  6  1  0  0  0  0
  5 21  1  0  0  0  0
  5 22  1  0  0  0  0
  6 11  1  0  0  0  0
  6  7  2  0  0  0  0
  7  8  1  0  0  0  0
  7 23  1  0  0  0  0
  8  9  2  0  0  0  0
  8 24  1  0  0  0  0
  9 10  1  0  0  0  0
  9 25  1  0  0  0  0
 10 11  2  0  0  0  0
 10 26  1  0  0  0  0
 12 17  1  0  0  0  0
 12 13  1  0  0  0  0
 12 27  1  0  0  0  0
 13 14  1  0  0  0  0
 13 28  1  0  0  0  0
 13 29  1  0  0  0  0
 14 15  1  0  0  0  0
 14 30  1  0  0  0  0
 14 31  1  0  0  0  0
 15 16  1  0  0  0  0
 15 32  1  0  0  0  0
 15 37  1  0  0  0  0
 16 17  1  0  0  0  0
 16 33  1  0  0  0  0
 16 34  1  0  0  0  0
 17 35  1  0  0  0  0
 17 36  1  0  0  0  0
M  CHG  1  15   1
M  END
> <s_m_source_file>
AV-unprocessed.smi

> <i_m_source_file_index>
385

> <i_lp_mmshare_version>
43012

> <i_f3d_flags>
0

> <s_epik_input>
W0NIMl0xW0NIMl1bTkhdW0NIMl1bQ0gyXVtDSF0xQyg9TylbTkhdW0NIMl1bQ0gyXWMyW2NIXVtjSF1bY0hdW2NIXW4y

> <s_epik_cmdline>
J2VwaWtfcHl0aG9uJywgJy1waCcsICc3LjAnLCAnLXRuJywgJzgnLCAnLW1hJywgJzIwMCcsICctbWV0YWxfYmluZGluZycsICctaW1hZScsICc8aW5maWxlLm1hZT4nLCAnLW9tYWUnLCAnPG91dGZpbGUubWFlPic=

> <r_epik_Ionization_Penalty>
0.0235291

> <r_epik_Ionization_Penalty_Charging>
0.00104307

> <r_epik_Ionization_Penalty_Neutral>
0.022486

> <r_epik_State_Penalty>
0.0181452

> <r_epik_Charging_Adjusted_Penalty>
0.0191883

> <i_epik_Tot_Q>
1

> <i_epik_Tot_abs_Q>
1

> <r_epik_Metal_State_Penalty>
0.0174791

> <b_epik_Metal_Only>
0

> <s_lp_Force_Field>
OPLS_2005

> <r_lp_Energy>
12.6359

> <b_lp_Chiralities_Consistent>
1

> <s_lp_Variant>
AV-unprocessed.smi:385-1

> <Gold.Version>
5.8.1

> <Gold.Id.Protein>
6NUR|6NUR_protein|mol2

> <Gold.PLP.Fitness>
52.3353

> <Gold.PLP.PLP>
-41.6919

> <Gold.PLP.part.hbond>
-3.0000

> <Gold.PLP.part.metal>
0.0000

> <Gold.PLP.part.buried>
-2.1055

> <Gold.PLP.part.nonpolar>
-36.0304

> <Gold.PLP.part.repulsive>
0.1618

> <Gold.PLP.ligand.clash>
0.0000

> <Gold.PLP.ligand.torsion>
0.6924

> <Gold.PLP.Chemscore.Hbond>
4.0000

> <Gold.PLP.Chemscore.CHOScore>
0.0000

> <Gold.PLP.Chemscore.Metal>
0.0000

> <Gold.Chemscore.Hbonds>
donor molecule, donor type, donor heavy atom, donor atom, acceptor molecule, acceptor atom, score
      L1  H     3    18       P1  8028  1.00
      L1  H    15    37       P1 10175  2.00
      P1  H  7989  7998       L1     1  1.00

> <Gold.PLP.Chemscore.Internal.Correction>
0.0282

> <Gold.Rescore>
     Score         DG    S(hbond)    S(metal)    S(lipo)     H(rot)  DE(clash)    DE(int)     intcor
     21.08     -22.87       2.53        0.00     110.99       1.58       0.80       0.98       ----

> <Gold.Chemscore.Fitness>
21.0786

> <Gold.Chemscore.DG>
-22.8663

> <Gold.Chemscore.ZeroCoef>
-5.4800

> <Gold.Chemscore.Hbond>
2.5294

> <Gold.Chemscore.Metal>
0.0000

> <Gold.Chemscore.Lipo>
110.9922

> <Gold.Chemscore.Internal_Hbond>
0.0000

> <Gold.Chemscore.DEClash>
0.8042

> <Gold.Chemscore.DEInternal>
0.9835

> <Gold.Chemscore.Rot>
1.5813

> <Gold.Chemscore.Internal.Correction>
   9.000000E+99

> <Gold.Chemscore.Hbonds>
donor molecule, donor type, donor heavy atom, donor atom, acceptor molecule, acceptor atom, score
      L1  H     3    18       P1  8028  0.96
      L1  H    15    37       P1 10175  0.88
      P1  H  7989  7998       L1     1  0.28

> <Gold.Chemscore.Hbond.Weighted>
-8.4484

> <Gold.Chemscore.Metal.Weighted>
-0.0000

> <Gold.Chemscore.Lipo.Weighted>
-12.9861

> <Gold.Chemscore.Internal_Hbond.Weighted>
0.0000

> <Gold.Chemscore.DEClash.Weighted>
0.8042

> <Gold.Chemscore.DEInternal.Weighted>
0.9835

> <Gold.Chemscore.Rot.Weighted>
4.0481

> <Gold.Chemscore.Internal.Correction.Weighted>
   9.000000E+99

> <Gold.Protein.RotatedTorsions>
[ 6907 6896 6895 6894 ] final -102.96 input  -60.11 | X-H torsion
[ 7974 7965 7964 7962 ] final  161.46 input  175.53 | X-H torsion
[ 8008 7997 7996 7995 ] final  -36.32 input   59.86 | X-H torsion
[ 10167 10162 10161 10158 ] final  167.03 input  -65.29 | X-H torsion
[ 10718 10713 10712 10709 ] final   12.16 input   66.30 | X-H torsion
[ 10763 10752 10751 10750 ] final   77.99 input  -60.55 | X-H torsion
[ 11005 11000 10999 10996 ] final -143.74 input  -57.11 | X-H torsion

> <Gold.Protein.ActiveResidues>
 VAL166  LYS551  ARG553  GLY616  TRP617  ASP618  TYR619  PRO620  LYS621  CYS622 
 ASP623  PHE694  ASN695  SER759  ASP760  ASP761  ALA762  ILE779  LEU786  VAL792 
 PHE793  MET794  SER795  GLU796  ALA797  LYS798  CYS799  TRP800  GLU811  SER814 

> <Gold.Protein.RotatedAtoms>
  150.7219  134.0502  159.3795 H   0  0  0  0  0  0  0  0  0  0  0  0  # atno 6907 bound_to 6896
  151.8479  135.0566  160.0465 H   0  0  0  0  0  0  0  0  0  0  0  0  # atno 6908 bound_to 6896
  152.2813  133.5437  159.5536 H   0  0  0  0  0  0  0  0  0  0  0  0  # atno 6909 bound_to 6896
  144.7685  139.7900  143.6306 H   0  0  0  0  0  0  0  0  0  0  0  0  # atno 7974 bound_to 7965
  154.4075  140.1634  156.2355 H   0  0  0  0  0  0  0  0  0  0  0  0  # atno 8008 bound_to 7997
  155.9246  140.3419  155.6177 H   0  0  0  0  0  0  0  0  0  0  0  0  # atno 8009 bound_to 7997
  155.7181  140.0765  157.2333 H   0  0  0  0  0  0  0  0  0  0  0  0  # atno 8010 bound_to 7997
  139.4937  144.3965  151.9458 H   0  0  0  0  0  0  0  0  0  0  0  0  # atno 10167 bound_to 10162
  157.0062  130.6099  149.5702 H   0  0  0  0  0  0  0  0  0  0  0  0  # atno 10718 bound_to 10713
  153.0840  135.4893  154.8560 H   0  0  0  0  0  0  0  0  0  0  0  0  # atno 10763 bound_to 10752
  154.7187  135.3035  154.9084 H   0  0  0  0  0  0  0  0  0  0  0  0  # atno 10764 bound_to 10752
  153.9755  135.6796  153.4801 H   0  0  0  0  0  0  0  0  0  0  0  0  # atno 10765 bound_to 10752
  140.8094  134.2762  157.4947 H   0  0  0  0  0  0  0  0  0  0  0  0  # atno 11005 bound_to 11000
  146.1812  139.5006  142.9865 LP  0  0  0  0  0  0  0  0  0  0  0  0  # atno 17320 bound_to 7965
  145.6396  141.0287  143.1819 LP  0  0  0  0  0  0  0  0  0  0  0  0  # atno 17321 bound_to 7965
  140.3403  144.3211  150.5968 LP  0  0  0  0  0  0  0  0  0  0  0  0  # atno 17342 bound_to 10162
  140.5571  143.2197  151.7828 LP  0  0  0  0  0  0  0  0  0  0  0  0  # atno 17343 bound_to 10162
  156.0153  130.5247  150.8115 LP  0  0  0  0  0  0  0  0  0  0  0  0  # atno 17370 bound_to 10713
  157.5354  131.0938  150.9899 LP  0  0  0  0  0  0  0  0  0  0  0  0  # atno 17371 bound_to 10713
  139.8715  134.9475  156.3968 LP  0  0  0  0  0  0  0  0  0  0  0  0  # atno 17394 bound_to 11000
  140.9213  133.7643  155.9910 LP  0  0  0  0  0  0  0  0  0  0  0  0  # atno 17395 bound_to 11000

$$$$
