AV-unprocessed.smi:203|AV-procd|sdf|1595|dock2
  -GOLD-   2262019493D 1   1.00000     0.00000
 Structure written by MMmdl.
 57 61  0  0  0  0  0  0  0  0  1 V2000
  151.5156  133.2454  156.9987 O   0  0  0  0  0  0  0  0  0  0  0  0
  150.4504  133.1075  157.5953 C   0  0  0  0  0  0  0  0  0  0  0  0
  149.4775  134.2461  157.8497 C   0  0  0  0  0  0  0  0  0  0  0  0
  148.4504  133.6361  158.8238 C   0  0  2  0  0  0  0  0  0  0  0  0
  148.5149  134.2296  160.2676 C   0  0  2  0  0  0  0  0  0  0  0  0
  147.9200  133.2747  161.3363 C   0  0  0  0  0  0  0  0  0  0  0  0
  147.9920  133.8795  162.7445 C   0  0  0  0  0  0  0  0  0  0  0  0
  147.2958  135.2441  162.7612 C   0  0  0  0  0  0  0  0  0  0  0  0
  147.9121  136.1690  161.7035 C   0  0  0  0  0  0  0  0  0  0  0  0
  147.8805  135.5564  160.3756 N   0  0  0  0  0  0  0  0  0  0  0  0
  148.2241  136.4632  159.4338 C   0  0  0  0  0  0  0  0  0  0  0  0
  147.2792  136.7964  158.5207 N   0  0  0  0  0  0  0  0  0  0  0  0
  147.5646  137.6775  157.5571 C   0  0  0  0  0  0  0  0  0  0  0  0
  148.7078  138.3298  157.3331 N   0  0  0  0  0  0  0  0  0  0  0  0
  149.6560  138.0017  158.2571 C   0  0  0  0  0  0  0  0  0  0  0  0
  149.5004  137.0856  159.3347 C   0  0  0  0  0  0  0  0  0  0  0  0
  150.6796  137.0078  160.0661 N   0  0  0  0  0  0  0  0  0  0  0  0
  151.4885  137.8280  159.4528 C   0  0  0  0  0  0  0  0  0  0  0  0
  150.9563  138.4640  158.3544 N   0  0  0  0  0  0  0  0  0  0  0  0
  151.6349  139.4175  157.4940 C   0  0  0  0  0  0  0  0  0  0  0  0
  151.3014  140.8801  157.8592 C   0  0  1  0  0  0  0  0  0  0  0  0
  149.9073  141.0650  157.7028 O   0  0  0  0  0  0  0  0  0  0  0  0
  151.6643  141.2404  159.3138 C   0  0  1  0  0  0  0  0  0  0  0  0
  153.1649  141.2861  159.6099 C   0  0  0  0  0  0  0  0  0  0  0  0
  153.2655  142.2121  160.8105 C   0  0  0  0  0  0  0  0  0  0  0  0
  151.9407  142.9780  160.7935 C   0  0  0  0  0  0  0  0  0  0  0  0
  151.3007  142.5861  159.5867 O   0  0  0  0  0  0  0  0  0  0  0  0
  148.7012  132.1124  158.7612 C   0  0  0  0  0  0  0  0  0  0  0  0
  149.9834  131.9678  158.1001 N   0  0  0  0  0  0  0  0  0  0  0  0
  149.9803  135.1290  158.2445 H   0  0  0  0  0  0  0  0  0  0  0  0
  149.0060  134.5231  156.9062 H   0  0  0  0  0  0  0  0  0  0  0  0
  147.4658  133.8392  158.4012 H   0  0  0  0  0  0  0  0  0  0  0  0
  149.5685  134.3619  160.5155 H   0  0  0  0  0  0  0  0  0  0  0  0
  146.8787  133.0496  161.1056 H   0  0  0  0  0  0  0  0  0  0  0  0
  148.4443  132.3197  161.3391 H   0  0  0  0  0  0  0  0  0  0  0  0
  147.5250  133.2094  163.4670 H   0  0  0  0  0  0  0  0  0  0  0  0
  149.0340  133.9908  163.0470 H   0  0  0  0  0  0  0  0  0  0  0  0
  146.2304  135.1177  162.5641 H   0  0  0  0  0  0  0  0  0  0  0  0
  147.3794  135.6975  163.7492 H   0  0  0  0  0  0  0  0  0  0  0  0
  147.3699  137.1158  161.6899 H   0  0  0  0  0  0  0  0  0  0  0  0
  148.9442  136.3980  161.9731 H   0  0  0  0  0  0  0  0  0  0  0  0
  146.7627  137.8893  156.8653 H   0  0  0  0  0  0  0  0  0  0  0  0
  152.5036  137.9905  159.7845 H   0  0  0  0  0  0  0  0  0  0  0  0
  152.7102  139.2442  157.5525 H   0  0  0  0  0  0  0  0  0  0  0  0
  151.3411  139.1999  156.4670 H   0  0  0  0  0  0  0  0  0  0  0  0
  151.8245  141.5494  157.1748 H   0  0  0  0  0  0  0  0  0  0  0  0
  149.6038  141.6488  158.3811 H   0  0  0  0  0  0  0  0  0  0  0  0
  151.1700  140.5703  160.0207 H   0  0  0  0  0  0  0  0  0  0  0  0
  153.5896  140.3003  159.8023 H   0  0  0  0  0  0  0  0  0  0  0  0
  153.7005  141.7261  158.7674 H   0  0  0  0  0  0  0  0  0  0  0  0
  153.3659  141.6467  161.7378 H   0  0  0  0  0  0  0  0  0  0  0  0
  154.1258  142.8770  160.7263 H   0  0  0  0  0  0  0  0  0  0  0  0
  151.3189  142.6888  161.6417 H   0  0  0  0  0  0  0  0  0  0  0  0
  152.0820  144.0586  160.8257 H   0  0  0  0  0  0  0  0  0  0  0  0
  148.7105  131.6352  159.7412 H   0  0  0  0  0  0  0  0  0  0  0  0
  147.9363  131.6180  158.1615 H   0  0  0  0  0  0  0  0  0  0  0  0
  150.4686  131.0841  158.0441 H   0  0  0  0  0  0  0  0  0  0  0  0
  1  2  2  0  0  0  0
  2 29  1  0  0  0  0
  2  3  1  0  0  0  0
  3  4  1  0  0  0  0
  3 30  1  0  0  0  0
  3 31  1  0  0  0  0
  4  5  1  0  0  0  0
  4 28  1  0  0  0  0
  4 32  1  0  0  0  0
  5 10  1  0  0  0  0
  5  6  1  0  0  0  0
  5 33  1  0  0  0  0
  6  7  1  0  0  0  0
  6 34  1  0  0  0  0
  6 35  1  0  0  0  0
  7  8  1  0  0  0  0
  7 36  1  0  0  0  0
  7 37  1  0  0  0  0
  8  9  1  0  0  0  0
  8 38  1  0  0  0  0
  8 39  1  0  0  0  0
  9 10  1  0  0  0  0
  9 40  1  0  0  0  0
  9 41  1  0  0  0  0
 10 11  1  0  0  0  0
 11 16  1  0  0  0  0
 11 12  2  0  0  0  0
 12 13  1  0  0  0  0
 13 14  2  0  0  0  0
 13 42  1  0  0  0  0
 14 15  1  0  0  0  0
 15 19  1  0  0  0  0
 15 16  2  0  0  0  0
 16 17  1  0  0  0  0
 17 18  2  0  0  0  0
 18 19  1  0  0  0  0
 18 43  1  0  0  0  0
 19 20  1  0  0  0  0
 20 21  1  0  0  0  0
 20 44  1  0  0  0  0
 20 45  1  0  0  0  0
 21 22  1  0  0  0  0
 21 23  1  0  0  0  0
 21 46  1  0  0  0  0
 22 47  1  0  0  0  0
 23 27  1  0  0  0  0
 23 24  1  0  0  0  0
 23 48  1  0  0  0  0
 24 25  1  0  0  0  0
 24 49  1  0  0  0  0
 24 50  1  0  0  0  0
 25 26  1  0  0  0  0
 25 51  1  0  0  0  0
 25 52  1  0  0  0  0
 26 27  1  0  0  0  0
 26 53  1  0  0  0  0
 26 54  1  0  0  0  0
 28 29  1  0  0  0  0
 28 55  1  0  0  0  0
 28 56  1  0  0  0  0
 29 57  1  0  0  0  0
M  END
> <s_m_source_file>
AV-unprocessed.smi

> <i_m_source_file_index>
203

> <i_lp_mmshare_version>
43012

> <i_f3d_flags>
0

> <s_epik_input>
Tz1DMVtDSDJdW0NASF0oW0NIMl1bTkhdMSlbQ0BASF0yW0NIMl1bQ0gyXVtDSDJdW0NIMl1OMmMobltjSF1uMyljKGMzNCluW2NIXW40W0NIMl1bQ0BIXShbT0hdKVtDQEBIXTVbQ0gyXVtDSDJdW0NIMl1PNQ==

> <s_epik_cmdline>
J2VwaWtfcHl0aG9uJywgJy1waCcsICc3LjAnLCAnLXRuJywgJzgnLCAnLW1hJywgJzIwMCcsICctbWV0YWxfYmluZGluZycsICctaW1hZScsICc8aW5maWxlLm1hZT4nLCAnLW9tYWUnLCAnPG91dGZpbGUubWFlPic=

> <r_lp_tautomer_probability>
1

> <r_epik_Ionization_Penalty>
0.00175146

> <r_epik_Ionization_Penalty_Charging>
0

> <r_epik_Ionization_Penalty_Neutral>
0.00175146

> <r_epik_State_Penalty>
0.00109045

> <r_epik_Charging_Adjusted_Penalty>
0.00109045

> <i_epik_Tot_Q>
0

> <i_epik_Tot_abs_Q>
0

> <r_epik_Metal_State_Penalty>
-0

> <b_epik_Metal_Only>
0

> <s_lp_Force_Field>
OPLS_2005

> <r_lp_Energy>
56.5765

> <b_lp_Chiralities_Consistent>
1

> <s_lp_Variant>
AV-unprocessed.smi:203-14

> <Gold.Version>
5.8.1

> <Gold.Id.Protein>
6NUR|6NUR_protein|mol2

> <Gold.PLP.Fitness>
44.5469

> <Gold.PLP.PLP>
-42.9083

> <Gold.PLP.part.hbond>
-1.2929

> <Gold.PLP.part.metal>
0.0000

> <Gold.PLP.part.buried>
-7.3951

> <Gold.PLP.part.nonpolar>
-34.9902

> <Gold.PLP.part.repulsive>
0.0586

> <Gold.PLP.ligand.clash>
0.0265

> <Gold.PLP.ligand.torsion>
0.8491

> <Gold.PLP.Chemscore.Hbond>
0.9913

> <Gold.PLP.Chemscore.CHOScore>
0.0000

> <Gold.PLP.Chemscore.Metal>
0.0000

> <Gold.Chemscore.Hbonds>
donor molecule, donor type, donor heavy atom, donor atom, acceptor molecule, acceptor atom, score
      P1  H  6896  6908       L1    17  0.60

> <Gold.PLP.Chemscore.Internal.Correction>
0.3897

> <Gold.Rescore>
     Score         DG    S(hbond)    S(metal)    S(lipo)     H(rot)  DE(clash)    DE(int)     intcor
     10.85     -12.05       0.72        0.00      95.09       2.72       0.00       1.20       ----

> <Gold.Chemscore.Fitness>
10.8514

> <Gold.Chemscore.DG>
-12.0543

> <Gold.Chemscore.ZeroCoef>
-5.4800

> <Gold.Chemscore.Hbond>
0.7199

> <Gold.Chemscore.Metal>
0.0000

> <Gold.Chemscore.Lipo>
95.0885

> <Gold.Chemscore.Internal_Hbond>
0.0000

> <Gold.Chemscore.DEClash>
0.0000

> <Gold.Chemscore.DEInternal>
1.2028

> <Gold.Chemscore.Rot>
2.7171

> <Gold.Chemscore.Internal.Correction>
   9.000000E+99

> <Gold.Chemscore.Hbonds>
donor molecule, donor type, donor heavy atom, donor atom, acceptor molecule, acceptor atom, score
      P1  H  6896  6908       L1    17  0.07

> <Gold.Chemscore.Hbond.Weighted>
-2.4046

> <Gold.Chemscore.Metal.Weighted>
-0.0000

> <Gold.Chemscore.Lipo.Weighted>
-11.1253

> <Gold.Chemscore.Internal_Hbond.Weighted>
0.0000

> <Gold.Chemscore.DEClash.Weighted>
0.0000

> <Gold.Chemscore.DEInternal.Weighted>
1.2028

> <Gold.Chemscore.Rot.Weighted>
6.9557

> <Gold.Chemscore.Internal.Correction.Weighted>
   9.000000E+99

> <Gold.Protein.RotatedTorsions>
[ 6907 6896 6895 6894 ] final -162.58 input  -60.11 | X-H torsion
[ 7974 7965 7964 7962 ] final   70.81 input  175.53 | X-H torsion
[ 8008 7997 7996 7995 ] final  131.00 input   59.86 | X-H torsion
[ 10167 10162 10161 10158 ] final  146.56 input  -65.29 | X-H torsion
[ 10718 10713 10712 10709 ] final  156.19 input   66.30 | X-H torsion
[ 10763 10752 10751 10750 ] final   -4.82 input  -60.55 | X-H torsion
[ 11005 11000 10999 10996 ] final  -84.16 input  -57.11 | X-H torsion

> <Gold.Protein.ActiveResidues>
 VAL166  LYS551  ARG553  GLY616  TRP617  ASP618  TYR619  PRO620  LYS621  CYS622 
 ASP623  PHE694  ASN695  SER759  ASP760  ASP761  ALA762  ILE779  LEU786  VAL792 
 PHE793  MET794  SER795  GLU796  ALA797  LYS798  CYS799  TRP800  GLU811  SER814 

> <Gold.Protein.RotatedAtoms>
  151.3825  133.3816  159.2711 H   0  0  0  0  0  0  0  0  0  0  0  0  # atno 6907 bound_to 6896
  150.9567  134.8961  159.7716 H   0  0  0  0  0  0  0  0  0  0  0  0  # atno 6908 bound_to 6896
  152.5133  134.3782  159.9394 H   0  0  0  0  0  0  0  0  0  0  0  0  # atno 6909 bound_to 6896
  145.7736  139.2854  143.1307 H   0  0  0  0  0  0  0  0  0  0  0  0  # atno 7974 bound_to 7965
  156.2963  140.2582  156.2854 H   0  0  0  0  0  0  0  0  0  0  0  0  # atno 8008 bound_to 7997
  154.9561  140.0393  157.2186 H   0  0  0  0  0  0  0  0  0  0  0  0  # atno 8009 bound_to 7997
  154.7990  140.2825  155.5939 H   0  0  0  0  0  0  0  0  0  0  0  0  # atno 8010 bound_to 7997
  139.4905  144.5820  151.6852 H   0  0  0  0  0  0  0  0  0  0  0  0  # atno 10167 bound_to 10162
  157.2083  131.0692  151.1985 H   0  0  0  0  0  0  0  0  0  0  0  0  # atno 10718 bound_to 10713
  153.3901  135.7001  153.6501 H   0  0  0  0  0  0  0  0  0  0  0  0  # atno 10763 bound_to 10752
  153.5077  135.3638  155.2572 H   0  0  0  0  0  0  0  0  0  0  0  0  # atno 10764 bound_to 10752
  154.8701  135.4127  154.3216 H   0  0  0  0  0  0  0  0  0  0  0  0  # atno 10765 bound_to 10752
  141.1652  133.7331  156.8826 H   0  0  0  0  0  0  0  0  0  0  0  0  # atno 11005 bound_to 11000
  146.0145  140.8405  142.9954 LP  0  0  0  0  0  0  0  0  0  0  0  0  # atno 17320 bound_to 7965
  144.6808  140.2539  143.7328 LP  0  0  0  0  0  0  0  0  0  0  0  0  # atno 17321 bound_to 7965
  140.5429  144.0551  150.6095 LP  0  0  0  0  0  0  0  0  0  0  0  0  # atno 17342 bound_to 10162
  140.3579  143.2925  152.0416 LP  0  0  0  0  0  0  0  0  0  0  0  0  # atno 17343 bound_to 10162
  157.3698  130.7175  149.6557 LP  0  0  0  0  0  0  0  0  0  0  0  0  # atno 17370 bound_to 10713
  155.9693  130.4202  150.4411 LP  0  0  0  0  0  0  0  0  0  0  0  0  # atno 17371 bound_to 10713
  140.1704  134.9104  157.2826 LP  0  0  0  0  0  0  0  0  0  0  0  0  # atno 17394 bound_to 11000
  140.2509  134.3684  155.7443 LP  0  0  0  0  0  0  0  0  0  0  0  0  # atno 17395 bound_to 11000

$$$$
