AV-unprocessed.smi:334|AV-procd|sdf|2363|dock10
  -GOLD-   2262022273D 1   1.00000     0.00000
 Structure written by MMmdl.
 44 46  0  0  0  0  0  0  0  0  3 V2000
  151.3114  141.0469  156.5630 C   0  0  0  0  0  0  0  0  0  0  0  0
  150.7791  142.4232  156.9957 C   0  0  1  0  0  0  0  0  0  0  0  0
  149.3275  142.4300  156.8198 N   0  0  0  0  0  0  0  0  0  0  0  0
  148.4696  141.5175  157.3018 C   0  0  0  0  0  0  0  0  0  0  0  0
  148.8102  140.5697  158.0104 O   0  0  0  0  0  0  0  0  0  0  0  0
  146.9952  141.7168  156.9273 C   0  0  0  0  0  0  0  0  0  0  0  0
  146.1207  141.8270  158.1066 N   0  0  0  0  0  0  0  0  0  0  0  0
  146.5698  142.6387  159.1671 C   0  0  0  0  0  0  0  0  0  0  0  0
  145.8528  142.8031  160.2960 C   0  0  0  0  0  0  0  0  0  0  0  0
  146.3320  143.6354  161.3776 N   0  3  0  0  0  0  0  0  0  0  0  0
  145.5248  144.0489  162.2037 O   0  0  0  0  0  0  0  0  0  0  0  0
  147.5283  143.9042  161.4376 O   0  5  0  0  0  0  0  0  0  0  0  0
  144.5816  142.1120  160.3939 C   0  0  0  0  0  0  0  0  0  0  0  0
  144.1479  141.3316  159.3847 C   0  0  0  0  0  0  0  0  0  0  0  0
  144.9314  141.1515  158.1583 C   0  0  0  0  0  0  0  0  0  0  0  0
  144.5427  140.4369  157.2339 O   0  0  0  0  0  0  0  0  0  0  0  0
  151.1240  142.7715  158.4656 C   0  0  2  0  0  0  0  0  0  0  0  0
  150.4017  144.0370  158.9965 C   0  0  0  0  0  0  0  0  0  0  0  0
  151.5513  144.9014  159.5412 C   0  0  1  0  0  0  0  0  0  0  0  0
  152.1425  144.2442  160.8015 C   0  0  0  0  0  0  0  0  0  0  0  0
  152.9019  143.0346  160.2260 C   0  0  0  0  0  0  0  0  0  0  0  0
  152.6097  143.1351  158.7166 C   0  0  2  0  0  0  0  0  0  0  0  0
  152.6378  144.6460  158.5064 C   0  0  0  0  0  0  0  0  0  0  0  0
  152.3994  141.0054  156.5891 H   0  0  0  0  0  0  0  0  0  0  0  0
  151.0089  140.8167  155.5407 H   0  0  0  0  0  0  0  0  0  0  0  0
  150.9324  140.2529  157.2073 H   0  0  0  0  0  0  0  0  0  0  0  0
  151.2365  143.1729  156.3482 H   0  0  0  0  0  0  0  0  0  0  0  0
  148.9480  143.1754  156.2542 H   0  0  0  0  0  0  0  0  0  0  0  0
  146.9227  142.6085  156.3037 H   0  0  0  0  0  0  0  0  0  0  0  0
  146.6585  140.8954  156.2915 H   0  0  0  0  0  0  0  0  0  0  0  0
  147.5302  143.1045  159.0003 H   0  0  0  0  0  0  0  0  0  0  0  0
  143.9688  142.2140  161.2774 H   0  0  0  0  0  0  0  0  0  0  0  0
  143.1988  140.8248  159.4795 H   0  0  0  0  0  0  0  0  0  0  0  0
  150.8502  141.9152  159.0844 H   0  0  0  0  0  0  0  0  0  0  0  0
  149.8908  144.5758  158.1975 H   0  0  0  0  0  0  0  0  0  0  0  0
  149.6589  143.8018  159.7595 H   0  0  0  0  0  0  0  0  0  0  0  0
  151.2824  145.9491  159.6784 H   0  0  0  0  0  0  0  0  0  0  0  0
  152.8297  144.9224  161.3090 H   0  0  0  0  0  0  0  0  0  0  0  0
  151.3712  143.9517  161.5149 H   0  0  0  0  0  0  0  0  0  0  0  0
  153.9714  143.1297  160.4181 H   0  0  0  0  0  0  0  0  0  0  0  0
  152.5708  142.0886  160.6560 H   0  0  0  0  0  0  0  0  0  0  0  0
  153.3258  142.5799  158.1123 H   0  0  0  0  0  0  0  0  0  0  0  0
  152.3575  144.9534  157.4976 H   0  0  0  0  0  0  0  0  0  0  0  0
  153.5955  145.1013  158.7645 H   0  0  0  0  0  0  0  0  0  0  0  0
  1  2  1  0  0  0  0
  1 24  1  0  0  0  0
  1 25  1  0  0  0  0
  1 26  1  0  0  0  0
  2  3  1  0  0  0  0
  2 17  1  0  0  0  0
  2 27  1  0  0  0  0
  3  4  1  0  0  0  0
  3 28  1  0  0  0  0
  4  5  2  0  0  0  0
  4  6  1  0  0  0  0
  6  7  1  0  0  0  0
  6 29  1  0  0  0  0
  6 30  1  0  0  0  0
  7 15  1  0  0  0  0
  7  8  1  0  0  0  0
  8  9  2  0  0  0  0
  8 31  1  0  0  0  0
  9 10  1  0  0  0  0
  9 13  1  0  0  0  0
 10 11  2  0  0  0  0
 10 12  1  0  0  0  0
 13 14  2  0  0  0  0
 13 32  1  0  0  0  0
 14 15  1  0  0  0  0
 14 33  1  0  0  0  0
 15 16  2  0  0  0  0
 17 22  1  0  0  0  0
 17 18  1  0  0  0  0
 17 34  1  0  0  0  0
 18 19  1  0  0  0  0
 18 35  1  0  0  0  0
 18 36  1  0  0  0  0
 19 23  1  0  0  0  0
 19 20  1  0  0  0  0
 19 37  1  0  0  0  0
 20 21  1  0  0  0  0
 20 38  1  0  0  0  0
 20 39  1  0  0  0  0
 21 22  1  0  0  0  0
 21 40  1  0  0  0  0
 21 41  1  0  0  0  0
 22 23  1  0  0  0  0
 22 42  1  0  0  0  0
 23 43  1  0  0  0  0
 23 44  1  0  0  0  0
M  CHG  1  10   1
M  CHG  1  12  -1
M  END
> <s_m_source_file>
AV-unprocessed.smi

> <i_m_source_file_index>
334

> <i_lp_mmshare_version>
43012

> <i_f3d_flags>
0

> <s_epik_input>
W0NIMl0xW0NIMl1bQ0BIXShbQ0gyXTIpW0NAQEhdKFtDSDJdW0NAQEhdMTIpW0NASF0oW0NIM10pW05IXUMoPU8pW0NIMl1uM1tjSF1jKFtOK10oPU8pW08tXSlbY0hdW2NIXWMzPU8=

> <s_epik_cmdline>
J2VwaWtfcHl0aG9uJywgJy1waCcsICc3LjAnLCAnLXRuJywgJzgnLCAnLW1hJywgJzIwMCcsICctbWV0YWxfYmluZGluZycsICctaW1hZScsICc8aW5maWxlLm1hZT4nLCAnLW9tYWUnLCAnPG91dGZpbGUubWFlPic=

> <r_lp_tautomer_probability>
1

> <r_epik_Ionization_Penalty>
2.17081e-08

> <r_epik_Ionization_Penalty_Charging>
8.1195e-11

> <r_epik_Ionization_Penalty_Neutral>
2.16269e-08

> <r_epik_State_Penalty>
-0

> <r_epik_Charging_Adjusted_Penalty>
8.1195e-11

> <i_epik_Tot_Q>
0

> <i_epik_Tot_abs_Q>
2

> <r_epik_Metal_State_Penalty>
-0

> <b_epik_Metal_Only>
0

> <s_lp_Force_Field>
OPLS_2005

> <r_lp_Energy>
62.172

> <b_lp_Chiralities_Consistent>
1

> <s_lp_Variant>
AV-unprocessed.smi:334-2

> <Gold.Version>
5.8.1

> <Gold.Id.Protein>
6NUR|6NUR_protein|mol2

> <Gold.PLP.Fitness>
49.1168

> <Gold.PLP.PLP>
-44.3504

> <Gold.PLP.part.hbond>
-3.4482

> <Gold.PLP.part.metal>
0.0000

> <Gold.PLP.part.buried>
-8.1358

> <Gold.PLP.part.nonpolar>
-33.8532

> <Gold.PLP.part.repulsive>
0.6915

> <Gold.PLP.ligand.clash>
0.0000

> <Gold.PLP.ligand.torsion>
0.6144

> <Gold.PLP.Chemscore.Hbond>
1.9913

> <Gold.PLP.Chemscore.CHOScore>
0.0000

> <Gold.PLP.Chemscore.Metal>
0.0000

> <Gold.Chemscore.Hbonds>
donor molecule, donor type, donor heavy atom, donor atom, acceptor molecule, acceptor atom, score
      L1  H     3    28       P1  8028  1.00
      P1  H  6933  6944       L1    12  1.00

> <Gold.PLP.Chemscore.Internal.Correction>
0.0214

> <Gold.Rescore>
     Score         DG    S(hbond)    S(metal)    S(lipo)     H(rot)  DE(clash)    DE(int)     intcor
     18.03     -19.82       1.97        0.00     104.70       1.75       0.00       1.80       ----

> <Gold.Chemscore.Fitness>
18.0289

> <Gold.Chemscore.DG>
-19.8248

> <Gold.Chemscore.ZeroCoef>
-5.4800

> <Gold.Chemscore.Hbond>
1.9666

> <Gold.Chemscore.Metal>
0.0000

> <Gold.Chemscore.Lipo>
104.6981

> <Gold.Chemscore.Internal_Hbond>
0.0000

> <Gold.Chemscore.DEClash>
0.0000

> <Gold.Chemscore.DEInternal>
1.7959

> <Gold.Chemscore.Rot>
1.7474

> <Gold.Chemscore.Internal.Correction>
   9.000000E+99

> <Gold.Chemscore.Hbonds>
donor molecule, donor type, donor heavy atom, donor atom, acceptor molecule, acceptor atom, score
      L1  H     3    28       P1  8028  0.98
      P1  H  6933  6944       L1    12  0.74

> <Gold.Chemscore.Hbond.Weighted>
-6.5684

> <Gold.Chemscore.Metal.Weighted>
-0.0000

> <Gold.Chemscore.Lipo.Weighted>
-12.2497

> <Gold.Chemscore.Internal_Hbond.Weighted>
0.0000

> <Gold.Chemscore.DEClash.Weighted>
0.0000

> <Gold.Chemscore.DEInternal.Weighted>
1.7959

> <Gold.Chemscore.Rot.Weighted>
4.4733

> <Gold.Chemscore.Internal.Correction.Weighted>
   9.000000E+99

> <Gold.Protein.RotatedTorsions>
[ 6907 6896 6895 6894 ] final   84.19 input  -60.11 | X-H torsion
[ 7974 7965 7964 7962 ] final  147.47 input  175.53 | X-H torsion
[ 8008 7997 7996 7995 ] final  -21.70 input   59.86 | X-H torsion
[ 10167 10162 10161 10158 ] final   61.10 input  -65.29 | X-H torsion
[ 10718 10713 10712 10709 ] final  137.22 input   66.30 | X-H torsion
[ 10763 10752 10751 10750 ] final -150.85 input  -60.55 | X-H torsion
[ 11005 11000 10999 10996 ] final -169.16 input  -57.11 | X-H torsion

> <Gold.Protein.ActiveResidues>
 VAL166  LYS551  ARG553  GLY616  TRP617  ASP618  TYR619  PRO620  LYS621  CYS622 
 ASP623  PHE694  ASN695  SER759  ASP760  ASP761  ALA762  ILE779  LEU786  VAL792 
 PHE793  MET794  SER795  GLU796  ALA797  LYS798  CYS799  TRP800  GLU811  SER814 

> <Gold.Protein.RotatedAtoms>
  152.5346  134.2780  159.8996 H   0  0  0  0  0  0  0  0  0  0  0  0  # atno 6907 bound_to 6896
  151.2735  133.4237  159.2630 H   0  0  0  0  0  0  0  0  0  0  0  0  # atno 6908 bound_to 6896
  151.0347  134.9579  159.8186 H   0  0  0  0  0  0  0  0  0  0  0  0  # atno 6909 bound_to 6896
  144.8589  139.6033  143.5939 H   0  0  0  0  0  0  0  0  0  0  0  0  # atno 7974 bound_to 7965
  154.4689  140.2028  156.0045 H   0  0  0  0  0  0  0  0  0  0  0  0  # atno 8008 bound_to 7997
  156.0977  140.3248  155.7870 H   0  0  0  0  0  0  0  0  0  0  0  0  # atno 8009 bound_to 7997
  155.4851  140.0541  157.2952 H   0  0  0  0  0  0  0  0  0  0  0  0  # atno 8010 bound_to 7997
  140.1584  144.4394  150.6722 H   0  0  0  0  0  0  0  0  0  0  0  0  # atno 10167 bound_to 10162
  157.4384  131.1055  151.0171 H   0  0  0  0  0  0  0  0  0  0  0  0  # atno 10718 bound_to 10713
  154.8094  135.3274  154.7345 H   0  0  0  0  0  0  0  0  0  0  0  0  # atno 10763 bound_to 10752
  153.7997  135.6904  153.4862 H   0  0  0  0  0  0  0  0  0  0  0  0  # atno 10764 bound_to 10752
  153.1862  135.4568  155.0037 H   0  0  0  0  0  0  0  0  0  0  0  0  # atno 10765 bound_to 10752
  140.5339  134.5589  157.5082 H   0  0  0  0  0  0  0  0  0  0  0  0  # atno 11005 bound_to 11000
  146.2845  139.6966  142.9205 LP  0  0  0  0  0  0  0  0  0  0  0  0  # atno 17320 bound_to 7965
  145.4351  141.0418  143.2889 LP  0  0  0  0  0  0  0  0  0  0  0  0  # atno 17321 bound_to 7965
  140.6658  143.2267  151.5746 LP  0  0  0  0  0  0  0  0  0  0  0  0  # atno 17342 bound_to 10162
  139.5392  144.2694  152.1316 LP  0  0  0  0  0  0  0  0  0  0  0  0  # atno 17343 bound_to 10162
  157.1043  130.5995  149.5467 LP  0  0  0  0  0  0  0  0  0  0  0  0  # atno 17370 bound_to 10713
  155.9939  130.5002  150.7400 LP  0  0  0  0  0  0  0  0  0  0  0  0  # atno 17371 bound_to 10713
  139.9539  134.7568  156.0385 LP  0  0  0  0  0  0  0  0  0  0  0  0  # atno 17394 bound_to 11000
  141.1266  133.6597  156.3352 LP  0  0  0  0  0  0  0  0  0  0  0  0  # atno 17395 bound_to 11000

$$$$
