AV-unprocessed.smi:734|AV-procd|sdf|3531|dock3
  -GOLD-   22720 0523D 1   1.00000     0.00000
 Structure written by MMmdl.
 38 39  0  0  0  0  0  0  0  0  3 V2000
  151.8511  143.4758  158.9225 C   0  0  0  0  0  0  0  0  0  0  0  0
  151.8179  141.9543  159.1275 C   0  0  0  0  0  0  0  0  0  0  0  0
  153.0484  141.4195  159.8744 C   0  0  0  0  0  0  0  0  0  0  0  0
  151.5716  141.2179  157.8478 C   0  0  0  0  0  0  0  0  0  0  0  0
  152.3842  140.2620  157.3866 N   0  0  0  0  0  0  0  0  0  0  0  0
  151.9377  139.7270  156.1876 N   0  0  0  0  0  0  0  0  0  0  0  0
  150.7915  140.2754  155.7618 C   0  0  0  0  0  0  0  0  0  0  0  0
  150.1891  139.8927  154.6237 N   0  5  0  0  0  0  0  0  0  0  0  0
  148.9657  140.3767  154.3143 C   0  0  0  0  0  0  0  0  0  0  0  0
  148.5761  141.5363  154.4730 O   0  0  0  0  0  0  0  0  0  0  0  0
  148.1419  139.4638  153.7805 N   0  0  0  0  0  0  0  0  0  0  0  0
  146.7751  139.7131  153.3392 C   0  0  0  0  0  0  0  0  0  0  0  0
  146.4920  139.0371  151.9855 C   0  0  0  0  0  0  0  0  0  0  0  0
  146.4848  137.5607  152.0942 N   0  3  0  0  0  0  0  0  0  0  0  0
  146.0249  136.8659  150.8587 C   0  0  0  0  0  0  0  0  0  0  0  0
  145.2052  135.7237  151.3890 C   0  0  0  0  0  0  0  0  0  0  0  0
  145.0436  135.8107  152.7043 C   0  0  0  0  0  0  0  0  0  0  0  0
  145.7297  137.0247  153.2634 C   0  0  0  0  0  0  0  0  0  0  0  0
  150.1805  141.5417  156.8253 S   0  0  0  0  0  0  0  0  0  0  0  0
  150.9273  143.8297  158.4635 H   0  0  0  0  0  0  0  0  0  0  0  0
  152.6785  143.7707  158.2760 H   0  0  0  0  0  0  0  0  0  0  0  0
  151.9696  143.9980  159.8722 H   0  0  0  0  0  0  0  0  0  0  0  0
  150.9592  141.7506  159.7684 H   0  0  0  0  0  0  0  0  0  0  0  0
  152.9520  140.3518  160.0734 H   0  0  0  0  0  0  0  0  0  0  0  0
  153.1772  141.9243  160.8321 H   0  0  0  0  0  0  0  0  0  0  0  0
  153.9598  141.5691  159.2947 H   0  0  0  0  0  0  0  0  0  0  0  0
  148.4971  138.5248  153.6724 H   0  0  0  0  0  0  0  0  0  0  0  0
  146.0971  139.3238  154.0989 H   0  0  0  0  0  0  0  0  0  0  0  0
  146.6004  140.7889  153.2895 H   0  0  0  0  0  0  0  0  0  0  0  0
  145.5406  139.3720  151.5694 H   0  0  0  0  0  0  0  0  0  0  0  0
  147.2656  139.3326  151.2750 H   0  0  0  0  0  0  0  0  0  0  0  0
  145.3981  137.5047  150.2346 H   0  0  0  0  0  0  0  0  0  0  0  0
  146.8732  136.5126  150.2719 H   0  0  0  0  0  0  0  0  0  0  0  0
  144.7931  134.9546  150.7523 H   0  0  0  0  0  0  0  0  0  0  0  0
  144.4781  135.1243  153.3175 H   0  0  0  0  0  0  0  0  0  0  0  0
  146.4057  136.7625  154.0776 H   0  0  0  0  0  0  0  0  0  0  0  0
  144.9818  137.7284  153.6318 H   0  0  0  0  0  0  0  0  0  0  0  0
  147.4434  137.2712  152.2258 H   0  0  0  0  0  0  0  0  0  0  0  0
  1  2  1  0  0  0  0
  1 20  1  0  0  0  0
  1 21  1  0  0  0  0
  1 22  1  0  0  0  0
  2  3  1  0  0  0  0
  2  4  1  0  0  0  0
  2 23  1  0  0  0  0
  3 24  1  0  0  0  0
  3 25  1  0  0  0  0
  3 26  1  0  0  0  0
  4 19  1  0  0  0  0
  4  5  2  0  0  0  0
  5  6  1  0  0  0  0
  6  7  2  0  0  0  0
  7  8  1  0  0  0  0
  7 19  1  0  0  0  0
  8  9  1  0  0  0  0
  9 10  2  0  0  0  0
  9 11  1  0  0  0  0
 11 12  1  0  0  0  0
 11 27  1  0  0  0  0
 12 13  1  0  0  0  0
 12 28  1  0  0  0  0
 12 29  1  0  0  0  0
 13 14  1  0  0  0  0
 13 30  1  0  0  0  0
 13 31  1  0  0  0  0
 14 18  1  0  0  0  0
 14 15  1  0  0  0  0
 14 38  1  0  0  0  0
 15 16  1  0  0  0  0
 15 32  1  0  0  0  0
 15 33  1  0  0  0  0
 16 17  2  0  0  0  0
 16 34  1  0  0  0  0
 17 18  1  0  0  0  0
 17 35  1  0  0  0  0
 18 36  1  0  0  0  0
 18 37  1  0  0  0  0
M  CHG  1   8  -1
M  CHG  1  14   1
M  END
> <s_m_source_file>
AV-unprocessed.smi

> <i_m_source_file_index>
734

> <i_lp_mmshare_version>
43012

> <i_f3d_flags>
0

> <s_epik_input>
W0NIM11bQ0hdKFtDSDNdKWMxbm5jKHMxKVtOSF1DKD1PKVtOSF1bQ0gyXVtDSDJdTjJbQ0gyXVtDSF09W0NIXVtDSDJdMg==

> <s_epik_cmdline>
J2VwaWtfcHl0aG9uJywgJy1waCcsICc3LjAnLCAnLXRuJywgJzgnLCAnLW1hJywgJzIwMCcsICctbWV0YWxfYmluZGluZycsICctaW1hZScsICc8aW5maWxlLm1hZT4nLCAnLW9tYWUnLCAnPG91dGZpbGUubWFlPic=

> <r_lp_tautomer_probability>
1

> <r_epik_Ionization_Penalty>
3.04352

> <r_epik_Ionization_Penalty_Charging>
2.92732

> <r_epik_Ionization_Penalty_Neutral>
0.116198

> <r_epik_State_Penalty>
2.92347

> <r_epik_Charging_Adjusted_Penalty>
5.85079

> <i_epik_Tot_Q>
0

> <i_epik_Tot_abs_Q>
2

> <r_epik_Metal_State_Penalty>
0.448048

> <b_epik_Metal_Only>
1

> <s_lp_Force_Field>
OPLS_2005

> <r_lp_Energy>
6.61646

> <b_lp_Chiralities_Consistent>
1

> <s_lp_Variant>
AV-unprocessed.smi:734-2

> <Gold.Version>
5.8.1

> <Gold.Id.Protein>
6NUR|6NUR_protein|mol2

> <Gold.PLP.Fitness>
47.9934

> <Gold.PLP.PLP>
-37.4675

> <Gold.PLP.part.hbond>
-5.4433

> <Gold.PLP.part.metal>
0.0000

> <Gold.PLP.part.buried>
3.3564

> <Gold.PLP.part.nonpolar>
-34.2471

> <Gold.PLP.part.repulsive>
0.4475

> <Gold.PLP.ligand.clash>
0.0000

> <Gold.PLP.ligand.torsion>
0.5624

> <Gold.PLP.Chemscore.Hbond>
3.7657

> <Gold.PLP.Chemscore.CHOScore>
0.0000

> <Gold.PLP.Chemscore.Metal>
0.0000

> <Gold.Chemscore.Hbonds>
donor molecule, donor type, donor heavy atom, donor atom, acceptor molecule, acceptor atom, score
      L1  H    14    38       P1  7948  2.00
      P1  H  7989  7998       L1     8  0.49
      P1  H  7997  8009       L1     5  0.42

> <Gold.PLP.Chemscore.Internal.Correction>
0.3537

> <Gold.Rescore>
     Score         DG    S(hbond)    S(metal)    S(lipo)     H(rot)  DE(clash)    DE(int)     intcor
     14.04     -17.64       2.06        0.00      81.91       1.68       1.68       1.92       ----

> <Gold.Chemscore.Fitness>
14.0361

> <Gold.Chemscore.DG>
-17.6356

> <Gold.Chemscore.ZeroCoef>
-5.4800

> <Gold.Chemscore.Hbond>
2.0606

> <Gold.Chemscore.Metal>
0.0000

> <Gold.Chemscore.Lipo>
81.9139

> <Gold.Chemscore.Internal_Hbond>
0.0000

> <Gold.Chemscore.DEClash>
1.6826

> <Gold.Chemscore.DEInternal>
1.9169

> <Gold.Chemscore.Rot>
1.6839

> <Gold.Chemscore.Internal.Correction>
   9.000000E+99

> <Gold.Chemscore.Hbonds>
donor molecule, donor type, donor heavy atom, donor atom, acceptor molecule, acceptor atom, score
      L1  H    14    38       P1  7948  0.98
      P1  H  7989  7998       L1     8  0.02
      P1  H  7997  8009       L1     5  0.04

> <Gold.Chemscore.Hbond.Weighted>
-6.8825

> <Gold.Chemscore.Metal.Weighted>
-0.0000

> <Gold.Chemscore.Lipo.Weighted>
-9.5839

> <Gold.Chemscore.Internal_Hbond.Weighted>
0.0000

> <Gold.Chemscore.DEClash.Weighted>
1.6826

> <Gold.Chemscore.DEInternal.Weighted>
1.9169

> <Gold.Chemscore.Rot.Weighted>
4.3108

> <Gold.Chemscore.Internal.Correction.Weighted>
   9.000000E+99

> <Gold.Protein.RotatedTorsions>
[ 6907 6896 6895 6894 ] final  -53.46 input  -60.11 | X-H torsion
[ 7974 7965 7964 7962 ] final   88.71 input  175.53 | X-H torsion
[ 8008 7997 7996 7995 ] final  164.49 input   59.86 | X-H torsion
[ 10167 10162 10161 10158 ] final  136.04 input  -65.29 | X-H torsion
[ 10718 10713 10712 10709 ] final   29.48 input   66.30 | X-H torsion
[ 10763 10752 10751 10750 ] final   53.82 input  -60.55 | X-H torsion
[ 11005 11000 10999 10996 ] final -178.81 input  -57.11 | X-H torsion

> <Gold.Protein.ActiveResidues>
 VAL166  LYS551  ARG553  GLY616  TRP617  ASP618  TYR619  PRO620  LYS621  CYS622 
 ASP623  PHE694  ASN695  SER759  ASP760  ASP761  ALA762  ILE779  LEU786  VAL792 
 PHE793  MET794  SER795  GLU796  ALA797  LYS798  CYS799  TRP800  GLU811  SER814 

> <Gold.Protein.RotatedAtoms>
  150.8425  134.7722  159.6943 H   0  0  0  0  0  0  0  0  0  0  0  0  # atno 6907 bound_to 6896
  152.4509  134.5392  159.9844 H   0  0  0  0  0  0  0  0  0  0  0  0  # atno 6908 bound_to 6896
  151.5529  133.3377  159.2992 H   0  0  0  0  0  0  0  0  0  0  0  0  # atno 6909 bound_to 6896
  145.5420  139.2289  143.2560 H   0  0  0  0  0  0  0  0  0  0  0  0  # atno 7974 bound_to 7965
  156.1875  140.1695  156.8156 H   0  0  0  0  0  0  0  0  0  0  0  0  # atno 8008 bound_to 7997
  154.5432  140.0732  156.8577 H   0  0  0  0  0  0  0  0  0  0  0  0  # atno 8009 bound_to 7997
  155.3174  140.3371  155.4244 H   0  0  0  0  0  0  0  0  0  0  0  0  # atno 8010 bound_to 7997
  139.5194  144.6485  151.5370 H   0  0  0  0  0  0  0  0  0  0  0  0  # atno 10167 bound_to 10162
  157.2471  130.7097  149.6387 H   0  0  0  0  0  0  0  0  0  0  0  0  # atno 10718 bound_to 10713
  152.9798  135.5766  154.4803 H   0  0  0  0  0  0  0  0  0  0  0  0  # atno 10763 bound_to 10752
  154.4353  135.2774  155.1887 H   0  0  0  0  0  0  0  0  0  0  0  0  # atno 10764 bound_to 10752
  154.3578  135.6195  153.5729 H   0  0  0  0  0  0  0  0  0  0  0  0  # atno 10765 bound_to 10752
  140.4257  134.6565  157.4686 H   0  0  0  0  0  0  0  0  0  0  0  0  # atno 11005 bound_to 11000
  146.1974  140.6241  142.9118 LP  0  0  0  0  0  0  0  0  0  0  0  0  # atno 17320 bound_to 7965
  144.7572  140.5335  143.6761 LP  0  0  0  0  0  0  0  0  0  0  0  0  # atno 17321 bound_to 7965
  140.6280  143.9131  150.6581 LP  0  0  0  0  0  0  0  0  0  0  0  0  # atno 17342 bound_to 10162
  140.2426  143.3652  152.1474 LP  0  0  0  0  0  0  0  0  0  0  0  0  # atno 17343 bound_to 10162
  155.9667  130.4439  150.5441 LP  0  0  0  0  0  0  0  0  0  0  0  0  # atno 17370 bound_to 10713
  157.3317  131.0701  151.1855 LP  0  0  0  0  0  0  0  0  0  0  0  0  # atno 17371 bound_to 10713
  140.0169  134.6605  155.9296 LP  0  0  0  0  0  0  0  0  0  0  0  0  # atno 17394 bound_to 11000
  141.1766  133.6541  156.4853 LP  0  0  0  0  0  0  0  0  0  0  0  0  # atno 17395 bound_to 11000

$$$$
