AV-unprocessed.smi:830|AV-procd|sdf|3871|dock1
  -GOLD-   22720 1323D 1   1.00000     0.00000
 Structure written by MMmdl.
 52 54  0  0  0  0  0  0  0  0  1 V2000
  156.0626  136.6488  158.5476 C   0  0  0  0  0  0  0  0  0  0  0  0
  155.7010  137.2980  159.8941 C   0  0  1  0  0  0  0  0  0  0  0  0
  155.1152  138.6098  159.6242 N   0  0  0  0  0  0  0  0  0  0  0  0
  154.5833  139.4208  160.5508 C   0  0  0  0  0  0  0  0  0  0  0  0
  154.5775  139.1613  161.7540 O   0  0  0  0  0  0  0  0  0  0  0  0
  154.0812  140.5333  159.9886 N   0  0  0  0  0  0  0  0  0  0  0  0
  153.4516  141.6501  160.6119 C   0  0  0  0  0  0  0  0  0  0  0  0
  153.6664  141.9789  161.9737 C   0  0  0  0  0  0  0  0  0  0  0  0
  153.0336  143.1087  162.5199 C   0  0  0  0  0  0  0  0  0  0  0  0
  152.2019  143.8732  161.6857 C   0  0  0  0  0  0  0  0  0  0  0  0
  151.9694  143.5635  160.3950 N   0  0  0  0  0  0  0  0  0  0  0  0
  152.5605  142.4676  159.8584 C   0  0  0  0  0  0  0  0  0  0  0  0
  152.2540  142.1699  158.5111 N   0  0  0  0  0  0  0  0  0  0  0  0
  151.6725  140.8608  158.2284 C   0  0  0  0  0  0  0  0  0  0  0  0
  150.6345  141.0765  157.1219 C   0  0  0  0  0  0  0  0  0  0  0  0
  151.0700  142.3852  156.4708 C   0  0  0  0  0  0  0  0  0  0  0  0
  151.6200  143.1701  157.6583 C   0  0  0  0  0  0  0  0  0  0  0  0
  154.6747  136.3993  160.6011 C   0  0  0  0  0  0  0  0  0  0  0  0
  153.6220  136.0900  160.0402 O   0  0  0  0  0  0  0  0  0  0  0  0
  155.0043  135.9777  161.8311 N   0  0  0  0  0  0  0  0  0  0  0  0
  154.1742  135.1253  162.6776 C   0  0  0  0  0  0  0  0  0  0  0  0
  153.7716  135.8617  163.9698 C   0  0  0  0  0  0  0  0  0  0  0  0
  154.0588  134.8913  165.1169 C   0  0  0  0  0  0  0  0  0  0  0  0
  155.2257  134.0477  164.6129 C   0  0  0  0  0  0  0  0  0  0  0  0
  154.9346  133.8603  163.1237 C   0  0  0  0  0  0  0  0  0  0  0  0
  156.4942  135.6571  158.6898 H   0  0  0  0  0  0  0  0  0  0  0  0
  156.8000  137.2486  158.0131 H   0  0  0  0  0  0  0  0  0  0  0  0
  155.1921  136.5428  157.8979 H   0  0  0  0  0  0  0  0  0  0  0  0
  156.6017  137.4040  160.5024 H   0  0  0  0  0  0  0  0  0  0  0  0
  155.0800  138.9010  158.6584 H   0  0  0  0  0  0  0  0  0  0  0  0
  154.2360  140.6315  158.9959 H   0  0  0  0  0  0  0  0  0  0  0  0
  154.2970  141.3839  162.6153 H   0  0  0  0  0  0  0  0  0  0  0  0
  153.1849  143.3829  163.5533 H   0  0  0  0  0  0  0  0  0  0  0  0
  151.7025  144.7519  162.0662 H   0  0  0  0  0  0  0  0  0  0  0  0
  152.4608  140.1964  157.8735 H   0  0  0  0  0  0  0  0  0  0  0  0
  151.2224  140.4092  159.1139 H   0  0  0  0  0  0  0  0  0  0  0  0
  150.5849  140.2448  156.4188 H   0  0  0  0  0  0  0  0  0  0  0  0
  149.6457  141.2006  157.5658 H   0  0  0  0  0  0  0  0  0  0  0  0
  151.8635  142.1958  155.7465 H   0  0  0  0  0  0  0  0  0  0  0  0
  150.2568  142.9006  155.9589 H   0  0  0  0  0  0  0  0  0  0  0  0
  150.7966  143.6623  158.1770 H   0  0  0  0  0  0  0  0  0  0  0  0
  152.3331  143.9333  157.3451 H   0  0  0  0  0  0  0  0  0  0  0  0
  155.8884  136.2795  162.2142 H   0  0  0  0  0  0  0  0  0  0  0  0
  153.2732  134.8347  162.1336 H   0  0  0  0  0  0  0  0  0  0  0  0
  154.3760  136.7602  164.1062 H   0  0  0  0  0  0  0  0  0  0  0  0
  152.7275  136.1769  163.9552 H   0  0  0  0  0  0  0  0  0  0  0  0
  154.2817  135.4025  166.0540 H   0  0  0  0  0  0  0  0  0  0  0  0
  153.1905  134.2525  165.2836 H   0  0  0  0  0  0  0  0  0  0  0  0
  156.1588  134.5983  164.7390 H   0  0  0  0  0  0  0  0  0  0  0  0
  155.3216  133.1006  165.1448 H   0  0  0  0  0  0  0  0  0  0  0  0
  154.2900  132.9905  162.9904 H   0  0  0  0  0  0  0  0  0  0  0  0
  155.8438  133.6727  162.5503 H   0  0  0  0  0  0  0  0  0  0  0  0
  1  2  1  0  0  0  0
  1 26  1  0  0  0  0
  1 27  1  0  0  0  0
  1 28  1  0  0  0  0
  2  3  1  0  0  0  0
  2 18  1  0  0  0  0
  2 29  1  0  0  0  0
  3  4  1  0  0  0  0
  3 30  1  0  0  0  0
  4  5  2  0  0  0  0
  4  6  1  0  0  0  0
  6  7  1  0  0  0  0
  6 31  1  0  0  0  0
  7 12  1  0  0  0  0
  7  8  2  0  0  0  0
  8  9  1  0  0  0  0
  8 32  1  0  0  0  0
  9 10  2  0  0  0  0
  9 33  1  0  0  0  0
 10 11  1  0  0  0  0
 10 34  1  0  0  0  0
 11 12  2  0  0  0  0
 12 13  1  0  0  0  0
 13 17  1  0  0  0  0
 13 14  1  0  0  0  0
 14 15  1  0  0  0  0
 14 35  1  0  0  0  0
 14 36  1  0  0  0  0
 15 16  1  0  0  0  0
 15 37  1  0  0  0  0
 15 38  1  0  0  0  0
 16 17  1  0  0  0  0
 16 39  1  0  0  0  0
 16 40  1  0  0  0  0
 17 41  1  0  0  0  0
 17 42  1  0  0  0  0
 18 19  2  0  0  0  0
 18 20  1  0  0  0  0
 20 21  1  0  0  0  0
 20 43  1  0  0  0  0
 21 25  1  0  0  0  0
 21 22  1  0  0  0  0
 21 44  1  0  0  0  0
 22 23  1  0  0  0  0
 22 45  1  0  0  0  0
 22 46  1  0  0  0  0
 23 24  1  0  0  0  0
 23 47  1  0  0  0  0
 23 48  1  0  0  0  0
 24 25  1  0  0  0  0
 24 49  1  0  0  0  0
 24 50  1  0  0  0  0
 25 51  1  0  0  0  0
 25 52  1  0  0  0  0
M  END
> <s_m_source_file>
AV-unprocessed.smi

> <i_m_source_file_index>
830

> <i_lp_mmshare_version>
43012

> <i_f3d_flags>
0

> <s_epik_input>
W0NIMl0xW0NIMl1bQ0gyXVtDSDJdW0NIXTFbTkhdQyg9TylbQ0BIXShbQ0gzXSlbTkhdQyg9TylbTkhdYzJbY0hdW2NIXVtjSF1uYzJOM1tDSDJdW0NIMl1bQ0gyXVtDSDJdMw==

> <s_epik_cmdline>
J2VwaWtfcHl0aG9uJywgJy1waCcsICc3LjAnLCAnLXRuJywgJzgnLCAnLW1hJywgJzIwMCcsICctbWV0YWxfYmluZGluZycsICctaW1hZScsICc8aW5maWxlLm1hZT4nLCAnLW9tYWUnLCAnPG91dGZpbGUubWFlPic=

> <r_lp_tautomer_probability>
1

> <r_epik_Ionization_Penalty>
0.0827694

> <r_epik_Ionization_Penalty_Charging>
0

> <r_epik_Ionization_Penalty_Neutral>
0.0827694

> <r_epik_State_Penalty>
0.0729202

> <r_epik_Charging_Adjusted_Penalty>
0.0729202

> <i_epik_Tot_Q>
0

> <i_epik_Tot_abs_Q>
0

> <r_epik_Metal_State_Penalty>
0.0639723

> <b_epik_Metal_Only>
0

> <s_lp_Force_Field>
OPLS_2005

> <r_lp_Energy>
46.8553

> <b_lp_Chiralities_Consistent>
1

> <s_lp_Variant>
AV-unprocessed.smi:830-2

> <Gold.Version>
5.8.1

> <Gold.Id.Protein>
6NUR|6NUR_protein|mol2

> <Gold.PLP.Fitness>
45.2463

> <Gold.PLP.PLP>
-42.5850

> <Gold.PLP.part.hbond>
-1.0000

> <Gold.PLP.part.metal>
0.0000

> <Gold.PLP.part.buried>
-3.1062

> <Gold.PLP.part.nonpolar>
-37.4344

> <Gold.PLP.part.repulsive>
0.2291

> <Gold.PLP.ligand.clash>
0.0000

> <Gold.PLP.ligand.torsion>
0.3688

> <Gold.PLP.Chemscore.Hbond>
1.0000

> <Gold.PLP.Chemscore.CHOScore>
0.0000

> <Gold.PLP.Chemscore.Metal>
0.0000

> <Gold.Chemscore.Hbonds>
donor molecule, donor type, donor heavy atom, donor atom, acceptor molecule, acceptor atom, score
      P1  H  6896  6908       L1    19  1.00

> <Gold.PLP.Chemscore.Internal.Correction>
0.3989

> <Gold.Rescore>
     Score         DG    S(hbond)    S(metal)    S(lipo)     H(rot)  DE(clash)    DE(int)     intcor
     15.66     -18.31       0.98        0.00     117.53       1.64       0.39       2.25       ----

> <Gold.Chemscore.Fitness>
15.6617

> <Gold.Chemscore.DG>
-18.3055

> <Gold.Chemscore.ZeroCoef>
-5.4800

> <Gold.Chemscore.Hbond>
0.9784

> <Gold.Chemscore.Metal>
0.0000

> <Gold.Chemscore.Lipo>
117.5315

> <Gold.Chemscore.Internal_Hbond>
0.0000

> <Gold.Chemscore.DEClash>
0.3905

> <Gold.Chemscore.DEInternal>
2.2532

> <Gold.Chemscore.Rot>
1.6382

> <Gold.Chemscore.Internal.Correction>
   9.000000E+99

> <Gold.Chemscore.Hbonds>
donor molecule, donor type, donor heavy atom, donor atom, acceptor molecule, acceptor atom, score
      P1  H  6896  6908       L1    19  1.00

> <Gold.Chemscore.Hbond.Weighted>
-3.2680

> <Gold.Chemscore.Metal.Weighted>
-0.0000

> <Gold.Chemscore.Lipo.Weighted>
-13.7512

> <Gold.Chemscore.Internal_Hbond.Weighted>
0.0000

> <Gold.Chemscore.DEClash.Weighted>
0.3905

> <Gold.Chemscore.DEInternal.Weighted>
2.2532

> <Gold.Chemscore.Rot.Weighted>
4.1937

> <Gold.Chemscore.Internal.Correction.Weighted>
   9.000000E+99

> <Gold.Protein.RotatedTorsions>
[ 6907 6896 6895 6894 ] final  -83.55 input  -60.11 | X-H torsion
[ 7974 7965 7964 7962 ] final  -64.46 input  175.53 | X-H torsion
[ 8008 7997 7996 7995 ] final   69.15 input   59.86 | X-H torsion
[ 10167 10162 10161 10158 ] final -178.08 input  -65.29 | X-H torsion
[ 10718 10713 10712 10709 ] final -117.98 input   66.30 | X-H torsion
[ 10763 10752 10751 10750 ] final    0.68 input  -60.55 | X-H torsion
[ 11005 11000 10999 10996 ] final  -52.17 input  -57.11 | X-H torsion

> <Gold.Protein.ActiveResidues>
 VAL166  LYS551  ARG553  GLY616  TRP617  ASP618  TYR619  PRO620  LYS621  CYS622 
 ASP623  PHE694  ASN695  SER759  ASP760  ASP761  ALA762  ILE779  LEU786  VAL792 
 PHE793  MET794  SER795  GLU796  ALA797  LYS798  CYS799  TRP800  GLU811  SER814 

> <Gold.Protein.RotatedAtoms>
  150.6884  134.3494  159.4902 H   0  0  0  0  0  0  0  0  0  0  0  0  # atno 6907 bound_to 6896
  152.1337  134.9112  160.0566 H   0  0  0  0  0  0  0  0  0  0  0  0  # atno 6908 bound_to 6896
  152.0272  133.3888  159.4319 H   0  0  0  0  0  0  0  0  0  0  0  0  # atno 6909 bound_to 6896
  145.7664  140.8835  143.0403 H   0  0  0  0  0  0  0  0  0  0  0  0  # atno 7974 bound_to 7965
  155.7193  140.3493  155.5008 H   0  0  0  0  0  0  0  0  0  0  0  0  # atno 8008 bound_to 7997
  155.9284  140.1080  157.1173 H   0  0  0  0  0  0  0  0  0  0  0  0  # atno 8009 bound_to 7997
  154.4081  140.1236  156.4758 H   0  0  0  0  0  0  0  0  0  0  0  0  # atno 8010 bound_to 7997
  139.5449  144.2262  152.0969 H   0  0  0  0  0  0  0  0  0  0  0  0  # atno 10167 bound_to 10162
  156.1073  130.6220  150.9232 H   0  0  0  0  0  0  0  0  0  0  0  0  # atno 10718 bound_to 10713
  153.3176  135.6967  153.7059 H   0  0  0  0  0  0  0  0  0  0  0  0  # atno 10763 bound_to 10752
  153.5911  135.3479  155.2912 H   0  0  0  0  0  0  0  0  0  0  0  0  # atno 10764 bound_to 10752
  154.8590  135.4318  154.2332 H   0  0  0  0  0  0  0  0  0  0  0  0  # atno 10765 bound_to 10752
  141.0910  133.6633  156.3985 H   0  0  0  0  0  0  0  0  0  0  0  0  # atno 11005 bound_to 11000
  144.6820  139.9795  143.7483 LP  0  0  0  0  0  0  0  0  0  0  0  0  # atno 17320 bound_to 7965
  146.0213  139.3253  143.0811 LP  0  0  0  0  0  0  0  0  0  0  0  0  # atno 17321 bound_to 7965
  140.1746  144.4902  150.6561 LP  0  0  0  0  0  0  0  0  0  0  0  0  # atno 17342 bound_to 10162
  140.6694  143.2280  151.5663 LP  0  0  0  0  0  0  0  0  0  0  0  0  # atno 17343 bound_to 10162
  157.6250  131.0926  150.8550 LP  0  0  0  0  0  0  0  0  0  0  0  0  # atno 17370 bound_to 10713
  156.8667  130.5132  149.5299 LP  0  0  0  0  0  0  0  0  0  0  0  0  # atno 17371 bound_to 10713
  140.5252  134.6266  157.5331 LP  0  0  0  0  0  0  0  0  0  0  0  0  # atno 17394 bound_to 11000
  139.9736  134.7252  155.9993 LP  0  0  0  0  0  0  0  0  0  0  0  0  # atno 17395 bound_to 11000

$$$$
