AV-unprocessed.smi:1874|AV-procd|sdf|7611|dock10
  -GOLD-   22720 9333D 1   1.00000     0.00000
 Structure written by MMmdl.
 45 46  0  0  0  0  0  0  0  0  1 V2000
  145.2673  144.3441  153.1438 C   0  0  0  0  0  0  0  0  0  0  0  0
  145.2428  143.6053  154.4839 C   0  0  0  0  0  0  0  0  0  0  0  0
  144.7128  144.1660  155.4433 O   0  0  0  0  0  0  0  0  0  0  0  0
  145.8008  142.3740  154.5723 N   0  0  0  0  0  0  0  0  0  0  0  0
  146.5188  141.6863  153.4920 C   0  0  0  0  0  0  0  0  0  0  0  0
  148.0196  141.6612  153.8317 C   0  0  0  0  0  0  0  0  0  0  0  0
  148.2742  141.0069  155.2097 C   0  0  0  0  0  0  0  0  0  0  0  0
  149.6690  141.1731  155.6058 N   0  0  0  0  0  0  0  0  0  0  0  0
  150.1964  140.7747  156.7730 C   0  0  0  0  0  0  0  0  0  0  0  0
  149.5369  140.2285  157.6589 O   0  0  0  0  0  0  0  0  0  0  0  0
  151.6956  141.0526  156.9604 C   0  0  0  0  0  0  0  0  0  0  0  0
  152.0113  141.7314  158.2260 N   0  0  0  0  0  0  0  0  0  0  0  0
  151.2756  142.8796  158.4472 N   0  0  0  0  0  0  0  0  0  0  0  0
  151.4154  143.5703  159.5306 C   0  0  0  0  0  0  0  0  0  0  0  0
  150.5566  144.7990  159.6641 C   0  0  0  0  0  0  0  0  0  0  0  0
  152.3705  143.1377  160.5458 C   0  0  0  0  0  0  0  0  0  0  0  0
  152.4881  143.9872  161.8038 C   0  0  0  0  0  0  0  0  0  0  0  0
  153.0975  142.0168  160.3110 C   0  0  0  0  0  0  0  0  0  0  0  0
  154.0581  141.5210  161.2429 C   0  0  0  0  0  0  0  0  0  0  0  0
  154.8411  141.1391  162.0053 N   0  0  0  0  0  0  0  0  0  0  0  0
  152.9464  141.2307  159.0844 C   0  0  0  0  0  0  0  0  0  0  0  0
  153.5907  140.2094  158.8392 O   0  0  0  0  0  0  0  0  0  0  0  0
  147.3532  141.6026  156.2962 C   0  0  0  0  0  0  0  0  0  0  0  0
  145.8852  141.6303  155.8343 C   0  0  0  0  0  0  0  0  0  0  0  0
  146.2921  144.4928  152.8021 H   0  0  0  0  0  0  0  0  0  0  0  0
  144.8027  145.3262  153.2387 H   0  0  0  0  0  0  0  0  0  0  0  0
  144.7161  143.7873  152.3857 H   0  0  0  0  0  0  0  0  0  0  0  0
  146.1415  140.6664  153.4037 H   0  0  0  0  0  0  0  0  0  0  0  0
  146.3684  142.1356  152.5117 H   0  0  0  0  0  0  0  0  0  0  0  0
  148.5653  141.1261  153.0536 H   0  0  0  0  0  0  0  0  0  0  0  0
  148.4030  142.6828  153.8301 H   0  0  0  0  0  0  0  0  0  0  0  0
  148.0464  139.9419  155.1328 H   0  0  0  0  0  0  0  0  0  0  0  0
  150.2810  141.6188  154.9377 H   0  0  0  0  0  0  0  0  0  0  0  0
  152.2488  140.1137  156.8927 H   0  0  0  0  0  0  0  0  0  0  0  0
  152.0364  141.6536  156.1152 H   0  0  0  0  0  0  0  0  0  0  0  0
  151.1665  145.6807  159.8630 H   0  0  0  0  0  0  0  0  0  0  0  0
  149.8468  144.6857  160.4838 H   0  0  0  0  0  0  0  0  0  0  0  0
  149.9834  144.9945  158.7564 H   0  0  0  0  0  0  0  0  0  0  0  0
  153.1456  143.5359  162.5461 H   0  0  0  0  0  0  0  0  0  0  0  0
  151.5129  144.1194  162.2735 H   0  0  0  0  0  0  0  0  0  0  0  0
  152.8896  144.9714  161.5614 H   0  0  0  0  0  0  0  0  0  0  0  0
  147.4420  141.0280  157.2188 H   0  0  0  0  0  0  0  0  0  0  0  0
  147.6700  142.6195  156.5337 H   0  0  0  0  0  0  0  0  0  0  0  0
  145.2572  142.0557  156.6182 H   0  0  0  0  0  0  0  0  0  0  0  0
  145.5201  140.6137  155.6814 H   0  0  0  0  0  0  0  0  0  0  0  0
  1  2  1  0  0  0  0
  1 25  1  0  0  0  0
  1 26  1  0  0  0  0
  1 27  1  0  0  0  0
  2  3  2  0  0  0  0
  2  4  1  0  0  0  0
  4 24  1  0  0  0  0
  4  5  1  0  0  0  0
  5  6  1  0  0  0  0
  5 28  1  0  0  0  0
  5 29  1  0  0  0  0
  6  7  1  0  0  0  0
  6 30  1  0  0  0  0
  6 31  1  0  0  0  0
  7  8  1  0  0  0  0
  7 23  1  0  0  0  0
  7 32  1  0  0  0  0
  8  9  1  0  0  0  0
  8 33  1  0  0  0  0
  9 10  2  0  0  0  0
  9 11  1  0  0  0  0
 11 12  1  0  0  0  0
 11 34  1  0  0  0  0
 11 35  1  0  0  0  0
 12 21  1  0  0  0  0
 12 13  1  0  0  0  0
 13 14  2  0  0  0  0
 14 15  1  0  0  0  0
 14 16  1  0  0  0  0
 15 36  1  0  0  0  0
 15 37  1  0  0  0  0
 15 38  1  0  0  0  0
 16 17  1  0  0  0  0
 16 18  2  0  0  0  0
 17 39  1  0  0  0  0
 17 40  1  0  0  0  0
 17 41  1  0  0  0  0
 18 19  1  0  0  0  0
 18 21  1  0  0  0  0
 19 20  3  0  0  0  0
 21 22  2  0  0  0  0
 23 24  1  0  0  0  0
 23 42  1  0  0  0  0
 23 43  1  0  0  0  0
 24 44  1  0  0  0  0
 24 45  1  0  0  0  0
M  END
> <s_m_source_file>
AV-unprocessed.smi

> <i_m_source_file_index>
1874

> <i_lp_mmshare_version>
43012

> <i_f3d_flags>
0

> <s_epik_input>
W0NIM11DKD1PKU4xW0NIMl1bQ0gyXVtDSF0oW0NIMl1bQ0gyXTEpW05IXUMoPU8pW0NIMl1uMm5jKFtDSDNdKWMoW0NIM10pYyhDI04pYzI9Tw==

> <s_epik_cmdline>
J2VwaWtfcHl0aG9uJywgJy1waCcsICc3LjAnLCAnLXRuJywgJzgnLCAnLW1hJywgJzIwMCcsICctbWV0YWxfYmluZGluZycsICctaW1hZScsICc8aW5maWxlLm1hZT4nLCAnLW9tYWUnLCAnPG91dGZpbGUubWFlPic=

> <r_lp_tautomer_probability>
1

> <r_epik_Ionization_Penalty>
1.12408e-06

> <r_epik_Ionization_Penalty_Charging>
2.25008e-11

> <r_epik_Ionization_Penalty_Neutral>
1.12405e-06

> <r_epik_State_Penalty>
-0

> <r_epik_Charging_Adjusted_Penalty>
2.25008e-11

> <i_epik_Tot_Q>
0

> <i_epik_Tot_abs_Q>
0

> <r_epik_Metal_State_Penalty>
-0

> <b_epik_Metal_Only>
0

> <s_lp_Force_Field>
OPLS_2005

> <r_lp_Energy>
36.4073

> <b_lp_Chiralities_Consistent>
1

> <s_lp_Variant>
AV-unprocessed.smi:1874-1

> <Gold.Version>
5.8.1

> <Gold.Id.Protein>
6NUR|6NUR_protein|mol2

> <Gold.PLP.Fitness>
50.3553

> <Gold.PLP.PLP>
-47.7728

> <Gold.PLP.part.hbond>
-2.0000

> <Gold.PLP.part.metal>
0.0000

> <Gold.PLP.part.buried>
-6.7123

> <Gold.PLP.part.nonpolar>
-37.5844

> <Gold.PLP.part.repulsive>
0.3082

> <Gold.PLP.ligand.clash>
0.0000

> <Gold.PLP.ligand.torsion>
0.1692

> <Gold.PLP.Chemscore.Hbond>
0.9675

> <Gold.PLP.Chemscore.CHOScore>
0.0000

> <Gold.PLP.Chemscore.Metal>
0.0000

> <Gold.Chemscore.Hbonds>
donor molecule, donor type, donor heavy atom, donor atom, acceptor molecule, acceptor atom, score
      P1  H  7997  8009       L1    22  0.94

> <Gold.PLP.Chemscore.Internal.Correction>
0.0186

> <Gold.Rescore>
     Score         DG    S(hbond)    S(metal)    S(lipo)     H(rot)  DE(clash)    DE(int)     intcor
     13.71     -15.31       0.97        0.00      90.95       1.58       0.13       1.47       ----

> <Gold.Chemscore.Fitness>
13.7095

> <Gold.Chemscore.DG>
-15.3100

> <Gold.Chemscore.ZeroCoef>
-5.4800

> <Gold.Chemscore.Hbond>
0.9689

> <Gold.Chemscore.Metal>
0.0000

> <Gold.Chemscore.Lipo>
90.9462

> <Gold.Chemscore.Internal_Hbond>
0.0000

> <Gold.Chemscore.DEClash>
0.1299

> <Gold.Chemscore.DEInternal>
1.4707

> <Gold.Chemscore.Rot>
1.5808

> <Gold.Chemscore.Internal.Correction>
   9.000000E+99

> <Gold.Chemscore.Hbonds>
donor molecule, donor type, donor heavy atom, donor atom, acceptor molecule, acceptor atom, score
      P1  H  7997  8009       L1    22  0.83

> <Gold.Chemscore.Hbond.Weighted>
-3.2362

> <Gold.Chemscore.Metal.Weighted>
-0.0000

> <Gold.Chemscore.Lipo.Weighted>
-10.6407

> <Gold.Chemscore.Internal_Hbond.Weighted>
0.0000

> <Gold.Chemscore.DEClash.Weighted>
0.1299

> <Gold.Chemscore.DEInternal.Weighted>
1.4707

> <Gold.Chemscore.Rot.Weighted>
4.0469

> <Gold.Chemscore.Internal.Correction.Weighted>
   9.000000E+99

> <Gold.Protein.RotatedTorsions>
[ 6907 6896 6895 6894 ] final  163.11 input  -60.11 | X-H torsion
[ 7974 7965 7964 7962 ] final    4.27 input  175.53 | X-H torsion
[ 8008 7997 7996 7995 ] final  144.06 input   59.86 | X-H torsion
[ 10167 10162 10161 10158 ] final -134.10 input  -65.29 | X-H torsion
[ 10718 10713 10712 10709 ] final  -94.12 input   66.30 | X-H torsion
[ 10763 10752 10751 10750 ] final  148.98 input  -60.55 | X-H torsion
[ 11005 11000 10999 10996 ] final -113.82 input  -57.11 | X-H torsion

> <Gold.Protein.ActiveResidues>
 VAL166  LYS551  ARG553  GLY616  TRP617  ASP618  TYR619  PRO620  LYS621  CYS622 
 ASP623  PHE694  ASN695  SER759  ASP760  ASP761  ALA762  ILE779  LEU786  VAL792 
 PHE793  MET794  SER795  GLU796  ALA797  LYS798  CYS799  TRP800  GLU811  SER814 

> <Gold.Protein.RotatedAtoms>
  151.9302  133.3609  159.3927 H   0  0  0  0  0  0  0  0  0  0  0  0  # atno 6907 bound_to 6896
  150.7018  134.4545  159.5361 H   0  0  0  0  0  0  0  0  0  0  0  0  # atno 6908 bound_to 6896
  152.2184  134.8436  160.0540 H   0  0  0  0  0  0  0  0  0  0  0  0  # atno 6909 bound_to 6896
  146.2444  140.0560  142.8371 H   0  0  0  0  0  0  0  0  0  0  0  0  # atno 7974 bound_to 7965
  156.2916  140.2246  156.4992 H   0  0  0  0  0  0  0  0  0  0  0  0  # atno 8008 bound_to 7997
  154.7704  140.0467  157.1068 H   0  0  0  0  0  0  0  0  0  0  0  0  # atno 8009 bound_to 7997
  154.9881  140.3086  155.4921 H   0  0  0  0  0  0  0  0  0  0  0  0  # atno 8010 bound_to 7997
  139.8915  143.6717  152.2611 H   0  0  0  0  0  0  0  0  0  0  0  0  # atno 10167 bound_to 10162
  156.0022  130.5055  150.5879 H   0  0  0  0  0  0  0  0  0  0  0  0  # atno 10718 bound_to 10713
  154.0636  135.2872  155.3320 H   0  0  0  0  0  0  0  0  0  0  0  0  # atno 10763 bound_to 10752
  154.6792  135.5270  153.8244 H   0  0  0  0  0  0  0  0  0  0  0  0  # atno 10764 bound_to 10752
  153.0513  135.6577  154.0822 H   0  0  0  0  0  0  0  0  0  0  0  0  # atno 10765 bound_to 10752
  141.0591  133.9565  157.2700 H   0  0  0  0  0  0  0  0  0  0  0  0  # atno 11005 bound_to 11000
  145.0942  140.9304  143.4751 LP  0  0  0  0  0  0  0  0  0  0  0  0  # atno 17320 bound_to 7965
  145.0739  139.3010  143.5818 LP  0  0  0  0  0  0  0  0  0  0  0  0  # atno 17321 bound_to 7965
  139.7106  144.7621  151.1119 LP  0  0  0  0  0  0  0  0  0  0  0  0  # atno 17342 bound_to 10162
  140.7725  143.5336  150.9394 LP  0  0  0  0  0  0  0  0  0  0  0  0  # atno 17343 bound_to 10162
  157.3748  131.0771  151.1527 LP  0  0  0  0  0  0  0  0  0  0  0  0  # atno 17370 bound_to 10713
  157.2268  130.6507  149.5833 LP  0  0  0  0  0  0  0  0  0  0  0  0  # atno 17371 bound_to 10713
  139.9416  135.0190  156.8726 LP  0  0  0  0  0  0  0  0  0  0  0  0  # atno 17394 bound_to 11000
  140.5905  134.0266  155.7498 LP  0  0  0  0  0  0  0  0  0  0  0  0  # atno 17395 bound_to 11000

$$$$
