AV-unprocessed.smi:2046|AV-procd|sdf|8313|dock2
  -GOLD-   2272010583D 1   1.00000     0.00000
 Structure written by MMmdl.
 29 30  0  0  0  0  0  0  0  0  2 V2000
  151.8668  140.5644  155.6275 O   0  0  0  0  0  0  0  0  0  0  0  0
  150.7096  140.3140  155.9727 C   0  0  0  0  0  0  0  0  0  0  0  0
  149.8297  139.5253  155.3144 N   0  5  0  0  0  0  0  0  0  0  0  0
  148.7608  140.0697  154.7100 C   0  0  0  0  0  0  0  0  0  0  0  0
  148.4874  141.3824  154.7793 N   0  0  0  0  0  0  0  0  0  0  0  0
  147.3423  141.7394  154.0798 N   0  0  0  0  0  0  0  0  0  0  0  0
  146.7841  140.6825  153.4899 C   0  0  0  0  0  0  0  0  0  0  0  0
  147.6064  139.1563  153.7345 S   0  0  0  0  0  0  0  0  0  0  0  0
  150.2170  140.8467  157.1016 N   0  0  0  0  0  0  0  0  0  0  0  0
  150.9223  141.7476  158.0161 C   0  0  2  0  0  0  0  0  0  0  0  0
  151.1714  143.0847  157.2736 C   0  0  0  0  0  0  0  0  0  0  0  0
  152.2316  144.0262  157.8880 C   0  0  0  0  0  0  0  0  0  0  0  0
  152.1528  144.1931  159.4194 C   0  0  0  0  0  0  0  0  0  0  0  0
  152.3401  142.9106  160.2709 C   0  0  0  0  0  0  0  0  0  0  0  0
  152.8670  141.7582  159.5394 N   0  0  0  0  0  0  0  0  0  0  0  0
  152.2657  141.1555  158.4994 C   0  0  0  0  0  0  0  0  0  0  0  0
  152.7790  140.1897  157.9355 O   0  0  0  0  0  0  0  0  0  0  0  0
  145.8844  140.8027  152.9053 H   0  0  0  0  0  0  0  0  0  0  0  0
  149.2632  140.6178  157.3389 H   0  0  0  0  0  0  0  0  0  0  0  0
  150.2764  141.9290  158.8760 H   0  0  0  0  0  0  0  0  0  0  0  0
  151.4616  142.8868  156.2405 H   0  0  0  0  0  0  0  0  0  0  0  0
  150.2224  143.6188  157.2129 H   0  0  0  0  0  0  0  0  0  0  0  0
  153.2297  143.6794  157.6166 H   0  0  0  0  0  0  0  0  0  0  0  0
  152.1380  145.0062  157.4192 H   0  0  0  0  0  0  0  0  0  0  0  0
  152.9197  144.9108  159.7129 H   0  0  0  0  0  0  0  0  0  0  0  0
  151.2041  144.6611  159.6840 H   0  0  0  0  0  0  0  0  0  0  0  0
  153.0139  143.1218  161.1015 H   0  0  0  0  0  0  0  0  0  0  0  0
  151.3935  142.6280  160.7334 H   0  0  0  0  0  0  0  0  0  0  0  0
  153.7502  141.3825  159.8525 H   0  0  0  0  0  0  0  0  0  0  0  0
  1  2  2  0  0  0  0
  2  3  1  0  0  0  0
  2  9  1  0  0  0  0
  3  4  1  0  0  0  0
  4  8  1  0  0  0  0
  4  5  2  0  0  0  0
  5  6  1  0  0  0  0
  6  7  2  0  0  0  0
  7  8  1  0  0  0  0
  7 18  1  0  0  0  0
  9 10  1  0  0  0  0
  9 19  1  0  0  0  0
 10 16  1  0  0  0  0
 10 11  1  0  0  0  0
 10 20  1  0  0  0  0
 11 12  1  0  0  0  0
 11 21  1  0  0  0  0
 11 22  1  0  0  0  0
 12 13  1  0  0  0  0
 12 23  1  0  0  0  0
 12 24  1  0  0  0  0
 13 14  1  0  0  0  0
 13 25  1  0  0  0  0
 13 26  1  0  0  0  0
 14 15  1  0  0  0  0
 14 27  1  0  0  0  0
 14 28  1  0  0  0  0
 15 16  1  0  0  0  0
 15 29  1  0  0  0  0
 16 17  2  0  0  0  0
M  CHG  1   3  -1
M  END
> <s_m_source_file>
AV-unprocessed.smi

> <i_m_source_file_index>
2046

> <i_lp_mmshare_version>
43012

> <i_f3d_flags>
0

> <s_epik_input>
czFbY0hdbm5jMVtOSF1DKD1PKVtOSF1bQ0BASF0yW0NIMl1bQ0gyXVtDSDJdW0NIMl1bTkhdQzI9Tw==

> <s_epik_cmdline>
J2VwaWtfcHl0aG9uJywgJy1waCcsICc3LjAnLCAnLXRuJywgJzgnLCAnLW1hJywgJzIwMCcsICctbWV0YWxfYmluZGluZycsICctaW1hZScsICc8aW5maWxlLm1hZT4nLCAnLW9tYWUnLCAnPG91dGZpbGUubWFlPic=

> <r_lp_tautomer_probability>
1

> <r_epik_Ionization_Penalty>
4.05949

> <r_epik_Ionization_Penalty_Charging>
4.01916

> <r_epik_Ionization_Penalty_Neutral>
0.0403285

> <r_epik_State_Penalty>
4.01849

> <r_epik_Charging_Adjusted_Penalty>
8.03765

> <i_epik_Tot_Q>
-1

> <i_epik_Tot_abs_Q>
1

> <r_epik_Metal_State_Penalty>
0.626741

> <b_epik_Metal_Only>
1

> <s_lp_Force_Field>
OPLS_2005

> <r_lp_Energy>
13.487

> <b_lp_Chiralities_Consistent>
1

> <s_lp_Variant>
AV-unprocessed.smi:2046-3

> <Gold.Version>
5.8.1

> <Gold.Id.Protein>
6NUR|6NUR_protein|mol2

> <Gold.PLP.Fitness>
35.3392

> <Gold.PLP.PLP>
-29.5019

> <Gold.PLP.part.hbond>
-2.0000

> <Gold.PLP.part.metal>
0.0000

> <Gold.PLP.part.buried>
-1.7571

> <Gold.PLP.part.nonpolar>
-25.5610

> <Gold.PLP.part.repulsive>
0.4752

> <Gold.PLP.ligand.clash>
0.0000

> <Gold.PLP.ligand.torsion>
0.6993

> <Gold.PLP.Chemscore.Hbond>
1.4198

> <Gold.PLP.Chemscore.CHOScore>
0.9898

> <Gold.PLP.Chemscore.Metal>
0.0000

> <Gold.Chemscore.Hbonds>
donor molecule, donor type, donor heavy atom, donor atom, acceptor molecule, acceptor atom, score
      P1  H  7989  7998       L1     1  0.48
      P1  H  7997  8009       L1    17  1.00
      L1  C     7    18       P1 10175  1.00

> <Gold.PLP.Chemscore.Internal.Correction>
0.0070

> <Gold.Rescore>
     Score         DG    S(hbond)    S(metal)    S(lipo)     H(rot)  DE(clash)    DE(int)     intcor
      8.97     -14.80       1.17        0.00      68.11       1.00       0.37       5.46       ----

> <Gold.Chemscore.Fitness>
8.9743

> <Gold.Chemscore.DG>
-14.8005

> <Gold.Chemscore.ZeroCoef>
-5.4800

> <Gold.Chemscore.Hbond>
1.1713

> <Gold.Chemscore.Metal>
0.0000

> <Gold.Chemscore.Lipo>
68.1066

> <Gold.Chemscore.Internal_Hbond>
0.0000

> <Gold.Chemscore.DEClash>
0.3684

> <Gold.Chemscore.DEInternal>
5.4577

> <Gold.Chemscore.Rot>
1.0000

> <Gold.Chemscore.Internal.Correction>
   9.000000E+99

> <Gold.Chemscore.Hbonds>
donor molecule, donor type, donor heavy atom, donor atom, acceptor molecule, acceptor atom, score
      P1  H  7989  7998       L1     1  0.19
      P1  H  7997  8009       L1    17  0.91

> <Gold.Chemscore.Hbond.Weighted>
-3.9120

> <Gold.Chemscore.Metal.Weighted>
-0.0000

> <Gold.Chemscore.Lipo.Weighted>
-7.9685

> <Gold.Chemscore.Internal_Hbond.Weighted>
0.0000

> <Gold.Chemscore.DEClash.Weighted>
0.3684

> <Gold.Chemscore.DEInternal.Weighted>
5.4577

> <Gold.Chemscore.Rot.Weighted>
2.5600

> <Gold.Chemscore.Internal.Correction.Weighted>
   9.000000E+99

> <Gold.Protein.RotatedTorsions>
[ 6907 6896 6895 6894 ] final  138.18 input  -60.11 | X-H torsion
[ 7974 7965 7964 7962 ] final -134.02 input  175.53 | X-H torsion
[ 8008 7997 7996 7995 ] final  166.62 input   59.86 | X-H torsion
[ 10167 10162 10161 10158 ] final  126.64 input  -65.29 | X-H torsion
[ 10718 10713 10712 10709 ] final  -74.68 input   66.30 | X-H torsion
[ 10763 10752 10751 10750 ] final   16.35 input  -60.55 | X-H torsion
[ 11005 11000 10999 10996 ] final  131.45 input  -57.11 | X-H torsion

> <Gold.Protein.ActiveResidues>
 VAL166  LYS551  ARG553  GLY616  TRP617  ASP618  TYR619  PRO620  LYS621  CYS622 
 ASP623  PHE694  ASN695  SER759  ASP760  ASP761  ALA762  ILE779  LEU786  VAL792 
 PHE793  MET794  SER795  GLU796  ALA797  LYS798  CYS799  TRP800  GLU811  SER814 

> <Gold.Protein.RotatedAtoms>
  152.2696  133.5370  159.5430 H   0  0  0  0  0  0  0  0  0  0  0  0  # atno 6907 bound_to 6896
  150.7154  134.0717  159.3875 H   0  0  0  0  0  0  0  0  0  0  0  0  # atno 6908 bound_to 6896
  151.8632  135.0517  160.0522 H   0  0  0  0  0  0  0  0  0  0  0  0  # atno 6909 bound_to 6896
  144.9140  140.6931  143.5007 H   0  0  0  0  0  0  0  0  0  0  0  0  # atno 7974 bound_to 7965
  156.1703  140.1638  156.8459 H   0  0  0  0  0  0  0  0  0  0  0  0  # atno 8008 bound_to 7997
  154.5250  140.0769  156.8276 H   0  0  0  0  0  0  0  0  0  0  0  0  # atno 8009 bound_to 7997
  155.3526  140.3391  155.4242 H   0  0  0  0  0  0  0  0  0  0  0  0  # atno 8010 bound_to 7997
  139.5620  144.6888  151.4015 H   0  0  0  0  0  0  0  0  0  0  0  0  # atno 10167 bound_to 10162
  156.0234  130.4422  150.2929 H   0  0  0  0  0  0  0  0  0  0  0  0  # atno 10718 bound_to 10713
  153.1439  135.6765  153.8984 H   0  0  0  0  0  0  0  0  0  0  0  0  # atno 10763 bound_to 10752
  153.8432  135.3102  155.3429 H   0  0  0  0  0  0  0  0  0  0  0  0  # atno 10764 bound_to 10752
  154.7810  135.4888  153.9928 H   0  0  0  0  0  0  0  0  0  0  0  0  # atno 10765 bound_to 10752
  139.9731  134.9571  156.9440 H   0  0  0  0  0  0  0  0  0  0  0  0  # atno 11005 bound_to 11000
  145.3407  139.1733  143.4487 LP  0  0  0  0  0  0  0  0  0  0  0  0  # atno 17320 bound_to 7965
  146.3172  140.3447  142.8651 LP  0  0  0  0  0  0  0  0  0  0  0  0  # atno 17321 bound_to 7965
  140.6901  143.7881  150.7243 LP  0  0  0  0  0  0  0  0  0  0  0  0  # atno 17342 bound_to 10162
  140.1361  143.4482  152.2223 LP  0  0  0  0  0  0  0  0  0  0  0  0  # atno 17343 bound_to 10162
  157.1032  131.0201  151.3077 LP  0  0  0  0  0  0  0  0  0  0  0  0  # atno 17370 bound_to 10713
  157.4763  130.7739  149.7371 LP  0  0  0  0  0  0  0  0  0  0  0  0  # atno 17371 bound_to 10713
  140.5252  134.0868  155.7302 LP  0  0  0  0  0  0  0  0  0  0  0  0  # atno 17394 bound_to 11000
  141.1409  133.9139  157.2327 LP  0  0  0  0  0  0  0  0  0  0  0  0  # atno 17395 bound_to 11000

$$$$
