AV-unprocessed.smi:2451|AV-procd|sdf|9680|dock2
  -GOLD-   2272013313D 1   1.00000     0.00000
 Structure written by MMmdl.
 37 38  0  0  0  0  0  0  0  0  2 V2000
  150.3565  143.8122  159.5007 C   0  0  0  0  0  0  0  0  0  0  0  0
  151.8327  143.7184  159.0470 C   0  0  1  0  0  0  0  0  0  0  0  0
  152.7994  143.8256  160.2514 C   0  0  0  0  0  0  0  0  0  0  0  0
  152.8456  142.4946  161.0284 C   0  0  0  0  0  0  0  0  0  0  0  0
  153.2061  141.2958  160.1209 C   0  0  0  0  0  0  0  0  0  0  0  0
  152.2692  141.1344  158.8972 C   0  0  2  0  0  0  0  0  0  0  0  0
  152.7932  140.0899  158.0275 N   0  5  0  0  0  0  0  0  0  0  0  0
  152.7566  138.5434  158.5161 S   0  0  0  0  0  0  0  0  0  0  0  0
  153.8158  138.2250  159.4884 O   0  0  0  0  0  0  0  0  0  0  0  0
  151.3904  138.1044  158.8438 O   0  0  0  0  0  0  0  0  0  0  0  0
  153.2016  137.6739  156.9477 C   0  0  0  0  0  0  0  0  0  0  0  0
  152.2493  138.0483  155.8440 C   0  0  0  0  0  0  0  0  0  0  0  0
  151.3669  137.2062  155.1113 C   0  0  0  0  0  0  0  0  0  0  0  0
  150.7476  138.0641  154.2493 C   0  0  0  0  0  0  0  0  0  0  0  0
  151.2129  139.3271  154.4200 O   0  0  0  0  0  0  0  0  0  0  0  0
  152.1738  139.3068  155.4374 N   0  0  0  0  0  0  0  0  0  0  0  0
  152.1713  142.4936  158.1278 C   0  0  1  0  0  0  0  0  0  0  0  0
  151.2367  142.4412  156.8948 C   0  0  0  0  0  0  0  0  0  0  0  0
  150.0471  142.9476  160.0875 H   0  0  0  0  0  0  0  0  0  0  0  0
  149.6789  143.8942  158.6513 H   0  0  0  0  0  0  0  0  0  0  0  0
  150.1964  144.6967  160.1174 H   0  0  0  0  0  0  0  0  0  0  0  0
  152.0042  144.6126  158.4459 H   0  0  0  0  0  0  0  0  0  0  0  0
  153.8009  144.0626  159.8900 H   0  0  0  0  0  0  0  0  0  0  0  0
  152.5101  144.6439  160.9115 H   0  0  0  0  0  0  0  0  0  0  0  0
  153.5818  142.5726  161.8289 H   0  0  0  0  0  0  0  0  0  0  0  0
  151.8895  142.3194  161.5246 H   0  0  0  0  0  0  0  0  0  0  0  0
  154.2345  141.4210  159.7776 H   0  0  0  0  0  0  0  0  0  0  0  0
  153.1978  140.3821  160.7162 H   0  0  0  0  0  0  0  0  0  0  0  0
  151.2710  140.8889  159.2624 H   0  0  0  0  0  0  0  0  0  0  0  0
  154.2204  137.9650  156.6918 H   0  0  0  0  0  0  0  0  0  0  0  0
  153.2070  136.5997  157.1297 H   0  0  0  0  0  0  0  0  0  0  0  0
  151.2079  136.1428  155.2128 H   0  0  0  0  0  0  0  0  0  0  0  0
  149.9918  137.9350  153.4890 H   0  0  0  0  0  0  0  0  0  0  0  0
  153.1699  142.6948  157.7353 H   0  0  0  0  0  0  0  0  0  0  0  0
  150.2155  142.1586  157.1553 H   0  0  0  0  0  0  0  0  0  0  0  0
  151.5878  141.7353  156.1403 H   0  0  0  0  0  0  0  0  0  0  0  0
  151.1892  143.4155  156.4079 H   0  0  0  0  0  0  0  0  0  0  0  0
  1  2  1  0  0  0  0
  1 19  1  0  0  0  0
  1 20  1  0  0  0  0
  1 21  1  0  0  0  0
  2 17  1  0  0  0  0
  2  3  1  0  0  0  0
  2 22  1  0  0  0  0
  3  4  1  0  0  0  0
  3 23  1  0  0  0  0
  3 24  1  0  0  0  0
  4  5  1  0  0  0  0
  4 25  1  0  0  0  0
  4 26  1  0  0  0  0
  5  6  1  0  0  0  0
  5 27  1  0  0  0  0
  5 28  1  0  0  0  0
  6  7  1  0  0  0  0
  6 17  1  0  0  0  0
  6 29  1  0  0  0  0
  7  8  1  0  0  0  0
  8  9  2  0  0  0  0
  8 10  2  0  0  0  0
  8 11  1  0  0  0  0
 11 12  1  0  0  0  0
 11 30  1  0  0  0  0
 11 31  1  0  0  0  0
 12 16  2  0  0  0  0
 12 13  1  0  0  0  0
 13 14  2  0  0  0  0
 13 32  1  0  0  0  0
 14 15  1  0  0  0  0
 14 33  1  0  0  0  0
 15 16  1  0  0  0  0
 17 18  1  0  0  0  0
 17 34  1  0  0  0  0
 18 35  1  0  0  0  0
 18 36  1  0  0  0  0
 18 37  1  0  0  0  0
M  CHG  1   7  -1
M  END
> <s_m_source_file>
AV-unprocessed.smi

> <i_m_source_file_index>
2451

> <i_lp_mmshare_version>
43012

> <i_f3d_flags>
0

> <s_epik_input>
W0NIM11bQ0BASF0xW0NIMl1bQ0gyXVtDSDJdW0NASF0oW0NASF0xW0NIM10pW05IXVMoPU8pKD1PKVtDSDJdYzJbY0hdW2NIXW9uMg==

> <s_epik_cmdline>
J2VwaWtfcHl0aG9uJywgJy1waCcsICc3LjAnLCAnLXRuJywgJzgnLCAnLW1hJywgJzIwMCcsICctbWV0YWxfYmluZGluZycsICctaW1hZScsICc8aW5maWxlLm1hZT4nLCAnLW9tYWUnLCAnPG91dGZpbGUubWFlPic=

> <r_lp_tautomer_probability>
1

> <r_epik_Ionization_Penalty>
5.22693

> <r_epik_Ionization_Penalty_Charging>
5.22693

> <r_epik_Ionization_Penalty_Neutral>
2.67702e-10

> <r_epik_State_Penalty>
5.22685

> <r_epik_Charging_Adjusted_Penalty>
10.4538

> <i_epik_Tot_Q>
-1

> <i_epik_Tot_abs_Q>
1

> <r_epik_Metal_State_Penalty>
1.28716

> <b_epik_Metal_Only>
1

> <s_lp_Force_Field>
OPLS_2005

> <r_lp_Energy>
15.3102

> <b_lp_Chiralities_Consistent>
1

> <s_lp_Variant>
AV-unprocessed.smi:2451-12

> <Gold.Version>
5.8.1

> <Gold.Id.Protein>
6NUR|6NUR_protein|mol2

> <Gold.PLP.Fitness>
43.2359

> <Gold.PLP.PLP>
-31.7865

> <Gold.PLP.part.hbond>
-2.0000

> <Gold.PLP.part.metal>
0.0000

> <Gold.PLP.part.buried>
-5.5596

> <Gold.PLP.part.nonpolar>
-23.8956

> <Gold.PLP.part.repulsive>
0.1362

> <Gold.PLP.ligand.clash>
0.0000

> <Gold.PLP.ligand.torsion>
0.7516

> <Gold.PLP.Chemscore.Hbond>
2.9825

> <Gold.PLP.Chemscore.CHOScore>
1.0000

> <Gold.PLP.Chemscore.Metal>
0.0000

> <Gold.Chemscore.Hbonds>
donor molecule, donor type, donor heavy atom, donor atom, acceptor molecule, acceptor atom, score
      P1  H  7989  7998       L1    15  1.00
      P1  H  7997  8009       L1     7  1.98
      L1  C    14    33       P1  7948  1.00

> <Gold.PLP.Chemscore.Internal.Correction>
1.0051

> <Gold.Rescore>
     Score         DG    S(hbond)    S(metal)    S(lipo)     H(rot)  DE(clash)    DE(int)     intcor
     16.26     -18.75       1.40        0.00     104.16       1.40       0.27       2.22       ----

> <Gold.Chemscore.Fitness>
16.2605

> <Gold.Chemscore.DG>
-18.7477

> <Gold.Chemscore.ZeroCoef>
-5.4800

> <Gold.Chemscore.Hbond>
1.3955

> <Gold.Chemscore.Metal>
0.0000

> <Gold.Chemscore.Lipo>
104.1628

> <Gold.Chemscore.Internal_Hbond>
0.0000

> <Gold.Chemscore.DEClash>
0.2656

> <Gold.Chemscore.DEInternal>
2.2216

> <Gold.Chemscore.Rot>
1.3986

> <Gold.Chemscore.Internal.Correction>
   9.000000E+99

> <Gold.Chemscore.Hbonds>
donor molecule, donor type, donor heavy atom, donor atom, acceptor molecule, acceptor atom, score
      P1  H  7989  7998       L1    15  0.40
      P1  H  7997  8009       L1     7  0.27

> <Gold.Chemscore.Hbond.Weighted>
-4.6611

> <Gold.Chemscore.Metal.Weighted>
-0.0000

> <Gold.Chemscore.Lipo.Weighted>
-12.1871

> <Gold.Chemscore.Internal_Hbond.Weighted>
0.0000

> <Gold.Chemscore.DEClash.Weighted>
0.2656

> <Gold.Chemscore.DEInternal.Weighted>
2.2216

> <Gold.Chemscore.Rot.Weighted>
3.5804

> <Gold.Chemscore.Internal.Correction.Weighted>
   9.000000E+99

> <Gold.Protein.RotatedTorsions>
[ 6907 6896 6895 6894 ] final    8.13 input  -60.11 | X-H torsion
[ 7974 7965 7964 7962 ] final  -42.50 input  175.53 | X-H torsion
[ 8008 7997 7996 7995 ] final  166.01 input   59.86 | X-H torsion
[ 10167 10162 10161 10158 ] final  -38.09 input  -65.29 | X-H torsion
[ 10718 10713 10712 10709 ] final -103.26 input   66.30 | X-H torsion
[ 10763 10752 10751 10750 ] final  101.97 input  -60.55 | X-H torsion
[ 11005 11000 10999 10996 ] final  111.60 input  -57.11 | X-H torsion

> <Gold.Protein.ActiveResidues>
 VAL166  LYS551  ARG553  GLY616  TRP617  ASP618  TYR619  PRO620  LYS621  CYS622 
 ASP623  PHE694  ASN695  SER759  ASP760  ASP761  ALA762  ILE779  LEU786  VAL792 
 PHE793  MET794  SER795  GLU796  ALA797  LYS798  CYS799  TRP800  GLU811  SER814 

> <Gold.Protein.RotatedAtoms>
  151.7010  135.0930  160.0250 H   0  0  0  0  0  0  0  0  0  0  0  0  # atno 6907 bound_to 6896
  152.3720  133.6427  159.6103 H   0  0  0  0  0  0  0  0  0  0  0  0  # atno 6908 bound_to 6896
  150.7681  133.9171  159.3428 H   0  0  0  0  0  0  0  0  0  0  0  0  # atno 6909 bound_to 6896
  146.0110  140.6964  142.9224 H   0  0  0  0  0  0  0  0  0  0  0  0  # atno 7974 bound_to 7965
  156.1754  140.1655  156.8372 H   0  0  0  0  0  0  0  0  0  0  0  0  # atno 8008 bound_to 7997
  154.5301  140.0759  156.8363 H   0  0  0  0  0  0  0  0  0  0  0  0  # atno 8009 bound_to 7997
  155.3425  140.3385  155.4241 H   0  0  0  0  0  0  0  0  0  0  0  0  # atno 8010 bound_to 7997
  140.7101  143.3299  151.2592 H   0  0  0  0  0  0  0  0  0  0  0  0  # atno 10167 bound_to 10162
  156.0259  130.5459  150.7228 H   0  0  0  0  0  0  0  0  0  0  0  0  # atno 10718 bound_to 10713
  153.3335  135.4026  155.1515 H   0  0  0  0  0  0  0  0  0  0  0  0  # atno 10763 bound_to 10752
  154.8628  135.3616  154.5439 H   0  0  0  0  0  0  0  0  0  0  0  0  # atno 10764 bound_to 10752
  153.5879  135.7075  153.5495 H   0  0  0  0  0  0  0  0  0  0  0  0  # atno 10765 bound_to 10752
  139.8907  134.9511  156.6457 H   0  0  0  0  0  0  0  0  0  0  0  0  # atno 11005 bound_to 11000
  144.6953  140.3398  143.7201 LP  0  0  0  0  0  0  0  0  0  0  0  0  # atno 17320 bound_to 7965
  145.7342  139.1745  143.2413 LP  0  0  0  0  0  0  0  0  0  0  0  0  # atno 17321 bound_to 7965
  139.6779  143.9906  152.2791 LP  0  0  0  0  0  0  0  0  0  0  0  0  # atno 17342 bound_to 10162
  139.9526  144.6610  150.8157 LP  0  0  0  0  0  0  0  0  0  0  0  0  # atno 17343 bound_to 10162
  157.4839  131.0905  151.0504 LP  0  0  0  0  0  0  0  0  0  0  0  0  # atno 17370 bound_to 10713
  157.0930  130.5950  149.5444 LP  0  0  0  0  0  0  0  0  0  0  0  0  # atno 17371 bound_to 10713
  140.7559  133.8858  155.8382 LP  0  0  0  0  0  0  0  0  0  0  0  0  # atno 17394 bound_to 11000
  140.9962  134.1212  157.4361 LP  0  0  0  0  0  0  0  0  0  0  0  0  # atno 17395 bound_to 11000

$$$$
