AV-unprocessed.smi:3196|AV-procd|sdf|12222|dock5
  -GOLD-   2272018 53D 1   1.00000     0.00000
 Structure written by MMmdl.
 33 34  0  0  0  0  0  0  0  0  1 V2000
  154.2953  141.4146  160.2852 C   0  0  0  0  0  0  0  0  0  0  0  0
  153.2459  142.4035  160.8039 C   0  0  0  0  0  0  0  0  0  0  0  0
  152.7556  143.3659  159.7138 C   0  0  0  0  0  0  0  0  0  0  0  0
  151.6179  144.2504  160.1930 C   0  0  1  0  0  0  0  0  0  0  0  0
  151.3472  145.5824  159.5459 C   0  0  0  0  0  0  0  0  0  0  0  0
  150.3514  144.4515  159.3837 C   0  0  1  0  0  0  0  0  0  0  0  0
  150.2488  143.8541  158.0850 N   0  0  0  0  0  0  0  0  0  0  0  0
  150.4869  142.5750  157.7437 C   0  0  0  0  0  0  0  0  0  0  0  0
  150.8049  141.7460  158.5930 O   0  0  0  0  0  0  0  0  0  0  0  0
  150.3033  142.3117  156.4343 N   0  0  0  0  0  0  0  0  0  0  0  0
  150.4484  141.0915  155.7164 C   0  0  0  0  0  0  0  0  0  0  0  0
  151.4718  140.1370  155.9377 C   0  0  0  0  0  0  0  0  0  0  0  0
  151.4922  138.9722  155.1442 C   0  0  0  0  0  0  0  0  0  0  0  0
  150.5887  138.7142  154.1755 N   0  0  0  0  0  0  0  0  0  0  0  0
  149.6185  139.6278  153.9626 C   0  0  0  0  0  0  0  0  0  0  0  0
  149.5064  140.8234  154.7000 C   0  0  0  0  0  0  0  0  0  0  0  0
  148.5066  141.6985  154.4327 F   0  0  0  0  0  0  0  0  0  0  0  0
  154.6242  140.7448  161.0800 H   0  0  0  0  0  0  0  0  0  0  0  0
  155.1737  141.9367  159.9051 H   0  0  0  0  0  0  0  0  0  0  0  0
  153.8935  140.8015  159.4781 H   0  0  0  0  0  0  0  0  0  0  0  0
  152.3996  141.8483  161.2103 H   0  0  0  0  0  0  0  0  0  0  0  0
  153.6677  142.9742  161.6320 H   0  0  0  0  0  0  0  0  0  0  0  0
  153.5853  143.9881  159.3761 H   0  0  0  0  0  0  0  0  0  0  0  0
  152.4112  142.8022  158.8461 H   0  0  0  0  0  0  0  0  0  0  0  0
  151.4703  144.2078  161.2706 H   0  0  0  0  0  0  0  0  0  0  0  0
  151.0693  146.4075  160.1983 H   0  0  0  0  0  0  0  0  0  0  0  0
  151.9513  145.8572  158.6830 H   0  0  0  0  0  0  0  0  0  0  0  0
  149.4286  144.5777  159.9478 H   0  0  0  0  0  0  0  0  0  0  0  0
  149.9000  144.4563  157.3532 H   0  0  0  0  0  0  0  0  0  0  0  0
  150.0020  143.0962  155.8746 H   0  0  0  0  0  0  0  0  0  0  0  0
  152.2389  140.2652  156.6843 H   0  0  0  0  0  0  0  0  0  0  0  0
  152.2597  138.2267  155.2914 H   0  0  0  0  0  0  0  0  0  0  0  0
  148.9103  139.3999  153.1799 H   0  0  0  0  0  0  0  0  0  0  0  0
  1  2  1  0  0  0  0
  1 18  1  0  0  0  0
  1 19  1  0  0  0  0
  1 20  1  0  0  0  0
  2  3  1  0  0  0  0
  2 21  1  0  0  0  0
  2 22  1  0  0  0  0
  3  4  1  0  0  0  0
  3 23  1  0  0  0  0
  3 24  1  0  0  0  0
  4  6  1  0  0  0  0
  4  5  1  0  0  0  0
  4 25  1  0  0  0  0
  5  6  1  0  0  0  0
  5 26  1  0  0  0  0
  5 27  1  0  0  0  0
  6  7  1  0  0  0  0
  6 28  1  0  0  0  0
  7  8  1  0  0  0  0
  7 29  1  0  0  0  0
  8  9  2  0  0  0  0
  8 10  1  0  0  0  0
 10 11  1  0  0  0  0
 10 30  1  0  0  0  0
 11 16  1  0  0  0  0
 11 12  2  0  0  0  0
 12 13  1  0  0  0  0
 12 31  1  0  0  0  0
 13 14  2  0  0  0  0
 13 32  1  0  0  0  0
 14 15  1  0  0  0  0
 15 16  2  0  0  0  0
 15 33  1  0  0  0  0
 16 17  1  0  0  0  0
M  END
> <s_m_source_file>
AV-unprocessed.smi

> <i_m_source_file_index>
3196

> <i_lp_mmshare_version>
43012

> <i_f3d_flags>
0

> <s_epik_input>
W0NIM11bQ0gyXVtDSDJdW0NAQEhdMVtDSDJdW0NASF0xW05IXUMoPU8pW05IXWMyW2NIXVtjSF1uW2NIXWMyRg==

> <s_epik_cmdline>
J2VwaWtfcHl0aG9uJywgJy1waCcsICc3LjAnLCAnLXRuJywgJzgnLCAnLW1hJywgJzIwMCcsICctbWV0YWxfYmluZGluZycsICctaW1hZScsICc8aW5maWxlLm1hZT4nLCAnLW9tYWUnLCAnPG91dGZpbGUubWFlPic=

> <r_epik_Ionization_Penalty>
0.00341997

> <r_epik_Ionization_Penalty_Charging>
0

> <r_epik_Ionization_Penalty_Neutral>
0.00341997

> <r_epik_State_Penalty>
0.00239198

> <r_epik_Charging_Adjusted_Penalty>
0.00239198

> <i_epik_Tot_Q>
0

> <i_epik_Tot_abs_Q>
0

> <r_epik_Metal_State_Penalty>
-0

> <b_epik_Metal_Only>
0

> <s_lp_Force_Field>
OPLS_2005

> <r_lp_Energy>
35.1311

> <b_lp_Chiralities_Consistent>
1

> <s_lp_Variant>
AV-unprocessed.smi:3196-2

> <Gold.Version>
5.8.1

> <Gold.Id.Protein>
6NUR|6NUR_protein|mol2

> <Gold.PLP.Fitness>
49.3029

> <Gold.PLP.PLP>
-42.3635

> <Gold.PLP.part.hbond>
-2.2956

> <Gold.PLP.part.metal>
0.0000

> <Gold.PLP.part.buried>
-0.8725

> <Gold.PLP.part.nonpolar>
-38.5553

> <Gold.PLP.part.repulsive>
0.3418

> <Gold.PLP.ligand.clash>
0.0000

> <Gold.PLP.ligand.torsion>
0.8164

> <Gold.PLP.Chemscore.Hbond>
2.0000

> <Gold.PLP.Chemscore.CHOScore>
0.6722

> <Gold.PLP.Chemscore.Metal>
0.0000

> <Gold.Chemscore.Hbonds>
donor molecule, donor type, donor heavy atom, donor atom, acceptor molecule, acceptor atom, score
      L1  H     7    29       P1  8028  1.00
      L1  H    10    30       P1  8028  1.00
      L1  C    15    33       P1  7957  0.67

> <Gold.PLP.Chemscore.Internal.Correction>
0.5557

> <Gold.Rescore>
     Score         DG    S(hbond)    S(metal)    S(lipo)     H(rot)  DE(clash)    DE(int)     intcor
     16.47     -18.90       1.47        0.00     103.03       1.39       0.33       2.10       ----

> <Gold.Chemscore.Fitness>
16.4694

> <Gold.Chemscore.DG>
-18.9019

> <Gold.Chemscore.ZeroCoef>
-5.4800

> <Gold.Chemscore.Hbond>
1.4711

> <Gold.Chemscore.Metal>
0.0000

> <Gold.Chemscore.Lipo>
103.0308

> <Gold.Chemscore.Internal_Hbond>
0.0000

> <Gold.Chemscore.DEClash>
0.3327

> <Gold.Chemscore.DEInternal>
2.0998

> <Gold.Chemscore.Rot>
1.3852

> <Gold.Chemscore.Internal.Correction>
   9.000000E+99

> <Gold.Chemscore.Hbonds>
donor molecule, donor type, donor heavy atom, donor atom, acceptor molecule, acceptor atom, score
      L1  H     7    29       P1  8028  0.24
      L1  H    10    30       P1  8028  0.92

> <Gold.Chemscore.Hbond.Weighted>
-4.9133

> <Gold.Chemscore.Metal.Weighted>
-0.0000

> <Gold.Chemscore.Lipo.Weighted>
-12.0546

> <Gold.Chemscore.Internal_Hbond.Weighted>
0.0000

> <Gold.Chemscore.DEClash.Weighted>
0.3327

> <Gold.Chemscore.DEInternal.Weighted>
2.0998

> <Gold.Chemscore.Rot.Weighted>
3.5460

> <Gold.Chemscore.Internal.Correction.Weighted>
   9.000000E+99

> <Gold.Protein.RotatedTorsions>
[ 6907 6896 6895 6894 ] final   54.08 input  -60.11 | X-H torsion
[ 7974 7965 7964 7962 ] final  -79.42 input  175.53 | X-H torsion
[ 8008 7997 7996 7995 ] final   -3.09 input   59.86 | X-H torsion
[ 10167 10162 10161 10158 ] final   48.02 input  -65.29 | X-H torsion
[ 10718 10713 10712 10709 ] final   95.03 input   66.30 | X-H torsion
[ 10763 10752 10751 10750 ] final -140.01 input  -60.55 | X-H torsion
[ 11005 11000 10999 10996 ] final -150.56 input  -57.11 | X-H torsion

> <Gold.Protein.ActiveResidues>
 VAL166  LYS551  ARG553  GLY616  TRP617  ASP618  TYR619  PRO620  LYS621  CYS622 
 ASP623  PHE694  ASN695  SER759  ASP760  ASP761  ALA762  ILE779  LEU786  VAL792 
 PHE793  MET794  SER795  GLU796  ALA797  LYS798  CYS799  TRP800  GLU811  SER814 

> <Gold.Protein.RotatedAtoms>
  152.3402  134.7144  160.0265 H   0  0  0  0  0  0  0  0  0  0  0  0  # atno 6907 bound_to 6896
  151.7532  133.3323  159.3405 H   0  0  0  0  0  0  0  0  0  0  0  0  # atno 6908 bound_to 6896
  150.7475  134.6106  159.6128 H   0  0  0  0  0  0  0  0  0  0  0  0  # atno 6909 bound_to 6896
  145.5734  140.9462  143.1383 H   0  0  0  0  0  0  0  0  0  0  0  0  # atno 7974 bound_to 7965
  154.6287  140.2518  155.7461 H   0  0  0  0  0  0  0  0  0  0  0  0  # atno 8008 bound_to 7997
  156.2467  140.2911  156.0548 H   0  0  0  0  0  0  0  0  0  0  0  0  # atno 8009 bound_to 7997
  155.1780  140.0388  157.2867 H   0  0  0  0  0  0  0  0  0  0  0  0  # atno 8010 bound_to 7997
  140.2976  144.2972  150.6226 H   0  0  0  0  0  0  0  0  0  0  0  0  # atno 10167 bound_to 10162
  157.6943  131.0532  150.4276 H   0  0  0  0  0  0  0  0  0  0  0  0  # atno 10718 bound_to 10713
  154.8592  135.3565  154.5639 H   0  0  0  0  0  0  0  0  0  0  0  0  # atno 10763 bound_to 10752
  153.6253  135.7004  153.5300 H   0  0  0  0  0  0  0  0  0  0  0  0  # atno 10764 bound_to 10752
  153.3094  135.4183  155.1282 H   0  0  0  0  0  0  0  0  0  0  0  0  # atno 10765 bound_to 10752
  140.7389  134.3536  157.5151 H   0  0  0  0  0  0  0  0  0  0  0  0  # atno 11005 bound_to 11000
  144.7427  139.7404  143.7304 LP  0  0  0  0  0  0  0  0  0  0  0  0  # atno 17320 bound_to 7965
  146.1768  139.4942  142.9892 LP  0  0  0  0  0  0  0  0  0  0  0  0  # atno 17321 bound_to 7965
  140.5679  143.2184  151.7651 LP  0  0  0  0  0  0  0  0  0  0  0  0  # atno 17342 bound_to 10162
  139.4923  144.4258  151.9927 LP  0  0  0  0  0  0  0  0  0  0  0  0  # atno 17343 bound_to 10162
  156.4645  130.4039  149.6555 LP  0  0  0  0  0  0  0  0  0  0  0  0  # atno 17370 bound_to 10713
  156.3658  130.7505  151.2483 LP  0  0  0  0  0  0  0  0  0  0  0  0  # atno 17371 bound_to 10713
  139.8810  134.9068  156.2930 LP  0  0  0  0  0  0  0  0  0  0  0  0  # atno 17394 bound_to 11000
  140.9854  133.7241  156.0734 LP  0  0  0  0  0  0  0  0  0  0  0  0  # atno 17395 bound_to 11000

$$$$
