AV-unprocessed.smi:897|AV-procd|sdf|4079|dock7
  -GOLD-   22720 1563D 1   1.00000     0.00000
 Structure written by MMmdl.
 35 37  0  0  0  0  0  0  0  0  1 V2000
  152.2286  144.2466  158.3810 C   0  0  0  0  0  0  0  0  0  0  0  0
  152.4722  142.8277  158.8500 C   0  0  0  0  0  0  0  0  0  0  0  0
  153.3018  142.5617  159.9550 C   0  0  0  0  0  0  0  0  0  0  0  0
  153.4957  141.2220  160.3482 C   0  0  0  0  0  0  0  0  0  0  0  0
  154.3951  140.9224  161.5378 C   0  0  0  0  0  0  0  0  0  0  0  0
  152.8431  140.1951  159.6172 C   0  0  0  0  0  0  0  0  0  0  0  0
  153.0135  138.7933  159.9957 C   0  0  0  0  0  0  0  0  0  0  0  0
  153.1481  137.6838  160.2956 N   0  0  0  0  0  0  0  0  0  0  0  0
  152.0229  140.5668  158.5160 C   0  0  0  0  0  0  0  0  0  0  0  0
  151.3576  139.5851  157.7578 N   0  0  0  0  0  0  0  0  0  0  0  0
  150.2577  139.9234  156.8606 C   0  0  2  0  0  0  0  0  0  0  0  0
  149.7255  138.7153  156.0786 C   0  0  0  0  0  0  0  0  0  0  0  0
  149.8736  139.1864  154.6267 C   0  0  1  0  0  0  0  0  0  0  0  0
  148.8966  140.3178  154.2789 C   0  0  0  0  0  0  0  0  0  0  0  0
  149.5103  141.5013  155.0265 C   0  0  0  0  0  0  0  0  0  0  0  0
  150.7138  140.8479  155.7191 C   0  0  2  0  0  0  0  0  0  0  0  0
  151.0881  139.9086  154.7237 O   0  0  0  0  0  0  0  0  0  0  0  0
  151.8505  141.8591  158.1481 N   0  0  0  0  0  0  0  0  0  0  0  0
  152.8402  144.9580  158.9369 H   0  0  0  0  0  0  0  0  0  0  0  0
  151.1810  144.5159  158.5193 H   0  0  0  0  0  0  0  0  0  0  0  0
  152.4726  144.3449  157.3228 H   0  0  0  0  0  0  0  0  0  0  0  0
  153.7803  143.3694  160.4895 H   0  0  0  0  0  0  0  0  0  0  0  0
  153.8313  140.4261  162.3281 H   0  0  0  0  0  0  0  0  0  0  0  0
  154.8220  141.8355  161.9531 H   0  0  0  0  0  0  0  0  0  0  0  0
  155.2199  140.2744  161.2406 H   0  0  0  0  0  0  0  0  0  0  0  0
  151.5039  138.6110  157.9809 H   0  0  0  0  0  0  0  0  0  0  0  0
  149.4665  140.4102  157.4327 H   0  0  0  0  0  0  0  0  0  0  0  0
  150.3344  137.8256  156.2475 H   0  0  0  0  0  0  0  0  0  0  0  0
  148.6941  138.4715  156.3350 H   0  0  0  0  0  0  0  0  0  0  0  0
  149.8905  138.3748  153.8990 H   0  0  0  0  0  0  0  0  0  0  0  0
  148.8866  140.5082  153.2051 H   0  0  0  0  0  0  0  0  0  0  0  0
  147.8774  140.0964  154.5976 H   0  0  0  0  0  0  0  0  0  0  0  0
  149.8388  142.2681  154.3240 H   0  0  0  0  0  0  0  0  0  0  0  0
  148.8199  141.9613  155.7345 H   0  0  0  0  0  0  0  0  0  0  0  0
  151.4959  141.5569  155.9937 H   0  0  0  0  0  0  0  0  0  0  0  0
  1  2  1  0  0  0  0
  1 19  1  0  0  0  0
  1 20  1  0  0  0  0
  1 21  1  0  0  0  0
  2 18  1  0  0  0  0
  2  3  2  0  0  0  0
  3  4  1  0  0  0  0
  3 22  1  0  0  0  0
  4  5  1  0  0  0  0
  4  6  2  0  0  0  0
  5 23  1  0  0  0  0
  5 24  1  0  0  0  0
  5 25  1  0  0  0  0
  6  7  1  0  0  0  0
  6  9  1  0  0  0  0
  7  8  3  0  0  0  0
  9 10  1  0  0  0  0
  9 18  2  0  0  0  0
 10 11  1  0  0  0  0
 10 26  1  0  0  0  0
 11 16  1  0  0  0  0
 11 12  1  0  0  0  0
 11 27  1  0  0  0  0
 12 13  1  0  0  0  0
 12 28  1  0  0  0  0
 12 29  1  0  0  0  0
 13 17  1  0  0  0  0
 13 14  1  0  0  0  0
 13 30  1  0  0  0  0
 14 15  1  0  0  0  0
 14 31  1  0  0  0  0
 14 32  1  0  0  0  0
 15 16  1  0  0  0  0
 15 33  1  0  0  0  0
 15 34  1  0  0  0  0
 16 17  1  0  0  0  0
 16 35  1  0  0  0  0
M  END
> <s_m_source_file>
AV-unprocessed.smi

> <i_m_source_file_index>
897

> <i_lp_mmshare_version>
43012

> <i_f3d_flags>
0

> <s_epik_input>
W0NIM11jMVtjSF1jKFtDSDNdKWMoQyNOKWMobjEpW05IXVtDQEhdKFtDSDJdW0NAQEhdMjMpW0NAQEhdKE8zKVtDSDJdW0NIMl0y

> <s_epik_cmdline>
J2VwaWtfcHl0aG9uJywgJy1waCcsICc3LjAnLCAnLXRuJywgJzgnLCAnLW1hJywgJzIwMCcsICctbWV0YWxfYmluZGluZycsICctaW1hZScsICc8aW5maWxlLm1hZT4nLCAnLW9tYWUnLCAnPG91dGZpbGUubWFlPic=

> <r_lp_tautomer_probability>
1

> <r_epik_Ionization_Penalty>
0.000502654

> <r_epik_Ionization_Penalty_Charging>
0

> <r_epik_Ionization_Penalty_Neutral>
0.000502654

> <r_epik_State_Penalty>
-0

> <r_epik_Charging_Adjusted_Penalty>
0

> <i_epik_Tot_Q>
0

> <i_epik_Tot_abs_Q>
0

> <r_epik_Metal_State_Penalty>
-0

> <b_epik_Metal_Only>
0

> <s_lp_Force_Field>
OPLS_2005

> <r_lp_Energy>
43.6406

> <b_lp_Chiralities_Consistent>
1

> <s_lp_Variant>
AV-unprocessed.smi:897-1

> <Gold.Version>
5.8.1

> <Gold.Id.Protein>
6NUR|6NUR_protein|mol2

> <Gold.PLP.Fitness>
40.6332

> <Gold.PLP.PLP>
-37.7487

> <Gold.PLP.part.hbond>
-1.0000

> <Gold.PLP.part.metal>
0.0000

> <Gold.PLP.part.buried>
-3.2843

> <Gold.PLP.part.nonpolar>
-34.2536

> <Gold.PLP.part.repulsive>
0.1418

> <Gold.PLP.ligand.clash>
0.0000

> <Gold.PLP.ligand.torsion>
0.0678

> <Gold.PLP.Chemscore.Hbond>
1.0000

> <Gold.PLP.Chemscore.CHOScore>
0.0000

> <Gold.PLP.Chemscore.Metal>
0.0000

> <Gold.Chemscore.Hbonds>
donor molecule, donor type, donor heavy atom, donor atom, acceptor molecule, acceptor atom, score
      P1  H  7989  7998       L1    17  1.00

> <Gold.PLP.Chemscore.Internal.Correction>
0.0202

> <Gold.Rescore>
     Score         DG    S(hbond)    S(metal)    S(lipo)     H(rot)  DE(clash)    DE(int)     intcor
     17.20     -20.10       1.95        0.00      91.26       1.00       1.52       1.38       ----

> <Gold.Chemscore.Fitness>
17.2034

> <Gold.Chemscore.DG>
-20.0971

> <Gold.Chemscore.ZeroCoef>
-5.4800

> <Gold.Chemscore.Hbond>
1.9460

> <Gold.Chemscore.Metal>
0.0000

> <Gold.Chemscore.Lipo>
91.2603

> <Gold.Chemscore.Internal_Hbond>
0.0000

> <Gold.Chemscore.DEClash>
1.5187

> <Gold.Chemscore.DEInternal>
1.3750

> <Gold.Chemscore.Rot>
1.0000

> <Gold.Chemscore.Internal.Correction>
   9.000000E+99

> <Gold.Chemscore.Hbonds>
donor molecule, donor type, donor heavy atom, donor atom, acceptor molecule, acceptor atom, score
      P1  H  7989  7998       L1    17  0.39

> <Gold.Chemscore.Hbond.Weighted>
-6.4996

> <Gold.Chemscore.Metal.Weighted>
-0.0000

> <Gold.Chemscore.Lipo.Weighted>
-10.6775

> <Gold.Chemscore.Internal_Hbond.Weighted>
0.0000

> <Gold.Chemscore.DEClash.Weighted>
1.5187

> <Gold.Chemscore.DEInternal.Weighted>
1.3750

> <Gold.Chemscore.Rot.Weighted>
2.5600

> <Gold.Chemscore.Internal.Correction.Weighted>
   9.000000E+99

> <Gold.Protein.RotatedTorsions>
[ 6907 6896 6895 6894 ] final  121.68 input  -60.11 | X-H torsion
[ 7974 7965 7964 7962 ] final   40.36 input  175.53 | X-H torsion
[ 8008 7997 7996 7995 ] final   43.44 input   59.86 | X-H torsion
[ 10167 10162 10161 10158 ] final  -60.87 input  -65.29 | X-H torsion
[ 10718 10713 10712 10709 ] final  -94.14 input   66.30 | X-H torsion
[ 10763 10752 10751 10750 ] final -155.73 input  -60.55 | X-H torsion
[ 11005 11000 10999 10996 ] final -158.08 input  -57.11 | X-H torsion

> <Gold.Protein.ActiveResidues>
 VAL166  LYS551  ARG553  GLY616  TRP617  ASP618  TYR619  PRO620  LYS621  CYS622 
 ASP623  PHE694  ASN695  SER759  ASP760  ASP761  ALA762  ILE779  LEU786  VAL792 
 PHE793  MET794  SER795  GLU796  ALA797  LYS798  CYS799  TRP800  GLU811  SER814 

> <Gold.Protein.RotatedAtoms>
  152.4303  133.7266  159.6563 H   0  0  0  0  0  0  0  0  0  0  0  0  # atno 6907 bound_to 6896
  150.8182  133.8289  159.3157 H   0  0  0  0  0  0  0  0  0  0  0  0  # atno 6908 bound_to 6896
  151.5979  135.1051  160.0105 H   0  0  0  0  0  0  0  0  0  0  0  0  # atno 6909 bound_to 6896
  146.0911  139.5542  142.9475 H   0  0  0  0  0  0  0  0  0  0  0  0  # atno 7974 bound_to 7965
  155.3027  140.3386  155.4247 H   0  0  0  0  0  0  0  0  0  0  0  0  # atno 8008 bound_to 7997
  156.1993  140.1727  156.7971 H   0  0  0  0  0  0  0  0  0  0  0  0  # atno 8009 bound_to 7997
  154.5539  140.0700  156.8696 H   0  0  0  0  0  0  0  0  0  0  0  0  # atno 8010 bound_to 7997
  140.6043  143.2369  151.5857 H   0  0  0  0  0  0  0  0  0  0  0  0  # atno 10167 bound_to 10162
  156.0023  130.5056  150.5882 H   0  0  0  0  0  0  0  0  0  0  0  0  # atno 10718 bound_to 10713
  154.7765  135.3161  154.8080 H   0  0  0  0  0  0  0  0  0  0  0  0  # atno 10763 bound_to 10752
  153.8802  135.6835  153.4772 H   0  0  0  0  0  0  0  0  0  0  0  0  # atno 10764 bound_to 10752
  153.1390  135.4747  154.9403 H   0  0  0  0  0  0  0  0  0  0  0  0  # atno 10765 bound_to 10752
  140.6575  134.4384  157.5235 H   0  0  0  0  0  0  0  0  0  0  0  0  # atno 11005 bound_to 11000
  145.6037  141.0351  143.2004 LP  0  0  0  0  0  0  0  0  0  0  0  0  # atno 17320 bound_to 7965
  144.7361  139.7582  143.7329 LP  0  0  0  0  0  0  0  0  0  0  0  0  # atno 17321 bound_to 7965
  139.5313  144.2907  152.1155 LP  0  0  0  0  0  0  0  0  0  0  0  0  # atno 17342 bound_to 10162
  140.2093  144.4578  150.6393 LP  0  0  0  0  0  0  0  0  0  0  0  0  # atno 17343 bound_to 10162
  157.3751  131.0772  151.1524 LP  0  0  0  0  0  0  0  0  0  0  0  0  # atno 17370 bound_to 10713
  157.2265  130.6505  149.5832 LP  0  0  0  0  0  0  0  0  0  0  0  0  # atno 17371 bound_to 10713
  139.9024  134.8525  156.1841 LP  0  0  0  0  0  0  0  0  0  0  0  0  # atno 17394 bound_to 11000
  141.0490  133.6898  156.1736 LP  0  0  0  0  0  0  0  0  0  0  0  0  # atno 17395 bound_to 11000

$$$$
