AV-unprocessed.smi:994|AV-procd|sdf|4342|dock3
  -GOLD-   22720 2243D 1   1.00000     0.00000
 Structure written by MMmdl.
 37 38  0  0  0  0  0  0  0  0  2 V2000
  151.4575  139.0958  158.7143 O   0  0  0  0  0  0  0  0  0  0  0  0
  151.1344  140.0068  157.9511 C   0  0  0  0  0  0  0  0  0  0  0  0
  150.7029  139.8007  156.6963 N   0  0  0  0  0  0  0  0  0  0  0  0
  150.6079  138.5023  156.0311 C   0  0  1  0  0  0  0  0  0  0  0  0
  150.2967  138.7518  154.5356 C   0  0  0  0  0  0  0  0  0  0  0  0
  148.9389  139.3475  154.2368 C   0  0  0  0  0  0  0  0  0  0  0  0
  148.3838  140.5634  154.5719 C   0  0  0  0  0  0  0  0  0  0  0  0
  147.0829  140.6503  154.0686 N   0  0  0  0  0  0  0  0  0  0  0  0
  146.8969  139.4877  153.4548 C   0  0  0  0  0  0  0  0  0  0  0  0
  147.9593  138.6814  153.5190 N   0  0  0  0  0  0  0  0  0  0  0  0
  151.9499  137.7618  156.1800 C   0  0  0  0  0  0  0  0  0  0  0  0
  152.9813  138.3851  155.8460 O   0  0  0  0  0  0  0  0  0  0  0  0
  151.9266  136.5956  156.6349 O   0  5  0  0  0  0  0  0  0  0  0  0
  151.2148  141.4676  158.4144 C   0  0  0  0  0  0  0  0  0  0  0  0
  151.3570  142.4212  157.2082 C   0  0  0  0  0  0  0  0  0  0  0  0
  151.4555  143.8873  157.6606 C   0  0  0  0  0  0  0  0  0  0  0  0
  152.6140  144.0869  158.6503 C   0  0  0  0  0  0  0  0  0  0  0  0
  152.4865  143.1388  159.8532 C   0  0  0  0  0  0  0  0  0  0  0  0
  152.3854  141.6726  159.3999 C   0  0  0  0  0  0  0  0  0  0  0  0
  148.0312  137.7491  153.1354 H   0  0  0  0  0  0  0  0  0  0  0  0
  150.4691  140.6086  156.1383 H   0  0  0  0  0  0  0  0  0  0  0  0
  149.8033  137.9132  156.4759 H   0  0  0  0  0  0  0  0  0  0  0  0
  151.0376  139.4452  154.1350 H   0  0  0  0  0  0  0  0  0  0  0  0
  150.4080  137.8343  153.9555 H   0  0  0  0  0  0  0  0  0  0  0  0
  148.8168  141.3765  155.1354 H   0  0  0  0  0  0  0  0  0  0  0  0
  145.9777  139.2189  152.9554 H   0  0  0  0  0  0  0  0  0  0  0  0
  150.2865  141.7147  158.9333 H   0  0  0  0  0  0  0  0  0  0  0  0
  152.2454  142.1658  156.6284 H   0  0  0  0  0  0  0  0  0  0  0  0
  150.5064  142.3042  156.5351 H   0  0  0  0  0  0  0  0  0  0  0  0
  151.5915  144.5350  156.7941 H   0  0  0  0  0  0  0  0  0  0  0  0
  150.5176  144.1888  158.1285 H   0  0  0  0  0  0  0  0  0  0  0  0
  153.5626  143.9070  158.1429 H   0  0  0  0  0  0  0  0  0  0  0  0
  152.6368  145.1219  158.9926 H   0  0  0  0  0  0  0  0  0  0  0  0
  153.3425  143.2643  160.5166 H   0  0  0  0  0  0  0  0  0  0  0  0
  151.6026  143.4033  160.4348 H   0  0  0  0  0  0  0  0  0  0  0  0
  152.2576  141.0307  160.2727 H   0  0  0  0  0  0  0  0  0  0  0  0
  153.3262  141.3757  158.9339 H   0  0  0  0  0  0  0  0  0  0  0  0
  1  2  2  0  0  0  0
  2  3  1  0  0  0  0
  2 14  1  0  0  0  0
  3  4  1  0  0  0  0
  3 21  1  0  0  0  0
  4  5  1  0  0  0  0
  4 11  1  0  0  0  0
  4 22  1  0  0  0  0
  5 23  1  0  0  0  0
  5 24  1  0  0  0  0
  5  6  1  0  0  0  0
  6  7  2  0  0  0  0
  6 10  1  0  0  0  0
  7 25  1  0  0  0  0
  7  8  1  0  0  0  0
  8  9  2  0  0  0  0
  9 10  1  0  0  0  0
  9 26  1  0  0  0  0
 10 20  1  0  0  0  0
 11 12  2  0  0  0  0
 11 13  1  0  0  0  0
 14 19  1  0  0  0  0
 14 15  1  0  0  0  0
 14 27  1  0  0  0  0
 15 16  1  0  0  0  0
 15 28  1  0  0  0  0
 15 29  1  0  0  0  0
 16 17  1  0  0  0  0
 16 30  1  0  0  0  0
 16 31  1  0  0  0  0
 17 18  1  0  0  0  0
 17 32  1  0  0  0  0
 17 33  1  0  0  0  0
 18 19  1  0  0  0  0
 18 34  1  0  0  0  0
 18 35  1  0  0  0  0
 19 36  1  0  0  0  0
 19 37  1  0  0  0  0
M  CHG  1  13  -1
M  END
> <s_m_source_file>
AV-unprocessed.smi

> <i_m_source_file_index>
994

> <i_lp_mmshare_version>
43012

> <i_f3d_flags>
0

> <s_epik_input>
W0NIMl0xW0NIMl1bQ0gyXVtDSDJdW0NIMl1bQ0hdMUMoPU8pW05IXVtDQEBIXShDKD1PKVtPSF0pW0NIMl1jMltjSF1bbkhdW2NIXW4y

> <s_epik_cmdline>
J2VwaWtfcHl0aG9uJywgJy1waCcsICc3LjAnLCAnLXRuJywgJzgnLCAnLW1hJywgJzIwMCcsICctbWV0YWxfYmluZGluZycsICctaW1hZScsICc8aW5maWxlLm1hZT4nLCAnLW9tYWUnLCAnPG91dGZpbGUubWFlPic=

> <r_lp_tautomer_probability>
0.5

> <r_epik_Ionization_Penalty>
0.540742

> <r_epik_Ionization_Penalty_Charging>
0.540742

> <r_epik_Ionization_Penalty_Neutral>
4.77468e-08

> <r_epik_State_Penalty>
0.78427

> <r_epik_Charging_Adjusted_Penalty>
1.32501

> <i_epik_Tot_Q>
-1

> <i_epik_Tot_abs_Q>
1

> <r_epik_Metal_State_Penalty>
0.663709

> <b_epik_Metal_Only>
0

> <s_lp_Force_Field>
OPLS_2005

> <r_lp_Energy>
10.9518

> <b_lp_Chiralities_Consistent>
1

> <s_lp_Variant>
AV-unprocessed.smi:994-4

> <Gold.Version>
5.8.1

> <Gold.Id.Protein>
6NUR|6NUR_protein|mol2

> <Gold.PLP.Fitness>
51.3626

> <Gold.PLP.PLP>
-36.8999

> <Gold.PLP.part.hbond>
-3.9880

> <Gold.PLP.part.metal>
0.0000

> <Gold.PLP.part.buried>
-2.7687

> <Gold.PLP.part.nonpolar>
-31.1594

> <Gold.PLP.part.repulsive>
0.2835

> <Gold.PLP.ligand.clash>
0.0386

> <Gold.PLP.ligand.torsion>
0.9264

> <Gold.PLP.Chemscore.Hbond>
4.9913

> <Gold.PLP.Chemscore.CHOScore>
0.4456

> <Gold.PLP.Chemscore.Metal>
0.0000

> <Gold.Chemscore.Hbonds>
donor molecule, donor type, donor heavy atom, donor atom, acceptor molecule, acceptor atom, score
      L1  H    10    20       P1  7948  0.63
      P1  H  7997  8010       L1    12  0.94
      P1  H 10752 10763       L1    13  0.71
      L1  C     9    26       P1 10175  0.68

> <Gold.PLP.Chemscore.Internal.Correction>
0.0436

> <Gold.Rescore>
     Score         DG    S(hbond)    S(metal)    S(lipo)     H(rot)  DE(clash)    DE(int)     intcor
     17.34     -18.91       2.86        0.00      91.40       2.66       0.04       1.53       ----

> <Gold.Chemscore.Fitness>
17.3378

> <Gold.Chemscore.DG>
-18.9052

> <Gold.Chemscore.ZeroCoef>
-5.4800

> <Gold.Chemscore.Hbond>
2.8552

> <Gold.Chemscore.Metal>
0.0000

> <Gold.Chemscore.Lipo>
91.3980

> <Gold.Chemscore.Internal_Hbond>
0.0000

> <Gold.Chemscore.DEClash>
0.0381

> <Gold.Chemscore.DEInternal>
1.5293

> <Gold.Chemscore.Rot>
2.6581

> <Gold.Chemscore.Internal.Correction>
   9.000000E+99

> <Gold.Chemscore.Hbonds>
donor molecule, donor type, donor heavy atom, donor atom, acceptor molecule, acceptor atom, score
      L1  H    10    20       P1  7948  0.62
      P1  H  7997  8010       L1    12  0.46
      P1  H 10752 10763       L1    13  0.11

> <Gold.Chemscore.Hbond.Weighted>
-9.5365

> <Gold.Chemscore.Metal.Weighted>
-0.0000

> <Gold.Chemscore.Lipo.Weighted>
-10.6936

> <Gold.Chemscore.Internal_Hbond.Weighted>
0.0000

> <Gold.Chemscore.DEClash.Weighted>
0.0381

> <Gold.Chemscore.DEInternal.Weighted>
1.5293

> <Gold.Chemscore.Rot.Weighted>
6.8048

> <Gold.Chemscore.Internal.Correction.Weighted>
   9.000000E+99

> <Gold.Protein.RotatedTorsions>
[ 6907 6896 6895 6894 ] final -152.91 input  -60.11 | X-H torsion
[ 7974 7965 7964 7962 ] final  -26.23 input  175.53 | X-H torsion
[ 8008 7997 7996 7995 ] final   84.94 input   59.86 | X-H torsion
[ 10167 10162 10161 10158 ] final  140.40 input  -65.29 | X-H torsion
[ 10718 10713 10712 10709 ] final   66.02 input   66.30 | X-H torsion
[ 10763 10752 10751 10750 ] final   87.72 input  -60.55 | X-H torsion
[ 11005 11000 10999 10996 ] final   31.10 input  -57.11 | X-H torsion

> <Gold.Protein.ActiveResidues>
 VAL166  LYS551  ARG553  GLY616  TRP617  ASP618  TYR619  PRO620  LYS621  CYS622 
 ASP623  PHE694  ASN695  SER759  ASP760  ASP761  ALA762  ILE779  LEU786  VAL792 
 PHE793  MET794  SER795  GLU796  ALA797  LYS798  CYS799  TRP800  GLU811  SER814 

> <Gold.Protein.RotatedAtoms>
  151.2348  133.4431  159.2604 H   0  0  0  0  0  0  0  0  0  0  0  0  # atno 6907 bound_to 6896
  151.0760  134.9829  159.8342 H   0  0  0  0  0  0  0  0  0  0  0  0  # atno 6908 bound_to 6896
  152.5418  134.2291  159.8870 H   0  0  0  0  0  0  0  0  0  0  0  0  # atno 6909 bound_to 6896
  146.1439  140.4992  142.8640 H   0  0  0  0  0  0  0  0  0  0  0  0  # atno 7974 bound_to 7965
  155.9436  140.3406  155.6348 H   0  0  0  0  0  0  0  0  0  0  0  0  # atno 8008 bound_to 7997
  155.7008  140.0760  157.2429 H   0  0  0  0  0  0  0  0  0  0  0  0  # atno 8009 bound_to 7997
  154.4107  140.1640  156.2177 H   0  0  0  0  0  0  0  0  0  0  0  0  # atno 8010 bound_to 7997
  139.5050  144.6236  151.5992 H   0  0  0  0  0  0  0  0  0  0  0  0  # atno 10167 bound_to 10162
  157.6142  130.9245  150.0053 H   0  0  0  0  0  0  0  0  0  0  0  0  # atno 10718 bound_to 10713
  153.1696  135.4533  154.9884 H   0  0  0  0  0  0  0  0  0  0  0  0  # atno 10763 bound_to 10752
  154.7957  135.3236  154.7676 H   0  0  0  0  0  0  0  0  0  0  0  0  # atno 10764 bound_to 10752
  153.8154  135.6951  153.4889 H   0  0  0  0  0  0  0  0  0  0  0  0  # atno 10765 bound_to 10752
  140.2874  134.2903  155.7784 H   0  0  0  0  0  0  0  0  0  0  0  0  # atno 11005 bound_to 11000
  144.7824  140.5867  143.6596 LP  0  0  0  0  0  0  0  0  0  0  0  0  # atno 17320 bound_to 7965
  145.4982  139.1485  143.3672 LP  0  0  0  0  0  0  0  0  0  0  0  0  # atno 17321 bound_to 7965
  140.5946  143.9719  150.6346 LP  0  0  0  0  0  0  0  0  0  0  0  0  # atno 17342 bound_to 10162
  140.2911  143.3324  152.1062 LP  0  0  0  0  0  0  0  0  0  0  0  0  # atno 17343 bound_to 10162
  156.1258  130.3644  149.9812 LP  0  0  0  0  0  0  0  0  0  0  0  0  # atno 17370 bound_to 10713
  156.7884  130.9247  151.3646 LP  0  0  0  0  0  0  0  0  0  0  0  0  # atno 17371 bound_to 10713
  141.2152  133.7563  156.9572 LP  0  0  0  0  0  0  0  0  0  0  0  0  # atno 17394 bound_to 11000
  140.1227  134.9406  157.2226 LP  0  0  0  0  0  0  0  0  0  0  0  0  # atno 17395 bound_to 11000

$$$$
