AV-unprocessed.smi:2988|AV-procd|sdf|11390|dock6
  -GOLD-   2272016313D 1   1.00000     0.00000
 Structure written by MMmdl.
 37 38  0  0  0  0  0  0  0  0  1 V2000
  150.9577  140.5295  158.4525 C   0  0  0  0  0  0  0  0  0  0  0  0
  151.1045  142.0591  158.5485 C   0  0  1  0  0  0  0  0  0  0  0  0
  152.2452  142.4341  159.5168 C   0  0  0  0  0  0  0  0  0  0  0  0
  152.4125  143.9557  159.6424 C   0  0  0  0  0  0  0  0  0  0  0  0
  152.6457  144.5993  158.2690 C   0  0  0  0  0  0  0  0  0  0  0  0
  151.5116  144.2474  157.2954 C   0  0  0  0  0  0  0  0  0  0  0  0
  151.3234  142.7219  157.1655 C   0  0  2  0  0  0  0  0  0  0  0  0
  150.1917  142.4431  156.2841 N   0  0  0  0  0  0  0  0  0  0  0  0
  150.0818  141.3851  155.4668 C   0  0  0  0  0  0  0  0  0  0  0  0
  150.9593  140.5298  155.3433 O   0  0  0  0  0  0  0  0  0  0  0  0
  148.7858  141.2957  154.6491 C   0  0  0  0  0  0  0  0  0  0  0  0
  147.6008  141.7171  155.4100 N   0  0  0  0  0  0  0  0  0  0  0  0
  147.4854  141.1216  156.6539 N   0  0  0  0  0  0  0  0  0  0  0  0
  146.4930  141.4312  157.4153 C   0  0  0  0  0  0  0  0  0  0  0  0
  145.4809  142.3829  157.0135 C   0  0  0  0  0  0  0  0  0  0  0  0
  144.1723  142.7586  158.0784 Cl  0  0  0  0  0  0  0  0  0  0  0  0
  145.5999  142.9559  155.7894 C   0  0  0  0  0  0  0  0  0  0  0  0
  144.4285  144.1041  155.2383 Cl  0  0  0  0  0  0  0  0  0  0  0  0
  146.7177  142.6268  154.8939 C   0  0  0  0  0  0  0  0  0  0  0  0
  146.8589  143.1209  153.7742 O   0  0  0  0  0  0  0  0  0  0  0  0
  151.8476  140.0736  158.0175 H   0  0  0  0  0  0  0  0  0  0  0  0
  150.1039  140.2425  157.8383 H   0  0  0  0  0  0  0  0  0  0  0  0
  150.8078  140.0885  159.4383 H   0  0  0  0  0  0  0  0  0  0  0  0
  150.1763  142.4503  158.9680 H   0  0  0  0  0  0  0  0  0  0  0  0
  152.0527  142.0083  160.5021 H   0  0  0  0  0  0  0  0  0  0  0  0
  153.1816  141.9951  159.1701 H   0  0  0  0  0  0  0  0  0  0  0  0
  151.5225  144.3856  160.1036 H   0  0  0  0  0  0  0  0  0  0  0  0
  153.2467  144.1845  160.3063 H   0  0  0  0  0  0  0  0  0  0  0  0
  152.7230  145.6818  158.3737 H   0  0  0  0  0  0  0  0  0  0  0  0
  153.5978  144.2581  157.8609 H   0  0  0  0  0  0  0  0  0  0  0  0
  150.5844  144.7060  157.6423 H   0  0  0  0  0  0  0  0  0  0  0  0
  151.7234  144.6833  156.3184 H   0  0  0  0  0  0  0  0  0  0  0  0
  152.2321  142.2980  156.7332 H   0  0  0  0  0  0  0  0  0  0  0  0
  149.4238  143.0980  156.3138 H   0  0  0  0  0  0  0  0  0  0  0  0
  148.8753  141.8934  153.7396 H   0  0  0  0  0  0  0  0  0  0  0  0
  148.6726  140.2645  154.3101 H   0  0  0  0  0  0  0  0  0  0  0  0
  146.3633  140.9915  158.4045 H   0  0  0  0  0  0  0  0  0  0  0  0
  1  2  1  0  0  0  0
  1 21  1  0  0  0  0
  1 22  1  0  0  0  0
  1 23  1  0  0  0  0
  2  7  1  0  0  0  0
  2  3  1  0  0  0  0
  2 24  1  0  0  0  0
  3  4  1  0  0  0  0
  3 25  1  0  0  0  0
  3 26  1  0  0  0  0
  4  5  1  0  0  0  0
  4 27  1  0  0  0  0
  4 28  1  0  0  0  0
  5  6  1  0  0  0  0
  5 29  1  0  0  0  0
  5 30  1  0  0  0  0
  6  7  1  0  0  0  0
  6 31  1  0  0  0  0
  6 32  1  0  0  0  0
  7  8  1  0  0  0  0
  7 33  1  0  0  0  0
  8  9  1  0  0  0  0
  8 34  1  0  0  0  0
  9 10  2  0  0  0  0
  9 11  1  0  0  0  0
 11 12  1  0  0  0  0
 11 35  1  0  0  0  0
 11 36  1  0  0  0  0
 12 19  1  0  0  0  0
 12 13  1  0  0  0  0
 13 14  2  0  0  0  0
 14 15  1  0  0  0  0
 14 37  1  0  0  0  0
 15 16  1  0  0  0  0
 15 17  2  0  0  0  0
 17 18  1  0  0  0  0
 17 19  1  0  0  0  0
 19 20  2  0  0  0  0
M  END
> <s_m_source_file>
AV-unprocessed.smi

> <i_m_source_file_index>
2988

> <i_lp_mmshare_version>
43012

> <i_f3d_flags>
0

> <s_epik_input>
W0NIM11bQ0BASF0xW0NIMl1bQ0gyXVtDSDJdW0NIMl1bQ0BIXTFbTkhdQyg9TylbQ0gyXW4ybltjSF1jKENsKWMoQ2wpYzI9Tw==

> <s_epik_cmdline>
J2VwaWtfcHl0aG9uJywgJy1waCcsICc3LjAnLCAnLXRuJywgJzgnLCAnLW1hJywgJzIwMCcsICctbWV0YWxfYmluZGluZycsICctaW1hZScsICc8aW5maWxlLm1hZT4nLCAnLW9tYWUnLCAnPG91dGZpbGUubWFlPic=

> <r_lp_tautomer_probability>
1

> <r_epik_Ionization_Penalty>
1.90782e-08

> <r_epik_Ionization_Penalty_Charging>
3.13143e-11

> <r_epik_Ionization_Penalty_Neutral>
1.90469e-08

> <r_epik_State_Penalty>
-0

> <r_epik_Charging_Adjusted_Penalty>
3.13143e-11

> <i_epik_Tot_Q>
0

> <i_epik_Tot_abs_Q>
0

> <r_epik_Metal_State_Penalty>
-0

> <b_epik_Metal_Only>
0

> <s_lp_Force_Field>
OPLS_2005

> <r_lp_Energy>
24.109

> <b_lp_Chiralities_Consistent>
1

> <s_lp_Variant>
AV-unprocessed.smi:2988-4

> <Gold.Version>
5.8.1

> <Gold.Id.Protein>
6NUR|6NUR_protein|mol2

> <Gold.PLP.Fitness>
42.3878

> <Gold.PLP.PLP>
-38.4800

> <Gold.PLP.part.hbond>
-3.0000

> <Gold.PLP.part.metal>
0.0000

> <Gold.PLP.part.buried>
-1.8356

> <Gold.PLP.part.nonpolar>
-33.6397

> <Gold.PLP.part.repulsive>
0.4220

> <Gold.PLP.ligand.clash>
0.0000

> <Gold.PLP.ligand.torsion>
0.7747

> <Gold.PLP.Chemscore.Hbond>
1.8172

> <Gold.PLP.Chemscore.CHOScore>
0.0000

> <Gold.PLP.Chemscore.Metal>
0.0000

> <Gold.Chemscore.Hbonds>
donor molecule, donor type, donor heavy atom, donor atom, acceptor molecule, acceptor atom, score
      L1  H     8    34       P1  8028  0.85
      P1  H  7989  7998       L1    10  0.94
      P1  H  8022  8030       L1    20  0.06

> <Gold.PLP.Chemscore.Internal.Correction>
0.0057

> <Gold.Rescore>
     Score         DG    S(hbond)    S(metal)    S(lipo)     H(rot)  DE(clash)    DE(int)     intcor
     15.70     -16.65       1.35        0.00      89.78       1.50       0.34       0.61       ----

> <Gold.Chemscore.Fitness>
15.6955

> <Gold.Chemscore.DG>
-16.6451

> <Gold.Chemscore.ZeroCoef>
-5.4800

> <Gold.Chemscore.Hbond>
1.3456

> <Gold.Chemscore.Metal>
0.0000

> <Gold.Chemscore.Lipo>
89.7845

> <Gold.Chemscore.Internal_Hbond>
0.0000

> <Gold.Chemscore.DEClash>
0.3352

> <Gold.Chemscore.DEInternal>
0.6144

> <Gold.Chemscore.Rot>
1.4977

> <Gold.Chemscore.Internal.Correction>
   9.000000E+99

> <Gold.Chemscore.Hbonds>
donor molecule, donor type, donor heavy atom, donor atom, acceptor molecule, acceptor atom, score
      L1  H     8    34       P1  8028  0.83
      P1  H  7989  7998       L1    10  0.31
      P1  H  8022  8030       L1    20  0.06

> <Gold.Chemscore.Hbond.Weighted>
-4.4945

> <Gold.Chemscore.Metal.Weighted>
-0.0000

> <Gold.Chemscore.Lipo.Weighted>
-10.5048

> <Gold.Chemscore.Internal_Hbond.Weighted>
0.0000

> <Gold.Chemscore.DEClash.Weighted>
0.3352

> <Gold.Chemscore.DEInternal.Weighted>
0.6144

> <Gold.Chemscore.Rot.Weighted>
3.8341

> <Gold.Chemscore.Internal.Correction.Weighted>
   9.000000E+99

> <Gold.Protein.RotatedTorsions>
[ 6907 6896 6895 6894 ] final   29.95 input  -60.11 | X-H torsion
[ 7974 7965 7964 7962 ] final -151.56 input  175.53 | X-H torsion
[ 8008 7997 7996 7995 ] final -100.14 input   59.86 | X-H torsion
[ 10167 10162 10161 10158 ] final   92.83 input  -65.29 | X-H torsion
[ 10718 10713 10712 10709 ] final   61.31 input   66.30 | X-H torsion
[ 10763 10752 10751 10750 ] final -178.33 input  -60.55 | X-H torsion
[ 11005 11000 10999 10996 ] final   75.12 input  -57.11 | X-H torsion

> <Gold.Protein.ActiveResidues>
 VAL166  LYS551  ARG553  GLY616  TRP617  ASP618  TYR619  PRO620  LYS621  CYS622 
 ASP623  PHE694  ASN695  SER759  ASP760  ASP761  ALA762  ILE779  LEU786  VAL792 
 PHE793  MET794  SER795  GLU796  ALA797  LYS798  CYS799  TRP800  GLU811  SER814 

> <Gold.Protein.RotatedAtoms>
  152.0390  134.9723  160.0573 H   0  0  0  0  0  0  0  0  0  0  0  0  # atno 6907 bound_to 6896
  152.1169  133.4327  159.4665 H   0  0  0  0  0  0  0  0  0  0  0  0  # atno 6908 bound_to 6896
  150.6846  134.2500  159.4550 H   0  0  0  0  0  0  0  0  0  0  0  0  # atno 6909 bound_to 6896
  144.7843  140.4781  143.5817 H   0  0  0  0  0  0  0  0  0  0  0  0  # atno 7974 bound_to 7965
  154.8245  140.0443  157.1434 H   0  0  0  0  0  0  0  0  0  0  0  0  # atno 8008 bound_to 7997
  154.9222  140.3028  155.5190 H   0  0  0  0  0  0  0  0  0  0  0  0  # atno 8009 bound_to 7997
  156.2982  140.2338  156.4273 H   0  0  0  0  0  0  0  0  0  0  0  0  # atno 8010 bound_to 7997
  139.8238  144.6719  150.9485 H   0  0  0  0  0  0  0  0  0  0  0  0  # atno 10167 bound_to 10162
  157.5818  130.8988  149.9445 H   0  0  0  0  0  0  0  0  0  0  0  0  # atno 10718 bound_to 10713
  154.5490  135.2811  155.1026 H   0  0  0  0  0  0  0  0  0  0  0  0  # atno 10763 bound_to 10752
  154.2479  135.6345  153.5233 H   0  0  0  0  0  0  0  0  0  0  0  0  # atno 10764 bound_to 10752
  152.9998  135.5575  154.6051 H   0  0  0  0  0  0  0  0  0  0  0  0  # atno 10765 bound_to 10752
  139.9358  134.7491  156.1232 H   0  0  0  0  0  0  0  0  0  0  0  0  # atno 11005 bound_to 11000
  145.5965  139.1500  143.3153 LP  0  0  0  0  0  0  0  0  0  0  0  0  # atno 17320 bound_to 7965
  146.2067  140.6088  142.9078 LP  0  0  0  0  0  0  0  0  0  0  0  0  # atno 17321 bound_to 7965
  140.7811  143.4066  151.1062 LP  0  0  0  0  0  0  0  0  0  0  0  0  # atno 17342 bound_to 10162
  139.7724  143.8474  152.3123 LP  0  0  0  0  0  0  0  0  0  0  0  0  # atno 17343 bound_to 10162
  156.0865  130.3667  150.0478 LP  0  0  0  0  0  0  0  0  0  0  0  0  # atno 17370 bound_to 10713
  156.8616  130.9493  151.3617 LP  0  0  0  0  0  0  0  0  0  0  0  0  # atno 17371 bound_to 10713
  141.0971  133.6691  156.2670 LP  0  0  0  0  0  0  0  0  0  0  0  0  # atno 17394 bound_to 11000
  140.6079  134.5488  157.5528 LP  0  0  0  0  0  0  0  0  0  0  0  0  # atno 17395 bound_to 11000

$$$$
