AV-unprocessed.smi:3031|AV-procd|sdf|11546|dock9
  -GOLD-   2272016503D 1   1.00000     0.00000
 Structure written by MMmdl.
 47 48  0  0  0  0  0  0  0  0  2 V2000
  151.5054  137.9244  155.0396 C   0  0  0  0  0  0  0  0  0  0  0  0
  150.6520  139.1597  155.0307 C   0  0  0  0  0  0  0  0  0  0  0  0
  150.5509  140.1601  156.0390 C   0  0  0  0  0  0  0  0  0  0  0  0
  149.7056  141.1270  155.7217 N   0  0  0  0  0  0  0  0  0  0  0  0
  149.2358  140.7781  154.5050 N   0  0  0  0  0  0  0  0  0  0  0  0
  148.2680  141.6248  153.8301 C   0  0  0  0  0  0  0  0  0  0  0  0
  146.8219  141.4213  154.3453 C   0  0  1  0  0  0  0  0  0  0  0  0
  145.9631  142.6907  154.2080 C   0  0  0  0  0  0  0  0  0  0  0  0
  146.1487  140.3157  153.6560 N   0  0  0  0  0  0  0  0  0  0  0  0
  146.5544  140.0942  152.2677 C   0  0  0  0  0  0  0  0  0  0  0  0
  146.8599  138.6103  152.0038 C   0  0  2  0  0  0  0  0  0  0  0  0
  146.7618  138.4005  150.6095 O   0  0  0  0  0  0  0  0  0  0  0  0
  145.8648  137.6604  152.7046 C   0  0  0  0  0  0  0  0  0  0  0  0
  146.1043  136.2345  152.3652 N   0  3  0  0  0  0  0  0  0  0  0  0
  145.8950  135.3075  153.5053 C   0  0  0  0  0  0  0  0  0  0  0  0
  146.2040  133.8607  153.0842 C   0  0  0  0  0  0  0  0  0  0  0  0
  145.3921  133.5030  151.9727 O   0  0  0  0  0  0  0  0  0  0  0  0
  145.6451  134.3281  150.8427 C   0  0  0  0  0  0  0  0  0  0  0  0
  145.3195  135.7912  151.1883 C   0  0  0  0  0  0  0  0  0  0  0  0
  149.7934  139.5975  154.0624 C   0  0  0  0  0  0  0  0  0  0  0  0
  151.7905  137.6366  156.0517 H   0  0  0  0  0  0  0  0  0  0  0  0
  152.4263  138.0696  154.4747 H   0  0  0  0  0  0  0  0  0  0  0  0
  150.9875  137.0730  154.5979 H   0  0  0  0  0  0  0  0  0  0  0  0
  151.0652  140.2117  156.9872 H   0  0  0  0  0  0  0  0  0  0  0  0
  148.5679  142.6673  153.9509 H   0  0  0  0  0  0  0  0  0  0  0  0
  148.3364  141.4024  152.7654 H   0  0  0  0  0  0  0  0  0  0  0  0
  146.8759  141.1846  155.4089 H   0  0  0  0  0  0  0  0  0  0  0  0
  146.3558  143.5102  154.8103 H   0  0  0  0  0  0  0  0  0  0  0  0
  144.9412  142.5113  154.5437 H   0  0  0  0  0  0  0  0  0  0  0  0
  145.9185  143.0301  153.1727 H   0  0  0  0  0  0  0  0  0  0  0  0
  145.1440  140.4523  153.7014 H   0  0  0  0  0  0  0  0  0  0  0  0
  145.7789  140.4276  151.5783 H   0  0  0  0  0  0  0  0  0  0  0  0
  147.4429  140.6901  152.0535 H   0  0  0  0  0  0  0  0  0  0  0  0
  147.8860  138.4009  152.3058 H   0  0  0  0  0  0  0  0  0  0  0  0
  145.9114  138.6930  150.3185 H   0  0  0  0  0  0  0  0  0  0  0  0
  145.9120  137.7779  153.7882 H   0  0  0  0  0  0  0  0  0  0  0  0
  144.8514  137.9433  152.4151 H   0  0  0  0  0  0  0  0  0  0  0  0
  146.5329  135.5809  154.3448 H   0  0  0  0  0  0  0  0  0  0  0  0
  144.8630  135.3796  153.8523 H   0  0  0  0  0  0  0  0  0  0  0  0
  147.2593  133.7440  152.8326 H   0  0  0  0  0  0  0  0  0  0  0  0
  145.9958  133.1773  153.9076 H   0  0  0  0  0  0  0  0  0  0  0  0
  146.6838  134.2235  150.5251 H   0  0  0  0  0  0  0  0  0  0  0  0
  145.0232  133.9906  150.0133 H   0  0  0  0  0  0  0  0  0  0  0  0
  144.2539  135.8985  151.3971 H   0  0  0  0  0  0  0  0  0  0  0  0
  145.5449  136.4270  150.3312 H   0  0  0  0  0  0  0  0  0  0  0  0
  149.5335  139.1702  153.1051 H   0  0  0  0  0  0  0  0  0  0  0  0
  147.0768  136.1650  152.0998 H   0  0  0  0  0  0  0  0  0  0  0  0
  1  2  1  0  0  0  0
  1 21  1  0  0  0  0
  1 22  1  0  0  0  0
  1 23  1  0  0  0  0
  2 20  2  0  0  0  0
  2  3  1  0  0  0  0
  3  4  2  0  0  0  0
  3 24  1  0  0  0  0
  4  5  1  0  0  0  0
  5  6  1  0  0  0  0
  5 20  1  0  0  0  0
  6  7  1  0  0  0  0
  6 25  1  0  0  0  0
  6 26  1  0  0  0  0
  7  8  1  0  0  0  0
  7  9  1  0  0  0  0
  7 27  1  0  0  0  0
  8 28  1  0  0  0  0
  8 29  1  0  0  0  0
  8 30  1  0  0  0  0
  9 10  1  0  0  0  0
  9 31  1  0  0  0  0
 10 11  1  0  0  0  0
 10 32  1  0  0  0  0
 10 33  1  0  0  0  0
 11 12  1  0  0  0  0
 11 13  1  0  0  0  0
 11 34  1  0  0  0  0
 12 35  1  0  0  0  0
 13 14  1  0  0  0  0
 13 36  1  0  0  0  0
 13 37  1  0  0  0  0
 14 19  1  0  0  0  0
 14 15  1  0  0  0  0
 14 47  1  0  0  0  0
 15 16  1  0  0  0  0
 15 38  1  0  0  0  0
 15 39  1  0  0  0  0
 16 17  1  0  0  0  0
 16 40  1  0  0  0  0
 16 41  1  0  0  0  0
 17 18  1  0  0  0  0
 18 19  1  0  0  0  0
 18 42  1  0  0  0  0
 18 43  1  0  0  0  0
 19 44  1  0  0  0  0
 19 45  1  0  0  0  0
 20 46  1  0  0  0  0
M  CHG  1  14   1
M  END
> <s_m_source_file>
AV-unprocessed.smi

> <i_m_source_file_index>
3031

> <i_lp_mmshare_version>
43012

> <i_f3d_flags>
0

> <s_epik_input>
W0NIM11jMVtjSF1ubihbY0hdMSlbQ0gyXVtDQEhdKFtDSDNdKVtOSF1bQ0gyXVtDQEhdKFtPSF0pW0NIMl1OMltDSDJdW0NIMl1PW0NIMl1bQ0gyXTI=

> <s_epik_cmdline>
J2VwaWtfcHl0aG9uJywgJy1waCcsICc3LjAnLCAnLXRuJywgJzgnLCAnLW1hJywgJzIwMCcsICctbWV0YWxfYmluZGluZycsICctaW1hZScsICc8aW5maWxlLm1hZT4nLCAnLW9tYWUnLCAnPG91dGZpbGUubWFlPic=

> <r_epik_Ionization_Penalty>
0.467051

> <r_epik_Ionization_Penalty_Charging>
0.202493

> <r_epik_Ionization_Penalty_Neutral>
0.264558

> <r_epik_State_Penalty>
1.34287

> <r_epik_Charging_Adjusted_Penalty>
1.54537

> <i_epik_Tot_Q>
1

> <i_epik_Tot_abs_Q>
1

> <r_epik_Metal_State_Penalty>
1.34281

> <b_epik_Metal_Only>
0

> <s_lp_Force_Field>
OPLS_2005

> <r_lp_Energy>
23.2864

> <b_lp_Chiralities_Consistent>
1

> <s_lp_Variant>
AV-unprocessed.smi:3031-6

> <Gold.Version>
5.8.1

> <Gold.Id.Protein>
6NUR|6NUR_protein|mol2

> <Gold.PLP.Fitness>
51.0356

> <Gold.PLP.PLP>
-38.0104

> <Gold.PLP.part.hbond>
-4.1431

> <Gold.PLP.part.metal>
0.0000

> <Gold.PLP.part.buried>
3.5868

> <Gold.PLP.part.nonpolar>
-36.7445

> <Gold.PLP.part.repulsive>
0.2004

> <Gold.PLP.ligand.clash>
0.0000

> <Gold.PLP.ligand.torsion>
2.0054

> <Gold.PLP.Chemscore.Hbond>
4.6160

> <Gold.PLP.Chemscore.CHOScore>
1.0000

> <Gold.PLP.Chemscore.Metal>
0.0000

> <Gold.Chemscore.Hbonds>
donor molecule, donor type, donor heavy atom, donor atom, acceptor molecule, acceptor atom, score
      L1  H     9    31       P1 10175  0.75
      L1  H    12    35       P1 10171  0.88
      L1  H    14    47       P1  7948  2.00
      P1  H  7954  7966       L1    12  0.91
      L1  C    20    46       P1  7957  1.00

> <Gold.PLP.Chemscore.Internal.Correction>
0.1880

> <Gold.Rescore>
     Score         DG    S(hbond)    S(metal)    S(lipo)     H(rot)  DE(clash)    DE(int)     intcor
     17.18     -20.68       3.60        0.00      85.33       2.65       1.37       2.14       ----

> <Gold.Chemscore.Fitness>
17.1782

> <Gold.Chemscore.DG>
-20.6847

> <Gold.Chemscore.ZeroCoef>
-5.4800

> <Gold.Chemscore.Hbond>
3.5958

> <Gold.Chemscore.Metal>
0.0000

> <Gold.Chemscore.Lipo>
85.3327

> <Gold.Chemscore.Internal_Hbond>
0.0000

> <Gold.Chemscore.DEClash>
1.3684

> <Gold.Chemscore.DEInternal>
2.1381

> <Gold.Chemscore.Rot>
2.6521

> <Gold.Chemscore.Internal.Correction>
   9.000000E+99

> <Gold.Chemscore.Hbonds>
donor molecule, donor type, donor heavy atom, donor atom, acceptor molecule, acceptor atom, score
      L1  H     9    31       P1 10175  0.73
      L1  H    12    35       P1 10171  0.85
      L1  H    14    47       P1  7948  1.00
      P1  H  7954  7966       L1    12  0.81

> <Gold.Chemscore.Hbond.Weighted>
-12.0101

> <Gold.Chemscore.Metal.Weighted>
-0.0000

> <Gold.Chemscore.Lipo.Weighted>
-9.9839

> <Gold.Chemscore.Internal_Hbond.Weighted>
0.0000

> <Gold.Chemscore.DEClash.Weighted>
1.3684

> <Gold.Chemscore.DEInternal.Weighted>
2.1381

> <Gold.Chemscore.Rot.Weighted>
6.7894

> <Gold.Chemscore.Internal.Correction.Weighted>
   9.000000E+99

> <Gold.Protein.RotatedTorsions>
[ 6907 6896 6895 6894 ] final  -59.41 input  -60.11 | X-H torsion
[ 7974 7965 7964 7962 ] final   19.31 input  175.53 | X-H torsion
[ 8008 7997 7996 7995 ] final  -69.35 input   59.86 | X-H torsion
[ 10167 10162 10161 10158 ] final -144.92 input  -65.29 | X-H torsion
[ 10718 10713 10712 10709 ] final   38.18 input   66.30 | X-H torsion
[ 10763 10752 10751 10750 ] final   30.61 input  -60.55 | X-H torsion
[ 11005 11000 10999 10996 ] final  -40.07 input  -57.11 | X-H torsion

> <Gold.Protein.ActiveResidues>
 VAL166  LYS551  ARG553  GLY616  TRP617  ASP618  TYR619  PRO620  LYS621  CYS622 
 ASP623  PHE694  ASN695  SER759  ASP760  ASP761  ALA762  ILE779  LEU786  VAL792 
 PHE793  MET794  SER795  GLU796  ALA797  LYS798  CYS799  TRP800  GLU811  SER814 

> <Gold.Protein.RotatedAtoms>
  150.7932  134.6972  159.6529 H   0  0  0  0  0  0  0  0  0  0  0  0  # atno 6907 bound_to 6896
  152.4041  134.6233  160.0066 H   0  0  0  0  0  0  0  0  0  0  0  0  # atno 6908 bound_to 6896
  151.6496  133.3285  159.3185 H   0  0  0  0  0  0  0  0  0  0  0  0  # atno 6909 bound_to 6896
  146.2154  139.8331  142.8656 H   0  0  0  0  0  0  0  0  0  0  0  0  # atno 7974 bound_to 7965
  154.4932  140.0855  156.7640 H   0  0  0  0  0  0  0  0  0  0  0  0  # atno 8008 bound_to 7997
  155.4180  140.3444  155.4251 H   0  0  0  0  0  0  0  0  0  0  0  0  # atno 8009 bound_to 7997
  156.1358  140.1515  156.8984 H   0  0  0  0  0  0  0  0  0  0  0  0  # atno 8010 bound_to 7997
  139.7854  143.8041  152.2644 H   0  0  0  0  0  0  0  0  0  0  0  0  # atno 10167 bound_to 10162
  157.3557  130.7622  149.7011 H   0  0  0  0  0  0  0  0  0  0  0  0  # atno 10718 bound_to 10713
  153.0362  135.6460  154.1071 H   0  0  0  0  0  0  0  0  0  0  0  0  # atno 10763 bound_to 10752
  154.0785  135.2875  155.3296 H   0  0  0  0  0  0  0  0  0  0  0  0  # atno 10764 bound_to 10752
  154.6546  135.5413  153.8007 H   0  0  0  0  0  0  0  0  0  0  0  0  # atno 10765 bound_to 10752
  141.0148  133.6890  156.2272 H   0  0  0  0  0  0  0  0  0  0  0  0  # atno 11005 bound_to 11000
  145.2976  141.0185  143.3627 LP  0  0  0  0  0  0  0  0  0  0  0  0  # atno 17320 bound_to 7965
  144.9030  139.4625  143.6623 LP  0  0  0  0  0  0  0  0  0  0  0  0  # atno 17321 bound_to 7965
  139.8116  144.7333  150.9689 LP  0  0  0  0  0  0  0  0  0  0  0  0  # atno 17342 bound_to 10162
  140.7819  143.4245  151.0790 LP  0  0  0  0  0  0  0  0  0  0  0  0  # atno 17343 bound_to 10162
  155.9729  130.4128  150.4049 LP  0  0  0  0  0  0  0  0  0  0  0  0  # atno 17370 bound_to 10713
  157.2119  131.0462  151.2594 LP  0  0  0  0  0  0  0  0  0  0  0  0  # atno 17371 bound_to 10713
  140.6673  134.4905  157.5586 LP  0  0  0  0  0  0  0  0  0  0  0  0  # atno 17394 bound_to 11000
  139.9111  134.8344  156.1527 LP  0  0  0  0  0  0  0  0  0  0  0  0  # atno 17395 bound_to 11000

$$$$
