AV-unprocessed.smi:91|AV-procd|sdf|833|dock2
  -GOLD-   2262017253D 1   1.00000     0.00000
 Structure written by MMmdl.
 60 63  0  0  0  0  0  0  0  0  1 V2000
  143.8783  132.7375  149.4460 C   0  0  0  0  0  0  0  0  0  0  0  0
  144.4136  132.1891  150.6374 O   0  0  0  0  0  0  0  0  0  0  0  0
  145.4946  131.3033  150.3911 C   0  0  0  0  0  0  0  0  0  0  0  0
  145.9720  130.6758  151.7081 C   0  0  2  0  0  0  0  0  0  0  0  0
  146.9153  131.5954  152.5040 C   0  0  0  0  0  0  0  0  0  0  0  0
  147.4075  130.8950  153.6803 N   0  0  0  0  0  0  0  0  0  0  0  0
  148.1024  131.6825  154.5275 C   0  0  0  0  0  0  0  0  0  0  0  0
  149.1796  132.3809  154.0817 N   0  0  0  0  0  0  0  0  0  0  0  0
  149.8606  133.1620  154.9259 C   0  0  0  0  0  0  0  0  0  0  0  0
  149.6379  133.3829  156.2236 N   0  0  0  0  0  0  0  0  0  0  0  0
  148.5540  132.6845  156.6689 C   0  0  0  0  0  0  0  0  0  0  0  0
  147.7388  131.8154  155.8921 C   0  0  0  0  0  0  0  0  0  0  0  0
  146.7325  131.2715  156.6791 N   0  0  0  0  0  0  0  0  0  0  0  0
  146.9407  131.7913  157.8584 C   0  0  0  0  0  0  0  0  0  0  0  0
  148.0083  132.6578  157.9407 N   0  0  0  0  0  0  0  0  0  0  0  0
  148.4571  133.3809  159.1185 C   0  0  0  0  0  0  0  0  0  0  0  0
  147.2752  133.9480  159.9516 C   0  0  2  0  0  0  0  0  0  0  0  0
  146.1944  134.5581  159.0303 C   0  0  0  0  0  0  0  0  0  0  0  0
  144.9962  134.7871  159.7410 O   0  0  0  0  0  0  0  0  0  0  0  0
  147.7602  134.9844  160.9982 C   0  0  2  0  0  0  0  0  0  0  0  0
  146.8242  135.1928  162.1765 C   0  0  0  0  0  0  0  0  0  0  0  0
  147.3053  136.5255  162.7367 C   0  0  0  0  0  0  0  0  0  0  0  0
  147.7209  137.2803  161.6058 O   0  0  0  0  0  0  0  0  0  0  0  0
  147.8679  136.4235  160.4774 C   0  0  0  0  0  0  0  0  0  0  0  0
  148.0782  129.6466  153.3415 C   0  0  0  0  0  0  0  0  0  0  0  0
  147.1392  128.7193  152.5377 C   0  0  0  0  0  0  0  0  0  0  0  0
  147.9444  127.5530  151.9449 C   0  0  0  0  0  0  0  0  0  0  0  0
  145.9985  128.1552  153.4117 C   0  0  0  0  0  0  0  0  0  0  0  0
  146.6175  129.4357  151.4119 O   0  0  0  0  0  0  0  0  0  0  0  0
  143.0542  133.4079  149.6894 H   0  0  0  0  0  0  0  0  0  0  0  0
  143.4935  131.9555  148.7901 H   0  0  0  0  0  0  0  0  0  0  0  0
  144.6304  133.3116  148.9034 H   0  0  0  0  0  0  0  0  0  0  0  0
  145.1740  130.5168  149.7060 H   0  0  0  0  0  0  0  0  0  0  0  0
  146.3183  131.8355  149.9124 H   0  0  0  0  0  0  0  0  0  0  0  0
  145.0845  130.4741  152.3078 H   0  0  0  0  0  0  0  0  0  0  0  0
  147.7608  131.8991  151.8849 H   0  0  0  0  0  0  0  0  0  0  0  0
  146.3906  132.5040  152.8031 H   0  0  0  0  0  0  0  0  0  0  0  0
  150.7043  133.6856  154.5011 H   0  0  0  0  0  0  0  0  0  0  0  0
  146.3134  131.5531  158.7040 H   0  0  0  0  0  0  0  0  0  0  0  0
  149.0820  132.7127  159.7111 H   0  0  0  0  0  0  0  0  0  0  0  0
  149.1273  134.1763  158.7905 H   0  0  0  0  0  0  0  0  0  0  0  0
  146.8041  133.1311  160.5020 H   0  0  0  0  0  0  0  0  0  0  0  0
  146.5136  135.5189  158.6284 H   0  0  0  0  0  0  0  0  0  0  0  0
  145.9940  133.9066  158.1791 H   0  0  0  0  0  0  0  0  0  0  0  0
  145.1519  135.4594  160.3867 H   0  0  0  0  0  0  0  0  0  0  0  0
  148.7359  134.6819  161.3827 H   0  0  0  0  0  0  0  0  0  0  0  0
  145.7924  135.2832  161.8337 H   0  0  0  0  0  0  0  0  0  0  0  0
  146.8724  134.3944  162.9169 H   0  0  0  0  0  0  0  0  0  0  0  0
  146.5335  137.0453  163.3046 H   0  0  0  0  0  0  0  0  0  0  0  0
  148.1654  136.3752  163.3902 H   0  0  0  0  0  0  0  0  0  0  0  0
  148.8146  136.6123  159.9707 H   0  0  0  0  0  0  0  0  0  0  0  0
  147.0614  136.6443  159.7769 H   0  0  0  0  0  0  0  0  0  0  0  0
  148.9680  129.8719  152.7510 H   0  0  0  0  0  0  0  0  0  0  0  0
  148.4184  129.1471  154.2500 H   0  0  0  0  0  0  0  0  0  0  0  0
  148.4063  126.9509  152.7280 H   0  0  0  0  0  0  0  0  0  0  0  0
  148.7403  127.9135  151.2924 H   0  0  0  0  0  0  0  0  0  0  0  0
  147.3080  126.8951  151.3522 H   0  0  0  0  0  0  0  0  0  0  0  0
  146.3930  127.5102  154.1974 H   0  0  0  0  0  0  0  0  0  0  0  0
  145.3048  127.5618  152.8154 H   0  0  0  0  0  0  0  0  0  0  0  0
  145.4240  128.9384  153.9055 H   0  0  0  0  0  0  0  0  0  0  0  0
  1  2  1  0  0  0  0
  1 30  1  0  0  0  0
  1 31  1  0  0  0  0
  1 32  1  0  0  0  0
  2  3  1  0  0  0  0
  3  4  1  0  0  0  0
  3 33  1  0  0  0  0
  3 34  1  0  0  0  0
  4 29  1  0  0  0  0
  4  5  1  0  0  0  0
  4 35  1  0  0  0  0
  5  6  1  0  0  0  0
  5 36  1  0  0  0  0
  5 37  1  0  0  0  0
  6  7  1  0  0  0  0
  6 25  1  0  0  0  0
  7 12  1  0  0  0  0
  7  8  2  0  0  0  0
  8  9  1  0  0  0  0
  9 10  2  0  0  0  0
  9 38  1  0  0  0  0
 10 11  1  0  0  0  0
 11 15  1  0  0  0  0
 11 12  2  0  0  0  0
 12 13  1  0  0  0  0
 13 14  2  0  0  0  0
 14 15  1  0  0  0  0
 14 39  1  0  0  0  0
 15 16  1  0  0  0  0
 16 17  1  0  0  0  0
 16 40  1  0  0  0  0
 16 41  1  0  0  0  0
 17 18  1  0  0  0  0
 17 20  1  0  0  0  0
 17 42  1  0  0  0  0
 18 19  1  0  0  0  0
 18 43  1  0  0  0  0
 18 44  1  0  0  0  0
 19 45  1  0  0  0  0
 20 24  1  0  0  0  0
 20 21  1  0  0  0  0
 20 46  1  0  0  0  0
 21 22  1  0  0  0  0
 21 47  1  0  0  0  0
 21 48  1  0  0  0  0
 22 23  1  0  0  0  0
 22 49  1  0  0  0  0
 22 50  1  0  0  0  0
 23 24  1  0  0  0  0
 24 51  1  0  0  0  0
 24 52  1  0  0  0  0
 25 26  1  0  0  0  0
 25 53  1  0  0  0  0
 25 54  1  0  0  0  0
 26 27  1  0  0  0  0
 26 28  1  0  0  0  0
 26 29  1  0  0  0  0
 27 55  1  0  0  0  0
 27 56  1  0  0  0  0
 27 57  1  0  0  0  0
 28 58  1  0  0  0  0
 28 59  1  0  0  0  0
 28 60  1  0  0  0  0
M  END
> <s_m_source_file>
AV-unprocessed.smi

> <i_m_source_file_index>
91

> <i_lp_mmshare_version>
43012

> <i_f3d_flags>
0

> <s_epik_input>
W0NIM11PW0NIMl1bQ0BASF0oTzEpW0NIMl1OKFtDSDJdQzEoW0NIM10pW0NIM10pYyhuW2NIXW4yKWMoYzIzKW5bY0hdbjNbQ0gyXVtDQEhdKFtDSDJdW09IXSlbQ0BASF00W0NIMl1bQ0gyXU9bQ0gyXTQ=

> <s_epik_cmdline>
J2VwaWtfcHl0aG9uJywgJy1waCcsICc3LjAnLCAnLXRuJywgJzgnLCAnLW1hJywgJzIwMCcsICctbWV0YWxfYmluZGluZycsICctaW1hZScsICc8aW5maWxlLm1hZT4nLCAnLW9tYWUnLCAnPG91dGZpbGUubWFlPic=

> <r_lp_tautomer_probability>
1

> <r_epik_Ionization_Penalty>
8.63591e-05

> <r_epik_Ionization_Penalty_Charging>
0

> <r_epik_Ionization_Penalty_Neutral>
8.63591e-05

> <r_epik_State_Penalty>
-0

> <r_epik_Charging_Adjusted_Penalty>
0

> <i_epik_Tot_Q>
0

> <i_epik_Tot_abs_Q>
0

> <r_epik_Metal_State_Penalty>
-0

> <b_epik_Metal_Only>
0

> <s_lp_Force_Field>
OPLS_2005

> <r_lp_Energy>
49.9364

> <b_lp_Chiralities_Consistent>
1

> <s_lp_Variant>
AV-unprocessed.smi:91-1

> <Gold.Version>
5.8.1

> <Gold.Id.Protein>
6NUR|6NUR_protein|mol2

> <Gold.PLP.Fitness>
42.5401

> <Gold.PLP.PLP>
-39.6684

> <Gold.PLP.part.hbond>
-2.0000

> <Gold.PLP.part.metal>
0.0000

> <Gold.PLP.part.buried>
-5.2189

> <Gold.PLP.part.nonpolar>
-33.6698

> <Gold.PLP.part.repulsive>
1.6234

> <Gold.PLP.ligand.clash>
0.0000

> <Gold.PLP.ligand.torsion>
1.3524

> <Gold.PLP.Chemscore.Hbond>
1.7360

> <Gold.PLP.Chemscore.CHOScore>
0.0000

> <Gold.PLP.Chemscore.Metal>
0.0000

> <Gold.Chemscore.Hbonds>
donor molecule, donor type, donor heavy atom, donor atom, acceptor molecule, acceptor atom, score
      P1  H  6931  6943       L1    23  0.98
      P1  H  6934  6947       L1    23  0.70

> <Gold.PLP.Chemscore.Internal.Correction>
0.3685

> <Gold.Rescore>
     Score         DG    S(hbond)    S(metal)    S(lipo)     H(rot)  DE(clash)    DE(int)     intcor
     13.49     -15.06       1.35        0.00     109.64       3.03       0.15       1.43       ----

> <Gold.Chemscore.Fitness>
13.4918

> <Gold.Chemscore.DG>
-15.0647

> <Gold.Chemscore.ZeroCoef>
-5.4800

> <Gold.Chemscore.Hbond>
1.3501

> <Gold.Chemscore.Metal>
0.0000

> <Gold.Chemscore.Lipo>
109.6433

> <Gold.Chemscore.Internal_Hbond>
0.0000

> <Gold.Chemscore.DEClash>
0.1464

> <Gold.Chemscore.DEInternal>
1.4264

> <Gold.Chemscore.Rot>
3.0284

> <Gold.Chemscore.Internal.Correction>
   9.000000E+99

> <Gold.Chemscore.Hbonds>
donor molecule, donor type, donor heavy atom, donor atom, acceptor molecule, acceptor atom, score
      P1  H  6931  6943       L1    23  0.72
      P1  H  6934  6947       L1    23  0.47

> <Gold.Chemscore.Hbond.Weighted>
-4.5092

> <Gold.Chemscore.Metal.Weighted>
-0.0000

> <Gold.Chemscore.Lipo.Weighted>
-12.8283

> <Gold.Chemscore.Internal_Hbond.Weighted>
0.0000

> <Gold.Chemscore.DEClash.Weighted>
0.1464

> <Gold.Chemscore.DEInternal.Weighted>
1.4264

> <Gold.Chemscore.Rot.Weighted>
7.7528

> <Gold.Chemscore.Internal.Correction.Weighted>
   9.000000E+99

> <Gold.Protein.RotatedTorsions>
[ 6907 6896 6895 6894 ] final  135.40 input  -60.11 | X-H torsion
[ 7974 7965 7964 7962 ] final   80.59 input  175.53 | X-H torsion
[ 8008 7997 7996 7995 ] final  -93.40 input   59.86 | X-H torsion
[ 10167 10162 10161 10158 ] final -121.72 input  -65.29 | X-H torsion
[ 10718 10713 10712 10709 ] final  -18.42 input   66.30 | X-H torsion
[ 10763 10752 10751 10750 ] final -108.26 input  -60.55 | X-H torsion
[ 11005 11000 10999 10996 ] final  -59.63 input  -57.11 | X-H torsion

> <Gold.Protein.ActiveResidues>
 VAL166  LYS551  ARG553  GLY616  TRP617  ASP618  TYR619  PRO620  LYS621  CYS622 
 ASP623  PHE694  ASN695  SER759  ASP760  ASP761  ALA762  ILE779  LEU786  VAL792 
 PHE793  MET794  SER795  GLU796  ALA797  LYS798  CYS799  TRP800  GLU811  SER814 

> <Gold.Protein.RotatedAtoms>
  152.3008  133.5653  159.5616 H   0  0  0  0  0  0  0  0  0  0  0  0  # atno 6907 bound_to 6896
  150.7277  134.0294  159.3737 H   0  0  0  0  0  0  0  0  0  0  0  0  # atno 6908 bound_to 6896
  151.8194  135.0657  160.0474 H   0  0  0  0  0  0  0  0  0  0  0  0  # atno 6909 bound_to 6896
  145.6492  139.2443  143.1986 H   0  0  0  0  0  0  0  0  0  0  0  0  # atno 7974 bound_to 7965
  154.7352  140.0499  157.0762 H   0  0  0  0  0  0  0  0  0  0  0  0  # atno 8008 bound_to 7997
  155.0249  140.3151  155.4760 H   0  0  0  0  0  0  0  0  0  0  0  0  # atno 8009 bound_to 7997
  156.2851  140.2160  156.5369 H   0  0  0  0  0  0  0  0  0  0  0  0  # atno 8010 bound_to 7997
  140.0220  143.5334  152.2216 H   0  0  0  0  0  0  0  0  0  0  0  0  # atno 10167 bound_to 10162
  156.5598  130.4722  149.6412 H   0  0  0  0  0  0  0  0  0  0  0  0  # atno 10718 bound_to 10713
  154.8125  135.4644  154.0554 H   0  0  0  0  0  0  0  0  0  0  0  0  # atno 10763 bound_to 10752
  153.1974  135.6864  153.8282 H   0  0  0  0  0  0  0  0  0  0  0  0  # atno 10764 bound_to 10752
  153.7778  135.3261  155.3338 H   0  0  0  0  0  0  0  0  0  0  0  0  # atno 10765 bound_to 10752
  141.1255  133.6617  156.5100 H   0  0  0  0  0  0  0  0  0  0  0  0  # atno 11005 bound_to 11000
  146.1218  140.7299  142.9454 LP  0  0  0  0  0  0  0  0  0  0  0  0  # atno 17320 bound_to 7965
  144.7129  140.4104  143.7067 LP  0  0  0  0  0  0  0  0  0  0  0  0  # atno 17321 bound_to 7965
  139.6133  144.7614  151.2902 LP  0  0  0  0  0  0  0  0  0  0  0  0  # atno 17342 bound_to 10162
  140.7338  143.6783  150.8022 LP  0  0  0  0  0  0  0  0  0  0  0  0  # atno 17343 bound_to 10162
  156.2809  130.7070  151.1894 LP  0  0  0  0  0  0  0  0  0  0  0  0  # atno 17370 bound_to 10713
  157.7371  131.0556  150.5377 LP  0  0  0  0  0  0  0  0  0  0  0  0  # atno 17371 bound_to 10713
  140.4377  134.7044  157.4975 LP  0  0  0  0  0  0  0  0  0  0  0  0  # atno 17394 bound_to 11000
  140.0251  134.6490  155.9185 LP  0  0  0  0  0  0  0  0  0  0  0  0  # atno 17395 bound_to 11000

$$$$
