AV-unprocessed.smi:2949|AV-procd|sdf|11286|dock1
  -GOLD-   2272016173D 1   1.00000     0.00000
 Structure written by MMmdl.
 34 35  0  0  0  0  0  0  0  0  1 V2000
  146.4758  139.4720  155.3559 N   0  0  0  0  0  0  0  0  0  0  0  0
  146.1502  140.7112  155.2393 C   0  0  0  0  0  0  0  0  0  0  0  0
  144.6676  141.5197  155.9377 S   0  0  0  0  0  0  0  0  0  0  0  0
  145.1908  143.0461  155.2582 C   0  0  0  0  0  0  0  0  0  0  0  0
  146.3372  142.9317  154.5900 C   0  0  0  0  0  0  0  0  0  0  0  0
  146.8932  141.6696  154.5470 N   0  0  0  0  0  0  0  0  0  0  0  0
  148.1900  141.4049  153.9245 C   0  0  0  0  0  0  0  0  0  0  0  0
  149.3306  141.0660  154.8927 C   0  0  0  0  0  0  0  0  0  0  0  0
  149.8884  139.9679  154.8198 O   0  0  0  0  0  0  0  0  0  0  0  0
  149.6269  142.0424  155.7814 N   0  0  0  0  0  0  0  0  0  0  0  0
  150.5555  142.0982  156.7657 C   0  0  0  0  0  0  0  0  0  0  0  0
  151.1104  141.0744  157.1619 O   0  0  0  0  0  0  0  0  0  0  0  0
  150.8327  143.3110  157.2806 N   0  0  0  0  0  0  0  0  0  0  0  0
  151.9490  143.6204  158.1688 C   0  0  0  0  0  0  0  0  0  0  0  0
  151.8857  142.8017  159.4760 C   0  0  0  0  0  0  0  0  0  0  0  0
  152.0009  143.8125  160.6193 C   0  0  0  0  0  0  0  0  0  0  0  0
  151.4294  145.1039  160.0433 C   0  0  0  0  0  0  0  0  0  0  0  0
  151.9016  145.0998  158.5899 C   0  0  0  0  0  0  0  0  0  0  0  0
  144.6146  143.9487  155.3981 H   0  0  0  0  0  0  0  0  0  0  0  0
  146.8670  143.7265  154.0851 H   0  0  0  0  0  0  0  0  0  0  0  0
  148.0884  140.5988  153.1956 H   0  0  0  0  0  0  0  0  0  0  0  0
  148.4890  142.2819  153.3487 H   0  0  0  0  0  0  0  0  0  0  0  0
  149.0583  142.8724  155.6988 H   0  0  0  0  0  0  0  0  0  0  0  0
  150.2207  144.0767  157.0352 H   0  0  0  0  0  0  0  0  0  0  0  0
  152.8878  143.4306  157.6452 H   0  0  0  0  0  0  0  0  0  0  0  0
  150.9320  142.2777  159.5585 H   0  0  0  0  0  0  0  0  0  0  0  0
  152.6709  142.0467  159.5234 H   0  0  0  0  0  0  0  0  0  0  0  0
  151.4808  143.4879  161.5208 H   0  0  0  0  0  0  0  0  0  0  0  0
  153.0510  143.9595  160.8752 H   0  0  0  0  0  0  0  0  0  0  0  0
  150.3396  145.0716  160.0766 H   0  0  0  0  0  0  0  0  0  0  0  0
  151.7552  145.9893  160.5894 H   0  0  0  0  0  0  0  0  0  0  0  0
  152.9076  145.5187  158.5415 H   0  0  0  0  0  0  0  0  0  0  0  0
  151.2684  145.7143  157.9485 H   0  0  0  0  0  0  0  0  0  0  0  0
  147.3457  139.2925  154.8748 H   0  0  0  0  0  0  0  0  0  0  0  0
  1  2  2  0  0  0  0
  1 34  1  0  0  0  0
  2  6  1  0  0  0  0
  2  3  1  0  0  0  0
  3  4  1  0  0  0  0
  4  5  2  0  0  0  0
  4 19  1  0  0  0  0
  5  6  1  0  0  0  0
  5 20  1  0  0  0  0
  6  7  1  0  0  0  0
  7  8  1  0  0  0  0
  7 21  1  0  0  0  0
  7 22  1  0  0  0  0
  8  9  2  0  0  0  0
  8 10  1  0  0  0  0
 10 11  1  0  0  0  0
 10 23  1  0  0  0  0
 11 12  2  0  0  0  0
 11 13  1  0  0  0  0
 13 14  1  0  0  0  0
 13 24  1  0  0  0  0
 14 18  1  0  0  0  0
 14 15  1  0  0  0  0
 14 25  1  0  0  0  0
 15 16  1  0  0  0  0
 15 26  1  0  0  0  0
 15 27  1  0  0  0  0
 16 17  1  0  0  0  0
 16 28  1  0  0  0  0
 16 29  1  0  0  0  0
 17 18  1  0  0  0  0
 17 30  1  0  0  0  0
 17 31  1  0  0  0  0
 18 32  1  0  0  0  0
 18 33  1  0  0  0  0
M  END
> <s_m_source_file>
AV-unprocessed.smi

> <i_m_source_file_index>
2949

> <i_lp_mmshare_version>
43012

> <i_f3d_flags>
0

> <s_epik_input>
W0hdL049YzFcc1tjSF1bY0hdbjFbQ0gyXUMoPU8pW05IXUMoPU8pW05IXVtDSF0yW0NIMl1bQ0gyXVtDSDJdW0NIMl0y

> <s_epik_cmdline>
J2VwaWtfcHl0aG9uJywgJy1waCcsICc3LjAnLCAnLXRuJywgJzgnLCAnLW1hJywgJzIwMCcsICctbWV0YWxfYmluZGluZycsICctaW1hZScsICc8aW5maWxlLm1hZT4nLCAnLW9tYWUnLCAnPG91dGZpbGUubWFlPic=

> <r_epik_Ionization_Penalty>
2.0346

> <r_epik_Ionization_Penalty_Charging>
2.03458

> <r_epik_Ionization_Penalty_Neutral>
2.61125e-05

> <r_epik_State_Penalty>
2.18096

> <r_epik_Charging_Adjusted_Penalty>
4.21554

> <i_epik_Tot_Q>
0

> <i_epik_Tot_abs_Q>
0

> <r_epik_Metal_State_Penalty>
2.18096

> <b_epik_Metal_Only>
0

> <s_lp_Force_Field>
OPLS_2005

> <r_lp_Energy>
22.3694

> <b_lp_Chiralities_Consistent>
1

> <s_lp_Variant>
AV-unprocessed.smi:2949-2

> <Gold.Version>
5.8.1

> <Gold.Id.Protein>
6NUR|6NUR_protein|mol2

> <Gold.PLP.Fitness>
48.9199

> <Gold.PLP.PLP>
-40.4587

> <Gold.PLP.part.hbond>
-3.0000

> <Gold.PLP.part.metal>
0.0000

> <Gold.PLP.part.buried>
-3.4693

> <Gold.PLP.part.nonpolar>
-33.9583

> <Gold.PLP.part.repulsive>
0.2809

> <Gold.PLP.ligand.clash>
0.0000

> <Gold.PLP.ligand.torsion>
0.1537

> <Gold.PLP.Chemscore.Hbond>
2.6800

> <Gold.PLP.Chemscore.CHOScore>
0.2180

> <Gold.PLP.Chemscore.Metal>
0.0000

> <Gold.Chemscore.Hbonds>
donor molecule, donor type, donor heavy atom, donor atom, acceptor molecule, acceptor atom, score
      L1  H    10    23       P1  8028  1.00
      L1  H    13    24       P1  8028  0.90
      P1  H  7989  7998       L1     9  0.09
      L1  C     5    20       P1  8028  0.18

> <Gold.PLP.Chemscore.Internal.Correction>
0.0746

> <Gold.Rescore>
     Score         DG    S(hbond)    S(metal)    S(lipo)     H(rot)  DE(clash)    DE(int)     intcor
     14.91     -17.05       1.90        0.00      81.44       1.69       0.02       2.12       ----

> <Gold.Chemscore.Fitness>
14.9101

> <Gold.Chemscore.DG>
-17.0506

> <Gold.Chemscore.ZeroCoef>
-5.4800

> <Gold.Chemscore.Hbond>
1.9047

> <Gold.Chemscore.Metal>
0.0000

> <Gold.Chemscore.Lipo>
81.4367

> <Gold.Chemscore.Internal_Hbond>
0.0000

> <Gold.Chemscore.DEClash>
0.0197

> <Gold.Chemscore.DEInternal>
2.1208

> <Gold.Chemscore.Rot>
1.6871

> <Gold.Chemscore.Internal.Correction>
   9.000000E+99

> <Gold.Chemscore.Hbonds>
donor molecule, donor type, donor heavy atom, donor atom, acceptor molecule, acceptor atom, score
      L1  H    10    23       P1  8028  0.95
      L1  H    13    24       P1  8028  0.80
      P1  H  7989  7998       L1     9  0.01

> <Gold.Chemscore.Hbond.Weighted>
-6.3616

> <Gold.Chemscore.Metal.Weighted>
-0.0000

> <Gold.Chemscore.Lipo.Weighted>
-9.5281

> <Gold.Chemscore.Internal_Hbond.Weighted>
0.0000

> <Gold.Chemscore.DEClash.Weighted>
0.0197

> <Gold.Chemscore.DEInternal.Weighted>
2.1208

> <Gold.Chemscore.Rot.Weighted>
4.3191

> <Gold.Chemscore.Internal.Correction.Weighted>
   9.000000E+99

> <Gold.Protein.RotatedTorsions>
[ 6907 6896 6895 6894 ] final   37.89 input  -60.11 | X-H torsion
[ 7974 7965 7964 7962 ] final -131.46 input  175.53 | X-H torsion
[ 8008 7997 7996 7995 ] final   22.24 input   59.86 | X-H torsion
[ 10167 10162 10161 10158 ] final -154.30 input  -65.29 | X-H torsion
[ 10718 10713 10712 10709 ] final    6.09 input   66.30 | X-H torsion
[ 10763 10752 10751 10750 ] final -158.14 input  -60.55 | X-H torsion
[ 11005 11000 10999 10996 ] final   79.39 input  -57.11 | X-H torsion

> <Gold.Protein.ActiveResidues>
 VAL166  LYS551  ARG553  GLY616  TRP617  ASP618  TYR619  PRO620  LYS621  CYS622 
 ASP623  PHE694  ASN695  SER759  ASP760  ASP761  ALA762  ILE779  LEU786  VAL792 
 PHE793  MET794  SER795  GLU796  ALA797  LYS798  CYS799  TRP800  GLU811  SER814 

> <Gold.Protein.RotatedAtoms>
  152.1492  134.9002  160.0548 H   0  0  0  0  0  0  0  0  0  0  0  0  # atno 6907 bound_to 6896
  152.0040  133.3831  159.4201 H   0  0  0  0  0  0  0  0  0  0  0  0  # atno 6908 bound_to 6896
  150.6873  134.3725  159.5042 H   0  0  0  0  0  0  0  0  0  0  0  0  # atno 6909 bound_to 6896
  144.9377  140.7202  143.4866 H   0  0  0  0  0  0  0  0  0  0  0  0  # atno 7974 bound_to 7965
  154.9626  140.3080  155.5024 H   0  0  0  0  0  0  0  0  0  0  0  0  # atno 8008 bound_to 7997
  156.2975  140.2298  156.4652 H   0  0  0  0  0  0  0  0  0  0  0  0  # atno 8009 bound_to 7997
  154.7950  140.0437  157.1218 H   0  0  0  0  0  0  0  0  0  0  0  0  # atno 8010 bound_to 7997
  139.7024  143.9241  152.2434 H   0  0  0  0  0  0  0  0  0  0  0  0  # atno 10167 bound_to 10162
  156.9170  130.5777  149.5647 H   0  0  0  0  0  0  0  0  0  0  0  0  # atno 10718 bound_to 10713
  154.7580  135.3110  154.8432 H   0  0  0  0  0  0  0  0  0  0  0  0  # atno 10763 bound_to 10752
  153.9200  135.6796  153.4752 H   0  0  0  0  0  0  0  0  0  0  0  0  # atno 10764 bound_to 10752
  153.1179  135.4836  154.9077 H   0  0  0  0  0  0  0  0  0  0  0  0  # atno 10765 bound_to 10752
  139.9175  134.7838  156.1772 H   0  0  0  0  0  0  0  0  0  0  0  0  # atno 11005 bound_to 11000
  145.3041  139.1840  143.4674 LP  0  0  0  0  0  0  0  0  0  0  0  0  # atno 17320 bound_to 7965
  146.3273  140.3036  142.8622 LP  0  0  0  0  0  0  0  0  0  0  0  0  # atno 17321 bound_to 7965
  139.9087  144.6869  150.8586 LP  0  0  0  0  0  0  0  0  0  0  0  0  # atno 17342 bound_to 10162
  140.7713  143.3459  151.2111 LP  0  0  0  0  0  0  0  0  0  0  0  0  # atno 17343 bound_to 10162
  156.0509  130.5578  150.8986 LP  0  0  0  0  0  0  0  0  0  0  0  0  # atno 17370 bound_to 10713
  157.5932  131.0944  150.9085 LP  0  0  0  0  0  0  0  0  0  0  0  0  # atno 17371 bound_to 10713
  141.0664  133.6817  156.2053 LP  0  0  0  0  0  0  0  0  0  0  0  0  # atno 17394 bound_to 11000
  140.6578  134.5000  157.5581 LP  0  0  0  0  0  0  0  0  0  0  0  0  # atno 17395 bound_to 11000

$$$$
