AV-unprocessed.smi:27|AV-procd|sdf|188|dock5
  -GOLD-   2262015453D 1   1.00000     0.00000
 Structure written by MMmdl.
 53 56  0  0  0  0  0  0  0  0  1 V2000
  151.4710  139.8863  159.4289 O   0  0  0  0  0  0  0  0  0  0  0  0
  152.3941  139.3619  158.8035 C   0  0  0  0  0  0  0  0  0  0  0  0
  152.1472  138.6657  157.4566 C   0  0  0  0  0  0  0  0  0  0  0  0
  150.7441  138.7510  156.9968 N   0  0  0  0  0  0  0  0  0  0  0  0
  149.7225  138.2316  157.8298 C   0  0  0  0  0  0  0  0  0  0  0  0
  149.9846  137.7247  158.9217 O   0  0  0  0  0  0  0  0  0  0  0  0
  148.3666  138.3361  157.3026 C   0  0  0  0  0  0  0  0  0  0  0  0
  147.3332  137.8806  158.0311 F   0  0  0  0  0  0  0  0  0  0  0  0
  148.1307  138.8857  156.0934 C   0  0  0  0  0  0  0  0  0  0  0  0
  149.1404  139.3746  155.2835 N   0  0  0  0  0  0  0  0  0  0  0  0
  148.8601  139.9866  153.9269 C   0  0  1  0  0  0  0  0  0  0  0  0
  147.3887  139.7680  153.5260 C   0  0  0  0  0  0  0  0  0  0  0  0
  146.9333  141.1642  153.1511 C   0  0  0  0  0  0  0  0  0  0  0  0
  147.8134  142.0308  154.0391 C   0  0  0  0  0  0  0  0  0  0  0  0
  149.0702  141.3693  153.9754 O   0  0  0  0  0  0  0  0  0  0  0  0
  150.4792  139.3177  155.7277 C   0  0  0  0  0  0  0  0  0  0  0  0
  151.3936  139.7467  155.0201 O   0  0  0  0  0  0  0  0  0  0  0  0
  153.6650  139.3613  159.2324 N   0  0  0  0  0  0  0  0  0  0  0  0
  154.1429  139.9671  160.4756 C   0  0  0  0  0  0  0  0  0  0  0  0
  153.5518  141.3519  160.7221 C   0  0  0  0  0  0  0  0  0  0  0  0
  153.3439  141.8366  162.0340 C   0  0  0  0  0  0  0  0  0  0  0  0
  152.7899  143.1146  162.2408 C   0  0  0  0  0  0  0  0  0  0  0  0
  152.4366  143.9165  161.1390 C   0  0  0  0  0  0  0  0  0  0  0  0
  152.6351  143.4382  159.8297 C   0  0  0  0  0  0  0  0  0  0  0  0
  153.1885  142.1598  159.6226 C   0  0  0  0  0  0  0  0  0  0  0  0
  155.6649  140.0113  160.5322 C   0  0  0  0  0  0  0  0  0  0  0  0
  156.3720  139.4112  161.5992 C   0  0  0  0  0  0  0  0  0  0  0  0
  157.7792  139.4560  161.6344 C   0  0  0  0  0  0  0  0  0  0  0  0
  158.4901  140.0979  160.6028 C   0  0  0  0  0  0  0  0  0  0  0  0
  157.7930  140.6909  159.5331 C   0  0  0  0  0  0  0  0  0  0  0  0
  156.3858  140.6453  159.4968 C   0  0  0  0  0  0  0  0  0  0  0  0
  152.8286  139.0933  156.7193 H   0  0  0  0  0  0  0  0  0  0  0  0
  152.4674  137.6257  157.5381 H   0  0  0  0  0  0  0  0  0  0  0  0
  147.1044  138.9355  155.7640 H   0  0  0  0  0  0  0  0  0  0  0  0
  149.5819  139.5349  153.2442 H   0  0  0  0  0  0  0  0  0  0  0  0
  147.3080  139.0540  152.7060 H   0  0  0  0  0  0  0  0  0  0  0  0
  146.8160  139.3967  154.3775 H   0  0  0  0  0  0  0  0  0  0  0  0
  147.1523  141.3617  152.1009 H   0  0  0  0  0  0  0  0  0  0  0  0
  145.8679  141.3256  153.3164 H   0  0  0  0  0  0  0  0  0  0  0  0
  147.8833  143.0609  153.6895 H   0  0  0  0  0  0  0  0  0  0  0  0
  147.4424  142.0378  155.0649 H   0  0  0  0  0  0  0  0  0  0  0  0
  154.3577  138.9071  158.6553 H   0  0  0  0  0  0  0  0  0  0  0  0
  153.8194  139.3220  161.2951 H   0  0  0  0  0  0  0  0  0  0  0  0
  153.6045  141.2310  162.8894 H   0  0  0  0  0  0  0  0  0  0  0  0
  152.6349  143.4794  163.2455 H   0  0  0  0  0  0  0  0  0  0  0  0
  152.0122  144.8969  161.2981 H   0  0  0  0  0  0  0  0  0  0  0  0
  152.3620  144.0514  158.9837 H   0  0  0  0  0  0  0  0  0  0  0  0
  153.3341  141.8008  158.6143 H   0  0  0  0  0  0  0  0  0  0  0  0
  155.8406  138.9080  162.3934 H   0  0  0  0  0  0  0  0  0  0  0  0
  158.3131  138.9957  162.4526 H   0  0  0  0  0  0  0  0  0  0  0  0
  159.5694  140.1323  160.6302 H   0  0  0  0  0  0  0  0  0  0  0  0
  158.3374  141.1805  158.7391 H   0  0  0  0  0  0  0  0  0  0  0  0
  155.8611  141.1007  158.6696 H   0  0  0  0  0  0  0  0  0  0  0  0
  1  2  2  0  0  0  0
  2  3  1  0  0  0  0
  2 18  1  0  0  0  0
  3  4  1  0  0  0  0
  3 32  1  0  0  0  0
  3 33  1  0  0  0  0
  4 16  1  0  0  0  0
  4  5  1  0  0  0  0
  5  6  2  0  0  0  0
  5  7  1  0  0  0  0
  7  8  1  0  0  0  0
  7  9  2  0  0  0  0
  9 10  1  0  0  0  0
  9 34  1  0  0  0  0
 10 11  1  0  0  0  0
 10 16  1  0  0  0  0
 11 15  1  0  0  0  0
 11 12  1  0  0  0  0
 11 35  1  0  0  0  0
 12 13  1  0  0  0  0
 12 36  1  0  0  0  0
 12 37  1  0  0  0  0
 13 14  1  0  0  0  0
 13 38  1  0  0  0  0
 13 39  1  0  0  0  0
 14 15  1  0  0  0  0
 14 40  1  0  0  0  0
 14 41  1  0  0  0  0
 16 17  2  0  0  0  0
 18 19  1  0  0  0  0
 18 42  1  0  0  0  0
 19 20  1  0  0  0  0
 19 26  1  0  0  0  0
 19 43  1  0  0  0  0
 20 25  1  0  0  0  0
 20 21  2  0  0  0  0
 21 22  1  0  0  0  0
 21 44  1  0  0  0  0
 22 23  2  0  0  0  0
 22 45  1  0  0  0  0
 23 24  1  0  0  0  0
 23 46  1  0  0  0  0
 24 25  2  0  0  0  0
 24 47  1  0  0  0  0
 25 48  1  0  0  0  0
 26 31  1  0  0  0  0
 26 27  2  0  0  0  0
 27 28  1  0  0  0  0
 27 49  1  0  0  0  0
 28 29  2  0  0  0  0
 28 50  1  0  0  0  0
 29 30  1  0  0  0  0
 29 51  1  0  0  0  0
 30 31  2  0  0  0  0
 30 52  1  0  0  0  0
 31 53  1  0  0  0  0
M  END
> <s_m_source_file>
AV-unprocessed.smi

> <i_m_source_file_index>
27

> <i_lp_mmshare_version>
43012

> <i_f3d_flags>
0

> <s_epik_input>
W2NIXTFbY0hdW2NIXVtjSF1bY0hdYzFbQ0hdKGMyW2NIXVtjSF1bY0hdW2NIXVtjSF0yKVtOSF1DKD1PKVtDSDJdbjNjKD1PKWMoRilbY0hdbihjMz1PKVtDQEBIXTRbQ0gyXVtDSDJdW0NIMl1PNA==

> <s_epik_cmdline>
J2VwaWtfcHl0aG9uJywgJy1waCcsICc3LjAnLCAnLXRuJywgJzgnLCAnLW1hJywgJzIwMCcsICctbWV0YWxfYmluZGluZycsICctaW1hZScsICc8aW5maWxlLm1hZT4nLCAnLW9tYWUnLCAnPG91dGZpbGUubWFlPic=

> <r_lp_tautomer_probability>
1

> <r_epik_Ionization_Penalty>
5.29953e-08

> <r_epik_Ionization_Penalty_Charging>
3.6115e-09

> <r_epik_Ionization_Penalty_Neutral>
4.93838e-08

> <r_epik_State_Penalty>
-0

> <r_epik_Charging_Adjusted_Penalty>
3.6115e-09

> <i_epik_Tot_Q>
0

> <i_epik_Tot_abs_Q>
0

> <r_epik_Metal_State_Penalty>
-0

> <b_epik_Metal_Only>
0

> <s_epik_Chemistry_Notes>
This compound contains an acetal/aminal-like group ( X-CH(R)-Y where X, Y are N, S, or O) that may be acid/base labile, releasing an aldehyde.

> <s_lp_Force_Field>
OPLS_2005

> <r_lp_Energy>
31.2801

> <b_lp_Chiralities_Consistent>
1

> <s_lp_Variant>
AV-unprocessed.smi:27-2

> <Gold.Version>
5.8.1

> <Gold.Id.Protein>
6NUR|6NUR_protein|mol2

> <Gold.PLP.Fitness>
53.5833

> <Gold.PLP.PLP>
-51.2849

> <Gold.PLP.part.hbond>
-2.6579

> <Gold.PLP.part.metal>
0.0000

> <Gold.PLP.part.buried>
-4.7979

> <Gold.PLP.part.nonpolar>
-42.5672

> <Gold.PLP.part.repulsive>
0.2991

> <Gold.PLP.ligand.clash>
0.0000

> <Gold.PLP.ligand.torsion>
1.1869

> <Gold.PLP.Chemscore.Hbond>
1.4986

> <Gold.PLP.Chemscore.CHOScore>
0.0000

> <Gold.PLP.Chemscore.Metal>
0.0000

> <Gold.Chemscore.Hbonds>
donor molecule, donor type, donor heavy atom, donor atom, acceptor molecule, acceptor atom, score
      P1  H  7989  7998       L1    17  1.00
      P1  H  8011  8017       L1    15  0.53

> <Gold.PLP.Chemscore.Internal.Correction>
0.1765

> <Gold.Rescore>
     Score         DG    S(hbond)    S(metal)    S(lipo)     H(rot)  DE(clash)    DE(int)     intcor
     18.54     -21.79       1.73        0.00     137.27       2.16       0.15       3.10       ----

> <Gold.Chemscore.Fitness>
18.5399

> <Gold.Chemscore.DG>
-21.7943

> <Gold.Chemscore.ZeroCoef>
-5.4800

> <Gold.Chemscore.Hbond>
1.7348

> <Gold.Chemscore.Metal>
0.0000

> <Gold.Chemscore.Lipo>
137.2681

> <Gold.Chemscore.Internal_Hbond>
0.0000

> <Gold.Chemscore.DEClash>
0.1524

> <Gold.Chemscore.DEInternal>
3.1020

> <Gold.Chemscore.Rot>
2.1642

> <Gold.Chemscore.Internal.Correction>
   9.000000E+99

> <Gold.Chemscore.Hbonds>
donor molecule, donor type, donor heavy atom, donor atom, acceptor molecule, acceptor atom, score
      P1  H  7989  7998       L1    17  1.00
      P1  H  8011  8017       L1    15  0.08

> <Gold.Chemscore.Hbond.Weighted>
-5.7944

> <Gold.Chemscore.Metal.Weighted>
-0.0000

> <Gold.Chemscore.Lipo.Weighted>
-16.0604

> <Gold.Chemscore.Internal_Hbond.Weighted>
0.0000

> <Gold.Chemscore.DEClash.Weighted>
0.1524

> <Gold.Chemscore.DEInternal.Weighted>
3.1020

> <Gold.Chemscore.Rot.Weighted>
5.5404

> <Gold.Chemscore.Internal.Correction.Weighted>
   9.000000E+99

> <Gold.Protein.RotatedTorsions>
[ 6907 6896 6895 6894 ] final -159.03 input  -60.11 | X-H torsion
[ 7974 7965 7964 7962 ] final -166.46 input  175.53 | X-H torsion
[ 8008 7997 7996 7995 ] final   81.13 input   59.86 | X-H torsion
[ 10167 10162 10161 10158 ] final  -84.78 input  -65.29 | X-H torsion
[ 10718 10713 10712 10709 ] final   -7.99 input   66.30 | X-H torsion
[ 10763 10752 10751 10750 ] final   -8.96 input  -60.55 | X-H torsion
[ 11005 11000 10999 10996 ] final  -47.42 input  -57.11 | X-H torsion

> <Gold.Protein.ActiveResidues>
 VAL166  LYS551  ARG553  GLY616  TRP617  ASP618  TYR619  PRO620  LYS621  CYS622 
 ASP623  PHE694  ASN695  SER759  ASP760  ASP761  ALA762  ILE779  LEU786  VAL792 
 PHE793  MET794  SER795  GLU796  ALA797  LYS798  CYS799  TRP800  GLU811  SER814 

> <Gold.Protein.RotatedAtoms>
  151.3273  133.4015  159.2659 H   0  0  0  0  0  0  0  0  0  0  0  0  # atno 6907 bound_to 6896
  150.9985  134.9303  159.7950 H   0  0  0  0  0  0  0  0  0  0  0  0  # atno 6908 bound_to 6896
  152.5268  134.3238  159.9210 H   0  0  0  0  0  0  0  0  0  0  0  0  # atno 6909 bound_to 6896
  144.7245  140.2663  143.6257 H   0  0  0  0  0  0  0  0  0  0  0  0  # atno 7974 bound_to 7965
  155.8930  140.3437  155.5970 H   0  0  0  0  0  0  0  0  0  0  0  0  # atno 8008 bound_to 7997
  155.7588  140.0830  157.2184 H   0  0  0  0  0  0  0  0  0  0  0  0  # atno 8009 bound_to 7997
  154.4035  140.1539  156.2796 H   0  0  0  0  0  0  0  0  0  0  0  0  # atno 8010 bound_to 7997
  140.4100  143.2627  151.9030 H   0  0  0  0  0  0  0  0  0  0  0  0  # atno 10167 bound_to 10162
  156.7092  130.5116  149.5896 H   0  0  0  0  0  0  0  0  0  0  0  0  # atno 10718 bound_to 10713
  153.4479  135.7014  153.6127 H   0  0  0  0  0  0  0  0  0  0  0  0  # atno 10763 bound_to 10752
  153.4474  135.3766  155.2264 H   0  0  0  0  0  0  0  0  0  0  0  0  # atno 10764 bound_to 10752
  154.8728  135.3988  154.3887 H   0  0  0  0  0  0  0  0  0  0  0  0  # atno 10765 bound_to 10752
  141.0639  133.6700  156.3294 H   0  0  0  0  0  0  0  0  0  0  0  0  # atno 11005 bound_to 11000
  145.8087  139.1994  143.2006 LP  0  0  0  0  0  0  0  0  0  0  0  0  # atno 17320 bound_to 7965
  146.0614  140.7966  142.9733 LP  0  0  0  0  0  0  0  0  0  0  0  0  # atno 17321 bound_to 7965
  139.4783  144.5547  151.8332 LP  0  0  0  0  0  0  0  0  0  0  0  0  # atno 17342 bound_to 10162
  140.4648  144.1670  150.5910 LP  0  0  0  0  0  0  0  0  0  0  0  0  # atno 17343 bound_to 10162
  156.1673  130.6414  151.0794 LP  0  0  0  0  0  0  0  0  0  0  0  0  # atno 17370 bound_to 10713
  157.6943  131.0799  150.7016 LP  0  0  0  0  0  0  0  0  0  0  0  0  # atno 17371 bound_to 10713
  140.5813  134.5743  157.5480 LP  0  0  0  0  0  0  0  0  0  0  0  0  # atno 17394 bound_to 11000
  139.9458  134.7704  156.0566 LP  0  0  0  0  0  0  0  0  0  0  0  0  # atno 17395 bound_to 11000

$$$$
