AV-unprocessed.smi:2346|AV-procd|sdf|9365|dock8
  -GOLD-   2272012593D 1   1.00000     0.00000
 Structure written by MMmdl.
 44 46  0  0  0  0  0  0  0  0  1 V2000
  145.4468  142.8694  158.4464 C   0  0  0  0  0  0  0  0  0  0  0  0
  146.2646  142.1817  157.5108 O   0  0  0  0  0  0  0  0  0  0  0  0
  146.1970  142.5523  156.1832 C   0  0  0  0  0  0  0  0  0  0  0  0
  145.3430  143.5748  155.6967 C   0  0  0  0  0  0  0  0  0  0  0  0
  145.3264  143.9026  154.3270 C   0  0  0  0  0  0  0  0  0  0  0  0
  144.4477  144.9525  153.8390 C   0  0  0  0  0  0  0  0  0  0  0  0
  143.7483  145.7883  153.4505 N   0  0  0  0  0  0  0  0  0  0  0  0
  146.1624  143.2112  153.4318 C   0  0  0  0  0  0  0  0  0  0  0  0
  147.0122  142.1951  153.9044 C   0  0  0  0  0  0  0  0  0  0  0  0
  147.0368  141.8580  155.2816 C   0  0  0  0  0  0  0  0  0  0  0  0
  147.8448  140.8738  155.8133 O   0  0  0  0  0  0  0  0  0  0  0  0
  149.0701  140.5768  155.1594 C   0  0  0  0  0  0  0  0  0  0  0  0
  150.0627  141.7095  155.4470 C   0  0  0  0  0  0  0  0  0  0  0  0
  151.0367  141.3346  156.4621 N   0  0  0  0  0  0  0  0  0  0  0  0
  151.8713  140.2612  156.4884 C   0  0  0  0  0  0  0  0  0  0  0  0
  151.9023  139.2178  155.4037 C   0  0  2  0  0  0  0  0  0  0  0  0
  151.6385  137.8089  155.9537 C   0  0  0  0  0  0  0  0  0  0  0  0
  153.1388  139.2014  154.7200 O   0  0  0  0  0  0  0  0  0  0  0  0
  152.6725  140.1827  157.5535 N   0  0  0  0  0  0  0  0  0  0  0  0
  152.3200  141.2962  158.2885 C   0  0  0  0  0  0  0  0  0  0  0  0
  152.8079  141.7697  159.5274 C   0  0  0  0  0  0  0  0  0  0  0  0
  152.2858  142.9498  160.0961 C   0  0  0  0  0  0  0  0  0  0  0  0
  151.2700  143.6707  159.4360 C   0  0  0  0  0  0  0  0  0  0  0  0
  150.7706  143.2161  158.2002 C   0  0  0  0  0  0  0  0  0  0  0  0
  151.2963  142.0380  157.6354 C   0  0  0  0  0  0  0  0  0  0  0  0
  145.6156  142.4580  159.4414 H   0  0  0  0  0  0  0  0  0  0  0  0
  144.3878  142.7472  158.2152 H   0  0  0  0  0  0  0  0  0  0  0  0
  145.6895  143.9322  158.4847 H   0  0  0  0  0  0  0  0  0  0  0  0
  144.6912  144.1215  156.3620 H   0  0  0  0  0  0  0  0  0  0  0  0
  146.1577  143.4549  152.3789 H   0  0  0  0  0  0  0  0  0  0  0  0
  147.6377  141.6880  153.1859 H   0  0  0  0  0  0  0  0  0  0  0  0
  149.4736  139.6315  155.5261 H   0  0  0  0  0  0  0  0  0  0  0  0
  148.9077  140.4872  154.0853 H   0  0  0  0  0  0  0  0  0  0  0  0
  150.5816  142.0180  154.5399 H   0  0  0  0  0  0  0  0  0  0  0  0
  149.5219  142.5914  155.7913 H   0  0  0  0  0  0  0  0  0  0  0  0
  151.1444  139.4347  154.6539 H   0  0  0  0  0  0  0  0  0  0  0  0
  150.6750  137.7560  156.4602 H   0  0  0  0  0  0  0  0  0  0  0  0
  152.4046  137.5129  156.6712 H   0  0  0  0  0  0  0  0  0  0  0  0
  151.6309  137.0692  155.1525 H   0  0  0  0  0  0  0  0  0  0  0  0
  153.7001  138.5634  155.1334 H   0  0  0  0  0  0  0  0  0  0  0  0
  153.5849  141.2235  160.0412 H   0  0  0  0  0  0  0  0  0  0  0  0
  152.6661  143.3034  161.0434 H   0  0  0  0  0  0  0  0  0  0  0  0
  150.8745  144.5730  159.8788 H   0  0  0  0  0  0  0  0  0  0  0  0
  149.9923  143.7679  157.6947 H   0  0  0  0  0  0  0  0  0  0  0  0
  1  2  1  0  0  0  0
  1 26  1  0  0  0  0
  1 27  1  0  0  0  0
  1 28  1  0  0  0  0
  2  3  1  0  0  0  0
  3 10  1  0  0  0  0
  3  4  2  0  0  0  0
  4  5  1  0  0  0  0
  4 29  1  0  0  0  0
  5  6  1  0  0  0  0
  5  8  2  0  0  0  0
  6  7  3  0  0  0  0
  8  9  1  0  0  0  0
  8 30  1  0  0  0  0
  9 10  2  0  0  0  0
  9 31  1  0  0  0  0
 10 11  1  0  0  0  0
 11 12  1  0  0  0  0
 12 13  1  0  0  0  0
 12 32  1  0  0  0  0
 12 33  1  0  0  0  0
 13 14  1  0  0  0  0
 13 34  1  0  0  0  0
 13 35  1  0  0  0  0
 14 25  1  0  0  0  0
 14 15  1  0  0  0  0
 15 16  1  0  0  0  0
 15 19  2  0  0  0  0
 16 17  1  0  0  0  0
 16 18  1  0  0  0  0
 16 36  1  0  0  0  0
 17 37  1  0  0  0  0
 17 38  1  0  0  0  0
 17 39  1  0  0  0  0
 18 40  1  0  0  0  0
 19 20  1  0  0  0  0
 20 25  2  0  0  0  0
 20 21  1  0  0  0  0
 21 22  2  0  0  0  0
 21 41  1  0  0  0  0
 22 23  1  0  0  0  0
 22 42  1  0  0  0  0
 23 24  2  0  0  0  0
 23 43  1  0  0  0  0
 24 25  1  0  0  0  0
 24 44  1  0  0  0  0
M  END
> <s_m_source_file>
AV-unprocessed.smi

> <i_m_source_file_index>
2346

> <i_lp_mmshare_version>
43012

> <i_f3d_flags>
0

> <s_epik_input>
W0NIM11PYzFbY0hdYyhDI04pW2NIXVtjSF1jMU9bQ0gyXVtDSDJdbihjKG4yKVtDQEhdKFtDSDNdKVtPSF0pYyhjMjMpW2NIXVtjSF1bY0hdW2NIXTM=

> <s_epik_cmdline>
J2VwaWtfcHl0aG9uJywgJy1waCcsICc3LjAnLCAnLXRuJywgJzgnLCAnLW1hJywgJzIwMCcsICctbWV0YWxfYmluZGluZycsICctaW1hZScsICc8aW5maWxlLm1hZT4nLCAnLW9tYWUnLCAnPG91dGZpbGUubWFlPic=

> <r_epik_Ionization_Penalty>
0.0419826

> <r_epik_Ionization_Penalty_Charging>
0

> <r_epik_Ionization_Penalty_Neutral>
0.0419826

> <r_epik_State_Penalty>
0.0354317

> <r_epik_Charging_Adjusted_Penalty>
0.0354317

> <i_epik_Tot_Q>
0

> <i_epik_Tot_abs_Q>
0

> <r_epik_Metal_State_Penalty>
3.65115e-05

> <b_epik_Metal_Only>
0

> <s_lp_Force_Field>
OPLS_2005

> <r_lp_Energy>
19.3722

> <b_lp_Chiralities_Consistent>
1

> <s_lp_Variant>
AV-unprocessed.smi:2346-1

> <Gold.Version>
5.8.1

> <Gold.Id.Protein>
6NUR|6NUR_protein|mol2

> <Gold.PLP.Fitness>
50.6980

> <Gold.PLP.PLP>
-49.1672

> <Gold.PLP.part.hbond>
-3.7093

> <Gold.PLP.part.metal>
0.0000

> <Gold.PLP.part.buried>
-7.6008

> <Gold.PLP.part.nonpolar>
-36.5875

> <Gold.PLP.part.repulsive>
0.2354

> <Gold.PLP.ligand.clash>
0.0000

> <Gold.PLP.ligand.torsion>
0.7843

> <Gold.PLP.Chemscore.Hbond>
1.0000

> <Gold.PLP.Chemscore.CHOScore>
0.0000

> <Gold.PLP.Chemscore.Metal>
0.0000

> <Gold.Chemscore.Hbonds>
donor molecule, donor type, donor heavy atom, donor atom, acceptor molecule, acceptor atom, score
      P1  H  7997  8010       L1    19  1.00

> <Gold.PLP.Chemscore.Internal.Correction>
0.0994

> <Gold.Rescore>
     Score         DG    S(hbond)    S(metal)    S(lipo)     H(rot)  DE(clash)    DE(int)     intcor
     13.87     -14.48       0.77        0.00     111.22       2.57       0.01       0.60       ----

> <Gold.Chemscore.Fitness>
13.8659

> <Gold.Chemscore.DG>
-14.4785

> <Gold.Chemscore.ZeroCoef>
-5.4800

> <Gold.Chemscore.Hbond>
0.7664

> <Gold.Chemscore.Metal>
0.0000

> <Gold.Chemscore.Lipo>
111.2218

> <Gold.Chemscore.Internal_Hbond>
0.0000

> <Gold.Chemscore.DEClash>
0.0078

> <Gold.Chemscore.DEInternal>
0.6047

> <Gold.Chemscore.Rot>
2.5681

> <Gold.Chemscore.Internal.Correction>
   9.000000E+99

> <Gold.Chemscore.Hbonds>
donor molecule, donor type, donor heavy atom, donor atom, acceptor molecule, acceptor atom, score
      P1  H  7997  8010       L1    19  0.32

> <Gold.Chemscore.Hbond.Weighted>
-2.5598

> <Gold.Chemscore.Metal.Weighted>
-0.0000

> <Gold.Chemscore.Lipo.Weighted>
-13.0130

> <Gold.Chemscore.Internal_Hbond.Weighted>
0.0000

> <Gold.Chemscore.DEClash.Weighted>
0.0078

> <Gold.Chemscore.DEInternal.Weighted>
0.6047

> <Gold.Chemscore.Rot.Weighted>
6.5743

> <Gold.Chemscore.Internal.Correction.Weighted>
   9.000000E+99

> <Gold.Protein.RotatedTorsions>
[ 6907 6896 6895 6894 ] final   84.83 input  -60.11 | X-H torsion
[ 7974 7965 7964 7962 ] final   21.12 input  175.53 | X-H torsion
[ 8008 7997 7996 7995 ] final   55.18 input   59.86 | X-H torsion
[ 10167 10162 10161 10158 ] final  112.52 input  -65.29 | X-H torsion
[ 10718 10713 10712 10709 ] final  -71.40 input   66.30 | X-H torsion
[ 10763 10752 10751 10750 ] final  -72.85 input  -60.55 | X-H torsion
[ 11005 11000 10999 10996 ] final  120.92 input  -57.11 | X-H torsion

> <Gold.Protein.ActiveResidues>
 VAL166  LYS551  ARG553  GLY616  TRP617  ASP618  TYR619  PRO620  LYS621  CYS622 
 ASP623  PHE694  ASN695  SER759  ASP760  ASP761  ALA762  ILE779  LEU786  VAL792 
 PHE793  MET794  SER795  GLU796  ALA797  LYS798  CYS799  TRP800  GLU811  SER814 

> <Gold.Protein.RotatedAtoms>
  152.5361  134.2681  159.8960 H   0  0  0  0  0  0  0  0  0  0  0  0  # atno 6907 bound_to 6896
  151.2638  133.4282  159.2625 H   0  0  0  0  0  0  0  0  0  0  0  0  # atno 6908 bound_to 6896
  151.0429  134.9634  159.8227 H   0  0  0  0  0  0  0  0  0  0  0  0  # atno 6909 bound_to 6896
  146.2084  139.8073  142.8708 H   0  0  0  0  0  0  0  0  0  0  0  0  # atno 7974 bound_to 7965
  155.4970  140.3473  155.4364 H   0  0  0  0  0  0  0  0  0  0  0  0  # atno 8008 bound_to 7997
  156.0939  140.1418  156.9584 H   0  0  0  0  0  0  0  0  0  0  0  0  # atno 8009 bound_to 7997
  154.4652  140.0920  156.6977 H   0  0  0  0  0  0  0  0  0  0  0  0  # atno 8010 bound_to 7997
  139.6530  144.7128  151.2012 H   0  0  0  0  0  0  0  0  0  0  0  0  # atno 10167 bound_to 10162
  156.0364  130.4350  150.2438 H   0  0  0  0  0  0  0  0  0  0  0  0  # atno 10718 bound_to 10713
  154.4514  135.5916  153.6194 H   0  0  0  0  0  0  0  0  0  0  0  0  # atno 10763 bound_to 10752
  152.9814  135.6022  154.3599 H   0  0  0  0  0  0  0  0  0  0  0  0  # atno 10764 bound_to 10752
  154.3461  135.2841  155.2376 H   0  0  0  0  0  0  0  0  0  0  0  0  # atno 10765 bound_to 10752
  139.9204  134.9637  156.7879 H   0  0  0  0  0  0  0  0  0  0  0  0  # atno 11005 bound_to 11000
  145.3233  141.0249  143.3488 LP  0  0  0  0  0  0  0  0  0  0  0  0  # atno 17320 bound_to 7965
  144.8851  139.4851  143.6704 LP  0  0  0  0  0  0  0  0  0  0  0  0  # atno 17321 bound_to 7965
  140.7546  143.6119  150.8597 LP  0  0  0  0  0  0  0  0  0  0  0  0  # atno 17342 bound_to 10162
  139.9769  143.5994  152.2955 LP  0  0  0  0  0  0  0  0  0  0  0  0  # atno 17343 bound_to 10162
  157.0537  131.0070  151.3245 LP  0  0  0  0  0  0  0  0  0  0  0  0  # atno 17370 bound_to 10713
  157.5121  130.7945  149.7717 LP  0  0  0  0  0  0  0  0  0  0  0  0  # atno 17371 bound_to 10713
  140.6490  133.9748  155.7746 LP  0  0  0  0  0  0  0  0  0  0  0  0  # atno 17394 bound_to 11000
  141.0720  134.0191  157.3512 LP  0  0  0  0  0  0  0  0  0  0  0  0  # atno 17395 bound_to 11000

$$$$
