AV-unprocessed.smi:2732|AV-procd|sdf|10533|dock10
  -GOLD-   2272014583D 1   1.00000     0.00000
 Structure written by MMmdl.
 34 35  0  0  0  0  0  0  0  0  1 V2000
  152.5848  144.5083  158.7799 C   0  0  0  0  0  0  0  0  0  0  0  0
  151.8888  143.1968  159.1729 C   0  0  1  0  0  0  0  0  0  0  0  0
  151.0496  143.4748  160.2908 O   0  0  0  0  0  0  0  0  0  0  0  0
  151.6751  144.1677  161.3637 C   0  0  0  0  0  0  0  0  0  0  0  0
  152.6493  143.2312  162.0439 C   0  0  0  0  0  0  0  0  0  0  0  0
  152.6661  141.7596  161.6972 C   0  0  0  0  0  0  0  0  0  0  0  0
  152.1595  142.2086  163.0441 C   0  0  0  0  0  0  0  0  0  0  0  0
  151.0565  142.6347  158.0085 C   0  0  0  0  0  0  0  0  0  0  0  0
  150.0137  143.2000  157.6821 O   0  0  0  0  0  0  0  0  0  0  0  0
  151.5420  141.5173  157.4351 N   0  0  0  0  0  0  0  0  0  0  0  0
  151.0198  140.7422  156.3618 C   0  0  0  0  0  0  0  0  0  0  0  0
  151.3065  139.3744  156.1288 C   0  0  0  0  0  0  0  0  0  0  0  0
  150.7137  138.7328  155.0239 C   0  0  0  0  0  0  0  0  0  0  0  0
  149.8543  139.4769  154.1920 C   0  0  0  0  0  0  0  0  0  0  0  0
  149.2523  138.8743  153.0904 N   0  0  0  0  0  0  0  0  0  0  0  0
  149.5693  140.7780  154.4044 N   0  0  0  0  0  0  0  0  0  0  0  0
  150.1409  141.3868  155.4652 C   0  0  0  0  0  0  0  0  0  0  0  0
  153.2343  144.3684  157.9152 H   0  0  0  0  0  0  0  0  0  0  0  0
  153.2028  144.8771  159.5989 H   0  0  0  0  0  0  0  0  0  0  0  0
  151.8635  145.2893  158.5358 H   0  0  0  0  0  0  0  0  0  0  0  0
  152.6553  142.4768  159.4668 H   0  0  0  0  0  0  0  0  0  0  0  0
  152.2085  145.0533  161.0158 H   0  0  0  0  0  0  0  0  0  0  0  0
  150.9286  144.4903  162.0906 H   0  0  0  0  0  0  0  0  0  0  0  0
  153.6194  143.6797  162.2503 H   0  0  0  0  0  0  0  0  0  0  0  0
  151.9314  141.3974  160.9806 H   0  0  0  0  0  0  0  0  0  0  0  0
  153.6332  141.2622  161.6650 H   0  0  0  0  0  0  0  0  0  0  0  0
  152.7888  142.0135  163.9103 H   0  0  0  0  0  0  0  0  0  0  0  0
  151.0877  142.1490  163.2238 H   0  0  0  0  0  0  0  0  0  0  0  0
  152.3981  141.1634  157.8372 H   0  0  0  0  0  0  0  0  0  0  0  0
  151.9585  138.7980  156.7643 H   0  0  0  0  0  0  0  0  0  0  0  0
  150.9172  137.6909  154.8240 H   0  0  0  0  0  0  0  0  0  0  0  0
  149.4142  137.9038  152.8639 H   0  0  0  0  0  0  0  0  0  0  0  0
  148.6271  139.3888  152.4867 H   0  0  0  0  0  0  0  0  0  0  0  0
  149.8870  142.4280  155.6012 H   0  0  0  0  0  0  0  0  0  0  0  0
  1  2  1  0  0  0  0
  1 18  1  0  0  0  0
  1 19  1  0  0  0  0
  1 20  1  0  0  0  0
  2  3  1  0  0  0  0
  2  8  1  0  0  0  0
  2 21  1  0  0  0  0
  3  4  1  0  0  0  0
  4  5  1  0  0  0  0
  4 22  1  0  0  0  0
  4 23  1  0  0  0  0
  5  7  1  0  0  0  0
  5  6  1  0  0  0  0
  5 24  1  0  0  0  0
  6  7  1  0  0  0  0
  6 25  1  0  0  0  0
  6 26  1  0  0  0  0
  7 27  1  0  0  0  0
  7 28  1  0  0  0  0
  8  9  2  0  0  0  0
  8 10  1  0  0  0  0
 10 11  1  0  0  0  0
 10 29  1  0  0  0  0
 11 17  1  0  0  0  0
 11 12  2  0  0  0  0
 12 13  1  0  0  0  0
 12 30  1  0  0  0  0
 13 14  2  0  0  0  0
 13 31  1  0  0  0  0
 14 15  1  0  0  0  0
 14 16  1  0  0  0  0
 15 32  1  0  0  0  0
 15 33  1  0  0  0  0
 16 17  2  0  0  0  0
 17 34  1  0  0  0  0
M  END
> <s_m_source_file>
AV-unprocessed.smi

> <i_m_source_file_index>
2732

> <i_lp_mmshare_version>
43012

> <i_f3d_flags>
0

> <s_epik_input>
W0NIMl0xW0NIMl1bQ0hdMVtDSDJdT1tDQEBIXShbQ0gzXSlDKD1PKVtOSF1jMltjSF1bY0hdYyhbTkgyXSluW2NIXTI=

> <s_epik_cmdline>
J2VwaWtfcHl0aG9uJywgJy1waCcsICc3LjAnLCAnLXRuJywgJzgnLCAnLW1hJywgJzIwMCcsICctbWV0YWxfYmluZGluZycsICctaW1hZScsICc8aW5maWxlLm1hZT4nLCAnLW9tYWUnLCAnPG91dGZpbGUubWFlPic=

> <r_lp_tautomer_probability>
1

> <r_epik_Ionization_Penalty>
0.0764773

> <r_epik_Ionization_Penalty_Charging>
0

> <r_epik_Ionization_Penalty_Neutral>
0.0764773

> <r_epik_State_Penalty>
0.0673619

> <r_epik_Charging_Adjusted_Penalty>
0.0673619

> <i_epik_Tot_Q>
0

> <i_epik_Tot_abs_Q>
0

> <r_epik_Metal_State_Penalty>
0.0594329

> <b_epik_Metal_Only>
0

> <s_lp_Force_Field>
OPLS_2005

> <r_lp_Energy>
18.9716

> <b_lp_Chiralities_Consistent>
1

> <s_lp_Variant>
AV-unprocessed.smi:2732-2

> <Gold.Version>
5.8.1

> <Gold.Id.Protein>
6NUR|6NUR_protein|mol2

> <Gold.PLP.Fitness>
43.8351

> <Gold.PLP.PLP>
-39.0908

> <Gold.PLP.part.hbond>
-2.7233

> <Gold.PLP.part.metal>
0.0000

> <Gold.PLP.part.buried>
-4.6810

> <Gold.PLP.part.nonpolar>
-32.5965

> <Gold.PLP.part.repulsive>
1.2810

> <Gold.PLP.ligand.clash>
0.0000

> <Gold.PLP.ligand.torsion>
0.8763

> <Gold.PLP.Chemscore.Hbond>
0.9760

> <Gold.PLP.Chemscore.CHOScore>
1.0000

> <Gold.PLP.Chemscore.Metal>
0.0000

> <Gold.Chemscore.Hbonds>
donor molecule, donor type, donor heavy atom, donor atom, acceptor molecule, acceptor atom, score
      L1  H    15    32       P1  7948  1.00
      L1  H    15    33       P1  7957  0.14
      L1  C    17    34       P1  8028  1.00

> <Gold.PLP.Chemscore.Internal.Correction>
0.5689

> <Gold.Rescore>
     Score         DG    S(hbond)    S(metal)    S(lipo)     H(rot)  DE(clash)    DE(int)     intcor
     13.12     -15.71       0.98        0.00      97.00       1.72       0.38       2.21       ----

> <Gold.Chemscore.Fitness>
13.1171

> <Gold.Chemscore.DG>
-15.7058

> <Gold.Chemscore.ZeroCoef>
-5.4800

> <Gold.Chemscore.Hbond>
0.9850

> <Gold.Chemscore.Metal>
0.0000

> <Gold.Chemscore.Lipo>
96.9972

> <Gold.Chemscore.Internal_Hbond>
0.0000

> <Gold.Chemscore.DEClash>
0.3814

> <Gold.Chemscore.DEInternal>
2.2073

> <Gold.Chemscore.Rot>
1.7237

> <Gold.Chemscore.Internal.Correction>
   9.000000E+99

> <Gold.Chemscore.Hbonds>
donor molecule, donor type, donor heavy atom, donor atom, acceptor molecule, acceptor atom, score
      L1  H    15    32       P1  7948  0.83
      L1  H    15    33       P1  7957  0.15

> <Gold.Chemscore.Hbond.Weighted>
-3.2899

> <Gold.Chemscore.Metal.Weighted>
-0.0000

> <Gold.Chemscore.Lipo.Weighted>
-11.3487

> <Gold.Chemscore.Internal_Hbond.Weighted>
0.0000

> <Gold.Chemscore.DEClash.Weighted>
0.3814

> <Gold.Chemscore.DEInternal.Weighted>
2.2073

> <Gold.Chemscore.Rot.Weighted>
4.4127

> <Gold.Chemscore.Internal.Correction.Weighted>
   9.000000E+99

> <Gold.Protein.RotatedTorsions>
[ 6907 6896 6895 6894 ] final   82.80 input  -60.11 | X-H torsion
[ 7974 7965 7964 7962 ] final  156.60 input  175.53 | X-H torsion
[ 8008 7997 7996 7995 ] final  178.49 input   59.86 | X-H torsion
[ 10167 10162 10161 10158 ] final -121.70 input  -65.29 | X-H torsion
[ 10718 10713 10712 10709 ] final    7.02 input   66.30 | X-H torsion
[ 10763 10752 10751 10750 ] final  -12.35 input  -60.55 | X-H torsion
[ 11005 11000 10999 10996 ] final   -7.94 input  -57.11 | X-H torsion

> <Gold.Protein.ActiveResidues>
 VAL166  LYS551  ARG553  GLY616  TRP617  ASP618  TYR619  PRO620  LYS621  CYS622 
 ASP623  PHE694  ASN695  SER759  ASP760  ASP761  ALA762  ILE779  LEU786  VAL792 
 PHE793  MET794  SER795  GLU796  ALA797  LYS798  CYS799  TRP800  GLU811  SER814 

> <Gold.Protein.RotatedAtoms>
  152.5309  134.2994  159.9072 H   0  0  0  0  0  0  0  0  0  0  0  0  # atno 6907 bound_to 6896
  151.2945  133.4144  159.2643 H   0  0  0  0  0  0  0  0  0  0  0  0  # atno 6908 bound_to 6896
  151.0172  134.9458  159.8097 H   0  0  0  0  0  0  0  0  0  0  0  0  # atno 6909 bound_to 6896
  144.7953  139.7225  143.6204 H   0  0  0  0  0  0  0  0  0  0  0  0  # atno 7974 bound_to 7965
  156.0540  140.1332  157.0017 H   0  0  0  0  0  0  0  0  0  0  0  0  # atno 8008 bound_to 7997
  154.4449  140.1005  156.6489 H   0  0  0  0  0  0  0  0  0  0  0  0  # atno 8009 bound_to 7997
  155.5479  140.3462  155.4464 H   0  0  0  0  0  0  0  0  0  0  0  0  # atno 8010 bound_to 7997
  140.0222  143.5333  152.2215 H   0  0  0  0  0  0  0  0  0  0  0  0  # atno 10167 bound_to 10162
  156.9307  130.5825  149.5649 H   0  0  0  0  0  0  0  0  0  0  0  0  # atno 10718 bound_to 10713
  153.4972  135.7017  153.5851 H   0  0  0  0  0  0  0  0  0  0  0  0  # atno 10763 bound_to 10752
  153.3998  135.3875  155.1980 H   0  0  0  0  0  0  0  0  0  0  0  0  # atno 10764 bound_to 10752
  154.8713  135.3879  154.4439 H   0  0  0  0  0  0  0  0  0  0  0  0  # atno 10765 bound_to 10752
  140.7181  133.8851  155.8800 H   0  0  0  0  0  0  0  0  0  0  0  0  # atno 11005 bound_to 11000
  146.2220  139.5652  142.9612 LP  0  0  0  0  0  0  0  0  0  0  0  0  # atno 17320 bound_to 7965
  145.5688  141.0396  143.2185 LP  0  0  0  0  0  0  0  0  0  0  0  0  # atno 17321 bound_to 7965
  139.6132  144.7613  151.2905 LP  0  0  0  0  0  0  0  0  0  0  0  0  # atno 17342 bound_to 10162
  140.7338  143.6785  150.8021 LP  0  0  0  0  0  0  0  0  0  0  0  0  # atno 17343 bound_to 10162
  156.0448  130.5526  150.8856 LP  0  0  0  0  0  0  0  0  0  0  0  0  # atno 17370 bound_to 10713
  157.5849  131.0945  150.9213 LP  0  0  0  0  0  0  0  0  0  0  0  0  # atno 17371 bound_to 10713
  141.0027  134.1129  157.4301 LP  0  0  0  0  0  0  0  0  0  0  0  0  # atno 17394 bound_to 11000
  139.8855  135.0072  156.6436 LP  0  0  0  0  0  0  0  0  0  0  0  0  # atno 17395 bound_to 11000

$$$$
