AV-unprocessed.smi:153|AV-procd|sdf|1259|dock10
  -GOLD-   2262018503D 1   1.00000     0.00000
 Structure written by MMmdl.
 59 62  0  0  0  0  0  0  0  0  1 V2000
  146.9668  133.6408  153.3286 C   0  0  0  0  0  0  0  0  0  0  0  0
  146.2949  133.3589  151.9752 C   0  0  1  0  0  0  0  0  0  0  0  0
  146.5267  132.0070  151.5985 O   0  0  0  0  0  0  0  0  0  0  0  0
  145.5102  131.6322  150.6869 C   0  0  0  0  0  0  0  0  0  0  0  0
  144.2653  132.2202  151.3331 C   0  0  0  0  0  0  0  0  0  0  0  0
  144.7559  133.5574  151.8986 C   0  0  1  0  0  0  0  0  0  0  0  0
  144.1744  133.7328  153.1804 O   0  0  0  0  0  0  0  0  0  0  0  0
  144.3939  134.7841  151.0205 C   0  0  0  0  0  0  0  0  0  0  0  0
  145.1283  135.9948  151.3573 N   0  0  0  0  0  0  0  0  0  0  0  0
  145.8875  136.7604  150.5053 C   0  0  0  0  0  0  0  0  0  0  0  0
  146.4571  137.7956  151.0545 N   0  0  0  0  0  0  0  0  0  0  0  0
  146.0541  137.7611  152.3865 C   0  0  0  0  0  0  0  0  0  0  0  0
  146.3053  138.5705  153.5408 C   0  0  0  0  0  0  0  0  0  0  0  0
  147.1244  139.6658  153.5786 N   0  0  0  0  0  0  0  0  0  0  0  0
  146.8069  140.8079  152.7229 C   0  0  0  0  0  0  0  0  0  0  0  0
  147.9533  139.9325  154.7537 C   0  0  0  0  0  0  0  0  0  0  0  0
  149.2808  140.6464  154.4078 C   0  0  2  0  0  0  0  0  0  0  0  0
  150.0231  139.8832  153.4789 O   0  0  0  0  0  0  0  0  0  0  0  0
  150.1612  140.9586  155.6387 C   0  0  0  0  0  0  0  0  0  0  0  0
  150.9487  139.8509  156.1866 N   0  0  0  0  0  0  0  0  0  0  0  0
  151.1992  140.0479  157.6107 C   0  0  0  0  0  0  0  0  0  0  0  0
  152.0212  138.8978  158.2167 C   0  0  0  0  0  0  0  0  0  0  0  0
  153.2464  138.7631  157.5049 O   0  0  0  0  0  0  0  0  0  0  0  0
  153.0491  138.5220  156.1159 C   0  0  0  0  0  0  0  0  0  0  0  0
  152.2267  139.6686  155.5025 C   0  0  0  0  0  0  0  0  0  0  0  0
  145.6751  138.1986  154.6891 N   0  0  0  0  0  0  0  0  0  0  0  0
  144.8859  137.1229  154.7281 C   0  0  0  0  0  0  0  0  0  0  0  0
  144.5859  136.2758  153.7451 N   0  0  0  0  0  0  0  0  0  0  0  0
  145.1966  136.6374  152.5818 C   0  0  0  0  0  0  0  0  0  0  0  0
  146.8020  134.6718  153.6426 H   0  0  0  0  0  0  0  0  0  0  0  0
  148.0435  133.4831  153.2645 H   0  0  0  0  0  0  0  0  0  0  0  0
  146.5851  132.9824  154.1096 H   0  0  0  0  0  0  0  0  0  0  0  0
  146.7793  133.9769  151.2173 H   0  0  0  0  0  0  0  0  0  0  0  0
  145.6980  132.0823  149.7107 H   0  0  0  0  0  0  0  0  0  0  0  0
  145.4537  130.5501  150.5682 H   0  0  0  0  0  0  0  0  0  0  0  0
  143.4321  132.2984  150.6366 H   0  0  0  0  0  0  0  0  0  0  0  0
  143.9494  131.5535  152.1377 H   0  0  0  0  0  0  0  0  0  0  0  0
  143.8960  132.8881  153.4996 H   0  0  0  0  0  0  0  0  0  0  0  0
  144.5791  134.5585  149.9693 H   0  0  0  0  0  0  0  0  0  0  0  0
  143.3279  135.0008  151.0999 H   0  0  0  0  0  0  0  0  0  0  0  0
  146.0139  136.5221  149.4591 H   0  0  0  0  0  0  0  0  0  0  0  0
  146.7874  140.5133  151.6731 H   0  0  0  0  0  0  0  0  0  0  0  0
  147.5515  141.5972  152.8271 H   0  0  0  0  0  0  0  0  0  0  0  0
  145.8358  141.2290  152.9861 H   0  0  0  0  0  0  0  0  0  0  0  0
  147.3741  140.5052  155.4743 H   0  0  0  0  0  0  0  0  0  0  0  0
  148.1640  138.9968  155.2727 H   0  0  0  0  0  0  0  0  0  0  0  0
  149.0744  141.6008  153.9223 H   0  0  0  0  0  0  0  0  0  0  0  0
  149.5827  139.9192  152.6438 H   0  0  0  0  0  0  0  0  0  0  0  0
  150.8050  141.8154  155.4331 H   0  0  0  0  0  0  0  0  0  0  0  0
  149.4788  141.2963  156.4199 H   0  0  0  0  0  0  0  0  0  0  0  0
  151.7279  140.9896  157.7666 H   0  0  0  0  0  0  0  0  0  0  0  0
  150.2520  140.1302  158.1452 H   0  0  0  0  0  0  0  0  0  0  0  0
  152.2384  139.0981  159.2661 H   0  0  0  0  0  0  0  0  0  0  0  0
  151.4634  137.9609  158.1768 H   0  0  0  0  0  0  0  0  0  0  0  0
  154.0194  138.4465  155.6251 H   0  0  0  0  0  0  0  0  0  0  0  0
  152.5427  137.5660  155.9738 H   0  0  0  0  0  0  0  0  0  0  0  0
  152.0639  139.4491  154.4484 H   0  0  0  0  0  0  0  0  0  0  0  0
  152.8055  140.5924  155.5465 H   0  0  0  0  0  0  0  0  0  0  0  0
  144.4356  136.9079  155.6859 H   0  0  0  0  0  0  0  0  0  0  0  0
  1  2  1  0  0  0  0
  1 30  1  0  0  0  0
  1 31  1  0  0  0  0
  1 32  1  0  0  0  0
  2  6  1  0  0  0  0
  2  3  1  0  0  0  0
  2 33  1  0  0  0  0
  3  4  1  0  0  0  0
  4  5  1  0  0  0  0
  4 34  1  0  0  0  0
  4 35  1  0  0  0  0
  5  6  1  0  0  0  0
  5 36  1  0  0  0  0
  5 37  1  0  0  0  0
  6  7  1  0  0  0  0
  6  8  1  0  0  0  0
  7 38  1  0  0  0  0
  8  9  1  0  0  0  0
  8 39  1  0  0  0  0
  8 40  1  0  0  0  0
  9 29  1  0  0  0  0
  9 10  1  0  0  0  0
 10 11  2  0  0  0  0
 10 41  1  0  0  0  0
 11 12  1  0  0  0  0
 12 29  2  0  0  0  0
 12 13  1  0  0  0  0
 13 14  1  0  0  0  0
 13 26  2  0  0  0  0
 14 15  1  0  0  0  0
 14 16  1  0  0  0  0
 15 42  1  0  0  0  0
 15 43  1  0  0  0  0
 15 44  1  0  0  0  0
 16 17  1  0  0  0  0
 16 45  1  0  0  0  0
 16 46  1  0  0  0  0
 17 18  1  0  0  0  0
 17 19  1  0  0  0  0
 17 47  1  0  0  0  0
 18 48  1  0  0  0  0
 19 20  1  0  0  0  0
 19 49  1  0  0  0  0
 19 50  1  0  0  0  0
 20 25  1  0  0  0  0
 20 21  1  0  0  0  0
 21 22  1  0  0  0  0
 21 51  1  0  0  0  0
 21 52  1  0  0  0  0
 22 23  1  0  0  0  0
 22 53  1  0  0  0  0
 22 54  1  0  0  0  0
 23 24  1  0  0  0  0
 24 25  1  0  0  0  0
 24 55  1  0  0  0  0
 24 56  1  0  0  0  0
 25 57  1  0  0  0  0
 25 58  1  0  0  0  0
 26 27  1  0  0  0  0
 27 28  2  0  0  0  0
 27 59  1  0  0  0  0
 28 29  1  0  0  0  0
M  END
> <s_m_source_file>
AV-unprocessed.smi

> <i_m_source_file_index>
153

> <i_lp_mmshare_version>
43012

> <i_f3d_flags>
0

> <s_epik_input>
W0NIMl0xW0NIMl1PW0NAQEhdKFtDSDNdKVtDQEBdMShbT0hdKVtDSDJdbihbY0hdbjIpYyhjMjMpbltjSF1uYzNOKFtDSDNdKVtDSDJdW0NASF0oW09IXSlbQ0gyXU40W0NIMl1bQ0gyXU9bQ0gyXVtDSDJdNA==

> <s_epik_cmdline>
J2VwaWtfcHl0aG9uJywgJy1waCcsICc3LjAnLCAnLXRuJywgJzgnLCAnLW1hJywgJzIwMCcsICctbWV0YWxfYmluZGluZycsICctaW1hZScsICc8aW5maWxlLm1hZT4nLCAnLW9tYWUnLCAnPG91dGZpbGUubWFlPic=

> <r_lp_tautomer_probability>
1

> <r_epik_Ionization_Penalty>
0.424123

> <r_epik_Ionization_Penalty_Charging>
0

> <r_epik_Ionization_Penalty_Neutral>
0.424123

> <r_epik_State_Penalty>
0.421495

> <r_epik_Charging_Adjusted_Penalty>
0.421495

> <i_epik_Tot_Q>
0

> <i_epik_Tot_abs_Q>
0

> <r_epik_Metal_State_Penalty>
0.421223

> <b_epik_Metal_Only>
0

> <s_lp_Force_Field>
OPLS_2005

> <r_lp_Energy>
57.6451

> <b_lp_Chiralities_Consistent>
1

> <s_lp_Variant>
AV-unprocessed.smi:153-10

> <Gold.Version>
5.8.1

> <Gold.Id.Protein>
6NUR|6NUR_protein|mol2

> <Gold.PLP.Fitness>
52.4181

> <Gold.PLP.PLP>
-40.2428

> <Gold.PLP.part.hbond>
-4.5390

> <Gold.PLP.part.metal>
0.0000

> <Gold.PLP.part.buried>
-2.0519

> <Gold.PLP.part.nonpolar>
-36.9196

> <Gold.PLP.part.repulsive>
2.6689

> <Gold.PLP.ligand.clash>
0.0166

> <Gold.PLP.ligand.torsion>
1.6387

> <Gold.PLP.Chemscore.Hbond>
3.9377

> <Gold.PLP.Chemscore.CHOScore>
1.0000

> <Gold.PLP.Chemscore.Metal>
0.0000

> <Gold.Chemscore.Hbonds>
donor molecule, donor type, donor heavy atom, donor atom, acceptor molecule, acceptor atom, score
      L1  H     7    38       P1 10957  0.82
      L1  H    18    48       P1  7957  0.89
      P1  H  7954  7966       L1    11  0.82
      P1  H  7989  7998       L1    18  0.69
      P1  H  7997  8010       L1    23  0.54
      L1  C    10    41       P1  7921  1.00

> <Gold.PLP.Chemscore.Internal.Correction>
0.6563

> <Gold.Rescore>
     Score         DG    S(hbond)    S(metal)    S(lipo)     H(rot)  DE(clash)    DE(int)     intcor
      7.72     -13.36       2.01        0.00      86.89       3.52       2.29       3.36       ----

> <Gold.Chemscore.Fitness>
7.7163

> <Gold.Chemscore.DG>
-13.3631

> <Gold.Chemscore.ZeroCoef>
-5.4800

> <Gold.Chemscore.Hbond>
2.0122

> <Gold.Chemscore.Metal>
0.0000

> <Gold.Chemscore.Lipo>
86.8885

> <Gold.Chemscore.Internal_Hbond>
0.0000

> <Gold.Chemscore.DEClash>
2.2875

> <Gold.Chemscore.DEInternal>
3.3593

> <Gold.Chemscore.Rot>
3.5170

> <Gold.Chemscore.Internal.Correction>
   9.000000E+99

> <Gold.Chemscore.Hbonds>
donor molecule, donor type, donor heavy atom, donor atom, acceptor molecule, acceptor atom, score
      L1  H     7    38       P1 10957  0.58
      L1  H    18    48       P1  7957  0.83
      P1  H  7954  7966       L1    11  0.16
      P1  H  7989  7998       L1    18  0.14
      P1  H  7997  8010       L1    23  0.04

> <Gold.Chemscore.Hbond.Weighted>
-6.7207

> <Gold.Chemscore.Metal.Weighted>
-0.0000

> <Gold.Chemscore.Lipo.Weighted>
-10.1660

> <Gold.Chemscore.Internal_Hbond.Weighted>
0.0000

> <Gold.Chemscore.DEClash.Weighted>
2.2875

> <Gold.Chemscore.DEInternal.Weighted>
3.3593

> <Gold.Chemscore.Rot.Weighted>
9.0036

> <Gold.Chemscore.Internal.Correction.Weighted>
   9.000000E+99

> <Gold.Protein.RotatedTorsions>
[ 6907 6896 6895 6894 ] final -103.87 input  -60.11 | X-H torsion
[ 7974 7965 7964 7962 ] final -137.94 input  175.53 | X-H torsion
[ 8008 7997 7996 7995 ] final   20.90 input   59.86 | X-H torsion
[ 10167 10162 10161 10158 ] final -161.63 input  -65.29 | X-H torsion
[ 10718 10713 10712 10709 ] final  -14.01 input   66.30 | X-H torsion
[ 10763 10752 10751 10750 ] final   21.87 input  -60.55 | X-H torsion
[ 11005 11000 10999 10996 ] final   10.87 input  -57.11 | X-H torsion

> <Gold.Protein.ActiveResidues>
 VAL166  LYS551  ARG553  GLY616  TRP617  ASP618  TYR619  PRO620  LYS621  CYS622 
 ASP623  PHE694  ASN695  SER759  ASP760  ASP761  ALA762  ILE779  LEU786  VAL792 
 PHE793  MET794  SER795  GLU796  ALA797  LYS798  CYS799  TRP800  GLU811  SER814 

> <Gold.Protein.RotatedAtoms>
  150.7260  134.0364  159.3750 H   0  0  0  0  0  0  0  0  0  0  0  0  # atno 6907 bound_to 6896
  151.8336  135.0611  160.0449 H   0  0  0  0  0  0  0  0  0  0  0  0  # atno 6908 bound_to 6896
  152.2915  133.5530  159.5597 H   0  0  0  0  0  0  0  0  0  0  0  0  # atno 6909 bound_to 6896
  144.8799  140.6492  143.5212 H   0  0  0  0  0  0  0  0  0  0  0  0  # atno 7974 bound_to 7965
  154.9426  140.3055  155.5113 H   0  0  0  0  0  0  0  0  0  0  0  0  # atno 8008 bound_to 7997
  156.2994  140.2333  156.4433 H   0  0  0  0  0  0  0  0  0  0  0  0  # atno 8009 bound_to 7997
  154.8131  140.0427  157.1346 H   0  0  0  0  0  0  0  0  0  0  0  0  # atno 8010 bound_to 7997
  139.6451  144.0187  152.2121 H   0  0  0  0  0  0  0  0  0  0  0  0  # atno 10167 bound_to 10162
  156.6221  130.4878  149.6160 H   0  0  0  0  0  0  0  0  0  0  0  0  # atno 10718 bound_to 10713
  153.0960  135.6660  153.9762 H   0  0  0  0  0  0  0  0  0  0  0  0  # atno 10763 bound_to 10752
  153.9346  135.3000  155.3446 H   0  0  0  0  0  0  0  0  0  0  0  0  # atno 10764 bound_to 10752
  154.7379  135.5093  153.9146 H   0  0  0  0  0  0  0  0  0  0  0  0  # atno 10765 bound_to 10752
  140.5096  134.0665  155.7815 H   0  0  0  0  0  0  0  0  0  0  0  0  # atno 11005 bound_to 11000
  145.3973  139.1604  143.4197 LP  0  0  0  0  0  0  0  0  0  0  0  0  # atno 17320 bound_to 7965
  146.2988  140.4067  142.8712 LP  0  0  0  0  0  0  0  0  0  0  0  0  # atno 17321 bound_to 7965
  139.9887  144.6377  150.7834 LP  0  0  0  0  0  0  0  0  0  0  0  0  # atno 17342 bound_to 10162
  140.7510  143.2966  151.3190 LP  0  0  0  0  0  0  0  0  0  0  0  0  # atno 17343 bound_to 10162
  156.2303  130.6790  151.1457 LP  0  0  0  0  0  0  0  0  0  0  0  0  # atno 17370 bound_to 10713
  157.7224  131.0672  150.6077 LP  0  0  0  0  0  0  0  0  0  0  0  0  # atno 17371 bound_to 10713
  141.1392  133.9167  157.2364 LP  0  0  0  0  0  0  0  0  0  0  0  0  # atno 17394 bound_to 11000
  139.9666  135.0140  156.9403 LP  0  0  0  0  0  0  0  0  0  0  0  0  # atno 17395 bound_to 11000

$$$$
