AV-unprocessed.smi:618|AV-procd|sdf|3079|dock8
  -GOLD-   22720 0 03D 1   1.00000     0.00000
 Structure written by MMmdl.
 41 43  0  0  0  0  0  0  0  0  2 V2000
  147.1365  137.2118  155.7648 O   0  0  0  0  0  0  0  0  0  0  0  0
  147.7206  136.9097  154.7251 C   0  0  0  0  0  0  0  0  0  0  0  0
  147.2258  136.0485  153.8252 N   0  0  0  0  0  0  0  0  0  0  0  0
  145.9543  135.3400  153.9472 C   0  0  0  0  0  0  0  0  0  0  0  0
  145.6519  134.4207  152.7457 C   0  0  1  0  0  0  0  0  0  0  0  0
  145.6638  135.1499  151.3845 C   0  0  0  0  0  0  0  0  0  0  0  0
  145.4627  134.2139  150.2542 N   0  3  2  0  0  0  0  0  0  0  0  0
  144.0685  133.8112  149.9683 C   0  0  0  0  0  0  0  0  0  0  0  0
  144.1443  132.4005  149.3630 C   0  0  0  0  0  0  0  0  0  0  0  0
  145.6378  132.0640  149.2903 C   0  0  0  0  0  0  0  0  0  0  0  0
  146.2841  132.9881  150.3236 C   0  0  2  0  0  0  0  0  0  0  0  0
  146.2696  132.3778  151.7433 C   0  0  0  0  0  0  0  0  0  0  0  0
  146.6029  133.3631  152.7105 O   0  0  0  0  0  0  0  0  0  0  0  0
  148.9118  137.3899  154.3293 N   0  0  0  0  0  0  0  0  0  0  0  0
  149.7726  138.3059  154.9937 C   0  0  0  0  0  0  0  0  0  0  0  0
  149.7863  138.5275  156.3926 C   0  0  0  0  0  0  0  0  0  0  0  0
  150.7028  139.4547  156.9249 C   0  0  0  0  0  0  0  0  0  0  0  0
  151.5750  140.1216  156.0432 C   0  0  0  0  0  0  0  0  0  0  0  0
  151.5811  139.9126  154.7101 N   0  0  0  0  0  0  0  0  0  0  0  0
  150.6999  139.0223  154.2069 C   0  0  0  0  0  0  0  0  0  0  0  0
  147.7681  135.8691  152.9928 H   0  0  0  0  0  0  0  0  0  0  0  0
  145.9222  134.7704  154.8775 H   0  0  0  0  0  0  0  0  0  0  0  0
  145.1705  136.0935  154.0278 H   0  0  0  0  0  0  0  0  0  0  0  0
  144.6645  133.9886  152.9163 H   0  0  0  0  0  0  0  0  0  0  0  0
  144.9119  135.9394  151.3547 H   0  0  0  0  0  0  0  0  0  0  0  0
  146.6297  135.6316  151.2301 H   0  0  0  0  0  0  0  0  0  0  0  0
  143.4697  133.7933  150.8798 H   0  0  0  0  0  0  0  0  0  0  0  0
  143.6089  134.5247  149.2840 H   0  0  0  0  0  0  0  0  0  0  0  0
  143.6295  131.6913  150.0126 H   0  0  0  0  0  0  0  0  0  0  0  0
  143.6718  132.3478  148.3815 H   0  0  0  0  0  0  0  0  0  0  0  0
  145.8446  131.0079  149.4681 H   0  0  0  0  0  0  0  0  0  0  0  0
  146.0159  132.3100  148.2971 H   0  0  0  0  0  0  0  0  0  0  0  0
  147.3123  133.2266  150.0482 H   0  0  0  0  0  0  0  0  0  0  0  0
  145.2969  131.9452  151.9839 H   0  0  0  0  0  0  0  0  0  0  0  0
  146.9943  131.5657  151.8063 H   0  0  0  0  0  0  0  0  0  0  0  0
  149.2251  137.0942  153.4163 H   0  0  0  0  0  0  0  0  0  0  0  0
  149.1294  138.0030  157.0680 H   0  0  0  0  0  0  0  0  0  0  0  0
  150.7387  139.6478  157.9869 H   0  0  0  0  0  0  0  0  0  0  0  0
  152.2905  140.8378  156.4194 H   0  0  0  0  0  0  0  0  0  0  0  0
  150.7359  138.8789  153.1367 H   0  0  0  0  0  0  0  0  0  0  0  0
  145.7665  134.6984  149.4215 H   0  0  0  0  0  0  0  0  0  0  0  0
  1  2  2  0  0  0  0
  2  3  1  0  0  0  0
  2 14  1  0  0  0  0
  3  4  1  0  0  0  0
  3 21  1  0  0  0  0
  4  5  1  0  0  0  0
  4 22  1  0  0  0  0
  4 23  1  0  0  0  0
  5 13  1  0  0  0  0
  5  6  1  0  0  0  0
  5 24  1  0  0  0  0
  6  7  1  0  0  0  0
  6 25  1  0  0  0  0
  6 26  1  0  0  0  0
  7 11  1  0  0  0  0
  7  8  1  0  0  0  0
  7 41  1  0  0  0  0
  8  9  1  0  0  0  0
  8 27  1  0  0  0  0
  8 28  1  0  0  0  0
  9 10  1  0  0  0  0
  9 29  1  0  0  0  0
  9 30  1  0  0  0  0
 10 11  1  0  0  0  0
 10 31  1  0  0  0  0
 10 32  1  0  0  0  0
 11 12  1  0  0  0  0
 11 33  1  0  0  0  0
 12 13  1  0  0  0  0
 12 34  1  0  0  0  0
 12 35  1  0  0  0  0
 14 15  1  0  0  0  0
 14 36  1  0  0  0  0
 15 20  1  0  0  0  0
 15 16  2  0  0  0  0
 16 17  1  0  0  0  0
 16 37  1  0  0  0  0
 17 18  2  0  0  0  0
 17 38  1  0  0  0  0
 18 19  1  0  0  0  0
 18 39  1  0  0  0  0
 19 20  2  0  0  0  0
 20 40  1  0  0  0  0
M  CHG  1   7   1
M  END
> <s_m_source_file>
AV-unprocessed.smi

> <i_m_source_file_index>
618

> <i_lp_mmshare_version>
43012

> <i_f3d_flags>
0

> <s_epik_input>
W2NIXTFuW2NIXVtjSF1bY0hdYzFbTkhdQyg9TylbTkhdW0NIMl1bQ0BIXShbQ0gyXTIpT1tDSDJdW0NAQEhdKE4yMylbQ0gyXVtDSDJdW0NIMl0z

> <s_epik_cmdline>
J2VwaWtfcHl0aG9uJywgJy1waCcsICc3LjAnLCAnLXRuJywgJzgnLCAnLW1hJywgJzIwMCcsICctbWV0YWxfYmluZGluZycsICctaW1hZScsICc8aW5maWxlLm1hZT4nLCAnLW9tYWUnLCAnPG91dGZpbGUubWFlPic=

> <r_epik_Ionization_Penalty>
0.111044

> <r_epik_Ionization_Penalty_Charging>
0.10673

> <r_epik_Ionization_Penalty_Neutral>
0.00431361

> <r_epik_State_Penalty>
0.0978747

> <r_epik_Charging_Adjusted_Penalty>
0.204605

> <i_epik_Tot_Q>
1

> <i_epik_Tot_abs_Q>
1

> <r_epik_Metal_State_Penalty>
0.0947591

> <b_epik_Metal_Only>
0

> <s_lp_Force_Field>
OPLS_2005

> <r_lp_Energy>
40.8554

> <b_lp_Chiralities_Consistent>
1

> <s_lp_Variant>
AV-unprocessed.smi:618-6

> <Gold.Version>
5.8.1

> <Gold.Id.Protein>
6NUR|6NUR_protein|mol2

> <Gold.PLP.Fitness>
45.3037

> <Gold.PLP.PLP>
-30.7133

> <Gold.PLP.part.hbond>
-3.8836

> <Gold.PLP.part.metal>
0.0000

> <Gold.PLP.part.buried>
-2.2209

> <Gold.PLP.part.nonpolar>
-23.6995

> <Gold.PLP.part.repulsive>
0.2978

> <Gold.PLP.ligand.clash>
0.0000

> <Gold.PLP.ligand.torsion>
0.1306

> <Gold.PLP.Chemscore.Hbond>
3.9500

> <Gold.PLP.Chemscore.CHOScore>
1.0000

> <Gold.PLP.Chemscore.Metal>
0.0000

> <Gold.Chemscore.Hbonds>
donor molecule, donor type, donor heavy atom, donor atom, acceptor molecule, acceptor atom, score
      L1  H     3    21       P1  7948  1.00
      L1  H     7    41       P1  7921  1.00
      L1  H    14    36       P1  7948  1.00
      P1  H  7989  7998       L1    19  0.90
      L1  C    20    40       P1  7957  1.00

> <Gold.PLP.Chemscore.Internal.Correction>
0.0016

> <Gold.Rescore>
     Score         DG    S(hbond)    S(metal)    S(lipo)     H(rot)  DE(clash)    DE(int)     intcor
     22.58     -23.69       3.44        0.00      85.08       1.27       0.27       0.84       ----

> <Gold.Chemscore.Fitness>
22.5797

> <Gold.Chemscore.DG>
-23.6934

> <Gold.Chemscore.ZeroCoef>
-5.4800

> <Gold.Chemscore.Hbond>
3.4429

> <Gold.Chemscore.Metal>
0.0000

> <Gold.Chemscore.Lipo>
85.0773

> <Gold.Chemscore.Internal_Hbond>
0.0000

> <Gold.Chemscore.DEClash>
0.2741

> <Gold.Chemscore.DEInternal>
0.8396

> <Gold.Chemscore.Rot>
1.2656

> <Gold.Chemscore.Internal.Correction>
   9.000000E+99

> <Gold.Chemscore.Hbonds>
donor molecule, donor type, donor heavy atom, donor atom, acceptor molecule, acceptor atom, score
      L1  H     3    21       P1  7948  0.98
      L1  H     7    41       P1  7921  0.86
      L1  H    14    36       P1  7948  0.96
      P1  H  7989  7998       L1    19  0.17

> <Gold.Chemscore.Hbond.Weighted>
-11.4992

> <Gold.Chemscore.Metal.Weighted>
-0.0000

> <Gold.Chemscore.Lipo.Weighted>
-9.9540

> <Gold.Chemscore.Internal_Hbond.Weighted>
0.0000

> <Gold.Chemscore.DEClash.Weighted>
0.2741

> <Gold.Chemscore.DEInternal.Weighted>
0.8396

> <Gold.Chemscore.Rot.Weighted>
3.2399

> <Gold.Chemscore.Internal.Correction.Weighted>
   9.000000E+99

> <Gold.Protein.RotatedTorsions>
[ 6907 6896 6895 6894 ] final   28.56 input  -60.11 | X-H torsion
[ 7974 7965 7964 7962 ] final  109.38 input  175.53 | X-H torsion
[ 8008 7997 7996 7995 ] final   65.57 input   59.86 | X-H torsion
[ 10167 10162 10161 10158 ] final   40.32 input  -65.29 | X-H torsion
[ 10718 10713 10712 10709 ] final   -9.57 input   66.30 | X-H torsion
[ 10763 10752 10751 10750 ] final   29.61 input  -60.55 | X-H torsion
[ 11005 11000 10999 10996 ] final  179.40 input  -57.11 | X-H torsion

> <Gold.Protein.ActiveResidues>
 VAL166  LYS551  ARG553  GLY616  TRP617  ASP618  TYR619  PRO620  LYS621  CYS622 
 ASP623  PHE694  ASN695  SER759  ASP760  ASP761  ALA762  ILE779  LEU786  VAL792 
 PHE793  MET794  SER795  GLU796  ALA797  LYS798  CYS799  TRP800  GLU811  SER814 

> <Gold.Protein.RotatedAtoms>
  152.0187  134.9835  160.0569 H   0  0  0  0  0  0  0  0  0  0  0  0  # atno 6907 bound_to 6896
  152.1358  133.4430  159.4751 H   0  0  0  0  0  0  0  0  0  0  0  0  # atno 6908 bound_to 6896
  150.6860  134.2283  159.4467 H   0  0  0  0  0  0  0  0  0  0  0  0  # atno 6909 bound_to 6896
  145.2686  139.2675  143.3978 H   0  0  0  0  0  0  0  0  0  0  0  0  # atno 7974 bound_to 7965
  155.6637  140.3497  155.4792 H   0  0  0  0  0  0  0  0  0  0  0  0  # atno 8008 bound_to 7997
  155.9747  140.1162  157.0804 H   0  0  0  0  0  0  0  0  0  0  0  0  # atno 8009 bound_to 7997
  154.4175  140.1150  156.5340 H   0  0  0  0  0  0  0  0  0  0  0  0  # atno 8010 bound_to 7997
  140.3753  144.2051  150.6132 H   0  0  0  0  0  0  0  0  0  0  0  0  # atno 10167 bound_to 10162
  156.6861  130.5051  149.5957 H   0  0  0  0  0  0  0  0  0  0  0  0  # atno 10718 bound_to 10713
  153.0420  135.6485  154.0917 H   0  0  0  0  0  0  0  0  0  0  0  0  # atno 10763 bound_to 10752
  154.0621  135.2887  155.3324 H   0  0  0  0  0  0  0  0  0  0  0  0  # atno 10764 bound_to 10752
  154.6650  135.5377  153.8131 H   0  0  0  0  0  0  0  0  0  0  0  0  # atno 10765 bound_to 10752
  140.4057  134.6737  157.4586 H   0  0  0  0  0  0  0  0  0  0  0  0  # atno 11005 bound_to 11000
  146.3253  140.3122  142.8627 LP  0  0  0  0  0  0  0  0  0  0  0  0  # atno 17320 bound_to 7965
  144.9355  140.8022  143.5663 LP  0  0  0  0  0  0  0  0  0  0  0  0  # atno 17321 bound_to 7965
  140.4992  143.2323  151.8704 LP  0  0  0  0  0  0  0  0  0  0  0  0  # atno 17342 bound_to 10162
  139.4800  144.5079  151.8973 LP  0  0  0  0  0  0  0  0  0  0  0  0  # atno 17343 bound_to 10162
  156.1832  130.6512  151.0975 LP  0  0  0  0  0  0  0  0  0  0  0  0  # atno 17370 bound_to 10713
  157.7026  131.0770  150.6771 LP  0  0  0  0  0  0  0  0  0  0  0  0  # atno 17371 bound_to 10713
  140.0304  134.6415  155.9115 LP  0  0  0  0  0  0  0  0  0  0  0  0  # atno 17394 bound_to 11000
  141.1840  133.6552  156.5139 LP  0  0  0  0  0  0  0  0  0  0  0  0  # atno 17395 bound_to 11000

$$$$
