AV-unprocessed.smi:2699|AV-procd|sdf|10423|dock3
  -GOLD-   2272014463D 1   1.00000     0.00000
 Structure written by MMmdl.
 42 44  0  0  0  0  0  0  0  0  2 V2000
  151.9329  143.8052  161.0424 C   0  0  0  0  0  0  0  0  0  0  0  0
  152.8488  142.5931  160.9154 C   0  0  0  0  0  0  0  0  0  0  0  0
  153.7082  142.2778  161.9092 C   0  0  0  0  0  0  0  0  0  0  0  0
  154.5339  141.1636  161.8357 C   0  0  0  0  0  0  0  0  0  0  0  0
  155.3335  140.8689  162.7512 O   0  5  0  0  0  0  0  0  0  0  0  0
  154.4132  140.3945  160.6856 C   0  0  0  0  0  0  0  0  0  0  0  0
  153.5017  140.6795  159.5841 C   0  0  0  0  0  0  0  0  0  0  0  0
  153.4281  139.9536  158.5910 O   0  0  0  0  0  0  0  0  0  0  0  0
  152.7500  141.8060  159.7369 N   0  0  0  0  0  0  0  0  0  0  0  0
  151.8358  142.2046  158.6418 C   0  0  0  0  0  0  0  0  0  0  0  0
  150.8272  141.1079  158.2440 C   0  0  0  0  0  0  0  0  0  0  0  0
  150.7445  140.0660  158.8927 O   0  0  0  0  0  0  0  0  0  0  0  0
  150.0335  141.3183  157.1827 N   0  0  0  0  0  0  0  0  0  0  0  0
  149.0251  140.4023  156.6592 C   0  0  0  0  0  0  0  0  0  0  0  0
  149.1376  140.2409  155.1322 C   0  0  0  0  0  0  0  0  0  0  0  0
  148.4538  141.4508  154.4893 C   0  0  0  0  0  0  0  0  0  0  0  0
  147.0904  141.9280  154.9290 C   0  0  0  0  0  0  0  0  0  0  0  0
  147.2823  141.3536  153.5395 C   0  0  0  0  0  0  0  0  0  0  0  0
  150.5655  139.9564  154.6203 C   0  0  0  0  0  0  0  0  0  0  0  0
  150.2735  138.4581  154.6866 C   0  0  0  0  0  0  0  0  0  0  0  0
  148.7930  138.8260  154.6022 C   0  0  0  0  0  0  0  0  0  0  0  0
  151.9097  144.1639  162.0717 H   0  0  0  0  0  0  0  0  0  0  0  0
  150.9040  143.5719  160.7700 H   0  0  0  0  0  0  0  0  0  0  0  0
  152.2916  144.6230  160.4170 H   0  0  0  0  0  0  0  0  0  0  0  0
  153.7501  142.9086  162.7857 H   0  0  0  0  0  0  0  0  0  0  0  0
  155.0351  139.5162  160.5881 H   0  0  0  0  0  0  0  0  0  0  0  0
  151.2971  143.1186  158.8853 H   0  0  0  0  0  0  0  0  0  0  0  0
  152.4135  142.4808  157.7583 H   0  0  0  0  0  0  0  0  0  0  0  0
  150.1410  142.1940  156.6916 H   0  0  0  0  0  0  0  0  0  0  0  0
  149.1262  139.4324  157.1486 H   0  0  0  0  0  0  0  0  0  0  0  0
  148.0396  140.7812  156.9330 H   0  0  0  0  0  0  0  0  0  0  0  0
  149.1618  142.2358  154.2286 H   0  0  0  0  0  0  0  0  0  0  0  0
  146.5457  141.3229  155.6512 H   0  0  0  0  0  0  0  0  0  0  0  0
  146.9413  143.0022  155.0156 H   0  0  0  0  0  0  0  0  0  0  0  0
  147.2586  142.0510  152.7046 H   0  0  0  0  0  0  0  0  0  0  0  0
  146.8529  140.3769  153.3319 H   0  0  0  0  0  0  0  0  0  0  0  0
  150.7294  140.3004  153.5975 H   0  0  0  0  0  0  0  0  0  0  0  0
  151.3655  140.2923  155.2808 H   0  0  0  0  0  0  0  0  0  0  0  0
  150.6508  137.8814  153.8419 H   0  0  0  0  0  0  0  0  0  0  0  0
  150.5499  138.0095  155.6419 H   0  0  0  0  0  0  0  0  0  0  0  0
  148.1493  138.2353  155.2548 H   0  0  0  0  0  0  0  0  0  0  0  0
  148.4275  138.8016  153.5762 H   0  0  0  0  0  0  0  0  0  0  0  0
  1  2  1  0  0  0  0
  1 22  1  0  0  0  0
  1 23  1  0  0  0  0
  1 24  1  0  0  0  0
  2  9  1  0  0  0  0
  2  3  2  0  0  0  0
  3  4  1  0  0  0  0
  3 25  1  0  0  0  0
  4  5  1  0  0  0  0
  4  6  2  0  0  0  0
  6  7  1  0  0  0  0
  6 26  1  0  0  0  0
  7  8  2  0  0  0  0
  7  9  1  0  0  0  0
  9 10  1  0  0  0  0
 10 11  1  0  0  0  0
 10 27  1  0  0  0  0
 10 28  1  0  0  0  0
 11 12  2  0  0  0  0
 11 13  1  0  0  0  0
 13 14  1  0  0  0  0
 13 29  1  0  0  0  0
 14 15  1  0  0  0  0
 14 30  1  0  0  0  0
 14 31  1  0  0  0  0
 15 21  1  0  0  0  0
 15 16  1  0  0  0  0
 15 19  1  0  0  0  0
 16 18  1  0  0  0  0
 16 17  1  0  0  0  0
 16 32  1  0  0  0  0
 17 18  1  0  0  0  0
 17 33  1  0  0  0  0
 17 34  1  0  0  0  0
 18 35  1  0  0  0  0
 18 36  1  0  0  0  0
 19 20  1  0  0  0  0
 19 37  1  0  0  0  0
 19 38  1  0  0  0  0
 20 21  1  0  0  0  0
 20 39  1  0  0  0  0
 20 40  1  0  0  0  0
 21 41  1  0  0  0  0
 21 42  1  0  0  0  0
M  CHG  1   5  -1
M  END
> <s_m_source_file>
AV-unprocessed.smi

> <i_m_source_file_index>
2699

> <i_lp_mmshare_version>
43012

> <i_f3d_flags>
0

> <s_epik_input>
W0NIM11jMVtjSF1jKFtPSF0pW2NIXWMoPU8pbjFbQ0gyXUMoPU8pW05IXVtDSDJdQzIoW0NIXTNbQ0gyXVtDSDJdMylbQ0gyXVtDSDJdW0NIMl0y

> <s_epik_cmdline>
J2VwaWtfcHl0aG9uJywgJy1waCcsICc3LjAnLCAnLXRuJywgJzgnLCAnLW1hJywgJzIwMCcsICctbWV0YWxfYmluZGluZycsICctaW1hZScsICc8aW5maWxlLm1hZT4nLCAnLW9tYWUnLCAnPG91dGZpbGUubWFlPic=

> <r_lp_tautomer_probability>
1

> <r_epik_Ionization_Penalty>
0.201472

> <r_epik_Ionization_Penalty_Charging>
0.201472

> <r_epik_Ionization_Penalty_Neutral>
1.82775e-08

> <r_epik_State_Penalty>
0.183831

> <r_epik_Charging_Adjusted_Penalty>
0.385303

> <i_epik_Tot_Q>
-1

> <i_epik_Tot_abs_Q>
1

> <r_epik_Metal_State_Penalty>
0.183831

> <b_epik_Metal_Only>
0

> <s_lp_Force_Field>
OPLS_2005

> <r_lp_Energy>
45.0719

> <b_lp_Chiralities_Consistent>
1

> <s_lp_Variant>
AV-unprocessed.smi:2699-1

> <Gold.Version>
5.8.1

> <Gold.Id.Protein>
6NUR|6NUR_protein|mol2

> <Gold.PLP.Fitness>
44.4945

> <Gold.PLP.PLP>
-43.1814

> <Gold.PLP.part.hbond>
-2.0000

> <Gold.PLP.part.metal>
0.0000

> <Gold.PLP.part.buried>
-0.9513

> <Gold.PLP.part.nonpolar>
-39.5424

> <Gold.PLP.part.repulsive>
0.0323

> <Gold.PLP.ligand.clash>
0.0000

> <Gold.PLP.ligand.torsion>
1.7405

> <Gold.PLP.Chemscore.Hbond>
1.0000

> <Gold.PLP.Chemscore.CHOScore>
0.0000

> <Gold.PLP.Chemscore.Metal>
0.0000

> <Gold.Chemscore.Hbonds>
donor molecule, donor type, donor heavy atom, donor atom, acceptor molecule, acceptor atom, score
      P1  H  7997  8008       L1     8  1.00

> <Gold.PLP.Chemscore.Internal.Correction>
1.7940

> <Gold.Rescore>
     Score         DG    S(hbond)    S(metal)    S(lipo)     H(rot)  DE(clash)    DE(int)     intcor
     13.02     -17.09       0.97        0.00     108.95       1.71       1.47       2.60       ----

> <Gold.Chemscore.Fitness>
13.0157

> <Gold.Chemscore.DG>
-17.0883

> <Gold.Chemscore.ZeroCoef>
-5.4800

> <Gold.Chemscore.Hbond>
0.9692

> <Gold.Chemscore.Metal>
0.0000

> <Gold.Chemscore.Lipo>
108.9488

> <Gold.Chemscore.Internal_Hbond>
0.0000

> <Gold.Chemscore.DEClash>
1.4740

> <Gold.Chemscore.DEInternal>
2.5986

> <Gold.Chemscore.Rot>
1.7094

> <Gold.Chemscore.Internal.Correction>
   9.000000E+99

> <Gold.Chemscore.Hbonds>
donor molecule, donor type, donor heavy atom, donor atom, acceptor molecule, acceptor atom, score
      P1  H  7997  8008       L1     8  0.96

> <Gold.Chemscore.Hbond.Weighted>
-3.2373

> <Gold.Chemscore.Metal.Weighted>
-0.0000

> <Gold.Chemscore.Lipo.Weighted>
-12.7470

> <Gold.Chemscore.Internal_Hbond.Weighted>
0.0000

> <Gold.Chemscore.DEClash.Weighted>
1.4740

> <Gold.Chemscore.DEInternal.Weighted>
2.5986

> <Gold.Chemscore.Rot.Weighted>
4.3760

> <Gold.Chemscore.Internal.Correction.Weighted>
   9.000000E+99

> <Gold.Protein.RotatedTorsions>
[ 6907 6896 6895 6894 ] final -159.76 input  -60.11 | X-H torsion
[ 7974 7965 7964 7962 ] final   22.23 input  175.53 | X-H torsion
[ 8008 7997 7996 7995 ] final  -90.42 input   59.86 | X-H torsion
[ 10167 10162 10161 10158 ] final -121.74 input  -65.29 | X-H torsion
[ 10718 10713 10712 10709 ] final  142.85 input   66.30 | X-H torsion
[ 10763 10752 10751 10750 ] final  122.27 input  -60.55 | X-H torsion
[ 11005 11000 10999 10996 ] final -172.12 input  -57.11 | X-H torsion

> <Gold.Protein.ActiveResidues>
 VAL166  LYS551  ARG553  GLY616  TRP617  ASP618  TYR619  PRO620  LYS621  CYS622 
 ASP623  PHE694  ASN695  SER759  ASP760  ASP761  ALA762  ILE779  LEU786  VAL792 
 PHE793  MET794  SER795  GLU796  ALA797  LYS798  CYS799  TRP800  GLU811  SER814 

> <Gold.Protein.RotatedAtoms>
  151.3386  133.3971  159.2668 H   0  0  0  0  0  0  0  0  0  0  0  0  # atno 6907 bound_to 6896
  150.9896  134.9235  159.7902 H   0  0  0  0  0  0  0  0  0  0  0  0  # atno 6908 bound_to 6896
  152.5243  134.3351  159.9249 H   0  0  0  0  0  0  0  0  0  0  0  0  # atno 6909 bound_to 6896
  146.2037  139.7914  142.8742 H   0  0  0  0  0  0  0  0  0  0  0  0  # atno 7974 bound_to 7965
  154.6984  140.0530  157.0433 H   0  0  0  0  0  0  0  0  0  0  0  0  # atno 8008 bound_to 7997
  155.0719  140.3200  155.4609 H   0  0  0  0  0  0  0  0  0  0  0  0  # atno 8009 bound_to 7997
  156.2752  140.2080  156.5847 H   0  0  0  0  0  0  0  0  0  0  0  0  # atno 8010 bound_to 7997
  140.0218  143.5337  152.2217 H   0  0  0  0  0  0  0  0  0  0  0  0  # atno 10167 bound_to 10162
  157.3758  131.0985  151.0785 H   0  0  0  0  0  0  0  0  0  0  0  0  # atno 10718 bound_to 10713
  153.6271  135.3403  155.3029 H   0  0  0  0  0  0  0  0  0  0  0  0  # atno 10763 bound_to 10752
  154.8588  135.4286  154.2146 H   0  0  0  0  0  0  0  0  0  0  0  0  # atno 10764 bound_to 10752
  153.3032  135.7026  153.7257 H   0  0  0  0  0  0  0  0  0  0  0  0  # atno 10765 bound_to 10752
  140.5006  134.5897  157.4986 H   0  0  0  0  0  0  0  0  0  0  0  0  # atno 11005 bound_to 11000
  145.3393  141.0284  143.3401 LP  0  0  0  0  0  0  0  0  0  0  0  0  # atno 17320 bound_to 7965
  144.8743  139.4993  143.6753 LP  0  0  0  0  0  0  0  0  0  0  0  0  # atno 17321 bound_to 7965
  139.6135  144.7614  151.2899 LP  0  0  0  0  0  0  0  0  0  0  0  0  # atno 17342 bound_to 10162
  140.7339  143.6781  150.8024 LP  0  0  0  0  0  0  0  0  0  0  0  0  # atno 17343 bound_to 10162
  157.1872  130.6336  149.5692 LP  0  0  0  0  0  0  0  0  0  0  0  0  # atno 17370 bound_to 10713
  155.9765  130.4734  150.6532 LP  0  0  0  0  0  0  0  0  0  0  0  0  # atno 17371 bound_to 10713
  139.9716  134.7284  156.0031 LP  0  0  0  0  0  0  0  0  0  0  0  0  # atno 17394 bound_to 11000
  141.1437  133.6560  156.3806 LP  0  0  0  0  0  0  0  0  0  0  0  0  # atno 17395 bound_to 11000

$$$$
