AV-unprocessed.smi:1295|AV-procd|sdf|5402|dock7
  -GOLD-   22720 4563D 1   1.00000     0.00000
 Structure written by MMmdl.
 43 44  0  0  0  0  0  0  0  0  1 V2000
  147.1727  139.7217  152.5331 C   0  0  0  0  0  0  0  0  0  0  0  0
  147.8249  139.9599  153.8782 C   0  0  0  0  0  0  0  0  0  0  0  0
  147.1676  140.1151  154.9801 N   0  0  0  0  0  0  0  0  0  0  0  0
  147.8826  140.3335  156.1659 C   0  0  0  0  0  0  0  0  0  0  0  0
  147.0390  140.5135  157.4168 C   0  0  0  0  0  0  0  0  0  0  0  0
  149.2472  140.3815  156.1804 C   0  0  0  0  0  0  0  0  0  0  0  0
  150.0524  140.6251  157.4552 C   0  0  0  0  0  0  0  0  0  0  0  0
  151.0437  141.7894  157.3953 C   0  0  0  0  0  0  0  0  0  0  0  0
  151.1104  142.4939  156.3881 O   0  0  0  0  0  0  0  0  0  0  0  0
  151.8010  141.9784  158.4868 N   0  0  0  0  0  0  0  0  0  0  0  0
  152.7903  143.0399  158.6818 C   0  0  1  0  0  0  0  0  0  0  0  0
  152.2163  144.3829  158.1872 C   0  0  0  0  0  0  0  0  0  0  0  0
  151.0860  144.9013  159.0937 C   0  0  0  0  0  0  0  0  0  0  0  0
  151.5473  145.0016  160.5555 C   0  0  0  0  0  0  0  0  0  0  0  0
  152.1035  143.6609  161.0622 C   0  0  0  0  0  0  0  0  0  0  0  0
  153.2428  143.1415  160.1607 C   0  0  1  0  0  0  0  0  0  0  0  0
  153.8394  141.8300  160.6994 C   0  0  0  0  0  0  0  0  0  0  0  0
  149.9875  140.1998  154.9167 C   0  0  0  0  0  0  0  0  0  0  0  0
  151.2129  140.2260  154.8152 O   0  0  0  0  0  0  0  0  0  0  0  0
  149.2171  139.9981  153.8244 N   0  0  0  0  0  0  0  0  0  0  0  0
  149.6769  139.8721  152.9345 H   0  0  0  0  0  0  0  0  0  0  0  0
  146.5168  140.5554  152.2816 H   0  0  0  0  0  0  0  0  0  0  0  0
  146.5743  138.8109  152.5628 H   0  0  0  0  0  0  0  0  0  0  0  0
  147.9132  139.6182  151.7386 H   0  0  0  0  0  0  0  0  0  0  0  0
  147.2413  139.7171  158.1334 H   0  0  0  0  0  0  0  0  0  0  0  0
  145.9740  140.4890  157.1827 H   0  0  0  0  0  0  0  0  0  0  0  0
  147.2520  141.4712  157.8918 H   0  0  0  0  0  0  0  0  0  0  0  0
  149.3531  140.7935  158.2751 H   0  0  0  0  0  0  0  0  0  0  0  0
  150.6020  139.7280  157.7417 H   0  0  0  0  0  0  0  0  0  0  0  0
  151.6723  141.3408  159.2589 H   0  0  0  0  0  0  0  0  0  0  0  0
  153.6719  142.8257  158.0750 H   0  0  0  0  0  0  0  0  0  0  0  0
  153.0165  145.1238  158.1585 H   0  0  0  0  0  0  0  0  0  0  0  0
  151.8584  144.2857  157.1615 H   0  0  0  0  0  0  0  0  0  0  0  0
  150.7490  145.8773  158.7435 H   0  0  0  0  0  0  0  0  0  0  0  0
  150.2233  144.2373  159.0265 H   0  0  0  0  0  0  0  0  0  0  0  0
  152.3154  145.7708  160.6435 H   0  0  0  0  0  0  0  0  0  0  0  0
  150.7170  145.3213  161.1857 H   0  0  0  0  0  0  0  0  0  0  0  0
  152.4642  143.7824  162.0841 H   0  0  0  0  0  0  0  0  0  0  0  0
  151.2993  142.9254  161.1074 H   0  0  0  0  0  0  0  0  0  0  0  0
  154.0426  143.8828  160.1963 H   0  0  0  0  0  0  0  0  0  0  0  0
  153.0909  141.0396  160.7605 H   0  0  0  0  0  0  0  0  0  0  0  0
  154.2503  141.9704  161.6993 H   0  0  0  0  0  0  0  0  0  0  0  0
  154.6469  141.4754  160.0585 H   0  0  0  0  0  0  0  0  0  0  0  0
  1  2  1  0  0  0  0
  1 22  1  0  0  0  0
  1 23  1  0  0  0  0
  1 24  1  0  0  0  0
  2 20  1  0  0  0  0
  2  3  2  0  0  0  0
  3  4  1  0  0  0  0
  4  5  1  0  0  0  0
  4  6  2  0  0  0  0
  5 25  1  0  0  0  0
  5 26  1  0  0  0  0
  5 27  1  0  0  0  0
  6  7  1  0  0  0  0
  6 18  1  0  0  0  0
  7  8  1  0  0  0  0
  7 28  1  0  0  0  0
  7 29  1  0  0  0  0
  8  9  2  0  0  0  0
  8 10  1  0  0  0  0
 10 11  1  0  0  0  0
 10 30  1  0  0  0  0
 11 16  1  0  0  0  0
 11 12  1  0  0  0  0
 11 31  1  0  0  0  0
 12 13  1  0  0  0  0
 12 32  1  0  0  0  0
 12 33  1  0  0  0  0
 13 14  1  0  0  0  0
 13 34  1  0  0  0  0
 13 35  1  0  0  0  0
 14 15  1  0  0  0  0
 14 36  1  0  0  0  0
 14 37  1  0  0  0  0
 15 16  1  0  0  0  0
 15 38  1  0  0  0  0
 15 39  1  0  0  0  0
 16 17  1  0  0  0  0
 16 40  1  0  0  0  0
 17 41  1  0  0  0  0
 17 42  1  0  0  0  0
 17 43  1  0  0  0  0
 18 19  2  0  0  0  0
 18 20  1  0  0  0  0
 20 21  1  0  0  0  0
M  END
> <s_m_source_file>
AV-unprocessed.smi

> <i_m_source_file_index>
1295

> <i_lp_mmshare_version>
43012

> <i_f3d_flags>
0

> <s_epik_input>
W0NIM11jMW5jKFtDSDNdKWMoYyg9TylbbkhdMSlbQ0gyXUMoPU8pW05IXVtDQEBIXTJbQ0gyXVtDSDJdW0NIMl1bQ0gyXVtDQEhdMltDSDNd

> <s_epik_cmdline>
J2VwaWtfcHl0aG9uJywgJy1waCcsICc3LjAnLCAnLXRuJywgJzgnLCAnLW1hJywgJzIwMCcsICctbWV0YWxfYmluZGluZycsICctaW1hZScsICc8aW5maWxlLm1hZT4nLCAnLW9tYWUnLCAnPG91dGZpbGUubWFlPic=

> <r_lp_tautomer_probability>
0.839158

> <r_epik_Ionization_Penalty>
0.00037085

> <r_epik_Ionization_Penalty_Charging>
0.000336002

> <r_epik_Ionization_Penalty_Neutral>
3.48485e-05

> <r_epik_State_Penalty>
0.09125

> <r_epik_Charging_Adjusted_Penalty>
0.091586

> <i_epik_Tot_Q>
0

> <i_epik_Tot_abs_Q>
0

> <r_epik_Metal_State_Penalty>
0.251445

> <b_epik_Metal_Only>
0

> <s_lp_Force_Field>
OPLS_2005

> <r_lp_Energy>
11.7893

> <b_lp_Chiralities_Consistent>
1

> <s_lp_Variant>
AV-unprocessed.smi:1295-2

> <Gold.Version>
5.8.1

> <Gold.Id.Protein>
6NUR|6NUR_protein|mol2

> <Gold.PLP.Fitness>
46.7778

> <Gold.PLP.PLP>
-41.2071

> <Gold.PLP.part.hbond>
-2.0000

> <Gold.PLP.part.metal>
0.0000

> <Gold.PLP.part.buried>
-3.9732

> <Gold.PLP.part.nonpolar>
-36.3709

> <Gold.PLP.part.repulsive>
0.5185

> <Gold.PLP.ligand.clash>
0.0000

> <Gold.PLP.ligand.torsion>
0.2187

> <Gold.PLP.Chemscore.Hbond>
2.0000

> <Gold.PLP.Chemscore.CHOScore>
0.0000

> <Gold.PLP.Chemscore.Metal>
0.0000

> <Gold.Chemscore.Hbonds>
donor molecule, donor type, donor heavy atom, donor atom, acceptor molecule, acceptor atom, score
      L1  H    20    21       P1  7957  0.98
      P1  H  7989  7998       L1    19  0.98

> <Gold.PLP.Chemscore.Internal.Correction>
0.0081

> <Gold.Rescore>
     Score         DG    S(hbond)    S(metal)    S(lipo)     H(rot)  DE(clash)    DE(int)     intcor
     19.19     -19.45       1.90        0.00      97.59       1.48       0.17       0.10       ----

> <Gold.Chemscore.Fitness>
19.1864

> <Gold.Chemscore.DG>
-19.4549

> <Gold.Chemscore.ZeroCoef>
-5.4800

> <Gold.Chemscore.Hbond>
1.8999

> <Gold.Chemscore.Metal>
0.0000

> <Gold.Chemscore.Lipo>
97.5924

> <Gold.Chemscore.Internal_Hbond>
0.0000

> <Gold.Chemscore.DEClash>
0.1691

> <Gold.Chemscore.DEInternal>
0.0994

> <Gold.Chemscore.Rot>
1.4801

> <Gold.Chemscore.Internal.Correction>
   9.000000E+99

> <Gold.Chemscore.Hbonds>
donor molecule, donor type, donor heavy atom, donor atom, acceptor molecule, acceptor atom, score
      L1  H    20    21       P1  7957  0.93
      P1  H  7989  7998       L1    19  0.72

> <Gold.Chemscore.Hbond.Weighted>
-6.3457

> <Gold.Chemscore.Metal.Weighted>
-0.0000

> <Gold.Chemscore.Lipo.Weighted>
-11.4183

> <Gold.Chemscore.Internal_Hbond.Weighted>
0.0000

> <Gold.Chemscore.DEClash.Weighted>
0.1691

> <Gold.Chemscore.DEInternal.Weighted>
0.0994

> <Gold.Chemscore.Rot.Weighted>
3.7891

> <Gold.Chemscore.Internal.Correction.Weighted>
   9.000000E+99

> <Gold.Protein.RotatedTorsions>
[ 6907 6896 6895 6894 ] final -146.73 input  -60.11 | X-H torsion
[ 7974 7965 7964 7962 ] final  178.09 input  175.53 | X-H torsion
[ 8008 7997 7996 7995 ] final   45.14 input   59.86 | X-H torsion
[ 10167 10162 10161 10158 ] final    0.07 input  -65.29 | X-H torsion
[ 10718 10713 10712 10709 ] final  -61.83 input   66.30 | X-H torsion
[ 10763 10752 10751 10750 ] final  144.10 input  -60.55 | X-H torsion
[ 11005 11000 10999 10996 ] final  -50.24 input  -57.11 | X-H torsion

> <Gold.Protein.ActiveResidues>
 VAL166  LYS551  ARG553  GLY616  TRP617  ASP618  TYR619  PRO620  LYS621  CYS622 
 ASP623  PHE694  ASN695  SER759  ASP760  ASP761  ALA762  ILE779  LEU786  VAL792 
 PHE793  MET794  SER795  GLU796  ALA797  LYS798  CYS799  TRP800  GLU811  SER814 

> <Gold.Protein.RotatedAtoms>
  151.1457  133.4941  159.2595 H   0  0  0  0  0  0  0  0  0  0  0  0  # atno 6907 bound_to 6896
  151.1607  135.0271  159.8719 H   0  0  0  0  0  0  0  0  0  0  0  0  # atno 6908 bound_to 6896
  152.5463  134.1332  159.8501 H   0  0  0  0  0  0  0  0  0  0  0  0  # atno 6909 bound_to 6896
  144.7160  140.0345  143.6438 H   0  0  0  0  0  0  0  0  0  0  0  0  # atno 7974 bound_to 7965
  155.3310  140.3402  155.4239 H   0  0  0  0  0  0  0  0  0  0  0  0  # atno 8008 bound_to 7997
  156.1862  140.1681  156.8218 H   0  0  0  0  0  0  0  0  0  0  0  0  # atno 8009 bound_to 7997
  154.5389  140.0729  156.8458 H   0  0  0  0  0  0  0  0  0  0  0  0  # atno 8010 bound_to 7997
  140.6745  143.6955  150.7993 H   0  0  0  0  0  0  0  0  0  0  0  0  # atno 10167 bound_to 10162
  156.0895  130.4202  150.1049 H   0  0  0  0  0  0  0  0  0  0  0  0  # atno 10718 bound_to 10713
  153.9833  135.2939  155.3418 H   0  0  0  0  0  0  0  0  0  0  0  0  # atno 10763 bound_to 10752
  154.7256  135.5090  153.8885 H   0  0  0  0  0  0  0  0  0  0  0  0  # atno 10764 bound_to 10752
  153.0844  135.6689  154.0094 H   0  0  0  0  0  0  0  0  0  0  0  0  # atno 10765 bound_to 10752
  141.0804  133.6655  156.3702 H   0  0  0  0  0  0  0  0  0  0  0  0  # atno 11005 bound_to 11000
  146.0074  139.3141  143.0891 LP  0  0  0  0  0  0  0  0  0  0  0  0  # atno 17320 bound_to 7965
  145.8722  140.9413  143.0645 LP  0  0  0  0  0  0  0  0  0  0  0  0  # atno 17321 bound_to 7965
  140.0646  143.5121  152.2611 LP  0  0  0  0  0  0  0  0  0  0  0  0  # atno 17342 bound_to 10162
  139.6030  144.7588  151.3127 LP  0  0  0  0  0  0  0  0  0  0  0  0  # atno 17343 bound_to 10162
  156.9063  130.9637  151.3569 LP  0  0  0  0  0  0  0  0  0  0  0  0  # atno 17370 bound_to 10713
  157.6040  130.8534  149.8847 LP  0  0  0  0  0  0  0  0  0  0  0  0  # atno 17371 bound_to 10713
  140.5480  134.6055  157.5399 LP  0  0  0  0  0  0  0  0  0  0  0  0  # atno 17394 bound_to 11000
  139.9618  134.7439  156.0221 LP  0  0  0  0  0  0  0  0  0  0  0  0  # atno 17395 bound_to 11000

$$$$
