AV-unprocessed.smi:2355|AV-procd|sdf|9388|dock1
  -GOLD-   2272013 23D 1   1.00000     0.00000
 Structure written by MMmdl.
 48 49  0  0  0  0  0  0  0  0  1 V2000
  144.0691  133.0915  149.3907 C   0  0  0  0  0  0  0  0  0  0  0  0
  144.9907  132.5182  150.4465 C   0  0  0  0  0  0  0  0  0  0  0  0
  144.9976  131.1388  150.7295 C   0  0  0  0  0  0  0  0  0  0  0  0
  145.8788  130.6688  151.7228 C   0  0  0  0  0  0  0  0  0  0  0  0
  145.9417  129.1976  152.0760 C   0  0  0  0  0  0  0  0  0  0  0  0
  146.7119  131.4778  152.4117 N   0  0  0  0  0  0  0  0  0  0  0  0
  146.7131  132.8082  152.1485 C   0  0  0  0  0  0  0  0  0  0  0  0
  147.5456  133.7435  152.8187 N   0  0  0  0  0  0  0  0  0  0  0  0
  148.0298  133.6768  154.0713 C   0  0  0  0  0  0  0  0  0  0  0  0
  147.8420  132.7487  154.8586 O   0  0  0  0  0  0  0  0  0  0  0  0
  148.7544  134.7660  154.3666 N   0  0  0  0  0  0  0  0  0  0  0  0
  149.3958  135.0454  155.6514 C   0  0  1  0  0  0  0  0  0  0  0  0
  150.8823  134.6508  155.5863 C   0  0  0  0  0  0  0  0  0  0  0  0
  149.1327  136.5209  156.0890 C   0  0  1  0  0  0  0  0  0  0  0  0
  149.5880  136.7239  157.5577 C   0  0  0  0  0  0  0  0  0  0  0  0
  149.7145  137.5303  155.1679 N   0  0  0  0  0  0  0  0  0  0  0  0
  149.1609  138.8765  155.3619 C   0  0  0  0  0  0  0  0  0  0  0  0
  149.7850  139.9209  154.4207 C   0  0  0  0  0  0  0  0  0  0  0  0
  151.1942  139.9444  154.5983 O   0  0  0  0  0  0  0  0  0  0  0  0
  151.7836  138.6778  154.3410 C   0  0  0  0  0  0  0  0  0  0  0  0
  151.1750  137.6214  155.2795 C   0  0  0  0  0  0  0  0  0  0  0  0
  145.8609  133.3613  151.1665 C   0  0  0  0  0  0  0  0  0  0  0  0
  143.4427  132.3172  148.9466 H   0  0  0  0  0  0  0  0  0  0  0  0
  144.6509  133.5580  148.5955 H   0  0  0  0  0  0  0  0  0  0  0  0
  143.4170  133.8474  149.8289 H   0  0  0  0  0  0  0  0  0  0  0  0
  144.3457  130.4595  150.1997 H   0  0  0  0  0  0  0  0  0  0  0  0
  145.1642  128.6335  151.5601 H   0  0  0  0  0  0  0  0  0  0  0  0
  145.8081  129.0573  153.1491 H   0  0  0  0  0  0  0  0  0  0  0  0
  146.9092  128.7828  151.7925 H   0  0  0  0  0  0  0  0  0  0  0  0
  147.7891  134.5661  152.2872 H   0  0  0  0  0  0  0  0  0  0  0  0
  148.8498  135.4759  153.6554 H   0  0  0  0  0  0  0  0  0  0  0  0
  148.9917  134.3872  156.4191 H   0  0  0  0  0  0  0  0  0  0  0  0
  151.4058  134.9350  156.4994 H   0  0  0  0  0  0  0  0  0  0  0  0
  151.3987  135.1074  154.7425 H   0  0  0  0  0  0  0  0  0  0  0  0
  150.9867  133.5710  155.4735 H   0  0  0  0  0  0  0  0  0  0  0  0
  148.0499  136.6548  156.0794 H   0  0  0  0  0  0  0  0  0  0  0  0
  149.1867  135.9640  158.2252 H   0  0  0  0  0  0  0  0  0  0  0  0
  149.2358  137.6675  157.9715 H   0  0  0  0  0  0  0  0  0  0  0  0
  150.6745  136.7036  157.6479 H   0  0  0  0  0  0  0  0  0  0  0  0
  148.0905  138.8861  155.1668 H   0  0  0  0  0  0  0  0  0  0  0  0
  149.3004  139.1896  156.3975 H   0  0  0  0  0  0  0  0  0  0  0  0
  149.5442  139.6956  153.3805 H   0  0  0  0  0  0  0  0  0  0  0  0
  149.3826  140.9110  154.6343 H   0  0  0  0  0  0  0  0  0  0  0  0
  151.6312  138.4012  153.2965 H   0  0  0  0  0  0  0  0  0  0  0  0
  152.8598  138.7490  154.4991 H   0  0  0  0  0  0  0  0  0  0  0  0
  151.4534  137.8493  156.3096 H   0  0  0  0  0  0  0  0  0  0  0  0
  151.6402  136.6701  155.0286 H   0  0  0  0  0  0  0  0  0  0  0  0
  145.8715  134.4231  150.9658 H   0  0  0  0  0  0  0  0  0  0  0  0
  1  2  1  0  0  0  0
  1 23  1  0  0  0  0
  1 24  1  0  0  0  0
  1 25  1  0  0  0  0
  2 22  1  0  0  0  0
  2  3  2  0  0  0  0
  3  4  1  0  0  0  0
  3 26  1  0  0  0  0
  4  5  1  0  0  0  0
  4  6  2  0  0  0  0
  5 27  1  0  0  0  0
  5 28  1  0  0  0  0
  5 29  1  0  0  0  0
  6  7  1  0  0  0  0
  7  8  1  0  0  0  0
  7 22  2  0  0  0  0
  8  9  1  0  0  0  0
  8 30  1  0  0  0  0
  9 10  2  0  0  0  0
  9 11  1  0  0  0  0
 11 12  1  0  0  0  0
 11 31  1  0  0  0  0
 12 13  1  0  0  0  0
 12 14  1  0  0  0  0
 12 32  1  0  0  0  0
 13 33  1  0  0  0  0
 13 34  1  0  0  0  0
 13 35  1  0  0  0  0
 14 15  1  0  0  0  0
 14 16  1  0  0  0  0
 14 36  1  0  0  0  0
 15 37  1  0  0  0  0
 15 38  1  0  0  0  0
 15 39  1  0  0  0  0
 16 21  1  0  0  0  0
 16 17  1  0  0  0  0
 17 18  1  0  0  0  0
 17 40  1  0  0  0  0
 17 41  1  0  0  0  0
 18 19  1  0  0  0  0
 18 42  1  0  0  0  0
 18 43  1  0  0  0  0
 19 20  1  0  0  0  0
 20 21  1  0  0  0  0
 20 44  1  0  0  0  0
 20 45  1  0  0  0  0
 21 46  1  0  0  0  0
 21 47  1  0  0  0  0
 22 48  1  0  0  0  0
M  END
> <s_m_source_file>
AV-unprocessed.smi

> <i_m_source_file_index>
2355

> <i_lp_mmshare_version>
43012

> <i_f3d_flags>
0

> <s_epik_input>
W0NIM11jMVtjSF1jKFtDSDNdKW5jKFtjSF0xKVtOSF1DKD1PKVtOSF1bQ0BIXShbQ0gzXSlbQ0BIXShbQ0gzXSlOMltDSDJdW0NIMl1PW0NIMl1bQ0gyXTI=

> <s_epik_cmdline>
J2VwaWtfcHl0aG9uJywgJy1waCcsICc3LjAnLCAnLXRuJywgJzgnLCAnLW1hJywgJzIwMCcsICctbWV0YWxfYmluZGluZycsICctaW1hZScsICc8aW5maWxlLm1hZT4nLCAnLW9tYWUnLCAnPG91dGZpbGUubWFlPic=

> <r_epik_Ionization_Penalty>
0.266238

> <r_epik_Ionization_Penalty_Charging>
0

> <r_epik_Ionization_Penalty_Neutral>
0.266238

> <r_epik_State_Penalty>
0.257924

> <r_epik_Charging_Adjusted_Penalty>
0.257924

> <i_epik_Tot_Q>
0

> <i_epik_Tot_abs_Q>
0

> <r_epik_Metal_State_Penalty>
0.257904

> <b_epik_Metal_Only>
0

> <s_lp_Force_Field>
OPLS_2005

> <r_lp_Energy>
36.8304

> <b_lp_Chiralities_Consistent>
1

> <s_lp_Variant>
AV-unprocessed.smi:2355-4

> <Gold.Version>
5.8.1

> <Gold.Id.Protein>
6NUR|6NUR_protein|mol2

> <Gold.PLP.Fitness>
43.1762

> <Gold.PLP.PLP>
-35.3019

> <Gold.PLP.part.hbond>
-3.0000

> <Gold.PLP.part.metal>
0.0000

> <Gold.PLP.part.buried>
-5.8512

> <Gold.PLP.part.nonpolar>
-25.9758

> <Gold.PLP.part.repulsive>
0.3382

> <Gold.PLP.ligand.clash>
0.0000

> <Gold.PLP.ligand.torsion>
0.6092

> <Gold.PLP.Chemscore.Hbond>
3.0000

> <Gold.PLP.Chemscore.CHOScore>
0.0000

> <Gold.PLP.Chemscore.Metal>
0.0000

> <Gold.Chemscore.Hbonds>
donor molecule, donor type, donor heavy atom, donor atom, acceptor molecule, acceptor atom, score
      L1  H     8    30       P1  7948  1.00
      L1  H    11    31       P1  7948  1.00
      P1  H  7989  7998       L1    19  0.93

> <Gold.PLP.Chemscore.Internal.Correction>
0.0926

> <Gold.Rescore>
     Score         DG    S(hbond)    S(metal)    S(lipo)     H(rot)  DE(clash)    DE(int)     intcor
     16.44     -18.53       1.71        0.00      93.52       1.40       0.19       1.90       ----

> <Gold.Chemscore.Fitness>
16.4419

> <Gold.Chemscore.DG>
-18.5302

> <Gold.Chemscore.ZeroCoef>
-5.4800

> <Gold.Chemscore.Hbond>
1.7056

> <Gold.Chemscore.Metal>
0.0000

> <Gold.Chemscore.Lipo>
93.5154

> <Gold.Chemscore.Internal_Hbond>
0.0000

> <Gold.Chemscore.DEClash>
0.1906

> <Gold.Chemscore.DEInternal>
1.8977

> <Gold.Chemscore.Rot>
1.4015

> <Gold.Chemscore.Internal.Correction>
   9.000000E+99

> <Gold.Chemscore.Hbonds>
donor molecule, donor type, donor heavy atom, donor atom, acceptor molecule, acceptor atom, score
      L1  H     8    30       P1  7948  0.50
      L1  H    11    31       P1  7948  0.87
      P1  H  7989  7998       L1    19  0.19

> <Gold.Chemscore.Hbond.Weighted>
-5.6967

> <Gold.Chemscore.Metal.Weighted>
-0.0000

> <Gold.Chemscore.Lipo.Weighted>
-10.9413

> <Gold.Chemscore.Internal_Hbond.Weighted>
0.0000

> <Gold.Chemscore.DEClash.Weighted>
0.1906

> <Gold.Chemscore.DEInternal.Weighted>
1.8977

> <Gold.Chemscore.Rot.Weighted>
3.5878

> <Gold.Chemscore.Internal.Correction.Weighted>
   9.000000E+99

> <Gold.Protein.RotatedTorsions>
[ 6907 6896 6895 6894 ] final  139.08 input  -60.11 | X-H torsion
[ 7974 7965 7964 7962 ] final   69.06 input  175.53 | X-H torsion
[ 8008 7997 7996 7995 ] final -117.11 input   59.86 | X-H torsion
[ 10167 10162 10161 10158 ] final   81.28 input  -65.29 | X-H torsion
[ 10718 10713 10712 10709 ] final -154.54 input   66.30 | X-H torsion
[ 10763 10752 10751 10750 ] final  159.44 input  -60.55 | X-H torsion
[ 11005 11000 10999 10996 ] final  -68.51 input  -57.11 | X-H torsion

> <Gold.Protein.ActiveResidues>
 VAL166  LYS551  ARG553  GLY616  TRP617  ASP618  TYR619  PRO620  LYS621  CYS622 
 ASP623  PHE694  ASN695  SER759  ASP760  ASP761  ALA762  ILE779  LEU786  VAL792 
 PHE793  MET794  SER795  GLU796  ALA797  LYS798  CYS799  TRP800  GLU811  SER814 

> <Gold.Protein.RotatedAtoms>
  152.2590  133.5281  159.5370 H   0  0  0  0  0  0  0  0  0  0  0  0  # atno 6907 bound_to 6896
  150.7119  134.0855  159.3922 H   0  0  0  0  0  0  0  0  0  0  0  0  # atno 6908 bound_to 6896
  151.8773  135.0467  160.0536 H   0  0  0  0  0  0  0  0  0  0  0  0  # atno 6909 bound_to 6896
  145.7950  139.2953  143.1188 H   0  0  0  0  0  0  0  0  0  0  0  0  # atno 7974 bound_to 7965
  155.0785  140.0394  157.2631 H   0  0  0  0  0  0  0  0  0  0  0  0  # atno 8008 bound_to 7997
  154.6925  140.2656  155.6773 H   0  0  0  0  0  0  0  0  0  0  0  0  # atno 8009 bound_to 7997
  156.2734  140.2756  156.1509 H   0  0  0  0  0  0  0  0  0  0  0  0  # atno 8010 bound_to 7997
  139.9409  144.6090  150.8253 H   0  0  0  0  0  0  0  0  0  0  0  0  # atno 10167 bound_to 10162
  156.5007  130.8390  151.2608 H   0  0  0  0  0  0  0  0  0  0  0  0  # atno 10718 bound_to 10713
  154.2318  135.2778  155.2887 H   0  0  0  0  0  0  0  0  0  0  0  0  # atno 10763 bound_to 10752
  154.5617  135.5645  153.7017 H   0  0  0  0  0  0  0  0  0  0  0  0  # atno 10764 bound_to 10752
  153.0018  135.6299  154.2460 H   0  0  0  0  0  0  0  0  0  0  0  0  # atno 10765 bound_to 10752
  141.1533  133.6742  156.6457 H   0  0  0  0  0  0  0  0  0  0  0  0  # atno 11005 bound_to 11000
  145.9938  140.8580  143.0053 LP  0  0  0  0  0  0  0  0  0  0  0  0  # atno 17320 bound_to 7965
  144.6776  140.2253  143.7361 LP  0  0  0  0  0  0  0  0  0  0  0  0  # atno 17321 bound_to 7965
  140.7611  143.3166  151.2718 LP  0  0  0  0  0  0  0  0  0  0  0  0  # atno 17342 bound_to 10162
  139.6705  144.0028  152.2750 LP  0  0  0  0  0  0  0  0  0  0  0  0  # atno 17343 bound_to 10162
  157.7463  130.9982  150.2846 LP  0  0  0  0  0  0  0  0  0  0  0  0  # atno 17370 bound_to 10713
  156.3335  130.3804  149.7470 LP  0  0  0  0  0  0  0  0  0  0  0  0  # atno 17371 bound_to 10713
  140.3359  134.7889  157.4361 LP  0  0  0  0  0  0  0  0  0  0  0  0  # atno 17394 bound_to 11000
  140.0978  134.5514  155.8382 LP  0  0  0  0  0  0  0  0  0  0  0  0  # atno 17395 bound_to 11000

$$$$
