AV-unprocessed.smi:2424|AV-procd|sdf|9574|dock3
  -GOLD-   2272013203D 1   1.00000     0.00000
 Structure written by MMmdl.
 49 50  0  0  0  0  0  0  0  0  2 V2000
  149.5756  138.2649  158.2340 C   0  0  0  0  0  0  0  0  0  0  0  0
  148.4617  137.4625  157.5389 C   0  0  0  0  0  0  0  0  0  0  0  0
  148.6279  137.2751  156.0100 C   0  0  0  0  0  0  0  0  0  0  0  0
  149.5503  136.0524  155.7652 C   0  0  0  0  0  0  0  0  0  0  0  0
  150.7902  135.9804  156.6726 C   0  0  0  0  0  0  0  0  0  0  0  0
  147.2820  137.3123  155.2276 C   0  0  2  0  0  0  0  0  0  0  0  0
  147.3150  136.5561  153.9733 N   0  0  0  0  0  0  0  0  0  0  0  0
  146.3437  135.7506  153.5261 C   0  0  0  0  0  0  0  0  0  0  0  0
  145.2879  135.5644  154.1299 O   0  0  0  0  0  0  0  0  0  0  0  0
  146.6936  135.1945  152.3532 N   0  0  0  0  0  0  0  0  0  0  0  0
  145.9808  134.2784  151.5693 C   0  0  0  0  0  0  0  0  0  0  0  0
  144.6035  134.2249  151.6425 C   0  0  0  0  0  0  0  0  0  0  0  0
  143.7493  133.4241  150.9696 N   0  5  0  0  0  0  0  0  0  0  0  0
  144.2715  132.5296  150.0825 C   0  0  0  0  0  0  0  0  0  0  0  0
  143.5548  131.7683  149.4336 O   0  0  0  0  0  0  0  0  0  0  0  0
  145.7363  132.4790  149.9006 C   0  0  0  0  0  0  0  0  0  0  0  0
  146.3135  131.4836  148.9088 C   0  0  0  0  0  0  0  0  0  0  0  0
  146.5303  133.3156  150.6150 C   0  0  0  0  0  0  0  0  0  0  0  0
  147.4813  138.8192  154.9921 C   0  0  2  0  0  0  0  0  0  0  0  0
  147.0140  139.5022  153.7079 C   0  0  0  0  0  0  0  0  0  0  0  0
  148.9789  138.5913  155.2550 C   0  0  2  0  0  0  0  0  0  0  0  0
  149.6806  138.3926  154.0328 O   0  0  0  0  0  0  0  0  0  0  0  0
  151.0651  138.1539  154.2213 C   0  0  0  0  0  0  0  0  0  0  0  0
  149.3066  138.4683  159.2705 H   0  0  0  0  0  0  0  0  0  0  0  0
  149.7479  139.2248  157.7477 H   0  0  0  0  0  0  0  0  0  0  0  0
  150.5194  137.7213  158.2528 H   0  0  0  0  0  0  0  0  0  0  0  0
  148.3515  136.4996  158.0365 H   0  0  0  0  0  0  0  0  0  0  0  0
  147.5230  137.9762  157.7465 H   0  0  0  0  0  0  0  0  0  0  0  0
  148.9939  135.1267  155.9116 H   0  0  0  0  0  0  0  0  0  0  0  0
  149.8699  136.0049  154.7256 H   0  0  0  0  0  0  0  0  0  0  0  0
  151.3159  135.0368  156.5259 H   0  0  0  0  0  0  0  0  0  0  0  0
  150.5212  136.0446  157.7268 H   0  0  0  0  0  0  0  0  0  0  0  0
  151.4996  136.7784  156.4567 H   0  0  0  0  0  0  0  0  0  0  0  0
  146.4191  137.0908  155.8582 H   0  0  0  0  0  0  0  0  0  0  0  0
  148.1456  136.6550  153.4084 H   0  0  0  0  0  0  0  0  0  0  0  0
  147.5934  135.4602  151.9802 H   0  0  0  0  0  0  0  0  0  0  0  0
  144.1147  134.9329  152.3461 H   0  0  0  0  0  0  0  0  0  0  0  0
  147.4016  131.5427  148.8724 H   0  0  0  0  0  0  0  0  0  0  0  0
  145.9321  131.6802  147.9064 H   0  0  0  0  0  0  0  0  0  0  0  0
  146.0409  130.4655  149.1884 H   0  0  0  0  0  0  0  0  0  0  0  0
  147.5940  133.2519  150.4538 H   0  0  0  0  0  0  0  0  0  0  0  0
  147.0619  139.3505  155.8479 H   0  0  0  0  0  0  0  0  0  0  0  0
  147.4401  139.0399  152.8173 H   0  0  0  0  0  0  0  0  0  0  0  0
  147.3013  140.5536  153.6972 H   0  0  0  0  0  0  0  0  0  0  0  0
  145.9289  139.4564  153.6129 H   0  0  0  0  0  0  0  0  0  0  0  0
  149.4056  139.3847  155.8709 H   0  0  0  0  0  0  0  0  0  0  0  0
  151.5373  137.9629  153.2579 H   0  0  0  0  0  0  0  0  0  0  0  0
  151.2419  137.2894  154.8613 H   0  0  0  0  0  0  0  0  0  0  0  0
  151.5531  139.0209  154.6680 H   0  0  0  0  0  0  0  0  0  0  0  0
  1  2  1  0  0  0  0
  1 24  1  0  0  0  0
  1 25  1  0  0  0  0
  1 26  1  0  0  0  0
  2  3  1  0  0  0  0
  2 27  1  0  0  0  0
  2 28  1  0  0  0  0
  3 21  1  0  0  0  0
  3  4  1  0  0  0  0
  3  6  1  0  0  0  0
  4  5  1  0  0  0  0
  4 29  1  0  0  0  0
  4 30  1  0  0  0  0
  5 31  1  0  0  0  0
  5 32  1  0  0  0  0
  5 33  1  0  0  0  0
  6  7  1  0  0  0  0
  6 19  1  0  0  0  0
  6 34  1  0  0  0  0
  7  8  1  0  0  0  0
  7 35  1  0  0  0  0
  8  9  2  0  0  0  0
  8 10  1  0  0  0  0
 10 11  1  0  0  0  0
 10 36  1  0  0  0  0
 11 18  1  0  0  0  0
 11 12  2  0  0  0  0
 12 13  1  0  0  0  0
 12 37  1  0  0  0  0
 13 14  1  0  0  0  0
 14 15  2  0  0  0  0
 14 16  1  0  0  0  0
 16 17  1  0  0  0  0
 16 18  2  0  0  0  0
 17 38  1  0  0  0  0
 17 39  1  0  0  0  0
 17 40  1  0  0  0  0
 18 41  1  0  0  0  0
 19 20  1  0  0  0  0
 19 21  1  0  0  0  0
 19 42  1  0  0  0  0
 20 43  1  0  0  0  0
 20 44  1  0  0  0  0
 20 45  1  0  0  0  0
 21 22  1  0  0  0  0
 21 46  1  0  0  0  0
 22 23  1  0  0  0  0
 23 47  1  0  0  0  0
 23 48  1  0  0  0  0
 23 49  1  0  0  0  0
M  CHG  1  13  -1
M  END
> <s_m_source_file>
AV-unprocessed.smi

> <i_m_source_file_index>
2424

> <i_lp_mmshare_version>
43012

> <i_f3d_flags>
0

> <s_epik_input>
W0NIM11PW0NAQEhdMVtDQEhdKFtDSDNdKVtDQEBIXShDMShbQ0gyXVtDSDNdKVtDSDJdW0NIM10pW05IXUMoPU8pW05IXWMyW2NIXVtuSF1jKD1PKWMoW0NIM10pW2NIXTI=

> <s_epik_cmdline>
J2VwaWtfcHl0aG9uJywgJy1waCcsICc3LjAnLCAnLXRuJywgJzgnLCAnLW1hJywgJzIwMCcsICctbWV0YWxfYmluZGluZycsICctaW1hZScsICc8aW5maWxlLm1hZT4nLCAnLW9tYWUnLCAnPG91dGZpbGUubWFlPic=

> <r_lp_tautomer_probability>
1

> <r_epik_Ionization_Penalty>
7.6122

> <r_epik_Ionization_Penalty_Charging>
1.53843

> <r_epik_Ionization_Penalty_Neutral>
6.07377

> <r_epik_State_Penalty>
6.07371

> <r_epik_Charging_Adjusted_Penalty>
7.61214

> <i_epik_Tot_Q>
-1

> <i_epik_Tot_abs_Q>
1

> <r_epik_Metal_State_Penalty>
2.02136

> <b_epik_Metal_Only>
1

> <s_lp_Force_Field>
OPLS_2005

> <r_lp_Energy>
42.0535

> <b_lp_Chiralities_Consistent>
1

> <s_lp_Variant>
AV-unprocessed.smi:2424-16

> <Gold.Version>
5.8.1

> <Gold.Id.Protein>
6NUR|6NUR_protein|mol2

> <Gold.PLP.Fitness>
35.4720

> <Gold.PLP.PLP>
-27.9286

> <Gold.PLP.part.hbond>
-2.9768

> <Gold.PLP.part.metal>
0.0000

> <Gold.PLP.part.buried>
-4.9438

> <Gold.PLP.part.nonpolar>
-22.2345

> <Gold.PLP.part.repulsive>
1.2932

> <Gold.PLP.ligand.clash>
0.0000

> <Gold.PLP.ligand.torsion>
1.0043

> <Gold.PLP.Chemscore.Hbond>
2.9360

> <Gold.PLP.Chemscore.CHOScore>
0.0000

> <Gold.PLP.Chemscore.Metal>
0.0000

> <Gold.Chemscore.Hbonds>
donor molecule, donor type, donor heavy atom, donor atom, acceptor molecule, acceptor atom, score
      L1  H     7    35       P1  7948  0.93
      L1  H    10    36       P1  7948  1.00
      P1  H 10785 10796       L1    15  0.96

> <Gold.PLP.Chemscore.Internal.Correction>
0.7438

> <Gold.Rescore>
     Score         DG    S(hbond)    S(metal)    S(lipo)     H(rot)  DE(clash)    DE(int)     intcor
     15.96     -19.39       2.85        0.00      70.69       1.52       0.16       3.27       ----

> <Gold.Chemscore.Fitness>
15.9587

> <Gold.Chemscore.DG>
-19.3933

> <Gold.Chemscore.ZeroCoef>
-5.4800

> <Gold.Chemscore.Hbond>
2.8549

> <Gold.Chemscore.Metal>
0.0000

> <Gold.Chemscore.Lipo>
70.6865

> <Gold.Chemscore.Internal_Hbond>
0.0000

> <Gold.Chemscore.DEClash>
0.1647

> <Gold.Chemscore.DEInternal>
3.2699

> <Gold.Chemscore.Rot>
1.5204

> <Gold.Chemscore.Internal.Correction>
   9.000000E+99

> <Gold.Chemscore.Hbonds>
donor molecule, donor type, donor heavy atom, donor atom, acceptor molecule, acceptor atom, score
      L1  H     7    35       P1  7948  0.90
      L1  H    10    36       P1  7948  0.93
      P1  H 10785 10796       L1    15  0.92

> <Gold.Chemscore.Hbond.Weighted>
-9.5352

> <Gold.Chemscore.Metal.Weighted>
-0.0000

> <Gold.Chemscore.Lipo.Weighted>
-8.2703

> <Gold.Chemscore.Internal_Hbond.Weighted>
0.0000

> <Gold.Chemscore.DEClash.Weighted>
0.1647

> <Gold.Chemscore.DEInternal.Weighted>
3.2699

> <Gold.Chemscore.Rot.Weighted>
3.8922

> <Gold.Chemscore.Internal.Correction.Weighted>
   9.000000E+99

> <Gold.Protein.RotatedTorsions>
[ 6907 6896 6895 6894 ] final -100.18 input  -60.11 | X-H torsion
[ 7974 7965 7964 7962 ] final  -90.89 input  175.53 | X-H torsion
[ 8008 7997 7996 7995 ] final   10.98 input   59.86 | X-H torsion
[ 10167 10162 10161 10158 ] final   48.97 input  -65.29 | X-H torsion
[ 10718 10713 10712 10709 ] final  121.33 input   66.30 | X-H torsion
[ 10763 10752 10751 10750 ] final    7.46 input  -60.55 | X-H torsion
[ 11005 11000 10999 10996 ] final  115.16 input  -57.11 | X-H torsion

> <Gold.Protein.ActiveResidues>
 VAL166  LYS551  ARG553  GLY616  TRP617  ASP618  TYR619  PRO620  LYS621  CYS622 
 ASP623  PHE694  ASN695  SER759  ASP760  ASP761  ALA762  ILE779  LEU786  VAL792 
 PHE793  MET794  SER795  GLU796  ALA797  LYS798  CYS799  TRP800  GLU811  SER814 

> <Gold.Protein.RotatedAtoms>
  150.7106  134.0927  159.3937 H   0  0  0  0  0  0  0  0  0  0  0  0  # atno 6907 bound_to 6896
  151.8912  135.0413  160.0507 H   0  0  0  0  0  0  0  0  0  0  0  0  # atno 6908 bound_to 6896
  152.2490  133.5163  159.5351 H   0  0  0  0  0  0  0  0  0  0  0  0  # atno 6909 bound_to 6896
  145.4205  140.9551  143.2184 H   0  0  0  0  0  0  0  0  0  0  0  0  # atno 7974 bound_to 7965
  154.8007  140.2851  155.5924 H   0  0  0  0  0  0  0  0  0  0  0  0  # atno 8008 bound_to 7997
  156.2976  140.2587  156.2803 H   0  0  0  0  0  0  0  0  0  0  0  0  # atno 8009 bound_to 7997
  154.9562  140.0378  157.2157 H   0  0  0  0  0  0  0  0  0  0  0  0  # atno 8010 bound_to 7997
  140.2878  144.3082  150.6248 H   0  0  0  0  0  0  0  0  0  0  0  0  # atno 10167 bound_to 10162
  157.5825  131.1073  150.8159 H   0  0  0  0  0  0  0  0  0  0  0  0  # atno 10718 bound_to 10713
  153.2360  135.6898  153.7836 H   0  0  0  0  0  0  0  0  0  0  0  0  # atno 10763 bound_to 10752
  153.6983  135.3301  155.3219 H   0  0  0  0  0  0  0  0  0  0  0  0  # atno 10764 bound_to 10752
  154.8335  135.4561  154.1264 H   0  0  0  0  0  0  0  0  0  0  0  0  # atno 10765 bound_to 10752
  139.9002  134.9579  156.7003 H   0  0  0  0  0  0  0  0  0  0  0  0  # atno 11005 bound_to 11000
  144.8249  139.5728  143.6970 LP  0  0  0  0  0  0  0  0  0  0  0  0  # atno 17320 bound_to 7965
  146.2659  139.6519  142.9330 LP  0  0  0  0  0  0  0  0  0  0  0  0  # atno 17321 bound_to 7965
  140.5758  143.2176  151.7518 LP  0  0  0  0  0  0  0  0  0  0  0  0  # atno 17342 bound_to 10162
  139.4946  144.4152  152.0038 LP  0  0  0  0  0  0  0  0  0  0  0  0  # atno 17343 bound_to 10162
  156.8601  130.5110  149.5304 LP  0  0  0  0  0  0  0  0  0  0  0  0  # atno 17370 bound_to 10713
  156.0872  130.5867  150.9669 LP  0  0  0  0  0  0  0  0  0  0  0  0  # atno 17371 bound_to 10713
  140.7155  133.9186  155.8112 LP  0  0  0  0  0  0  0  0  0  0  0  0  # atno 17394 bound_to 11000
  141.0267  134.0813  157.4060 LP  0  0  0  0  0  0  0  0  0  0  0  0  # atno 17395 bound_to 11000

$$$$
