AV-unprocessed.smi:2593|AV-procd|sdf|10164|dock10
  -GOLD-   2272014183D 1   1.00000     0.00000
 Structure written by MMmdl.
 41 43  0  0  0  0  0  0  0  0  2 V2000
  152.8726  138.6983  154.6934 C   0  0  0  0  0  0  0  0  0  0  0  0
  153.0175  139.2380  155.9950 O   0  0  0  0  0  0  0  0  0  0  0  0
  151.8257  139.8434  156.4696 C   0  0  0  0  0  0  0  0  0  0  0  0
  151.5786  139.4168  157.9233 C   0  0  0  0  0  0  0  0  0  0  0  0
  152.3003  140.2660  158.8816 N   0  0  0  0  0  0  0  0  0  0  0  0
  153.2508  139.9532  159.8065 C   0  0  0  0  0  0  0  0  0  0  0  0
  153.9575  138.3663  160.1048 S   0  0  0  0  0  0  0  0  0  0  0  0
  153.9144  138.1793  161.9104 C   0  0  0  0  0  0  0  0  0  0  0  0
  154.2381  136.7464  162.2876 C   0  0  0  0  0  0  0  0  0  0  0  0
  154.6384  135.8173  161.3045 C   0  0  0  0  0  0  0  0  0  0  0  0
  154.8965  134.4912  161.7017 C   0  0  0  0  0  0  0  0  0  0  0  0
  154.7388  134.1461  163.0581 C   0  0  0  0  0  0  0  0  0  0  0  0
  154.3338  135.1479  163.9636 C   0  0  0  0  0  0  0  0  0  0  0  0
  154.1594  134.8442  165.3111 N   0  0  0  0  0  0  0  0  0  0  0  0
  154.0903  136.4224  163.5925 N   0  0  0  0  0  0  0  0  0  0  0  0
  153.5916  141.0995  160.4560 N   0  3  0  0  0  0  0  0  0  0  0  0
  152.8542  142.1644  159.9369 C   0  0  0  0  0  0  0  0  0  0  0  0
  152.8525  143.5166  160.2650 C   0  0  0  0  0  0  0  0  0  0  0  0
  151.9702  144.3428  159.5384 C   0  0  0  0  0  0  0  0  0  0  0  0
  151.1336  143.8184  158.5318 C   0  0  0  0  0  0  0  0  0  0  0  0
  151.1439  142.4457  158.2072 C   0  0  0  0  0  0  0  0  0  0  0  0
  152.0209  141.6361  158.9281 C   0  0  0  0  0  0  0  0  0  0  0  0
  153.8113  138.2418  154.3795 H   0  0  0  0  0  0  0  0  0  0  0  0
  152.6176  139.4747  153.9710 H   0  0  0  0  0  0  0  0  0  0  0  0
  152.0997  137.9291  154.6692 H   0  0  0  0  0  0  0  0  0  0  0  0
  151.9081  140.9298  156.4129 H   0  0  0  0  0  0  0  0  0  0  0  0
  150.9832  139.5472  155.8431 H   0  0  0  0  0  0  0  0  0  0  0  0
  150.5153  139.4813  158.1513 H   0  0  0  0  0  0  0  0  0  0  0  0
  151.8657  138.3774  158.0842 H   0  0  0  0  0  0  0  0  0  0  0  0
  154.6397  138.8569  162.3615 H   0  0  0  0  0  0  0  0  0  0  0  0
  152.9310  138.4606  162.2881 H   0  0  0  0  0  0  0  0  0  0  0  0
  154.7408  136.1118  160.2701 H   0  0  0  0  0  0  0  0  0  0  0  0
  155.2046  133.7510  160.9783 H   0  0  0  0  0  0  0  0  0  0  0  0
  154.9259  133.1354  163.3910 H   0  0  0  0  0  0  0  0  0  0  0  0
  154.3172  133.9115  165.6645 H   0  0  0  0  0  0  0  0  0  0  0  0
  153.9836  135.5686  165.9923 H   0  0  0  0  0  0  0  0  0  0  0  0
  153.4915  143.9209  161.0365 H   0  0  0  0  0  0  0  0  0  0  0  0
  151.9338  145.4000  159.7582 H   0  0  0  0  0  0  0  0  0  0  0  0
  150.4702  144.4827  157.9971 H   0  0  0  0  0  0  0  0  0  0  0  0
  150.4985  142.0536  157.4350 H   0  0  0  0  0  0  0  0  0  0  0  0
  154.2845  141.1472  161.1918 H   0  0  0  0  0  0  0  0  0  0  0  0
  1  2  1  0  0  0  0
  1 23  1  0  0  0  0
  1 24  1  0  0  0  0
  1 25  1  0  0  0  0
  2  3  1  0  0  0  0
  3  4  1  0  0  0  0
  3 26  1  0  0  0  0
  3 27  1  0  0  0  0
  4  5  1  0  0  0  0
  4 28  1  0  0  0  0
  4 29  1  0  0  0  0
  5 22  1  0  0  0  0
  5  6  1  0  0  0  0
  6  7  1  0  0  0  0
  6 16  2  0  0  0  0
  7  8  1  0  0  0  0
  8  9  1  0  0  0  0
  8 30  1  0  0  0  0
  8 31  1  0  0  0  0
  9 15  1  0  0  0  0
  9 10  2  0  0  0  0
 10 11  1  0  0  0  0
 10 32  1  0  0  0  0
 11 12  2  0  0  0  0
 11 33  1  0  0  0  0
 12 13  1  0  0  0  0
 12 34  1  0  0  0  0
 13 14  1  0  0  0  0
 13 15  2  0  0  0  0
 14 35  1  0  0  0  0
 14 36  1  0  0  0  0
 16 17  1  0  0  0  0
 16 41  1  0  0  0  0
 17 22  2  0  0  0  0
 17 18  1  0  0  0  0
 18 19  2  0  0  0  0
 18 37  1  0  0  0  0
 19 20  1  0  0  0  0
 19 38  1  0  0  0  0
 20 21  2  0  0  0  0
 20 39  1  0  0  0  0
 21 22  1  0  0  0  0
 21 40  1  0  0  0  0
M  CHG  1  16   1
M  END
> <s_m_source_file>
AV-unprocessed.smi

> <i_m_source_file_index>
2593

> <i_lp_mmshare_version>
43012

> <i_f3d_flags>
0

> <s_epik_input>
W2NIXTFbY0hdW2NIXVtjSF1jKGMxMiluKFtDSDJdW0NIMl1PW0NIM10pYyhuMilTW0NIMl1jM1tjSF1bY0hdW2NIXWMobjMpW05IMl0=

> <s_epik_cmdline>
J2VwaWtfcHl0aG9uJywgJy1waCcsICc3LjAnLCAnLXRuJywgJzgnLCAnLW1hJywgJzIwMCcsICctbWV0YWxfYmluZGluZycsICctaW1hZScsICc8aW5maWxlLm1hZT4nLCAnLW9tYWUnLCAnPG91dGZpbGUubWFlPic=

> <r_lp_tautomer_probability>
1

> <r_epik_Ionization_Penalty>
1.62501

> <r_epik_Ionization_Penalty_Charging>
1.62036

> <r_epik_Ionization_Penalty_Neutral>
0.00464699

> <r_epik_State_Penalty>
1.7318

> <r_epik_Charging_Adjusted_Penalty>
3.35216

> <i_epik_Tot_Q>
1

> <i_epik_Tot_abs_Q>
1

> <r_epik_Metal_State_Penalty>
1.7649

> <b_epik_Metal_Only>
0

> <s_lp_Force_Field>
OPLS_2005

> <r_lp_Energy>
8.46533

> <b_lp_Chiralities_Consistent>
1

> <s_lp_Variant>
AV-unprocessed.smi:2593-2

> <Gold.Version>
5.8.1

> <Gold.Id.Protein>
6NUR|6NUR_protein|mol2

> <Gold.PLP.Fitness>
48.3675

> <Gold.PLP.PLP>
-46.6600

> <Gold.PLP.part.hbond>
-2.0000

> <Gold.PLP.part.metal>
0.0000

> <Gold.PLP.part.buried>
-8.0157

> <Gold.PLP.part.nonpolar>
-37.4235

> <Gold.PLP.part.repulsive>
0.1983

> <Gold.PLP.ligand.clash>
0.0000

> <Gold.PLP.ligand.torsion>
0.6759

> <Gold.PLP.Chemscore.Hbond>
1.0000

> <Gold.PLP.Chemscore.CHOScore>
0.0000

> <Gold.PLP.Chemscore.Metal>
0.0000

> <Gold.Chemscore.Hbonds>
donor molecule, donor type, donor heavy atom, donor atom, acceptor molecule, acceptor atom, score
      P1  H  7997  8009       L1     2  1.00

> <Gold.PLP.Chemscore.Internal.Correction>
0.0592

> <Gold.Rescore>
     Score         DG    S(hbond)    S(metal)    S(lipo)     H(rot)  DE(clash)    DE(int)     intcor
     15.75     -16.33       0.96        0.00     113.45       2.19       0.03       0.56       ----

> <Gold.Chemscore.Fitness>
15.7511

> <Gold.Chemscore.DG>
-16.3340

> <Gold.Chemscore.ZeroCoef>
-5.4800

> <Gold.Chemscore.Hbond>
0.9574

> <Gold.Chemscore.Metal>
0.0000

> <Gold.Chemscore.Lipo>
113.4464

> <Gold.Chemscore.Internal_Hbond>
0.0000

> <Gold.Chemscore.DEClash>
0.0251

> <Gold.Chemscore.DEInternal>
0.5578

> <Gold.Chemscore.Rot>
2.1941

> <Gold.Chemscore.Internal.Correction>
   9.000000E+99

> <Gold.Chemscore.Hbonds>
donor molecule, donor type, donor heavy atom, donor atom, acceptor molecule, acceptor atom, score
      P1  H  7997  8009       L1     2  0.83

> <Gold.Chemscore.Hbond.Weighted>
-3.1976

> <Gold.Chemscore.Metal.Weighted>
-0.0000

> <Gold.Chemscore.Lipo.Weighted>
-13.2732

> <Gold.Chemscore.Internal_Hbond.Weighted>
0.0000

> <Gold.Chemscore.DEClash.Weighted>
0.0251

> <Gold.Chemscore.DEInternal.Weighted>
0.5578

> <Gold.Chemscore.Rot.Weighted>
5.6169

> <Gold.Chemscore.Internal.Correction.Weighted>
   9.000000E+99

> <Gold.Protein.RotatedTorsions>
[ 6907 6896 6895 6894 ] final  -55.88 input  -60.11 | X-H torsion
[ 7974 7965 7964 7962 ] final  -73.55 input  175.53 | X-H torsion
[ 8008 7997 7996 7995 ] final -158.81 input   59.86 | X-H torsion
[ 10167 10162 10161 10158 ] final  -68.98 input  -65.29 | X-H torsion
[ 10718 10713 10712 10709 ] final  -87.76 input   66.30 | X-H torsion
[ 10763 10752 10751 10750 ] final -149.74 input  -60.55 | X-H torsion
[ 11005 11000 10999 10996 ] final  -52.26 input  -57.11 | X-H torsion

> <Gold.Protein.ActiveResidues>
 VAL166  LYS551  ARG553  GLY616  TRP617  ASP618  TYR619  PRO620  LYS621  CYS622 
 ASP623  PHE694  ASN695  SER759  ASP760  ASP761  ALA762  ILE779  LEU786  VAL792 
 PHE793  MET794  SER795  GLU796  ALA797  LYS798  CYS799  TRP800  GLU811  SER814 

> <Gold.Protein.RotatedAtoms>
  150.8214  134.7423  159.6775 H   0  0  0  0  0  0  0  0  0  0  0  0  # atno 6907 bound_to 6896
  152.4329  134.5739  159.9939 H   0  0  0  0  0  0  0  0  0  0  0  0  # atno 6908 bound_to 6896
  151.5923  133.3328  159.3066 H   0  0  0  0  0  0  0  0  0  0  0  0  # atno 6909 bound_to 6896
  145.6507  140.9283  143.0986 H   0  0  0  0  0  0  0  0  0  0  0  0  # atno 7974 bound_to 7965
  155.7531  140.0829  157.2191 H   0  0  0  0  0  0  0  0  0  0  0  0  # atno 8008 bound_to 7997
  154.4010  140.1556  156.2803 H   0  0  0  0  0  0  0  0  0  0  0  0  # atno 8009 bound_to 7997
  155.8911  140.3415  155.5960 H   0  0  0  0  0  0  0  0  0  0  0  0  # atno 8010 bound_to 7997
  140.5466  143.2313  151.6991 H   0  0  0  0  0  0  0  0  0  0  0  0  # atno 10167 bound_to 10162
  155.9984  130.4811  150.4915 H   0  0  0  0  0  0  0  0  0  0  0  0  # atno 10718 bound_to 10713
  154.8160  135.3301  154.7175 H   0  0  0  0  0  0  0  0  0  0  0  0  # atno 10763 bound_to 10752
  153.7816  135.6918  153.4892 H   0  0  0  0  0  0  0  0  0  0  0  0  # atno 10764 bound_to 10752
  153.1976  135.4528  155.0175 H   0  0  0  0  0  0  0  0  0  0  0  0  # atno 10765 bound_to 10752
  141.0915  133.6632  156.3998 H   0  0  0  0  0  0  0  0  0  0  0  0  # atno 11005 bound_to 11000
  144.7124  139.8322  143.7410 LP  0  0  0  0  0  0  0  0  0  0  0  0  # atno 17320 bound_to 7965
  146.1206  139.4224  143.0230 LP  0  0  0  0  0  0  0  0  0  0  0  0  # atno 17321 bound_to 7965
  139.5010  144.3885  152.0303 LP  0  0  0  0  0  0  0  0  0  0  0  0  # atno 17342 bound_to 10162
  140.2999  144.3659  150.6063 LP  0  0  0  0  0  0  0  0  0  0  0  0  # atno 17343 bound_to 10162
  157.2910  131.0626  151.2134 LP  0  0  0  0  0  0  0  0  0  0  0  0  # atno 17370 bound_to 10713
  157.3147  130.6907  149.6235 LP  0  0  0  0  0  0  0  0  0  0  0  0  # atno 17371 bound_to 10713
  140.5241  134.6276  157.5328 LP  0  0  0  0  0  0  0  0  0  0  0  0  # atno 17394 bound_to 11000
  139.9742  134.7243  155.9982 LP  0  0  0  0  0  0  0  0  0  0  0  0  # atno 17395 bound_to 11000

$$$$
