AV-unprocessed.smi:684|AV-procd|sdf|3332|dock1
  -GOLD-   22720 0303D 1   1.00000     0.00000
 Structure written by MMmdl.
 40 41  0  0  0  0  0  0  0  0  1 V2000
  144.1420  133.1020  149.7451 C   0  0  0  0  0  0  0  0  0  0  0  0
  144.4112  131.7876  150.4866 C   0  0  0  0  0  0  0  0  0  0  0  0
  145.5796  131.8853  151.3442 N   0  0  0  0  0  0  0  0  0  0  0  0
  146.1308  133.0993  151.5590 N   0  0  0  0  0  0  0  0  0  0  0  0
  147.1578  132.8512  152.3570 C   0  0  0  0  0  0  0  0  0  0  0  0
  148.0630  133.8106  152.8780 N   0  0  0  0  0  0  0  0  0  0  0  0
  148.6951  133.7825  154.0637 C   0  0  0  0  0  0  0  0  0  0  0  0
  148.5772  132.8952  154.9096 O   0  0  0  0  0  0  0  0  0  0  0  0
  149.4786  134.8598  154.2208 N   0  0  0  0  0  0  0  0  0  0  0  0
  150.3041  135.1465  155.3910 C   0  0  0  0  0  0  0  0  0  0  0  0
  151.2671  136.3290  155.1539 C   0  0  0  0  0  0  0  0  0  0  0  0
  152.0987  136.6113  156.4138 C   0  0  0  0  0  0  0  0  0  0  0  0
  150.5433  137.6057  154.6919 C   0  0  0  0  0  0  0  0  0  0  0  0
  147.2985  131.4740  152.6763 C   0  0  0  0  0  0  0  0  0  0  0  0
  146.2683  130.8788  152.0020 C   0  0  0  0  0  0  0  0  0  0  0  0
  145.8662  129.4411  151.9225 C   0  0  0  0  0  0  0  0  0  0  0  0
  146.5362  128.3869  152.7716 C   0  0  0  0  0  0  0  0  0  0  0  0
  146.7678  128.4174  151.2777 C   0  0  0  0  0  0  0  0  0  0  0  0
  143.2648  133.0130  149.1045 H   0  0  0  0  0  0  0  0  0  0  0  0
  144.9873  133.3807  149.1153 H   0  0  0  0  0  0  0  0  0  0  0  0
  143.9618  133.9188  150.4449 H   0  0  0  0  0  0  0  0  0  0  0  0
  143.5481  131.5160  151.0965 H   0  0  0  0  0  0  0  0  0  0  0  0
  144.5569  130.9746  149.7750 H   0  0  0  0  0  0  0  0  0  0  0  0
  148.2492  134.6044  152.2836 H   0  0  0  0  0  0  0  0  0  0  0  0
  149.5077  135.5362  153.4721 H   0  0  0  0  0  0  0  0  0  0  0  0
  149.6878  135.3295  156.2731 H   0  0  0  0  0  0  0  0  0  0  0  0
  150.8783  134.2453  155.6080 H   0  0  0  0  0  0  0  0  0  0  0  0
  151.9633  136.0412  154.3647 H   0  0  0  0  0  0  0  0  0  0  0  0
  151.4641  136.9133  157.2475 H   0  0  0  0  0  0  0  0  0  0  0  0
  152.8199  137.4101  156.2380 H   0  0  0  0  0  0  0  0  0  0  0  0
  152.6579  135.7280  156.7235 H   0  0  0  0  0  0  0  0  0  0  0  0
  149.7939  137.9200  155.4192 H   0  0  0  0  0  0  0  0  0  0  0  0
  150.0401  137.4602  153.7362 H   0  0  0  0  0  0  0  0  0  0  0  0
  151.2459  138.4294  154.5618 H   0  0  0  0  0  0  0  0  0  0  0  0
  148.0394  130.9951  153.2990 H   0  0  0  0  0  0  0  0  0  0  0  0
  144.7943  129.3391  151.7645 H   0  0  0  0  0  0  0  0  0  0  0  0
  147.3636  128.6906  153.4099 H   0  0  0  0  0  0  0  0  0  0  0  0
  145.9110  127.5891  153.1673 H   0  0  0  0  0  0  0  0  0  0  0  0
  146.2960  127.6427  150.6769 H   0  0  0  0  0  0  0  0  0  0  0  0
  147.7430  128.7512  150.9281 H   0  0  0  0  0  0  0  0  0  0  0  0
  1  2  1  0  0  0  0
  1 19  1  0  0  0  0
  1 20  1  0  0  0  0
  1 21  1  0  0  0  0
  2  3  1  0  0  0  0
  2 22  1  0  0  0  0
  2 23  1  0  0  0  0
  3 15  1  0  0  0  0
  3  4  1  0  0  0  0
  4  5  2  0  0  0  0
  5  6  1  0  0  0  0
  5 14  1  0  0  0  0
  6  7  1  0  0  0  0
  6 24  1  0  0  0  0
  7  8  2  0  0  0  0
  7  9  1  0  0  0  0
  9 10  1  0  0  0  0
  9 25  1  0  0  0  0
 10 11  1  0  0  0  0
 10 26  1  0  0  0  0
 10 27  1  0  0  0  0
 11 12  1  0  0  0  0
 11 13  1  0  0  0  0
 11 28  1  0  0  0  0
 12 29  1  0  0  0  0
 12 30  1  0  0  0  0
 12 31  1  0  0  0  0
 13 32  1  0  0  0  0
 13 33  1  0  0  0  0
 13 34  1  0  0  0  0
 14 15  2  0  0  0  0
 14 35  1  0  0  0  0
 15 16  1  0  0  0  0
 16 18  1  0  0  0  0
 16 17  1  0  0  0  0
 16 36  1  0  0  0  0
 17 18  1  0  0  0  0
 17 37  1  0  0  0  0
 17 38  1  0  0  0  0
 18 39  1  0  0  0  0
 18 40  1  0  0  0  0
M  END
> <s_m_source_file>
AV-unprocessed.smi

> <i_m_source_file_index>
684

> <i_lp_mmshare_version>
43012

> <i_f3d_flags>
0

> <s_epik_input>
W0NIMl0xW0NIMl1bQ0hdMWMyW2NIXWMobm4yW0NIMl1bQ0gzXSlbTkhdQyg9TylbTkhdW0NIMl1bQ0hdKFtDSDNdKVtDSDNd

> <s_epik_cmdline>
J2VwaWtfcHl0aG9uJywgJy1waCcsICc3LjAnLCAnLXRuJywgJzgnLCAnLW1hJywgJzIwMCcsICctbWV0YWxfYmluZGluZycsICctaW1hZScsICc8aW5maWxlLm1hZT4nLCAnLW9tYWUnLCAnPG91dGZpbGUubWFlPic=

> <r_lp_tautomer_probability>
1

> <r_epik_Ionization_Penalty>
4.15598e-05

> <r_epik_Ionization_Penalty_Charging>
0

> <r_epik_Ionization_Penalty_Neutral>
4.15598e-05

> <r_epik_State_Penalty>
-0

> <r_epik_Charging_Adjusted_Penalty>
0

> <i_epik_Tot_Q>
0

> <i_epik_Tot_abs_Q>
0

> <r_epik_Metal_State_Penalty>
-0

> <b_epik_Metal_Only>
0

> <s_lp_Force_Field>
OPLS_2005

> <r_lp_Energy>
10.212

> <b_lp_Chiralities_Consistent>
1

> <s_lp_Variant>
AV-unprocessed.smi:684-1

> <Gold.Version>
5.8.1

> <Gold.Id.Protein>
6NUR|6NUR_protein|mol2

> <Gold.PLP.Fitness>
39.8573

> <Gold.PLP.PLP>
-34.5263

> <Gold.PLP.part.hbond>
-2.0000

> <Gold.PLP.part.metal>
0.0000

> <Gold.PLP.part.buried>
-3.8016

> <Gold.PLP.part.nonpolar>
-28.2451

> <Gold.PLP.part.repulsive>
0.1806

> <Gold.PLP.ligand.clash>
0.0000

> <Gold.PLP.ligand.torsion>
0.4501

> <Gold.PLP.Chemscore.Hbond>
2.0000

> <Gold.PLP.Chemscore.CHOScore>
0.0000

> <Gold.PLP.Chemscore.Metal>
0.0000

> <Gold.Chemscore.Hbonds>
donor molecule, donor type, donor heavy atom, donor atom, acceptor molecule, acceptor atom, score
      L1  H     6    24       P1  7948  0.85
      L1  H     9    25       P1  7948  0.85

> <Gold.PLP.Chemscore.Internal.Correction>
0.2311

> <Gold.Rescore>
     Score         DG    S(hbond)    S(metal)    S(lipo)     H(rot)  DE(clash)    DE(int)     intcor
     15.23     -16.90       1.70        0.00      80.75       1.45       0.05       1.62       ----

> <Gold.Chemscore.Fitness>
15.2343

> <Gold.Chemscore.DG>
-16.9019

> <Gold.Chemscore.ZeroCoef>
-5.4800

> <Gold.Chemscore.Hbond>
1.6987

> <Gold.Chemscore.Metal>
0.0000

> <Gold.Chemscore.Lipo>
80.7523

> <Gold.Chemscore.Internal_Hbond>
0.0000

> <Gold.Chemscore.DEClash>
0.0524

> <Gold.Chemscore.DEInternal>
1.6152

> <Gold.Chemscore.Rot>
1.4452

> <Gold.Chemscore.Internal.Correction>
   9.000000E+99

> <Gold.Chemscore.Hbonds>
donor molecule, donor type, donor heavy atom, donor atom, acceptor molecule, acceptor atom, score
      L1  H     6    24       P1  7948  0.14
      L1  H     9    25       P1  7948  0.14

> <Gold.Chemscore.Hbond.Weighted>
-5.6737

> <Gold.Chemscore.Metal.Weighted>
-0.0000

> <Gold.Chemscore.Lipo.Weighted>
-9.4480

> <Gold.Chemscore.Internal_Hbond.Weighted>
0.0000

> <Gold.Chemscore.DEClash.Weighted>
0.0524

> <Gold.Chemscore.DEInternal.Weighted>
1.6152

> <Gold.Chemscore.Rot.Weighted>
3.6998

> <Gold.Chemscore.Internal.Correction.Weighted>
   9.000000E+99

> <Gold.Protein.RotatedTorsions>
[ 6907 6896 6895 6894 ] final    3.50 input  -60.11 | X-H torsion
[ 7974 7965 7964 7962 ] final -141.70 input  175.53 | X-H torsion
[ 8008 7997 7996 7995 ] final  116.21 input   59.86 | X-H torsion
[ 10167 10162 10161 10158 ] final  -54.53 input  -65.29 | X-H torsion
[ 10718 10713 10712 10709 ] final  111.33 input   66.30 | X-H torsion
[ 10763 10752 10751 10750 ] final -145.28 input  -60.55 | X-H torsion
[ 11005 11000 10999 10996 ] final  166.53 input  -57.11 | X-H torsion

> <Gold.Protein.ActiveResidues>
 VAL166  LYS551  ARG553  GLY616  TRP617  ASP618  TYR619  PRO620  LYS621  CYS622 
 ASP623  PHE694  ASN695  SER759  ASP760  ASP761  ALA762  ILE779  LEU786  VAL792 
 PHE793  MET794  SER795  GLU796  ALA797  LYS798  CYS799  TRP800  GLU811  SER814 

> <Gold.Protein.RotatedAtoms>
  151.6260  135.1027  160.0111 H   0  0  0  0  0  0  0  0  0  0  0  0  # atno 6907 bound_to 6896
  152.4132  133.6992  159.6424 H   0  0  0  0  0  0  0  0  0  0  0  0  # atno 6908 bound_to 6896
  150.8021  133.8504  159.3244 H   0  0  0  0  0  0  0  0  0  0  0  0  # atno 6909 bound_to 6896
  144.8499  140.6048  143.5397 H   0  0  0  0  0  0  0  0  0  0  0  0  # atno 7974 bound_to 7965
  156.2426  140.2922  156.0488 H   0  0  0  0  0  0  0  0  0  0  0  0  # atno 8008 bound_to 7997
  155.1904  140.0406  157.2916 H   0  0  0  0  0  0  0  0  0  0  0  0  # atno 8009 bound_to 7997
  154.6198  140.2473  155.7570 H   0  0  0  0  0  0  0  0  0  0  0  0  # atno 8010 bound_to 7997
  140.6425  143.2516  151.4949 H   0  0  0  0  0  0  0  0  0  0  0  0  # atno 10167 bound_to 10162
  157.6450  131.0949  150.6733 H   0  0  0  0  0  0  0  0  0  0  0  0  # atno 10718 bound_to 10713
  154.8390  135.3417  154.6479 H   0  0  0  0  0  0  0  0  0  0  0  0  # atno 10763 bound_to 10752
  153.7092  135.6965  153.5046 H   0  0  0  0  0  0  0  0  0  0  0  0  # atno 10764 bound_to 10752
  153.2465  135.4367  155.0706 H   0  0  0  0  0  0  0  0  0  0  0  0  # atno 10765 bound_to 10752
  140.2674  134.7854  157.3644 H   0  0  0  0  0  0  0  0  0  0  0  0  # atno 11005 bound_to 11000
  145.4520  139.1522  143.3913 LP  0  0  0  0  0  0  0  0  0  0  0  0  # atno 17320 bound_to 7965
  146.2776  140.4647  142.8789 LP  0  0  0  0  0  0  0  0  0  0  0  0  # atno 17321 bound_to 7965
  139.5635  144.2099  152.1728 LP  0  0  0  0  0  0  0  0  0  0  0  0  # atno 17342 bound_to 10162
  140.1374  144.5233  150.6765 LP  0  0  0  0  0  0  0  0  0  0  0  0  # atno 17343 bound_to 10162
  156.7051  130.4635  149.5562 LP  0  0  0  0  0  0  0  0  0  0  0  0  # atno 17370 bound_to 10713
  156.1768  130.6473  151.0904 LP  0  0  0  0  0  0  0  0  0  0  0  0  # atno 17371 bound_to 10713
  140.1406  134.4977  155.8034 LP  0  0  0  0  0  0  0  0  0  0  0  0  # atno 17394 bound_to 11000
  141.2182  133.6824  156.7203 LP  0  0  0  0  0  0  0  0  0  0  0  0  # atno 17395 bound_to 11000

$$$$
