AV-unprocessed.smi:1858|AV-procd|sdf|7542|dock5
  -GOLD-   22720 9253D 1   1.00000     0.00000
 Structure written by MMmdl.
 48 49  0  0  0  0  0  0  0  0  1 V2000
  143.9012  133.0454  148.6950 C   0  0  0  0  0  0  0  0  0  0  0  0
  144.7872  132.6672  149.7846 N   0  0  0  0  0  0  0  0  0  0  0  0
  145.4480  133.5354  150.5708 C   0  0  0  0  0  0  0  0  0  0  0  0
  145.3323  134.7532  150.4285 O   0  0  0  0  0  0  0  0  0  0  0  0
  146.3097  132.9014  151.5727 C   0  0  0  0  0  0  0  0  0  0  0  0
  146.1256  131.4981  151.8869 C   0  0  0  0  0  0  0  0  0  0  0  0
  146.8700  130.9015  152.8391 C   0  0  0  0  0  0  0  0  0  0  0  0
  147.8914  131.6352  153.5933 C   0  0  0  0  0  0  0  0  0  0  0  0
  148.5528  131.1024  154.4843 O   0  0  0  0  0  0  0  0  0  0  0  0
  148.0574  132.9464  153.2438 N   0  0  0  0  0  0  0  0  0  0  0  0
  149.0202  133.8143  153.9387 C   0  0  0  0  0  0  0  0  0  0  0  0
  148.2871  134.8931  154.7411 C   0  0  0  0  0  0  0  0  0  0  0  0
  147.6652  134.5957  155.7603 O   0  0  0  0  0  0  0  0  0  0  0  0
  148.3583  136.1386  154.2473 N   0  0  0  0  0  0  0  0  0  0  0  0
  147.6401  137.3087  154.7449 C   0  0  0  0  0  0  0  0  0  0  0  0
  146.2987  137.5024  153.9933 C   0  0  0  0  0  0  0  0  0  0  0  0
  146.3595  137.6431  152.4591 C   0  0  0  0  0  0  0  0  0  0  0  0
  147.1022  138.8738  151.9079 C   0  0  0  0  0  0  0  0  0  0  0  0
  146.7529  140.2093  152.5957 C   0  0  0  0  0  0  0  0  0  0  0  0
  147.8015  140.7124  153.6095 C   0  0  0  0  0  0  0  0  0  0  0  0
  147.9587  139.9049  154.9155 C   0  0  0  0  0  0  0  0  0  0  0  0
  148.6043  138.5167  154.7321 C   0  0  0  0  0  0  0  0  0  0  0  0
  147.2731  133.5632  152.2486 C   0  0  0  0  0  0  0  0  0  0  0  0
  143.5118  132.1518  148.2072 H   0  0  0  0  0  0  0  0  0  0  0  0
  144.4343  133.6351  147.9484 H   0  0  0  0  0  0  0  0  0  0  0  0
  143.0571  133.6289  149.0646 H   0  0  0  0  0  0  0  0  0  0  0  0
  144.9240  131.6797  149.9446 H   0  0  0  0  0  0  0  0  0  0  0  0
  145.3858  130.9126  151.3599 H   0  0  0  0  0  0  0  0  0  0  0  0
  146.7104  129.8551  153.0543 H   0  0  0  0  0  0  0  0  0  0  0  0
  149.6713  133.2552  154.6125 H   0  0  0  0  0  0  0  0  0  0  0  0
  149.6907  134.2756  153.2113 H   0  0  0  0  0  0  0  0  0  0  0  0
  148.9116  136.2770  153.4145 H   0  0  0  0  0  0  0  0  0  0  0  0
  147.3870  137.1245  155.7906 H   0  0  0  0  0  0  0  0  0  0  0  0
  145.6665  136.6404  154.2088 H   0  0  0  0  0  0  0  0  0  0  0  0
  145.7448  138.3361  154.4210 H   0  0  0  0  0  0  0  0  0  0  0  0
  146.7858  136.7417  152.0204 H   0  0  0  0  0  0  0  0  0  0  0  0
  145.3325  137.6803  152.0941 H   0  0  0  0  0  0  0  0  0  0  0  0
  148.1783  138.7086  151.9112 H   0  0  0  0  0  0  0  0  0  0  0  0
  146.8455  138.9545  150.8509 H   0  0  0  0  0  0  0  0  0  0  0  0
  146.6790  140.9681  151.8156 H   0  0  0  0  0  0  0  0  0  0  0  0
  145.7606  140.1749  153.0458 H   0  0  0  0  0  0  0  0  0  0  0  0
  148.7705  140.7977  153.1160 H   0  0  0  0  0  0  0  0  0  0  0  0
  147.5295  141.7322  153.8841 H   0  0  0  0  0  0  0  0  0  0  0  0
  148.6162  140.4851  155.5640 H   0  0  0  0  0  0  0  0  0  0  0  0
  147.0172  139.8433  155.4605 H   0  0  0  0  0  0  0  0  0  0  0  0
  149.3138  138.3656  155.5469 H   0  0  0  0  0  0  0  0  0  0  0  0
  149.2248  138.5144  153.8366 H   0  0  0  0  0  0  0  0  0  0  0  0
  147.5037  134.6094  152.1059 H   0  0  0  0  0  0  0  0  0  0  0  0
  1  2  1  0  0  0  0
  1 24  1  0  0  0  0
  1 25  1  0  0  0  0
  1 26  1  0  0  0  0
  2  3  1  0  0  0  0
  2 27  1  0  0  0  0
  3  4  2  0  0  0  0
  3  5  1  0  0  0  0
  5 23  2  0  0  0  0
  5  6  1  0  0  0  0
  6  7  2  0  0  0  0
  6 28  1  0  0  0  0
  7  8  1  0  0  0  0
  7 29  1  0  0  0  0
  8  9  2  0  0  0  0
  8 10  1  0  0  0  0
 10 11  1  0  0  0  0
 10 23  1  0  0  0  0
 11 12  1  0  0  0  0
 11 30  1  0  0  0  0
 11 31  1  0  0  0  0
 12 13  2  0  0  0  0
 12 14  1  0  0  0  0
 14 15  1  0  0  0  0
 14 32  1  0  0  0  0
 15 22  1  0  0  0  0
 15 16  1  0  0  0  0
 15 33  1  0  0  0  0
 16 17  1  0  0  0  0
 16 34  1  0  0  0  0
 16 35  1  0  0  0  0
 17 18  1  0  0  0  0
 17 36  1  0  0  0  0
 17 37  1  0  0  0  0
 18 19  1  0  0  0  0
 18 38  1  0  0  0  0
 18 39  1  0  0  0  0
 19 20  1  0  0  0  0
 19 40  1  0  0  0  0
 19 41  1  0  0  0  0
 20 21  1  0  0  0  0
 20 42  1  0  0  0  0
 20 43  1  0  0  0  0
 21 22  1  0  0  0  0
 21 44  1  0  0  0  0
 21 45  1  0  0  0  0
 22 46  1  0  0  0  0
 22 47  1  0  0  0  0
 23 48  1  0  0  0  0
M  END
> <s_m_source_file>
AV-unprocessed.smi

> <i_m_source_file_index>
1858

> <i_lp_mmshare_version>
43012

> <i_f3d_flags>
0

> <s_epik_input>
W0NIM11bTkhdQyg9TyljMVtjSF1bY0hdYyg9TyluKFtjSF0xKVtDSDJdQyg9TylbTkhdW0NIXTJbQ0gyXVtDSDJdW0NIMl1bQ0gyXVtDSDJdW0NIMl1bQ0gyXTI=

> <s_epik_cmdline>
J2VwaWtfcHl0aG9uJywgJy1waCcsICc3LjAnLCAnLXRuJywgJzgnLCAnLW1hJywgJzIwMCcsICctbWV0YWxfYmluZGluZycsICctaW1hZScsICc8aW5maWxlLm1hZT4nLCAnLW9tYWUnLCAnPG91dGZpbGUubWFlPic=

> <r_lp_tautomer_probability>
1

> <r_epik_Ionization_Penalty>
3.70383e-07

> <r_epik_Ionization_Penalty_Charging>
5.00098e-08

> <r_epik_Ionization_Penalty_Neutral>
3.20374e-07

> <r_epik_State_Penalty>
-0

> <r_epik_Charging_Adjusted_Penalty>
5.00098e-08

> <i_epik_Tot_Q>
0

> <i_epik_Tot_abs_Q>
0

> <r_epik_Metal_State_Penalty>
-0

> <b_epik_Metal_Only>
0

> <s_lp_Force_Field>
OPLS_2005

> <r_lp_Energy>
33.6896

> <b_lp_Chiralities_Consistent>
1

> <s_lp_Variant>
AV-unprocessed.smi:1858-1

> <Gold.Version>
5.8.1

> <Gold.Id.Protein>
6NUR|6NUR_protein|mol2

> <Gold.PLP.Fitness>
37.9964

> <Gold.PLP.PLP>
-33.1838

> <Gold.PLP.part.hbond>
-0.7848

> <Gold.PLP.part.metal>
0.0000

> <Gold.PLP.part.buried>
1.1724

> <Gold.PLP.part.nonpolar>
-34.3698

> <Gold.PLP.part.repulsive>
0.8656

> <Gold.PLP.ligand.clash>
0.0000

> <Gold.PLP.ligand.torsion>
0.5875

> <Gold.PLP.Chemscore.Hbond>
0.9750

> <Gold.PLP.Chemscore.CHOScore>
1.0000

> <Gold.PLP.Chemscore.Metal>
0.0000

> <Gold.Chemscore.Hbonds>
donor molecule, donor type, donor heavy atom, donor atom, acceptor molecule, acceptor atom, score
      L1  H    14    32       P1  7948  0.96
      L1  C    23    48       P1  7948  1.00

> <Gold.PLP.Chemscore.Internal.Correction>
0.0626

> <Gold.Rescore>
     Score         DG    S(hbond)    S(metal)    S(lipo)     H(rot)  DE(clash)    DE(int)     intcor
     12.80     -13.47       0.97        0.00      73.02       1.48       0.09       0.58       ----

> <Gold.Chemscore.Fitness>
12.8003

> <Gold.Chemscore.DG>
-13.4666

> <Gold.Chemscore.ZeroCoef>
-5.4800

> <Gold.Chemscore.Hbond>
0.9685

> <Gold.Chemscore.Metal>
0.0000

> <Gold.Chemscore.Lipo>
73.0236

> <Gold.Chemscore.Internal_Hbond>
0.0000

> <Gold.Chemscore.DEClash>
0.0909

> <Gold.Chemscore.DEInternal>
0.5754

> <Gold.Chemscore.Rot>
1.4812

> <Gold.Chemscore.Internal.Correction>
   9.000000E+99

> <Gold.Chemscore.Hbonds>
donor molecule, donor type, donor heavy atom, donor atom, acceptor molecule, acceptor atom, score
      L1  H    14    32       P1  7948  0.87

> <Gold.Chemscore.Hbond.Weighted>
-3.2348

> <Gold.Chemscore.Metal.Weighted>
-0.0000

> <Gold.Chemscore.Lipo.Weighted>
-8.5438

> <Gold.Chemscore.Internal_Hbond.Weighted>
0.0000

> <Gold.Chemscore.DEClash.Weighted>
0.0909

> <Gold.Chemscore.DEInternal.Weighted>
0.5754

> <Gold.Chemscore.Rot.Weighted>
3.7920

> <Gold.Chemscore.Internal.Correction.Weighted>
   9.000000E+99

> <Gold.Protein.RotatedTorsions>
[ 6907 6896 6895 6894 ] final  161.48 input  -60.11 | X-H torsion
[ 7974 7965 7964 7962 ] final   72.36 input  175.53 | X-H torsion
[ 8008 7997 7996 7995 ] final  -78.54 input   59.86 | X-H torsion
[ 10167 10162 10161 10158 ] final  -31.13 input  -65.29 | X-H torsion
[ 10718 10713 10712 10709 ] final   83.63 input   66.30 | X-H torsion
[ 10763 10752 10751 10750 ] final  -63.51 input  -60.55 | X-H torsion
[ 11005 11000 10999 10996 ] final -155.58 input  -57.11 | X-H torsion

> <Gold.Protein.ActiveResidues>
 VAL166  LYS551  ARG553  GLY616  TRP617  ASP618  TYR619  PRO620  LYS621  CYS622 
 ASP623  PHE694  ASN695  SER759  ASP760  ASP761  ALA762  ILE779  LEU786  VAL792 
 PHE793  MET794  SER795  GLU796  ALA797  LYS798  CYS799  TRP800  GLU811  SER814 

> <Gold.Protein.RotatedAtoms>
  151.9549  133.3677  159.4013 H   0  0  0  0  0  0  0  0  0  0  0  0  # atno 6907 bound_to 6896
  150.6974  134.4301  159.5254 H   0  0  0  0  0  0  0  0  0  0  0  0  # atno 6908 bound_to 6896
  152.1980  134.8613  160.0561 H   0  0  0  0  0  0  0  0  0  0  0  0  # atno 6909 bound_to 6896
  145.7544  139.2773  143.1413 H   0  0  0  0  0  0  0  0  0  0  0  0  # atno 7974 bound_to 7965
  154.5699  140.0692  156.8948 H   0  0  0  0  0  0  0  0  0  0  0  0  # atno 8008 bound_to 7997
  155.2654  140.3361  155.4251 H   0  0  0  0  0  0  0  0  0  0  0  0  # atno 8009 bound_to 7997
  156.2110  140.1759  156.7680 H   0  0  0  0  0  0  0  0  0  0  0  0  # atno 8010 bound_to 7997
  140.7240  143.3795  151.1628 H   0  0  0  0  0  0  0  0  0  0  0  0  # atno 10167 bound_to 10162
  157.6882  131.0099  150.2552 H   0  0  0  0  0  0  0  0  0  0  0  0  # atno 10718 bound_to 10713
  154.3161  135.6206  153.5487 H   0  0  0  0  0  0  0  0  0  0  0  0  # atno 10763 bound_to 10752
  152.9824  135.5713  154.5122 H   0  0  0  0  0  0  0  0  0  0  0  0  # atno 10764 bound_to 10752
  154.4782  135.2862  155.1568 H   0  0  0  0  0  0  0  0  0  0  0  0  # atno 10765 bound_to 10752
  140.6849  134.4104  157.5224 H   0  0  0  0  0  0  0  0  0  0  0  0  # atno 11005 bound_to 11000
  146.0325  140.8244  142.9869 LP  0  0  0  0  0  0  0  0  0  0  0  0  # atno 17320 bound_to 7965
  144.6843  140.2790  143.7295 LP  0  0  0  0  0  0  0  0  0  0  0  0  # atno 17321 bound_to 7965
  139.7381  143.8967  152.3041 LP  0  0  0  0  0  0  0  0  0  0  0  0  # atno 17342 bound_to 10162
  139.8779  144.7033  150.8912 LP  0  0  0  0  0  0  0  0  0  0  0  0  # atno 17343 bound_to 10162
  156.3141  130.3776  149.7634 LP  0  0  0  0  0  0  0  0  0  0  0  0  # atno 17370 bound_to 10713
  156.5225  130.8221  151.3209 LP  0  0  0  0  0  0  0  0  0  0  0  0  # atno 17371 bound_to 10713
  139.8940  134.8716  156.2195 LP  0  0  0  0  0  0  0  0  0  0  0  0  # atno 17394 bound_to 11000
  141.0288  133.7000  156.1394 LP  0  0  0  0  0  0  0  0  0  0  0  0  # atno 17395 bound_to 11000

$$$$
