AV-unprocessed.smi:137|AV-procd|sdf|1176|dock5
  -GOLD-   2262018323D 1   1.00000     0.00000
 Structure written by MMmdl.
 51 54  0  0  0  0  0  0  0  0  1 V2000
  154.1760  130.1301  154.1675 C   0  0  0  0  0  0  0  0  0  0  0  0
  152.9433  130.5384  154.9887 C   0  0  1  0  0  0  0  0  0  0  0  0
  151.9428  129.3614  155.0459 C   0  0  0  0  0  0  0  0  0  0  0  0
  150.5821  129.7957  155.3613 N   0  0  0  0  0  0  0  0  0  0  0  0
  149.6519  129.7969  154.3621 C   0  0  0  0  0  0  0  0  0  0  0  0
  149.4439  128.6475  153.6631 N   0  0  0  0  0  0  0  0  0  0  0  0
  148.5531  128.5988  152.6699 C   0  0  0  0  0  0  0  0  0  0  0  0
  147.7611  129.5684  152.2143 N   0  0  0  0  0  0  0  0  0  0  0  0
  147.9470  130.7245  152.9116 C   0  0  0  0  0  0  0  0  0  0  0  0
  148.8651  130.9287  153.9839 C   0  0  0  0  0  0  0  0  0  0  0  0
  148.7655  132.2431  154.4289 N   0  0  0  0  0  0  0  0  0  0  0  0
  147.8603  132.7831  153.6610 C   0  0  0  0  0  0  0  0  0  0  0  0
  147.2935  131.9326  152.7408 N   0  0  0  0  0  0  0  0  0  0  0  0
  146.3076  132.2669  151.7550 C   0  0  0  0  0  0  0  0  0  0  0  0
  145.4919  133.5587  151.8511 C   0  0  0  0  0  0  0  0  0  0  0  0
  144.2930  132.8403  151.1901 C   0  0  0  0  0  0  0  0  0  0  0  0
  142.9149  133.1548  151.7951 C   0  0  0  0  0  0  0  0  0  0  0  0
  141.9791  132.1393  151.4944 O   0  0  0  0  0  0  0  0  0  0  0  0
  144.2127  132.9672  149.6552 C   0  0  0  0  0  0  0  0  0  0  0  0
  143.2589  132.0765  149.1133 O   0  0  0  0  0  0  0  0  0  0  0  0
  144.9581  131.5461  151.7077 C   0  0  0  0  0  0  0  0  0  0  0  0
  150.1099  129.7824  156.7501 C   0  0  0  0  0  0  0  0  0  0  0  0
  151.1639  130.1743  157.7983 C   0  0  0  0  0  0  0  0  0  0  0  0
  151.9646  131.7759  157.3099 S   0  0  1  0  0  0  0  0  0  0  0  0
  152.5339  132.3979  158.5862 O   0  0  0  0  0  0  0  0  0  0  0  0
  153.3947  131.0475  156.3735 C   0  0  0  0  0  0  0  0  0  0  0  0
  154.7040  129.2974  154.6333 H   0  0  0  0  0  0  0  0  0  0  0  0
  154.8783  130.9585  154.0708 H   0  0  0  0  0  0  0  0  0  0  0  0
  153.8946  129.8241  153.1595 H   0  0  0  0  0  0  0  0  0  0  0  0
  152.4755  131.3711  154.4625 H   0  0  0  0  0  0  0  0  0  0  0  0
  151.9410  128.8200  154.0996 H   0  0  0  0  0  0  0  0  0  0  0  0
  152.2735  128.6265  155.7800 H   0  0  0  0  0  0  0  0  0  0  0  0
  148.4611  127.6461  152.1697 H   0  0  0  0  0  0  0  0  0  0  0  0
  147.5754  133.8212  153.7528 H   0  0  0  0  0  0  0  0  0  0  0  0
  146.8142  132.2019  150.7906 H   0  0  0  0  0  0  0  0  0  0  0  0
  145.2950  133.8515  152.8843 H   0  0  0  0  0  0  0  0  0  0  0  0
  145.9036  134.3935  151.2831 H   0  0  0  0  0  0  0  0  0  0  0  0
  142.9786  133.2357  152.8805 H   0  0  0  0  0  0  0  0  0  0  0  0
  142.5285  134.1106  151.4407 H   0  0  0  0  0  0  0  0  0  0  0  0
  141.5724  132.3413  150.6655 H   0  0  0  0  0  0  0  0  0  0  0  0
  143.9319  133.9771  149.3562 H   0  0  0  0  0  0  0  0  0  0  0  0
  145.1782  132.7734  149.1873 H   0  0  0  0  0  0  0  0  0  0  0  0
  142.4187  132.5090  149.1003 H   0  0  0  0  0  0  0  0  0  0  0  0
  144.9194  130.7032  151.0171 H   0  0  0  0  0  0  0  0  0  0  0  0
  144.6070  131.2537  152.6992 H   0  0  0  0  0  0  0  0  0  0  0  0
  149.2775  130.4817  156.8424 H   0  0  0  0  0  0  0  0  0  0  0  0
  149.7158  128.7928  156.9840 H   0  0  0  0  0  0  0  0  0  0  0  0
  150.6714  130.3124  158.7608 H   0  0  0  0  0  0  0  0  0  0  0  0
  151.9147  129.3975  157.9409 H   0  0  0  0  0  0  0  0  0  0  0  0
  153.8726  130.2630  156.9606 H   0  0  0  0  0  0  0  0  0  0  0  0
  154.1326  131.8400  156.2455 H   0  0  0  0  0  0  0  0  0  0  0  0
  1  2  1  0  0  0  0
  1 27  1  0  0  0  0
  1 28  1  0  0  0  0
  1 29  1  0  0  0  0
  2 26  1  0  0  0  0
  2  3  1  0  0  0  0
  2 30  1  0  0  0  0
  3  4  1  0  0  0  0
  3 31  1  0  0  0  0
  3 32  1  0  0  0  0
  4  5  1  0  0  0  0
  4 22  1  0  0  0  0
  5 10  1  0  0  0  0
  5  6  2  0  0  0  0
  6  7  1  0  0  0  0
  7  8  2  0  0  0  0
  7 33  1  0  0  0  0
  8  9  1  0  0  0  0
  9 13  1  0  0  0  0
  9 10  2  0  0  0  0
 10 11  1  0  0  0  0
 11 12  2  0  0  0  0
 12 13  1  0  0  0  0
 12 34  1  0  0  0  0
 13 14  1  0  0  0  0
 14 21  1  0  0  0  0
 14 15  1  0  0  0  0
 14 35  1  0  0  0  0
 15 16  1  0  0  0  0
 15 36  1  0  0  0  0
 15 37  1  0  0  0  0
 16 17  1  0  0  0  0
 16 19  1  0  0  0  0
 16 21  1  0  0  0  0
 17 18  1  0  0  0  0
 17 38  1  0  0  0  0
 17 39  1  0  0  0  0
 18 40  1  0  0  0  0
 19 20  1  0  0  0  0
 19 41  1  0  0  0  0
 19 42  1  0  0  0  0
 20 43  1  0  0  0  0
 21 44  1  0  0  0  0
 21 45  1  0  0  0  0
 22 23  1  0  0  0  0
 22 46  1  0  0  0  0
 22 47  1  0  0  0  0
 23 24  1  0  0  0  0
 23 48  1  0  0  0  0
 23 49  1  0  0  0  0
 24 25  2  0  0  0  0
 24 26  1  0  0  0  0
 26 50  1  0  0  0  0
 26 51  1  0  0  0  0
M  END
> <s_m_source_file>
AV-unprocessed.smi

> <i_m_source_file_index>
137

> <i_lp_mmshare_version>
43012

> <i_f3d_flags>
0

> <s_epik_input>
Tz1bU0BAXShbQ0gyXTEpW0NIMl1bQ0gyXU4oW0NIMl1bQ0BIXTFbQ0gzXSljKG5bY0hdbjIpYyhjMjMpbltjSF1uM1tDSF0oW0NIMl00KVtDSDJdQzQoW0NIMl1bT0hdKVtDSDJdW09IXQ==

> <s_epik_cmdline>
J2VwaWtfcHl0aG9uJywgJy1waCcsICc3LjAnLCAnLXRuJywgJzgnLCAnLW1hJywgJzIwMCcsICctbWV0YWxfYmluZGluZycsICctaW1hZScsICc8aW5maWxlLm1hZT4nLCAnLW9tYWUnLCAnPG91dGZpbGUubWFlPic=

> <r_lp_tautomer_probability>
1

> <r_epik_Ionization_Penalty>
0.000811024

> <r_epik_Ionization_Penalty_Charging>
0

> <r_epik_Ionization_Penalty_Neutral>
0.000811024

> <r_epik_State_Penalty>
0.000429598

> <r_epik_Charging_Adjusted_Penalty>
0.000429598

> <i_epik_Tot_Q>
0

> <i_epik_Tot_abs_Q>
0

> <r_epik_Metal_State_Penalty>
-0

> <b_epik_Metal_Only>
0

> <s_lp_Force_Field>
OPLS_2005

> <r_lp_Energy>
40.014

> <b_lp_Chiralities_Consistent>
1

> <s_lp_Variant>
AV-unprocessed.smi:137-2

> <Gold.Version>
5.8.1

> <Gold.Id.Protein>
6NUR|6NUR_protein|mol2

> <Gold.PLP.Fitness>
51.4357

> <Gold.PLP.PLP>
-41.3150

> <Gold.PLP.part.hbond>
-4.3655

> <Gold.PLP.part.metal>
0.0000

> <Gold.PLP.part.buried>
-4.8697

> <Gold.PLP.part.nonpolar>
-32.6644

> <Gold.PLP.part.repulsive>
0.2418

> <Gold.PLP.ligand.clash>
0.0000

> <Gold.PLP.ligand.torsion>
1.5707

> <Gold.PLP.Chemscore.Hbond>
3.2435

> <Gold.PLP.Chemscore.CHOScore>
0.9798

> <Gold.PLP.Chemscore.Metal>
0.0000

> <Gold.Chemscore.Hbonds>
donor molecule, donor type, donor heavy atom, donor atom, acceptor molecule, acceptor atom, score
      L1  H    18    40       P1 10186  0.04
      L1  H    20    43       P1 10186  0.06
      P1  H  6896  6907       L1    25  0.59
      P1  H 10785 10796       L1    20  1.00

> <Gold.PLP.Chemscore.Internal.Correction>
0.5923

> <Gold.Rescore>
     Score         DG    S(hbond)    S(metal)    S(lipo)     H(rot)  DE(clash)    DE(int)     intcor
     13.84     -16.26       2.81        0.00      74.68       2.87       0.05       2.36       ----

> <Gold.Chemscore.Fitness>
13.8450

> <Gold.Chemscore.DG>
-16.2580

> <Gold.Chemscore.ZeroCoef>
-5.4800

> <Gold.Chemscore.Hbond>
2.8127

> <Gold.Chemscore.Metal>
0.0000

> <Gold.Chemscore.Lipo>
74.6754

> <Gold.Chemscore.Internal_Hbond>
0.0000

> <Gold.Chemscore.DEClash>
0.0482

> <Gold.Chemscore.DEInternal>
2.3648

> <Gold.Chemscore.Rot>
2.8725

> <Gold.Chemscore.Internal.Correction>
   9.000000E+99

> <Gold.Chemscore.Hbonds>
donor molecule, donor type, donor heavy atom, donor atom, acceptor molecule, acceptor atom, score
      L1  H    18    40       P1 10186  0.08
      L1  H    20    43       P1 10186  0.10
      P1  H  6896  6907       L1    25  0.58
      P1  H 10785 10796       L1    20  0.86

> <Gold.Chemscore.Hbond.Weighted>
-9.3945

> <Gold.Chemscore.Metal.Weighted>
-0.0000

> <Gold.Chemscore.Lipo.Weighted>
-8.7370

> <Gold.Chemscore.Internal_Hbond.Weighted>
0.0000

> <Gold.Chemscore.DEClash.Weighted>
0.0482

> <Gold.Chemscore.DEInternal.Weighted>
2.3648

> <Gold.Chemscore.Rot.Weighted>
7.3535

> <Gold.Chemscore.Internal.Correction.Weighted>
   9.000000E+99

> <Gold.Protein.RotatedTorsions>
[ 6907 6896 6895 6894 ] final  147.39 input  -60.11 | X-H torsion
[ 7974 7965 7964 7962 ] final  150.10 input  175.53 | X-H torsion
[ 8008 7997 7996 7995 ] final  161.84 input   59.86 | X-H torsion
[ 10167 10162 10161 10158 ] final    1.28 input  -65.29 | X-H torsion
[ 10718 10713 10712 10709 ] final  -49.14 input   66.30 | X-H torsion
[ 10763 10752 10751 10750 ] final  -42.34 input  -60.55 | X-H torsion
[ 11005 11000 10999 10996 ] final   15.05 input  -57.11 | X-H torsion

> <Gold.Protein.ActiveResidues>
 VAL166  LYS551  ARG553  GLY616  TRP617  ASP618  TYR619  PRO620  LYS621  CYS622 
 ASP623  PHE694  ASN695  SER759  ASP760  ASP761  ALA762  ILE779  LEU786  VAL792 
 PHE793  MET794  SER795  GLU796  ALA797  LYS798  CYS799  TRP800  GLU811  SER814 

> <Gold.Protein.RotatedAtoms>
  152.1554  133.4548  159.4834 H   0  0  0  0  0  0  0  0  0  0  0  0  # atno 6907 bound_to 6896
  150.6900  134.2137  159.4378 H   0  0  0  0  0  0  0  0  0  0  0  0  # atno 6908 bound_to 6896
  152.0036  134.9914  160.0616 H   0  0  0  0  0  0  0  0  0  0  0  0  # atno 6909 bound_to 6896
  144.8389  139.6365  143.6025 H   0  0  0  0  0  0  0  0  0  0  0  0  # atno 7974 bound_to 7965
  156.2074  140.1766  156.7769 H   0  0  0  0  0  0  0  0  0  0  0  0  # atno 8008 bound_to 7997
  154.5675  140.0688  156.8943 H   0  0  0  0  0  0  0  0  0  0  0  0  # atno 8009 bound_to 7997
  155.2734  140.3344  155.4266 H   0  0  0  0  0  0  0  0  0  0  0  0  # atno 8010 bound_to 7997
  140.6690  143.7101  150.7884 H   0  0  0  0  0  0  0  0  0  0  0  0  # atno 10167 bound_to 10162
  156.1921  130.4153  149.9357 H   0  0  0  0  0  0  0  0  0  0  0  0  # atno 10718 bound_to 10713
  153.9775  135.6721  153.4749 H   0  0  0  0  0  0  0  0  0  0  0  0  # atno 10763 bound_to 10752
  153.0764  135.4946  154.8409 H   0  0  0  0  0  0  0  0  0  0  0  0  # atno 10764 bound_to 10752
  154.7184  135.3112  154.9048 H   0  0  0  0  0  0  0  0  0  0  0  0  # atno 10765 bound_to 10752
  140.4627  134.1111  155.7719 H   0  0  0  0  0  0  0  0  0  0  0  0  # atno 11005 bound_to 11000
  146.2684  139.6576  142.9313 LP  0  0  0  0  0  0  0  0  0  0  0  0  # atno 17320 bound_to 7965
  145.4736  141.0436  143.2685 LP  0  0  0  0  0  0  0  0  0  0  0  0  # atno 17321 bound_to 7965
  140.0783  143.4993  152.2543 LP  0  0  0  0  0  0  0  0  0  0  0  0  # atno 17342 bound_to 10162
  139.5950  144.7564  151.3308 LP  0  0  0  0  0  0  0  0  0  0  0  0  # atno 17343 bound_to 10162
  156.7094  130.8964  151.3608 LP  0  0  0  0  0  0  0  0  0  0  0  0  # atno 17370 bound_to 10713
  157.6935  130.9258  150.0580 LP  0  0  0  0  0  0  0  0  0  0  0  0  # atno 17371 bound_to 10713
  141.1614  133.8786  157.1838 LP  0  0  0  0  0  0  0  0  0  0  0  0  # atno 17394 bound_to 11000
  139.9935  135.0055  157.0029 LP  0  0  0  0  0  0  0  0  0  0  0  0  # atno 17395 bound_to 11000

$$$$
