AV-unprocessed.smi:492|AV-procd|sdf|2709|dock8
  -GOLD-   2262023153D 1   1.00000     0.00000
 Structure written by MMmdl.
 46 48  0  0  0  0  0  0  0  0  1 V2000
  146.5093  134.8331  162.4369 C   0  0  0  0  0  0  0  0  0  0  0  0
  147.7243  135.2781  161.8514 O   0  0  0  0  0  0  0  0  0  0  0  0
  147.6666  135.8683  160.6069 C   0  0  0  0  0  0  0  0  0  0  0  0
  146.4622  136.1575  159.9176 C   0  0  0  0  0  0  0  0  0  0  0  0
  146.4949  136.7640  158.6467 C   0  0  0  0  0  0  0  0  0  0  0  0
  147.7258  137.0963  158.0462 C   0  0  0  0  0  0  0  0  0  0  0  0
  147.7496  137.7339  156.6693 C   0  0  0  0  0  0  0  0  0  0  0  0
  148.3138  139.0346  156.6937 O   0  0  0  0  0  0  0  0  0  0  0  0
  147.7553  139.9035  155.7212 C   0  0  0  0  0  0  0  0  0  0  0  0
  148.8028  140.2152  154.6408 C   0  0  1  0  0  0  0  0  0  0  0  0
  148.1387  140.4548  153.4160 O   0  0  0  0  0  0  0  0  0  0  0  0
  149.7517  141.3725  155.0185 C   0  0  0  0  0  0  0  0  0  0  0  0
  150.7768  140.9740  155.9729 N   0  0  0  0  0  0  0  0  0  0  0  0
  151.6421  139.9336  155.8874 C   0  0  0  0  0  0  0  0  0  0  0  0
  151.6437  139.0000  154.7187 C   0  0  0  0  0  0  0  0  0  0  0  0
  152.4869  139.7943  156.9094 N   0  0  0  0  0  0  0  0  0  0  0  0
  152.1347  140.8420  157.7384 C   0  0  0  0  0  0  0  0  0  0  0  0
  152.6593  141.2403  158.9888 C   0  0  0  0  0  0  0  0  0  0  0  0
  152.1292  142.3614  159.6609 C   0  0  0  0  0  0  0  0  0  0  0  0
  151.0698  143.0992  159.0938 C   0  0  0  0  0  0  0  0  0  0  0  0
  150.5329  142.7197  157.8486 C   0  0  0  0  0  0  0  0  0  0  0  0
  151.0653  141.5997  157.1820 C   0  0  0  0  0  0  0  0  0  0  0  0
  148.9272  136.8016  158.7236 C   0  0  0  0  0  0  0  0  0  0  0  0
  148.8935  136.1966  159.9945 C   0  0  0  0  0  0  0  0  0  0  0  0
  146.7191  134.3961  163.4129 H   0  0  0  0  0  0  0  0  0  0  0  0
  146.0314  134.0650  161.8274 H   0  0  0  0  0  0  0  0  0  0  0  0
  145.8131  135.6590  162.5889 H   0  0  0  0  0  0  0  0  0  0  0  0
  145.4979  135.9232  160.3423 H   0  0  0  0  0  0  0  0  0  0  0  0
  145.5677  136.9748  158.1342 H   0  0  0  0  0  0  0  0  0  0  0  0
  148.3244  137.0910  156.0013 H   0  0  0  0  0  0  0  0  0  0  0  0
  146.7318  137.7849  156.2791 H   0  0  0  0  0  0  0  0  0  0  0  0
  146.8966  139.4146  155.2583 H   0  0  0  0  0  0  0  0  0  0  0  0
  147.3925  140.8225  156.1846 H   0  0  0  0  0  0  0  0  0  0  0  0
  149.3964  139.3143  154.4864 H   0  0  0  0  0  0  0  0  0  0  0  0
  148.7890  140.6480  152.7579 H   0  0  0  0  0  0  0  0  0  0  0  0
  150.2503  141.7621  154.1306 H   0  0  0  0  0  0  0  0  0  0  0  0
  149.1858  142.2067  155.4333 H   0  0  0  0  0  0  0  0  0  0  0  0
  152.3919  138.2185  154.8554 H   0  0  0  0  0  0  0  0  0  0  0  0
  151.8780  139.5393  153.8015 H   0  0  0  0  0  0  0  0  0  0  0  0
  150.6691  138.5234  154.6120 H   0  0  0  0  0  0  0  0  0  0  0  0
  153.4713  140.6820  159.4305 H   0  0  0  0  0  0  0  0  0  0  0  0
  152.5381  142.6568  160.6160 H   0  0  0  0  0  0  0  0  0  0  0  0
  150.6698  143.9572  159.6142 H   0  0  0  0  0  0  0  0  0  0  0  0
  149.7233  143.2840  157.4107 H   0  0  0  0  0  0  0  0  0  0  0  0
  149.8801  137.0383  158.2735 H   0  0  0  0  0  0  0  0  0  0  0  0
  149.8207  135.9803  160.5047 H   0  0  0  0  0  0  0  0  0  0  0  0
  1  2  1  0  0  0  0
  1 25  1  0  0  0  0
  1 26  1  0  0  0  0
  1 27  1  0  0  0  0
  2  3  1  0  0  0  0
  3 24  1  0  0  0  0
  3  4  2  0  0  0  0
  4  5  1  0  0  0  0
  4 28  1  0  0  0  0
  5  6  2  0  0  0  0
  5 29  1  0  0  0  0
  6  7  1  0  0  0  0
  6 23  1  0  0  0  0
  7  8  1  0  0  0  0
  7 30  1  0  0  0  0
  7 31  1  0  0  0  0
  8  9  1  0  0  0  0
  9 10  1  0  0  0  0
  9 32  1  0  0  0  0
  9 33  1  0  0  0  0
 10 11  1  0  0  0  0
 10 12  1  0  0  0  0
 10 34  1  0  0  0  0
 11 35  1  0  0  0  0
 12 13  1  0  0  0  0
 12 36  1  0  0  0  0
 12 37  1  0  0  0  0
 13 22  1  0  0  0  0
 13 14  1  0  0  0  0
 14 15  1  0  0  0  0
 14 16  2  0  0  0  0
 15 38  1  0  0  0  0
 15 39  1  0  0  0  0
 15 40  1  0  0  0  0
 16 17  1  0  0  0  0
 17 22  2  0  0  0  0
 17 18  1  0  0  0  0
 18 19  2  0  0  0  0
 18 41  1  0  0  0  0
 19 20  1  0  0  0  0
 19 42  1  0  0  0  0
 20 21  2  0  0  0  0
 20 43  1  0  0  0  0
 21 22  1  0  0  0  0
 21 44  1  0  0  0  0
 23 24  2  0  0  0  0
 23 45  1  0  0  0  0
 24 46  1  0  0  0  0
M  END
> <s_m_source_file>
AV-unprocessed.smi

> <i_m_source_file_index>
492

> <i_lp_mmshare_version>
43012

> <i_f3d_flags>
0

> <s_epik_input>
W0NIM11PYzFbY0hdW2NIXWMoW2NIXVtjSF0xKVtDSDJdT1tDSDJdW0NASF0oW09IXSlbQ0gyXW4oYyhuMilbQ0gzXSljKGMyMylbY0hdW2NIXVtjSF1bY0hdMw==

> <s_epik_cmdline>
J2VwaWtfcHl0aG9uJywgJy1waCcsICc3LjAnLCAnLXRuJywgJzgnLCAnLW1hJywgJzIwMCcsICctbWV0YWxfYmluZGluZycsICctaW1hZScsICc8aW5maWxlLm1hZT4nLCAnLW9tYWUnLCAnPG91dGZpbGUubWFlPic=

> <r_lp_tautomer_probability>
1

> <r_epik_Ionization_Penalty>
0.132603

> <r_epik_Ionization_Penalty_Charging>
0

> <r_epik_Ionization_Penalty_Neutral>
0.132603

> <r_epik_State_Penalty>
0.121982

> <r_epik_Charging_Adjusted_Penalty>
0.121982

> <i_epik_Tot_Q>
0

> <i_epik_Tot_abs_Q>
0

> <r_epik_Metal_State_Penalty>
0.000135431

> <b_epik_Metal_Only>
0

> <s_lp_Force_Field>
OPLS_2005

> <r_lp_Energy>
18.9568

> <b_lp_Chiralities_Consistent>
1

> <s_lp_Variant>
AV-unprocessed.smi:492-2

> <Gold.Version>
5.8.1

> <Gold.Id.Protein>
6NUR|6NUR_protein|mol2

> <Gold.PLP.Fitness>
45.5150

> <Gold.PLP.PLP>
-41.5425

> <Gold.PLP.part.hbond>
-2.0000

> <Gold.PLP.part.metal>
0.0000

> <Gold.PLP.part.buried>
-5.2690

> <Gold.PLP.part.nonpolar>
-33.7310

> <Gold.PLP.part.repulsive>
0.0000

> <Gold.PLP.ligand.clash>
0.0000

> <Gold.PLP.ligand.torsion>
1.1341

> <Gold.PLP.Chemscore.Hbond>
1.9920

> <Gold.PLP.Chemscore.CHOScore>
0.0000

> <Gold.PLP.Chemscore.Metal>
0.0000

> <Gold.Chemscore.Hbonds>
donor molecule, donor type, donor heavy atom, donor atom, acceptor molecule, acceptor atom, score
      L1  H    11    35       P1  7957  0.91
      P1  H  7997  8008       L1    16  0.99

> <Gold.PLP.Chemscore.Internal.Correction>
0.2648

> <Gold.Rescore>
     Score         DG    S(hbond)    S(metal)    S(lipo)     H(rot)  DE(clash)    DE(int)     intcor
     15.38     -16.74       1.69        0.00     100.37       2.40       0.15       1.21       ----

> <Gold.Chemscore.Fitness>
15.3847

> <Gold.Chemscore.DG>
-16.7396

> <Gold.Chemscore.ZeroCoef>
-5.4800

> <Gold.Chemscore.Hbond>
1.6941

> <Gold.Chemscore.Metal>
0.0000

> <Gold.Chemscore.Lipo>
100.3678

> <Gold.Chemscore.Internal_Hbond>
0.0000

> <Gold.Chemscore.DEClash>
0.1487

> <Gold.Chemscore.DEInternal>
1.2063

> <Gold.Chemscore.Rot>
2.3991

> <Gold.Chemscore.Internal.Correction>
   9.000000E+99

> <Gold.Chemscore.Hbonds>
donor molecule, donor type, donor heavy atom, donor atom, acceptor molecule, acceptor atom, score
      L1  H    11    35       P1  7957  0.88
      P1  H  7997  8008       L1    16  0.38

> <Gold.Chemscore.Hbond.Weighted>
-5.6583

> <Gold.Chemscore.Metal.Weighted>
-0.0000

> <Gold.Chemscore.Lipo.Weighted>
-11.7430

> <Gold.Chemscore.Internal_Hbond.Weighted>
0.0000

> <Gold.Chemscore.DEClash.Weighted>
0.1487

> <Gold.Chemscore.DEInternal.Weighted>
1.2063

> <Gold.Chemscore.Rot.Weighted>
6.1417

> <Gold.Chemscore.Internal.Correction.Weighted>
   9.000000E+99

> <Gold.Protein.RotatedTorsions>
[ 6907 6896 6895 6894 ] final   43.52 input  -60.11 | X-H torsion
[ 7974 7965 7964 7962 ] final    9.76 input  175.53 | X-H torsion
[ 8008 7997 7996 7995 ] final  -36.67 input   59.86 | X-H torsion
[ 10167 10162 10161 10158 ] final  125.01 input  -65.29 | X-H torsion
[ 10718 10713 10712 10709 ] final  111.47 input   66.30 | X-H torsion
[ 10763 10752 10751 10750 ] final   36.08 input  -60.55 | X-H torsion
[ 11005 11000 10999 10996 ] final   81.17 input  -57.11 | X-H torsion

> <Gold.Protein.ActiveResidues>
 VAL166  LYS551  ARG553  GLY616  TRP617  ASP618  TYR619  PRO620  LYS621  CYS622 
 ASP623  PHE694  ASN695  SER759  ASP760  ASP761  ALA762  ILE779  LEU786  VAL792 
 PHE793  MET794  SER795  GLU796  ALA797  LYS798  CYS799  TRP800  GLU811  SER814 

> <Gold.Protein.RotatedAtoms>
  152.2213  134.8410  160.0485 H   0  0  0  0  0  0  0  0  0  0  0  0  # atno 6907 bound_to 6896
  151.9193  133.3576  159.3899 H   0  0  0  0  0  0  0  0  0  0  0  0  # atno 6908 bound_to 6896
  150.7000  134.4577  159.5410 H   0  0  0  0  0  0  0  0  0  0  0  0  # atno 6909 bound_to 6896
  146.2399  139.9735  142.8444 H   0  0  0  0  0  0  0  0  0  0  0  0  # atno 7974 bound_to 7965
  154.4068  140.1624  156.2412 H   0  0  0  0  0  0  0  0  0  0  0  0  # atno 8008 bound_to 7997
  155.9199  140.3422  155.6142 H   0  0  0  0  0  0  0  0  0  0  0  0  # atno 8009 bound_to 7997
  155.7234  140.0771  157.2311 H   0  0  0  0  0  0  0  0  0  0  0  0  # atno 8010 bound_to 7997
  139.5709  144.6938  151.3781 H   0  0  0  0  0  0  0  0  0  0  0  0  # atno 10167 bound_to 10162
  157.6443  131.0951  150.6754 H   0  0  0  0  0  0  0  0  0  0  0  0  # atno 10718 bound_to 10713
  153.0092  135.6316  154.1928 H   0  0  0  0  0  0  0  0  0  0  0  0  # atno 10763 bound_to 10752
  154.1671  135.2820  155.3093 H   0  0  0  0  0  0  0  0  0  0  0  0  # atno 10764 bound_to 10752
  154.5937  135.5609  153.7364 H   0  0  0  0  0  0  0  0  0  0  0  0  # atno 10765 bound_to 10752
  139.9107  134.7976  156.2006 H   0  0  0  0  0  0  0  0  0  0  0  0  # atno 11005 bound_to 11000
  145.1659  140.9696  143.4350 LP  0  0  0  0  0  0  0  0  0  0  0  0  # atno 17320 bound_to 7965
  145.0073  139.3542  143.6137 LP  0  0  0  0  0  0  0  0  0  0  0  0  # atno 17321 bound_to 7965
  140.6993  143.7671  150.7377 LP  0  0  0  0  0  0  0  0  0  0  0  0  # atno 17342 bound_to 10162
  140.1176  143.4641  152.2332 LP  0  0  0  0  0  0  0  0  0  0  0  0  # atno 17343 bound_to 10162
  156.7073  130.4641  149.5556 LP  0  0  0  0  0  0  0  0  0  0  0  0  # atno 17370 bound_to 10713
  156.1754  130.6464  151.0888 LP  0  0  0  0  0  0  0  0  0  0  0  0  # atno 17371 bound_to 10713
  141.0527  133.6880  156.1802 LP  0  0  0  0  0  0  0  0  0  0  0  0  # atno 17394 bound_to 11000
  140.6785  134.4792  157.5588 LP  0  0  0  0  0  0  0  0  0  0  0  0  # atno 17395 bound_to 11000

$$$$
