AV-unprocessed.smi:670|AV-procd|sdf|3268|dock8
  -GOLD-   22720 0223D 1   1.00000     0.00000
 Structure written by MMmdl.
 44 45  0  0  0  0  0  0  0  0  2 V2000
  153.3739  141.0106  159.6773 C   0  0  0  0  0  0  0  0  0  0  0  0
  152.4841  142.2313  159.3929 C   0  0  1  0  0  0  0  0  0  0  0  0
  153.3017  143.5362  159.4829 C   0  0  0  0  0  0  0  0  0  0  0  0
  152.4358  144.7732  159.1984 C   0  0  0  0  0  0  0  0  0  0  0  0
  151.7507  144.6612  157.8298 C   0  0  0  0  0  0  0  0  0  0  0  0
  150.9260  143.3707  157.7370 C   0  0  0  0  0  0  0  0  0  0  0  0
  151.7836  142.1202  158.0201 C   0  0  2  0  0  0  0  0  0  0  0  0
  150.9268  140.9873  158.0486 O   0  0  0  0  0  0  0  0  0  0  0  0
  150.0586  140.8793  156.9296 C   0  0  0  0  0  0  0  0  0  0  0  0
  148.8526  140.0241  157.3290 C   0  0  0  0  0  0  0  0  0  0  0  0
  149.2886  138.9569  158.2202 N   0  0  0  0  0  0  0  0  0  0  0  0
  148.8371  137.6927  158.2334 C   0  0  0  0  0  0  0  0  0  0  0  0
  148.0049  137.2680  157.4319 O   0  0  0  0  0  0  0  0  0  0  0  0
  149.3849  136.7511  159.3202 C   0  0  0  0  0  0  0  0  0  0  0  0
  148.3601  136.1669  160.2023 N   0  0  0  0  0  0  0  0  0  0  0  0
  147.6753  137.1430  161.0453 N   0  5  0  0  0  0  0  0  0  0  0  0
  146.6963  136.7198  161.8883 C   0  0  0  0  0  0  0  0  0  0  0  0
  146.0630  137.4846  162.6115 O   0  0  0  0  0  0  0  0  0  0  0  0
  146.3948  135.2985  161.9283 C   0  0  0  0  0  0  0  0  0  0  0  0
  147.0465  134.4190  161.1425 C   0  0  0  0  0  0  0  0  0  0  0  0
  148.0831  134.8314  160.2043 C   0  0  0  0  0  0  0  0  0  0  0  0
  148.6624  134.0365  159.4643 O   0  0  0  0  0  0  0  0  0  0  0  0
  154.1597  140.9099  158.9280 H   0  0  0  0  0  0  0  0  0  0  0  0
  152.7932  140.0878  159.6764 H   0  0  0  0  0  0  0  0  0  0  0  0
  153.8528  141.0938  160.6532 H   0  0  0  0  0  0  0  0  0  0  0  0
  151.7133  142.2670  160.1647 H   0  0  0  0  0  0  0  0  0  0  0  0
  153.7508  143.6276  160.4725 H   0  0  0  0  0  0  0  0  0  0  0  0
  154.1282  143.5028  158.7716 H   0  0  0  0  0  0  0  0  0  0  0  0
  151.6804  144.8794  159.9781 H   0  0  0  0  0  0  0  0  0  0  0  0
  153.0484  145.6744  159.2352 H   0  0  0  0  0  0  0  0  0  0  0  0
  151.1072  145.5254  157.6628 H   0  0  0  0  0  0  0  0  0  0  0  0
  152.5018  144.6743  157.0390 H   0  0  0  0  0  0  0  0  0  0  0  0
  150.1110  143.4122  158.4598 H   0  0  0  0  0  0  0  0  0  0  0  0
  150.4598  143.3089  156.7539 H   0  0  0  0  0  0  0  0  0  0  0  0
  152.5447  142.0039  157.2456 H   0  0  0  0  0  0  0  0  0  0  0  0
  149.7135  141.8554  156.5858 H   0  0  0  0  0  0  0  0  0  0  0  0
  150.5993  140.4197  156.1018 H   0  0  0  0  0  0  0  0  0  0  0  0
  148.1025  140.6563  157.8064 H   0  0  0  0  0  0  0  0  0  0  0  0
  148.3855  139.5860  156.4465 H   0  0  0  0  0  0  0  0  0  0  0  0
  149.9850  139.2026  158.9104 H   0  0  0  0  0  0  0  0  0  0  0  0
  149.9599  135.9574  158.8402 H   0  0  0  0  0  0  0  0  0  0  0  0
  150.1094  137.3117  159.9131 H   0  0  0  0  0  0  0  0  0  0  0  0
  145.6304  134.9402  162.6018 H   0  0  0  0  0  0  0  0  0  0  0  0
  146.7871  133.3727  161.2029 H   0  0  0  0  0  0  0  0  0  0  0  0
  1  2  1  0  0  0  0
  1 23  1  0  0  0  0
  1 24  1  0  0  0  0
  1 25  1  0  0  0  0
  2  7  1  0  0  0  0
  2  3  1  0  0  0  0
  2 26  1  0  0  0  0
  3  4  1  0  0  0  0
  3 27  1  0  0  0  0
  3 28  1  0  0  0  0
  4  5  1  0  0  0  0
  4 29  1  0  0  0  0
  4 30  1  0  0  0  0
  5  6  1  0  0  0  0
  5 31  1  0  0  0  0
  5 32  1  0  0  0  0
  6  7  1  0  0  0  0
  6 33  1  0  0  0  0
  6 34  1  0  0  0  0
  7  8  1  0  0  0  0
  7 35  1  0  0  0  0
  8  9  1  0  0  0  0
  9 10  1  0  0  0  0
  9 36  1  0  0  0  0
  9 37  1  0  0  0  0
 10 11  1  0  0  0  0
 10 38  1  0  0  0  0
 10 39  1  0  0  0  0
 11 12  1  0  0  0  0
 11 40  1  0  0  0  0
 12 13  2  0  0  0  0
 12 14  1  0  0  0  0
 14 41  1  0  0  0  0
 14 42  1  0  0  0  0
 14 15  1  0  0  0  0
 15 16  1  0  0  0  0
 15 21  1  0  0  0  0
 16 17  1  0  0  0  0
 17 18  2  0  0  0  0
 17 19  1  0  0  0  0
 19 43  1  0  0  0  0
 19 20  2  0  0  0  0
 20 44  1  0  0  0  0
 20 21  1  0  0  0  0
 21 22  2  0  0  0  0
M  CHG  1  16  -1
M  END
> <s_m_source_file>
AV-unprocessed.smi

> <i_m_source_file_index>
670

> <i_lp_mmshare_version>
43012

> <i_f3d_flags>
0

> <s_epik_input>
W0NIM11bQ0BASF0xW0NIMl1bQ0gyXVtDSDJdW0NIMl1bQ0BIXTFPW0NIMl1bQ0gyXVtOSF1DKD1PKVtDSDJdbjJbbkhdYyg9TylbY0hdW2NIXWMyPU8=

> <s_epik_cmdline>
J2VwaWtfcHl0aG9uJywgJy1waCcsICc3LjAnLCAnLXRuJywgJzgnLCAnLW1hJywgJzIwMCcsICctbWV0YWxfYmluZGluZycsICctaW1hZScsICc8aW5maWxlLm1hZT4nLCAnLW9tYWUnLCAnPG91dGZpbGUubWFlPic=

> <r_lp_tautomer_probability>
1

> <r_epik_Ionization_Penalty>
0.0975638

> <r_epik_Ionization_Penalty_Charging>
0.0975637

> <r_epik_Ionization_Penalty_Neutral>
2.78599e-08

> <r_epik_State_Penalty>
0.0343507

> <r_epik_Charging_Adjusted_Penalty>
0.131914

> <i_epik_Tot_Q>
-1

> <i_epik_Tot_abs_Q>
1

> <r_epik_Metal_State_Penalty>
0.0343507

> <b_epik_Metal_Only>
0

> <s_lp_Force_Field>
OPLS_2005

> <r_lp_Energy>
24.2447

> <b_lp_Chiralities_Consistent>
1

> <s_lp_Variant>
AV-unprocessed.smi:670-4

> <Gold.Version>
5.8.1

> <Gold.Id.Protein>
6NUR|6NUR_protein|mol2

> <Gold.PLP.Fitness>
52.3422

> <Gold.PLP.PLP>
-39.2822

> <Gold.PLP.part.hbond>
-3.1669

> <Gold.PLP.part.metal>
0.0000

> <Gold.PLP.part.buried>
-4.8334

> <Gold.PLP.part.nonpolar>
-30.9163

> <Gold.PLP.part.repulsive>
0.1829

> <Gold.PLP.ligand.clash>
0.0000

> <Gold.PLP.ligand.torsion>
0.4874

> <Gold.PLP.Chemscore.Hbond>
4.6560

> <Gold.PLP.Chemscore.CHOScore>
0.0000

> <Gold.PLP.Chemscore.Metal>
0.0000

> <Gold.Chemscore.Hbonds>
donor molecule, donor type, donor heavy atom, donor atom, acceptor molecule, acceptor atom, score
      P1  H  6896  6907       L1    22  0.91
      P1  H  6931  6943       L1    16  1.86
      P1  H  6934  6947       L1    16  1.70

> <Gold.PLP.Chemscore.Internal.Correction>
0.0669

> <Gold.Rescore>
     Score         DG    S(hbond)    S(metal)    S(lipo)     H(rot)  DE(clash)    DE(int)     intcor
     16.65     -17.14       1.72        0.00     104.06       2.45       0.04       0.46       ----

> <Gold.Chemscore.Fitness>
16.6451

> <Gold.Chemscore.DG>
-17.1446

> <Gold.Chemscore.ZeroCoef>
-5.4800

> <Gold.Chemscore.Hbond>
1.7243

> <Gold.Chemscore.Metal>
0.0000

> <Gold.Chemscore.Lipo>
104.0577

> <Gold.Chemscore.Internal_Hbond>
0.0000

> <Gold.Chemscore.DEClash>
0.0362

> <Gold.Chemscore.DEInternal>
0.4633

> <Gold.Chemscore.Rot>
2.4490

> <Gold.Chemscore.Internal.Correction>
   9.000000E+99

> <Gold.Chemscore.Hbonds>
donor molecule, donor type, donor heavy atom, donor atom, acceptor molecule, acceptor atom, score
      P1  H  6896  6907       L1    22  0.80
      P1  H  6931  6943       L1    16  0.51
      P1  H  6934  6947       L1    16  0.19

> <Gold.Chemscore.Hbond.Weighted>
-5.7592

> <Gold.Chemscore.Metal.Weighted>
-0.0000

> <Gold.Chemscore.Lipo.Weighted>
-12.1747

> <Gold.Chemscore.Internal_Hbond.Weighted>
0.0000

> <Gold.Chemscore.DEClash.Weighted>
0.0362

> <Gold.Chemscore.DEInternal.Weighted>
0.4633

> <Gold.Chemscore.Rot.Weighted>
6.2694

> <Gold.Chemscore.Internal.Correction.Weighted>
   9.000000E+99

> <Gold.Protein.RotatedTorsions>
[ 6907 6896 6895 6894 ] final  -93.93 input  -60.11 | X-H torsion
[ 7974 7965 7964 7962 ] final   -4.14 input  175.53 | X-H torsion
[ 8008 7997 7996 7995 ] final  -47.84 input   59.86 | X-H torsion
[ 10167 10162 10161 10158 ] final  103.81 input  -65.29 | X-H torsion
[ 10718 10713 10712 10709 ] final   10.79 input   66.30 | X-H torsion
[ 10763 10752 10751 10750 ] final  126.23 input  -60.55 | X-H torsion
[ 11005 11000 10999 10996 ] final -116.54 input  -57.11 | X-H torsion

> <Gold.Protein.ActiveResidues>
 VAL166  LYS551  ARG553  GLY616  TRP617  ASP618  TYR619  PRO620  LYS621  CYS622 
 ASP623  PHE694  ASN695  SER759  ASP760  ASP761  ALA762  ILE779  LEU786  VAL792 
 PHE793  MET794  SER795  GLU796  ALA797  LYS798  CYS799  TRP800  GLU811  SER814 

> <Gold.Protein.RotatedAtoms>
  150.6932  134.1890  159.4277 H   0  0  0  0  0  0  0  0  0  0  0  0  # atno 6907 bound_to 6896
  151.9862  135.0001  160.0569 H   0  0  0  0  0  0  0  0  0  0  0  0  # atno 6908 bound_to 6896
  152.1710  133.4608  159.4946 H   0  0  0  0  0  0  0  0  0  0  0  0  # atno 6909 bound_to 6896
  146.2377  140.1827  142.8332 H   0  0  0  0  0  0  0  0  0  0  0  0  # atno 7974 bound_to 7965
  154.4021  140.1336  156.4241 H   0  0  0  0  0  0  0  0  0  0  0  0  # atno 8008 bound_to 7997
  155.7615  140.3486  155.5180 H   0  0  0  0  0  0  0  0  0  0  0  0  # atno 8009 bound_to 7997
  155.8855  140.0994  157.1446 H   0  0  0  0  0  0  0  0  0  0  0  0  # atno 8010 bound_to 7997
  139.7231  144.7053  151.0840 H   0  0  0  0  0  0  0  0  0  0  0  0  # atno 10167 bound_to 10162
  156.9861  130.6024  149.5681 H   0  0  0  0  0  0  0  0  0  0  0  0  # atno 10718 bound_to 10713
  153.6900  135.3300  155.3199 H   0  0  0  0  0  0  0  0  0  0  0  0  # atno 10763 bound_to 10752
  154.8442  135.4429  154.1518 H   0  0  0  0  0  0  0  0  0  0  0  0  # atno 10764 bound_to 10752
  153.2557  135.6986  153.7709 H   0  0  0  0  0  0  0  0  0  0  0  0  # atno 10765 bound_to 10752
  141.0415  133.9829  157.2987 H   0  0  0  0  0  0  0  0  0  0  0  0  # atno 11005 bound_to 11000
  144.9921  140.8556  143.5333 LP  0  0  0  0  0  0  0  0  0  0  0  0  # atno 17320 bound_to 7965
  145.1835  139.2339  143.5280 LP  0  0  0  0  0  0  0  0  0  0  0  0  # atno 17321 bound_to 7965
  140.7757  143.5140  150.9618 LP  0  0  0  0  0  0  0  0  0  0  0  0  # atno 17342 bound_to 10162
  139.8827  143.7052  152.3155 LP  0  0  0  0  0  0  0  0  0  0  0  0  # atno 17343 bound_to 10162
  156.0225  130.5320  150.8316 LP  0  0  0  0  0  0  0  0  0  0  0  0  # atno 17370 bound_to 10713
  157.5492  131.0943  150.9719 LP  0  0  0  0  0  0  0  0  0  0  0  0  # atno 17371 bound_to 10713
  139.9279  135.0201  156.8299 LP  0  0  0  0  0  0  0  0  0  0  0  0  # atno 17394 bound_to 11000
  140.6226  133.9980  155.7625 LP  0  0  0  0  0  0  0  0  0  0  0  0  # atno 17395 bound_to 11000

$$$$
