AV-unprocessed.smi:705|AV-procd|sdf|3446|dock5
  -GOLD-   22720 0433D 1   1.00000     0.00000
 Structure written by MMmdl.
 29 30  0  0  0  0  0  0  0  0  2 V2000
  150.1917  138.3404  153.3647 N   0  0  0  0  0  0  0  0  0  0  0  0
  151.0284  137.8204  154.2674 C   0  0  0  0  0  0  0  0  0  0  0  0
  151.3625  136.6375  154.2450 O   0  0  0  0  0  0  0  0  0  0  0  0
  151.5732  138.7458  155.2825 C   0  0  0  0  0  0  0  0  0  0  0  0
  151.1432  140.0172  155.5358 C   0  0  0  0  0  0  0  0  0  0  0  0
  151.9891  140.4295  156.6102 C   0  0  0  0  0  0  0  0  0  0  0  0
  151.9924  141.7646  157.3105 C   0  0  2  0  0  0  0  0  0  0  0  0
  151.8828  141.6140  158.8403 C   0  0  0  0  0  0  0  0  0  0  0  0
  151.8853  142.9934  159.5166 C   0  0  0  0  0  0  0  0  0  0  0  0
  150.7862  143.8946  158.9294 C   0  0  0  0  0  0  0  0  0  0  0  0
  150.9336  144.0138  157.4622 N   0  3  0  0  0  0  0  0  0  0  0  0
  150.8974  142.7073  156.7684 C   0  0  0  0  0  0  0  0  0  0  0  0
  152.8470  139.4804  156.9821 N   0  0  0  0  0  0  0  0  0  0  0  0
  152.5785  138.4427  156.1654 N   0  0  0  0  0  0  0  0  0  0  0  0
  153.0784  137.5662  156.2180 H   0  0  0  0  0  0  0  0  0  0  0  0
  149.7970  137.7490  152.6478 H   0  0  0  0  0  0  0  0  0  0  0  0
  149.9608  139.3224  153.3991 H   0  0  0  0  0  0  0  0  0  0  0  0
  150.3590  140.5706  155.0401 H   0  0  0  0  0  0  0  0  0  0  0  0
  152.9525  142.2409  157.1054 H   0  0  0  0  0  0  0  0  0  0  0  0
  150.9645  141.0854  159.1007 H   0  0  0  0  0  0  0  0  0  0  0  0
  152.7080  141.0111  159.2213 H   0  0  0  0  0  0  0  0  0  0  0  0
  151.7411  142.8813  160.5916 H   0  0  0  0  0  0  0  0  0  0  0  0
  152.8596  143.4660  159.3834 H   0  0  0  0  0  0  0  0  0  0  0  0
  149.7998  143.4894  159.1592 H   0  0  0  0  0  0  0  0  0  0  0  0
  150.8347  144.8889  159.3740 H   0  0  0  0  0  0  0  0  0  0  0  0
  150.1894  144.5951  157.1038 H   0  0  0  0  0  0  0  0  0  0  0  0
  151.0330  142.8731  155.6992 H   0  0  0  0  0  0  0  0  0  0  0  0
  149.9077  142.2672  156.8997 H   0  0  0  0  0  0  0  0  0  0  0  0
  151.8186  144.4579  157.2638 H   0  0  0  0  0  0  0  0  0  0  0  0
  1  2  1  0  0  0  0
  1 16  1  0  0  0  0
  1 17  1  0  0  0  0
  2  3  2  0  0  0  0
  2  4  1  0  0  0  0
  4 14  1  0  0  0  0
  4  5  2  0  0  0  0
  5  6  1  0  0  0  0
  5 18  1  0  0  0  0
  6  7  1  0  0  0  0
  6 13  2  0  0  0  0
  7 12  1  0  0  0  0
  7  8  1  0  0  0  0
  7 19  1  0  0  0  0
  8  9  1  0  0  0  0
  8 20  1  0  0  0  0
  8 21  1  0  0  0  0
  9 10  1  0  0  0  0
  9 22  1  0  0  0  0
  9 23  1  0  0  0  0
 10 11  1  0  0  0  0
 10 24  1  0  0  0  0
 10 25  1  0  0  0  0
 11 12  1  0  0  0  0
 11 26  1  0  0  0  0
 11 29  1  0  0  0  0
 12 27  1  0  0  0  0
 12 28  1  0  0  0  0
 13 14  1  0  0  0  0
 14 15  1  0  0  0  0
M  CHG  1  11   1
M  END
> <s_m_source_file>
AV-unprocessed.smi

> <i_m_source_file_index>
705

> <i_lp_mmshare_version>
43012

> <i_f3d_flags>
0

> <s_epik_input>
W05IMl1DKD1PKWMxW2NIXWMoW25IXW4xKVtDQEBIXTJbQ0gyXVtDSDJdW0NIMl1bTkhdW0NIMl0y

> <s_epik_cmdline>
J2VwaWtfcHl0aG9uJywgJy1waCcsICc3LjAnLCAnLXRuJywgJzgnLCAnLW1hJywgJzIwMCcsICctbWV0YWxfYmluZGluZycsICctaW1hZScsICc8aW5maWxlLm1hZT4nLCAnLW9tYWUnLCAnPG91dGZpbGUubWFlPic=

> <r_lp_tautomer_probability>
0.5

> <r_epik_Ionization_Penalty>
0.000242638

> <r_epik_Ionization_Penalty_Charging>
0.000157527

> <r_epik_Ionization_Penalty_Neutral>
8.51112e-05

> <r_epik_State_Penalty>
0.41068

> <r_epik_Charging_Adjusted_Penalty>
0.410837

> <i_epik_Tot_Q>
1

> <i_epik_Tot_abs_Q>
1

> <r_epik_Metal_State_Penalty>
0.446108

> <b_epik_Metal_Only>
0

> <s_lp_Force_Field>
OPLS_2005

> <r_lp_Energy>
10.1374

> <b_lp_Chiralities_Consistent>
1

> <s_lp_Variant>
AV-unprocessed.smi:705-1

> <Gold.Version>
5.8.1

> <Gold.Id.Protein>
6NUR|6NUR_protein|mol2

> <Gold.PLP.Fitness>
38.4851

> <Gold.PLP.PLP>
-24.2848

> <Gold.PLP.part.hbond>
-5.4326

> <Gold.PLP.part.metal>
0.0000

> <Gold.PLP.part.buried>
-3.5828

> <Gold.PLP.part.nonpolar>
-16.1607

> <Gold.PLP.part.repulsive>
1.3028

> <Gold.PLP.ligand.clash>
0.0000

> <Gold.PLP.ligand.torsion>
0.1042

> <Gold.PLP.Chemscore.Hbond>
4.7920

> <Gold.PLP.Chemscore.CHOScore>
0.0000

> <Gold.PLP.Chemscore.Metal>
0.0000

> <Gold.Chemscore.Hbonds>
donor molecule, donor type, donor heavy atom, donor atom, acceptor molecule, acceptor atom, score
      L1  H     1    16       P1  7948  1.00
      L1  H     1    17       P1  7957  0.02
      L1  H    11    26       P1  8028  1.76
      P1  H  7997  8008       L1    13  0.94
      P1  H 10752 10765       L1     3  1.00

> <Gold.PLP.Chemscore.Internal.Correction>
0.0328

> <Gold.Rescore>
     Score         DG    S(hbond)    S(metal)    S(lipo)     H(rot)  DE(clash)    DE(int)     intcor
     20.95     -22.52       3.52        0.00      67.12       1.00       1.52       0.04       ----

> <Gold.Chemscore.Fitness>
20.9499

> <Gold.Chemscore.DG>
-22.5168

> <Gold.Chemscore.ZeroCoef>
-5.4800

> <Gold.Chemscore.Hbond>
3.5161

> <Gold.Chemscore.Metal>
0.0000

> <Gold.Chemscore.Lipo>
67.1186

> <Gold.Chemscore.Internal_Hbond>
0.0000

> <Gold.Chemscore.DEClash>
1.5249

> <Gold.Chemscore.DEInternal>
0.0420

> <Gold.Chemscore.Rot>
1.0000

> <Gold.Chemscore.Internal.Correction>
   9.000000E+99

> <Gold.Chemscore.Hbonds>
donor molecule, donor type, donor heavy atom, donor atom, acceptor molecule, acceptor atom, score
      L1  H     1    16       P1  7948  0.30
      L1  H     1    17       P1  7957  0.03
      L1  H    11    26       P1  8028  0.48
      P1  H  7997  8008       L1    13  0.69
      P1  H 10752 10765       L1     3  1.00

> <Gold.Chemscore.Hbond.Weighted>
-11.7439

> <Gold.Chemscore.Metal.Weighted>
-0.0000

> <Gold.Chemscore.Lipo.Weighted>
-7.8529

> <Gold.Chemscore.Internal_Hbond.Weighted>
0.0000

> <Gold.Chemscore.DEClash.Weighted>
1.5249

> <Gold.Chemscore.DEInternal.Weighted>
0.0420

> <Gold.Chemscore.Rot.Weighted>
2.5600

> <Gold.Chemscore.Internal.Correction.Weighted>
   9.000000E+99

> <Gold.Protein.RotatedTorsions>
[ 6907 6896 6895 6894 ] final  170.56 input  -60.11 | X-H torsion
[ 7974 7965 7964 7962 ] final -127.87 input  175.53 | X-H torsion
[ 8008 7997 7996 7995 ] final  -81.72 input   59.86 | X-H torsion
[ 10167 10162 10161 10158 ] final   31.07 input  -65.29 | X-H torsion
[ 10718 10713 10712 10709 ] final  112.75 input   66.30 | X-H torsion
[ 10763 10752 10751 10750 ] final  159.94 input  -60.55 | X-H torsion
[ 11005 11000 10999 10996 ] final   18.13 input  -57.11 | X-H torsion

> <Gold.Protein.ActiveResidues>
 VAL166  LYS551  ARG553  GLY616  TRP617  ASP618  TYR619  PRO620  LYS621  CYS622 
 ASP623  PHE694  ASN695  SER759  ASP760  ASP761  ALA762  ILE779  LEU786  VAL792 
 PHE793  MET794  SER795  GLU796  ALA797  LYS798  CYS799  TRP800  GLU811  SER814 

> <Gold.Protein.RotatedAtoms>
  151.8141  133.3385  159.3564 H   0  0  0  0  0  0  0  0  0  0  0  0  # atno 6907 bound_to 6896
  150.7316  134.5635  159.5864 H   0  0  0  0  0  0  0  0  0  0  0  0  # atno 6908 bound_to 6896
  152.3053  134.7563  160.0400 H   0  0  0  0  0  0  0  0  0  0  0  0  # atno 6909 bound_to 6896
  144.9727  140.7562  143.4660 H   0  0  0  0  0  0  0  0  0  0  0  0  # atno 7974 bound_to 7965
  154.6013  140.0643  156.9371 H   0  0  0  0  0  0  0  0  0  0  0  0  # atno 8008 bound_to 7997
  155.2128  140.3324  155.4308 H   0  0  0  0  0  0  0  0  0  0  0  0  # atno 8009 bound_to 7997
  156.2319  140.1845  156.7203 H   0  0  0  0  0  0  0  0  0  0  0  0  # atno 8010 bound_to 7997
  140.4621  144.0890  150.6215 H   0  0  0  0  0  0  0  0  0  0  0  0  # atno 10167 bound_to 10162
  157.6376  131.0972  150.6940 H   0  0  0  0  0  0  0  0  0  0  0  0  # atno 10718 bound_to 10713
  154.2396  135.2775  155.2859 H   0  0  0  0  0  0  0  0  0  0  0  0  # atno 10763 bound_to 10752
  154.5556  135.5662  153.6964 H   0  0  0  0  0  0  0  0  0  0  0  0  # atno 10764 bound_to 10752
  153.0002  135.6285  154.2540 H   0  0  0  0  0  0  0  0  0  0  0  0  # atno 10765 bound_to 10752
  140.4283  134.1447  155.7678 H   0  0  0  0  0  0  0  0  0  0  0  0  # atno 11005 bound_to 11000
  145.2535  139.2022  143.4930 LP  0  0  0  0  0  0  0  0  0  0  0  0  # atno 17320 bound_to 7965
  146.3386  140.2452  142.8597 LP  0  0  0  0  0  0  0  0  0  0  0  0  # atno 17321 bound_to 7965
  140.4080  143.2671  151.9867 LP  0  0  0  0  0  0  0  0  0  0  0  0  # atno 17342 bound_to 10162
  139.4807  144.5940  151.7722 LP  0  0  0  0  0  0  0  0  0  0  0  0  # atno 17343 bound_to 10162
  156.7269  130.4698  149.5509 LP  0  0  0  0  0  0  0  0  0  0  0  0  # atno 17370 bound_to 10713
  156.1628  130.6385  151.0740 LP  0  0  0  0  0  0  0  0  0  0  0  0  # atno 17371 bound_to 10713
  141.1756  133.8520  157.1431 LP  0  0  0  0  0  0  0  0  0  0  0  0  # atno 17394 bound_to 11000
  140.0152  134.9970  157.0478 LP  0  0  0  0  0  0  0  0  0  0  0  0  # atno 17395 bound_to 11000

$$$$
