AV-unprocessed.smi:3303|AV-procd|sdf|12671|dock4
  -GOLD-   2272019 03D 1   1.00000     0.00000
 Structure written by MMmdl.
 45 46  0  0  0  0  0  0  0  0  3 V2000
  145.8116  142.5759  154.8219 C   0  0  0  0  0  0  0  0  0  0  0  0
  147.2067  142.1941  154.2838 C   0  0  2  0  0  0  0  0  0  0  0  0
  147.1299  141.7175  152.8202 C   0  0  0  0  0  0  0  0  0  0  0  0
  146.4676  140.3910  152.6946 N   0  3  1  0  0  0  0  0  0  0  0  0
  146.2803  140.0292  151.2683 C   0  0  0  0  0  0  0  0  0  0  0  0
  147.1520  139.3366  153.5042 C   0  0  2  0  0  0  0  0  0  0  0  0
  146.4384  137.9728  153.4242 C   0  0  0  0  0  0  0  0  0  0  0  0
  147.2711  139.7680  154.9832 C   0  0  0  0  0  0  0  0  0  0  0  0
  147.9537  141.1411  155.1302 C   0  0  2  0  0  0  0  0  0  0  0  0
  148.0674  141.5719  156.5439 N   0  3  0  0  0  0  0  0  0  0  0  0
  149.1788  140.9640  157.3058 C   0  0  0  0  0  0  0  0  0  0  0  0
  150.5342  141.4869  156.8099 C   0  0  0  0  0  0  0  0  0  0  0  0
  151.4458  141.8979  157.9507 C   0  0  0  0  0  0  0  0  0  0  0  0
  151.4516  143.2260  158.4286 C   0  0  0  0  0  0  0  0  0  0  0  0
  152.3151  143.5517  159.4926 C   0  0  0  0  0  0  0  0  0  0  0  0
  153.1370  142.5435  160.0321 C   0  0  0  0  0  0  0  0  0  0  0  0
  153.0579  141.2483  159.4824 C   0  0  0  0  0  0  0  0  0  0  0  0
  152.2326  140.9250  158.4628 N   0  0  0  0  0  0  0  0  0  0  0  0
  145.1280  141.7272  154.8335 H   0  0  0  0  0  0  0  0  0  0  0  0
  145.3567  143.3489  154.2015 H   0  0  0  0  0  0  0  0  0  0  0  0
  145.8646  142.9734  155.8355 H   0  0  0  0  0  0  0  0  0  0  0  0
  147.8038  143.1072  154.2944 H   0  0  0  0  0  0  0  0  0  0  0  0
  146.5921  142.4571  152.2251 H   0  0  0  0  0  0  0  0  0  0  0  0
  148.1343  141.6546  152.3980 H   0  0  0  0  0  0  0  0  0  0  0  0
  147.2347  139.7937  150.7953 H   0  0  0  0  0  0  0  0  0  0  0  0
  145.8242  140.8524  150.7171 H   0  0  0  0  0  0  0  0  0  0  0  0
  145.6152  139.1740  151.1535 H   0  0  0  0  0  0  0  0  0  0  0  0
  148.1600  139.2122  153.1046 H   0  0  0  0  0  0  0  0  0  0  0  0
  146.9004  137.2519  154.0993 H   0  0  0  0  0  0  0  0  0  0  0  0
  146.4927  137.5382  152.4264 H   0  0  0  0  0  0  0  0  0  0  0  0
  145.3871  138.0559  153.7017 H   0  0  0  0  0  0  0  0  0  0  0  0
  146.2833  139.7892  155.4453 H   0  0  0  0  0  0  0  0  0  0  0  0
  147.8386  139.0104  155.5238 H   0  0  0  0  0  0  0  0  0  0  0  0
  148.9676  141.0643  154.7329 H   0  0  0  0  0  0  0  0  0  0  0  0
  148.2160  142.5711  156.5487 H   0  0  0  0  0  0  0  0  0  0  0  0
  149.0661  141.1889  158.3662 H   0  0  0  0  0  0  0  0  0  0  0  0
  149.1399  139.8792  157.1987 H   0  0  0  0  0  0  0  0  0  0  0  0
  151.0319  140.7238  156.2100 H   0  0  0  0  0  0  0  0  0  0  0  0
  150.3869  142.3458  156.1532 H   0  0  0  0  0  0  0  0  0  0  0  0
  150.8098  143.9792  157.9956 H   0  0  0  0  0  0  0  0  0  0  0  0
  152.3462  144.5565  159.8877 H   0  0  0  0  0  0  0  0  0  0  0  0
  153.8114  142.7575  160.8480 H   0  0  0  0  0  0  0  0  0  0  0  0
  153.6736  140.4511  159.8721 H   0  0  0  0  0  0  0  0  0  0  0  0
  147.1962  141.3785  157.0175 H   0  0  0  0  0  0  0  0  0  0  0  0
  145.5405  140.4981  153.0816 H   0  0  0  0  0  0  0  0  0  0  0  0
  1  2  1  0  0  0  0
  1 19  1  0  0  0  0
  1 20  1  0  0  0  0
  1 21  1  0  0  0  0
  2  9  1  0  0  0  0
  2  3  1  0  0  0  0
  2 22  1  0  0  0  0
  3  4  1  0  0  0  0
  3 23  1  0  0  0  0
  3 24  1  0  0  0  0
  4  5  1  0  0  0  0
  4  6  1  0  0  0  0
  4 45  1  0  0  0  0
  5 25  1  0  0  0  0
  5 26  1  0  0  0  0
  5 27  1  0  0  0  0
  6  7  1  0  0  0  0
  6  8  1  0  0  0  0
  6 28  1  0  0  0  0
  7 29  1  0  0  0  0
  7 30  1  0  0  0  0
  7 31  1  0  0  0  0
  8  9  1  0  0  0  0
  8 32  1  0  0  0  0
  8 33  1  0  0  0  0
  9 10  1  0  0  0  0
  9 34  1  0  0  0  0
 10 11  1  0  0  0  0
 10 35  1  0  0  0  0
 10 44  1  0  0  0  0
 11 12  1  0  0  0  0
 11 36  1  0  0  0  0
 11 37  1  0  0  0  0
 12 13  1  0  0  0  0
 12 38  1  0  0  0  0
 12 39  1  0  0  0  0
 13 18  1  0  0  0  0
 13 14  2  0  0  0  0
 14 15  1  0  0  0  0
 14 40  1  0  0  0  0
 15 16  2  0  0  0  0
 15 41  1  0  0  0  0
 16 17  1  0  0  0  0
 16 42  1  0  0  0  0
 17 18  2  0  0  0  0
 17 43  1  0  0  0  0
M  CHG  1   4   1
M  CHG  1  10   1
M  END
> <s_m_source_file>
AV-unprocessed.smi

> <i_m_source_file_index>
3303

> <i_lp_mmshare_version>
43012

> <i_f3d_flags>
0

> <s_epik_input>
W0NIM11bQ0BASF0xW0NIMl1OKFtDSDNdKVtDQEBIXShbQ0gzXSlbQ0gyXVtDQEhdMVtOSF1bQ0gyXVtDSDJdYzJbY0hdW2NIXVtjSF1bY0hdbjI=

> <s_epik_cmdline>
J2VwaWtfcHl0aG9uJywgJy1waCcsICc3LjAnLCAnLXRuJywgJzgnLCAnLW1hJywgJzIwMCcsICctbWV0YWxfYmluZGluZycsICctaW1hZScsICc8aW5maWxlLm1hZT4nLCAnLW9tYWUnLCAnPG91dGZpbGUubWFlPic=

> <r_epik_Ionization_Penalty>
0.0769462

> <r_epik_Ionization_Penalty_Charging>
0.0759813

> <r_epik_Ionization_Penalty_Neutral>
0.000964829

> <r_epik_State_Penalty>
0.0654373

> <r_epik_Charging_Adjusted_Penalty>
0.141419

> <i_epik_Tot_Q>
2

> <i_epik_Tot_abs_Q>
2

> <r_epik_Metal_State_Penalty>
0.0656439

> <b_epik_Metal_Only>
0

> <s_lp_Force_Field>
OPLS_2005

> <r_lp_Energy>
31.1482

> <b_lp_Chiralities_Consistent>
1

> <s_lp_Variant>
AV-unprocessed.smi:3303-15

> <Gold.Version>
5.8.1

> <Gold.Id.Protein>
6NUR|6NUR_protein|mol2

> <Gold.PLP.Fitness>
46.3736

> <Gold.PLP.PLP>
-36.4257

> <Gold.PLP.part.hbond>
-2.0000

> <Gold.PLP.part.metal>
0.0000

> <Gold.PLP.part.buried>
-1.3957

> <Gold.PLP.part.nonpolar>
-33.4427

> <Gold.PLP.part.repulsive>
0.0348

> <Gold.PLP.ligand.clash>
0.0000

> <Gold.PLP.ligand.torsion>
0.9422

> <Gold.PLP.Chemscore.Hbond>
3.9349

> <Gold.PLP.Chemscore.CHOScore>
0.0000

> <Gold.PLP.Chemscore.Metal>
0.0000

> <Gold.Chemscore.Hbonds>
donor molecule, donor type, donor heavy atom, donor atom, acceptor molecule, acceptor atom, score
      L1  H     4    45       P1 10175  1.54
      L1  H    10    35       P1  8028  0.13

> <Gold.PLP.Chemscore.Internal.Correction>
0.0276

> <Gold.Rescore>
     Score         DG    S(hbond)    S(metal)    S(lipo)     H(rot)  DE(clash)    DE(int)     intcor
     18.25     -20.80       1.82        0.00     109.14       1.37       1.95       0.60       ----

> <Gold.Chemscore.Fitness>
18.2520

> <Gold.Chemscore.DG>
-20.8034

> <Gold.Chemscore.ZeroCoef>
-5.4800

> <Gold.Chemscore.Hbond>
1.8180

> <Gold.Chemscore.Metal>
0.0000

> <Gold.Chemscore.Lipo>
109.1423

> <Gold.Chemscore.Internal_Hbond>
0.0000

> <Gold.Chemscore.DEClash>
1.9497

> <Gold.Chemscore.DEInternal>
0.6018

> <Gold.Chemscore.Rot>
1.3744

> <Gold.Chemscore.Internal.Correction>
   9.000000E+99

> <Gold.Chemscore.Hbonds>
donor molecule, donor type, donor heavy atom, donor atom, acceptor molecule, acceptor atom, score
      L1  H     4    45       P1 10175  0.68
      L1  H    10    35       P1  8028  0.07

> <Gold.Chemscore.Hbond.Weighted>
-6.0722

> <Gold.Chemscore.Metal.Weighted>
-0.0000

> <Gold.Chemscore.Lipo.Weighted>
-12.7696

> <Gold.Chemscore.Internal_Hbond.Weighted>
0.0000

> <Gold.Chemscore.DEClash.Weighted>
1.9497

> <Gold.Chemscore.DEInternal.Weighted>
0.6018

> <Gold.Chemscore.Rot.Weighted>
3.5185

> <Gold.Chemscore.Internal.Correction.Weighted>
   9.000000E+99

> <Gold.Protein.RotatedTorsions>
[ 6907 6896 6895 6894 ] final  163.10 input  -60.11 | X-H torsion
[ 7974 7965 7964 7962 ] final  135.17 input  175.53 | X-H torsion
[ 8008 7997 7996 7995 ] final  -77.34 input   59.86 | X-H torsion
[ 10167 10162 10161 10158 ] final -174.72 input  -65.29 | X-H torsion
[ 10718 10713 10712 10709 ] final  146.25 input   66.30 | X-H torsion
[ 10763 10752 10751 10750 ] final  155.88 input  -60.55 | X-H torsion
[ 11005 11000 10999 10996 ] final  108.45 input  -57.11 | X-H torsion

> <Gold.Protein.ActiveResidues>
 VAL166  LYS551  ARG553  GLY616  TRP617  ASP618  TYR619  PRO620  LYS621  CYS622 
 ASP623  PHE694  ASN695  SER759  ASP760  ASP761  ALA762  ILE779  LEU786  VAL792 
 PHE793  MET794  SER795  GLU796  ALA797  LYS798  CYS799  TRP800  GLU811  SER814 

> <Gold.Protein.RotatedAtoms>
  151.9304  133.3609  159.3928 H   0  0  0  0  0  0  0  0  0  0  0  0  # atno 6907 bound_to 6896
  150.7018  134.4544  159.5360 H   0  0  0  0  0  0  0  0  0  0  0  0  # atno 6908 bound_to 6896
  152.2183  134.8437  160.0540 H   0  0  0  0  0  0  0  0  0  0  0  0  # atno 6909 bound_to 6896
  144.9690  139.4626  143.5442 H   0  0  0  0  0  0  0  0  0  0  0  0  # atno 7974 bound_to 7965
  154.5587  140.0712  156.8784 H   0  0  0  0  0  0  0  0  0  0  0  0  # atno 8008 bound_to 7997
  155.2853  140.3374  155.4237 H   0  0  0  0  0  0  0  0  0  0  0  0  # atno 8009 bound_to 7997
  156.2024  140.1727  156.7857 H   0  0  0  0  0  0  0  0  0  0  0  0  # atno 8010 bound_to 7997
  139.5619  144.1849  152.1252 H   0  0  0  0  0  0  0  0  0  0  0  0  # atno 10167 bound_to 10162
  157.3355  131.0927  151.1127 H   0  0  0  0  0  0  0  0  0  0  0  0  # atno 10718 bound_to 10713
  154.1754  135.2802  155.3068 H   0  0  0  0  0  0  0  0  0  0  0  0  # atno 10763 bound_to 10752
  154.6043  135.5519  153.7410 H   0  0  0  0  0  0  0  0  0  0  0  0  # atno 10764 bound_to 10752
  153.0153  135.6399  154.1893 H   0  0  0  0  0  0  0  0  0  0  0  0  # atno 10765 bound_to 10752
  139.8844  134.9431  156.5975 H   0  0  0  0  0  0  0  0  0  0  0  0  # atno 11005 bound_to 11000
  146.3376  139.8890  142.8812 LP  0  0  0  0  0  0  0  0  0  0  0  0  # atno 17320 bound_to 7965
  145.2587  141.0069  143.3839 LP  0  0  0  0  0  0  0  0  0  0  0  0  # atno 17321 bound_to 7965
  140.1365  144.5241  150.6770 LP  0  0  0  0  0  0  0  0  0  0  0  0  # atno 17342 bound_to 10162
  140.6899  143.2370  151.5159 LP  0  0  0  0  0  0  0  0  0  0  0  0  # atno 17343 bound_to 10162
  157.2359  130.6547  149.5869 LP  0  0  0  0  0  0  0  0  0  0  0  0  # atno 17370 bound_to 10713
  155.9701  130.4584  150.5997 LP  0  0  0  0  0  0  0  0  0  0  0  0  # atno 17371 bound_to 10713
  140.7909  133.8583  155.8645 LP  0  0  0  0  0  0  0  0  0  0  0  0  # atno 17394 bound_to 11000
  140.9678  134.1571  157.4601 LP  0  0  0  0  0  0  0  0  0  0  0  0  # atno 17395 bound_to 11000

$$$$
