AV-unprocessed.smi:867|AV-procd|sdf|4001|dock8
  -GOLD-   22720 1483D 1   1.00000     0.00000
 Structure written by MMmdl.
 54 57  0  0  0  0  0  0  0  0  3 V2000
  148.4793  141.2945  155.4590 O   0  0  0  0  0  0  0  0  0  0  0  0
  149.4909  140.6486  155.1825 C   0  0  0  0  0  0  0  0  0  0  0  0
  150.7168  141.0281  155.5840 N   0  0  0  0  0  0  0  0  0  0  0  0
  151.0261  142.1869  156.4182 C   0  0  0  0  0  0  0  0  0  0  0  0
  150.5191  142.0253  157.8641 C   0  0  0  0  0  0  0  0  0  0  0  0
  151.6296  141.9954  158.8997 C   0  0  0  0  0  0  0  0  0  0  0  0
  152.4889  140.8790  159.0084 C   0  0  0  0  0  0  0  0  0  0  0  0
  153.5244  140.8943  159.9660 C   0  0  0  0  0  0  0  0  0  0  0  0
  153.6762  142.0246  160.7950 C   0  0  0  0  0  0  0  0  0  0  0  0
  152.8330  143.0721  160.6648 N   0  3  0  0  0  0  0  0  0  0  0  0
  151.8293  143.0960  159.7611 C   0  0  0  0  0  0  0  0  0  0  0  0
  149.4710  139.5408  154.4000 N   0  0  0  0  0  0  0  0  0  0  0  0
  150.5257  138.5221  154.3171 C   0  0  0  0  0  0  0  0  0  0  0  0
  150.0736  137.2723  155.0951 C   0  0  0  0  0  0  0  0  0  0  0  0
  148.7638  136.7560  154.6017 N   0  3  0  0  0  0  0  0  0  0  0  0
  148.2826  135.5579  155.3480 C   0  0  1  0  0  0  0  0  0  0  0  0
  147.0561  134.8609  154.7097 C   0  0  0  0  0  0  0  0  0  0  0  0
  147.4776  133.3796  154.6699 C   0  0  1  0  0  0  0  0  0  0  0  0
  148.4878  133.1832  153.5267 C   0  0  0  0  0  0  0  0  0  0  0  0
  149.7424  133.8928  154.0654 C   0  0  0  0  0  0  0  0  0  0  0  0
  149.2921  134.3877  155.4574 C   0  0  2  0  0  0  0  0  0  0  0  0
  148.3710  133.2550  155.8986 C   0  0  0  0  0  0  0  0  0  0  0  0
  147.7293  137.8276  154.5212 C   0  0  0  0  0  0  0  0  0  0  0  0
  148.2439  139.0626  153.7595 C   0  0  0  0  0  0  0  0  0  0  0  0
  151.5004  140.4600  155.2957 H   0  0  0  0  0  0  0  0  0  0  0  0
  152.0977  142.3937  156.4106 H   0  0  0  0  0  0  0  0  0  0  0  0
  150.5493  143.0563  155.9652 H   0  0  0  0  0  0  0  0  0  0  0  0
  149.8461  142.8486  158.1064 H   0  0  0  0  0  0  0  0  0  0  0  0
  149.9229  141.1154  157.9457 H   0  0  0  0  0  0  0  0  0  0  0  0
  152.3636  140.0230  158.3614 H   0  0  0  0  0  0  0  0  0  0  0  0
  154.1936  140.0517  160.0617 H   0  0  0  0  0  0  0  0  0  0  0  0
  154.4402  142.1219  161.5525 H   0  0  0  0  0  0  0  0  0  0  0  0
  151.2272  143.9929  159.7481 H   0  0  0  0  0  0  0  0  0  0  0  0
  150.6938  138.2673  153.2697 H   0  0  0  0  0  0  0  0  0  0  0  0
  151.4936  138.8554  154.6912 H   0  0  0  0  0  0  0  0  0  0  0  0
  150.8452  136.5091  154.9988 H   0  0  0  0  0  0  0  0  0  0  0  0
  149.9916  137.5077  156.1574 H   0  0  0  0  0  0  0  0  0  0  0  0
  148.0221  135.8772  156.3591 H   0  0  0  0  0  0  0  0  0  0  0  0
  146.1708  135.0016  155.3310 H   0  0  0  0  0  0  0  0  0  0  0  0
  146.8201  135.2249  153.7091 H   0  0  0  0  0  0  0  0  0  0  0  0
  146.6383  132.6843  154.6348 H   0  0  0  0  0  0  0  0  0  0  0  0
  148.6875  132.1235  153.3619 H   0  0  0  0  0  0  0  0  0  0  0  0
  148.1400  133.6074  152.5841 H   0  0  0  0  0  0  0  0  0  0  0  0
  150.5671  133.1848  154.1582 H   0  0  0  0  0  0  0  0  0  0  0  0
  150.0747  134.6994  153.4117 H   0  0  0  0  0  0  0  0  0  0  0  0
  150.1172  134.5787  156.1443 H   0  0  0  0  0  0  0  0  0  0  0  0
  147.8491  133.4571  156.8357 H   0  0  0  0  0  0  0  0  0  0  0  0
  148.8750  132.2896  155.9716 H   0  0  0  0  0  0  0  0  0  0  0  0
  146.8316  137.4564  154.0276 H   0  0  0  0  0  0  0  0  0  0  0  0
  147.4332  138.1184  155.5306 H   0  0  0  0  0  0  0  0  0  0  0  0
  147.4670  139.8274  153.7171 H   0  0  0  0  0  0  0  0  0  0  0  0
  148.4558  138.8019  152.7216 H   0  0  0  0  0  0  0  0  0  0  0  0
  148.9283  136.4511  153.6527 H   0  0  0  0  0  0  0  0  0  0  0  0
  152.9611  143.8811  161.2731 H   0  0  0  0  0  0  0  0  0  0  0  0
  1  2  2  0  0  0  0
  2  3  1  0  0  0  0
  2 12  1  0  0  0  0
  3  4  1  0  0  0  0
  3 25  1  0  0  0  0
  4  5  1  0  0  0  0
  4 26  1  0  0  0  0
  4 27  1  0  0  0  0
  5  6  1  0  0  0  0
  5 28  1  0  0  0  0
  5 29  1  0  0  0  0
  6 11  1  0  0  0  0
  6  7  2  0  0  0  0
  7  8  1  0  0  0  0
  7 30  1  0  0  0  0
  8  9  2  0  0  0  0
  8 31  1  0  0  0  0
  9 10  1  0  0  0  0
  9 32  1  0  0  0  0
 10 11  2  0  0  0  0
 10 54  1  0  0  0  0
 11 33  1  0  0  0  0
 12 24  1  0  0  0  0
 12 13  1  0  0  0  0
 13 14  1  0  0  0  0
 13 34  1  0  0  0  0
 13 35  1  0  0  0  0
 14 15  1  0  0  0  0
 14 36  1  0  0  0  0
 14 37  1  0  0  0  0
 15 16  1  0  0  0  0
 15 23  1  0  0  0  0
 15 53  1  0  0  0  0
 16 21  1  0  0  0  0
 16 17  1  0  0  0  0
 16 38  1  0  0  0  0
 17 18  1  0  0  0  0
 17 39  1  0  0  0  0
 17 40  1  0  0  0  0
 18 22  1  0  0  0  0
 18 19  1  0  0  0  0
 18 41  1  0  0  0  0
 19 20  1  0  0  0  0
 19 42  1  0  0  0  0
 19 43  1  0  0  0  0
 20 21  1  0  0  0  0
 20 44  1  0  0  0  0
 20 45  1  0  0  0  0
 21 22  1  0  0  0  0
 21 46  1  0  0  0  0
 22 47  1  0  0  0  0
 22 48  1  0  0  0  0
 23 24  1  0  0  0  0
 23 49  1  0  0  0  0
 23 50  1  0  0  0  0
 24 51  1  0  0  0  0
 24 52  1  0  0  0  0
M  CHG  1  10   1
M  CHG  1  15   1
M  END
> <s_m_source_file>
AV-unprocessed.smi

> <i_m_source_file_index>
867

> <i_lp_mmshare_version>
43012

> <i_f3d_flags>
0

> <s_epik_input>
W0NIMl0xW0NIMl1bQ0BASF0oW0NIMl0yKVtDQEBIXShbQ0gyXVtDQEhdMTIpTihbQ0gyXVtDSDJdMylbQ0gyXVtDSDJdTjNDKD1PKVtOSF1bQ0gyXVtDSDJdYzRbY0hdW2NIXVtjSF1uW2NIXTQ=

> <s_epik_cmdline>
J2VwaWtfcHl0aG9uJywgJy1waCcsICc3LjAnLCAnLXRuJywgJzgnLCAnLW1hJywgJzIwMCcsICctbWV0YWxfYmluZGluZycsICctaW1hZScsICc8aW5maWxlLm1hZT4nLCAnLW9tYWUnLCAnPG91dGZpbGUubWFlPic=

> <r_epik_Ionization_Penalty>
2.25108

> <r_epik_Ionization_Penalty_Charging>
2.25105

> <r_epik_Ionization_Penalty_Neutral>
2.64641e-05

> <r_epik_State_Penalty>
2.39519

> <r_epik_Charging_Adjusted_Penalty>
4.64625

> <i_epik_Tot_Q>
2

> <i_epik_Tot_abs_Q>
2

> <r_epik_Metal_State_Penalty>
2.40865

> <b_epik_Metal_Only>
0

> <s_lp_Force_Field>
OPLS_2005

> <r_lp_Energy>
106.845

> <b_lp_Chiralities_Consistent>
1

> <s_lp_Variant>
AV-unprocessed.smi:867-8

> <Gold.Version>
5.8.1

> <Gold.Id.Protein>
6NUR|6NUR_protein|mol2

> <Gold.PLP.Fitness>
44.1603

> <Gold.PLP.PLP>
-39.3696

> <Gold.PLP.part.hbond>
-1.0000

> <Gold.PLP.part.metal>
0.0000

> <Gold.PLP.part.buried>
-5.8086

> <Gold.PLP.part.nonpolar>
-32.0727

> <Gold.PLP.part.repulsive>
0.5287

> <Gold.PLP.ligand.clash>
0.0000

> <Gold.PLP.ligand.torsion>
0.6598

> <Gold.PLP.Chemscore.Hbond>
2.0000

> <Gold.PLP.Chemscore.CHOScore>
0.0000

> <Gold.PLP.Chemscore.Metal>
0.0000

> <Gold.Chemscore.Hbonds>
donor molecule, donor type, donor heavy atom, donor atom, acceptor molecule, acceptor atom, score
      L1  H    15    53       P1  7948  2.00

> <Gold.PLP.Chemscore.Internal.Correction>
0.1104

> <Gold.Rescore>
     Score         DG    S(hbond)    S(metal)    S(lipo)     H(rot)  DE(clash)    DE(int)     intcor
     17.48     -18.39       1.00        0.00     113.80       1.46       0.34       0.58       ----

> <Gold.Chemscore.Fitness>
17.4802

> <Gold.Chemscore.DG>
-18.3944

> <Gold.Chemscore.ZeroCoef>
-5.4800

> <Gold.Chemscore.Hbond>
0.9971

> <Gold.Chemscore.Metal>
0.0000

> <Gold.Chemscore.Lipo>
113.7999

> <Gold.Chemscore.Internal_Hbond>
0.0000

> <Gold.Chemscore.DEClash>
0.3373

> <Gold.Chemscore.DEInternal>
0.5768

> <Gold.Chemscore.Rot>
1.4572

> <Gold.Chemscore.Internal.Correction>
   9.000000E+99

> <Gold.Chemscore.Hbonds>
donor molecule, donor type, donor heavy atom, donor atom, acceptor molecule, acceptor atom, score
      L1  H    15    53       P1  7948  1.00

> <Gold.Chemscore.Hbond.Weighted>
-3.3303

> <Gold.Chemscore.Metal.Weighted>
-0.0000

> <Gold.Chemscore.Lipo.Weighted>
-13.3146

> <Gold.Chemscore.Internal_Hbond.Weighted>
0.0000

> <Gold.Chemscore.DEClash.Weighted>
0.3373

> <Gold.Chemscore.DEInternal.Weighted>
0.5768

> <Gold.Chemscore.Rot.Weighted>
3.7305

> <Gold.Chemscore.Internal.Correction.Weighted>
   9.000000E+99

> <Gold.Protein.RotatedTorsions>
[ 6907 6896 6895 6894 ] final    4.67 input  -60.11 | X-H torsion
[ 7974 7965 7964 7962 ] final  145.05 input  175.53 | X-H torsion
[ 8008 7997 7996 7995 ] final   82.42 input   59.86 | X-H torsion
[ 10167 10162 10161 10158 ] final  -58.21 input  -65.29 | X-H torsion
[ 10718 10713 10712 10709 ] final  157.53 input   66.30 | X-H torsion
[ 10763 10752 10751 10750 ] final   58.18 input  -60.55 | X-H torsion
[ 11005 11000 10999 10996 ] final  -46.59 input  -57.11 | X-H torsion

> <Gold.Protein.ActiveResidues>
 VAL166  LYS551  ARG553  GLY616  TRP617  ASP618  TYR619  PRO620  LYS621  CYS622 
 ASP623  PHE694  ASN695  SER759  ASP760  ASP761  ALA762  ILE779  LEU786  VAL792 
 PHE793  MET794  SER795  GLU796  ALA797  LYS798  CYS799  TRP800  GLU811  SER814 

> <Gold.Protein.RotatedAtoms>
  151.6450  135.1008  160.0148 H   0  0  0  0  0  0  0  0  0  0  0  0  # atno 6907 bound_to 6896
  152.4033  133.6846  159.6343 H   0  0  0  0  0  0  0  0  0  0  0  0  # atno 6908 bound_to 6896
  150.7930  133.8670  159.3289 H   0  0  0  0  0  0  0  0  0  0  0  0  # atno 6909 bound_to 6896
  144.8785  139.5736  143.5854 H   0  0  0  0  0  0  0  0  0  0  0  0  # atno 7974 bound_to 7965
  155.9104  140.3428  155.6094 H   0  0  0  0  0  0  0  0  0  0  0  0  # atno 8008 bound_to 7997
  155.7394  140.0805  157.2271 H   0  0  0  0  0  0  0  0  0  0  0  0  # atno 8009 bound_to 7997
  154.4055  140.1573  156.2586 H   0  0  0  0  0  0  0  0  0  0  0  0  # atno 8010 bound_to 7997
  140.6211  143.2420  151.5477 H   0  0  0  0  0  0  0  0  0  0  0  0  # atno 10167 bound_to 10162
  157.1903  131.0653  151.2083 H   0  0  0  0  0  0  0  0  0  0  0  0  # atno 10718 bound_to 10713
  152.9865  135.5616  154.5510 H   0  0  0  0  0  0  0  0  0  0  0  0  # atno 10763 bound_to 10752
  154.4947  135.2794  155.1471 H   0  0  0  0  0  0  0  0  0  0  0  0  # atno 10764 bound_to 10752
  154.2925  135.6323  153.5444 H   0  0  0  0  0  0  0  0  0  0  0  0  # atno 10765 bound_to 10752
  141.0588  133.6716  156.3176 H   0  0  0  0  0  0  0  0  0  0  0  0  # atno 11005 bound_to 11000
  146.2979  139.7333  142.9113 LP  0  0  0  0  0  0  0  0  0  0  0  0  # atno 17320 bound_to 7965
  145.3998  141.0383  143.3077 LP  0  0  0  0  0  0  0  0  0  0  0  0  # atno 17321 bound_to 7965
  139.5440  144.2571  152.1406 LP  0  0  0  0  0  0  0  0  0  0  0  0  # atno 17342 bound_to 10162
  140.1792  144.4861  150.6537 LP  0  0  0  0  0  0  0  0  0  0  0  0  # atno 17343 bound_to 10162
  157.3867  130.7260  149.6668 LP  0  0  0  0  0  0  0  0  0  0  0  0  # atno 17370 bound_to 10713
  155.9712  130.4157  150.4197 LP  0  0  0  0  0  0  0  0  0  0  0  0  # atno 17371 bound_to 10713
  140.5910  134.5650  157.5499 LP  0  0  0  0  0  0  0  0  0  0  0  0  # atno 17394 bound_to 11000
  139.9414  134.7780  156.0669 LP  0  0  0  0  0  0  0  0  0  0  0  0  # atno 17395 bound_to 11000

$$$$
