AV-unprocessed.smi:170|AV-procd|sdf|1413|dock10
  -GOLD-   2262019173D 1   1.00000     0.00000
 Structure written by MMmdl.
 57 61  0  0  0  0  0  0  0  0  1 V2000
  150.8006  133.9301  157.2020 O   0  0  0  0  0  0  0  0  0  0  0  0
  149.6297  134.6153  156.7979 C   0  0  1  0  0  0  0  0  0  0  0  0
  150.0153  136.0174  156.2851 C   0  0  0  0  0  0  0  0  0  0  0  0
  150.6535  136.8249  157.3098 N   0  0  0  0  0  0  0  0  0  0  0  0
  150.0654  137.3407  158.4431 C   0  0  0  0  0  0  0  0  0  0  0  0
  150.8549  138.0446  159.2086 N   0  0  0  0  0  0  0  0  0  0  0  0
  152.0784  138.0081  158.5519 C   0  0  0  0  0  0  0  0  0  0  0  0
  153.3570  138.5648  158.8177 C   0  0  0  0  0  0  0  0  0  0  0  0
  153.5949  139.3095  159.9234 N   0  0  0  0  0  0  0  0  0  0  0  0
  154.5344  138.6152  160.7976 C   0  0  0  0  0  0  0  0  0  0  0  0
  154.6816  139.3624  162.1287 C   0  0  0  0  0  0  0  0  0  0  0  0
  155.0940  140.6950  161.8612 O   0  0  0  0  0  0  0  0  0  0  0  0
  154.1237  141.4056  161.1014 C   0  0  0  0  0  0  0  0  0  0  0  0
  153.9019  140.7335  159.7249 C   0  0  2  0  0  0  0  0  0  0  0  0
  152.7924  141.4627  158.9212 C   0  0  0  0  0  0  0  0  0  0  0  0
  152.5360  142.9004  159.3689 C   0  0  0  0  0  0  0  0  0  0  0  0
  151.2360  143.6049  158.9520 C   0  0  0  0  0  0  0  0  0  0  0  0
  152.0284  144.9117  158.8583 C   0  0  0  0  0  0  0  0  0  0  0  0
  153.2888  144.0578  158.6952 C   0  0  0  0  0  0  0  0  0  0  0  0
  154.3583  138.3049  157.9349 N   0  0  0  0  0  0  0  0  0  0  0  0
  154.1167  137.5624  156.8502 C   0  0  0  0  0  0  0  0  0  0  0  0
  152.9731  136.9891  156.4679 N   0  0  0  0  0  0  0  0  0  0  0  0
  151.9716  137.2407  157.3592 C   0  0  0  0  0  0  0  0  0  0  0  0
  148.9067  133.7779  155.7265 C   0  0  1  0  0  0  0  0  0  0  0  0
  149.5514  133.8357  154.3398 C   0  0  0  0  0  0  0  0  0  0  0  0
  149.0724  132.5416  153.7240 C   0  0  0  0  0  0  0  0  0  0  0  0
  149.1411  131.5904  154.9140 C   0  0  0  0  0  0  0  0  0  0  0  0
  148.9296  132.3941  156.0724 O   0  0  0  0  0  0  0  0  0  0  0  0
  150.8266  133.0948  156.7614 H   0  0  0  0  0  0  0  0  0  0  0  0
  148.9825  134.7167  157.6701 H   0  0  0  0  0  0  0  0  0  0  0  0
  150.6886  135.9405  155.4302 H   0  0  0  0  0  0  0  0  0  0  0  0
  149.1306  136.5519  155.9375 H   0  0  0  0  0  0  0  0  0  0  0  0
  149.0240  137.1828  158.6830 H   0  0  0  0  0  0  0  0  0  0  0  0
  154.1924  137.5964  160.9865 H   0  0  0  0  0  0  0  0  0  0  0  0
  155.5051  138.5426  160.3045 H   0  0  0  0  0  0  0  0  0  0  0  0
  153.7445  139.3581  162.6879 H   0  0  0  0  0  0  0  0  0  0  0  0
  155.4309  138.8757  162.7529 H   0  0  0  0  0  0  0  0  0  0  0  0
  153.1887  141.4662  161.6611 H   0  0  0  0  0  0  0  0  0  0  0  0
  154.4866  142.4255  160.9788 H   0  0  0  0  0  0  0  0  0  0  0  0
  154.8385  140.7982  159.1689 H   0  0  0  0  0  0  0  0  0  0  0  0
  153.0451  141.4774  157.8615 H   0  0  0  0  0  0  0  0  0  0  0  0
  151.8670  140.8897  158.9880 H   0  0  0  0  0  0  0  0  0  0  0  0
  152.6401  142.9981  160.4511 H   0  0  0  0  0  0  0  0  0  0  0  0
  150.8614  143.2711  157.9829 H   0  0  0  0  0  0  0  0  0  0  0  0
  150.4510  143.5991  159.7089 H   0  0  0  0  0  0  0  0  0  0  0  0
  151.7833  145.5348  157.9980 H   0  0  0  0  0  0  0  0  0  0  0  0
  152.0196  145.4804  159.7896 H   0  0  0  0  0  0  0  0  0  0  0  0
  154.1599  144.4160  159.2444 H   0  0  0  0  0  0  0  0  0  0  0  0
  153.5278  143.8555  157.6497 H   0  0  0  0  0  0  0  0  0  0  0  0
  154.9605  137.4058  156.1946 H   0  0  0  0  0  0  0  0  0  0  0  0
  147.8612  134.0815  155.6489 H   0  0  0  0  0  0  0  0  0  0  0  0
  149.2544  134.7154  153.7682 H   0  0  0  0  0  0  0  0  0  0  0  0
  150.6397  133.8300  154.4188 H   0  0  0  0  0  0  0  0  0  0  0  0
  148.0412  132.6483  153.3844 H   0  0  0  0  0  0  0  0  0  0  0  0
  149.6802  132.2144  152.8800 H   0  0  0  0  0  0  0  0  0  0  0  0
  148.4066  130.7874  154.8456 H   0  0  0  0  0  0  0  0  0  0  0  0
  150.1316  131.1386  154.9843 H   0  0  0  0  0  0  0  0  0  0  0  0
  1  2  1  0  0  0  0
  1 29  1  0  0  0  0
  2  3  1  0  0  0  0
  2 24  1  0  0  0  0
  2 30  1  0  0  0  0
  3  4  1  0  0  0  0
  3 31  1  0  0  0  0
  3 32  1  0  0  0  0
  4 23  1  0  0  0  0
  4  5  1  0  0  0  0
  5  6  2  0  0  0  0
  5 33  1  0  0  0  0
  6  7  1  0  0  0  0
  7 23  2  0  0  0  0
  7  8  1  0  0  0  0
  8  9  1  0  0  0  0
  8 20  2  0  0  0  0
  9 14  1  0  0  0  0
  9 10  1  0  0  0  0
 10 11  1  0  0  0  0
 10 34  1  0  0  0  0
 10 35  1  0  0  0  0
 11 12  1  0  0  0  0
 11 36  1  0  0  0  0
 11 37  1  0  0  0  0
 12 13  1  0  0  0  0
 13 14  1  0  0  0  0
 13 38  1  0  0  0  0
 13 39  1  0  0  0  0
 14 15  1  0  0  0  0
 14 40  1  0  0  0  0
 15 16  1  0  0  0  0
 15 41  1  0  0  0  0
 15 42  1  0  0  0  0
 16 19  1  0  0  0  0
 16 17  1  0  0  0  0
 16 43  1  0  0  0  0
 17 18  1  0  0  0  0
 17 44  1  0  0  0  0
 17 45  1  0  0  0  0
 18 19  1  0  0  0  0
 18 46  1  0  0  0  0
 18 47  1  0  0  0  0
 19 48  1  0  0  0  0
 19 49  1  0  0  0  0
 20 21  1  0  0  0  0
 21 22  2  0  0  0  0
 21 50  1  0  0  0  0
 22 23  1  0  0  0  0
 24 28  1  0  0  0  0
 24 25  1  0  0  0  0
 24 51  1  0  0  0  0
 25 26  1  0  0  0  0
 25 52  1  0  0  0  0
 25 53  1  0  0  0  0
 26 27  1  0  0  0  0
 26 54  1  0  0  0  0
 26 55  1  0  0  0  0
 27 28  1  0  0  0  0
 27 56  1  0  0  0  0
 27 57  1  0  0  0  0
M  END
> <s_m_source_file>
AV-unprocessed.smi

> <i_m_source_file_index>
170

> <i_lp_mmshare_version>
43012

> <i_f3d_flags>
0

> <s_epik_input>
TzFbQ0gyXVtDSDJdW0NIMl1bQ0BIXTFbQ0BIXShbT0hdKVtDSDJdbihbY0hdbjIpYyhjMjMpbltjSF1uYzNONFtDSDJdW0NIMl1PW0NIMl1bQ0BIXTRbQ0gyXVtDSF01W0NIMl1bQ0gyXVtDSDJdNQ==

> <s_epik_cmdline>
J2VwaWtfcHl0aG9uJywgJy1waCcsICc3LjAnLCAnLXRuJywgJzgnLCAnLW1hJywgJzIwMCcsICctbWV0YWxfYmluZGluZycsICctaW1hZScsICc8aW5maWxlLm1hZT4nLCAnLW9tYWUnLCAnPG91dGZpbGUubWFlPic=

> <r_lp_tautomer_probability>
1

> <r_epik_Ionization_Penalty>
4.98275e-05

> <r_epik_Ionization_Penalty_Charging>
0

> <r_epik_Ionization_Penalty_Neutral>
4.98275e-05

> <r_epik_State_Penalty>
-0

> <r_epik_Charging_Adjusted_Penalty>
0

> <i_epik_Tot_Q>
0

> <i_epik_Tot_abs_Q>
0

> <r_epik_Metal_State_Penalty>
-0

> <b_epik_Metal_Only>
0

> <s_lp_Force_Field>
OPLS_2005

> <r_lp_Energy>
50.2735

> <b_lp_Chiralities_Consistent>
1

> <s_lp_Variant>
AV-unprocessed.smi:170-8

> <Gold.Version>
5.8.1

> <Gold.Id.Protein>
6NUR|6NUR_protein|mol2

> <Gold.PLP.Fitness>
50.7698

> <Gold.PLP.PLP>
-46.1481

> <Gold.PLP.part.hbond>
-4.0908

> <Gold.PLP.part.metal>
0.0000

> <Gold.PLP.part.buried>
-6.0860

> <Gold.PLP.part.nonpolar>
-36.0013

> <Gold.PLP.part.repulsive>
0.0000

> <Gold.PLP.ligand.clash>
0.0000

> <Gold.PLP.ligand.torsion>
1.2203

> <Gold.PLP.Chemscore.Hbond>
2.2653

> <Gold.PLP.Chemscore.CHOScore>
0.0000

> <Gold.PLP.Chemscore.Metal>
0.0000

> <Gold.Chemscore.Hbonds>
donor molecule, donor type, donor heavy atom, donor atom, acceptor molecule, acceptor atom, score
      P1  H  6896  6907       L1     1  0.54
      P1  H  7997  8010       L1    20  0.93
      P1  H 10752 10763       L1    22  0.71

> <Gold.PLP.Chemscore.Internal.Correction>
0.2665

> <Gold.Rescore>
     Score         DG    S(hbond)    S(metal)    S(lipo)     H(rot)  DE(clash)    DE(int)     intcor
     17.48     -18.58       1.64        0.00     122.31       2.61       0.03       1.07       ----

> <Gold.Chemscore.Fitness>
17.4756

> <Gold.Chemscore.DG>
-18.5775

> <Gold.Chemscore.ZeroCoef>
-5.4800

> <Gold.Chemscore.Hbond>
1.6408

> <Gold.Chemscore.Metal>
0.0000

> <Gold.Chemscore.Lipo>
122.3101

> <Gold.Chemscore.Internal_Hbond>
0.0000

> <Gold.Chemscore.DEClash>
0.0327

> <Gold.Chemscore.DEInternal>
1.0692

> <Gold.Chemscore.Rot>
2.6144

> <Gold.Chemscore.Internal.Correction>
   9.000000E+99

> <Gold.Chemscore.Hbonds>
donor molecule, donor type, donor heavy atom, donor atom, acceptor molecule, acceptor atom, score
      P1  H  6896  6907       L1     1  0.32
      P1  H  7997  8010       L1    20  0.20
      P1  H 10752 10763       L1    22  0.60

> <Gold.Chemscore.Hbond.Weighted>
-5.4802

> <Gold.Chemscore.Metal.Weighted>
-0.0000

> <Gold.Chemscore.Lipo.Weighted>
-14.3103

> <Gold.Chemscore.Internal_Hbond.Weighted>
0.0000

> <Gold.Chemscore.DEClash.Weighted>
0.0327

> <Gold.Chemscore.DEInternal.Weighted>
1.0692

> <Gold.Chemscore.Rot.Weighted>
6.6929

> <Gold.Chemscore.Internal.Correction.Weighted>
   9.000000E+99

> <Gold.Protein.RotatedTorsions>
[ 6907 6896 6895 6894 ] final -116.06 input  -60.11 | X-H torsion
[ 7974 7965 7964 7962 ] final -139.68 input  175.53 | X-H torsion
[ 8008 7997 7996 7995 ] final   16.07 input   59.86 | X-H torsion
[ 10167 10162 10161 10158 ] final  129.67 input  -65.29 | X-H torsion
[ 10718 10713 10712 10709 ] final   63.34 input   66.30 | X-H torsion
[ 10763 10752 10751 10750 ] final   91.93 input  -60.55 | X-H torsion
[ 11005 11000 10999 10996 ] final -175.09 input  -57.11 | X-H torsion

> <Gold.Protein.ActiveResidues>
 VAL166  LYS551  ARG553  GLY616  TRP617  ASP618  TYR619  PRO620  LYS621  CYS622 
 ASP623  PHE694  ASN695  SER759  ASP760  ASP761  ALA762  ILE779  LEU786  VAL792 
 PHE793  MET794  SER795  GLU796  ALA797  LYS798  CYS799  TRP800  GLU811  SER814 

> <Gold.Protein.RotatedAtoms>
  150.8026  133.8570  159.3220 H   0  0  0  0  0  0  0  0  0  0  0  0  # atno 6907 bound_to 6896
  151.6378  135.1014  160.0144 H   0  0  0  0  0  0  0  0  0  0  0  0  # atno 6908 bound_to 6896
  152.4115  133.6931  159.6437 H   0  0  0  0  0  0  0  0  0  0  0  0  # atno 6909 bound_to 6896
  144.8658  140.6290  143.5299 H   0  0  0  0  0  0  0  0  0  0  0  0  # atno 7974 bound_to 7965
  154.8716  140.2959  155.5478 H   0  0  0  0  0  0  0  0  0  0  0  0  # atno 8008 bound_to 7997
  156.3021  140.2459  156.3639 H   0  0  0  0  0  0  0  0  0  0  0  0  # atno 8009 bound_to 7997
  154.8811  140.0398  157.1772 H   0  0  0  0  0  0  0  0  0  0  0  0  # atno 8010 bound_to 7997
  139.5466  144.6779  151.4452 H   0  0  0  0  0  0  0  0  0  0  0  0  # atno 10167 bound_to 10162
  157.5964  130.9100  149.9704 H   0  0  0  0  0  0  0  0  0  0  0  0  # atno 10718 bound_to 10713
  153.2137  135.4379  155.0409 H   0  0  0  0  0  0  0  0  0  0  0  0  # atno 10763 bound_to 10752
  154.8213  135.3339  154.7031 H   0  0  0  0  0  0  0  0  0  0  0  0  # atno 10764 bound_to 10752
  153.7467  135.7001  153.5010 H   0  0  0  0  0  0  0  0  0  0  0  0  # atno 10765 bound_to 10752
  140.4672  134.6199  157.4867 H   0  0  0  0  0  0  0  0  0  0  0  0  # atno 11005 bound_to 11000
  145.4225  139.1561  143.4066 LP  0  0  0  0  0  0  0  0  0  0  0  0  # atno 17320 bound_to 7965
  146.2894  140.4336  142.8745 LP  0  0  0  0  0  0  0  0  0  0  0  0  # atno 17321 bound_to 7965
  140.6717  143.8280  150.7007 LP  0  0  0  0  0  0  0  0  0  0  0  0  # atno 17342 bound_to 10162
  140.1706  143.4198  152.2003 LP  0  0  0  0  0  0  0  0  0  0  0  0  # atno 17343 bound_to 10162
  156.1028  130.3654  150.0187 LP  0  0  0  0  0  0  0  0  0  0  0  0  # atno 17370 bound_to 10713
  156.8299  130.9389  151.3637 LP  0  0  0  0  0  0  0  0  0  0  0  0  # atno 17371 bound_to 10713
  139.9908  134.6989  155.9694 LP  0  0  0  0  0  0  0  0  0  0  0  0  # atno 17394 bound_to 11000
  141.1594  133.6540  156.4267 LP  0  0  0  0  0  0  0  0  0  0  0  0  # atno 17395 bound_to 11000

$$$$
