AV-unprocessed.smi:3150|AV-procd|sdf|12008|dock4
  -GOLD-   2272017413D 1   1.00000     0.00000
 Structure written by MMmdl.
 33 34  0  0  0  0  0  0  0  0  1 V2000
  154.5724  140.1880  160.1245 C   0  0  0  0  0  0  0  0  0  0  0  0
  153.2185  140.8025  159.7386 C   0  0  1  0  0  0  0  0  0  0  0  0
  153.3830  142.2175  159.6978 O   0  0  0  0  0  0  0  0  0  0  0  0
  152.3249  142.9701  160.2785 C   0  0  0  0  0  0  0  0  0  0  0  0
  152.4027  144.3930  159.7690 C   0  0  0  0  0  0  0  0  0  0  0  0
  151.1926  145.0435  159.1376 C   0  0  0  0  0  0  0  0  0  0  0  0
  152.3824  144.6831  158.2852 C   0  0  0  0  0  0  0  0  0  0  0  0
  152.7323  140.2814  158.3764 C   0  0  0  0  0  0  0  0  0  0  0  0
  153.3907  139.4301  157.7778 O   0  0  0  0  0  0  0  0  0  0  0  0
  151.5906  140.8277  157.9185 N   0  0  0  0  0  0  0  0  0  0  0  0
  150.9055  140.5629  156.7008 C   0  0  0  0  0  0  0  0  0  0  0  0
  151.2082  139.5154  155.8932 N   0  0  0  0  0  0  0  0  0  0  0  0
  150.5085  139.3329  154.7542 C   0  0  0  0  0  0  0  0  0  0  0  0
  149.4637  140.1824  154.3488 C   0  0  0  0  0  0  0  0  0  0  0  0
  149.1388  141.2724  155.1748 C   0  0  0  0  0  0  0  0  0  0  0  0
  149.8663  141.4684  156.3660 C   0  0  0  0  0  0  0  0  0  0  0  0
  149.5557  142.5277  157.1731 O   0  0  0  0  0  0  0  0  0  0  0  0
  154.5192  139.0992  160.1533 H   0  0  0  0  0  0  0  0  0  0  0  0
  154.8826  140.5280  161.1128 H   0  0  0  0  0  0  0  0  0  0  0  0
  155.3567  140.4679  159.4202 H   0  0  0  0  0  0  0  0  0  0  0  0
  152.4949  140.5447  160.5147 H   0  0  0  0  0  0  0  0  0  0  0  0
  151.3485  142.5501  160.0330 H   0  0  0  0  0  0  0  0  0  0  0  0
  152.4214  142.9799  161.3647 H   0  0  0  0  0  0  0  0  0  0  0  0
  153.0244  145.0456  160.3791 H   0  0  0  0  0  0  0  0  0  0  0  0
  150.2935  144.4413  159.0218 H   0  0  0  0  0  0  0  0  0  0  0  0
  151.0237  146.0983  159.3446 H   0  0  0  0  0  0  0  0  0  0  0  0
  153.0085  145.4969  157.9253 H   0  0  0  0  0  0  0  0  0  0  0  0
  152.2776  143.8400  157.6050 H   0  0  0  0  0  0  0  0  0  0  0  0
  151.1587  141.5223  158.5106 H   0  0  0  0  0  0  0  0  0  0  0  0
  150.7899  138.4839  154.1490 H   0  0  0  0  0  0  0  0  0  0  0  0
  148.9269  140.0020  153.4296 H   0  0  0  0  0  0  0  0  0  0  0  0
  148.3426  141.9474  154.8973 H   0  0  0  0  0  0  0  0  0  0  0  0
  149.5597  143.3551  156.7163 H   0  0  0  0  0  0  0  0  0  0  0  0
  1  2  1  0  0  0  0
  1 18  1  0  0  0  0
  1 19  1  0  0  0  0
  1 20  1  0  0  0  0
  2  3  1  0  0  0  0
  2  8  1  0  0  0  0
  2 21  1  0  0  0  0
  3  4  1  0  0  0  0
  4  5  1  0  0  0  0
  4 22  1  0  0  0  0
  4 23  1  0  0  0  0
  5  7  1  0  0  0  0
  5  6  1  0  0  0  0
  5 24  1  0  0  0  0
  6  7  1  0  0  0  0
  6 25  1  0  0  0  0
  6 26  1  0  0  0  0
  7 27  1  0  0  0  0
  7 28  1  0  0  0  0
  8  9  2  0  0  0  0
  8 10  1  0  0  0  0
 10 11  1  0  0  0  0
 10 29  1  0  0  0  0
 11 16  1  0  0  0  0
 11 12  2  0  0  0  0
 12 13  1  0  0  0  0
 13 14  2  0  0  0  0
 13 30  1  0  0  0  0
 14 15  1  0  0  0  0
 14 31  1  0  0  0  0
 15 16  2  0  0  0  0
 15 32  1  0  0  0  0
 16 17  1  0  0  0  0
 17 33  1  0  0  0  0
M  END
> <s_m_source_file>
AV-unprocessed.smi

> <i_m_source_file_index>
3150

> <i_lp_mmshare_version>
43012

> <i_f3d_flags>
0

> <s_epik_input>
W0NIMl0xW0NIMl1bQ0hdMVtDSDJdT1tDQEBIXShbQ0gzXSlDKD1PKVtOSF1jMm5bY0hdW2NIXVtjSF1jMltPSF0=

> <s_epik_cmdline>
J2VwaWtfcHl0aG9uJywgJy1waCcsICc3LjAnLCAnLXRuJywgJzgnLCAnLW1hJywgJzIwMCcsICctbWV0YWxfYmluZGluZycsICctaW1hZScsICc8aW5maWxlLm1hZT4nLCAnLW9tYWUnLCAnPG91dGZpbGUubWFlPic=

> <r_lp_tautomer_probability>
0.43658

> <r_epik_Ionization_Penalty>
0.0204299

> <r_epik_Ionization_Penalty_Charging>
0

> <r_epik_Ionization_Penalty_Neutral>
0.0204299

> <r_epik_State_Penalty>
0.419322

> <r_epik_Charging_Adjusted_Penalty>
0.419322

> <i_epik_Tot_Q>
0

> <i_epik_Tot_abs_Q>
0

> <r_epik_Metal_State_Penalty>
0.377394

> <b_epik_Metal_Only>
0

> <s_lp_Force_Field>
OPLS_2005

> <r_lp_Energy>
16.197

> <b_lp_Chiralities_Consistent>
1

> <s_lp_Variant>
AV-unprocessed.smi:3150-2

> <Gold.Version>
5.8.1

> <Gold.Id.Protein>
6NUR|6NUR_protein|mol2

> <Gold.PLP.Fitness>
43.3009

> <Gold.PLP.PLP>
-39.1141

> <Gold.PLP.part.hbond>
-2.0000

> <Gold.PLP.part.metal>
0.0000

> <Gold.PLP.part.buried>
-4.4485

> <Gold.PLP.part.nonpolar>
-32.5282

> <Gold.PLP.part.repulsive>
0.0804

> <Gold.PLP.ligand.clash>
0.0000

> <Gold.PLP.ligand.torsion>
1.0862

> <Gold.PLP.Chemscore.Hbond>
1.9280

> <Gold.PLP.Chemscore.CHOScore>
0.0000

> <Gold.PLP.Chemscore.Metal>
0.0000

> <Gold.Chemscore.Hbonds>
donor molecule, donor type, donor heavy atom, donor atom, acceptor molecule, acceptor atom, score
      L1  H    17    33       P1  8028  1.00
      P1  H  7997  8010       L1     9  0.93

> <Gold.PLP.Chemscore.Internal.Correction>
0.5752

> <Gold.Rescore>
     Score         DG    S(hbond)    S(metal)    S(lipo)     H(rot)  DE(clash)    DE(int)     intcor
     14.72     -17.13       1.90        0.00      93.86       2.22       0.02       2.39       ----

> <Gold.Chemscore.Fitness>
14.7176

> <Gold.Chemscore.DG>
-17.1321

> <Gold.Chemscore.ZeroCoef>
-5.4800

> <Gold.Chemscore.Hbond>
1.9017

> <Gold.Chemscore.Metal>
0.0000

> <Gold.Chemscore.Lipo>
93.8604

> <Gold.Chemscore.Internal_Hbond>
0.0000

> <Gold.Chemscore.DEClash>
0.0243

> <Gold.Chemscore.DEInternal>
2.3902

> <Gold.Chemscore.Rot>
2.2192

> <Gold.Chemscore.Internal.Correction>
   9.000000E+99

> <Gold.Chemscore.Hbonds>
donor molecule, donor type, donor heavy atom, donor atom, acceptor molecule, acceptor atom, score
      L1  H    17    33       P1  8028  0.99
      P1  H  7997  8010       L1     9  0.77

> <Gold.Chemscore.Hbond.Weighted>
-6.3517

> <Gold.Chemscore.Metal.Weighted>
-0.0000

> <Gold.Chemscore.Lipo.Weighted>
-10.9817

> <Gold.Chemscore.Internal_Hbond.Weighted>
0.0000

> <Gold.Chemscore.DEClash.Weighted>
0.0243

> <Gold.Chemscore.DEInternal.Weighted>
2.3902

> <Gold.Chemscore.Rot.Weighted>
5.6812

> <Gold.Chemscore.Internal.Correction.Weighted>
   9.000000E+99

> <Gold.Protein.RotatedTorsions>
[ 6907 6896 6895 6894 ] final -131.56 input  -60.11 | X-H torsion
[ 7974 7965 7964 7962 ] final   32.10 input  175.53 | X-H torsion
[ 8008 7997 7996 7995 ] final   61.19 input   59.86 | X-H torsion
[ 10167 10162 10161 10158 ] final  -24.53 input  -65.29 | X-H torsion
[ 10718 10713 10712 10709 ] final   13.02 input   66.30 | X-H torsion
[ 10763 10752 10751 10750 ] final  -69.83 input  -60.55 | X-H torsion
[ 11005 11000 10999 10996 ] final   41.59 input  -57.11 | X-H torsion

> <Gold.Protein.ActiveResidues>
 VAL166  LYS551  ARG553  GLY616  TRP617  ASP618  TYR619  PRO620  LYS621  CYS622 
 ASP623  PHE694  ASN695  SER759  ASP760  ASP761  ALA762  ILE779  LEU786  VAL792 
 PHE793  MET794  SER795  GLU796  ALA797  LYS798  CYS799  TRP800  GLU811  SER814 

> <Gold.Protein.RotatedAtoms>
  150.9524  133.6535  159.2769 H   0  0  0  0  0  0  0  0  0  0  0  0  # atno 6907 bound_to 6896
  151.3886  135.0951  159.9528 H   0  0  0  0  0  0  0  0  0  0  0  0  # atno 6908 bound_to 6896
  152.5115  133.9043  159.7511 H   0  0  0  0  0  0  0  0  0  0  0  0  # atno 6909 bound_to 6896
  146.1508  139.6569  142.9100 H   0  0  0  0  0  0  0  0  0  0  0  0  # atno 7974 bound_to 7965
  155.5944  140.3493  155.4575 H   0  0  0  0  0  0  0  0  0  0  0  0  # atno 8008 bound_to 7997
  156.0277  140.1267  157.0316 H   0  0  0  0  0  0  0  0  0  0  0  0  # atno 8009 bound_to 7997
  154.4339  140.1050  156.6040 H   0  0  0  0  0  0  0  0  0  0  0  0  # atno 8010 bound_to 7997
  140.7288  143.4344  151.0751 H   0  0  0  0  0  0  0  0  0  0  0  0  # atno 10167 bound_to 10162
  157.0185  130.6145  149.5718 H   0  0  0  0  0  0  0  0  0  0  0  0  # atno 10718 bound_to 10713
  154.4091  135.6013  153.5942 H   0  0  0  0  0  0  0  0  0  0  0  0  # atno 10763 bound_to 10752
  152.9790  135.5925  154.4092 H   0  0  0  0  0  0  0  0  0  0  0  0  # atno 10764 bound_to 10752
  154.3902  135.2842  155.2138 H   0  0  0  0  0  0  0  0  0  0  0  0  # atno 10765 bound_to 10752
  140.1820  134.4092  155.8194 H   0  0  0  0  0  0  0  0  0  0  0  0  # atno 11005 bound_to 11000
  145.4828  141.0438  143.2636 LP  0  0  0  0  0  0  0  0  0  0  0  0  # atno 17320 bound_to 7965
  144.7901  139.6345  143.7117 LP  0  0  0  0  0  0  0  0  0  0  0  0  # atno 17321 bound_to 7965
  139.8005  143.8091  152.3162 LP  0  0  0  0  0  0  0  0  0  0  0  0  # atno 17342 bound_to 10162
  139.8105  144.7337  150.9703 LP  0  0  0  0  0  0  0  0  0  0  0  0  # atno 17343 bound_to 10162
  156.0110  130.5202  150.7989 LP  0  0  0  0  0  0  0  0  0  0  0  0  # atno 17370 bound_to 10713
  157.5267  131.0934  151.0008 LP  0  0  0  0  0  0  0  0  0  0  0  0  # atno 17371 bound_to 10713
  141.2223  133.7005  156.7947 LP  0  0  0  0  0  0  0  0  0  0  0  0  # atno 17394 bound_to 11000
  140.2256  134.8724  157.3423 LP  0  0  0  0  0  0  0  0  0  0  0  0  # atno 17395 bound_to 11000

$$$$
