AV-unprocessed.smi:1206|AV-procd|sdf|5048|dock9
  -GOLD-   22720 4 73D 1   1.00000     0.00000
 Structure written by MMmdl.
 40 41  0  0  0  0  0  0  0  0  3 V2000
  146.7210  137.8024  155.0881 C   0  0  0  0  0  0  0  0  0  0  0  0
  147.1671  139.0549  155.7525 N   0  3  0  0  0  0  0  0  0  0  0  0
  146.5943  140.2352  155.0573 C   0  0  0  0  0  0  0  0  0  0  0  0
  148.6369  139.1143  156.1016 C   0  0  0  0  0  0  0  0  0  0  0  0
  148.9879  137.8305  156.9199 C   0  0  0  0  0  0  0  0  0  0  0  0
  148.3792  137.8231  158.2508 N   0  0  0  0  0  0  0  0  0  0  0  0
  148.7517  137.0736  159.2981 C   0  0  0  0  0  0  0  0  0  0  0  0
  149.7290  136.3281  159.2076 O   0  0  0  0  0  0  0  0  0  0  0  0
  147.9549  137.2194  160.3789 N   0  5  0  0  0  0  0  0  0  0  0  0
  147.5777  136.1391  161.0828 C   0  0  0  0  0  0  0  0  0  0  0  0
  147.2640  134.9740  160.4940 N   0  0  0  0  0  0  0  0  0  0  0  0
  146.9025  133.9852  161.3991 N   0  0  0  0  0  0  0  0  0  0  0  0
  146.9432  134.4357  162.6529 C   0  0  0  0  0  0  0  0  0  0  0  0
  147.4270  136.1080  162.8417 S   0  0  0  0  0  0  0  0  0  0  0  0
  149.5118  139.1858  154.8135 C   0  0  0  0  0  0  0  0  0  0  0  0
  151.0147  139.3908  155.0871 C   0  0  0  0  0  0  0  0  0  0  0  0
  151.2738  140.6270  155.9577 C   0  0  0  0  0  0  0  0  0  0  0  0
  150.4649  140.5687  157.2600 C   0  0  0  0  0  0  0  0  0  0  0  0
  148.9657  140.3787  156.9651 C   0  0  0  0  0  0  0  0  0  0  0  0
  147.0273  137.7775  154.0419 H   0  0  0  0  0  0  0  0  0  0  0  0
  145.6333  137.7328  155.1146 H   0  0  0  0  0  0  0  0  0  0  0  0
  147.1054  136.9086  155.5761 H   0  0  0  0  0  0  0  0  0  0  0  0
  147.1262  140.4472  154.1294 H   0  0  0  0  0  0  0  0  0  0  0  0
  146.6123  141.1228  155.6895 H   0  0  0  0  0  0  0  0  0  0  0  0
  145.5463  140.0642  154.8092 H   0  0  0  0  0  0  0  0  0  0  0  0
  148.7170  136.9273  156.3731 H   0  0  0  0  0  0  0  0  0  0  0  0
  150.0608  137.7339  157.0695 H   0  0  0  0  0  0  0  0  0  0  0  0
  147.5797  138.4257  158.3840 H   0  0  0  0  0  0  0  0  0  0  0  0
  146.6839  133.7806  163.4711 H   0  0  0  0  0  0  0  0  0  0  0  0
  149.4022  138.2783  154.2196 H   0  0  0  0  0  0  0  0  0  0  0  0
  149.1640  140.0047  154.1825 H   0  0  0  0  0  0  0  0  0  0  0  0
  151.4341  138.5070  155.5681 H   0  0  0  0  0  0  0  0  0  0  0  0
  151.5459  139.4942  154.1404 H   0  0  0  0  0  0  0  0  0  0  0  0
  152.3375  140.7102  156.1819 H   0  0  0  0  0  0  0  0  0  0  0  0
  151.0040  141.5252  155.4009 H   0  0  0  0  0  0  0  0  0  0  0  0
  150.8405  139.7739  157.9037 H   0  0  0  0  0  0  0  0  0  0  0  0
  150.6112  141.4937  157.8185 H   0  0  0  0  0  0  0  0  0  0  0  0
  148.6593  141.2863  156.4458 H   0  0  0  0  0  0  0  0  0  0  0  0
  148.4072  140.3659  157.9016 H   0  0  0  0  0  0  0  0  0  0  0  0
  146.7051  139.0469  156.6518 H   0  0  0  0  0  0  0  0  0  0  0  0
  1  2  1  0  0  0  0
  1 20  1  0  0  0  0
  1 21  1  0  0  0  0
  1 22  1  0  0  0  0
  2  3  1  0  0  0  0
  2  4  1  0  0  0  0
  2 40  1  0  0  0  0
  3 23  1  0  0  0  0
  3 24  1  0  0  0  0
  3 25  1  0  0  0  0
  4 19  1  0  0  0  0
  4  5  1  0  0  0  0
  4 15  1  0  0  0  0
  5  6  1  0  0  0  0
  5 26  1  0  0  0  0
  5 27  1  0  0  0  0
  6  7  1  0  0  0  0
  6 28  1  0  0  0  0
  7  8  2  0  0  0  0
  7  9  1  0  0  0  0
  9 10  1  0  0  0  0
 10 14  1  0  0  0  0
 10 11  2  0  0  0  0
 11 12  1  0  0  0  0
 12 13  2  0  0  0  0
 13 14  1  0  0  0  0
 13 29  1  0  0  0  0
 15 16  1  0  0  0  0
 15 30  1  0  0  0  0
 15 31  1  0  0  0  0
 16 17  1  0  0  0  0
 16 32  1  0  0  0  0
 16 33  1  0  0  0  0
 17 18  1  0  0  0  0
 17 34  1  0  0  0  0
 17 35  1  0  0  0  0
 18 19  1  0  0  0  0
 18 36  1  0  0  0  0
 18 37  1  0  0  0  0
 19 38  1  0  0  0  0
 19 39  1  0  0  0  0
M  CHG  1   2   1
M  CHG  1   9  -1
M  END
> <s_m_source_file>
AV-unprocessed.smi

> <i_m_source_file_index>
1206

> <i_lp_mmshare_version>
43012

> <i_f3d_flags>
0

> <s_epik_input>
W0NIMl0xW0NIMl1bQ0gyXVtDSDJdW0NIMl1DMShOKFtDSDNdKVtDSDNdKVtDSDJdW05IXUMoPU8pW05IXWMybm5bY0hdczI=

> <s_epik_cmdline>
J2VwaWtfcHl0aG9uJywgJy1waCcsICc3LjAnLCAnLXRuJywgJzgnLCAnLW1hJywgJzIwMCcsICctbWV0YWxfYmluZGluZycsICctaW1hZScsICc8aW5maWxlLm1hZT4nLCAnLW9tYWUnLCAnPG91dGZpbGUubWFlPic=

> <r_lp_tautomer_probability>
1

> <r_epik_Ionization_Penalty>
3.99546

> <r_epik_Ionization_Penalty_Charging>
3.96229

> <r_epik_Ionization_Penalty_Neutral>
0.0331711

> <r_epik_State_Penalty>
3.95985

> <r_epik_Charging_Adjusted_Penalty>
7.92214

> <i_epik_Tot_Q>
0

> <i_epik_Tot_abs_Q>
2

> <r_epik_Metal_State_Penalty>
0.609364

> <b_epik_Metal_Only>
1

> <s_lp_Force_Field>
OPLS_2005

> <r_lp_Energy>
23.6676

> <b_lp_Chiralities_Consistent>
1

> <s_lp_Variant>
AV-unprocessed.smi:1206-2

> <Gold.Version>
5.8.1

> <Gold.Id.Protein>
6NUR|6NUR_protein|mol2

> <Gold.PLP.Fitness>
38.0792

> <Gold.PLP.PLP>
-28.0451

> <Gold.PLP.part.hbond>
-3.0000

> <Gold.PLP.part.metal>
0.0000

> <Gold.PLP.part.buried>
-4.4413

> <Gold.PLP.part.nonpolar>
-22.1719

> <Gold.PLP.part.repulsive>
0.1240

> <Gold.PLP.ligand.clash>
0.0000

> <Gold.PLP.ligand.torsion>
0.8854

> <Gold.PLP.Chemscore.Hbond>
3.8833

> <Gold.PLP.Chemscore.CHOScore>
0.0000

> <Gold.PLP.Chemscore.Metal>
0.0000

> <Gold.Chemscore.Hbonds>
donor molecule, donor type, donor heavy atom, donor atom, acceptor molecule, acceptor atom, score
      P1  H  6896  6907       L1     8  1.00
      P1  H  6931  6943       L1     9  1.08
      P1  H  6934  6947       L1     9  1.54

> <Gold.PLP.Chemscore.Internal.Correction>
0.1550

> <Gold.Rescore>
     Score         DG    S(hbond)    S(metal)    S(lipo)     H(rot)  DE(clash)    DE(int)     intcor
     13.08     -14.02       2.02        0.00      51.04       1.64       0.00       0.94       ----

> <Gold.Chemscore.Fitness>
13.0839

> <Gold.Chemscore.DG>
-14.0227

> <Gold.Chemscore.ZeroCoef>
-5.4800

> <Gold.Chemscore.Hbond>
2.0246

> <Gold.Chemscore.Metal>
0.0000

> <Gold.Chemscore.Lipo>
51.0392

> <Gold.Chemscore.Internal_Hbond>
0.0000

> <Gold.Chemscore.DEClash>
0.0000

> <Gold.Chemscore.DEInternal>
0.9388

> <Gold.Chemscore.Rot>
1.6371

> <Gold.Chemscore.Internal.Correction>
   9.000000E+99

> <Gold.Chemscore.Hbonds>
donor molecule, donor type, donor heavy atom, donor atom, acceptor molecule, acceptor atom, score
      P1  H  6896  6907       L1     8  1.00
      P1  H  6931  6943       L1     9  0.09
      P1  H  6934  6947       L1     9  0.69

> <Gold.Chemscore.Hbond.Weighted>
-6.7620

> <Gold.Chemscore.Metal.Weighted>
-0.0000

> <Gold.Chemscore.Lipo.Weighted>
-5.9716

> <Gold.Chemscore.Internal_Hbond.Weighted>
0.0000

> <Gold.Chemscore.DEClash.Weighted>
0.0000

> <Gold.Chemscore.DEInternal.Weighted>
0.9388

> <Gold.Chemscore.Rot.Weighted>
4.1909

> <Gold.Chemscore.Internal.Correction.Weighted>
   9.000000E+99

> <Gold.Protein.RotatedTorsions>
[ 6907 6896 6895 6894 ] final  -56.06 input  -60.11 | X-H torsion
[ 7974 7965 7964 7962 ] final   -6.68 input  175.53 | X-H torsion
[ 8008 7997 7996 7995 ] final  144.83 input   59.86 | X-H torsion
[ 10167 10162 10161 10158 ] final -107.99 input  -65.29 | X-H torsion
[ 10718 10713 10712 10709 ] final   64.31 input   66.30 | X-H torsion
[ 10763 10752 10751 10750 ] final   99.32 input  -60.55 | X-H torsion
[ 11005 11000 10999 10996 ] final -170.83 input  -57.11 | X-H torsion

> <Gold.Protein.ActiveResidues>
 VAL166  LYS551  ARG553  GLY616  TRP617  ASP618  TYR619  PRO620  LYS621  CYS622 
 ASP623  PHE694  ASN695  SER759  ASP760  ASP761  ALA762  ILE779  LEU786  VAL792 
 PHE793  MET794  SER795  GLU796  ALA797  LYS798  CYS799  TRP800  GLU811  SER814 

> <Gold.Protein.RotatedAtoms>
  150.8199  134.7401  159.6762 H   0  0  0  0  0  0  0  0  0  0  0  0  # atno 6907 bound_to 6896
  152.4315  134.5764  159.9945 H   0  0  0  0  0  0  0  0  0  0  0  0  # atno 6908 bound_to 6896
  151.5951  133.3325  159.3071 H   0  0  0  0  0  0  0  0  0  0  0  0  # atno 6909 bound_to 6896
  146.2325  140.2206  142.8337 H   0  0  0  0  0  0  0  0  0  0  0  0  # atno 7974 bound_to 7965
  156.2898  140.2225  156.5116 H   0  0  0  0  0  0  0  0  0  0  0  0  # atno 8008 bound_to 7997
  154.7604  140.0474  157.0990 H   0  0  0  0  0  0  0  0  0  0  0  0  # atno 8009 bound_to 7997
  154.9999  140.3100  155.4875 H   0  0  0  0  0  0  0  0  0  0  0  0  # atno 8010 bound_to 7997
  140.1710  143.4043  152.1354 H   0  0  0  0  0  0  0  0  0  0  0  0  # atno 10167 bound_to 10162
  157.6031  130.9153  149.9829 H   0  0  0  0  0  0  0  0  0  0  0  0  # atno 10718 bound_to 10713
  153.3000  135.4117  155.1244 H   0  0  0  0  0  0  0  0  0  0  0  0  # atno 10763 bound_to 10752
  154.8546  135.3539  154.5864 H   0  0  0  0  0  0  0  0  0  0  0  0  # atno 10764 bound_to 10752
  153.6289  135.7061  153.5341 H   0  0  0  0  0  0  0  0  0  0  0  0  # atno 10765 bound_to 10752
  140.5151  134.5764  157.5031 H   0  0  0  0  0  0  0  0  0  0  0  0  # atno 11005 bound_to 11000
  144.9635  140.8298  143.5499 LP  0  0  0  0  0  0  0  0  0  0  0  0  # atno 17320 bound_to 7965
  145.2180  139.2173  143.5108 LP  0  0  0  0  0  0  0  0  0  0  0  0  # atno 17321 bound_to 7965
  139.5338  144.7188  151.4964 LP  0  0  0  0  0  0  0  0  0  0  0  0  # atno 17342 bound_to 10162
  140.6582  143.8555  150.6858 LP  0  0  0  0  0  0  0  0  0  0  0  0  # atno 17343 bound_to 10162
  156.1109  130.3650  150.0051 LP  0  0  0  0  0  0  0  0  0  0  0  0  # atno 17370 bound_to 10713
  156.8149  130.9338  151.3643 LP  0  0  0  0  0  0  0  0  0  0  0  0  # atno 17371 bound_to 10713
  139.9637  134.7409  156.0183 LP  0  0  0  0  0  0  0  0  0  0  0  0  # atno 17394 bound_to 11000
  141.1365  133.6574  156.3608 LP  0  0  0  0  0  0  0  0  0  0  0  0  # atno 17395 bound_to 11000

$$$$
