AV-unprocessed.smi:529|AV-procd|sdf|2841|dock9
  -GOLD-   2262023333D 1   1.00000     0.00000
 Structure written by MMmdl.
 30 31  0  0  0  0  0  0  0  0  1 V2000
  149.3447  138.5579  153.5092 N   0  0  0  0  0  0  0  0  0  0  0  0
  148.6939  139.6572  153.6621 C   0  0  0  0  0  0  0  0  0  0  0  0
  147.1009  140.0982  152.8828 S   0  0  0  0  0  0  0  0  0  0  0  0
  147.1308  141.6387  153.7143 C   0  0  0  0  0  0  0  0  0  0  0  0
  148.2162  141.7789  154.4734 C   0  0  0  0  0  0  0  0  0  0  0  0
  149.1024  140.7210  154.4697 N   0  0  0  0  0  0  0  0  0  0  0  0
  150.3102  140.7053  155.2957 C   0  0  0  0  0  0  0  0  0  0  0  0
  150.1349  141.4218  156.6415 C   0  0  0  0  0  0  0  0  0  0  0  0
  149.3528  140.9949  157.4925 O   0  0  0  0  0  0  0  0  0  0  0  0
  150.8670  142.5330  156.8109 N   0  0  0  0  0  0  0  0  0  0  0  0
  150.8622  143.3665  158.0101 C   0  0  0  0  0  0  0  0  0  0  0  0
  151.9103  144.4967  157.9307 C   0  0  0  0  0  0  0  0  0  0  0  0
  152.7005  144.4359  159.2390 C   0  0  0  0  0  0  0  0  0  0  0  0
  152.6386  142.9683  159.6490 C   0  0  0  0  0  0  0  0  0  0  0  0
  151.2293  142.5304  159.2497 C   0  0  0  0  0  0  0  0  0  0  0  0
  148.8495  137.9440  152.8783 H   0  0  0  0  0  0  0  0  0  0  0  0
  146.3327  142.3560  153.5935 H   0  0  0  0  0  0  0  0  0  0  0  0
  148.4642  142.6334  155.0859 H   0  0  0  0  0  0  0  0  0  0  0  0
  150.6332  139.6773  155.4687 H   0  0  0  0  0  0  0  0  0  0  0  0
  151.1242  141.1880  154.7536 H   0  0  0  0  0  0  0  0  0  0  0  0
  151.4797  142.8167  156.0603 H   0  0  0  0  0  0  0  0  0  0  0  0
  149.8641  143.7859  158.1512 H   0  0  0  0  0  0  0  0  0  0  0  0
  152.5937  144.3319  157.0960 H   0  0  0  0  0  0  0  0  0  0  0  0
  151.4495  145.4732  157.7789 H   0  0  0  0  0  0  0  0  0  0  0  0
  153.7223  144.8003  159.1297 H   0  0  0  0  0  0  0  0  0  0  0  0
  152.2072  145.0485  159.9948 H   0  0  0  0  0  0  0  0  0  0  0  0
  153.3756  142.3973  159.0828 H   0  0  0  0  0  0  0  0  0  0  0  0
  152.8414  142.8178  160.7096 H   0  0  0  0  0  0  0  0  0  0  0  0
  150.5384  142.7686  160.0596 H   0  0  0  0  0  0  0  0  0  0  0  0
  151.1657  141.4541  159.0829 H   0  0  0  0  0  0  0  0  0  0  0  0
  1  2  2  0  0  0  0
  1 16  1  0  0  0  0
  2  6  1  0  0  0  0
  2  3  1  0  0  0  0
  3  4  1  0  0  0  0
  4  5  2  0  0  0  0
  4 17  1  0  0  0  0
  5  6  1  0  0  0  0
  5 18  1  0  0  0  0
  6  7  1  0  0  0  0
  7  8  1  0  0  0  0
  7 19  1  0  0  0  0
  7 20  1  0  0  0  0
  8  9  2  0  0  0  0
  8 10  1  0  0  0  0
 10 11  1  0  0  0  0
 10 21  1  0  0  0  0
 11 15  1  0  0  0  0
 11 12  1  0  0  0  0
 11 22  1  0  0  0  0
 12 13  1  0  0  0  0
 12 23  1  0  0  0  0
 12 24  1  0  0  0  0
 13 14  1  0  0  0  0
 13 25  1  0  0  0  0
 13 26  1  0  0  0  0
 14 15  1  0  0  0  0
 14 27  1  0  0  0  0
 14 28  1  0  0  0  0
 15 29  1  0  0  0  0
 15 30  1  0  0  0  0
M  END
> <s_m_source_file>
AV-unprocessed.smi

> <i_m_source_file_index>
529

> <i_lp_mmshare_version>
43012

> <i_f3d_flags>
0

> <s_epik_input>
W0hdL049YzFcc1tjSF1bY0hdbjFbQ0gyXUMoPU8pW05IXVtDSF0yW0NIMl1bQ0gyXVtDSDJdW0NIMl0y

> <s_epik_cmdline>
J2VwaWtfcHl0aG9uJywgJy1waCcsICc3LjAnLCAnLXRuJywgJzgnLCAnLW1hJywgJzIwMCcsICctbWV0YWxfYmluZGluZycsICctaW1hZScsICc8aW5maWxlLm1hZT4nLCAnLW9tYWUnLCAnPG91dGZpbGUubWFlPic=

> <r_epik_Ionization_Penalty>
2.18041

> <r_epik_Ionization_Penalty_Charging>
2.18041

> <r_epik_Ionization_Penalty_Neutral>
1.25369e-07

> <r_epik_State_Penalty>
2.33404

> <r_epik_Charging_Adjusted_Penalty>
4.51444

> <i_epik_Tot_Q>
0

> <i_epik_Tot_abs_Q>
0

> <r_epik_Metal_State_Penalty>
2.33404

> <b_epik_Metal_Only>
0

> <s_lp_Force_Field>
OPLS_2005

> <r_lp_Energy>
18.55

> <b_lp_Chiralities_Consistent>
1

> <s_lp_Variant>
AV-unprocessed.smi:529-3

> <Gold.Version>
5.8.1

> <Gold.Id.Protein>
6NUR|6NUR_protein|mol2

> <Gold.PLP.Fitness>
40.2253

> <Gold.PLP.PLP>
-35.1177

> <Gold.PLP.part.hbond>
-2.6737

> <Gold.PLP.part.metal>
0.0000

> <Gold.PLP.part.buried>
1.1635

> <Gold.PLP.part.nonpolar>
-32.6368

> <Gold.PLP.part.repulsive>
0.0914

> <Gold.PLP.ligand.clash>
0.0000

> <Gold.PLP.ligand.torsion>
0.3911

> <Gold.PLP.Chemscore.Hbond>
0.9600

> <Gold.PLP.Chemscore.CHOScore>
1.0000

> <Gold.PLP.Chemscore.Metal>
0.0000

> <Gold.Chemscore.Hbonds>
donor molecule, donor type, donor heavy atom, donor atom, acceptor molecule, acceptor atom, score
      L1  H     1    16       P1  7948  0.88
      L1  C     5    18       P1  8028  1.00

> <Gold.PLP.Chemscore.Internal.Correction>
0.0098

> <Gold.Rescore>
     Score         DG    S(hbond)    S(metal)    S(lipo)     H(rot)  DE(clash)    DE(int)     intcor
     13.30     -14.89       0.98        0.00      86.50       1.56       0.39       1.20       ----

> <Gold.Chemscore.Fitness>
13.2957

> <Gold.Chemscore.DG>
-14.8868

> <Gold.Chemscore.ZeroCoef>
-5.4800

> <Gold.Chemscore.Hbond>
0.9848

> <Gold.Chemscore.Metal>
0.0000

> <Gold.Chemscore.Lipo>
86.4954

> <Gold.Chemscore.Internal_Hbond>
0.0000

> <Gold.Chemscore.DEClash>
0.3930

> <Gold.Chemscore.DEInternal>
1.1982

> <Gold.Chemscore.Rot>
1.5635

> <Gold.Chemscore.Internal.Correction>
   9.000000E+99

> <Gold.Chemscore.Hbonds>
donor molecule, donor type, donor heavy atom, donor atom, acceptor molecule, acceptor atom, score
      L1  H     1    16       P1  7948  0.85

> <Gold.Chemscore.Hbond.Weighted>
-3.2894

> <Gold.Chemscore.Metal.Weighted>
-0.0000

> <Gold.Chemscore.Lipo.Weighted>
-10.1200

> <Gold.Chemscore.Internal_Hbond.Weighted>
0.0000

> <Gold.Chemscore.DEClash.Weighted>
0.3930

> <Gold.Chemscore.DEInternal.Weighted>
1.1982

> <Gold.Chemscore.Rot.Weighted>
4.0025

> <Gold.Chemscore.Internal.Correction.Weighted>
   9.000000E+99

> <Gold.Protein.RotatedTorsions>
[ 6907 6896 6895 6894 ] final  163.80 input  -60.11 | X-H torsion
[ 7974 7965 7964 7962 ] final  -83.06 input  175.53 | X-H torsion
[ 8008 7997 7996 7995 ] final  -18.00 input   59.86 | X-H torsion
[ 10167 10162 10161 10158 ] final -170.64 input  -65.29 | X-H torsion
[ 10718 10713 10712 10709 ] final  134.30 input   66.30 | X-H torsion
[ 10763 10752 10751 10750 ] final  -25.37 input  -60.55 | X-H torsion
[ 11005 11000 10999 10996 ] final   60.67 input  -57.11 | X-H torsion

> <Gold.Protein.ActiveResidues>
 VAL166  LYS551  ARG553  GLY616  TRP617  ASP618  TYR619  PRO620  LYS621  CYS622 
 ASP623  PHE694  ASN695  SER759  ASP760  ASP761  ALA762  ILE779  LEU786  VAL792 
 PHE793  MET794  SER795  GLU796  ALA797  LYS798  CYS799  TRP800  GLU811  SER814 

> <Gold.Protein.RotatedAtoms>
  151.9196  133.3582  159.3892 H   0  0  0  0  0  0  0  0  0  0  0  0  # atno 6907 bound_to 6896
  150.7040  134.4648  159.5407 H   0  0  0  0  0  0  0  0  0  0  0  0  # atno 6908 bound_to 6896
  152.2269  134.8359  160.0529 H   0  0  0  0  0  0  0  0  0  0  0  0  # atno 6909 bound_to 6896
  145.5251  140.9527  143.1634 H   0  0  0  0  0  0  0  0  0  0  0  0  # atno 7974 bound_to 7965
  154.4938  140.2127  155.9492 H   0  0  0  0  0  0  0  0  0  0  0  0  # atno 8008 bound_to 7997
  156.1341  140.3191  155.8363 H   0  0  0  0  0  0  0  0  0  0  0  0  # atno 8009 bound_to 7997
  155.4241  140.0499  157.3014 H   0  0  0  0  0  0  0  0  0  0  0  0  # atno 8010 bound_to 7997
  139.5849  144.1340  152.1563 H   0  0  0  0  0  0  0  0  0  0  0  0  # atno 10167 bound_to 10162
  157.4686  131.1078  150.9831 H   0  0  0  0  0  0  0  0  0  0  0  0  # atno 10718 bound_to 10713
  153.6988  135.6957  153.5069 H   0  0  0  0  0  0  0  0  0  0  0  0  # atno 10763 bound_to 10752
  153.2358  135.4322  155.0644 H   0  0  0  0  0  0  0  0  0  0  0  0  # atno 10764 bound_to 10752
  154.8350  135.3495  154.6527 H   0  0  0  0  0  0  0  0  0  0  0  0  # atno 10765 bound_to 10752
  140.0215  134.6146  155.9633 H   0  0  0  0  0  0  0  0  0  0  0  0  # atno 11005 bound_to 11000
  144.7655  139.6854  143.7216 LP  0  0  0  0  0  0  0  0  0  0  0  0  # atno 17320 bound_to 7965
  146.2081  139.5419  142.9699 LP  0  0  0  0  0  0  0  0  0  0  0  0  # atno 17321 bound_to 7965
  140.0901  144.5627  150.7060 LP  0  0  0  0  0  0  0  0  0  0  0  0  # atno 17342 bound_to 10162
  140.7122  143.2515  151.4545 LP  0  0  0  0  0  0  0  0  0  0  0  0  # atno 17343 bound_to 10162
  157.0603  130.5823  149.5385 LP  0  0  0  0  0  0  0  0  0  0  0  0  # atno 17370 bound_to 10713
  156.0062  130.5149  150.7838 LP  0  0  0  0  0  0  0  0  0  0  0  0  # atno 17371 bound_to 10713
  141.1777  133.6542  156.4893 LP  0  0  0  0  0  0  0  0  0  0  0  0  # atno 17394 bound_to 11000
  140.4379  134.7042  157.4976 LP  0  0  0  0  0  0  0  0  0  0  0  0  # atno 17395 bound_to 11000

$$$$
