AV-unprocessed.smi:1780|AV-procd|sdf|7183|dock7
  -GOLD-   22720 8423D 1   1.00000     0.00000
 Structure written by MMmdl.
 43 44  0  0  0  0  0  0  0  0  1 V2000
  143.8311  132.8077  148.2049 C   0  0  0  0  0  0  0  0  0  0  0  0
  143.8614  132.4013  149.6831 C   0  0  0  0  0  0  0  0  0  0  0  0
  144.2133  133.5160  150.5409 N   0  0  0  0  0  0  0  0  0  0  0  0
  145.2870  134.3767  150.4264 C   0  0  0  0  0  0  0  0  0  0  0  0
  145.1770  135.2491  151.4671 C   0  0  0  0  0  0  0  0  0  0  0  0
  146.0810  136.3073  151.7353 N   0  0  0  0  0  0  0  0  0  0  0  0
  145.8152  137.4608  152.3688 C   0  0  0  0  0  0  0  0  0  0  0  0
  144.7062  137.8019  152.7798 O   0  0  0  0  0  0  0  0  0  0  0  0
  146.9225  138.2041  152.5099 N   0  0  0  0  0  0  0  0  0  0  0  0
  146.9945  139.5072  153.1681 C   0  0  0  0  0  0  0  0  0  0  0  0
  147.1457  139.4070  154.7134 C   0  0  2  0  0  0  0  0  0  0  0  0
  146.2506  140.4798  155.3847 C   0  0  0  0  0  0  0  0  0  0  0  0
  148.5555  139.4757  155.1666 N   0  0  0  0  0  0  0  0  0  0  0  0
  149.0906  140.8422  155.1614 C   0  0  0  0  0  0  0  0  0  0  0  0
  150.5628  140.9104  155.6030 C   0  0  0  0  0  0  0  0  0  0  0  0
  151.3531  140.0750  154.7691 O   0  0  0  0  0  0  0  0  0  0  0  0
  150.9192  138.7230  154.8074 C   0  0  0  0  0  0  0  0  0  0  0  0
  149.4500  138.6374  154.3590 C   0  0  0  0  0  0  0  0  0  0  0  0
  144.0080  134.8585  152.1796 C   0  0  0  0  0  0  0  0  0  0  0  0
  143.4336  133.8091  151.6109 N   0  0  0  0  0  0  0  0  0  0  0  0
  143.5765  131.9558  147.5743 H   0  0  0  0  0  0  0  0  0  0  0  0
  144.8013  133.1846  147.8803 H   0  0  0  0  0  0  0  0  0  0  0  0
  143.0906  133.5875  148.0240 H   0  0  0  0  0  0  0  0  0  0  0  0
  142.8889  132.0147  149.9907 H   0  0  0  0  0  0  0  0  0  0  0  0
  144.5847  131.5999  149.8375 H   0  0  0  0  0  0  0  0  0  0  0  0
  146.0160  134.2941  149.6338 H   0  0  0  0  0  0  0  0  0  0  0  0
  147.0338  136.1597  151.4366 H   0  0  0  0  0  0  0  0  0  0  0  0
  147.7873  137.8389  152.1390 H   0  0  0  0  0  0  0  0  0  0  0  0
  147.8617  139.9881  152.7197 H   0  0  0  0  0  0  0  0  0  0  0  0
  146.1348  140.1300  152.9145 H   0  0  0  0  0  0  0  0  0  0  0  0
  146.7473  138.4347  155.0078 H   0  0  0  0  0  0  0  0  0  0  0  0
  145.2183  140.4326  155.0420 H   0  0  0  0  0  0  0  0  0  0  0  0
  146.6193  141.4853  155.1788 H   0  0  0  0  0  0  0  0  0  0  0  0
  146.1882  140.3571  156.4645 H   0  0  0  0  0  0  0  0  0  0  0  0
  148.9908  141.2754  154.1651 H   0  0  0  0  0  0  0  0  0  0  0  0
  148.5297  141.4781  155.8432 H   0  0  0  0  0  0  0  0  0  0  0  0
  150.9315  141.9337  155.5327 H   0  0  0  0  0  0  0  0  0  0  0  0
  150.6684  140.6029  156.6447 H   0  0  0  0  0  0  0  0  0  0  0  0
  151.5515  138.1284  154.1480 H   0  0  0  0  0  0  0  0  0  0  0  0
  151.0406  138.3207  155.8143 H   0  0  0  0  0  0  0  0  0  0  0  0
  149.1606  137.5905  154.4247 H   0  0  0  0  0  0  0  0  0  0  0  0
  149.3759  138.9229  153.3086 H   0  0  0  0  0  0  0  0  0  0  0  0
  143.5614  135.2812  153.0671 H   0  0  0  0  0  0  0  0  0  0  0  0
  1  2  1  0  0  0  0
  1 21  1  0  0  0  0
  1 22  1  0  0  0  0
  1 23  1  0  0  0  0
  2  3  1  0  0  0  0
  2 24  1  0  0  0  0
  2 25  1  0  0  0  0
  3 20  1  0  0  0  0
  3  4  1  0  0  0  0
  4  5  2  0  0  0  0
  4 26  1  0  0  0  0
  5  6  1  0  0  0  0
  5 19  1  0  0  0  0
  6  7  1  0  0  0  0
  6 27  1  0  0  0  0
  7  8  2  0  0  0  0
  7  9  1  0  0  0  0
  9 10  1  0  0  0  0
  9 28  1  0  0  0  0
 10 11  1  0  0  0  0
 10 29  1  0  0  0  0
 10 30  1  0  0  0  0
 11 12  1  0  0  0  0
 11 13  1  0  0  0  0
 11 31  1  0  0  0  0
 12 32  1  0  0  0  0
 12 33  1  0  0  0  0
 12 34  1  0  0  0  0
 13 18  1  0  0  0  0
 13 14  1  0  0  0  0
 14 15  1  0  0  0  0
 14 35  1  0  0  0  0
 14 36  1  0  0  0  0
 15 16  1  0  0  0  0
 15 37  1  0  0  0  0
 15 38  1  0  0  0  0
 16 17  1  0  0  0  0
 17 18  1  0  0  0  0
 17 39  1  0  0  0  0
 17 40  1  0  0  0  0
 18 41  1  0  0  0  0
 18 42  1  0  0  0  0
 19 20  2  0  0  0  0
 19 43  1  0  0  0  0
M  END
> <s_m_source_file>
AV-unprocessed.smi

> <i_m_source_file_index>
1780

> <i_lp_mmshare_version>
43012

> <i_f3d_flags>
0

> <s_epik_input>
W0NIM11bQ0gyXW4xW2NIXWMoW2NIXW4xKVtOSF1DKD1PKVtOSF1bQ0gyXVtDQEhdKFtDSDNdKU4yW0NIMl1bQ0gyXU9bQ0gyXVtDSDJdMg==

> <s_epik_cmdline>
J2VwaWtfcHl0aG9uJywgJy1waCcsICc3LjAnLCAnLXRuJywgJzgnLCAnLW1hJywgJzIwMCcsICctbWV0YWxfYmluZGluZycsICctaW1hZScsICc8aW5maWxlLm1hZT4nLCAnLW9tYWUnLCAnPG91dGZpbGUubWFlPic=

> <r_lp_tautomer_probability>
1

> <r_epik_Ionization_Penalty>
0.242902

> <r_epik_Ionization_Penalty_Charging>
0

> <r_epik_Ionization_Penalty_Neutral>
0.242902

> <r_epik_State_Penalty>
0.233765

> <r_epik_Charging_Adjusted_Penalty>
0.233765

> <i_epik_Tot_Q>
0

> <i_epik_Tot_abs_Q>
0

> <r_epik_Metal_State_Penalty>
0.233759

> <b_epik_Metal_Only>
0

> <s_lp_Force_Field>
OPLS_2005

> <r_lp_Energy>
32.6304

> <b_lp_Chiralities_Consistent>
1

> <s_lp_Variant>
AV-unprocessed.smi:1780-1

> <Gold.Version>
5.8.1

> <Gold.Id.Protein>
6NUR|6NUR_protein|mol2

> <Gold.PLP.Fitness>
44.5899

> <Gold.PLP.PLP>
-34.9114

> <Gold.PLP.part.hbond>
-2.9514

> <Gold.PLP.part.metal>
0.0000

> <Gold.PLP.part.buried>
-5.1222

> <Gold.PLP.part.nonpolar>
-28.3097

> <Gold.PLP.part.repulsive>
1.0507

> <Gold.PLP.ligand.clash>
0.0000

> <Gold.PLP.ligand.torsion>
1.1318

> <Gold.PLP.Chemscore.Hbond>
2.9680

> <Gold.PLP.Chemscore.CHOScore>
1.0000

> <Gold.PLP.Chemscore.Metal>
0.0000

> <Gold.Chemscore.Hbonds>
donor molecule, donor type, donor heavy atom, donor atom, acceptor molecule, acceptor atom, score
      L1  H     6    27       P1  7948  1.00
      L1  H     9    28       P1  7948  0.96
      P1  H  7989  7998       L1    16  0.98
      L1  C     4    26       P1  7921  1.00

> <Gold.PLP.Chemscore.Internal.Correction>
0.0381

> <Gold.Rescore>
     Score         DG    S(hbond)    S(metal)    S(lipo)     H(rot)  DE(clash)    DE(int)     intcor
     18.59     -19.75       2.86        0.00      75.62       1.61       0.02       1.14       ----

> <Gold.Chemscore.Fitness>
18.5899

> <Gold.Chemscore.DG>
-19.7488

> <Gold.Chemscore.ZeroCoef>
-5.4800

> <Gold.Chemscore.Hbond>
2.8585

> <Gold.Chemscore.Metal>
0.0000

> <Gold.Chemscore.Lipo>
75.6193

> <Gold.Chemscore.Internal_Hbond>
0.0000

> <Gold.Chemscore.DEClash>
0.0155

> <Gold.Chemscore.DEInternal>
1.1434

> <Gold.Chemscore.Rot>
1.6117

> <Gold.Chemscore.Internal.Correction>
   9.000000E+99

> <Gold.Chemscore.Hbonds>
donor molecule, donor type, donor heavy atom, donor atom, acceptor molecule, acceptor atom, score
      L1  H     6    27       P1  7948  0.94
      L1  H     9    28       P1  7948  0.90
      P1  H  7989  7998       L1    16  0.55

> <Gold.Chemscore.Hbond.Weighted>
-9.5474

> <Gold.Chemscore.Metal.Weighted>
-0.0000

> <Gold.Chemscore.Lipo.Weighted>
-8.8475

> <Gold.Chemscore.Internal_Hbond.Weighted>
0.0000

> <Gold.Chemscore.DEClash.Weighted>
0.0155

> <Gold.Chemscore.DEInternal.Weighted>
1.1434

> <Gold.Chemscore.Rot.Weighted>
4.1260

> <Gold.Chemscore.Internal.Correction.Weighted>
   9.000000E+99

> <Gold.Protein.RotatedTorsions>
[ 6907 6896 6895 6894 ] final  153.01 input  -60.11 | X-H torsion
[ 7974 7965 7964 7962 ] final -135.75 input  175.53 | X-H torsion
[ 8008 7997 7996 7995 ] final  125.82 input   59.86 | X-H torsion
[ 10167 10162 10161 10158 ] final   18.56 input  -65.29 | X-H torsion
[ 10718 10713 10712 10709 ] final -124.32 input   66.30 | X-H torsion
[ 10763 10752 10751 10750 ] final  103.05 input  -60.55 | X-H torsion
[ 11005 11000 10999 10996 ] final   -5.94 input  -57.11 | X-H torsion

> <Gold.Protein.ActiveResidues>
 VAL166  LYS551  ARG553  GLY616  TRP617  ASP618  TYR619  PRO620  LYS621  CYS622 
 ASP623  PHE694  ASN695  SER759  ASP760  ASP761  ALA762  ILE779  LEU786  VAL792 
 PHE793  MET794  SER795  GLU796  ALA797  LYS798  CYS799  TRP800  GLU811  SER814 

> <Gold.Protein.RotatedAtoms>
  152.0787  133.4142  159.4491 H   0  0  0  0  0  0  0  0  0  0  0  0  # atno 6907 bound_to 6896
  150.6862  134.3007  159.4714 H   0  0  0  0  0  0  0  0  0  0  0  0  # atno 6908 bound_to 6896
  152.0846  134.9447  160.0623 H   0  0  0  0  0  0  0  0  0  0  0  0  # atno 6909 bound_to 6896
  144.8986  140.6741  143.5099 H   0  0  0  0  0  0  0  0  0  0  0  0  # atno 7974 bound_to 7965
  156.2846  140.2707  156.2012 H   0  0  0  0  0  0  0  0  0  0  0  0  # atno 8008 bound_to 7997
  155.0359  140.0386  157.2509 H   0  0  0  0  0  0  0  0  0  0  0  0  # atno 8009 bound_to 7997
  154.7315  140.2707  155.6457 H   0  0  0  0  0  0  0  0  0  0  0  0  # atno 8010 bound_to 7997
  140.5644  143.9277  150.6666 H   0  0  0  0  0  0  0  0  0  0  0  0  # atno 10167 bound_to 10162
  156.1578  130.6580  151.0006 H   0  0  0  0  0  0  0  0  0  0  0  0  # atno 10718 bound_to 10713
  153.3476  135.3990  155.1621 H   0  0  0  0  0  0  0  0  0  0  0  0  # atno 10763 bound_to 10752
  154.8656  135.3648  154.5264 H   0  0  0  0  0  0  0  0  0  0  0  0  # atno 10764 bound_to 10752
  153.5713  135.7079  153.5563 H   0  0  0  0  0  0  0  0  0  0  0  0  # atno 10765 bound_to 10752
  140.6966  133.9026  155.8654 H   0  0  0  0  0  0  0  0  0  0  0  0  # atno 11005 bound_to 11000
  145.3656  139.1671  143.4360 LP  0  0  0  0  0  0  0  0  0  0  0  0  # atno 17320 bound_to 7965
  146.3096  140.3722  142.8675 LP  0  0  0  0  0  0  0  0  0  0  0  0  # atno 17321 bound_to 7965
  140.2736  143.3438  152.1215 LP  0  0  0  0  0  0  0  0  0  0  0  0  # atno 17342 bound_to 10162
  139.5086  144.6852  151.5905 LP  0  0  0  0  0  0  0  0  0  0  0  0  # atno 17343 bound_to 10162
  157.6708  131.0861  150.7616 LP  0  0  0  0  0  0  0  0  0  0  0  0  # atno 17370 bound_to 10713
  156.7680  130.4820  149.5424 LP  0  0  0  0  0  0  0  0  0  0  0  0  # atno 17371 bound_to 10713
  141.0198  134.0905  157.4132 LP  0  0  0  0  0  0  0  0  0  0  0  0  # atno 17394 bound_to 11000
  139.8908  135.0114  156.6758 LP  0  0  0  0  0  0  0  0  0  0  0  0  # atno 17395 bound_to 11000

$$$$
