AV-unprocessed.smi:924|AV-procd|sdf|4180|dock2
  -GOLD-   22720 2 83D 1   1.00000     0.00000
 Structure written by MMmdl.
 45 48  0  0  0  0  0  0  0  0  2 V2000
  146.3088  138.2602  155.0995 O   0  0  0  0  0  0  0  0  0  0  0  0
  146.7481  138.0656  153.9655 C   0  0  0  0  0  0  0  0  0  0  0  0
  147.6771  139.0863  153.2956 C   0  0  0  0  0  0  0  0  0  0  0  0
  148.9222  139.2937  154.0521 N   0  0  0  0  0  0  0  0  0  0  0  0
  149.5898  138.1455  154.5140 C   0  0  0  0  0  0  0  0  0  0  0  0
  150.7446  138.2224  155.2020 C   0  0  0  0  0  0  0  0  0  0  0  0
  151.3028  139.5424  155.4666 C   0  0  0  0  0  0  0  0  0  0  0  0
  152.3540  139.6326  156.0980 O   0  0  0  0  0  0  0  0  0  0  0  0
  150.6208  140.6263  154.9935 N   0  5  0  0  0  0  0  0  0  0  0  0
  149.4493  140.5327  154.2901 C   0  0  0  0  0  0  0  0  0  0  0  0
  148.8558  141.5247  153.8661 O   0  0  0  0  0  0  0  0  0  0  0  0
  146.4558  136.9744  153.2414 N   0  0  0  0  0  0  0  0  0  0  0  0
  145.5491  135.9024  153.6458 C   0  0  0  0  0  0  0  0  0  0  0  0
  145.4617  134.7493  152.6126 C   0  0  0  0  0  0  0  0  0  0  0  0
  145.6930  135.2553  151.1610 C   0  0  0  0  0  0  0  0  0  0  0  0
  145.5599  134.0922  150.1553 C   0  0  1  0  0  0  0  0  0  0  0  0
  146.6110  133.0099  150.4789 C   0  0  0  0  0  0  0  0  0  0  0  0
  146.3726  132.4808  151.9089 C   0  0  2  0  0  0  0  0  0  0  0  0
  144.9593  131.8701  152.0055 C   0  0  0  0  0  0  0  0  0  0  0  0
  143.9143  132.9567  151.6782 C   0  0  2  0  0  0  0  0  0  0  0  0
  144.1448  133.4865  150.2482 C   0  0  0  0  0  0  0  0  0  0  0  0
  144.0459  134.1185  152.6855 C   0  0  0  0  0  0  0  0  0  0  0  0
  146.5067  133.6413  152.9189 C   0  0  0  0  0  0  0  0  0  0  0  0
  147.8755  138.7589  152.2740 H   0  0  0  0  0  0  0  0  0  0  0  0
  147.1573  140.0404  153.1929 H   0  0  0  0  0  0  0  0  0  0  0  0
  149.1117  137.2082  154.2685 H   0  0  0  0  0  0  0  0  0  0  0  0
  151.2465  137.3301  155.5459 H   0  0  0  0  0  0  0  0  0  0  0  0
  146.8705  136.8943  152.3246 H   0  0  0  0  0  0  0  0  0  0  0  0
  145.9155  135.5135  154.5964 H   0  0  0  0  0  0  0  0  0  0  0  0
  144.5542  136.3005  153.8535 H   0  0  0  0  0  0  0  0  0  0  0  0
  144.9798  136.0437  150.9172 H   0  0  0  0  0  0  0  0  0  0  0  0
  146.6841  135.6977  151.0575 H   0  0  0  0  0  0  0  0  0  0  0  0
  145.7270  134.4678  149.1453 H   0  0  0  0  0  0  0  0  0  0  0  0
  146.5477  132.1937  149.7581 H   0  0  0  0  0  0  0  0  0  0  0  0
  147.6171  133.4220  150.3909 H   0  0  0  0  0  0  0  0  0  0  0  0
  147.1133  131.7142  152.1388 H   0  0  0  0  0  0  0  0  0  0  0  0
  144.8616  131.0309  151.3157 H   0  0  0  0  0  0  0  0  0  0  0  0
  144.7879  131.4690  153.0053 H   0  0  0  0  0  0  0  0  0  0  0  0
  142.9138  132.5290  151.7483 H   0  0  0  0  0  0  0  0  0  0  0  0
  143.3947  134.2377  149.9973 H   0  0  0  0  0  0  0  0  0  0  0  0
  144.0299  132.6804  149.5225 H   0  0  0  0  0  0  0  0  0  0  0  0
  143.8459  133.7546  153.6942 H   0  0  0  0  0  0  0  0  0  0  0  0
  143.2855  134.8730  152.4783 H   0  0  0  0  0  0  0  0  0  0  0  0
  147.5196  134.0433  152.8734 H   0  0  0  0  0  0  0  0  0  0  0  0
  146.3728  133.2661  153.9343 H   0  0  0  0  0  0  0  0  0  0  0  0
  1  2  2  0  0  0  0
  2  3  1  0  0  0  0
  2 12  1  0  0  0  0
  3  4  1  0  0  0  0
  3 24  1  0  0  0  0
  3 25  1  0  0  0  0
  4 10  1  0  0  0  0
  4  5  1  0  0  0  0
  5  6  2  0  0  0  0
  5 26  1  0  0  0  0
  6  7  1  0  0  0  0
  6 27  1  0  0  0  0
  7  8  2  0  0  0  0
  7  9  1  0  0  0  0
  9 10  1  0  0  0  0
 10 11  2  0  0  0  0
 12 13  1  0  0  0  0
 12 28  1  0  0  0  0
 13 14  1  0  0  0  0
 13 29  1  0  0  0  0
 13 30  1  0  0  0  0
 14 22  1  0  0  0  0
 14 23  1  0  0  0  0
 14 15  1  0  0  0  0
 15 16  1  0  0  0  0
 15 31  1  0  0  0  0
 15 32  1  0  0  0  0
 16 21  1  0  0  0  0
 16 17  1  0  0  0  0
 16 33  1  0  0  0  0
 17 18  1  0  0  0  0
 17 34  1  0  0  0  0
 17 35  1  0  0  0  0
 18 19  1  0  0  0  0
 18 23  1  0  0  0  0
 18 36  1  0  0  0  0
 19 20  1  0  0  0  0
 19 37  1  0  0  0  0
 19 38  1  0  0  0  0
 20 21  1  0  0  0  0
 20 22  1  0  0  0  0
 20 39  1  0  0  0  0
 21 40  1  0  0  0  0
 21 41  1  0  0  0  0
 22 42  1  0  0  0  0
 22 43  1  0  0  0  0
 23 44  1  0  0  0  0
 23 45  1  0  0  0  0
M  CHG  1   9  -1
M  END
> <s_m_source_file>
AV-unprocessed.smi

> <i_m_source_file_index>
924

> <i_lp_mmshare_version>
43012

> <i_f3d_flags>
0

> <s_epik_input>
Tz1jMVtuSF1jKD1PKVtjSF1bY0hdbjFbQ0gyXUMoPU8pW05IXVtDSDJdQzIzW0NIMl1bQ0BIXTRbQ0gyXVtDQEBIXShbQ0gyXTMpW0NIMl1bQ0BIXShbQ0gyXTQpW0NIMl0y

> <s_epik_cmdline>
J2VwaWtfcHl0aG9uJywgJy1waCcsICc3LjAnLCAnLXRuJywgJzgnLCAnLW1hJywgJzIwMCcsICctbWV0YWxfYmluZGluZycsICctaW1hZScsICc8aW5maWxlLm1hZT4nLCAnLW9tYWUnLCAnPG91dGZpbGUubWFlPic=

> <r_lp_tautomer_probability>
0.999537

> <r_epik_Ionization_Penalty>
3.12434

> <r_epik_Ionization_Penalty_Charging>
2.83226e-08

> <r_epik_Ionization_Penalty_Neutral>
3.12434

> <r_epik_State_Penalty>
3.12343

> <r_epik_Charging_Adjusted_Penalty>
3.12343

> <i_epik_Tot_Q>
-1

> <i_epik_Tot_abs_Q>
1

> <r_epik_Metal_State_Penalty>
0.463885

> <b_epik_Metal_Only>
1

> <s_lp_Force_Field>
OPLS_2005

> <r_lp_Energy>
43.5062

> <b_lp_Chiralities_Consistent>
1

> <s_lp_Variant>
AV-unprocessed.smi:924-2

> <Gold.Version>
5.8.1

> <Gold.Id.Protein>
6NUR|6NUR_protein|mol2

> <Gold.PLP.Fitness>
42.8130

> <Gold.PLP.PLP>
-33.6822

> <Gold.PLP.part.hbond>
-4.1020

> <Gold.PLP.part.metal>
0.0000

> <Gold.PLP.part.buried>
3.4823

> <Gold.PLP.part.nonpolar>
-32.2957

> <Gold.PLP.part.repulsive>
0.3061

> <Gold.PLP.ligand.clash>
0.0000

> <Gold.PLP.ligand.torsion>
0.7614

> <Gold.PLP.Chemscore.Hbond>
2.6591

> <Gold.PLP.Chemscore.CHOScore>
0.8886

> <Gold.PLP.Chemscore.Metal>
0.0000

> <Gold.Chemscore.Hbonds>
donor molecule, donor type, donor heavy atom, donor atom, acceptor molecule, acceptor atom, score
      L1  H    12    28       P1  7948  0.28
      P1  H  7989  7998       L1     9  0.56
      P1  H  7997  8008       L1     8  0.94
      P1  H  8011  8017       L1    11  0.69
      L1  C     5    26       P1  7948  0.75

> <Gold.PLP.Chemscore.Internal.Correction>
0.0106

> <Gold.Rescore>
     Score         DG    S(hbond)    S(metal)    S(lipo)     H(rot)  DE(clash)    DE(int)     intcor
     14.73     -17.08       2.13        0.00      79.84       1.90       1.61       0.74       ----

> <Gold.Chemscore.Fitness>
14.7260

> <Gold.Chemscore.DG>
-17.0831

> <Gold.Chemscore.ZeroCoef>
-5.4800

> <Gold.Chemscore.Hbond>
2.1303

> <Gold.Chemscore.Metal>
0.0000

> <Gold.Chemscore.Lipo>
79.8411

> <Gold.Chemscore.Internal_Hbond>
0.0000

> <Gold.Chemscore.DEClash>
1.6135

> <Gold.Chemscore.DEInternal>
0.7435

> <Gold.Chemscore.Rot>
1.8959

> <Gold.Chemscore.Internal.Correction>
   9.000000E+99

> <Gold.Chemscore.Hbonds>
donor molecule, donor type, donor heavy atom, donor atom, acceptor molecule, acceptor atom, score
      L1  H    12    28       P1  7948  0.29
      P1  H  7989  7998       L1     9  0.01
      P1  H  7997  8008       L1     8  0.90
      P1  H  8011  8017       L1    11  0.59

> <Gold.Chemscore.Hbond.Weighted>
-7.1152

> <Gold.Chemscore.Metal.Weighted>
-0.0000

> <Gold.Chemscore.Lipo.Weighted>
-9.3414

> <Gold.Chemscore.Internal_Hbond.Weighted>
0.0000

> <Gold.Chemscore.DEClash.Weighted>
1.6135

> <Gold.Chemscore.DEInternal.Weighted>
0.7435

> <Gold.Chemscore.Rot.Weighted>
4.8535

> <Gold.Chemscore.Internal.Correction.Weighted>
   9.000000E+99

> <Gold.Protein.RotatedTorsions>
[ 6907 6896 6895 6894 ] final   55.21 input  -60.11 | X-H torsion
[ 7974 7965 7964 7962 ] final   25.03 input  175.53 | X-H torsion
[ 8008 7997 7996 7995 ] final  -36.94 input   59.86 | X-H torsion
[ 10167 10162 10161 10158 ] final -125.42 input  -65.29 | X-H torsion
[ 10718 10713 10712 10709 ] final  -84.51 input   66.30 | X-H torsion
[ 10763 10752 10751 10750 ] final   51.33 input  -60.55 | X-H torsion
[ 11005 11000 10999 10996 ] final    5.65 input  -57.11 | X-H torsion

> <Gold.Protein.ActiveResidues>
 VAL166  LYS551  ARG553  GLY616  TRP617  ASP618  TYR619  PRO620  LYS621  CYS622 
 ASP623  PHE694  ASN695  SER759  ASP760  ASP761  ALA762  ILE779  LEU786  VAL792 
 PHE793  MET794  SER795  GLU796  ALA797  LYS798  CYS799  TRP800  GLU811  SER814 

> <Gold.Protein.RotatedAtoms>
  152.3516  134.6997  160.0234 H   0  0  0  0  0  0  0  0  0  0  0  0  # atno 6907 bound_to 6896
  151.7349  133.3314  159.3358 H   0  0  0  0  0  0  0  0  0  0  0  0  # atno 6908 bound_to 6896
  150.7544  134.6263  159.6207 H   0  0  0  0  0  0  0  0  0  0  0  0  # atno 6909 bound_to 6896
  146.1909  139.7522  142.8833 H   0  0  0  0  0  0  0  0  0  0  0  0  # atno 7974 bound_to 7965
  154.4063  140.1617  156.2455 H   0  0  0  0  0  0  0  0  0  0  0  0  # atno 8008 bound_to 7997
  155.9164  140.3424  155.6116 H   0  0  0  0  0  0  0  0  0  0  0  0  # atno 8009 bound_to 7997
  155.7274  140.0776  157.2294 H   0  0  0  0  0  0  0  0  0  0  0  0  # atno 8010 bound_to 7997
  139.9823  143.5729  152.2373 H   0  0  0  0  0  0  0  0  0  0  0  0  # atno 10167 bound_to 10162
  156.0005  130.4700  150.4421 H   0  0  0  0  0  0  0  0  0  0  0  0  # atno 10718 bound_to 10713
  152.9785  135.5849  154.4398 H   0  0  0  0  0  0  0  0  0  0  0  0  # atno 10763 bound_to 10752
  154.4001  135.2768  155.2104 H   0  0  0  0  0  0  0  0  0  0  0  0  # atno 10764 bound_to 10752
  154.3938  135.6119  153.5912 H   0  0  0  0  0  0  0  0  0  0  0  0  # atno 10765 bound_to 10752
  140.5683  134.0126  155.7998 H   0  0  0  0  0  0  0  0  0  0  0  0  # atno 11005 bound_to 11000
  145.3796  141.0356  143.3185 LP  0  0  0  0  0  0  0  0  0  0  0  0  # atno 17320 bound_to 7965
  144.8484  139.5360  143.6868 LP  0  0  0  0  0  0  0  0  0  0  0  0  # atno 17321 bound_to 7965
  139.6400  144.7654  151.2358 LP  0  0  0  0  0  0  0  0  0  0  0  0  # atno 17342 bound_to 10162
  140.7484  143.6333  150.8403 LP  0  0  0  0  0  0  0  0  0  0  0  0  # atno 17343 bound_to 10162
  157.2461  131.0536  151.2407 LP  0  0  0  0  0  0  0  0  0  0  0  0  # atno 17370 bound_to 10713
  157.3574  130.7113  149.6479 LP  0  0  0  0  0  0  0  0  0  0  0  0  # atno 17371 bound_to 10713
  141.1072  133.9675  157.2976 LP  0  0  0  0  0  0  0  0  0  0  0  0  # atno 17394 bound_to 11000
  139.9374  135.0195  156.8600 LP  0  0  0  0  0  0  0  0  0  0  0  0  # atno 17395 bound_to 11000

$$$$
