AV-unprocessed.smi:3341|AV-procd|sdf|12883|dock9
  -GOLD-   2272019283D 1   1.00000     0.00000
 Structure written by MMmdl.
 46 47  0  0  0  0  0  0  0  0  2 V2000
  149.9765  142.9468  158.0455 C   0  0  0  0  0  0  0  0  0  0  0  0
  151.0782  142.7540  156.9965 C   0  0  0  0  0  0  0  0  0  0  0  0
  150.7542  141.6904  156.0658 N   0  0  0  0  0  0  0  0  0  0  0  0
  149.7197  141.6406  155.1524 C   0  0  0  0  0  0  0  0  0  0  0  0
  149.8455  140.4372  154.5173 C   0  0  0  0  0  0  0  0  0  0  0  0
  149.0456  139.8724  153.4919 N   0  0  0  0  0  0  0  0  0  0  0  0
  147.8048  139.3720  153.6084 C   0  0  0  0  0  0  0  0  0  0  0  0
  147.1446  139.3463  154.6475 O   0  0  0  0  0  0  0  0  0  0  0  0
  147.3567  138.8973  152.4376 N   0  0  0  0  0  0  0  0  0  0  0  0
  146.0536  138.2749  152.2341 C   0  0  0  0  0  0  0  0  0  0  0  0
  146.1215  137.1502  151.1828 C   0  0  0  0  0  0  0  0  0  0  0  0
  146.4379  135.8293  151.7829 N   0  3  1  0  0  0  0  0  0  0  0  0
  145.8735  135.6878  153.1503 C   0  0  0  0  0  0  0  0  0  0  0  0
  146.3275  134.3737  153.8055 C   0  0  0  0  0  0  0  0  0  0  0  0
  145.9519  133.1683  152.9350 C   0  0  0  0  0  0  0  0  0  0  0  0
  146.5194  133.3394  151.5161 C   0  0  1  0  0  0  0  0  0  0  0  0
  146.1382  132.1574  150.6134 C   0  0  0  0  0  0  0  0  0  0  0  0
  146.0581  134.6823  150.9141 C   0  0  0  0  0  0  0  0  0  0  0  0
  150.9785  139.8098  155.0979 C   0  0  0  0  0  0  0  0  0  0  0  0
  151.5227  140.5737  156.0327 N   0  0  0  0  0  0  0  0  0  0  0  0
  150.2388  143.7447  158.7403 H   0  0  0  0  0  0  0  0  0  0  0  0
  149.8223  142.0366  158.6261 H   0  0  0  0  0  0  0  0  0  0  0  0
  149.0272  143.2114  157.5784 H   0  0  0  0  0  0  0  0  0  0  0  0
  151.2347  143.6764  156.4356 H   0  0  0  0  0  0  0  0  0  0  0  0
  152.0243  142.5153  157.4839 H   0  0  0  0  0  0  0  0  0  0  0  0
  149.0099  142.4477  155.0455 H   0  0  0  0  0  0  0  0  0  0  0  0
  149.4678  139.8378  152.5756 H   0  0  0  0  0  0  0  0  0  0  0  0
  147.9658  138.9583  151.6344 H   0  0  0  0  0  0  0  0  0  0  0  0
  145.7293  137.8880  153.1992 H   0  0  0  0  0  0  0  0  0  0  0  0
  145.3223  139.0299  151.9401 H   0  0  0  0  0  0  0  0  0  0  0  0
  145.1521  137.0881  150.6862 H   0  0  0  0  0  0  0  0  0  0  0  0
  146.8490  137.3882  150.4052 H   0  0  0  0  0  0  0  0  0  0  0  0
  146.1951  136.5239  153.7727 H   0  0  0  0  0  0  0  0  0  0  0  0
  144.7840  135.7285  153.1015 H   0  0  0  0  0  0  0  0  0  0  0  0
  147.4073  134.3937  153.9590 H   0  0  0  0  0  0  0  0  0  0  0  0
  145.8765  134.2747  154.7933 H   0  0  0  0  0  0  0  0  0  0  0  0
  146.3309  132.2513  153.3877 H   0  0  0  0  0  0  0  0  0  0  0  0
  144.8661  133.0701  152.8933 H   0  0  0  0  0  0  0  0  0  0  0  0
  147.6081  133.3589  151.5879 H   0  0  0  0  0  0  0  0  0  0  0  0
  145.0568  132.0788  150.4963 H   0  0  0  0  0  0  0  0  0  0  0  0
  146.4970  131.2152  151.0285 H   0  0  0  0  0  0  0  0  0  0  0  0
  146.5734  132.2650  149.6195 H   0  0  0  0  0  0  0  0  0  0  0  0
  144.9763  134.6796  150.7693 H   0  0  0  0  0  0  0  0  0  0  0  0
  146.5061  134.7960  149.9276 H   0  0  0  0  0  0  0  0  0  0  0  0
  151.4149  138.8468  154.8779 H   0  0  0  0  0  0  0  0  0  0  0  0
  147.4418  135.7985  151.8906 H   0  0  0  0  0  0  0  0  0  0  0  0
  1  2  1  0  0  0  0
  1 21  1  0  0  0  0
  1 22  1  0  0  0  0
  1 23  1  0  0  0  0
  2  3  1  0  0  0  0
  2 24  1  0  0  0  0
  2 25  1  0  0  0  0
  3 20  1  0  0  0  0
  3  4  1  0  0  0  0
  4  5  2  0  0  0  0
  4 26  1  0  0  0  0
  5  6  1  0  0  0  0
  5 19  1  0  0  0  0
  6  7  1  0  0  0  0
  6 27  1  0  0  0  0
  7  8  2  0  0  0  0
  7  9  1  0  0  0  0
  9 10  1  0  0  0  0
  9 28  1  0  0  0  0
 10 11  1  0  0  0  0
 10 29  1  0  0  0  0
 10 30  1  0  0  0  0
 11 12  1  0  0  0  0
 11 31  1  0  0  0  0
 11 32  1  0  0  0  0
 12 18  1  0  0  0  0
 12 13  1  0  0  0  0
 12 46  1  0  0  0  0
 13 14  1  0  0  0  0
 13 33  1  0  0  0  0
 13 34  1  0  0  0  0
 14 15  1  0  0  0  0
 14 35  1  0  0  0  0
 14 36  1  0  0  0  0
 15 16  1  0  0  0  0
 15 37  1  0  0  0  0
 15 38  1  0  0  0  0
 16 17  1  0  0  0  0
 16 18  1  0  0  0  0
 16 39  1  0  0  0  0
 17 40  1  0  0  0  0
 17 41  1  0  0  0  0
 17 42  1  0  0  0  0
 18 43  1  0  0  0  0
 18 44  1  0  0  0  0
 19 20  2  0  0  0  0
 19 45  1  0  0  0  0
M  CHG  1  12   1
M  END
> <s_m_source_file>
AV-unprocessed.smi

> <i_m_source_file_index>
3341

> <i_lp_mmshare_version>
43012

> <i_f3d_flags>
0

> <s_epik_input>
W0NIM11bQ0gyXW4xW2NIXWMoW2NIXW4xKVtOSF1DKD1PKVtOSF1bQ0gyXVtDSDJdTjJbQ0gyXVtDSDJdW0NIMl1bQ0BASF0oW0NIM10pW0NIMl0y

> <s_epik_cmdline>
J2VwaWtfcHl0aG9uJywgJy1waCcsICc3LjAnLCAnLXRuJywgJzgnLCAnLW1hJywgJzIwMCcsICctbWV0YWxfYmluZGluZycsICctaW1hZScsICc8aW5maWxlLm1hZT4nLCAnLW9tYWUnLCAnPG91dGZpbGUubWFlPic=

> <r_lp_tautomer_probability>
1

> <r_epik_Ionization_Penalty>
0.00203389

> <r_epik_Ionization_Penalty_Charging>
0.00188267

> <r_epik_Ionization_Penalty_Neutral>
0.000151224

> <r_epik_State_Penalty>
0.0012808

> <r_epik_Charging_Adjusted_Penalty>
0.00316346

> <i_epik_Tot_Q>
1

> <i_epik_Tot_abs_Q>
1

> <r_epik_Metal_State_Penalty>
-0

> <b_epik_Metal_Only>
0

> <s_lp_Force_Field>
OPLS_2005

> <r_lp_Energy>
20.2182

> <b_lp_Chiralities_Consistent>
1

> <s_lp_Variant>
AV-unprocessed.smi:3341-1

> <Gold.Version>
5.8.1

> <Gold.Id.Protein>
6NUR|6NUR_protein|mol2

> <Gold.PLP.Fitness>
45.9808

> <Gold.PLP.PLP>
-34.3868

> <Gold.PLP.part.hbond>
-3.8820

> <Gold.PLP.part.metal>
0.0000

> <Gold.PLP.part.buried>
-0.5653

> <Gold.PLP.part.nonpolar>
-30.7310

> <Gold.PLP.part.repulsive>
0.3511

> <Gold.PLP.ligand.clash>
0.0000

> <Gold.PLP.ligand.torsion>
1.3201

> <Gold.PLP.Chemscore.Hbond>
3.7360

> <Gold.PLP.Chemscore.CHOScore>
1.0000

> <Gold.PLP.Chemscore.Metal>
0.0000

> <Gold.Chemscore.Hbonds>
donor molecule, donor type, donor heavy atom, donor atom, acceptor molecule, acceptor atom, score
      L1  H     6    27       P1  7957  0.76
      L1  H     9    28       P1  7957  0.74
      L1  H    12    46       P1  7948  2.00
      L1  C     4    26       P1  8028  1.00

> <Gold.PLP.Chemscore.Internal.Correction>
0.0263

> <Gold.Rescore>
     Score         DG    S(hbond)    S(metal)    S(lipo)     H(rot)  DE(clash)    DE(int)     intcor
     18.54     -21.12       2.91        0.00      85.36       1.59       1.42       1.16       ----

> <Gold.Chemscore.Fitness>
18.5383

> <Gold.Chemscore.DG>
-21.1189

> <Gold.Chemscore.ZeroCoef>
-5.4800

> <Gold.Chemscore.Hbond>
2.9115

> <Gold.Chemscore.Metal>
0.0000

> <Gold.Chemscore.Lipo>
85.3616

> <Gold.Chemscore.Internal_Hbond>
0.0000

> <Gold.Chemscore.DEClash>
1.4162

> <Gold.Chemscore.DEInternal>
1.1645

> <Gold.Chemscore.Rot>
1.5909

> <Gold.Chemscore.Internal.Correction>
   9.000000E+99

> <Gold.Chemscore.Hbonds>
donor molecule, donor type, donor heavy atom, donor atom, acceptor molecule, acceptor atom, score
      L1  H     6    27       P1  7957  0.74
      L1  H     9    28       P1  7957  0.63
      L1  H    12    46       P1  7948  0.94

> <Gold.Chemscore.Hbond.Weighted>
-9.7244

> <Gold.Chemscore.Metal.Weighted>
-0.0000

> <Gold.Chemscore.Lipo.Weighted>
-9.9873

> <Gold.Chemscore.Internal_Hbond.Weighted>
0.0000

> <Gold.Chemscore.DEClash.Weighted>
1.4162

> <Gold.Chemscore.DEInternal.Weighted>
1.1645

> <Gold.Chemscore.Rot.Weighted>
4.0728

> <Gold.Chemscore.Internal.Correction.Weighted>
   9.000000E+99

> <Gold.Protein.RotatedTorsions>
[ 6907 6896 6895 6894 ] final  -23.94 input  -60.11 | X-H torsion
[ 7974 7965 7964 7962 ] final  -86.33 input  175.53 | X-H torsion
[ 8008 7997 7996 7995 ] final   32.98 input   59.86 | X-H torsion
[ 10167 10162 10161 10158 ] final  -32.29 input  -65.29 | X-H torsion
[ 10718 10713 10712 10709 ] final   44.19 input   66.30 | X-H torsion
[ 10763 10752 10751 10750 ] final   20.30 input  -60.55 | X-H torsion
[ 11005 11000 10999 10996 ] final  142.26 input  -57.11 | X-H torsion

> <Gold.Protein.ActiveResidues>
 VAL166  LYS551  ARG553  GLY616  TRP617  ASP618  TYR619  PRO620  LYS621  CYS622 
 ASP623  PHE694  ASN695  SER759  ASP760  ASP761  ALA762  ILE779  LEU786  VAL792 
 PHE793  MET794  SER795  GLU796  ALA797  LYS798  CYS799  TRP800  GLU811  SER814 

> <Gold.Protein.RotatedAtoms>
  151.1968  135.0426  159.8855 H   0  0  0  0  0  0  0  0  0  0  0  0  # atno 6907 bound_to 6896
  152.5435  134.0895  159.8280 H   0  0  0  0  0  0  0  0  0  0  0  0  # atno 6908 bound_to 6896
  151.1030  133.5182  159.2641 H   0  0  0  0  0  0  0  0  0  0  0  0  # atno 6909 bound_to 6896
  145.4813  140.9557  143.1863 H   0  0  0  0  0  0  0  0  0  0  0  0  # atno 7974 bound_to 7965
  155.1312  140.3257  155.4474 H   0  0  0  0  0  0  0  0  0  0  0  0  # atno 8008 bound_to 7997
  156.2634  140.2010  156.6380 H   0  0  0  0  0  0  0  0  0  0  0  0  # atno 8009 bound_to 7997
  154.6611  140.0547  157.0050 H   0  0  0  0  0  0  0  0  0  0  0  0  # atno 8010 bound_to 7997
  140.7223  143.3706  151.1786 H   0  0  0  0  0  0  0  0  0  0  0  0  # atno 10167 bound_to 10162
  157.4241  130.7986  149.7542 H   0  0  0  0  0  0  0  0  0  0  0  0  # atno 10718 bound_to 10713
  153.1089  135.6691  153.9536 H   0  0  0  0  0  0  0  0  0  0  0  0  # atno 10763 bound_to 10752
  153.9086  135.3028  155.3450 H   0  0  0  0  0  0  0  0  0  0  0  0  # atno 10764 bound_to 10752
  154.7509  135.5035  153.9364 H   0  0  0  0  0  0  0  0  0  0  0  0  # atno 10765 bound_to 10752
  140.0463  134.9279  157.0936 H   0  0  0  0  0  0  0  0  0  0  0  0  # atno 11005 bound_to 11000
  144.7887  139.6372  143.7122 LP  0  0  0  0  0  0  0  0  0  0  0  0  # atno 17320 bound_to 7965
  146.2339  139.5867  142.9536 LP  0  0  0  0  0  0  0  0  0  0  0  0  # atno 17321 bound_to 7965
  139.7276  143.9124  152.3008 LP  0  0  0  0  0  0  0  0  0  0  0  0  # atno 17342 bound_to 10162
  139.8902  144.6970  150.8779 LP  0  0  0  0  0  0  0  0  0  0  0  0  # atno 17343 bound_to 10162
  155.9890  130.3955  150.3091 LP  0  0  0  0  0  0  0  0  0  0  0  0  # atno 17370 bound_to 10713
  157.1241  131.0254  151.2997 LP  0  0  0  0  0  0  0  0  0  0  0  0  # atno 17371 bound_to 10713
  140.3988  134.2105  155.7164 LP  0  0  0  0  0  0  0  0  0  0  0  0  # atno 17394 bound_to 11000
  141.1908  133.8208  157.0902 LP  0  0  0  0  0  0  0  0  0  0  0  0  # atno 17395 bound_to 11000

$$$$
