AV-unprocessed.smi:1007|AV-procd|sdf|4398|dock4
  -GOLD-   22720 2333D 1   1.00000     0.00000
 Structure written by MMmdl.
 56 58  0  0  0  0  0  0  0  0  2 V2000
  145.2318  142.0707  160.9327 C   0  0  0  0  0  0  0  0  0  0  0  0
  145.4578  140.9580  160.0811 O   0  0  0  0  0  0  0  0  0  0  0  0
  144.4950  140.8142  159.0467 C   0  0  0  0  0  0  0  0  0  0  0  0
  144.7092  141.8521  157.9291 C   0  0  0  0  0  0  0  0  0  0  0  0
  143.9389  141.6070  156.7058 N   0  0  0  0  0  0  0  0  0  0  0  0
  144.1678  142.6239  155.6799 C   0  0  0  0  0  0  0  0  0  0  0  0
  145.5633  142.5318  155.0284 C   0  0  0  0  0  0  0  0  0  0  0  0
  145.7768  141.1789  154.4471 N   0  3  0  0  0  0  0  0  0  0  0  0
  147.0851  141.0267  153.7619 C   0  0  0  0  0  0  0  0  0  0  0  0
  148.2738  141.4792  154.6392 C   0  0  2  0  0  0  0  0  0  0  0  0
  148.5353  142.8446  154.3849 O   0  0  0  0  0  0  0  0  0  0  0  0
  149.5724  140.6939  154.3710 C   0  0  0  0  0  0  0  0  0  0  0  0
  150.1656  140.1705  155.5880 N   0  0  0  0  0  0  0  0  0  0  0  0
  150.2760  138.8756  155.9417 C   0  0  0  0  0  0  0  0  0  0  0  0
  150.8683  138.6102  157.1021 N   0  0  0  0  0  0  0  0  0  0  0  0
  151.1712  139.8813  157.5588 C   0  0  0  0  0  0  0  0  0  0  0  0
  151.8150  140.3008  158.7433 C   0  0  0  0  0  0  0  0  0  0  0  0
  152.0280  141.6730  159.0053 C   0  0  0  0  0  0  0  0  0  0  0  0
  152.7260  142.0787  160.2915 C   0  0  0  0  0  0  0  0  0  0  0  0
  151.5944  142.6502  158.0736 C   0  0  0  0  0  0  0  0  0  0  0  0
  151.8128  144.1302  158.3338 C   0  0  0  0  0  0  0  0  0  0  0  0
  150.9482  142.2485  156.8859 C   0  0  0  0  0  0  0  0  0  0  0  0
  150.7426  140.8801  156.6362 C   0  0  0  0  0  0  0  0  0  0  0  0
  145.5500  140.1269  155.4714 C   0  0  0  0  0  0  0  0  0  0  0  0
  144.1544  140.2876  156.1072 C   0  0  0  0  0  0  0  0  0  0  0  0
  146.0426  142.1414  161.6577 H   0  0  0  0  0  0  0  0  0  0  0  0
  144.3000  141.9738  161.4896 H   0  0  0  0  0  0  0  0  0  0  0  0
  145.2078  143.0033  160.3680 H   0  0  0  0  0  0  0  0  0  0  0  0
  144.5057  139.7931  158.6639 H   0  0  0  0  0  0  0  0  0  0  0  0
  143.5126  140.9696  159.4939 H   0  0  0  0  0  0  0  0  0  0  0  0
  144.4197  142.8243  158.3302 H   0  0  0  0  0  0  0  0  0  0  0  0
  145.7702  141.9319  157.6989 H   0  0  0  0  0  0  0  0  0  0  0  0
  143.4090  142.5208  154.9029 H   0  0  0  0  0  0  0  0  0  0  0  0
  144.0225  143.6178  156.1049 H   0  0  0  0  0  0  0  0  0  0  0  0
  145.6374  143.2918  154.2520 H   0  0  0  0  0  0  0  0  0  0  0  0
  146.3455  142.7539  155.7555 H   0  0  0  0  0  0  0  0  0  0  0  0
  147.1934  139.9855  153.4560 H   0  0  0  0  0  0  0  0  0  0  0  0
  147.0914  141.6137  152.8420 H   0  0  0  0  0  0  0  0  0  0  0  0
  148.0270  141.3774  155.6955 H   0  0  0  0  0  0  0  0  0  0  0  0
  148.4670  143.3241  155.1970 H   0  0  0  0  0  0  0  0  0  0  0  0
  149.3851  139.8633  153.6891 H   0  0  0  0  0  0  0  0  0  0  0  0
  150.3085  141.3351  153.8838 H   0  0  0  0  0  0  0  0  0  0  0  0
  149.9059  138.0825  155.3081 H   0  0  0  0  0  0  0  0  0  0  0  0
  152.1458  139.5566  159.4528 H   0  0  0  0  0  0  0  0  0  0  0  0
  152.1124  142.7794  160.8577 H   0  0  0  0  0  0  0  0  0  0  0  0
  153.6821  142.5542  160.0718 H   0  0  0  0  0  0  0  0  0  0  0  0
  152.9192  141.2158  160.9294 H   0  0  0  0  0  0  0  0  0  0  0  0
  151.4820  144.7359  157.4898 H   0  0  0  0  0  0  0  0  0  0  0  0
  152.8694  144.3391  158.5002 H   0  0  0  0  0  0  0  0  0  0  0  0
  151.2538  144.4484  159.2140 H   0  0  0  0  0  0  0  0  0  0  0  0
  150.6128  142.9835  156.1693 H   0  0  0  0  0  0  0  0  0  0  0  0
  145.6175  139.1442  155.0034 H   0  0  0  0  0  0  0  0  0  0  0  0
  146.3333  140.1672  156.2294 H   0  0  0  0  0  0  0  0  0  0  0  0
  143.9864  139.5018  156.8426 H   0  0  0  0  0  0  0  0  0  0  0  0
  143.4002  140.1252  155.3359 H   0  0  0  0  0  0  0  0  0  0  0  0
  145.0655  141.0442  153.7426 H   0  0  0  0  0  0  0  0  0  0  0  0
  1  2  1  0  0  0  0
  1 26  1  0  0  0  0
  1 27  1  0  0  0  0
  1 28  1  0  0  0  0
  2  3  1  0  0  0  0
  3  4  1  0  0  0  0
  3 29  1  0  0  0  0
  3 30  1  0  0  0  0
  4  5  1  0  0  0  0
  4 31  1  0  0  0  0
  4 32  1  0  0  0  0
  5 25  1  0  0  0  0
  5  6  1  0  0  0  0
  6  7  1  0  0  0  0
  6 33  1  0  0  0  0
  6 34  1  0  0  0  0
  7  8  1  0  0  0  0
  7 35  1  0  0  0  0
  7 36  1  0  0  0  0
  8  9  1  0  0  0  0
  8 24  1  0  0  0  0
  8 56  1  0  0  0  0
  9 10  1  0  0  0  0
  9 37  1  0  0  0  0
  9 38  1  0  0  0  0
 10 11  1  0  0  0  0
 10 12  1  0  0  0  0
 10 39  1  0  0  0  0
 11 40  1  0  0  0  0
 12 13  1  0  0  0  0
 12 41  1  0  0  0  0
 12 42  1  0  0  0  0
 13 23  1  0  0  0  0
 13 14  1  0  0  0  0
 14 15  2  0  0  0  0
 14 43  1  0  0  0  0
 15 16  1  0  0  0  0
 16 23  2  0  0  0  0
 16 17  1  0  0  0  0
 17 18  2  0  0  0  0
 17 44  1  0  0  0  0
 18 19  1  0  0  0  0
 18 20  1  0  0  0  0
 19 45  1  0  0  0  0
 19 46  1  0  0  0  0
 19 47  1  0  0  0  0
 20 21  1  0  0  0  0
 20 22  2  0  0  0  0
 21 48  1  0  0  0  0
 21 49  1  0  0  0  0
 21 50  1  0  0  0  0
 22 23  1  0  0  0  0
 22 51  1  0  0  0  0
 24 25  1  0  0  0  0
 24 52  1  0  0  0  0
 24 53  1  0  0  0  0
 25 54  1  0  0  0  0
 25 55  1  0  0  0  0
M  CHG  1   8   1
M  END
> <s_m_source_file>
AV-unprocessed.smi

> <i_m_source_file_index>
1007

> <i_lp_mmshare_version>
43012

> <i_f3d_flags>
0

> <s_epik_input>
W0NIM11PW0NIMl1bQ0gyXU4xW0NIMl1bQ0gyXU4oW0NIMl1bQ0gyXTEpW0NIMl1bQ0BIXShbT0hdKVtDSDJdbihbY0hdbjIpYyhjMjMpW2NIXWMoW0NIM10pYyhbY0hdMylbQ0gzXQ==

> <s_epik_cmdline>
J2VwaWtfcHl0aG9uJywgJy1waCcsICc3LjAnLCAnLXRuJywgJzgnLCAnLW1hJywgJzIwMCcsICctbWV0YWxfYmluZGluZycsICctaW1hZScsICc8aW5maWxlLm1hZT4nLCAnLW9tYWUnLCAnPG91dGZpbGUubWFlPic=

> <r_epik_Ionization_Penalty>
0.102698

> <r_epik_Ionization_Penalty_Charging>
0.00226046

> <r_epik_Ionization_Penalty_Neutral>
0.100438

> <r_epik_State_Penalty>
0.191223

> <r_epik_Charging_Adjusted_Penalty>
0.193484

> <i_epik_Tot_Q>
1

> <i_epik_Tot_abs_Q>
1

> <r_epik_Metal_State_Penalty>
0.102154

> <b_epik_Metal_Only>
0

> <s_lp_Force_Field>
OPLS_2005

> <r_lp_Energy>
34.1063

> <b_lp_Chiralities_Consistent>
1

> <s_lp_Variant>
AV-unprocessed.smi:1007-1

> <Gold.Version>
5.8.1

> <Gold.Id.Protein>
6NUR|6NUR_protein|mol2

> <Gold.PLP.Fitness>
53.3066

> <Gold.PLP.PLP>
-43.8906

> <Gold.PLP.part.hbond>
-4.5784

> <Gold.PLP.part.metal>
0.0000

> <Gold.PLP.part.buried>
-3.9975

> <Gold.PLP.part.nonpolar>
-35.2938

> <Gold.PLP.part.repulsive>
0.0459

> <Gold.PLP.ligand.clash>
0.0000

> <Gold.PLP.ligand.torsion>
1.3403

> <Gold.PLP.Chemscore.Hbond>
4.0000

> <Gold.PLP.Chemscore.CHOScore>
0.0000

> <Gold.PLP.Chemscore.Metal>
0.0000

> <Gold.Chemscore.Hbonds>
donor molecule, donor type, donor heavy atom, donor atom, acceptor molecule, acceptor atom, score
      L1  H     8    56       P1 10175  2.00
      L1  H    11    40       P1  8028  0.63
      P1  H  6934  6946       L1     2  0.32
      P1  H  8022  8030       L1    11  0.09

> <Gold.PLP.Chemscore.Internal.Correction>
0.0967

> <Gold.Rescore>
     Score         DG    S(hbond)    S(metal)    S(lipo)     H(rot)  DE(clash)    DE(int)     intcor
     20.37     -21.79       3.17        0.00     104.79       2.56       0.01       1.40       ----

> <Gold.Chemscore.Fitness>
20.3715

> <Gold.Chemscore.DG>
-21.7852

> <Gold.Chemscore.ZeroCoef>
-5.4800

> <Gold.Chemscore.Hbond>
3.1728

> <Gold.Chemscore.Metal>
0.0000

> <Gold.Chemscore.Lipo>
104.7863

> <Gold.Chemscore.Internal_Hbond>
0.0000

> <Gold.Chemscore.DEClash>
0.0106

> <Gold.Chemscore.DEInternal>
1.4031

> <Gold.Chemscore.Rot>
2.5594

> <Gold.Chemscore.Internal.Correction>
   9.000000E+99

> <Gold.Chemscore.Hbonds>
donor molecule, donor type, donor heavy atom, donor atom, acceptor molecule, acceptor atom, score
      L1  H     8    56       P1 10175  0.74
      L1  H    11    40       P1  8028  0.61
      P1  H  6934  6946       L1     2  0.01

> <Gold.Chemscore.Hbond.Weighted>
-10.5973

> <Gold.Chemscore.Metal.Weighted>
-0.0000

> <Gold.Chemscore.Lipo.Weighted>
-12.2600

> <Gold.Chemscore.Internal_Hbond.Weighted>
0.0000

> <Gold.Chemscore.DEClash.Weighted>
0.0106

> <Gold.Chemscore.DEInternal.Weighted>
1.4031

> <Gold.Chemscore.Rot.Weighted>
6.5522

> <Gold.Chemscore.Internal.Correction.Weighted>
   9.000000E+99

> <Gold.Protein.RotatedTorsions>
[ 6907 6896 6895 6894 ] final   21.45 input  -60.11 | X-H torsion
[ 7974 7965 7964 7962 ] final   25.32 input  175.53 | X-H torsion
[ 8008 7997 7996 7995 ] final  175.73 input   59.86 | X-H torsion
[ 10167 10162 10161 10158 ] final   14.09 input  -65.29 | X-H torsion
[ 10718 10713 10712 10709 ] final  -54.49 input   66.30 | X-H torsion
[ 10763 10752 10751 10750 ] final -149.34 input  -60.55 | X-H torsion
[ 11005 11000 10999 10996 ] final   30.60 input  -57.11 | X-H torsion

> <Gold.Protein.ActiveResidues>
 VAL166  LYS551  ARG553  GLY616  TRP617  ASP618  TYR619  PRO620  LYS621  CYS622 
 ASP623  PHE694  ASN695  SER759  ASP760  ASP761  ALA762  ILE779  LEU786  VAL792 
 PHE793  MET794  SER795  GLU796  ALA797  LYS798  CYS799  TRP800  GLU811  SER814 

> <Gold.Protein.RotatedAtoms>
  151.9120  135.0335  160.0514 H   0  0  0  0  0  0  0  0  0  0  0  0  # atno 6907 bound_to 6896
  152.2272  133.5025  159.5203 H   0  0  0  0  0  0  0  0  0  0  0  0  # atno 6908 bound_to 6896
  150.7015  134.1181  159.4067 H   0  0  0  0  0  0  0  0  0  0  0  0  # atno 6909 bound_to 6896
  146.1894  139.7482  142.8842 H   0  0  0  0  0  0  0  0  0  0  0  0  # atno 7974 bound_to 7965
  156.0839  140.1401  156.9677 H   0  0  0  0  0  0  0  0  0  0  0  0  # atno 8008 bound_to 7997
  154.4601  140.0946  156.6918 H   0  0  0  0  0  0  0  0  0  0  0  0  # atno 8009 bound_to 7997
  155.5030  140.3451  155.4377 H   0  0  0  0  0  0  0  0  0  0  0  0  # atno 8010 bound_to 7997
  140.5959  143.8703  150.6917 H   0  0  0  0  0  0  0  0  0  0  0  0  # atno 10167 bound_to 10162
  156.1447  130.4153  150.0045 H   0  0  0  0  0  0  0  0  0  0  0  0  # atno 10718 bound_to 10713
  154.8183  135.3312  154.7113 H   0  0  0  0  0  0  0  0  0  0  0  0  # atno 10763 bound_to 10752
  153.7750  135.6923  153.4903 H   0  0  0  0  0  0  0  0  0  0  0  0  # atno 10764 bound_to 10752
  153.2019  135.4513  155.0224 H   0  0  0  0  0  0  0  0  0  0  0  0  # atno 10765 bound_to 10752
  140.2927  134.2846  155.7772 H   0  0  0  0  0  0  0  0  0  0  0  0  # atno 11005 bound_to 11000
  145.3838  141.0362  143.3162 LP  0  0  0  0  0  0  0  0  0  0  0  0  # atno 17320 bound_to 7965
  144.8458  139.5399  143.6879 LP  0  0  0  0  0  0  0  0  0  0  0  0  # atno 17321 bound_to 7965
  140.2237  143.3789  152.1622 LP  0  0  0  0  0  0  0  0  0  0  0  0  # atno 17342 bound_to 10162
  139.5258  144.7100  151.5237 LP  0  0  0  0  0  0  0  0  0  0  0  0  # atno 17343 bound_to 10162
  156.7920  130.9259  151.3646 LP  0  0  0  0  0  0  0  0  0  0  0  0  # atno 17370 bound_to 10713
  157.6606  130.8962  149.9821 LP  0  0  0  0  0  0  0  0  0  0  0  0  # atno 17371 bound_to 10713
  141.2143  133.7595  156.9648 LP  0  0  0  0  0  0  0  0  0  0  0  0  # atno 17394 bound_to 11000
  140.1181  134.9434  157.2164 LP  0  0  0  0  0  0  0  0  0  0  0  0  # atno 17395 bound_to 11000

$$$$
