AV-unprocessed.smi:1795|AV-procd|sdf|7250|dock7
  -GOLD-   22720 8503D 1   1.00000     0.00000
 Structure written by MMmdl.
 48 49  0  0  0  0  0  0  0  0  2 V2000
  149.4094  133.2630  153.3636 C   0  0  0  0  0  0  0  0  0  0  0  0
  149.0937  133.6009  154.8317 C   0  0  1  0  0  0  0  0  0  0  0  0
  149.7592  134.8999  155.3230 C   0  0  0  0  0  0  0  0  0  0  0  0
  149.1098  136.1050  154.7399 N   0  3  2  0  0  0  0  0  0  0  0  0
  149.8296  137.3711  155.0982 C   0  0  1  0  0  0  0  0  0  0  0  0
  151.3130  137.2574  154.6797 C   0  0  0  0  0  0  0  0  0  0  0  0
  149.1819  138.6543  154.5063 C   0  0  0  0  0  0  0  0  0  0  0  0
  149.9353  139.8656  154.8202 N   0  0  0  0  0  0  0  0  0  0  0  0
  149.7205  140.6663  155.8757 C   0  0  0  0  0  0  0  0  0  0  0  0
  148.8568  140.4475  156.7257 O   0  0  0  0  0  0  0  0  0  0  0  0
  150.6279  141.8988  155.9857 C   0  0  0  0  0  0  0  0  0  0  0  0
  151.2819  142.0085  157.3000 N   0  0  0  0  0  0  0  0  0  0  0  0
  150.9778  143.1429  158.0788 C   0  0  0  0  0  0  0  0  0  0  0  0
  151.5203  143.3376  159.2911 C   0  0  0  0  0  0  0  0  0  0  0  0
  152.4387  142.3445  159.7957 C   0  0  0  0  0  0  0  0  0  0  0  0
  152.7397  141.2577  159.0573 C   0  0  0  0  0  0  0  0  0  0  0  0
  152.1524  141.0429  157.7297 C   0  0  0  0  0  0  0  0  0  0  0  0
  152.4263  140.0563  157.0451 O   0  0  0  0  0  0  0  0  0  0  0  0
  147.6522  136.0691  155.0353 C   0  0  0  0  0  0  0  0  0  0  0  0
  147.0193  134.7607  154.5251 C   0  0  2  0  0  0  0  0  0  0  0  0
  145.5371  134.6558  154.9013 C   0  0  0  0  0  0  0  0  0  0  0  0
  147.6933  133.6436  155.0939 O   0  0  0  0  0  0  0  0  0  0  0  0
  150.4779  133.0948  153.2278 H   0  0  0  0  0  0  0  0  0  0  0  0
  149.1197  134.0621  152.6817 H   0  0  0  0  0  0  0  0  0  0  0  0
  148.8921  132.3546  153.0541 H   0  0  0  0  0  0  0  0  0  0  0  0
  149.4854  132.7803  155.4337 H   0  0  0  0  0  0  0  0  0  0  0  0
  149.6863  134.9519  156.4108 H   0  0  0  0  0  0  0  0  0  0  0  0
  150.8219  134.8650  155.0888 H   0  0  0  0  0  0  0  0  0  0  0  0
  149.7906  137.4754  156.1839 H   0  0  0  0  0  0  0  0  0  0  0  0
  151.8981  138.1075  155.0292 H   0  0  0  0  0  0  0  0  0  0  0  0
  151.4110  137.2135  153.5946 H   0  0  0  0  0  0  0  0  0  0  0  0
  151.7993  136.3732  155.0875 H   0  0  0  0  0  0  0  0  0  0  0  0
  149.0456  138.5510  153.4282 H   0  0  0  0  0  0  0  0  0  0  0  0
  148.1910  138.8131  154.9317 H   0  0  0  0  0  0  0  0  0  0  0  0
  150.6712  140.1224  154.1778 H   0  0  0  0  0  0  0  0  0  0  0  0
  151.3686  141.8453  155.1870 H   0  0  0  0  0  0  0  0  0  0  0  0
  150.0530  142.8043  155.7824 H   0  0  0  0  0  0  0  0  0  0  0  0
  150.2873  143.8408  157.6280 H   0  0  0  0  0  0  0  0  0  0  0  0
  151.2789  144.2153  159.8724 H   0  0  0  0  0  0  0  0  0  0  0  0
  152.8872  142.4741  160.7697 H   0  0  0  0  0  0  0  0  0  0  0  0
  153.4291  140.5254  159.4510 H   0  0  0  0  0  0  0  0  0  0  0  0
  147.4937  136.1782  156.1095 H   0  0  0  0  0  0  0  0  0  0  0  0
  147.1345  136.8905  154.5412 H   0  0  0  0  0  0  0  0  0  0  0  0
  147.0926  134.7195  153.4382 H   0  0  0  0  0  0  0  0  0  0  0  0
  144.9638  135.4798  154.4760 H   0  0  0  0  0  0  0  0  0  0  0  0
  145.4010  134.6764  155.9829 H   0  0  0  0  0  0  0  0  0  0  0  0
  145.1056  133.7261  154.5294 H   0  0  0  0  0  0  0  0  0  0  0  0
  149.1836  136.0216  153.7359 H   0  0  0  0  0  0  0  0  0  0  0  0
  1  2  1  0  0  0  0
  1 23  1  0  0  0  0
  1 24  1  0  0  0  0
  1 25  1  0  0  0  0
  2 22  1  0  0  0  0
  2  3  1  0  0  0  0
  2 26  1  0  0  0  0
  3  4  1  0  0  0  0
  3 27  1  0  0  0  0
  3 28  1  0  0  0  0
  4  5  1  0  0  0  0
  4 19  1  0  0  0  0
  4 48  1  0  0  0  0
  5  6  1  0  0  0  0
  5  7  1  0  0  0  0
  5 29  1  0  0  0  0
  6 30  1  0  0  0  0
  6 31  1  0  0  0  0
  6 32  1  0  0  0  0
  7  8  1  0  0  0  0
  7 33  1  0  0  0  0
  7 34  1  0  0  0  0
  8  9  1  0  0  0  0
  8 35  1  0  0  0  0
  9 10  2  0  0  0  0
  9 11  1  0  0  0  0
 11 12  1  0  0  0  0
 11 36  1  0  0  0  0
 11 37  1  0  0  0  0
 12 17  1  0  0  0  0
 12 13  1  0  0  0  0
 13 14  2  0  0  0  0
 13 38  1  0  0  0  0
 14 15  1  0  0  0  0
 14 39  1  0  0  0  0
 15 16  2  0  0  0  0
 15 40  1  0  0  0  0
 16 17  1  0  0  0  0
 16 41  1  0  0  0  0
 17 18  2  0  0  0  0
 19 20  1  0  0  0  0
 19 42  1  0  0  0  0
 19 43  1  0  0  0  0
 20 21  1  0  0  0  0
 20 22  1  0  0  0  0
 20 44  1  0  0  0  0
 21 45  1  0  0  0  0
 21 46  1  0  0  0  0
 21 47  1  0  0  0  0
M  CHG  1   4   1
M  END
> <s_m_source_file>
AV-unprocessed.smi

> <i_m_source_file_index>
1795

> <i_lp_mmshare_version>
43012

> <i_f3d_flags>
0

> <s_epik_input>
W0NIM11bQ0BASF0xW0NIMl1OKFtDSDJdW0NASF0oTzEpW0NIM10pW0NASF0oW0NIM10pW0NIMl1bTkhdQyg9TylbQ0gyXW4yW2NIXVtjSF1bY0hdW2NIXWMyPU8=

> <s_epik_cmdline>
J2VwaWtfcHl0aG9uJywgJy1waCcsICc3LjAnLCAnLXRuJywgJzgnLCAnLW1hJywgJzIwMCcsICctbWV0YWxfYmluZGluZycsICctaW1hZScsICc8aW5maWxlLm1hZT4nLCAnLW9tYWUnLCAnPG91dGZpbGUubWFlPic=

> <r_lp_tautomer_probability>
1

> <r_epik_Ionization_Penalty>
0.656654

> <r_epik_Ionization_Penalty_Charging>
0.656654

> <r_epik_Ionization_Penalty_Neutral>
8.90321e-08

> <r_epik_State_Penalty>
0.675641

> <r_epik_Charging_Adjusted_Penalty>
1.33229

> <i_epik_Tot_Q>
1

> <i_epik_Tot_abs_Q>
1

> <r_epik_Metal_State_Penalty>
0.675691

> <b_epik_Metal_Only>
0

> <s_lp_Force_Field>
OPLS_2005

> <r_lp_Energy>
30.8259

> <b_lp_Chiralities_Consistent>
1

> <s_lp_Variant>
AV-unprocessed.smi:1795-14

> <Gold.Version>
5.8.1

> <Gold.Id.Protein>
6NUR|6NUR_protein|mol2

> <Gold.PLP.Fitness>
44.5740

> <Gold.PLP.PLP>
-33.0528

> <Gold.PLP.part.hbond>
-2.0000

> <Gold.PLP.part.metal>
0.0000

> <Gold.PLP.part.buried>
-5.4478

> <Gold.PLP.part.nonpolar>
-25.8352

> <Gold.PLP.part.repulsive>
0.1953

> <Gold.PLP.ligand.clash>
0.0000

> <Gold.PLP.ligand.torsion>
0.2806

> <Gold.PLP.Chemscore.Hbond>
3.0000

> <Gold.PLP.Chemscore.CHOScore>
1.0000

> <Gold.PLP.Chemscore.Metal>
0.0000

> <Gold.Chemscore.Hbonds>
donor molecule, donor type, donor heavy atom, donor atom, acceptor molecule, acceptor atom, score
      L1  H     4    48       P1  7948  2.00
      P1  H  7997  8008       L1    18  1.00
      L1  C    13    38       P1  8028  0.95

> <Gold.PLP.Chemscore.Internal.Correction>
0.0825

> <Gold.Rescore>
     Score         DG    S(hbond)    S(metal)    S(lipo)     H(rot)  DE(clash)    DE(int)     intcor
     16.19     -16.57       1.88        0.00      82.42       1.89       0.03       0.35       ----

> <Gold.Chemscore.Fitness>
16.1887

> <Gold.Chemscore.DG>
-16.5695

> <Gold.Chemscore.ZeroCoef>
-5.4800

> <Gold.Chemscore.Hbond>
1.8793

> <Gold.Chemscore.Metal>
0.0000

> <Gold.Chemscore.Lipo>
82.4215

> <Gold.Chemscore.Internal_Hbond>
0.0000

> <Gold.Chemscore.DEClash>
0.0288

> <Gold.Chemscore.DEInternal>
0.3520

> <Gold.Chemscore.Rot>
1.8870

> <Gold.Chemscore.Internal.Correction>
   9.000000E+99

> <Gold.Chemscore.Hbonds>
donor molecule, donor type, donor heavy atom, donor atom, acceptor molecule, acceptor atom, score
      L1  H     4    48       P1  7948  0.88
      P1  H  7997  8008       L1    18  0.67

> <Gold.Chemscore.Hbond.Weighted>
-6.2770

> <Gold.Chemscore.Metal.Weighted>
-0.0000

> <Gold.Chemscore.Lipo.Weighted>
-9.6433

> <Gold.Chemscore.Internal_Hbond.Weighted>
0.0000

> <Gold.Chemscore.DEClash.Weighted>
0.0288

> <Gold.Chemscore.DEInternal.Weighted>
0.3520

> <Gold.Chemscore.Rot.Weighted>
4.8308

> <Gold.Chemscore.Internal.Correction.Weighted>
   9.000000E+99

> <Gold.Protein.RotatedTorsions>
[ 6907 6896 6895 6894 ] final  161.23 input  -60.11 | X-H torsion
[ 7974 7965 7964 7962 ] final  159.39 input  175.53 | X-H torsion
[ 8008 7997 7996 7995 ] final  -53.31 input   59.86 | X-H torsion
[ 10167 10162 10161 10158 ] final -104.30 input  -65.29 | X-H torsion
[ 10718 10713 10712 10709 ] final   72.34 input   66.30 | X-H torsion
[ 10763 10752 10751 10750 ] final   25.32 input  -60.55 | X-H torsion
[ 11005 11000 10999 10996 ] final  -32.30 input  -57.11 | X-H torsion

> <Gold.Protein.ActiveResidues>
 VAL166  LYS551  ARG553  GLY616  TRP617  ASP618  TYR619  PRO620  LYS621  CYS622 
 ASP623  PHE694  ASN695  SER759  ASP760  ASP761  ALA762  ILE779  LEU786  VAL792 
 PHE793  MET794  SER795  GLU796  ALA797  LYS798  CYS799  TRP800  GLU811  SER814 

> <Gold.Protein.RotatedAtoms>
  151.9587  133.3688  159.4026 H   0  0  0  0  0  0  0  0  0  0  0  0  # atno 6907 bound_to 6896
  150.6968  134.4263  159.5237 H   0  0  0  0  0  0  0  0  0  0  0  0  # atno 6908 bound_to 6896
  152.1948  134.8640  160.0564 H   0  0  0  0  0  0  0  0  0  0  0  0  # atno 6909 bound_to 6896
  144.7793  139.7611  143.6266 H   0  0  0  0  0  0  0  0  0  0  0  0  # atno 7974 bound_to 7965
  154.4129  140.1203  156.5132 H   0  0  0  0  0  0  0  0  0  0  0  0  # atno 8008 bound_to 7997
  155.6778  140.3496  155.4824 H   0  0  0  0  0  0  0  0  0  0  0  0  # atno 8009 bound_to 7997
  155.9578  140.1117  157.0912 H   0  0  0  0  0  0  0  0  0  0  0  0  # atno 8010 bound_to 7997
  140.2108  143.3748  152.1052 H   0  0  0  0  0  0  0  0  0  0  0  0  # atno 10167 bound_to 10162
  157.6496  130.9574  150.0915 H   0  0  0  0  0  0  0  0  0  0  0  0  # atno 10718 bound_to 10713
  153.0700  135.6585  154.0268 H   0  0  0  0  0  0  0  0  0  0  0  0  # atno 10763 bound_to 10752
  153.9916  135.2945  155.3413 H   0  0  0  0  0  0  0  0  0  0  0  0  # atno 10764 bound_to 10752
  154.7072  135.5220  153.8682 H   0  0  0  0  0  0  0  0  0  0  0  0  # atno 10765 bound_to 10752
  140.9541  133.7203  156.1265 H   0  0  0  0  0  0  0  0  0  0  0  0  # atno 11005 bound_to 11000
  146.1991  139.5276  142.9755 LP  0  0  0  0  0  0  0  0  0  0  0  0  # atno 17320 bound_to 7965
  145.6096  141.0342  143.1974 LP  0  0  0  0  0  0  0  0  0  0  0  0  # atno 17321 bound_to 7965
  139.5181  144.7001  151.5519 LP  0  0  0  0  0  0  0  0  0  0  0  0  # atno 17342 bound_to 10162
  140.6325  143.9048  150.6618 LP  0  0  0  0  0  0  0  0  0  0  0  0  # atno 17343 bound_to 10162
  156.1863  130.3652  149.8968 LP  0  0  0  0  0  0  0  0  0  0  0  0  # atno 17370 bound_to 10713
  156.6908  130.8895  151.3588 LP  0  0  0  0  0  0  0  0  0  0  0  0  # atno 17371 bound_to 10713
  140.7561  134.3991  157.5533 LP  0  0  0  0  0  0  0  0  0  0  0  0  # atno 17394 bound_to 11000
  139.8856  134.8931  156.2631 LP  0  0  0  0  0  0  0  0  0  0  0  0  # atno 17395 bound_to 11000

$$$$
