AV-unprocessed.smi:527|AV-procd|sdf|2820|dock4
  -GOLD-   2262023303D 1   1.00000     0.00000
 Structure written by MMmdl.
 42 43  0  0  0  0  0  0  0  0  1 V2000
  151.5889  140.0575  155.6432 C   0  0  0  0  0  0  0  0  0  0  0  0
  150.0685  140.0988  155.4010 C   0  0  1  0  0  0  0  0  0  0  0  0
  149.6840  141.4570  154.7806 C   0  0  0  0  0  0  0  0  0  0  0  0
  148.1740  141.5705  154.5463 C   0  0  0  0  0  0  0  0  0  0  0  0
  147.6806  140.4306  153.6508 C   0  0  0  0  0  0  0  0  0  0  0  0
  148.0327  139.0545  154.2489 C   0  0  1  0  0  0  0  0  0  0  0  0
  147.5789  138.0015  153.3411 N   0  0  0  0  0  0  0  0  0  0  0  0
  146.2999  137.6669  153.1151 C   0  0  0  0  0  0  0  0  0  0  0  0
  145.3566  138.1154  153.7703 O   0  0  0  0  0  0  0  0  0  0  0  0
  146.2036  136.7907  152.0963 N   0  0  0  0  0  0  0  0  0  0  0  0
  145.0827  136.2362  151.5908 C   0  0  0  0  0  0  0  0  0  0  0  0
  143.9394  136.4639  151.9951 O   0  0  0  0  0  0  0  0  0  0  0  0
  145.3189  135.2558  150.4339 C   0  0  0  0  0  0  0  0  0  0  0  0
  144.7944  133.9263  150.6968 N   0  0  0  0  0  0  0  0  0  0  0  0
  143.7332  133.3004  150.0544 C   0  0  0  0  0  0  0  0  0  0  0  0
  143.6029  132.0572  150.6314 C   0  0  0  0  0  0  0  0  0  0  0  0
  144.5655  131.8981  151.6254 N   0  0  0  0  0  0  0  0  0  0  0  0
  145.2345  133.0436  151.6045 C   0  0  0  0  0  0  0  0  0  0  0  0
  149.5546  138.9176  154.5284 C   0  0  2  0  0  0  0  0  0  0  0  0
  149.8792  137.5470  155.1628 C   0  0  0  0  0  0  0  0  0  0  0  0
  152.1410  140.0319  154.7033 H   0  0  0  0  0  0  0  0  0  0  0  0
  151.8853  139.1901  156.2319 H   0  0  0  0  0  0  0  0  0  0  0  0
  151.9200  140.9372  156.1957 H   0  0  0  0  0  0  0  0  0  0  0  0
  149.5814  140.0343  156.3752 H   0  0  0  0  0  0  0  0  0  0  0  0
  150.0073  142.2700  155.4317 H   0  0  0  0  0  0  0  0  0  0  0  0
  150.2101  141.5938  153.8347 H   0  0  0  0  0  0  0  0  0  0  0  0
  147.6483  141.5447  155.5016 H   0  0  0  0  0  0  0  0  0  0  0  0
  147.9390  142.5313  154.0878 H   0  0  0  0  0  0  0  0  0  0  0  0
  146.6019  140.5192  153.5158 H   0  0  0  0  0  0  0  0  0  0  0  0
  148.1250  140.5288  152.6592 H   0  0  0  0  0  0  0  0  0  0  0  0
  147.5091  138.9491  155.2016 H   0  0  0  0  0  0  0  0  0  0  0  0
  148.2980  137.4803  152.8614 H   0  0  0  0  0  0  0  0  0  0  0  0
  147.0715  136.5123  151.6632 H   0  0  0  0  0  0  0  0  0  0  0  0
  144.8526  135.6418  149.5263 H   0  0  0  0  0  0  0  0  0  0  0  0
  146.3891  135.1764  150.2389 H   0  0  0  0  0  0  0  0  0  0  0  0
  143.1771  133.7759  149.2598 H   0  0  0  0  0  0  0  0  0  0  0  0
  142.8972  131.2707  150.4084 H   0  0  0  0  0  0  0  0  0  0  0  0
  146.0653  133.2448  152.2649 H   0  0  0  0  0  0  0  0  0  0  0  0
  150.0733  138.9651  153.5694 H   0  0  0  0  0  0  0  0  0  0  0  0
  149.4277  137.4531  156.1508 H   0  0  0  0  0  0  0  0  0  0  0  0
  150.9520  137.3921  155.2691 H   0  0  0  0  0  0  0  0  0  0  0  0
  149.5137  136.7197  154.5550 H   0  0  0  0  0  0  0  0  0  0  0  0
  1  2  1  0  0  0  0
  1 21  1  0  0  0  0
  1 22  1  0  0  0  0
  1 23  1  0  0  0  0
  2 19  1  0  0  0  0
  2  3  1  0  0  0  0
  2 24  1  0  0  0  0
  3  4  1  0  0  0  0
  3 25  1  0  0  0  0
  3 26  1  0  0  0  0
  4  5  1  0  0  0  0
  4 27  1  0  0  0  0
  4 28  1  0  0  0  0
  5  6  1  0  0  0  0
  5 29  1  0  0  0  0
  5 30  1  0  0  0  0
  6  7  1  0  0  0  0
  6 19  1  0  0  0  0
  6 31  1  0  0  0  0
  7  8  1  0  0  0  0
  7 32  1  0  0  0  0
  8  9  2  0  0  0  0
  8 10  1  0  0  0  0
 10 11  1  0  0  0  0
 10 33  1  0  0  0  0
 11 12  2  0  0  0  0
 11 13  1  0  0  0  0
 13 14  1  0  0  0  0
 13 34  1  0  0  0  0
 13 35  1  0  0  0  0
 14 18  1  0  0  0  0
 14 15  1  0  0  0  0
 15 16  2  0  0  0  0
 15 36  1  0  0  0  0
 16 17  1  0  0  0  0
 16 37  1  0  0  0  0
 17 18  2  0  0  0  0
 18 38  1  0  0  0  0
 19 20  1  0  0  0  0
 19 39  1  0  0  0  0
 20 40  1  0  0  0  0
 20 41  1  0  0  0  0
 20 42  1  0  0  0  0
M  END
> <s_m_source_file>
AV-unprocessed.smi

> <i_m_source_file_index>
527

> <i_lp_mmshare_version>
43012

> <i_f3d_flags>
0

> <s_epik_input>
W0NIM11bQ0BASF0xW0NIMl1bQ0gyXVtDSDJdW0NASF0oW0NASF0xW0NIM10pW05IXUMoPU8pW05IXUMoPU8pW0NIMl1uMltjSF1bY0hdbltjSF0y

> <s_epik_cmdline>
J2VwaWtfcHl0aG9uJywgJy1waCcsICc3LjAnLCAnLXRuJywgJzgnLCAnLW1hJywgJzIwMCcsICctbWV0YWxfYmluZGluZycsICctaW1hZScsICc8aW5maWxlLm1hZT4nLCAnLW9tYWUnLCAnPG91dGZpbGUubWFlPic=

> <r_lp_tautomer_probability>
1

> <r_epik_Ionization_Penalty>
0.172132

> <r_epik_Ionization_Penalty_Charging>
0.172105

> <r_epik_Ionization_Penalty_Neutral>
2.71747e-05

> <r_epik_State_Penalty>
0.161503

> <r_epik_Charging_Adjusted_Penalty>
0.333607

> <i_epik_Tot_Q>
0

> <i_epik_Tot_abs_Q>
0

> <r_epik_Metal_State_Penalty>
0.124763

> <b_epik_Metal_Only>
0

> <s_lp_Force_Field>
OPLS_2005

> <r_lp_Energy>
15.9673

> <b_lp_Chiralities_Consistent>
1

> <s_lp_Variant>
AV-unprocessed.smi:527-6

> <Gold.Version>
5.8.1

> <Gold.Id.Protein>
6NUR|6NUR_protein|mol2

> <Gold.PLP.Fitness>
44.8199

> <Gold.PLP.PLP>
-33.5324

> <Gold.PLP.part.hbond>
-2.0000

> <Gold.PLP.part.metal>
0.0000

> <Gold.PLP.part.buried>
-2.8455

> <Gold.PLP.part.nonpolar>
-30.4537

> <Gold.PLP.part.repulsive>
0.5242

> <Gold.PLP.ligand.clash>
0.0000

> <Gold.PLP.ligand.torsion>
0.2193

> <Gold.PLP.Chemscore.Hbond>
1.9600

> <Gold.PLP.Chemscore.CHOScore>
1.9402

> <Gold.PLP.Chemscore.Metal>
0.0000

> <Gold.Chemscore.Hbonds>
donor molecule, donor type, donor heavy atom, donor atom, acceptor molecule, acceptor atom, score
      L1  H     7    32       P1  7948  1.00
      L1  H    10    33       P1  7948  0.98
      L1  C    15    36       P1 10186  0.84
      L1  C    16    37       P1 10952  1.00

> <Gold.PLP.Chemscore.Internal.Correction>
0.0256

> <Gold.Rescore>
     Score         DG    S(hbond)    S(metal)    S(lipo)     H(rot)  DE(clash)    DE(int)     intcor
     14.77     -16.39       1.96        0.00      73.68       1.66       0.03       1.58       ----

> <Gold.Chemscore.Fitness>
14.7741

> <Gold.Chemscore.DG>
-16.3860

> <Gold.Chemscore.ZeroCoef>
-5.4800

> <Gold.Chemscore.Hbond>
1.9588

> <Gold.Chemscore.Metal>
0.0000

> <Gold.Chemscore.Lipo>
73.6805

> <Gold.Chemscore.Internal_Hbond>
0.0000

> <Gold.Chemscore.DEClash>
0.0310

> <Gold.Chemscore.DEInternal>
1.5810

> <Gold.Chemscore.Rot>
1.6629

> <Gold.Chemscore.Internal.Correction>
   9.000000E+99

> <Gold.Chemscore.Hbonds>
donor molecule, donor type, donor heavy atom, donor atom, acceptor molecule, acceptor atom, score
      L1  H     7    32       P1  7948  0.99
      L1  H    10    33       P1  7948  0.93

> <Gold.Chemscore.Hbond.Weighted>
-6.5423

> <Gold.Chemscore.Metal.Weighted>
-0.0000

> <Gold.Chemscore.Lipo.Weighted>
-8.6206

> <Gold.Chemscore.Internal_Hbond.Weighted>
0.0000

> <Gold.Chemscore.DEClash.Weighted>
0.0310

> <Gold.Chemscore.DEInternal.Weighted>
1.5810

> <Gold.Chemscore.Rot.Weighted>
4.2569

> <Gold.Chemscore.Internal.Correction.Weighted>
   9.000000E+99

> <Gold.Protein.RotatedTorsions>
[ 6907 6896 6895 6894 ] final  -27.10 input  -60.11 | X-H torsion
[ 7974 7965 7964 7962 ] final  146.00 input  175.53 | X-H torsion
[ 8008 7997 7996 7995 ] final  162.84 input   59.86 | X-H torsion
[ 10167 10162 10161 10158 ] final   38.04 input  -65.29 | X-H torsion
[ 10718 10713 10712 10709 ] final  143.07 input   66.30 | X-H torsion
[ 10763 10752 10751 10750 ] final  131.52 input  -60.55 | X-H torsion
[ 11005 11000 10999 10996 ] final -130.38 input  -57.11 | X-H torsion

> <Gold.Protein.ActiveResidues>
 VAL166  LYS551  ARG553  GLY616  TRP617  ASP618  TYR619  PRO620  LYS621  CYS622 
 ASP623  PHE694  ASN695  SER759  ASP760  ASP761  ALA762  ILE779  LEU786  VAL792 
 PHE793  MET794  SER795  GLU796  ALA797  LYS798  CYS799  TRP800  GLU811  SER814 

> <Gold.Protein.RotatedAtoms>
  151.1516  135.0230  159.8670 H   0  0  0  0  0  0  0  0  0  0  0  0  # atno 6907 bound_to 6896
  152.5452  134.1382  159.8478 H   0  0  0  0  0  0  0  0  0  0  0  0  # atno 6908 bound_to 6896
  151.1467  133.4889  159.2628 H   0  0  0  0  0  0  0  0  0  0  0  0  # atno 6909 bound_to 6896
  144.8706  139.5852  143.5888 H   0  0  0  0  0  0  0  0  0  0  0  0  # atno 7974 bound_to 7965
  156.2001  140.1739  156.7916 H   0  0  0  0  0  0  0  0  0  0  0  0  # atno 8008 bound_to 7997
  154.5581  140.0705  156.8806 H   0  0  0  0  0  0  0  0  0  0  0  0  # atno 8009 bound_to 7997
  155.2900  140.3354  155.4255 H   0  0  0  0  0  0  0  0  0  0  0  0  # atno 8010 bound_to 7997
  140.3974  144.1770  150.6132 H   0  0  0  0  0  0  0  0  0  0  0  0  # atno 10167 bound_to 10162
  157.3732  131.0982  151.0808 H   0  0  0  0  0  0  0  0  0  0  0  0  # atno 10718 bound_to 10713
  153.7757  135.3175  155.3358 H   0  0  0  0  0  0  0  0  0  0  0  0  # atno 10763 bound_to 10752
  154.8180  135.4623  154.0700 H   0  0  0  0  0  0  0  0  0  0  0  0  # atno 10764 bound_to 10752
  153.1974  135.6917  153.8360 H   0  0  0  0  0  0  0  0  0  0  0  0  # atno 10765 bound_to 10752
  140.9351  134.1268  157.4201 H   0  0  0  0  0  0  0  0  0  0  0  0  # atno 11005 bound_to 11000
  146.2927  139.7187  142.9149 LP  0  0  0  0  0  0  0  0  0  0  0  0  # atno 17320 bound_to 7965
  145.4138  141.0399  143.3002 LP  0  0  0  0  0  0  0  0  0  0  0  0  # atno 17321 bound_to 7965
  140.4776  143.2390  151.9001 LP  0  0  0  0  0  0  0  0  0  0  0  0  # atno 17342 bound_to 10162
  139.4786  144.5304  151.8675 LP  0  0  0  0  0  0  0  0  0  0  0  0  # atno 17343 bound_to 10162
  157.1904  130.6349  149.5702 LP  0  0  0  0  0  0  0  0  0  0  0  0  # atno 17370 bound_to 10713
  155.9760  130.4724  150.6497 LP  0  0  0  0  0  0  0  0  0  0  0  0  # atno 17371 bound_to 10713
  139.8806  135.0018  156.6089 LP  0  0  0  0  0  0  0  0  0  0  0  0  # atno 17394 bound_to 11000
  140.7810  133.8660  155.8568 LP  0  0  0  0  0  0  0  0  0  0  0  0  # atno 17395 bound_to 11000

$$$$
