AV-unprocessed.smi:1982|AV-procd|sdf|8025|dock4
  -GOLD-   2272010223D 1   1.00000     0.00000
 Structure written by MMmdl.
 36 37  0  0  0  0  0  0  0  0  1 V2000
  153.7218  142.2355  161.2374 C   0  0  0  0  0  0  0  0  0  0  0  0
  152.5607  142.1544  160.2291 C   0  0  1  0  0  0  0  0  0  0  0  0
  152.3532  143.5336  159.5722 C   0  0  0  0  0  0  0  0  0  0  0  0
  151.1807  143.5243  158.5861 C   0  0  0  0  0  0  0  0  0  0  0  0
  151.3946  142.4600  157.5058 C   0  0  0  0  0  0  0  0  0  0  0  0
  151.5962  141.0640  158.1219 C   0  0  1  0  0  0  0  0  0  0  0  0
  151.8456  140.1147  157.0364 N   0  0  0  0  0  0  0  0  0  0  0  0
  151.0249  139.8591  156.0051 C   0  0  0  0  0  0  0  0  0  0  0  0
  149.9295  140.4038  155.8598 O   0  0  0  0  0  0  0  0  0  0  0  0
  151.5364  138.8241  154.9956 C   0  0  0  0  0  0  0  0  0  0  0  0
  151.6779  137.4970  155.5696 N   0  0  0  0  0  0  0  0  0  0  0  0
  150.9305  136.3991  155.4370 C   0  0  0  0  0  0  0  0  0  0  0  0
  151.4197  135.3871  156.1374 N   0  0  0  0  0  0  0  0  0  0  0  0
  152.5462  135.9312  156.7313 N   0  0  0  0  0  0  0  0  0  0  0  0
  152.7040  137.1831  156.3989 N   0  0  0  0  0  0  0  0  0  0  0  0
  152.7566  141.0459  159.1553 C   0  0  2  0  0  0  0  0  0  0  0  0
  152.9110  139.6469  159.7914 C   0  0  0  0  0  0  0  0  0  0  0  0
  154.6773  142.3770  160.7315 H   0  0  0  0  0  0  0  0  0  0  0  0
  153.7931  141.3376  161.8502 H   0  0  0  0  0  0  0  0  0  0  0  0
  153.5847  143.0710  161.9245 H   0  0  0  0  0  0  0  0  0  0  0  0
  151.6559  141.9211  160.7927 H   0  0  0  0  0  0  0  0  0  0  0  0
  152.1714  144.2887  160.3377 H   0  0  0  0  0  0  0  0  0  0  0  0
  153.2634  143.8366  159.0526 H   0  0  0  0  0  0  0  0  0  0  0  0
  150.2495  143.3286  159.1196 H   0  0  0  0  0  0  0  0  0  0  0  0
  151.0748  144.5064  158.1245 H   0  0  0  0  0  0  0  0  0  0  0  0
  150.5382  142.4494  156.8305 H   0  0  0  0  0  0  0  0  0  0  0  0
  152.2618  142.7291  156.9007 H   0  0  0  0  0  0  0  0  0  0  0  0
  150.6763  140.8013  158.6477 H   0  0  0  0  0  0  0  0  0  0  0  0
  152.7230  139.6159  157.0704 H   0  0  0  0  0  0  0  0  0  0  0  0
  150.8527  138.7757  154.1466 H   0  0  0  0  0  0  0  0  0  0  0  0
  152.5079  139.1382  154.6120 H   0  0  0  0  0  0  0  0  0  0  0  0
  150.0379  136.3419  154.8318 H   0  0  0  0  0  0  0  0  0  0  0  0
  153.6819  141.2651  158.6200 H   0  0  0  0  0  0  0  0  0  0  0  0
  152.0299  139.3809  160.3760 H   0  0  0  0  0  0  0  0  0  0  0  0
  153.7782  139.5911  160.4476 H   0  0  0  0  0  0  0  0  0  0  0  0
  153.0524  138.8714  159.0390 H   0  0  0  0  0  0  0  0  0  0  0  0
  1  2  1  0  0  0  0
  1 18  1  0  0  0  0
  1 19  1  0  0  0  0
  1 20  1  0  0  0  0
  2 16  1  0  0  0  0
  2  3  1  0  0  0  0
  2 21  1  0  0  0  0
  3  4  1  0  0  0  0
  3 22  1  0  0  0  0
  3 23  1  0  0  0  0
  4  5  1  0  0  0  0
  4 24  1  0  0  0  0
  4 25  1  0  0  0  0
  5  6  1  0  0  0  0
  5 26  1  0  0  0  0
  5 27  1  0  0  0  0
  6  7  1  0  0  0  0
  6 16  1  0  0  0  0
  6 28  1  0  0  0  0
  7  8  1  0  0  0  0
  7 29  1  0  0  0  0
  8  9  2  0  0  0  0
  8 10  1  0  0  0  0
 10 11  1  0  0  0  0
 10 30  1  0  0  0  0
 10 31  1  0  0  0  0
 11 15  1  0  0  0  0
 11 12  1  0  0  0  0
 12 13  2  0  0  0  0
 12 32  1  0  0  0  0
 13 14  1  0  0  0  0
 14 15  2  0  0  0  0
 16 17  1  0  0  0  0
 16 33  1  0  0  0  0
 17 34  1  0  0  0  0
 17 35  1  0  0  0  0
 17 36  1  0  0  0  0
M  END
> <s_m_source_file>
AV-unprocessed.smi

> <i_m_source_file_index>
1982

> <i_lp_mmshare_version>
43012

> <i_f3d_flags>
0

> <s_epik_input>
W0NIM11bQ0BASF0xW0NIMl1bQ0gyXVtDSDJdW0NASF0oW0NASF0xW0NIM10pW05IXUMoPU8pW0NIMl1uMltjSF1ubm4y

> <s_epik_cmdline>
J2VwaWtfcHl0aG9uJywgJy1waCcsICc3LjAnLCAnLXRuJywgJzgnLCAnLW1hJywgJzIwMCcsICctbWV0YWxfYmluZGluZycsICctaW1hZScsICc8aW5maWxlLm1hZT4nLCAnLW9tYWUnLCAnPG91dGZpbGUubWFlPic=

> <r_lp_tautomer_probability>
1

> <r_epik_Ionization_Penalty>
5.03816e-07

> <r_epik_Ionization_Penalty_Charging>
0

> <r_epik_Ionization_Penalty_Neutral>
5.03816e-07

> <r_epik_State_Penalty>
-0

> <r_epik_Charging_Adjusted_Penalty>
0

> <i_epik_Tot_Q>
0

> <i_epik_Tot_abs_Q>
0

> <r_epik_Metal_State_Penalty>
-0

> <b_epik_Metal_Only>
0

> <s_lp_Force_Field>
OPLS_2005

> <r_lp_Energy>
14.7566

> <b_lp_Chiralities_Consistent>
1

> <s_lp_Variant>
AV-unprocessed.smi:1982-6

> <Gold.Version>
5.8.1

> <Gold.Id.Protein>
6NUR|6NUR_protein|mol2

> <Gold.PLP.Fitness>
39.8584

> <Gold.PLP.PLP>
-34.2893

> <Gold.PLP.part.hbond>
-2.7557

> <Gold.PLP.part.metal>
0.0000

> <Gold.PLP.part.buried>
-3.0767

> <Gold.PLP.part.nonpolar>
-29.5281

> <Gold.PLP.part.repulsive>
0.3365

> <Gold.PLP.ligand.clash>
0.0000

> <Gold.PLP.ligand.torsion>
0.2187

> <Gold.PLP.Chemscore.Hbond>
1.0000

> <Gold.PLP.Chemscore.CHOScore>
1.0000

> <Gold.PLP.Chemscore.Metal>
0.0000

> <Gold.Chemscore.Hbonds>
donor molecule, donor type, donor heavy atom, donor atom, acceptor molecule, acceptor atom, score
      P1  H 10752 10763       L1    14  0.08

> <Gold.PLP.Chemscore.Internal.Correction>
0.0064

> <Gold.Rescore>
     Score         DG    S(hbond)    S(metal)    S(lipo)     H(rot)  DE(clash)    DE(int)     intcor
     10.38     -10.65       0.00        0.00      85.85       1.91       0.06       0.20       ----

> <Gold.Chemscore.Fitness>
10.3793

> <Gold.Chemscore.DG>
-10.6452

> <Gold.Chemscore.ZeroCoef>
-5.4800

> <Gold.Chemscore.Hbond>
0.0000

> <Gold.Chemscore.Metal>
0.0000

> <Gold.Chemscore.Lipo>
85.8464

> <Gold.Chemscore.Internal_Hbond>
0.0000

> <Gold.Chemscore.DEClash>
0.0643

> <Gold.Chemscore.DEInternal>
0.2017

> <Gold.Chemscore.Rot>
1.9058

> <Gold.Chemscore.Internal.Correction>
   9.000000E+99

> <Gold.Chemscore.Hbond.Weighted>
-0.0000

> <Gold.Chemscore.Metal.Weighted>
-0.0000

> <Gold.Chemscore.Lipo.Weighted>
-10.0440

> <Gold.Chemscore.Internal_Hbond.Weighted>
0.0000

> <Gold.Chemscore.DEClash.Weighted>
0.0643

> <Gold.Chemscore.DEInternal.Weighted>
0.2017

> <Gold.Chemscore.Rot.Weighted>
4.8788

> <Gold.Chemscore.Internal.Correction.Weighted>
   9.000000E+99

> <Gold.Protein.RotatedTorsions>
[ 6907 6896 6895 6894 ] final   35.55 input  -60.11 | X-H torsion
[ 7974 7965 7964 7962 ] final -158.41 input  175.53 | X-H torsion
[ 8008 7997 7996 7995 ] final   76.23 input   59.86 | X-H torsion
[ 10167 10162 10161 10158 ] final  162.57 input  -65.29 | X-H torsion
[ 10718 10713 10712 10709 ] final -168.97 input   66.30 | X-H torsion
[ 10763 10752 10751 10750 ] final  103.45 input  -60.55 | X-H torsion
[ 11005 11000 10999 10996 ] final  105.43 input  -57.11 | X-H torsion

> <Gold.Protein.ActiveResidues>
 VAL166  LYS551  ARG553  GLY616  TRP617  ASP618  TYR619  PRO620  LYS621  CYS622 
 ASP623  PHE694  ASN695  SER759  ASP760  ASP761  ALA762  ILE779  LEU786  VAL792 
 PHE793  MET794  SER795  GLU796  ALA797  LYS798  CYS799  TRP800  GLU811  SER814 

> <Gold.Protein.RotatedAtoms>
  152.1177  134.9228  160.0564 H   0  0  0  0  0  0  0  0  0  0  0  0  # atno 6907 bound_to 6896
  152.0381  133.3961  159.4333 H   0  0  0  0  0  0  0  0  0  0  0  0  # atno 6908 bound_to 6896
  150.6847  134.3366  159.4894 H   0  0  0  0  0  0  0  0  0  0  0  0  # atno 6909 bound_to 6896
  144.7507  140.3832  143.6050 H   0  0  0  0  0  0  0  0  0  0  0  0  # atno 7974 bound_to 7965
  155.8244  140.3468  155.5533 H   0  0  0  0  0  0  0  0  0  0  0  0  # atno 8008 bound_to 7997
  155.8308  140.0927  157.1813 H   0  0  0  0  0  0  0  0  0  0  0  0  # atno 8009 bound_to 7997
  154.4004  140.1412  156.3599 H   0  0  0  0  0  0  0  0  0  0  0  0  # atno 8010 bound_to 7997
  139.4862  144.4424  151.8935 H   0  0  0  0  0  0  0  0  0  0  0  0  # atno 10167 bound_to 10162
  156.7047  130.9210  151.3083 H   0  0  0  0  0  0  0  0  0  0  0  0  # atno 10718 bound_to 10713
  153.3528  135.3976  155.1659 H   0  0  0  0  0  0  0  0  0  0  0  0  # atno 10763 bound_to 10752
  154.8665  135.3660  154.5200 H   0  0  0  0  0  0  0  0  0  0  0  0  # atno 10764 bound_to 10752
  153.5653  135.7080  153.5589 H   0  0  0  0  0  0  0  0  0  0  0  0  # atno 10765 bound_to 10752
  139.8802  134.9335  156.5512 H   0  0  0  0  0  0  0  0  0  0  0  0  # atno 11005 bound_to 11000
  145.6955  139.1649  143.2622 LP  0  0  0  0  0  0  0  0  0  0  0  0  # atno 17320 bound_to 7965
  146.1452  140.7002  142.9348 LP  0  0  0  0  0  0  0  0  0  0  0  0  # atno 17321 bound_to 7965
  140.3876  144.2656  150.5902 LP  0  0  0  0  0  0  0  0  0  0  0  0  # atno 17342 bound_to 10162
  140.5176  143.2274  151.8440 LP  0  0  0  0  0  0  0  0  0  0  0  0  # atno 17343 bound_to 10162
  157.6959  130.9282  150.0644 LP  0  0  0  0  0  0  0  0  0  0  0  0  # atno 17370 bound_to 10713
  156.1703  130.3646  149.9174 LP  0  0  0  0  0  0  0  0  0  0  0  0  # atno 17371 bound_to 10713
  140.8238  133.8332  155.8920 LP  0  0  0  0  0  0  0  0  0  0  0  0  # atno 17394 bound_to 11000
  140.9393  134.1922  157.4809 LP  0  0  0  0  0  0  0  0  0  0  0  0  # atno 17395 bound_to 11000

$$$$
