AV-unprocessed.smi:2960|AV-procd|sdf|11312|dock2
  -GOLD-   2272016213D 1   1.00000     0.00000
 Structure written by MMmdl.
 49 51  0  0  0  0  0  0  0  0  2 V2000
  156.9371  137.6567  158.3966 C   0  0  0  0  0  0  0  0  0  0  0  0
  156.8412  138.8868  159.2927 C   0  0  0  0  0  0  0  0  0  0  0  0
  157.0409  140.0085  158.8272 O   0  0  0  0  0  0  0  0  0  0  0  0
  156.5334  138.6621  160.5788 N   0  0  0  0  0  0  0  0  0  0  0  0
  156.4050  139.6949  161.5999 C   0  0  0  0  0  0  0  0  0  0  0  0
  154.9830  139.7466  162.1828 C   0  0  0  0  0  0  0  0  0  0  0  0
  154.2049  140.8982  161.6323 C   0  0  0  0  0  0  0  0  0  0  0  0
  153.8050  141.9922  162.3408 N   0  3  0  0  0  0  0  0  0  0  0  0
  153.0914  142.8589  161.5123 C   0  0  0  0  0  0  0  0  0  0  0  0
  152.4938  144.0877  161.7759 C   0  0  0  0  0  0  0  0  0  0  0  0
  151.8375  144.7165  160.6973 C   0  0  0  0  0  0  0  0  0  0  0  0
  151.7925  144.1237  159.4185 C   0  0  0  0  0  0  0  0  0  0  0  0
  152.4020  142.8773  159.1637 C   0  0  0  0  0  0  0  0  0  0  0  0
  153.0488  142.2627  160.2357 C   0  0  0  0  0  0  0  0  0  0  0  0
  153.7421  141.0532  160.3569 N   0  0  0  0  0  0  0  0  0  0  0  0
  153.8645  140.1845  159.1777 C   0  0  0  0  0  0  0  0  0  0  0  0
  152.4967  139.7431  158.6400 C   0  0  0  0  0  0  0  0  0  0  0  0
  152.6239  139.4707  157.2522 O   0  0  0  0  0  0  0  0  0  0  0  0
  151.6097  139.8799  156.4127 C   0  0  0  0  0  0  0  0  0  0  0  0
  150.8824  141.0249  156.7975 C   0  0  0  0  0  0  0  0  0  0  0  0
  149.8323  141.5152  155.9980 C   0  0  0  0  0  0  0  0  0  0  0  0
  149.4944  140.8627  154.7966 C   0  0  0  0  0  0  0  0  0  0  0  0
  148.3654  141.3957  153.9387 C   0  0  0  0  0  0  0  0  0  0  0  0
  150.2128  139.7164  154.4023 C   0  0  0  0  0  0  0  0  0  0  0  0
  151.2627  139.2261  155.2032 C   0  0  0  0  0  0  0  0  0  0  0  0
  155.9916  137.1131  158.3922 H   0  0  0  0  0  0  0  0  0  0  0  0
  157.7197  136.9862  158.7529 H   0  0  0  0  0  0  0  0  0  0  0  0
  157.1719  137.9414  157.3700 H   0  0  0  0  0  0  0  0  0  0  0  0
  156.3885  137.7067  160.8729 H   0  0  0  0  0  0  0  0  0  0  0  0
  157.1246  139.4760  162.3877 H   0  0  0  0  0  0  0  0  0  0  0  0
  156.6846  140.6647  161.1844 H   0  0  0  0  0  0  0  0  0  0  0  0
  154.4462  138.8253  161.9536 H   0  0  0  0  0  0  0  0  0  0  0  0
  155.0184  139.8188  163.2699 H   0  0  0  0  0  0  0  0  0  0  0  0
  152.5264  144.5437  162.7545 H   0  0  0  0  0  0  0  0  0  0  0  0
  151.3592  145.6725  160.8536 H   0  0  0  0  0  0  0  0  0  0  0  0
  151.2799  144.6347  158.6163 H   0  0  0  0  0  0  0  0  0  0  0  0
  152.3613  142.4306  158.1812 H   0  0  0  0  0  0  0  0  0  0  0  0
  154.4346  140.7130  158.4129 H   0  0  0  0  0  0  0  0  0  0  0  0
  154.4562  139.3127  159.4561 H   0  0  0  0  0  0  0  0  0  0  0  0
  152.1628  138.8509  159.1706 H   0  0  0  0  0  0  0  0  0  0  0  0
  151.7574  140.5293  158.7996 H   0  0  0  0  0  0  0  0  0  0  0  0
  151.1331  141.5341  157.7166 H   0  0  0  0  0  0  0  0  0  0  0  0
  149.2871  142.3944  156.3093 H   0  0  0  0  0  0  0  0  0  0  0  0
  148.2359  140.7995  153.0348 H   0  0  0  0  0  0  0  0  0  0  0  0
  148.5704  142.4243  153.6409 H   0  0  0  0  0  0  0  0  0  0  0  0
  147.4276  141.3792  154.4949 H   0  0  0  0  0  0  0  0  0  0  0  0
  149.9627  139.2072  153.4830 H   0  0  0  0  0  0  0  0  0  0  0  0
  151.7873  138.3457  154.8649 H   0  0  0  0  0  0  0  0  0  0  0  0
  154.0088  142.1331  163.3221 H   0  0  0  0  0  0  0  0  0  0  0  0
  1  2  1  0  0  0  0
  1 26  1  0  0  0  0
  1 27  1  0  0  0  0
  1 28  1  0  0  0  0
  2  3  2  0  0  0  0
  2  4  1  0  0  0  0
  4  5  1  0  0  0  0
  4 29  1  0  0  0  0
  5  6  1  0  0  0  0
  5 30  1  0  0  0  0
  5 31  1  0  0  0  0
  6  7  1  0  0  0  0
  6 32  1  0  0  0  0
  6 33  1  0  0  0  0
  7 15  1  0  0  0  0
  7  8  2  0  0  0  0
  8  9  1  0  0  0  0
  8 49  1  0  0  0  0
  9 14  2  0  0  0  0
  9 10  1  0  0  0  0
 10 11  2  0  0  0  0
 10 34  1  0  0  0  0
 11 12  1  0  0  0  0
 11 35  1  0  0  0  0
 12 13  2  0  0  0  0
 12 36  1  0  0  0  0
 13 14  1  0  0  0  0
 13 37  1  0  0  0  0
 14 15  1  0  0  0  0
 15 16  1  0  0  0  0
 16 17  1  0  0  0  0
 16 38  1  0  0  0  0
 16 39  1  0  0  0  0
 17 18  1  0  0  0  0
 17 40  1  0  0  0  0
 17 41  1  0  0  0  0
 18 19  1  0  0  0  0
 19 25  1  0  0  0  0
 19 20  2  0  0  0  0
 20 21  1  0  0  0  0
 20 42  1  0  0  0  0
 21 22  2  0  0  0  0
 21 43  1  0  0  0  0
 22 23  1  0  0  0  0
 22 24  1  0  0  0  0
 23 44  1  0  0  0  0
 23 45  1  0  0  0  0
 23 46  1  0  0  0  0
 24 25  2  0  0  0  0
 24 47  1  0  0  0  0
 25 48  1  0  0  0  0
M  CHG  1   8   1
M  END
> <s_m_source_file>
AV-unprocessed.smi

> <i_m_source_file_index>
2960

> <i_lp_mmshare_version>
43012

> <i_f3d_flags>
0

> <s_epik_input>
W0NIM11DKD1PKVtOSF1bQ0gyXVtDSDJdYyhuMSluKGMoYzEyKVtjSF1bY0hdW2NIXVtjSF0yKVtDSDJdW0NIMl1PYzNbY0hdW2NIXWMoW0NIM10pW2NIXVtjSF0z

> <s_epik_cmdline>
J2VwaWtfcHl0aG9uJywgJy1waCcsICc3LjAnLCAnLXRuJywgJzgnLCAnLW1hJywgJzIwMCcsICctbWV0YWxfYmluZGluZycsICctaW1hZScsICc8aW5maWxlLm1hZT4nLCAnLW9tYWUnLCAnPG91dGZpbGUubWFlPic=

> <r_lp_tautomer_probability>
1

> <r_epik_Ionization_Penalty>
1.10884

> <r_epik_Ionization_Penalty_Charging>
1.10884

> <r_epik_Ionization_Penalty_Neutral>
3.05925e-07

> <r_epik_State_Penalty>
1.16664

> <r_epik_Charging_Adjusted_Penalty>
2.27548

> <i_epik_Tot_Q>
1

> <i_epik_Tot_abs_Q>
1

> <r_epik_Metal_State_Penalty>
1.2527

> <b_epik_Metal_Only>
0

> <s_lp_Force_Field>
OPLS_2005

> <r_lp_Energy>
19.8643

> <b_lp_Chiralities_Consistent>
1

> <s_lp_Variant>
AV-unprocessed.smi:2960-2

> <Gold.Version>
5.8.1

> <Gold.Id.Protein>
6NUR|6NUR_protein|mol2

> <Gold.PLP.Fitness>
59.1884

> <Gold.PLP.PLP>
-55.5400

> <Gold.PLP.part.hbond>
-2.5064

> <Gold.PLP.part.metal>
0.0000

> <Gold.PLP.part.buried>
-2.8489

> <Gold.PLP.part.nonpolar>
-49.1750

> <Gold.PLP.part.repulsive>
0.1196

> <Gold.PLP.ligand.clash>
0.0000

> <Gold.PLP.ligand.torsion>
1.1988

> <Gold.PLP.Chemscore.Hbond>
1.9920

> <Gold.PLP.Chemscore.CHOScore>
0.0000

> <Gold.PLP.Chemscore.Metal>
0.0000

> <Gold.Chemscore.Hbonds>
donor molecule, donor type, donor heavy atom, donor atom, acceptor molecule, acceptor atom, score
      P1  H  7997  8009       L1     3  0.99
      P1  H  7997  8010       L1    18  1.00

> <Gold.PLP.Chemscore.Internal.Correction>
0.0700

> <Gold.Rescore>
     Score         DG    S(hbond)    S(metal)    S(lipo)     H(rot)  DE(clash)    DE(int)     intcor
     20.47     -22.50       1.66        0.00     145.84       2.18       0.71       1.32       ----

> <Gold.Chemscore.Fitness>
20.4690

> <Gold.Chemscore.DG>
-22.4979

> <Gold.Chemscore.ZeroCoef>
-5.4800

> <Gold.Chemscore.Hbond>
1.6567

> <Gold.Chemscore.Metal>
0.0000

> <Gold.Chemscore.Lipo>
145.8423

> <Gold.Chemscore.Internal_Hbond>
0.0000

> <Gold.Chemscore.DEClash>
0.7060

> <Gold.Chemscore.DEInternal>
1.3230

> <Gold.Chemscore.Rot>
2.1793

> <Gold.Chemscore.Internal.Correction>
   9.000000E+99

> <Gold.Chemscore.Hbonds>
donor molecule, donor type, donor heavy atom, donor atom, acceptor molecule, acceptor atom, score
      P1  H  7997  8009       L1     3  0.58
      P1  H  7997  8010       L1    18  0.55

> <Gold.Chemscore.Hbond.Weighted>
-5.5335

> <Gold.Chemscore.Metal.Weighted>
-0.0000

> <Gold.Chemscore.Lipo.Weighted>
-17.0635

> <Gold.Chemscore.Internal_Hbond.Weighted>
0.0000

> <Gold.Chemscore.DEClash.Weighted>
0.7060

> <Gold.Chemscore.DEInternal.Weighted>
1.3230

> <Gold.Chemscore.Rot.Weighted>
5.5791

> <Gold.Chemscore.Internal.Correction.Weighted>
   9.000000E+99

> <Gold.Protein.RotatedTorsions>
[ 6907 6896 6895 6894 ] final   -3.85 input  -60.11 | X-H torsion
[ 7974 7965 7964 7962 ] final  -29.28 input  175.53 | X-H torsion
[ 8008 7997 7996 7995 ] final   57.14 input   59.86 | X-H torsion
[ 10167 10162 10161 10158 ] final -105.63 input  -65.29 | X-H torsion
[ 10718 10713 10712 10709 ] final  -14.66 input   66.30 | X-H torsion
[ 10763 10752 10751 10750 ] final  -89.35 input  -60.55 | X-H torsion
[ 11005 11000 10999 10996 ] final   78.31 input  -57.11 | X-H torsion

> <Gold.Protein.ActiveResidues>
 VAL166  LYS551  ARG553  GLY616  TRP617  ASP618  TYR619  PRO620  LYS621  CYS622 
 ASP623  PHE694  ASN695  SER759  ASP760  ASP761  ALA762  ILE779  LEU786  VAL792 
 PHE793  MET794  SER795  GLU796  ALA797  LYS798  CYS799  TRP800  GLU811  SER814 

> <Gold.Protein.RotatedAtoms>
  151.5071  135.1064  159.9843 H   0  0  0  0  0  0  0  0  0  0  0  0  # atno 6907 bound_to 6896
  152.4677  133.7956  159.6936 H   0  0  0  0  0  0  0  0  0  0  0  0  # atno 6908 bound_to 6896
  150.8670  133.7497  159.2999 H   0  0  0  0  0  0  0  0  0  0  0  0  # atno 6909 bound_to 6896
  146.1228  140.5392  142.8728 H   0  0  0  0  0  0  0  0  0  0  0  0  # atno 7974 bound_to 7965
  155.5289  140.3481  155.4422 H   0  0  0  0  0  0  0  0  0  0  0  0  # atno 8008 bound_to 7997
  156.0732  140.1368  156.9830 H   0  0  0  0  0  0  0  0  0  0  0  0  # atno 8009 bound_to 7997
  154.4539  140.0961  156.6675 H   0  0  0  0  0  0  0  0  0  0  0  0  # atno 8010 bound_to 7997
  140.1965  143.3851  152.1164 H   0  0  0  0  0  0  0  0  0  0  0  0  # atno 10167 bound_to 10162
  156.6128  130.4854  149.6195 H   0  0  0  0  0  0  0  0  0  0  0  0  # atno 10718 bound_to 10713
  154.6543  135.5344  153.7940 H   0  0  0  0  0  0  0  0  0  0  0  0  # atno 10763 bound_to 10752
  153.0404  135.6490  154.0969 H   0  0  0  0  0  0  0  0  0  0  0  0  # atno 10764 bound_to 10752
  154.0883  135.2942  155.3256 H   0  0  0  0  0  0  0  0  0  0  0  0  # atno 10765 bound_to 10752
  139.9218  134.7753  156.1633 H   0  0  0  0  0  0  0  0  0  0  0  0  # atno 11005 bound_to 11000
  144.7613  140.5429  143.6733 LP  0  0  0  0  0  0  0  0  0  0  0  0  # atno 17320 bound_to 7965
  145.5430  139.1475  143.3436 LP  0  0  0  0  0  0  0  0  0  0  0  0  # atno 17321 bound_to 7965
  139.5234  144.7071  151.5319 LP  0  0  0  0  0  0  0  0  0  0  0  0  # atno 17342 bound_to 10162
  140.6420  143.8870  150.6701 LP  0  0  0  0  0  0  0  0  0  0  0  0  # atno 17343 bound_to 10162
  156.2375  130.6831  151.1524 LP  0  0  0  0  0  0  0  0  0  0  0  0  # atno 17370 bound_to 10713
  157.7249  131.0656  150.5974 LP  0  0  0  0  0  0  0  0  0  0  0  0  # atno 17371 bound_to 10713
  141.0744  133.6782  156.2207 LP  0  0  0  0  0  0  0  0  0  0  0  0  # atno 17394 bound_to 11000
  140.6453  134.5124  157.5573 LP  0  0  0  0  0  0  0  0  0  0  0  0  # atno 17395 bound_to 11000

$$$$
