AV-unprocessed.smi:2061|AV-procd|sdf|8371|dock2
  -GOLD-   2272011 43D 1   1.00000     0.00000
 Structure written by MMmdl.
 46 47  0  0  0  0  0  0  0  0  2 V2000
  146.2028  142.5751  152.9952 C   0  0  0  0  0  0  0  0  0  0  0  0
  146.2640  141.1147  153.2855 C   0  0  0  0  0  0  0  0  0  0  0  0
  147.0518  140.1044  152.8109 C   0  0  0  0  0  0  0  0  0  0  0  0
  146.5710  138.9649  153.5198 C   0  0  0  0  0  0  0  0  0  0  0  0
  147.0507  137.6351  153.3988 N   0  0  0  0  0  0  0  0  0  0  0  0
  146.5773  136.5205  153.9812 C   0  0  0  0  0  0  0  0  0  0  0  0
  145.6210  136.4700  154.7546 O   0  0  0  0  0  0  0  0  0  0  0  0
  147.2878  135.4430  153.6150 N   0  0  0  0  0  0  0  0  0  0  0  0
  147.0129  134.0664  154.0222 C   0  0  0  0  0  0  0  0  0  0  0  0
  147.9423  133.0198  153.3437 C   0  0  1  0  0  0  0  0  0  0  0  0
  148.6642  132.1585  154.4100 C   0  0  0  0  0  0  0  0  0  0  0  0
  147.2040  132.1656  152.3506 N   0  3  1  0  0  0  0  0  0  0  0  0
  146.6512  130.9072  152.9249 C   0  0  0  0  0  0  0  0  0  0  0  0
  145.9545  130.0483  151.8541 C   0  0  1  0  0  0  0  0  0  0  0  0
  145.2940  128.8048  152.4594 C   0  0  0  0  0  0  0  0  0  0  0  0
  144.9387  130.8082  151.2136 O   0  0  0  0  0  0  0  0  0  0  0  0
  145.4073  132.0000  150.5925 C   0  0  2  0  0  0  0  0  0  0  0  0
  146.2441  131.7190  149.3307 C   0  0  0  0  0  0  0  0  0  0  0  0
  146.1241  132.8926  151.6243 C   0  0  0  0  0  0  0  0  0  0  0  0
  145.5811  139.2582  154.3428 N   0  0  0  0  0  0  0  0  0  0  0  0
  145.3790  140.6359  154.2009 O   0  0  0  0  0  0  0  0  0  0  0  0
  146.8479  142.8329  152.1551 H   0  0  0  0  0  0  0  0  0  0  0  0
  146.5260  143.1545  153.8602 H   0  0  0  0  0  0  0  0  0  0  0  0
  145.1858  142.8776  152.7451 H   0  0  0  0  0  0  0  0  0  0  0  0
  147.8387  140.1862  152.0766 H   0  0  0  0  0  0  0  0  0  0  0  0
  147.8389  137.5183  152.7793 H   0  0  0  0  0  0  0  0  0  0  0  0
  148.0606  135.5813  152.9798 H   0  0  0  0  0  0  0  0  0  0  0  0
  147.0523  133.9605  155.1077 H   0  0  0  0  0  0  0  0  0  0  0  0
  145.9751  133.9094  153.7346 H   0  0  0  0  0  0  0  0  0  0  0  0
  148.7075  133.5702  152.7938 H   0  0  0  0  0  0  0  0  0  0  0  0
  149.1643  132.7684  155.1605 H   0  0  0  0  0  0  0  0  0  0  0  0
  149.4559  131.5433  153.9863 H   0  0  0  0  0  0  0  0  0  0  0  0
  147.9646  131.5044  154.9315 H   0  0  0  0  0  0  0  0  0  0  0  0
  147.4407  130.2909  153.3497 H   0  0  0  0  0  0  0  0  0  0  0  0
  145.9568  131.1501  153.7311 H   0  0  0  0  0  0  0  0  0  0  0  0
  146.6872  129.7140  151.1196 H   0  0  0  0  0  0  0  0  0  0  0  0
  146.0280  128.1734  152.9610 H   0  0  0  0  0  0  0  0  0  0  0  0
  144.8133  128.2045  151.6867 H   0  0  0  0  0  0  0  0  0  0  0  0
  144.5322  129.0782  153.1904 H   0  0  0  0  0  0  0  0  0  0  0  0
  144.5150  132.5321  150.2613 H   0  0  0  0  0  0  0  0  0  0  0  0
  146.4589  132.6449  148.7963 H   0  0  0  0  0  0  0  0  0  0  0  0
  145.7061  131.0628  148.6460 H   0  0  0  0  0  0  0  0  0  0  0  0
  147.2010  131.2516  149.5613 H   0  0  0  0  0  0  0  0  0  0  0  0
  145.3998  133.2649  152.3507 H   0  0  0  0  0  0  0  0  0  0  0  0
  146.5106  133.7576  151.0895 H   0  0  0  0  0  0  0  0  0  0  0  0
  147.8807  131.8871  151.6543 H   0  0  0  0  0  0  0  0  0  0  0  0
  1  2  1  0  0  0  0
  1 22  1  0  0  0  0
  1 23  1  0  0  0  0
  1 24  1  0  0  0  0
  2 21  1  0  0  0  0
  2  3  2  0  0  0  0
  3  4  1  0  0  0  0
  3 25  1  0  0  0  0
  4  5  1  0  0  0  0
  4 20  2  0  0  0  0
  5  6  1  0  0  0  0
  5 26  1  0  0  0  0
  6  7  2  0  0  0  0
  6  8  1  0  0  0  0
  8  9  1  0  0  0  0
  8 27  1  0  0  0  0
  9 10  1  0  0  0  0
  9 28  1  0  0  0  0
  9 29  1  0  0  0  0
 10 11  1  0  0  0  0
 10 12  1  0  0  0  0
 10 30  1  0  0  0  0
 11 31  1  0  0  0  0
 11 32  1  0  0  0  0
 11 33  1  0  0  0  0
 12 19  1  0  0  0  0
 12 13  1  0  0  0  0
 12 46  1  0  0  0  0
 13 14  1  0  0  0  0
 13 34  1  0  0  0  0
 13 35  1  0  0  0  0
 14 15  1  0  0  0  0
 14 16  1  0  0  0  0
 14 36  1  0  0  0  0
 15 37  1  0  0  0  0
 15 38  1  0  0  0  0
 15 39  1  0  0  0  0
 16 17  1  0  0  0  0
 17 18  1  0  0  0  0
 17 19  1  0  0  0  0
 17 40  1  0  0  0  0
 18 41  1  0  0  0  0
 18 42  1  0  0  0  0
 18 43  1  0  0  0  0
 19 44  1  0  0  0  0
 19 45  1  0  0  0  0
 20 21  1  0  0  0  0
M  CHG  1  12   1
M  END
> <s_m_source_file>
AV-unprocessed.smi

> <i_m_source_file_index>
2061

> <i_lp_mmshare_version>
43012

> <i_f3d_flags>
0

> <s_epik_input>
W0NIM11jMVtjSF1jKG5vMSlbTkhdQyg9TylbTkhdW0NIMl1bQ0BIXShbQ0gzXSlOMltDSDJdW0NAQEhdKFtDSDNdKU9bQ0BASF0oW0NIM10pW0NIMl0y

> <s_epik_cmdline>
J2VwaWtfcHl0aG9uJywgJy1waCcsICc3LjAnLCAnLXRuJywgJzgnLCAnLW1hJywgJzIwMCcsICctbWV0YWxfYmluZGluZycsICctaW1hZScsICc8aW5maWxlLm1hZT4nLCAnLW9tYWUnLCAnPG91dGZpbGUubWFlPic=

> <r_epik_Ionization_Penalty>
0.707076

> <r_epik_Ionization_Penalty_Charging>
0.707039

> <r_epik_Ionization_Penalty_Neutral>
3.6548e-05

> <r_epik_State_Penalty>
0.730276

> <r_epik_Charging_Adjusted_Penalty>
1.43732

> <i_epik_Tot_Q>
1

> <i_epik_Tot_abs_Q>
1

> <r_epik_Metal_State_Penalty>
0.743132

> <b_epik_Metal_Only>
0

> <s_lp_Force_Field>
OPLS_2005

> <r_lp_Energy>
23.7206

> <b_lp_Chiralities_Consistent>
1

> <s_lp_Variant>
AV-unprocessed.smi:2061-12

> <Gold.Version>
5.8.1

> <Gold.Id.Protein>
6NUR|6NUR_protein|mol2

> <Gold.PLP.Fitness>
40.7867

> <Gold.PLP.PLP>
-34.6462

> <Gold.PLP.part.hbond>
-2.9376

> <Gold.PLP.part.metal>
0.0000

> <Gold.PLP.part.buried>
-4.4553

> <Gold.PLP.part.nonpolar>
-28.4435

> <Gold.PLP.part.repulsive>
0.3136

> <Gold.PLP.ligand.clash>
0.0000

> <Gold.PLP.ligand.torsion>
1.3430

> <Gold.PLP.Chemscore.Hbond>
2.9280

> <Gold.PLP.Chemscore.CHOScore>
0.0000

> <Gold.PLP.Chemscore.Metal>
0.0000

> <Gold.Chemscore.Hbonds>
donor molecule, donor type, donor heavy atom, donor atom, acceptor molecule, acceptor atom, score
      L1  H     5    26       P1  7948  0.91
      L1  H     8    27       P1  7948  1.00
      L1  H    12    46       P1 10747  0.98

> <Gold.PLP.Chemscore.Internal.Correction>
0.0425

> <Gold.Rescore>
     Score         DG    S(hbond)    S(metal)    S(lipo)     H(rot)  DE(clash)    DE(int)     intcor
     19.33     -21.73       2.89        0.00      91.04       1.58       0.02       2.38       ----

> <Gold.Chemscore.Fitness>
19.3265

> <Gold.Chemscore.DG>
-21.7274

> <Gold.Chemscore.ZeroCoef>
-5.4800

> <Gold.Chemscore.Hbond>
2.8890

> <Gold.Chemscore.Metal>
0.0000

> <Gold.Chemscore.Lipo>
91.0406

> <Gold.Chemscore.Internal_Hbond>
0.0000

> <Gold.Chemscore.DEClash>
0.0201

> <Gold.Chemscore.DEInternal>
2.3809

> <Gold.Chemscore.Rot>
1.5834

> <Gold.Chemscore.Internal.Correction>
   9.000000E+99

> <Gold.Chemscore.Hbonds>
donor molecule, donor type, donor heavy atom, donor atom, acceptor molecule, acceptor atom, score
      L1  H     5    26       P1  7948  0.89
      L1  H     8    27       P1  7948  0.96
      L1  H    12    46       P1 10747  0.92

> <Gold.Chemscore.Hbond.Weighted>
-9.6492

> <Gold.Chemscore.Metal.Weighted>
-0.0000

> <Gold.Chemscore.Lipo.Weighted>
-10.6518

> <Gold.Chemscore.Internal_Hbond.Weighted>
0.0000

> <Gold.Chemscore.DEClash.Weighted>
0.0201

> <Gold.Chemscore.DEInternal.Weighted>
2.3809

> <Gold.Chemscore.Rot.Weighted>
4.0535

> <Gold.Chemscore.Internal.Correction.Weighted>
   9.000000E+99

> <Gold.Protein.RotatedTorsions>
[ 6907 6896 6895 6894 ] final  147.55 input  -60.11 | X-H torsion
[ 7974 7965 7964 7962 ] final    3.23 input  175.53 | X-H torsion
[ 8008 7997 7996 7995 ] final   90.68 input   59.86 | X-H torsion
[ 10167 10162 10161 10158 ] final -178.65 input  -65.29 | X-H torsion
[ 10718 10713 10712 10709 ] final  -11.84 input   66.30 | X-H torsion
[ 10763 10752 10751 10750 ] final -160.49 input  -60.55 | X-H torsion
[ 11005 11000 10999 10996 ] final    8.28 input  -57.11 | X-H torsion

> <Gold.Protein.ActiveResidues>
 VAL166  LYS551  ARG553  GLY616  TRP617  ASP618  TYR619  PRO620  LYS621  CYS622 
 ASP623  PHE694  ASN695  SER759  ASP760  ASP761  ALA762  ILE779  LEU786  VAL792 
 PHE793  MET794  SER795  GLU796  ALA797  LYS798  CYS799  TRP800  GLU811  SER814 

> <Gold.Protein.RotatedAtoms>
  152.1533  133.4535  159.4824 H   0  0  0  0  0  0  0  0  0  0  0  0  # atno 6907 bound_to 6896
  150.6898  134.2162  159.4388 H   0  0  0  0  0  0  0  0  0  0  0  0  # atno 6908 bound_to 6896
  152.0060  134.9902  160.0617 H   0  0  0  0  0  0  0  0  0  0  0  0  # atno 6909 bound_to 6896
  146.2445  140.0716  142.8362 H   0  0  0  0  0  0  0  0  0  0  0  0  # atno 7974 bound_to 7965
  156.0148  140.3346  155.6978 H   0  0  0  0  0  0  0  0  0  0  0  0  # atno 8008 bound_to 7997
  155.6106  140.0665  157.2725 H   0  0  0  0  0  0  0  0  0  0  0  0  # atno 8009 bound_to 7997
  154.4294  140.1794  156.1256 H   0  0  0  0  0  0  0  0  0  0  0  0  # atno 8010 bound_to 7997
  139.5422  144.2331  152.0918 H   0  0  0  0  0  0  0  0  0  0  0  0  # atno 10167 bound_to 10162
  156.6532  130.4961  149.6055 H   0  0  0  0  0  0  0  0  0  0  0  0  # atno 10718 bound_to 10713
  154.7385  135.3063  154.8769 H   0  0  0  0  0  0  0  0  0  0  0  0  # atno 10763 bound_to 10752
  153.9591  135.6755  153.4749 H   0  0  0  0  0  0  0  0  0  0  0  0  # atno 10764 bound_to 10752
  153.0986  135.4923  154.8748 H   0  0  0  0  0  0  0  0  0  0  0  0  # atno 10765 bound_to 10752
  140.5387  134.0395  155.7897 H   0  0  0  0  0  0  0  0  0  0  0  0  # atno 11005 bound_to 11000
  145.0811  140.9221  143.4825 LP  0  0  0  0  0  0  0  0  0  0  0  0  # atno 17320 bound_to 7965
  145.0869  139.2918  143.5755 LP  0  0  0  0  0  0  0  0  0  0  0  0  # atno 17321 bound_to 7965
  140.1812  144.4843  150.6527 LP  0  0  0  0  0  0  0  0  0  0  0  0  # atno 17342 bound_to 10162
  140.6657  143.2267  151.5749 LP  0  0  0  0  0  0  0  0  0  0  0  0  # atno 17343 bound_to 10162
  156.2068  130.6654  151.1227 LP  0  0  0  0  0  0  0  0  0  0  0  0  # atno 17370 bound_to 10713
  157.7134  131.0722  150.6418 LP  0  0  0  0  0  0  0  0  0  0  0  0  # atno 17371 bound_to 10713
  141.1240  133.9414  157.2673 LP  0  0  0  0  0  0  0  0  0  0  0  0  # atno 17394 bound_to 11000
  139.9515  135.0174  156.9008 LP  0  0  0  0  0  0  0  0  0  0  0  0  # atno 17395 bound_to 11000

$$$$
