AV-unprocessed.smi:604|AV-procd|sdf|3037|dock4
  -GOLD-   2262023553D 1   1.00000     0.00000
 Structure written by MMmdl.
 49 51  0  0  0  0  0  0  0  0  2 V2000
  145.6389  138.8991  153.9830 O   0  0  0  0  0  0  0  0  0  0  0  0
  146.6285  138.5885  153.3207 C   0  0  0  0  0  0  0  0  0  0  0  0
  146.6913  137.5707  152.4450 N   0  0  0  0  0  0  0  0  0  0  0  0
  145.6689  136.6510  152.0865 C   0  0  0  0  0  0  0  0  0  0  0  0
  144.3704  136.8776  152.5873 C   0  0  0  0  0  0  0  0  0  0  0  0
  143.3413  135.9743  152.2611 C   0  0  0  0  0  0  0  0  0  0  0  0
  143.6550  134.8673  151.4495 C   0  0  0  0  0  0  0  0  0  0  0  0
  144.8951  134.6252  150.9751 N   0  0  0  0  0  0  0  0  0  0  0  0
  145.8774  135.4970  151.2906 C   0  0  0  0  0  0  0  0  0  0  0  0
  147.8034  139.2292  153.4059 N   0  0  0  0  0  0  0  0  0  0  0  0
  148.0837  140.3531  154.2948 C   0  0  2  0  0  0  0  0  0  0  0  0
  149.5996  140.5781  154.4435 C   0  0  0  0  0  0  0  0  0  0  0  0
  149.8992  141.6974  155.4555 C   0  0  0  0  0  0  0  0  0  0  0  0
  149.2773  141.4117  156.7746 N   0  3  1  0  0  0  0  0  0  0  0  0
  149.6574  142.3972  157.8197 C   0  0  0  0  0  0  0  0  0  0  0  0
  151.1859  142.5056  157.9792 C   0  0  0  0  0  0  0  0  0  0  0  0
  151.7982  141.5880  159.0420 C   0  0  0  0  0  0  0  0  0  0  0  0
  153.1617  142.2070  159.3657 C   0  0  0  0  0  0  0  0  0  0  0  0
  153.0589  143.6917  158.9870 C   0  0  0  0  0  0  0  0  0  0  0  0
  151.6467  143.8953  158.4279 C   0  0  0  0  0  0  0  0  0  0  0  0
  147.8068  141.2290  156.6563 C   0  0  0  0  0  0  0  0  0  0  0  0
  147.4663  140.0929  155.6779 C   0  0  0  0  0  0  0  0  0  0  0  0
  147.5967  137.3899  152.0372 H   0  0  0  0  0  0  0  0  0  0  0  0
  144.1610  137.7356  153.2098 H   0  0  0  0  0  0  0  0  0  0  0  0
  142.3359  136.1257  152.6251 H   0  0  0  0  0  0  0  0  0  0  0  0
  142.8905  134.1537  151.1791 H   0  0  0  0  0  0  0  0  0  0  0  0
  146.8506  135.2368  150.9047 H   0  0  0  0  0  0  0  0  0  0  0  0
  148.5637  138.9046  152.8263 H   0  0  0  0  0  0  0  0  0  0  0  0
  147.6281  141.2555  153.8814 H   0  0  0  0  0  0  0  0  0  0  0  0
  150.0818  139.6556  154.7707 H   0  0  0  0  0  0  0  0  0  0  0  0
  150.0411  140.8314  153.4789 H   0  0  0  0  0  0  0  0  0  0  0  0
  150.9797  141.7914  155.5715 H   0  0  0  0  0  0  0  0  0  0  0  0
  149.5342  142.6546  155.0791 H   0  0  0  0  0  0  0  0  0  0  0  0
  149.2842  143.3844  157.5427 H   0  0  0  0  0  0  0  0  0  0  0  0
  149.1775  142.1602  158.7708 H   0  0  0  0  0  0  0  0  0  0  0  0
  151.6604  142.2903  157.0202 H   0  0  0  0  0  0  0  0  0  0  0  0
  151.1788  141.5929  159.9402 H   0  0  0  0  0  0  0  0  0  0  0  0
  151.8874  140.5550  158.7046 H   0  0  0  0  0  0  0  0  0  0  0  0
  153.4237  142.0688  160.4151 H   0  0  0  0  0  0  0  0  0  0  0  0
  153.9407  141.7299  158.7699 H   0  0  0  0  0  0  0  0  0  0  0  0
  153.2449  144.3438  159.8411 H   0  0  0  0  0  0  0  0  0  0  0  0
  153.8035  143.9309  158.2268 H   0  0  0  0  0  0  0  0  0  0  0  0
  151.6236  144.6251  157.6179 H   0  0  0  0  0  0  0  0  0  0  0  0
  150.9945  144.2648  159.2210 H   0  0  0  0  0  0  0  0  0  0  0  0
  147.3757  141.0036  157.6311 H   0  0  0  0  0  0  0  0  0  0  0  0
  147.3490  142.1607  156.3196 H   0  0  0  0  0  0  0  0  0  0  0  0
  146.3835  139.9944  155.5918 H   0  0  0  0  0  0  0  0  0  0  0  0
  147.8329  139.1467  156.0793 H   0  0  0  0  0  0  0  0  0  0  0  0
  149.6599  140.5261  157.0743 H   0  0  0  0  0  0  0  0  0  0  0  0
  1  2  2  0  0  0  0
  2  3  1  0  0  0  0
  2 10  1  0  0  0  0
  3  4  1  0  0  0  0
  3 23  1  0  0  0  0
  4  9  1  0  0  0  0
  4  5  2  0  0  0  0
  5  6  1  0  0  0  0
  5 24  1  0  0  0  0
  6  7  2  0  0  0  0
  6 25  1  0  0  0  0
  7  8  1  0  0  0  0
  7 26  1  0  0  0  0
  8  9  2  0  0  0  0
  9 27  1  0  0  0  0
 10 11  1  0  0  0  0
 10 28  1  0  0  0  0
 11 22  1  0  0  0  0
 11 12  1  0  0  0  0
 11 29  1  0  0  0  0
 12 13  1  0  0  0  0
 12 30  1  0  0  0  0
 12 31  1  0  0  0  0
 13 14  1  0  0  0  0
 13 32  1  0  0  0  0
 13 33  1  0  0  0  0
 14 15  1  0  0  0  0
 14 21  1  0  0  0  0
 14 49  1  0  0  0  0
 15 16  1  0  0  0  0
 15 34  1  0  0  0  0
 15 35  1  0  0  0  0
 16 20  1  0  0  0  0
 16 17  1  0  0  0  0
 16 36  1  0  0  0  0
 17 18  1  0  0  0  0
 17 37  1  0  0  0  0
 17 38  1  0  0  0  0
 18 19  1  0  0  0  0
 18 39  1  0  0  0  0
 18 40  1  0  0  0  0
 19 20  1  0  0  0  0
 19 41  1  0  0  0  0
 19 42  1  0  0  0  0
 20 43  1  0  0  0  0
 20 44  1  0  0  0  0
 21 22  1  0  0  0  0
 21 45  1  0  0  0  0
 21 46  1  0  0  0  0
 22 47  1  0  0  0  0
 22 48  1  0  0  0  0
M  CHG  1  14   1
M  END
> <s_m_source_file>
AV-unprocessed.smi

> <i_m_source_file_index>
604

> <i_lp_mmshare_version>
43012

> <i_f3d_flags>
0

> <s_epik_input>
W2NIXTFuW2NIXVtjSF1bY0hdYzFbTkhdQyg9TylbTkhdW0NIXTJbQ0gyXVtDSDJdTihbQ0gyXVtDSDJdMilbQ0gyXVtDSF0zW0NIMl1bQ0gyXVtDSDJdW0NIMl0z

> <s_epik_cmdline>
J2VwaWtfcHl0aG9uJywgJy1waCcsICc3LjAnLCAnLXRuJywgJzgnLCAnLW1hJywgJzIwMCcsICctbWV0YWxfYmluZGluZycsICctaW1hZScsICc8aW5maWxlLm1hZT4nLCAnLW9tYWUnLCAnPG91dGZpbGUubWFlPic=

> <r_lp_tautomer_probability>
1

> <r_epik_Ionization_Penalty>
0.00608112

> <r_epik_Ionization_Penalty_Charging>
0.00207989

> <r_epik_Ionization_Penalty_Neutral>
0.00400122

> <r_epik_State_Penalty>
-0

> <r_epik_Charging_Adjusted_Penalty>
0.00207989

> <i_epik_Tot_Q>
1

> <i_epik_Tot_abs_Q>
1

> <r_epik_Metal_State_Penalty>
-0

> <b_epik_Metal_Only>
0

> <s_lp_Force_Field>
OPLS_2005

> <r_lp_Energy>
41.6956

> <b_lp_Chiralities_Consistent>
1

> <s_lp_Variant>
AV-unprocessed.smi:604-1

> <Gold.Version>
5.8.1

> <Gold.Id.Protein>
6NUR|6NUR_protein|mol2

> <Gold.PLP.Fitness>
43.9620

> <Gold.PLP.PLP>
-36.2040

> <Gold.PLP.part.hbond>
-2.0000

> <Gold.PLP.part.metal>
0.0000

> <Gold.PLP.part.buried>
-3.1166

> <Gold.PLP.part.nonpolar>
-32.3696

> <Gold.PLP.part.repulsive>
1.5602

> <Gold.PLP.ligand.clash>
0.0000

> <Gold.PLP.ligand.torsion>
0.6512

> <Gold.PLP.Chemscore.Hbond>
1.2248

> <Gold.PLP.Chemscore.CHOScore>
1.7868

> <Gold.PLP.Chemscore.Metal>
0.0000

> <Gold.Chemscore.Hbonds>
donor molecule, donor type, donor heavy atom, donor atom, acceptor molecule, acceptor atom, score
      L1  H     3    23       P1  7948  0.96
      L1  H    10    28       P1  7957  0.24
      L1  C     7    26       P1 10186  0.97
      L1  C     9    27       P1  7948  0.86

> <Gold.PLP.Chemscore.Internal.Correction>
0.0256

> <Gold.Rescore>
     Score         DG    S(hbond)    S(metal)    S(lipo)     H(rot)  DE(clash)    DE(int)     intcor
     14.11     -17.30       1.00        0.00     101.98       1.35       0.01       3.18       ----

> <Gold.Chemscore.Fitness>
14.1076

> <Gold.Chemscore.DG>
-17.3021

> <Gold.Chemscore.ZeroCoef>
-5.4800

> <Gold.Chemscore.Hbond>
0.9986

> <Gold.Chemscore.Metal>
0.0000

> <Gold.Chemscore.Lipo>
101.9779

> <Gold.Chemscore.Internal_Hbond>
0.0000

> <Gold.Chemscore.DEClash>
0.0141

> <Gold.Chemscore.DEInternal>
3.1804

> <Gold.Chemscore.Rot>
1.3455

> <Gold.Chemscore.Internal.Correction>
   9.000000E+99

> <Gold.Chemscore.Hbonds>
donor molecule, donor type, donor heavy atom, donor atom, acceptor molecule, acceptor atom, score
      L1  H     3    23       P1  7948  0.92
      L1  H    10    28       P1  7957  0.24

> <Gold.Chemscore.Hbond.Weighted>
-3.3352

> <Gold.Chemscore.Metal.Weighted>
-0.0000

> <Gold.Chemscore.Lipo.Weighted>
-11.9314

> <Gold.Chemscore.Internal_Hbond.Weighted>
0.0000

> <Gold.Chemscore.DEClash.Weighted>
0.0141

> <Gold.Chemscore.DEInternal.Weighted>
3.1804

> <Gold.Chemscore.Rot.Weighted>
3.4445

> <Gold.Chemscore.Internal.Correction.Weighted>
   9.000000E+99

> <Gold.Protein.RotatedTorsions>
[ 6907 6896 6895 6894 ] final  -29.53 input  -60.11 | X-H torsion
[ 7974 7965 7964 7962 ] final   62.34 input  175.53 | X-H torsion
[ 8008 7997 7996 7995 ] final  -71.74 input   59.86 | X-H torsion
[ 10167 10162 10161 10158 ] final   94.88 input  -65.29 | X-H torsion
[ 10718 10713 10712 10709 ] final   33.54 input   66.30 | X-H torsion
[ 10763 10752 10751 10750 ] final  -75.48 input  -60.55 | X-H torsion
[ 11005 11000 10999 10996 ] final   64.89 input  -57.11 | X-H torsion

> <Gold.Protein.ActiveResidues>
 VAL166  LYS551  ARG553  GLY616  TRP617  ASP618  TYR619  PRO620  LYS621  CYS622 
 ASP623  PHE694  ASN695  SER759  ASP760  ASP761  ALA762  ILE779  LEU786  VAL792 
 PHE793  MET794  SER795  GLU796  ALA797  LYS798  CYS799  TRP800  GLU811  SER814 

> <Gold.Protein.RotatedAtoms>
  151.1180  135.0063  159.8524 H   0  0  0  0  0  0  0  0  0  0  0  0  # atno 6907 bound_to 6896
  152.5446  134.1757  159.8625 H   0  0  0  0  0  0  0  0  0  0  0  0  # atno 6908 bound_to 6896
  151.1813  133.4679  159.2627 H   0  0  0  0  0  0  0  0  0  0  0  0  # atno 6909 bound_to 6896
  145.8745  139.3401  143.0743 H   0  0  0  0  0  0  0  0  0  0  0  0  # atno 7974 bound_to 7965
  154.5112  140.0810  156.7992 H   0  0  0  0  0  0  0  0  0  0  0  0  # atno 8008 bound_to 7997
  155.3782  140.3426  155.4227 H   0  0  0  0  0  0  0  0  0  0  0  0  # atno 8009 bound_to 7997
  156.1575  140.1578  156.8656 H   0  0  0  0  0  0  0  0  0  0  0  0  # atno 8010 bound_to 7997
  139.8041  144.6801  150.9726 H   0  0  0  0  0  0  0  0  0  0  0  0  # atno 10167 bound_to 10162
  157.2991  130.7342  149.6656 H   0  0  0  0  0  0  0  0  0  0  0  0  # atno 10718 bound_to 10713
  154.4871  135.5830  153.6432 H   0  0  0  0  0  0  0  0  0  0  0  0  # atno 10763 bound_to 10752
  152.9856  135.6104  154.3172 H   0  0  0  0  0  0  0  0  0  0  0  0  # atno 10764 bound_to 10752
  154.3068  135.2845  155.2564 H   0  0  0  0  0  0  0  0  0  0  0  0  # atno 10765 bound_to 10752
  139.9930  134.6562  156.0059 H   0  0  0  0  0  0  0  0  0  0  0  0  # atno 11005 bound_to 11000
  145.9097  140.9188  143.0460 LP  0  0  0  0  0  0  0  0  0  0  0  0  # atno 17320 bound_to 7965
  144.6726  140.1144  143.7453 LP  0  0  0  0  0  0  0  0  0  0  0  0  # atno 17321 bound_to 7965
  140.7819  143.4251  151.0781 LP  0  0  0  0  0  0  0  0  0  0  0  0  # atno 17342 bound_to 10162
  139.7921  143.8203  152.3153 LP  0  0  0  0  0  0  0  0  0  0  0  0  # atno 17343 bound_to 10162
  155.9670  130.4285  150.4792 LP  0  0  0  0  0  0  0  0  0  0  0  0  # atno 17370 bound_to 10713
  157.2769  131.0599  151.2223 LP  0  0  0  0  0  0  0  0  0  0  0  0  # atno 17371 bound_to 10713
  141.1581  133.6541  156.4228 LP  0  0  0  0  0  0  0  0  0  0  0  0  # atno 17394 bound_to 11000
  140.4872  134.6609  157.5196 LP  0  0  0  0  0  0  0  0  0  0  0  0  # atno 17395 bound_to 11000

$$$$
