AV-unprocessed.smi:1126|AV-procd|sdf|4839|dock5
  -GOLD-   22720 3403D 1   1.00000     0.00000
 Structure written by MMmdl.
 47 48  0  0  0  0  0  0  0  0  1 V2000
  154.1243  140.1110  160.1602 C   0  0  0  0  0  0  0  0  0  0  0  0
  153.8070  139.4088  158.9715 O   0  0  0  0  0  0  0  0  0  0  0  0
  152.5264  139.7483  158.4648 C   0  0  0  0  0  0  0  0  0  0  0  0
  152.3528  139.1998  157.0383 C   0  0  0  0  0  0  0  0  0  0  0  0
  151.0372  139.4109  156.4303 N   0  0  0  0  0  0  0  0  0  0  0  0
  150.9459  138.8597  155.0756 C   0  0  0  0  0  0  0  0  0  0  0  0
  149.5542  139.0502  154.4472 C   0  0  0  0  0  0  0  0  0  0  0  0
  149.1538  140.5398  154.4273 C   0  0  0  0  0  0  0  0  0  0  0  0
  147.7333  140.7714  153.8802 C   0  0  0  0  0  0  0  0  0  0  0  0
  147.4261  139.8566  152.7890 N   0  0  0  0  0  0  0  0  0  0  0  0
  146.5547  138.8410  152.8693 C   0  0  0  0  0  0  0  0  0  0  0  0
  145.9006  138.5865  153.8803 O   0  0  0  0  0  0  0  0  0  0  0  0
  146.3963  137.9782  151.6167 C   0  0  0  0  0  0  0  0  0  0  0  0
  145.4121  136.9310  151.8241 N   0  0  0  0  0  0  0  0  0  0  0  0
  145.5179  135.5872  151.5329 C   0  0  0  0  0  0  0  0  0  0  0  0
  144.3407  134.9942  151.8927 C   0  0  0  0  0  0  0  0  0  0  0  0
  143.9449  133.5500  151.7840 C   0  0  0  0  0  0  0  0  0  0  0  0
  143.5672  136.0763  152.4007 C   0  0  0  0  0  0  0  0  0  0  0  0
  144.2091  137.2325  152.3591 N   0  0  0  0  0  0  0  0  0  0  0  0
  149.3064  141.1157  155.8466 C   0  0  0  0  0  0  0  0  0  0  0  0
  150.7121  140.8371  156.4032 C   0  0  0  0  0  0  0  0  0  0  0  0
  155.1091  139.8061  160.5136 H   0  0  0  0  0  0  0  0  0  0  0  0
  153.4023  139.8965  160.9492 H   0  0  0  0  0  0  0  0  0  0  0  0
  154.1461  141.1880  159.9883 H   0  0  0  0  0  0  0  0  0  0  0  0
  151.7356  139.3738  159.1170 H   0  0  0  0  0  0  0  0  0  0  0  0
  152.4376  140.8355  158.4416 H   0  0  0  0  0  0  0  0  0  0  0  0
  153.0943  139.7048  156.4183 H   0  0  0  0  0  0  0  0  0  0  0  0
  152.6182  138.1419  157.0128 H   0  0  0  0  0  0  0  0  0  0  0  0
  151.7022  139.3186  154.4368 H   0  0  0  0  0  0  0  0  0  0  0  0
  151.1582  137.7918  155.0910 H   0  0  0  0  0  0  0  0  0  0  0  0
  149.5562  138.6398  153.4371 H   0  0  0  0  0  0  0  0  0  0  0  0
  148.8190  138.4763  155.0130 H   0  0  0  0  0  0  0  0  0  0  0  0
  149.8542  141.0676  153.7780 H   0  0  0  0  0  0  0  0  0  0  0  0
  146.9974  140.6409  154.6752 H   0  0  0  0  0  0  0  0  0  0  0  0
  147.6372  141.7978  153.5221 H   0  0  0  0  0  0  0  0  0  0  0  0
  147.9247  139.9907  151.9209 H   0  0  0  0  0  0  0  0  0  0  0  0
  146.0782  138.5957  150.7757 H   0  0  0  0  0  0  0  0  0  0  0  0
  147.3544  137.5327  151.3434 H   0  0  0  0  0  0  0  0  0  0  0  0
  146.4133  135.1696  151.0962 H   0  0  0  0  0  0  0  0  0  0  0  0
  142.9123  133.4390  151.4527 H   0  0  0  0  0  0  0  0  0  0  0  0
  144.0322  133.0377  152.7421 H   0  0  0  0  0  0  0  0  0  0  0  0
  144.5700  133.0100  151.0724 H   0  0  0  0  0  0  0  0  0  0  0  0
  142.5626  136.0554  152.7966 H   0  0  0  0  0  0  0  0  0  0  0  0
  149.1212  142.1902  155.8383 H   0  0  0  0  0  0  0  0  0  0  0  0
  148.5595  140.6766  156.5097 H   0  0  0  0  0  0  0  0  0  0  0  0
  150.7737  141.2465  157.4122 H   0  0  0  0  0  0  0  0  0  0  0  0
  151.4523  141.3745  155.8080 H   0  0  0  0  0  0  0  0  0  0  0  0
  1  2  1  0  0  0  0
  1 22  1  0  0  0  0
  1 23  1  0  0  0  0
  1 24  1  0  0  0  0
  2  3  1  0  0  0  0
  3  4  1  0  0  0  0
  3 25  1  0  0  0  0
  3 26  1  0  0  0  0
  4  5  1  0  0  0  0
  4 27  1  0  0  0  0
  4 28  1  0  0  0  0
  5 21  1  0  0  0  0
  5  6  1  0  0  0  0
  6  7  1  0  0  0  0
  6 29  1  0  0  0  0
  6 30  1  0  0  0  0
  7  8  1  0  0  0  0
  7 31  1  0  0  0  0
  7 32  1  0  0  0  0
  8  9  1  0  0  0  0
  8 20  1  0  0  0  0
  8 33  1  0  0  0  0
  9 10  1  0  0  0  0
  9 34  1  0  0  0  0
  9 35  1  0  0  0  0
 10 11  1  0  0  0  0
 10 36  1  0  0  0  0
 11 12  2  0  0  0  0
 11 13  1  0  0  0  0
 13 14  1  0  0  0  0
 13 37  1  0  0  0  0
 13 38  1  0  0  0  0
 14 19  1  0  0  0  0
 14 15  1  0  0  0  0
 15 16  2  0  0  0  0
 15 39  1  0  0  0  0
 16 17  1  0  0  0  0
 16 18  1  0  0  0  0
 17 40  1  0  0  0  0
 17 41  1  0  0  0  0
 17 42  1  0  0  0  0
 18 19  2  0  0  0  0
 18 43  1  0  0  0  0
 20 21  1  0  0  0  0
 20 44  1  0  0  0  0
 20 45  1  0  0  0  0
 21 46  1  0  0  0  0
 21 47  1  0  0  0  0
M  END
> <s_m_source_file>
AV-unprocessed.smi

> <i_m_source_file_index>
1126

> <i_lp_mmshare_version>
43012

> <i_f3d_flags>
0

> <s_epik_input>
W0NIM11PW0NIMl1bQ0gyXU4xW0NIMl1bQ0gyXVtDSF0oW0NIMl1bQ0gyXTEpW0NIMl1bTkhdQyg9TylbQ0gyXW4yW2NIXWMoW0NIM10pW2NIXW4y

> <s_epik_cmdline>
J2VwaWtfcHl0aG9uJywgJy1waCcsICc3LjAnLCAnLXRuJywgJzgnLCAnLW1hJywgJzIwMCcsICctbWV0YWxfYmluZGluZycsICctaW1hZScsICc8aW5maWxlLm1hZT4nLCAnLW9tYWUnLCAnPG91dGZpbGUubWFlPic=

> <r_lp_tautomer_probability>
1

> <r_epik_Ionization_Penalty>
2.42913

> <r_epik_Ionization_Penalty_Charging>
0

> <r_epik_Ionization_Penalty_Neutral>
2.42913

> <r_epik_State_Penalty>
2.58903

> <r_epik_Charging_Adjusted_Penalty>
2.58903

> <i_epik_Tot_Q>
0

> <i_epik_Tot_abs_Q>
0

> <r_epik_Metal_State_Penalty>
2.58902

> <b_epik_Metal_Only>
0

> <s_lp_Force_Field>
OPLS_2005

> <r_lp_Energy>
26.3674

> <b_lp_Chiralities_Consistent>
1

> <s_lp_Variant>
AV-unprocessed.smi:1126-3

> <Gold.Version>
5.8.1

> <Gold.Id.Protein>
6NUR|6NUR_protein|mol2

> <Gold.PLP.Fitness>
43.4241

> <Gold.PLP.PLP>
-36.2574

> <Gold.PLP.part.hbond>
-2.0000

> <Gold.PLP.part.metal>
0.0000

> <Gold.PLP.part.buried>
-0.3201

> <Gold.PLP.part.nonpolar>
-36.3197

> <Gold.PLP.part.repulsive>
1.7177

> <Gold.PLP.ligand.clash>
0.0000

> <Gold.PLP.ligand.torsion>
0.4375

> <Gold.PLP.Chemscore.Hbond>
1.8080

> <Gold.PLP.Chemscore.CHOScore>
0.8265

> <Gold.PLP.Chemscore.Metal>
0.0000

> <Gold.Chemscore.Hbonds>
donor molecule, donor type, donor heavy atom, donor atom, acceptor molecule, acceptor atom, score
      L1  H    10    36       P1  7957  0.91
      P1  H  7997  8010       L1     2  0.56
      L1  C    15    39       P1  7948  0.25

> <Gold.PLP.Chemscore.Internal.Correction>
0.1380

> <Gold.Rescore>
     Score         DG    S(hbond)    S(metal)    S(lipo)     H(rot)  DE(clash)    DE(int)     intcor
     12.56     -15.04       1.27        0.00      89.83       2.03       0.53       1.95       ----

> <Gold.Chemscore.Fitness>
12.5580

> <Gold.Chemscore.DG>
-15.0353

> <Gold.Chemscore.ZeroCoef>
-5.4800

> <Gold.Chemscore.Hbond>
1.2673

> <Gold.Chemscore.Metal>
0.0000

> <Gold.Chemscore.Lipo>
89.8269

> <Gold.Chemscore.Internal_Hbond>
0.0000

> <Gold.Chemscore.DEClash>
0.5302

> <Gold.Chemscore.DEInternal>
1.9471

> <Gold.Chemscore.Rot>
2.0263

> <Gold.Chemscore.Internal.Correction>
   9.000000E+99

> <Gold.Chemscore.Hbonds>
donor molecule, donor type, donor heavy atom, donor atom, acceptor molecule, acceptor atom, score
      L1  H    10    36       P1  7957  0.88
      P1  H  7997  8010       L1     2  0.05

> <Gold.Chemscore.Hbond.Weighted>
-4.2328

> <Gold.Chemscore.Metal.Weighted>
-0.0000

> <Gold.Chemscore.Lipo.Weighted>
-10.5097

> <Gold.Chemscore.Internal_Hbond.Weighted>
0.0000

> <Gold.Chemscore.DEClash.Weighted>
0.5302

> <Gold.Chemscore.DEInternal.Weighted>
1.9471

> <Gold.Chemscore.Rot.Weighted>
5.1872

> <Gold.Chemscore.Internal.Correction.Weighted>
   9.000000E+99

> <Gold.Protein.RotatedTorsions>
[ 6907 6896 6895 6894 ] final   93.21 input  -60.11 | X-H torsion
[ 7974 7965 7964 7962 ] final   95.51 input  175.53 | X-H torsion
[ 8008 7997 7996 7995 ] final   17.52 input   59.86 | X-H torsion
[ 10167 10162 10161 10158 ] final   85.95 input  -65.29 | X-H torsion
[ 10718 10713 10712 10709 ] final  -79.82 input   66.30 | X-H torsion
[ 10763 10752 10751 10750 ] final  107.05 input  -60.55 | X-H torsion
[ 11005 11000 10999 10996 ] final  137.66 input  -57.11 | X-H torsion

> <Gold.Protein.ActiveResidues>
 VAL166  LYS551  ARG553  GLY616  TRP617  ASP618  TYR619  PRO620  LYS621  CYS622 
 ASP623  PHE694  ASN695  SER759  ASP760  ASP761  ALA762  ILE779  LEU786  VAL792 
 PHE793  MET794  SER795  GLU796  ALA797  LYS798  CYS799  TRP800  GLU811  SER814 

> <Gold.Protein.RotatedAtoms>
  152.5452  134.1383  159.8467 H   0  0  0  0  0  0  0  0  0  0  0  0  # atno 6907 bound_to 6896
  151.1421  133.4957  159.2604 H   0  0  0  0  0  0  0  0  0  0  0  0  # atno 6908 bound_to 6896
  151.1562  135.0261  159.8745 H   0  0  0  0  0  0  0  0  0  0  0  0  # atno 6909 bound_to 6896
  145.4512  139.2293  143.3038 H   0  0  0  0  0  0  0  0  0  0  0  0  # atno 7974 bound_to 7965
  154.8927  140.2989  155.5362 H   0  0  0  0  0  0  0  0  0  0  0  0  # atno 8008 bound_to 7997
  156.3020  140.2421  156.3879 H   0  0  0  0  0  0  0  0  0  0  0  0  # atno 8009 bound_to 7997
  154.8602  140.0405  157.1649 H   0  0  0  0  0  0  0  0  0  0  0  0  # atno 8010 bound_to 7997
  139.8925  144.6377  150.8723 H   0  0  0  0  0  0  0  0  0  0  0  0  # atno 10167 bound_to 10162
  156.0084  130.4556  150.3706 H   0  0  0  0  0  0  0  0  0  0  0  0  # atno 10718 bound_to 10713
  153.4013  135.3857  155.1989 H   0  0  0  0  0  0  0  0  0  0  0  0  # atno 10763 bound_to 10752
  154.8729  135.3772  154.4615 H   0  0  0  0  0  0  0  0  0  0  0  0  # atno 10764 bound_to 10752
  153.5112  135.7087  153.5841 H   0  0  0  0  0  0  0  0  0  0  0  0  # atno 10765 bound_to 10752
  140.0129  134.9431  157.0315 H   0  0  0  0  0  0  0  0  0  0  0  0  # atno 11005 bound_to 11000
  146.2503  140.5271  142.8896 LP  0  0  0  0  0  0  0  0  0  0  0  0  # atno 17320 bound_to 7965
  144.8060  140.6301  143.6446 LP  0  0  0  0  0  0  0  0  0  0  0  0  # atno 17321 bound_to 7965
  140.7723  143.3499  151.2036 LP  0  0  0  0  0  0  0  0  0  0  0  0  # atno 17342 bound_to 10162
  139.7097  143.9397  152.2942 LP  0  0  0  0  0  0  0  0  0  0  0  0  # atno 17343 bound_to 10162
  157.1790  131.0387  151.2758 LP  0  0  0  0  0  0  0  0  0  0  0  0  # atno 17370 bound_to 10713
  157.4162  130.7412  149.6877 LP  0  0  0  0  0  0  0  0  0  0  0  0  # atno 17371 bound_to 10713
  140.4522  134.1570  155.7182 LP  0  0  0  0  0  0  0  0  0  0  0  0  # atno 17394 bound_to 11000
  141.1723  133.8584  157.1531 LP  0  0  0  0  0  0  0  0  0  0  0  0  # atno 17395 bound_to 11000

$$$$
