AV-unprocessed.smi:21|AV-procd|sdf|162|dock3
  -GOLD-   2262015403D 1   1.00000     0.00000
 Structure written by MMmdl.
 61 64  0  0  0  0  0  0  0  0  1 V2000
  154.8583  140.4965  159.1968 C   0  0  0  0  0  0  0  0  0  0  0  0
  154.3652  141.7652  159.5966 O   0  0  0  0  0  0  0  0  0  0  0  0
  153.0771  141.7083  160.1924 C   0  0  2  0  0  0  0  0  0  0  0  0
  151.9944  141.1763  159.2349 C   0  0  0  0  0  0  0  0  0  0  0  0
  150.9955  142.3357  159.0946 C   0  0  1  0  0  0  0  0  0  0  0  0
  149.5451  141.8743  158.8288 C   0  0  0  0  0  0  0  0  0  0  0  0
  149.3797  141.2060  157.5378 N   0  0  0  0  0  0  0  0  0  0  0  0
  150.2590  141.6091  156.4412 C   0  0  0  0  0  0  0  0  0  0  0  0
  148.2471  140.4972  157.2509 C   0  0  0  0  0  0  0  0  0  0  0  0
  147.1433  140.7123  158.0185 N   0  0  0  0  0  0  0  0  0  0  0  0
  146.0086  140.0444  157.7995 C   0  0  0  0  0  0  0  0  0  0  0  0
  145.7514  139.1242  156.8716 N   0  0  0  0  0  0  0  0  0  0  0  0
  146.8414  138.9031  156.0845 C   0  0  0  0  0  0  0  0  0  0  0  0
  148.1155  139.5349  156.2000 C   0  0  0  0  0  0  0  0  0  0  0  0
  148.9600  139.0381  155.2114 N   0  0  0  0  0  0  0  0  0  0  0  0
  148.2394  138.1651  154.5651 C   0  0  0  0  0  0  0  0  0  0  0  0
  146.9458  138.0354  155.0114 N   0  0  0  0  0  0  0  0  0  0  0  0
  145.9296  137.1439  154.4811 C   0  0  0  0  0  0  0  0  0  0  0  0
  145.6849  137.2771  152.9548 C   0  0  2  0  0  0  0  0  0  0  0  0
  144.5982  138.3485  152.7047 C   0  0  0  0  0  0  0  0  0  0  0  0
  145.1011  139.6563  152.8905 O   0  0  0  0  0  0  0  0  0  0  0  0
  145.3765  135.9318  152.2335 C   0  0  1  0  0  0  0  0  0  0  0  0
  143.9784  135.3845  152.4780 C   0  0  0  0  0  0  0  0  0  0  0  0
  143.8160  134.3953  151.3341 C   0  0  0  0  0  0  0  0  0  0  0  0
  144.4285  135.0400  150.2290 O   0  0  0  0  0  0  0  0  0  0  0  0
  145.3963  135.9757  150.6956 C   0  0  0  0  0  0  0  0  0  0  0  0
  151.1649  143.1217  160.3058 N   0  0  0  0  0  0  0  0  0  0  0  0
  150.6198  144.4697  160.2138 C   0  0  0  0  0  0  0  0  0  0  0  0
  152.5988  143.1258  160.5176 C   0  0  0  0  0  0  0  0  0  0  0  0
  153.0964  141.1163  161.1094 H   0  0  0  0  0  0  0  0  0  0  0  0
  151.3307  142.9437  158.2526 H   0  0  0  0  0  0  0  0  0  0  0  0
  155.8469  140.6139  158.7531 H   0  0  0  0  0  0  0  0  0  0  0  0
  154.2126  140.0273  158.4540 H   0  0  0  0  0  0  0  0  0  0  0  0
  154.9529  139.8246  160.0508 H   0  0  0  0  0  0  0  0  0  0  0  0
  152.3920  140.8853  158.2621 H   0  0  0  0  0  0  0  0  0  0  0  0
  151.5187  140.2988  159.6746 H   0  0  0  0  0  0  0  0  0  0  0  0
  149.2421  141.1920  159.6236 H   0  0  0  0  0  0  0  0  0  0  0  0
  148.8420  142.7016  158.8999 H   0  0  0  0  0  0  0  0  0  0  0  0
  150.5831  140.7404  155.8670 H   0  0  0  0  0  0  0  0  0  0  0  0
  151.1544  142.1076  156.8126 H   0  0  0  0  0  0  0  0  0  0  0  0
  149.7475  142.2993  155.7694 H   0  0  0  0  0  0  0  0  0  0  0  0
  145.1904  140.2824  158.4632 H   0  0  0  0  0  0  0  0  0  0  0  0
  148.6305  137.6008  153.7309 H   0  0  0  0  0  0  0  0  0  0  0  0
  146.2078  136.1191  154.7294 H   0  0  0  0  0  0  0  0  0  0  0  0
  145.0068  137.3498  155.0247 H   0  0  0  0  0  0  0  0  0  0  0  0
  146.5971  137.6774  152.5110 H   0  0  0  0  0  0  0  0  0  0  0  0
  144.2108  138.2667  151.6886 H   0  0  0  0  0  0  0  0  0  0  0  0
  143.7429  138.2035  153.3646 H   0  0  0  0  0  0  0  0  0  0  0  0
  145.3354  139.7624  153.7998 H   0  0  0  0  0  0  0  0  0  0  0  0
  146.0913  135.1765  152.5646 H   0  0  0  0  0  0  0  0  0  0  0  0
  143.8658  134.9110  153.4537 H   0  0  0  0  0  0  0  0  0  0  0  0
  143.2342  136.1777  152.3919 H   0  0  0  0  0  0  0  0  0  0  0  0
  144.3520  133.4696  151.5482 H   0  0  0  0  0  0  0  0  0  0  0  0
  142.7736  134.1499  151.1305 H   0  0  0  0  0  0  0  0  0  0  0  0
  145.1184  136.9609  150.3200 H   0  0  0  0  0  0  0  0  0  0  0  0
  146.3768  135.7246  150.2930 H   0  0  0  0  0  0  0  0  0  0  0  0
  150.8224  145.0272  161.1287 H   0  0  0  0  0  0  0  0  0  0  0  0
  149.5392  144.4470  160.0758 H   0  0  0  0  0  0  0  0  0  0  0  0
  151.0579  145.0182  159.3790 H   0  0  0  0  0  0  0  0  0  0  0  0
  152.8556  143.4277  161.5335 H   0  0  0  0  0  0  0  0  0  0  0  0
  153.0704  143.8336  159.8334 H   0  0  0  0  0  0  0  0  0  0  0  0
  1  2  1  0  0  0  0
  1 32  1  0  0  0  0
  1 33  1  0  0  0  0
  1 34  1  0  0  0  0
  2  3  1  0  0  0  0
  3 30  1  0  0  0  0
  3 29  1  0  0  0  0
  3  4  1  0  0  0  0
  4  5  1  0  0  0  0
  4 35  1  0  0  0  0
  4 36  1  0  0  0  0
  5 31  1  0  0  0  0
  5  6  1  0  0  0  0
  5 27  1  0  0  0  0
  6  7  1  0  0  0  0
  6 37  1  0  0  0  0
  6 38  1  0  0  0  0
  7  8  1  0  0  0  0
  7  9  1  0  0  0  0
  8 39  1  0  0  0  0
  8 40  1  0  0  0  0
  8 41  1  0  0  0  0
  9 14  1  0  0  0  0
  9 10  2  0  0  0  0
 10 11  1  0  0  0  0
 11 12  2  0  0  0  0
 11 42  1  0  0  0  0
 12 13  1  0  0  0  0
 13 17  1  0  0  0  0
 13 14  2  0  0  0  0
 14 15  1  0  0  0  0
 15 16  2  0  0  0  0
 16 17  1  0  0  0  0
 16 43  1  0  0  0  0
 17 18  1  0  0  0  0
 18 19  1  0  0  0  0
 18 44  1  0  0  0  0
 18 45  1  0  0  0  0
 19 20  1  0  0  0  0
 19 22  1  0  0  0  0
 19 46  1  0  0  0  0
 20 21  1  0  0  0  0
 20 47  1  0  0  0  0
 20 48  1  0  0  0  0
 21 49  1  0  0  0  0
 22 26  1  0  0  0  0
 22 23  1  0  0  0  0
 22 50  1  0  0  0  0
 23 24  1  0  0  0  0
 23 51  1  0  0  0  0
 23 52  1  0  0  0  0
 24 25  1  0  0  0  0
 24 53  1  0  0  0  0
 24 54  1  0  0  0  0
 25 26  1  0  0  0  0
 26 55  1  0  0  0  0
 26 56  1  0  0  0  0
 27 28  1  0  0  0  0
 27 29  1  0  0  0  0
 28 57  1  0  0  0  0
 28 58  1  0  0  0  0
 28 59  1  0  0  0  0
 29 60  1  0  0  0  0
 29 61  1  0  0  0  0
M  END
> <s_m_source_file>
AV-unprocessed.smi

> <i_m_source_file_index>
21

> <i_lp_mmshare_version>
43012

> <i_f3d_flags>
0

> <s_epik_input>
W0NIM11PW0NASF0xW0NIMl1bQ0BIXShOKFtDSDNdKVtDSDJdMSlbQ0gyXU4oW0NIM10pYyhuW2NIXW4yKWMoYzIzKW5bY0hdbjNbQ0gyXVtDQEhdKFtDSDJdW09IXSlbQ0BASF00W0NIMl1bQ0gyXU9bQ0gyXTQ=

> <s_epik_cmdline>
J2VwaWtfcHl0aG9uJywgJy1waCcsICc3LjAnLCAnLXRuJywgJzgnLCAnLW1hJywgJzIwMCcsICctbWV0YWxfYmluZGluZycsICctaW1hZScsICc8aW5maWxlLm1hZT4nLCAnLW9tYWUnLCAnPG91dGZpbGUubWFlPic=

> <r_lp_tautomer_probability>
1

> <r_epik_Ionization_Penalty>
2.17574

> <r_epik_Ionization_Penalty_Charging>
0

> <r_epik_Ionization_Penalty_Neutral>
2.17574

> <r_epik_State_Penalty>
2.31336

> <r_epik_Charging_Adjusted_Penalty>
2.31336

> <i_epik_Tot_Q>
0

> <i_epik_Tot_abs_Q>
0

> <r_epik_Metal_State_Penalty>
2.31025

> <b_epik_Metal_Only>
0

> <s_lp_Force_Field>
OPLS_2005

> <r_lp_Energy>
68.3176

> <b_lp_Chiralities_Consistent>
1

> <s_lp_Variant>
AV-unprocessed.smi:21-42

> <Gold.Version>
5.8.1

> <Gold.Id.Protein>
6NUR|6NUR_protein|mol2

> <Gold.PLP.Fitness>
44.2444

> <Gold.PLP.PLP>
-41.5446

> <Gold.PLP.part.hbond>
-2.7944

> <Gold.PLP.part.metal>
0.0000

> <Gold.PLP.part.buried>
-2.3547

> <Gold.PLP.part.nonpolar>
-36.8298

> <Gold.PLP.part.repulsive>
0.4500

> <Gold.PLP.ligand.clash>
0.0000

> <Gold.PLP.ligand.torsion>
1.3606

> <Gold.PLP.Chemscore.Hbond>
1.0000

> <Gold.PLP.Chemscore.CHOScore>
0.5095

> <Gold.PLP.Chemscore.Metal>
0.0000

> <Gold.Chemscore.Hbonds>
donor molecule, donor type, donor heavy atom, donor atom, acceptor molecule, acceptor atom, score
      L1  C    16    43       P1  7948  1.00

> <Gold.PLP.Chemscore.Internal.Correction>
0.8925

> <Gold.Rescore>
     Score         DG    S(hbond)    S(metal)    S(lipo)     H(rot)  DE(clash)    DE(int)     intcor
     10.28     -13.82       1.00        0.00     108.51       3.00       1.24       2.30       ----

> <Gold.Chemscore.Fitness>
10.2774

> <Gold.Chemscore.DG>
-13.8158

> <Gold.Chemscore.ZeroCoef>
-5.4800

> <Gold.Chemscore.Hbond>
0.9963

> <Gold.Chemscore.Metal>
0.0000

> <Gold.Chemscore.Lipo>
108.5140

> <Gold.Chemscore.Internal_Hbond>
0.0000

> <Gold.Chemscore.DEClash>
1.2390

> <Gold.Chemscore.DEInternal>
2.2994

> <Gold.Chemscore.Rot>
3.0031

> <Gold.Chemscore.Internal.Correction>
   9.000000E+99

> <Gold.Chemscore.Hbond.Weighted>
-3.3276

> <Gold.Chemscore.Metal.Weighted>
-0.0000

> <Gold.Chemscore.Lipo.Weighted>
-12.6961

> <Gold.Chemscore.Internal_Hbond.Weighted>
0.0000

> <Gold.Chemscore.DEClash.Weighted>
1.2390

> <Gold.Chemscore.DEInternal.Weighted>
2.2994

> <Gold.Chemscore.Rot.Weighted>
7.6880

> <Gold.Chemscore.Internal.Correction.Weighted>
   9.000000E+99

> <Gold.Protein.RotatedTorsions>
[ 6907 6896 6895 6894 ] final  140.25 input  -60.11 | X-H torsion
[ 7974 7965 7964 7962 ] final  -32.56 input  175.53 | X-H torsion
[ 8008 7997 7996 7995 ] final  -39.09 input   59.86 | X-H torsion
[ 10167 10162 10161 10158 ] final  159.10 input  -65.29 | X-H torsion
[ 10718 10713 10712 10709 ] final   61.62 input   66.30 | X-H torsion
[ 10763 10752 10751 10750 ] final  -56.50 input  -60.55 | X-H torsion
[ 11005 11000 10999 10996 ] final -119.15 input  -57.11 | X-H torsion

> <Gold.Protein.ActiveResidues>
 VAL166  LYS551  ARG553  GLY616  TRP617  ASP618  TYR619  PRO620  LYS621  CYS622 
 ASP623  PHE694  ASN695  SER759  ASP760  ASP761  ALA762  ILE779  LEU786  VAL792 
 PHE793  MET794  SER795  GLU796  ALA797  LYS798  CYS799  TRP800  GLU811  SER814 

> <Gold.Protein.RotatedAtoms>
  152.2452  133.5169  159.5293 H   0  0  0  0  0  0  0  0  0  0  0  0  # atno 6907 bound_to 6896
  150.7076  134.1034  159.3983 H   0  0  0  0  0  0  0  0  0  0  0  0  # atno 6908 bound_to 6896
  151.8955  135.0399  160.0552 H   0  0  0  0  0  0  0  0  0  0  0  0  # atno 6909 bound_to 6896
  146.0981  140.5807  142.8834 H   0  0  0  0  0  0  0  0  0  0  0  0  # atno 7974 bound_to 7965
  154.4027  140.1560  156.2807 H   0  0  0  0  0  0  0  0  0  0  0  0  # atno 8008 bound_to 7997
  155.8872  140.3440  155.5908 H   0  0  0  0  0  0  0  0  0  0  0  0  # atno 8009 bound_to 7997
  155.7599  140.0816  157.2151 H   0  0  0  0  0  0  0  0  0  0  0  0  # atno 8010 bound_to 7997
  139.4830  144.4762  151.8507 H   0  0  0  0  0  0  0  0  0  0  0  0  # atno 10167 bound_to 10162
  157.5841  130.9005  149.9484 H   0  0  0  0  0  0  0  0  0  0  0  0  # atno 10718 bound_to 10713
  154.2077  135.6400  153.5106 H   0  0  0  0  0  0  0  0  0  0  0  0  # atno 10763 bound_to 10752
  152.9997  135.5466  154.6248 H   0  0  0  0  0  0  0  0  0  0  0  0  # atno 10764 bound_to 10752
  154.5677  135.2914  155.0831 H   0  0  0  0  0  0  0  0  0  0  0  0  # atno 10765 bound_to 10752
  141.0235  134.0088  157.3248 H   0  0  0  0  0  0  0  0  0  0  0  0  # atno 11005 bound_to 11000
  144.7411  140.4943  143.6869 LP  0  0  0  0  0  0  0  0  0  0  0  0  # atno 17320 bound_to 7965
  145.5909  139.1495  143.3183 LP  0  0  0  0  0  0  0  0  0  0  0  0  # atno 17321 bound_to 7965
  140.4235  144.2212  150.5887 LP  0  0  0  0  0  0  0  0  0  0  0  0  # atno 17342 bound_to 10162
  140.4850  143.2366  151.8900 LP  0  0  0  0  0  0  0  0  0  0  0  0  # atno 17343 bound_to 10162
  156.0889  130.3665  150.0433 LP  0  0  0  0  0  0  0  0  0  0  0  0  # atno 17370 bound_to 10713
  156.8567  130.9477  151.3621 LP  0  0  0  0  0  0  0  0  0  0  0  0  # atno 17371 bound_to 10713
  139.9161  135.0197  156.7887 LP  0  0  0  0  0  0  0  0  0  0  0  0  # atno 17394 bound_to 11000
  140.6531  133.9713  155.7765 LP  0  0  0  0  0  0  0  0  0  0  0  0  # atno 17395 bound_to 11000

$$$$
