AV-unprocessed.smi:294|AV-procd|sdf|2252|dock10
  -GOLD-   2262022133D 1   1.00000     0.00000
 Structure written by MMmdl.
 29 30  0  0  0  0  0  0  0  0  1 V2000
  145.5120  141.6843  159.4450 N   0  0  0  0  0  0  0  0  0  0  0  0
  145.7773  141.6469  158.3193 C   0  0  0  0  0  0  0  0  0  0  0  0
  146.1109  141.6005  156.9061 C   0  0  0  0  0  0  0  0  0  0  0  0
  145.1424  141.6008  155.9444 N   0  0  0  0  0  0  0  0  0  0  0  0
  145.9198  141.5603  154.8691 C   0  0  0  0  0  0  0  0  0  0  0  0
  147.2280  141.5347  155.1453 N   0  0  0  0  0  0  0  0  0  0  0  0
  148.3770  141.5053  154.2602 C   0  0  0  0  0  0  0  0  0  0  0  0
  149.6680  141.3210  155.0572 C   0  0  0  0  0  0  0  0  0  0  0  0
  150.4174  140.3781  154.8044 O   0  0  0  0  0  0  0  0  0  0  0  0
  149.9218  142.2368  156.0045 N   0  0  0  0  0  0  0  0  0  0  0  0
  151.1169  142.2677  156.8406 C   0  0  2  0  0  0  0  0  0  0  0  0
  151.3428  140.9153  157.5411 C   0  0  0  0  0  0  0  0  0  0  0  0
  152.3720  141.1091  158.6618 C   0  0  0  0  0  0  0  0  0  0  0  0
  152.1539  142.8284  159.2605 S   0  0  0  0  0  0  0  0  0  0  0  0
  151.4236  142.8174  160.5371 O   0  0  0  0  0  0  0  0  0  0  0  0
  153.4304  143.5460  159.1242 O   0  0  0  0  0  0  0  0  0  0  0  0
  151.0150  143.3518  157.9248 C   0  0  0  0  0  0  0  0  0  0  0  0
  147.3760  141.5613  156.4927 N   0  0  0  0  0  0  0  0  0  0  0  0
  145.5301  141.5542  153.8615 H   0  0  0  0  0  0  0  0  0  0  0  0
  148.2546  140.7022  153.5313 H   0  0  0  0  0  0  0  0  0  0  0  0
  148.4170  142.4422  153.7033 H   0  0  0  0  0  0  0  0  0  0  0  0
  149.2498  142.9787  156.1393 H   0  0  0  0  0  0  0  0  0  0  0  0
  151.9945  142.4719  156.2240 H   0  0  0  0  0  0  0  0  0  0  0  0
  150.4045  140.5794  157.9853 H   0  0  0  0  0  0  0  0  0  0  0  0
  151.6572  140.1420  156.8394 H   0  0  0  0  0  0  0  0  0  0  0  0
  152.2465  140.4037  159.4833 H   0  0  0  0  0  0  0  0  0  0  0  0
  153.3871  141.0153  158.2747 H   0  0  0  0  0  0  0  0  0  0  0  0
  151.2876  144.3437  157.5639 H   0  0  0  0  0  0  0  0  0  0  0  0
  150.0096  143.3986  158.3451 H   0  0  0  0  0  0  0  0  0  0  0  0
  1  2  3  0  0  0  0
  2  3  1  0  0  0  0
  3 18  2  0  0  0  0
  3  4  1  0  0  0  0
  4  5  2  0  0  0  0
  5  6  1  0  0  0  0
  5 19  1  0  0  0  0
  6  7  1  0  0  0  0
  6 18  1  0  0  0  0
  7  8  1  0  0  0  0
  7 20  1  0  0  0  0
  7 21  1  0  0  0  0
  8  9  2  0  0  0  0
  8 10  1  0  0  0  0
 10 11  1  0  0  0  0
 10 22  1  0  0  0  0
 11 17  1  0  0  0  0
 11 12  1  0  0  0  0
 11 23  1  0  0  0  0
 12 13  1  0  0  0  0
 12 24  1  0  0  0  0
 12 25  1  0  0  0  0
 13 14  1  0  0  0  0
 13 26  1  0  0  0  0
 13 27  1  0  0  0  0
 14 15  2  0  0  0  0
 14 16  2  0  0  0  0
 14 17  1  0  0  0  0
 17 28  1  0  0  0  0
 17 29  1  0  0  0  0
M  END
> <s_m_source_file>
AV-unprocessed.smi

> <i_m_source_file_index>
294

> <i_lp_mmshare_version>
43012

> <i_f3d_flags>
0

> <s_epik_input>
TiNDYzFuW2NIXW4objEpW0NIMl1DKD1PKVtOSF1bQ0BASF0oW0NIMl0yKVtDSDJdW0NIMl1TMig9Tyk9Tw==

> <s_epik_cmdline>
J2VwaWtfcHl0aG9uJywgJy1waCcsICc3LjAnLCAnLXRuJywgJzgnLCAnLW1hJywgJzIwMCcsICctbWV0YWxfYmluZGluZycsICctaW1hZScsICc8aW5maWxlLm1hZT4nLCAnLW9tYWUnLCAnPG91dGZpbGUubWFlPic=

> <r_lp_tautomer_probability>
1

> <r_epik_Ionization_Penalty>
6.08231e-07

> <r_epik_Ionization_Penalty_Charging>
0

> <r_epik_Ionization_Penalty_Neutral>
6.08231e-07

> <r_epik_State_Penalty>
-0

> <r_epik_Charging_Adjusted_Penalty>
0

> <i_epik_Tot_Q>
0

> <i_epik_Tot_abs_Q>
0

> <r_epik_Metal_State_Penalty>
-0

> <b_epik_Metal_Only>
0

> <s_lp_Force_Field>
OPLS_2005

> <r_lp_Energy>
6.42809

> <b_lp_Chiralities_Consistent>
1

> <s_lp_Variant>
AV-unprocessed.smi:294-1

> <Gold.Version>
5.8.1

> <Gold.Id.Protein>
6NUR|6NUR_protein|mol2

> <Gold.PLP.Fitness>
39.3133

> <Gold.PLP.PLP>
-27.9506

> <Gold.PLP.part.hbond>
-4.0000

> <Gold.PLP.part.metal>
0.0000

> <Gold.PLP.part.buried>
-5.5347

> <Gold.PLP.part.nonpolar>
-19.7014

> <Gold.PLP.part.repulsive>
0.4367

> <Gold.PLP.ligand.clash>
0.0000

> <Gold.PLP.ligand.torsion>
0.1027

> <Gold.PLP.Chemscore.Hbond>
2.8557

> <Gold.PLP.Chemscore.CHOScore>
0.9996

> <Gold.PLP.Chemscore.Metal>
0.0000

> <Gold.Chemscore.Hbonds>
donor molecule, donor type, donor heavy atom, donor atom, acceptor molecule, acceptor atom, score
      L1  H    10    22       P1  8028  0.85
      P1  H  6934  6946       L1     1  0.96
      P1  H  7989  7998       L1     9  1.00
      L1  C     5    19       P1 10175  1.00

> <Gold.PLP.Chemscore.Internal.Correction>
0.0021

> <Gold.Rescore>
     Score         DG    S(hbond)    S(metal)    S(lipo)     H(rot)  DE(clash)    DE(int)     intcor
     11.05     -13.40       2.63        0.00      39.71       2.15       0.14       2.21       ----

> <Gold.Chemscore.Fitness>
11.0468

> <Gold.Chemscore.DG>
-13.4004

> <Gold.Chemscore.ZeroCoef>
-5.4800

> <Gold.Chemscore.Hbond>
2.6316

> <Gold.Chemscore.Metal>
0.0000

> <Gold.Chemscore.Lipo>
39.7149

> <Gold.Chemscore.Internal_Hbond>
0.0000

> <Gold.Chemscore.DEClash>
0.1446

> <Gold.Chemscore.DEInternal>
2.2090

> <Gold.Chemscore.Rot>
2.1546

> <Gold.Chemscore.Internal.Correction>
   9.000000E+99

> <Gold.Chemscore.Hbonds>
donor molecule, donor type, donor heavy atom, donor atom, acceptor molecule, acceptor atom, score
      L1  H    10    22       P1  8028  0.85
      P1  H  6933  6945       L1    15  0.01
      P1  H  6934  6946       L1     1  0.79
      P1  H  7989  7998       L1     9  0.68

> <Gold.Chemscore.Hbond.Weighted>
-8.7895

> <Gold.Chemscore.Metal.Weighted>
-0.0000

> <Gold.Chemscore.Lipo.Weighted>
-4.6466

> <Gold.Chemscore.Internal_Hbond.Weighted>
0.0000

> <Gold.Chemscore.DEClash.Weighted>
0.1446

> <Gold.Chemscore.DEInternal.Weighted>
2.2090

> <Gold.Chemscore.Rot.Weighted>
5.5158

> <Gold.Chemscore.Internal.Correction.Weighted>
   9.000000E+99

> <Gold.Protein.RotatedTorsions>
[ 6907 6896 6895 6894 ] final -112.07 input  -60.11 | X-H torsion
[ 7974 7965 7964 7962 ] final   39.33 input  175.53 | X-H torsion
[ 8008 7997 7996 7995 ] final  -56.03 input   59.86 | X-H torsion
[ 10167 10162 10161 10158 ] final  -14.99 input  -65.29 | X-H torsion
[ 10718 10713 10712 10709 ] final  -88.02 input   66.30 | X-H torsion
[ 10763 10752 10751 10750 ] final -104.89 input  -60.55 | X-H torsion
[ 11005 11000 10999 10996 ] final   51.10 input  -57.11 | X-H torsion

> <Gold.Protein.ActiveResidues>
 VAL166  LYS551  ARG553  GLY616  TRP617  ASP618  TYR619  PRO620  LYS621  CYS622 
 ASP623  PHE694  ASN695  SER759  ASP760  ASP761  ALA762  ILE779  LEU786  VAL792 
 PHE793  MET794  SER795  GLU796  ALA797  LYS798  CYS799  TRP800  GLU811  SER814 

> <Gold.Protein.RotatedAtoms>
  150.7733  133.9143  159.3378 H   0  0  0  0  0  0  0  0  0  0  0  0  # atno 6907 bound_to 6896
  151.7024  135.0926  160.0263 H   0  0  0  0  0  0  0  0  0  0  0  0  # atno 6908 bound_to 6896
  152.3759  133.6443  159.6159 H   0  0  0  0  0  0  0  0  0  0  0  0  # atno 6909 bound_to 6896
  146.0992  139.5664  142.9425 H   0  0  0  0  0  0  0  0  0  0  0  0  # atno 7974 bound_to 7965
  154.4215  140.1139  156.5572 H   0  0  0  0  0  0  0  0  0  0  0  0  # atno 8008 bound_to 7997
  155.6349  140.3496  155.4676 H   0  0  0  0  0  0  0  0  0  0  0  0  # atno 8009 bound_to 7997
  155.9918  140.1181  157.0620 H   0  0  0  0  0  0  0  0  0  0  0  0  # atno 8010 bound_to 7997
  140.7211  143.5264  150.9571 H   0  0  0  0  0  0  0  0  0  0  0  0  # atno 10167 bound_to 10162
  155.9984  130.4821  150.4956 H   0  0  0  0  0  0  0  0  0  0  0  0  # atno 10718 bound_to 10713
  154.7909  135.4769  154.0052 H   0  0  0  0  0  0  0  0  0  0  0  0  # atno 10763 bound_to 10752
  153.1630  135.6812  153.8722 H   0  0  0  0  0  0  0  0  0  0  0  0  # atno 10764 bound_to 10752
  153.8329  135.3189  155.3398 H   0  0  0  0  0  0  0  0  0  0  0  0  # atno 10765 bound_to 10752
  140.0961  134.5144  155.8806 H   0  0  0  0  0  0  0  0  0  0  0  0  # atno 11005 bound_to 11000
  145.5887  141.0372  143.2082 LP  0  0  0  0  0  0  0  0  0  0  0  0  # atno 17320 bound_to 7965
  144.7419  139.7424  143.7307 LP  0  0  0  0  0  0  0  0  0  0  0  0  # atno 17321 bound_to 7965
  139.8983  143.6867  152.3135 LP  0  0  0  0  0  0  0  0  0  0  0  0  # atno 17342 bound_to 10162
  139.7208  144.7603  151.0959 LP  0  0  0  0  0  0  0  0  0  0  0  0  # atno 17343 bound_to 10162
  157.2946  131.0633  151.2110 LP  0  0  0  0  0  0  0  0  0  0  0  0  # atno 17370 bound_to 10713
  157.3110  130.6890  149.6216 LP  0  0  0  0  0  0  0  0  0  0  0  0  # atno 17371 bound_to 10713
  141.2092  133.6682  156.6425 LP  0  0  0  0  0  0  0  0  0  0  0  0  # atno 17394 bound_to 11000
  140.3284  134.7949  157.4307 LP  0  0  0  0  0  0  0  0  0  0  0  0  # atno 17395 bound_to 11000

$$$$
