AV-unprocessed.smi:2226|AV-procd|sdf|9005|dock5
  -GOLD-   2272012213D 1   1.00000     0.00000
 Structure written by MMmdl.
 41 43  0  0  0  0  0  0  0  0  3 V2000
  145.5989  138.5595  154.4475 C   0  0  0  0  0  0  0  0  0  0  0  0
  146.8996  139.2707  154.4331 N   0  3  2  0  0  0  0  0  0  0  0  0
  147.6394  139.2412  155.7176 C   0  0  2  0  0  0  0  0  0  0  0  0
  146.9446  140.1151  156.7920 C   0  0  0  0  0  0  0  0  0  0  0  0
  146.6283  141.5493  156.3301 C   0  0  0  0  0  0  0  0  0  0  0  0
  146.1035  141.6030  154.8846 C   0  0  0  0  0  0  0  0  0  0  0  0
  146.8458  140.6565  153.9090 C   0  0  1  0  0  0  0  0  0  0  0  0
  148.2731  141.1069  153.5185 C   0  0  0  0  0  0  0  0  0  0  0  0
  149.3843  140.8286  154.5698 C   0  0  1  0  0  0  0  0  0  0  0  0
  149.7237  141.9983  155.3789 N   0  0  0  0  0  0  0  0  0  0  0  0
  150.5547  142.0066  156.4331 C   0  0  0  0  0  0  0  0  0  0  0  0
  151.1536  141.0096  156.8369 O   0  0  0  0  0  0  0  0  0  0  0  0
  150.6468  143.2273  156.9826 N   0  0  0  0  0  0  0  0  0  0  0  0
  151.4574  143.5743  158.0878 C   0  0  0  0  0  0  0  0  0  0  0  0
  151.3143  144.6942  158.7943 N   0  3  0  0  0  0  0  0  0  0  0  0
  152.2638  144.7137  159.7858 C   0  0  0  0  0  0  0  0  0  0  0  0
  152.9825  143.5517  159.6376 C   0  0  0  0  0  0  0  0  0  0  0  0
  152.4871  142.8244  158.5740 O   0  0  0  0  0  0  0  0  0  0  0  0
  149.1249  139.5808  155.4529 C   0  0  0  0  0  0  0  0  0  0  0  0
  144.8819  139.0191  155.1272 H   0  0  0  0  0  0  0  0  0  0  0  0
  145.7372  137.5224  154.7544 H   0  0  0  0  0  0  0  0  0  0  0  0
  145.1597  138.5510  153.4496 H   0  0  0  0  0  0  0  0  0  0  0  0
  147.6235  138.2140  156.0855 H   0  0  0  0  0  0  0  0  0  0  0  0
  146.0091  139.6350  157.0809 H   0  0  0  0  0  0  0  0  0  0  0  0
  147.5462  140.1430  157.7010 H   0  0  0  0  0  0  0  0  0  0  0  0
  145.8909  141.9919  157.0004 H   0  0  0  0  0  0  0  0  0  0  0  0
  147.5023  142.1825  156.4355 H   0  0  0  0  0  0  0  0  0  0  0  0
  145.0459  141.3383  154.8935 H   0  0  0  0  0  0  0  0  0  0  0  0
  146.1409  142.6282  154.5151 H   0  0  0  0  0  0  0  0  0  0  0  0
  146.2681  140.6380  152.9835 H   0  0  0  0  0  0  0  0  0  0  0  0
  148.5427  140.5517  152.6187 H   0  0  0  0  0  0  0  0  0  0  0  0
  148.2680  142.1524  153.2087 H   0  0  0  0  0  0  0  0  0  0  0  0
  150.2964  140.6103  154.0103 H   0  0  0  0  0  0  0  0  0  0  0  0
  149.2768  142.8667  155.1223 H   0  0  0  0  0  0  0  0  0  0  0  0
  150.6341  145.4317  158.6582 H   0  0  0  0  0  0  0  0  0  0  0  0
  152.3327  145.5358  160.4839 H   0  0  0  0  0  0  0  0  0  0  0  0
  153.8193  143.1190  160.1667 H   0  0  0  0  0  0  0  0  0  0  0  0
  149.6765  139.6446  156.3921 H   0  0  0  0  0  0  0  0  0  0  0  0
  149.5564  138.7247  154.9319 H   0  0  0  0  0  0  0  0  0  0  0  0
  147.4663  138.7515  153.7776 H   0  0  0  0  0  0  0  0  0  0  0  0
  150.0983  143.9699  156.5751 H   0  0  0  0  0  0  0  0  0  0  0  0
  1  2  1  0  0  0  0
  1 20  1  0  0  0  0
  1 21  1  0  0  0  0
  1 22  1  0  0  0  0
  2  7  1  0  0  0  0
  2  3  1  0  0  0  0
  2 40  1  0  0  0  0
  3 19  1  0  0  0  0
  3  4  1  0  0  0  0
  3 23  1  0  0  0  0
  4  5  1  0  0  0  0
  4 24  1  0  0  0  0
  4 25  1  0  0  0  0
  5  6  1  0  0  0  0
  5 26  1  0  0  0  0
  5 27  1  0  0  0  0
  6  7  1  0  0  0  0
  6 28  1  0  0  0  0
  6 29  1  0  0  0  0
  7  8  1  0  0  0  0
  7 30  1  0  0  0  0
  8  9  1  0  0  0  0
  8 31  1  0  0  0  0
  8 32  1  0  0  0  0
  9 10  1  0  0  0  0
  9 19  1  0  0  0  0
  9 33  1  0  0  0  0
 10 34  1  0  0  0  0
 10 11  1  0  0  0  0
 11 13  1  0  0  0  0
 11 12  2  0  0  0  0
 13 14  1  0  0  0  0
 13 41  1  0  0  0  0
 14 18  1  0  0  0  0
 14 15  2  0  0  0  0
 15 35  1  0  0  0  0
 15 16  1  0  0  0  0
 16 36  1  0  0  0  0
 16 17  2  0  0  0  0
 17 37  1  0  0  0  0
 17 18  1  0  0  0  0
 19 38  1  0  0  0  0
 19 39  1  0  0  0  0
M  CHG  1   2   1
M  CHG  1  15   1
M  END
> <s_m_source_file>
AV-unprocessed.smi

> <i_m_source_file_index>
2226

> <i_lp_mmshare_version>
43012

> <i_f3d_flags>
0

> <s_epik_input>
W0NIMl0xW0NIMl1bQ0gyXVtDQEhdKE4oW0NIM10pW0NIXTEyKVtDSDJdW0NASF0oW0NIMl0yKVtOSF1DKD1PKVtOSF1jM25bY0hdW2NIXW8z

> <s_epik_cmdline>
J2VwaWtfcHl0aG9uJywgJy1waCcsICc3LjAnLCAnLXRuJywgJzgnLCAnLW1hJywgJzIwMCcsICctbWV0YWxfYmluZGluZycsICctaW1hZScsICc8aW5maWxlLm1hZT4nLCAnLW9tYWUnLCAnPG91dGZpbGUubWFlPic=

> <r_epik_Ionization_Penalty>
6.92532

> <r_epik_Ionization_Penalty_Charging>
6.82059

> <r_epik_Ionization_Penalty_Neutral>
0.104727

> <r_epik_State_Penalty>
2.17671

> <r_epik_Charging_Adjusted_Penalty>
8.99731

> <i_epik_Tot_Q>
2

> <i_epik_Tot_abs_Q>
2

> <r_epik_Metal_State_Penalty>
2.20618

> <b_epik_Metal_Only>
0

> <s_lp_Force_Field>
OPLS_2005

> <r_lp_Energy>
47.9723

> <b_lp_Chiralities_Consistent>
1

> <s_lp_Variant>
AV-unprocessed.smi:2226-5

> <Gold.Version>
5.8.1

> <Gold.Id.Protein>
6NUR|6NUR_protein|mol2

> <Gold.PLP.Fitness>
33.8043

> <Gold.PLP.PLP>
-28.2950

> <Gold.PLP.part.hbond>
-2.0000

> <Gold.PLP.part.metal>
0.0000

> <Gold.PLP.part.buried>
-2.6208

> <Gold.PLP.part.nonpolar>
-23.5958

> <Gold.PLP.part.repulsive>
0.3361

> <Gold.PLP.ligand.clash>
0.0000

> <Gold.PLP.ligand.torsion>
0.1897

> <Gold.PLP.Chemscore.Hbond>
1.9440

> <Gold.PLP.Chemscore.CHOScore>
0.0000

> <Gold.PLP.Chemscore.Metal>
0.0000

> <Gold.Chemscore.Hbonds>
donor molecule, donor type, donor heavy atom, donor atom, acceptor molecule, acceptor atom, score
      L1  H    10    34       P1  8028  0.94
      L1  H    13    41       P1  8028  1.00

> <Gold.PLP.Chemscore.Internal.Correction>
0.0566

> <Gold.Rescore>
     Score         DG    S(hbond)    S(metal)    S(lipo)     H(rot)  DE(clash)    DE(int)     intcor
     13.53     -16.53       1.95        0.00      60.75       1.00       0.22       2.77       ----

> <Gold.Chemscore.Fitness>
13.5344

> <Gold.Chemscore.DG>
-16.5285

> <Gold.Chemscore.ZeroCoef>
-5.4800

> <Gold.Chemscore.Hbond>
1.9465

> <Gold.Chemscore.Metal>
0.0000

> <Gold.Chemscore.Lipo>
60.7458

> <Gold.Chemscore.Internal_Hbond>
0.0000

> <Gold.Chemscore.DEClash>
0.2192

> <Gold.Chemscore.DEInternal>
2.7749

> <Gold.Chemscore.Rot>
1.0000

> <Gold.Chemscore.Internal.Correction>
   9.000000E+99

> <Gold.Chemscore.Hbonds>
donor molecule, donor type, donor heavy atom, donor atom, acceptor molecule, acceptor atom, score
      L1  H    10    34       P1  8028  0.90
      L1  H    13    41       P1  8028  0.99

> <Gold.Chemscore.Hbond.Weighted>
-6.5013

> <Gold.Chemscore.Metal.Weighted>
-0.0000

> <Gold.Chemscore.Lipo.Weighted>
-7.1073

> <Gold.Chemscore.Internal_Hbond.Weighted>
0.0000

> <Gold.Chemscore.DEClash.Weighted>
0.2192

> <Gold.Chemscore.DEInternal.Weighted>
2.7749

> <Gold.Chemscore.Rot.Weighted>
2.5600

> <Gold.Chemscore.Internal.Correction.Weighted>
   9.000000E+99

> <Gold.Protein.RotatedTorsions>
[ 6907 6896 6895 6894 ] final   72.16 input  -60.11 | X-H torsion
[ 7974 7965 7964 7962 ] final  -48.32 input  175.53 | X-H torsion
[ 8008 7997 7996 7995 ] final   46.69 input   59.86 | X-H torsion
[ 10167 10162 10161 10158 ] final  -70.51 input  -65.29 | X-H torsion
[ 10718 10713 10712 10709 ] final  -19.71 input   66.30 | X-H torsion
[ 10763 10752 10751 10750 ] final   88.28 input  -60.55 | X-H torsion
[ 11005 11000 10999 10996 ] final -115.34 input  -57.11 | X-H torsion

> <Gold.Protein.ActiveResidues>
 VAL166  LYS551  ARG553  GLY616  TRP617  ASP618  TYR619  PRO620  LYS621  CYS622 
 ASP623  PHE694  ASN695  SER759  ASP760  ASP761  ALA762  ILE779  LEU786  VAL792 
 PHE793  MET794  SER795  GLU796  ALA797  LYS798  CYS799  TRP800  GLU811  SER814 

> <Gold.Protein.RotatedAtoms>
  152.4852  134.4612  159.9605 H   0  0  0  0  0  0  0  0  0  0  0  0  # atno 6907 bound_to 6896
  151.4610  133.3587  159.2817 H   0  0  0  0  0  0  0  0  0  0  0  0  # atno 6908 bound_to 6896
  150.8956  134.8389  159.7385 H   0  0  0  0  0  0  0  0  0  0  0  0  # atno 6909 bound_to 6896
  145.9524  140.7559  142.9498 H   0  0  0  0  0  0  0  0  0  0  0  0  # atno 7974 bound_to 7965
  155.3567  140.3416  155.4240 H   0  0  0  0  0  0  0  0  0  0  0  0  # atno 8008 bound_to 7997
  156.1735  140.1640  156.8439 H   0  0  0  0  0  0  0  0  0  0  0  0  # atno 8009 bound_to 7997
  154.5258  140.0756  156.8238 H   0  0  0  0  0  0  0  0  0  0  0  0  # atno 8010 bound_to 7997
  140.5346  143.2319  151.7200 H   0  0  0  0  0  0  0  0  0  0  0  0  # atno 10167 bound_to 10162
  156.5418  130.4680  149.6495 H   0  0  0  0  0  0  0  0  0  0  0  0  # atno 10718 bound_to 10713
  153.1753  135.4512  154.9957 H   0  0  0  0  0  0  0  0  0  0  0  0  # atno 10763 bound_to 10752
  154.7994  135.3250  154.7590 H   0  0  0  0  0  0  0  0  0  0  0  0  # atno 10764 bound_to 10752
  153.8061  135.6958  153.4903 H   0  0  0  0  0  0  0  0  0  0  0  0  # atno 10765 bound_to 10752
  141.0494  133.9711  157.2862 H   0  0  0  0  0  0  0  0  0  0  0  0  # atno 11005 bound_to 11000
  144.6798  140.2456  143.7338 LP  0  0  0  0  0  0  0  0  0  0  0  0  # atno 17320 bound_to 7965
  145.8153  139.2020  143.1969 LP  0  0  0  0  0  0  0  0  0  0  0  0  # atno 17321 bound_to 7965
  139.4966  144.4062  152.0129 LP  0  0  0  0  0  0  0  0  0  0  0  0  # atno 17342 bound_to 10162
  140.3166  144.3476  150.6020 LP  0  0  0  0  0  0  0  0  0  0  0  0  # atno 17343 bound_to 10162
  156.2964  130.7153  151.2014 LP  0  0  0  0  0  0  0  0  0  0  0  0  # atno 17370 bound_to 10713
  157.7404  131.0518  150.5170 LP  0  0  0  0  0  0  0  0  0  0  0  0  # atno 17371 bound_to 10713
  139.9338  135.0198  156.8488 LP  0  0  0  0  0  0  0  0  0  0  0  0  # atno 17394 bound_to 11000
  140.6084  134.0105  155.7566 LP  0  0  0  0  0  0  0  0  0  0  0  0  # atno 17395 bound_to 11000

$$$$
