AV-unprocessed.smi:3058|AV-procd|sdf|11672|dock6
  -GOLD-   2272017 73D 1   1.00000     0.00000
 Structure written by MMmdl.
 38 40  0  0  0  0  0  0  0  0  1 V2000
  152.9606  140.2007  158.4065 O   0  0  0  0  0  0  0  0  0  0  0  0
  151.9972  140.9561  158.2754 C   0  0  0  0  0  0  0  0  0  0  0  0
  150.9298  140.6583  157.5170 N   0  0  0  0  0  0  0  0  0  0  0  0
  150.7022  139.3871  156.8337 C   0  0  0  0  0  0  0  0  0  0  0  0
  150.7087  139.5483  155.3006 C   0  0  0  0  0  0  0  0  0  0  0  0
  149.3397  139.8508  154.7146 C   0  0  0  0  0  0  0  0  0  0  0  0
  148.8085  141.1572  154.7459 C   0  0  0  0  0  0  0  0  0  0  0  0
  147.5212  141.3794  154.2211 C   0  0  0  0  0  0  0  0  0  0  0  0
  146.8189  140.2832  153.6822 C   0  0  0  0  0  0  0  0  0  0  0  0
  147.3189  139.0293  153.6419 N   0  0  0  0  0  0  0  0  0  0  0  0
  148.5532  138.8241  154.1500 C   0  0  0  0  0  0  0  0  0  0  0  0
  151.9427  142.3016  159.0183 C   0  0  1  0  0  0  0  0  0  0  0  0
  153.2255  143.1466  158.8210 C   0  0  0  0  0  0  0  0  0  0  0  0
  152.6856  144.4909  158.2953 C   0  0  2  0  0  0  0  0  0  0  0  0
  151.9135  145.2087  159.4189 C   0  0  0  0  0  0  0  0  0  0  0  0
  150.6223  144.3745  159.5308 C   0  0  0  0  0  0  0  0  0  0  0  0
  150.8485  143.2629  158.4880 C   0  0  1  0  0  0  0  0  0  0  0  0
  151.5566  144.0413  157.3787 C   0  0  0  0  0  0  0  0  0  0  0  0
  150.1886  141.3416  157.4607 H   0  0  0  0  0  0  0  0  0  0  0  0
  151.4858  138.6907  157.1320 H   0  0  0  0  0  0  0  0  0  0  0  0
  149.7613  138.9385  157.1567 H   0  0  0  0  0  0  0  0  0  0  0  0
  151.3969  140.3473  155.0218 H   0  0  0  0  0  0  0  0  0  0  0  0
  151.0964  138.6405  154.8371 H   0  0  0  0  0  0  0  0  0  0  0  0
  149.3702  141.9733  155.1761 H   0  0  0  0  0  0  0  0  0  0  0  0
  147.0806  142.3652  154.2354 H   0  0  0  0  0  0  0  0  0  0  0  0
  145.8285  140.4171  153.2729 H   0  0  0  0  0  0  0  0  0  0  0  0
  148.9202  137.8089  154.1142 H   0  0  0  0  0  0  0  0  0  0  0  0
  151.7809  142.1056  160.0798 H   0  0  0  0  0  0  0  0  0  0  0  0
  153.7831  143.2661  159.7505 H   0  0  0  0  0  0  0  0  0  0  0  0
  153.9045  142.7015  158.0911 H   0  0  0  0  0  0  0  0  0  0  0  0
  153.4456  145.1116  157.8200 H   0  0  0  0  0  0  0  0  0  0  0  0
  152.4749  145.2340  160.3536 H   0  0  0  0  0  0  0  0  0  0  0  0
  151.6824  146.2370  159.1386 H   0  0  0  0  0  0  0  0  0  0  0  0
  150.4630  143.9822  160.5358 H   0  0  0  0  0  0  0  0  0  0  0  0
  149.7528  144.9788  159.2687 H   0  0  0  0  0  0  0  0  0  0  0  0
  149.9283  142.7659  158.1782 H   0  0  0  0  0  0  0  0  0  0  0  0
  150.9641  144.8696  156.9865 H   0  0  0  0  0  0  0  0  0  0  0  0
  151.8969  143.4284  156.5439 H   0  0  0  0  0  0  0  0  0  0  0  0
  1  2  2  0  0  0  0
  2  3  1  0  0  0  0
  2 12  1  0  0  0  0
  3  4  1  0  0  0  0
  3 19  1  0  0  0  0
  4  5  1  0  0  0  0
  4 20  1  0  0  0  0
  4 21  1  0  0  0  0
  5  6  1  0  0  0  0
  5 22  1  0  0  0  0
  5 23  1  0  0  0  0
  6 11  1  0  0  0  0
  6  7  2  0  0  0  0
  7  8  1  0  0  0  0
  7 24  1  0  0  0  0
  8  9  2  0  0  0  0
  8 25  1  0  0  0  0
  9 10  1  0  0  0  0
  9 26  1  0  0  0  0
 10 11  2  0  0  0  0
 11 27  1  0  0  0  0
 12 17  1  0  0  0  0
 12 13  1  0  0  0  0
 12 28  1  0  0  0  0
 13 14  1  0  0  0  0
 13 29  1  0  0  0  0
 13 30  1  0  0  0  0
 14 18  1  0  0  0  0
 14 15  1  0  0  0  0
 14 31  1  0  0  0  0
 15 16  1  0  0  0  0
 15 32  1  0  0  0  0
 15 33  1  0  0  0  0
 16 17  1  0  0  0  0
 16 34  1  0  0  0  0
 16 35  1  0  0  0  0
 17 18  1  0  0  0  0
 17 36  1  0  0  0  0
 18 37  1  0  0  0  0
 18 38  1  0  0  0  0
M  END
> <s_m_source_file>
AV-unprocessed.smi

> <i_m_source_file_index>
3058

> <i_lp_mmshare_version>
43012

> <i_f3d_flags>
0

> <s_epik_input>
W0NIMl0xW0NIMl1bQ0BIXShbQ0gyXTIpW0NAQEhdKFtDSDJdW0NAQEhdMTIpQyg9TylbTkhdW0NIMl1bQ0gyXWMzW2NIXVtjSF1bY0hdbltjSF0z

> <s_epik_cmdline>
J2VwaWtfcHl0aG9uJywgJy1waCcsICc3LjAnLCAnLXRuJywgJzgnLCAnLW1hJywgJzIwMCcsICctbWV0YWxfYmluZGluZycsICctaW1hZScsICc8aW5maWxlLm1hZT4nLCAnLW9tYWUnLCAnPG91dGZpbGUubWFlPic=

> <r_epik_Ionization_Penalty>
0.0135821

> <r_epik_Ionization_Penalty_Charging>
0

> <r_epik_Ionization_Penalty_Neutral>
0.0135821

> <r_epik_State_Penalty>
0.0105782

> <r_epik_Charging_Adjusted_Penalty>
0.0105782

> <i_epik_Tot_Q>
0

> <i_epik_Tot_abs_Q>
0

> <r_epik_Metal_State_Penalty>
0.0103407

> <b_epik_Metal_Only>
0

> <s_lp_Force_Field>
OPLS_2005

> <r_lp_Energy>
47.0399

> <b_lp_Chiralities_Consistent>
1

> <s_lp_Variant>
AV-unprocessed.smi:3058-4

> <Gold.Version>
5.8.1

> <Gold.Id.Protein>
6NUR|6NUR_protein|mol2

> <Gold.PLP.Fitness>
49.1347

> <Gold.PLP.PLP>
-42.3608

> <Gold.PLP.part.hbond>
-1.0000

> <Gold.PLP.part.metal>
0.0000

> <Gold.PLP.part.buried>
-1.5984

> <Gold.PLP.part.nonpolar>
-40.2137

> <Gold.PLP.part.repulsive>
1.1859

> <Gold.PLP.ligand.clash>
0.0000

> <Gold.PLP.ligand.torsion>
0.7672

> <Gold.PLP.Chemscore.Hbond>
0.9440

> <Gold.PLP.Chemscore.CHOScore>
1.8151

> <Gold.PLP.Chemscore.Metal>
0.0000

> <Gold.Chemscore.Hbonds>
donor molecule, donor type, donor heavy atom, donor atom, acceptor molecule, acceptor atom, score
      P1  H  7997  8008       L1     1  0.71
      L1  C     9    26       P1 10175  1.00
      L1  C    11    27       P1  7948  0.44

> <Gold.PLP.Chemscore.Internal.Correction>
0.0312

> <Gold.Rescore>
     Score         DG    S(hbond)    S(metal)    S(lipo)     H(rot)  DE(clash)    DE(int)     intcor
     19.18     -20.28       0.94        0.00     129.50       1.37       0.33       0.78       ----

> <Gold.Chemscore.Fitness>
19.1767

> <Gold.Chemscore.DG>
-20.2826

> <Gold.Chemscore.ZeroCoef>
-5.4800

> <Gold.Chemscore.Hbond>
0.9421

> <Gold.Chemscore.Metal>
0.0000

> <Gold.Chemscore.Lipo>
129.4971

> <Gold.Chemscore.Internal_Hbond>
0.0000

> <Gold.Chemscore.DEClash>
0.3306

> <Gold.Chemscore.DEInternal>
0.7753

> <Gold.Chemscore.Rot>
1.3653

> <Gold.Chemscore.Internal.Correction>
   9.000000E+99

> <Gold.Chemscore.Hbonds>
donor molecule, donor type, donor heavy atom, donor atom, acceptor molecule, acceptor atom, score
      P1  H  7997  8008       L1     1  0.68

> <Gold.Chemscore.Hbond.Weighted>
-3.1466

> <Gold.Chemscore.Metal.Weighted>
-0.0000

> <Gold.Chemscore.Lipo.Weighted>
-15.1512

> <Gold.Chemscore.Internal_Hbond.Weighted>
0.0000

> <Gold.Chemscore.DEClash.Weighted>
0.3306

> <Gold.Chemscore.DEInternal.Weighted>
0.7753

> <Gold.Chemscore.Rot.Weighted>
3.4951

> <Gold.Chemscore.Internal.Correction.Weighted>
   9.000000E+99

> <Gold.Protein.RotatedTorsions>
[ 6907 6896 6895 6894 ] final   54.43 input  -60.11 | X-H torsion
[ 7974 7965 7964 7962 ] final    9.66 input  175.53 | X-H torsion
[ 8008 7997 7996 7995 ] final  -82.91 input   59.86 | X-H torsion
[ 10167 10162 10161 10158 ] final  117.78 input  -65.29 | X-H torsion
[ 10718 10713 10712 10709 ] final -138.90 input   66.30 | X-H torsion
[ 10763 10752 10751 10750 ] final  156.53 input  -60.55 | X-H torsion
[ 11005 11000 10999 10996 ] final  -74.87 input  -57.11 | X-H torsion

> <Gold.Protein.ActiveResidues>
 VAL166  LYS551  ARG553  GLY616  TRP617  ASP618  TYR619  PRO620  LYS621  CYS622 
 ASP623  PHE694  ASN695  SER759  ASP760  ASP761  ALA762  ILE779  LEU786  VAL792 
 PHE793  MET794  SER795  GLU796  ALA797  LYS798  CYS799  TRP800  GLU811  SER814 

> <Gold.Protein.RotatedAtoms>
  152.3438  134.7098  160.0255 H   0  0  0  0  0  0  0  0  0  0  0  0  # atno 6907 bound_to 6896
  151.7474  133.3320  159.3390 H   0  0  0  0  0  0  0  0  0  0  0  0  # atno 6908 bound_to 6896
  150.7496  134.6156  159.6153 H   0  0  0  0  0  0  0  0  0  0  0  0  # atno 6909 bound_to 6896
  146.2400  139.9750  142.8442 H   0  0  0  0  0  0  0  0  0  0  0  0  # atno 7974 bound_to 7965
  154.6135  140.0626  156.9524 H   0  0  0  0  0  0  0  0  0  0  0  0  # atno 8008 bound_to 7997
  155.1934  140.3309  155.4336 H   0  0  0  0  0  0  0  0  0  0  0  0  # atno 8009 bound_to 7997
  156.2390  140.1877  156.7023 H   0  0  0  0  0  0  0  0  0  0  0  0  # atno 8010 bound_to 7997
  139.6155  144.7091  151.2749 H   0  0  0  0  0  0  0  0  0  0  0  0  # atno 10167 bound_to 10162
  156.3046  130.7448  151.1508 H   0  0  0  0  0  0  0  0  0  0  0  0  # atno 10718 bound_to 10713
  154.1858  135.2797  155.3038 H   0  0  0  0  0  0  0  0  0  0  0  0  # atno 10763 bound_to 10752
  154.5967  135.5542  153.7336 H   0  0  0  0  0  0  0  0  0  0  0  0  # atno 10764 bound_to 10752
  153.0126  135.6382  154.1996 H   0  0  0  0  0  0  0  0  0  0  0  0  # atno 10765 bound_to 10752
  141.1640  133.6926  156.7430 H   0  0  0  0  0  0  0  0  0  0  0  0  # atno 11005 bound_to 11000
  145.1645  140.9690  143.4358 LP  0  0  0  0  0  0  0  0  0  0  0  0  # atno 17320 bound_to 7965
  145.0085  139.3532  143.6132 LP  0  0  0  0  0  0  0  0  0  0  0  0  # atno 17321 bound_to 7965
  140.7348  143.6755  150.8045 LP  0  0  0  0  0  0  0  0  0  0  0  0  # atno 17342 bound_to 10162
  140.0357  143.5397  152.2740 LP  0  0  0  0  0  0  0  0  0  0  0  0  # atno 17343 bound_to 10162
  157.7376  131.0549  150.5343 LP  0  0  0  0  0  0  0  0  0  0  0  0  # atno 17370 bound_to 10713
  156.5475  130.4223  149.6124 LP  0  0  0  0  0  0  0  0  0  0  0  0  # atno 17371 bound_to 10713
  140.2660  134.8429  157.3803 LP  0  0  0  0  0  0  0  0  0  0  0  0  # atno 17394 bound_to 11000
  140.1566  134.4782  155.7923 LP  0  0  0  0  0  0  0  0  0  0  0  0  # atno 17395 bound_to 11000

$$$$
