AV-unprocessed.smi:36|AV-procd|sdf|293|dock2
  -GOLD-   2262016 83D 1   1.00000     0.00000
 Structure written by MMmdl.
 64 67  0  0  0  0  0  0  0  0  1 V2000
  147.4656  135.4286  162.7681 C   0  0  0  0  0  0  0  0  0  0  0  0
  146.2422  135.1329  161.8845 C   0  0  0  0  0  0  0  0  0  0  0  0
  145.1421  134.4611  162.7231 C   0  0  0  0  0  0  0  0  0  0  0  0
  145.7066  136.4412  161.2791 C   0  0  0  0  0  0  0  0  0  0  0  0
  146.7525  133.9567  160.4680 Si  0  0  0  0  0  0  0  0  0  0  0  0
  148.0512  134.7693  159.3425 C   0  0  0  0  0  0  0  0  0  0  0  0
  147.4398  132.3217  161.1501 C   0  0  0  0  0  0  0  0  0  0  0  0
  145.3715  133.6056  159.5520 O   0  0  0  0  0  0  0  0  0  0  0  0
  144.4765  134.5864  159.0659 C   0  0  0  0  0  0  0  0  0  0  0  0
  144.5384  134.6220  157.5250 C   0  0  2  0  0  0  0  0  0  0  0  0
  145.8587  135.0302  157.1582 O   0  0  0  0  0  0  0  0  0  0  0  0
  145.8479  136.3264  156.6342 C   0  0  2  0  0  0  0  0  0  0  0  0
  146.9056  137.1362  157.3079 N   0  0  0  0  0  0  0  0  0  0  0  0
  146.9782  137.4925  158.6053 C   0  0  0  0  0  0  0  0  0  0  0  0
  148.0342  138.2342  158.9325 N   0  0  0  0  0  0  0  0  0  0  0  0
  148.7031  138.3646  157.7196 C   0  0  0  0  0  0  0  0  0  0  0  0
  149.9565  139.0763  157.3868 C   0  0  0  0  0  0  0  0  0  0  0  0
  150.5747  139.6933  158.3479 N   0  0  0  0  0  0  0  0  0  0  0  0
  151.7604  140.3708  158.0924 C   0  0  0  0  0  0  0  0  0  0  0  0
  152.8050  139.9399  157.5959 O   0  0  0  0  0  0  0  0  0  0  0  0
  151.6945  141.8264  158.4247 C   0  0  0  0  0  0  0  0  0  0  0  0
  152.8519  142.5092  158.8562 C   0  0  0  0  0  0  0  0  0  0  0  0
  152.7874  143.8808  159.1702 C   0  0  0  0  0  0  0  0  0  0  0  0
  151.5672  144.5741  159.0532 C   0  0  0  0  0  0  0  0  0  0  0  0
  150.4101  143.8952  158.6245 C   0  0  0  0  0  0  0  0  0  0  0  0
  150.4726  142.5232  158.3119 C   0  0  0  0  0  0  0  0  0  0  0  0
  150.2371  138.9310  156.0216 N   0  0  0  0  0  0  0  0  0  0  0  0
  149.4606  138.2224  155.0916 C   0  0  0  0  0  0  0  0  0  0  0  0
  148.3530  137.5888  155.3716 N   0  0  0  0  0  0  0  0  0  0  0  0
  148.0300  137.7014  156.7164 C   0  0  0  0  0  0  0  0  0  0  0  0
  144.4706  136.9149  156.9206 C   0  0  0  0  0  0  0  0  0  0  0  0
  143.6264  135.6639  156.8559 C   0  0  2  0  0  0  0  0  0  0  0  0
  142.3702  135.8387  157.4797 O   0  0  0  0  0  0  0  0  0  0  0  0
  147.2075  136.0970  163.5902 H   0  0  0  0  0  0  0  0  0  0  0  0
  148.2630  135.9043  162.1968 H   0  0  0  0  0  0  0  0  0  0  0  0
  147.8725  134.5153  163.2033 H   0  0  0  0  0  0  0  0  0  0  0  0
  145.4939  133.5299  163.1676 H   0  0  0  0  0  0  0  0  0  0  0  0
  144.2683  134.2258  162.1145 H   0  0  0  0  0  0  0  0  0  0  0  0
  144.8125  135.1082  163.5368 H   0  0  0  0  0  0  0  0  0  0  0  0
  145.3844  137.1352  162.0562 H   0  0  0  0  0  0  0  0  0  0  0  0
  144.8518  136.2552  160.6278 H   0  0  0  0  0  0  0  0  0  0  0  0
  146.4684  136.9464  160.6848 H   0  0  0  0  0  0  0  0  0  0  0  0
  148.9616  135.0087  159.8915 H   0  0  0  0  0  0  0  0  0  0  0  0
  147.6818  135.6972  158.9066 H   0  0  0  0  0  0  0  0  0  0  0  0
  148.3330  134.1133  158.5192 H   0  0  0  0  0  0  0  0  0  0  0  0
  148.3252  132.4840  161.7641 H   0  0  0  0  0  0  0  0  0  0  0  0
  147.7236  131.6418  160.3470 H   0  0  0  0  0  0  0  0  0  0  0  0
  146.7054  131.8046  161.7670 H   0  0  0  0  0  0  0  0  0  0  0  0
  143.4722  134.3391  159.4101 H   0  0  0  0  0  0  0  0  0  0  0  0
  144.7287  135.5548  159.4978 H   0  0  0  0  0  0  0  0  0  0  0  0
  144.3273  133.6316  157.1226 H   0  0  0  0  0  0  0  0  0  0  0  0
  146.1118  136.3127  155.5759 H   0  0  0  0  0  0  0  0  0  0  0  0
  146.2349  137.2028  159.3334 H   0  0  0  0  0  0  0  0  0  0  0  0
  153.7916  141.9840  158.9486 H   0  0  0  0  0  0  0  0  0  0  0  0
  153.6741  144.4010  159.5009 H   0  0  0  0  0  0  0  0  0  0  0  0
  151.5187  145.6257  159.2937 H   0  0  0  0  0  0  0  0  0  0  0  0
  149.4744  144.4271  158.5348 H   0  0  0  0  0  0  0  0  0  0  0  0
  149.5802  142.0095  157.9841 H   0  0  0  0  0  0  0  0  0  0  0  0
  149.8613  138.2367  154.0772 H   0  0  0  0  0  0  0  0  0  0  0  0
  144.4527  137.3541  157.9198 H   0  0  0  0  0  0  0  0  0  0  0  0
  144.2020  137.6745  156.1858 H   0  0  0  0  0  0  0  0  0  0  0  0
  143.4665  135.3906  155.8117 H   0  0  0  0  0  0  0  0  0  0  0  0
  141.8238  135.0974  157.2673 H   0  0  0  0  0  0  0  0  0  0  0  0
  151.0742  139.3782  155.6765 H   0  0  0  0  0  0  0  0  0  0  0  0
  1  2  1  0  0  0  0
  1 34  1  0  0  0  0
  1 35  1  0  0  0  0
  1 36  1  0  0  0  0
  2  3  1  0  0  0  0
  2  4  1  0  0  0  0
  2  5  1  0  0  0  0
  3 37  1  0  0  0  0
  3 38  1  0  0  0  0
  3 39  1  0  0  0  0
  4 40  1  0  0  0  0
  4 41  1  0  0  0  0
  4 42  1  0  0  0  0
  5  6  1  0  0  0  0
  5  7  1  0  0  0  0
  5  8  1  0  0  0  0
  6 43  1  0  0  0  0
  6 44  1  0  0  0  0
  6 45  1  0  0  0  0
  7 46  1  0  0  0  0
  7 47  1  0  0  0  0
  7 48  1  0  0  0  0
  8  9  1  0  0  0  0
  9 10  1  0  0  0  0
  9 49  1  0  0  0  0
  9 50  1  0  0  0  0
 10 32  1  0  0  0  0
 10 11  1  0  0  0  0
 10 51  1  0  0  0  0
 11 12  1  0  0  0  0
 12 13  1  0  0  0  0
 12 31  1  0  0  0  0
 12 52  1  0  0  0  0
 13 30  1  0  0  0  0
 13 14  1  0  0  0  0
 14 15  2  0  0  0  0
 14 53  1  0  0  0  0
 15 16  1  0  0  0  0
 16 30  2  0  0  0  0
 16 17  1  0  0  0  0
 17 18  2  0  0  0  0
 17 27  1  0  0  0  0
 18 19  1  0  0  0  0
 19 20  2  0  0  0  0
 19 21  1  0  0  0  0
 21 26  1  0  0  0  0
 21 22  2  0  0  0  0
 22 23  1  0  0  0  0
 22 54  1  0  0  0  0
 23 24  2  0  0  0  0
 23 55  1  0  0  0  0
 24 25  1  0  0  0  0
 24 56  1  0  0  0  0
 25 26  2  0  0  0  0
 25 57  1  0  0  0  0
 26 58  1  0  0  0  0
 27 28  1  0  0  0  0
 27 64  1  0  0  0  0
 28 29  2  0  0  0  0
 28 59  1  0  0  0  0
 29 30  1  0  0  0  0
 31 32  1  0  0  0  0
 31 60  1  0  0  0  0
 31 61  1  0  0  0  0
 32 33  1  0  0  0  0
 32 62  1  0  0  0  0
 33 63  1  0  0  0  0
M  END
> <s_m_source_file>
AV-unprocessed.smi

> <i_m_source_file_index>
36

> <i_lp_mmshare_version>
43012

> <i_f3d_flags>
0

> <s_epik_input>
W0NIM11DKFtDSDNdKShbQ0gzXSlbU2ldKFtDSDNdKShbQ0gzXSlPW0NIMl1bQ0BASF0xT1tDQEhdKFtDSDJdW0NASF0xW09IXSluKFtjSF1uMiljKGMyMyluW2NIXW5jM1tOSF1DKD1PKWM0W2NIXVtjSF1bY0hdW2NIXVtjSF00

> <s_epik_cmdline>
J2VwaWtfcHl0aG9uJywgJy1waCcsICc3LjAnLCAnLXRuJywgJzgnLCAnLW1hJywgJzIwMCcsICctbWV0YWxfYmluZGluZycsICctaW1hZScsICc8aW5maWxlLm1hZT4nLCAnLW9tYWUnLCAnPG91dGZpbGUubWFlPic=

> <r_epik_Ionization_Penalty>
0.0850405

> <r_epik_Ionization_Penalty_Charging>
0.0850403

> <r_epik_Ionization_Penalty_Neutral>
1.47497e-07

> <r_epik_State_Penalty>
2.6133

> <r_epik_Charging_Adjusted_Penalty>
2.69834

> <i_epik_Tot_Q>
0

> <i_epik_Tot_abs_Q>
0

> <r_epik_Metal_State_Penalty>
2.92945

> <b_epik_Metal_Only>
0

> <s_epik_Chemistry_Notes>
This compound contains an acetal/aminal-like group ( X-CH(R)-Y where X, Y are N, S, or O) that may be acid/base labile, releasing an aldehyde.

> <s_lp_Force_Field>
OPLS_2005

> <r_lp_Energy>
48.5801

> <b_lp_Chiralities_Consistent>
1

> <s_lp_Variant>
AV-unprocessed.smi:36-15

> <Gold.Version>
5.8.1

> <Gold.Id.Protein>
6NUR|6NUR_protein|mol2

> <Gold.PLP.Fitness>
45.0676

> <Gold.PLP.PLP>
-41.3069

> <Gold.PLP.part.hbond>
-3.0000

> <Gold.PLP.part.metal>
0.0000

> <Gold.PLP.part.buried>
-5.9750

> <Gold.PLP.part.nonpolar>
-32.7486

> <Gold.PLP.part.repulsive>
0.0798

> <Gold.PLP.ligand.clash>
0.0000

> <Gold.PLP.ligand.torsion>
1.4957

> <Gold.PLP.Chemscore.Hbond>
2.1087

> <Gold.PLP.Chemscore.CHOScore>
0.0000

> <Gold.PLP.Chemscore.Metal>
0.0000

> <Gold.Chemscore.Hbonds>
donor molecule, donor type, donor heavy atom, donor atom, acceptor molecule, acceptor atom, score
      L1  H    33    63       P1 11000  1.00
      P1  H  6934  6947       L1    15  0.07
      P1  H  7997  8009       L1    20  1.00

> <Gold.PLP.Chemscore.Internal.Correction>
0.4259

> <Gold.Rescore>
     Score         DG    S(hbond)    S(metal)    S(lipo)     H(rot)  DE(clash)    DE(int)     intcor
     15.94     -17.69       1.87        0.00     110.11       2.70       0.15       1.61       ----

> <Gold.Chemscore.Fitness>
15.9357

> <Gold.Chemscore.DG>
-17.6947

> <Gold.Chemscore.ZeroCoef>
-5.4800

> <Gold.Chemscore.Hbond>
1.8725

> <Gold.Chemscore.Metal>
0.0000

> <Gold.Chemscore.Lipo>
110.1106

> <Gold.Chemscore.Internal_Hbond>
0.0000

> <Gold.Chemscore.DEClash>
0.1530

> <Gold.Chemscore.DEInternal>
1.6060

> <Gold.Chemscore.Rot>
2.7041

> <Gold.Chemscore.Internal.Correction>
   9.000000E+99

> <Gold.Chemscore.Hbonds>
donor molecule, donor type, donor heavy atom, donor atom, acceptor molecule, acceptor atom, score
      L1  H    33    63       P1 11000  0.35
      P1  H  6934  6947       L1    15  0.01
      P1  H  7997  8009       L1    20  0.95

> <Gold.Chemscore.Hbond.Weighted>
-6.2543

> <Gold.Chemscore.Metal.Weighted>
-0.0000

> <Gold.Chemscore.Lipo.Weighted>
-12.8829

> <Gold.Chemscore.Internal_Hbond.Weighted>
0.0000

> <Gold.Chemscore.DEClash.Weighted>
0.1530

> <Gold.Chemscore.DEInternal.Weighted>
1.6060

> <Gold.Chemscore.Rot.Weighted>
6.9225

> <Gold.Chemscore.Internal.Correction.Weighted>
   9.000000E+99

> <Gold.Protein.RotatedTorsions>
[ 6907 6896 6895 6894 ] final  125.70 input  -60.11 | X-H torsion
[ 7974 7965 7964 7962 ] final   41.22 input  175.53 | X-H torsion
[ 8008 7997 7996 7995 ] final  157.05 input   59.86 | X-H torsion
[ 10167 10162 10161 10158 ] final -121.38 input  -65.29 | X-H torsion
[ 10718 10713 10712 10709 ] final -150.09 input   66.30 | X-H torsion
[ 10763 10752 10751 10750 ] final   96.23 input  -60.55 | X-H torsion
[ 11005 11000 10999 10996 ] final   30.08 input  -57.11 | X-H torsion

> <Gold.Protein.ActiveResidues>
 VAL166  LYS551  ARG553  GLY616  TRP617  ASP618  TYR619  PRO620  LYS621  CYS622 
 ASP623  PHE694  ASN695  SER759  ASP760  ASP761  ALA762  ILE779  LEU786  VAL792 
 PHE793  MET794  SER795  GLU796  ALA797  LYS798  CYS799  TRP800  GLU811  SER814 

> <Gold.Protein.RotatedAtoms>
  152.3969  133.6759  159.6283 H   0  0  0  0  0  0  0  0  0  0  0  0  # atno 6907 bound_to 6896
  150.7866  133.8859  159.3308 H   0  0  0  0  0  0  0  0  0  0  0  0  # atno 6908 bound_to 6896
  151.6633  135.0988  160.0235 H   0  0  0  0  0  0  0  0  0  0  0  0  # atno 6909 bound_to 6896
  146.0841  139.5441  142.9518 H   0  0  0  0  0  0  0  0  0  0  0  0  # atno 7974 bound_to 7965
  156.2387  140.1896  156.7048 H   0  0  0  0  0  0  0  0  0  0  0  0  # atno 8008 bound_to 7997
  154.6155  140.0616  156.9576 H   0  0  0  0  0  0  0  0  0  0  0  0  # atno 8009 bound_to 7997
  155.1946  140.3287  155.4355 H   0  0  0  0  0  0  0  0  0  0  0  0  # atno 8010 bound_to 7997
  140.0256  143.5300  152.2200 H   0  0  0  0  0  0  0  0  0  0  0  0  # atno 10167 bound_to 10162
  156.4416  130.8124  151.2354 H   0  0  0  0  0  0  0  0  0  0  0  0  # atno 10718 bound_to 10713
  153.2625  135.4226  155.0908 H   0  0  0  0  0  0  0  0  0  0  0  0  # atno 10763 bound_to 10752
  154.8425  135.3452  154.6357 H   0  0  0  0  0  0  0  0  0  0  0  0  # atno 10764 bound_to 10752
  153.6777  135.7040  153.5184 H   0  0  0  0  0  0  0  0  0  0  0  0  # atno 10765 bound_to 10752
  140.2982  134.2787  155.7760 H   0  0  0  0  0  0  0  0  0  0  0  0  # atno 11005 bound_to 11000
  145.6162  141.0331  143.1940 LP  0  0  0  0  0  0  0  0  0  0  0  0  # atno 17320 bound_to 7965
  144.7314  139.7715  143.7346 LP  0  0  0  0  0  0  0  0  0  0  0  0  # atno 17321 bound_to 7965
  139.6110  144.7608  151.2952 LP  0  0  0  0  0  0  0  0  0  0  0  0  # atno 17342 bound_to 10162
  140.7324  143.6825  150.7989 LP  0  0  0  0  0  0  0  0  0  0  0  0  # atno 17343 bound_to 10162
  157.7506  131.0166  150.3552 LP  0  0  0  0  0  0  0  0  0  0  0  0  # atno 17370 bound_to 10713
  156.3911  130.3898  149.7029 LP  0  0  0  0  0  0  0  0  0  0  0  0  # atno 17371 bound_to 10713
  141.2133  133.7629  156.9727 LP  0  0  0  0  0  0  0  0  0  0  0  0  # atno 17394 bound_to 11000
  140.1133  134.9463  157.2098 LP  0  0  0  0  0  0  0  0  0  0  0  0  # atno 17395 bound_to 11000

$$$$
