AV-unprocessed.smi:1978|AV-procd|sdf|7994|dock2
  -GOLD-   2272010173D 1   1.00000     0.00000
 Structure written by MMmdl.
 45 46  0  0  0  0  0  0  0  0  2 V2000
  150.2087  131.6185  154.5685 C   0  0  0  0  0  0  0  0  0  0  0  0
  150.4350  132.8808  155.3270 C   0  0  0  0  0  0  0  0  0  0  0  0
  150.1983  134.1952  155.0370 C   0  0  0  0  0  0  0  0  0  0  0  0
  150.6565  134.8666  156.2013 C   0  0  0  0  0  0  0  0  0  0  0  0
  150.5837  136.2793  156.3027 N   0  0  0  0  0  0  0  0  0  0  0  0
  150.7908  137.0315  157.3964 C   0  0  0  0  0  0  0  0  0  0  0  0
  151.0915  136.6000  158.5098 O   0  0  0  0  0  0  0  0  0  0  0  0
  150.6291  138.3361  157.1315 N   0  0  0  0  0  0  0  0  0  0  0  0
  150.7962  139.4078  158.1077 C   0  0  0  0  0  0  0  0  0  0  0  0
  152.2677  139.8829  158.2228 C   0  0  2  0  0  0  0  0  0  0  0  0
  153.0940  139.0180  159.1970 C   0  0  0  0  0  0  0  0  0  0  0  0
  152.3885  141.3423  158.5416 N   0  3  2  0  0  0  0  0  0  0  0  0
  152.6786  141.6246  159.9781 C   0  0  0  0  0  0  0  0  0  0  0  0
  153.0666  143.0944  160.1933 C   0  0  0  0  0  0  0  0  0  0  0  0
  151.9578  144.0226  159.6934 C   0  0  0  0  0  0  0  0  0  0  0  0
  151.6435  143.7058  158.2278 C   0  0  0  0  0  0  0  0  0  0  0  0
  151.2832  142.2178  158.0252 C   0  0  1  0  0  0  0  0  0  0  0  0
  150.9448  141.9801  156.5395 C   0  0  0  0  0  0  0  0  0  0  0  0
  151.1275  134.0376  157.1202 N   0  0  0  0  0  0  0  0  0  0  0  0
  150.9877  132.7604  156.5646 O   0  0  0  0  0  0  0  0  0  0  0  0
  149.7338  131.8212  153.6084 H   0  0  0  0  0  0  0  0  0  0  0  0
  149.5633  130.9413  155.1281 H   0  0  0  0  0  0  0  0  0  0  0  0
  151.1526  131.1075  154.3780 H   0  0  0  0  0  0  0  0  0  0  0  0
  149.7695  134.6061  154.1351 H   0  0  0  0  0  0  0  0  0  0  0  0
  150.3536  136.7678  155.4502 H   0  0  0  0  0  0  0  0  0  0  0  0
  150.3829  138.6072  156.1905 H   0  0  0  0  0  0  0  0  0  0  0  0
  150.1351  140.2323  157.8387 H   0  0  0  0  0  0  0  0  0  0  0  0
  150.4405  139.0287  159.0656 H   0  0  0  0  0  0  0  0  0  0  0  0
  152.7535  139.7212  157.2628 H   0  0  0  0  0  0  0  0  0  0  0  0
  153.2076  138.0021  158.8181 H   0  0  0  0  0  0  0  0  0  0  0  0
  152.6290  138.9387  160.1793 H   0  0  0  0  0  0  0  0  0  0  0  0
  154.0977  139.4233  159.3293 H   0  0  0  0  0  0  0  0  0  0  0  0
  151.8064  141.3849  160.5874 H   0  0  0  0  0  0  0  0  0  0  0  0
  153.4967  141.0064  160.3426 H   0  0  0  0  0  0  0  0  0  0  0  0
  153.2576  143.2789  161.2508 H   0  0  0  0  0  0  0  0  0  0  0  0
  153.9971  143.3118  159.6670 H   0  0  0  0  0  0  0  0  0  0  0  0
  151.0619  143.8931  160.3021 H   0  0  0  0  0  0  0  0  0  0  0  0
  152.2608  145.0647  159.7988 H   0  0  0  0  0  0  0  0  0  0  0  0
  150.8223  144.3406  157.8926 H   0  0  0  0  0  0  0  0  0  0  0  0
  152.5038  143.9642  157.6085 H   0  0  0  0  0  0  0  0  0  0  0  0
  150.3838  142.0131  158.6074 H   0  0  0  0  0  0  0  0  0  0  0  0
  150.2417  142.7298  156.1757 H   0  0  0  0  0  0  0  0  0  0  0  0
  150.4675  141.0141  156.3761 H   0  0  0  0  0  0  0  0  0  0  0  0
  151.8357  142.0342  155.9127 H   0  0  0  0  0  0  0  0  0  0  0  0
  153.2110  141.6420  158.0377 H   0  0  0  0  0  0  0  0  0  0  0  0
  1  2  1  0  0  0  0
  1 21  1  0  0  0  0
  1 22  1  0  0  0  0
  1 23  1  0  0  0  0
  2 20  1  0  0  0  0
  2  3  2  0  0  0  0
  3  4  1  0  0  0  0
  3 24  1  0  0  0  0
  4  5  1  0  0  0  0
  4 19  2  0  0  0  0
  5  6  1  0  0  0  0
  5 25  1  0  0  0  0
  6  7  2  0  0  0  0
  6  8  1  0  0  0  0
  8  9  1  0  0  0  0
  8 26  1  0  0  0  0
  9 10  1  0  0  0  0
  9 27  1  0  0  0  0
  9 28  1  0  0  0  0
 10 11  1  0  0  0  0
 10 12  1  0  0  0  0
 10 29  1  0  0  0  0
 11 30  1  0  0  0  0
 11 31  1  0  0  0  0
 11 32  1  0  0  0  0
 12 17  1  0  0  0  0
 12 13  1  0  0  0  0
 12 45  1  0  0  0  0
 13 14  1  0  0  0  0
 13 33  1  0  0  0  0
 13 34  1  0  0  0  0
 14 15  1  0  0  0  0
 14 35  1  0  0  0  0
 14 36  1  0  0  0  0
 15 16  1  0  0  0  0
 15 37  1  0  0  0  0
 15 38  1  0  0  0  0
 16 17  1  0  0  0  0
 16 39  1  0  0  0  0
 16 40  1  0  0  0  0
 17 18  1  0  0  0  0
 17 41  1  0  0  0  0
 18 42  1  0  0  0  0
 18 43  1  0  0  0  0
 18 44  1  0  0  0  0
 19 20  1  0  0  0  0
M  CHG  1  12   1
M  END
> <s_m_source_file>
AV-unprocessed.smi

> <i_m_source_file_index>
1978

> <i_lp_mmshare_version>
43012

> <i_f3d_flags>
0

> <s_epik_input>
W0NIM11jMVtjSF1jKG5vMSlbTkhdQyg9TylbTkhdW0NIMl1bQ0BIXShbQ0gzXSlOMltDSDJdW0NIMl1bQ0gyXVtDSDJdW0NASF0yW0NIM10=

> <s_epik_cmdline>
J2VwaWtfcHl0aG9uJywgJy1waCcsICc3LjAnLCAnLXRuJywgJzgnLCAnLW1hJywgJzIwMCcsICctbWV0YWxfYmluZGluZycsICctaW1hZScsICc8aW5maWxlLm1hZT4nLCAnLW9tYWUnLCAnPG91dGZpbGUubWFlPic=

> <r_epik_Ionization_Penalty>
0.00265971

> <r_epik_Ionization_Penalty_Charging>
0.00262393

> <r_epik_Ionization_Penalty_Neutral>
3.57846e-05

> <r_epik_State_Penalty>
0.00182566

> <r_epik_Charging_Adjusted_Penalty>
0.00444959

> <i_epik_Tot_Q>
1

> <i_epik_Tot_abs_Q>
1

> <r_epik_Metal_State_Penalty>
0.0216344

> <b_epik_Metal_Only>
0

> <s_lp_Force_Field>
OPLS_2005

> <r_lp_Energy>
19.2971

> <b_lp_Chiralities_Consistent>
1

> <s_lp_Variant>
AV-unprocessed.smi:1978-3

> <Gold.Version>
5.8.1

> <Gold.Id.Protein>
6NUR|6NUR_protein|mol2

> <Gold.PLP.Fitness>
36.7860

> <Gold.PLP.PLP>
-35.0264

> <Gold.PLP.part.hbond>
-2.0000

> <Gold.PLP.part.metal>
0.0000

> <Gold.PLP.part.buried>
-5.7174

> <Gold.PLP.part.nonpolar>
-28.3682

> <Gold.PLP.part.repulsive>
0.1721

> <Gold.PLP.ligand.clash>
0.0000

> <Gold.PLP.ligand.torsion>
1.3470

> <Gold.PLP.Chemscore.Hbond>
1.4400

> <Gold.PLP.Chemscore.CHOScore>
0.0000

> <Gold.PLP.Chemscore.Metal>
0.0000

> <Gold.Chemscore.Hbonds>
donor molecule, donor type, donor heavy atom, donor atom, acceptor molecule, acceptor atom, score
      P1  H  6896  6907       L1    19  0.35
      P1  H  6896  6908       L1     7  0.80

> <Gold.PLP.Chemscore.Internal.Correction>
0.1336

> <Gold.Rescore>
     Score         DG    S(hbond)    S(metal)    S(lipo)     H(rot)  DE(clash)    DE(int)     intcor
     13.27     -16.73       1.55        0.00      85.84       1.55       0.00       3.45       ----

> <Gold.Chemscore.Fitness>
13.2745

> <Gold.Chemscore.DG>
-16.7275

> <Gold.Chemscore.ZeroCoef>
-5.4800

> <Gold.Chemscore.Hbond>
1.5464

> <Gold.Chemscore.Metal>
0.0000

> <Gold.Chemscore.Lipo>
85.8439

> <Gold.Chemscore.Internal_Hbond>
0.0000

> <Gold.Chemscore.DEClash>
0.0000

> <Gold.Chemscore.DEInternal>
3.4530

> <Gold.Chemscore.Rot>
1.5474

> <Gold.Chemscore.Internal.Correction>
   9.000000E+99

> <Gold.Chemscore.Hbonds>
donor molecule, donor type, donor heavy atom, donor atom, acceptor molecule, acceptor atom, score
      P1  H  6896  6907       L1    19  0.09
      P1  H  6896  6908       L1     7  0.76

> <Gold.Chemscore.Hbond.Weighted>
-5.1650

> <Gold.Chemscore.Metal.Weighted>
-0.0000

> <Gold.Chemscore.Lipo.Weighted>
-10.0437

> <Gold.Chemscore.Internal_Hbond.Weighted>
0.0000

> <Gold.Chemscore.DEClash.Weighted>
0.0000

> <Gold.Chemscore.DEInternal.Weighted>
3.4530

> <Gold.Chemscore.Rot.Weighted>
3.9612

> <Gold.Chemscore.Internal.Correction.Weighted>
   9.000000E+99

> <Gold.Protein.RotatedTorsions>
[ 6907 6896 6895 6894 ] final -140.94 input  -60.11 | X-H torsion
[ 7974 7965 7964 7962 ] final   -3.91 input  175.53 | X-H torsion
[ 8008 7997 7996 7995 ] final  113.03 input   59.86 | X-H torsion
[ 10167 10162 10161 10158 ] final  -58.51 input  -65.29 | X-H torsion
[ 10718 10713 10712 10709 ] final  113.87 input   66.30 | X-H torsion
[ 10763 10752 10751 10750 ] final   65.61 input  -60.55 | X-H torsion
[ 11005 11000 10999 10996 ] final  102.43 input  -57.11 | X-H torsion

> <Gold.Protein.ActiveResidues>
 VAL166  LYS551  ARG553  GLY616  TRP617  ASP618  TYR619  PRO620  LYS621  CYS622 
 ASP623  PHE694  ASN695  SER759  ASP760  ASP761  ALA762  ILE779  LEU786  VAL792 
 PHE793  MET794  SER795  GLU796  ALA797  LYS798  CYS799  TRP800  GLU811  SER814 

> <Gold.Protein.RotatedAtoms>
  151.0672  133.5495  159.2629 H   0  0  0  0  0  0  0  0  0  0  0  0  # atno 6907 bound_to 6896
  151.2448  135.0601  159.9049 H   0  0  0  0  0  0  0  0  0  0  0  0  # atno 6908 bound_to 6896
  152.5406  134.0441  159.8134 H   0  0  0  0  0  0  0  0  0  0  0  0  # atno 6909 bound_to 6896
  146.2381  140.1792  142.8332 H   0  0  0  0  0  0  0  0  0  0  0  0  # atno 7974 bound_to 7965
  156.2232  140.2987  156.0002 H   0  0  0  0  0  0  0  0  0  0  0  0  # atno 8008 bound_to 7997
  155.2427  140.0423  157.2994 H   0  0  0  0  0  0  0  0  0  0  0  0  # atno 8009 bound_to 7997
  154.5873  140.2392  155.7978 H   0  0  0  0  0  0  0  0  0  0  0  0  # atno 8010 bound_to 7997
  140.6193  143.2413  151.5520 H   0  0  0  0  0  0  0  0  0  0  0  0  # atno 10167 bound_to 10162
  157.6313  131.0990  150.7104 H   0  0  0  0  0  0  0  0  0  0  0  0  # atno 10718 bound_to 10713
  153.0104  135.5350  154.6694 H   0  0  0  0  0  0  0  0  0  0  0  0  # atno 10763 bound_to 10752
  154.5882  135.2856  155.0665 H   0  0  0  0  0  0  0  0  0  0  0  0  # atno 10764 bound_to 10752
  154.1768  135.6523  153.5076 H   0  0  0  0  0  0  0  0  0  0  0  0  # atno 10765 bound_to 10752
  139.8777  134.9223  156.5057 H   0  0  0  0  0  0  0  0  0  0  0  0  # atno 11005 bound_to 11000
  144.9948  140.8580  143.5317 LP  0  0  0  0  0  0  0  0  0  0  0  0  # atno 17320 bound_to 7965
  145.1803  139.2355  143.5296 LP  0  0  0  0  0  0  0  0  0  0  0  0  # atno 17321 bound_to 7965
  139.5425  144.2610  152.1378 LP  0  0  0  0  0  0  0  0  0  0  0  0  # atno 17342 bound_to 10162
  140.1826  144.4829  150.6520 LP  0  0  0  0  0  0  0  0  0  0  0  0  # atno 17343 bound_to 10162
  156.7443  130.4748  149.5470 LP  0  0  0  0  0  0  0  0  0  0  0  0  # atno 17370 bound_to 10713
  156.1520  130.6316  151.0607 LP  0  0  0  0  0  0  0  0  0  0  0  0  # atno 17371 bound_to 10713
  140.8557  133.8098  155.9213 LP  0  0  0  0  0  0  0  0  0  0  0  0  # atno 17394 bound_to 11000
  140.9100  134.2272  157.4991 LP  0  0  0  0  0  0  0  0  0  0  0  0  # atno 17395 bound_to 11000

$$$$
