AV-unprocessed.smi:1428|AV-procd|sdf|5817|dock5
  -GOLD-   22720 5473D 1   1.00000     0.00000
 Structure written by MMmdl.
 43 44  0  0  0  0  0  0  0  0  3 V2000
  154.2516  140.6352  161.2214 C   0  0  0  0  0  0  0  0  0  0  0  0
  153.3307  140.7151  160.1389 O   0  0  0  0  0  0  0  0  0  0  0  0
  152.5271  141.8350  160.0382 C   0  0  0  0  0  0  0  0  0  0  0  0
  152.6122  142.7797  161.0083 N   0  0  0  0  0  0  0  0  0  0  0  0
  151.8304  143.8742  160.9100 C   0  0  0  0  0  0  0  0  0  0  0  0
  150.9343  144.0874  159.8467 C   0  0  0  0  0  0  0  0  0  0  0  0
  150.8442  143.1096  158.8390 C   0  0  0  0  0  0  0  0  0  0  0  0
  151.6481  141.9476  158.9357 C   0  0  0  0  0  0  0  0  0  0  0  0
  151.6499  140.9061  157.9670 N   0  0  0  0  0  0  0  0  0  0  0  0
  151.2261  140.9458  156.6926 C   0  0  0  0  0  0  0  0  0  0  0  0
  150.7584  141.9334  156.1267 O   0  0  0  0  0  0  0  0  0  0  0  0
  151.3557  139.7487  156.1029 N   0  0  0  0  0  0  0  0  0  0  0  0
  150.9806  139.4397  154.7234 C   0  0  2  0  0  0  0  0  0  0  0  0
  149.4505  139.3797  154.5429 C   0  0  0  0  0  0  0  0  0  0  0  0
  148.8371  138.1476  155.2308 C   0  0  0  0  0  0  0  0  0  0  0  0
  149.4673  136.8943  154.7449 N   0  3  2  0  0  0  0  0  0  0  0  0
  148.7963  135.6828  155.2793 C   0  0  0  0  0  0  0  0  0  0  0  0
  149.4427  134.4175  154.7039 C   0  0  0  0  0  0  0  0  0  0  0  0
  148.7998  133.9620  153.6120 N   0  5  0  0  0  0  0  0  0  0  0  0
  150.4309  133.9351  155.2543 O   0  0  0  0  0  0  0  0  0  0  0  0
  150.9381  136.8979  154.9697 C   0  0  0  0  0  0  0  0  0  0  0  0
  151.6047  138.1040  154.2825 C   0  0  0  0  0  0  0  0  0  0  0  0
  154.8011  139.6959  161.1595 H   0  0  0  0  0  0  0  0  0  0  0  0
  153.7381  140.6543  162.1838 H   0  0  0  0  0  0  0  0  0  0  0  0
  154.9795  141.4471  161.1872 H   0  0  0  0  0  0  0  0  0  0  0  0
  151.9267  144.6049  161.6995 H   0  0  0  0  0  0  0  0  0  0  0  0
  150.3331  144.9836  159.8024 H   0  0  0  0  0  0  0  0  0  0  0  0
  150.1746  143.2776  158.0100 H   0  0  0  0  0  0  0  0  0  0  0  0
  151.9373  140.0016  158.3116 H   0  0  0  0  0  0  0  0  0  0  0  0
  151.7518  138.9955  156.6463 H   0  0  0  0  0  0  0  0  0  0  0  0
  151.3806  140.2283  154.0836 H   0  0  0  0  0  0  0  0  0  0  0  0
  148.9805  140.2897  154.9172 H   0  0  0  0  0  0  0  0  0  0  0  0
  149.2197  139.3413  153.4776 H   0  0  0  0  0  0  0  0  0  0  0  0
  148.9507  138.2187  156.3137 H   0  0  0  0  0  0  0  0  0  0  0  0
  147.7660  138.1240  155.0267 H   0  0  0  0  0  0  0  0  0  0  0  0
  148.7974  135.7012  156.3715 H   0  0  0  0  0  0  0  0  0  0  0  0
  147.7506  135.6690  154.9689 H   0  0  0  0  0  0  0  0  0  0  0  0
  148.5966  134.6149  152.8457 H   0  0  0  0  0  0  0  0  0  0  0  0
  151.1430  136.9109  156.0412 H   0  0  0  0  0  0  0  0  0  0  0  0
  151.3813  135.9811  154.5795 H   0  0  0  0  0  0  0  0  0  0  0  0
  151.4970  137.9990  153.2020 H   0  0  0  0  0  0  0  0  0  0  0  0
  152.6774  138.1033  154.4805 H   0  0  0  0  0  0  0  0  0  0  0  0
  149.3218  136.8696  153.7454 H   0  0  0  0  0  0  0  0  0  0  0  0
  1  2  1  0  0  0  0
  1 23  1  0  0  0  0
  1 24  1  0  0  0  0
  1 25  1  0  0  0  0
  2  3  1  0  0  0  0
  3  8  1  0  0  0  0
  3  4  2  0  0  0  0
  4  5  1  0  0  0  0
  5  6  2  0  0  0  0
  5 26  1  0  0  0  0
  6  7  1  0  0  0  0
  6 27  1  0  0  0  0
  7  8  2  0  0  0  0
  7 28  1  0  0  0  0
  8  9  1  0  0  0  0
  9 10  1  0  0  0  0
  9 29  1  0  0  0  0
 10 11  2  0  0  0  0
 10 12  1  0  0  0  0
 12 13  1  0  0  0  0
 12 30  1  0  0  0  0
 13 22  1  0  0  0  0
 13 14  1  0  0  0  0
 13 31  1  0  0  0  0
 14 15  1  0  0  0  0
 14 32  1  0  0  0  0
 14 33  1  0  0  0  0
 15 16  1  0  0  0  0
 15 34  1  0  0  0  0
 15 35  1  0  0  0  0
 16 17  1  0  0  0  0
 16 21  1  0  0  0  0
 16 43  1  0  0  0  0
 17 18  1  0  0  0  0
 17 36  1  0  0  0  0
 17 37  1  0  0  0  0
 18 19  1  0  0  0  0
 18 20  2  0  0  0  0
 19 38  1  0  0  0  0
 21 22  1  0  0  0  0
 21 39  1  0  0  0  0
 21 40  1  0  0  0  0
 22 41  1  0  0  0  0
 22 42  1  0  0  0  0
M  CHG  1  16   1
M  CHG  1  19  -1
M  END
> <s_m_source_file>
AV-unprocessed.smi

> <i_m_source_file_index>
1428

> <i_lp_mmshare_version>
43012

> <i_f3d_flags>
0

> <s_epik_input>
W0NIM11PYzFuW2NIXVtjSF1bY0hdYzFbTkhdQyg9TylbTkhdW0NIXTJbQ0gyXVtDSDJdTihbQ0gyXVtDSDJdMilbQ0gyXUMoPU8pW05IMl0=

> <s_epik_cmdline>
J2VwaWtfcHl0aG9uJywgJy1waCcsICc3LjAnLCAnLXRuJywgJzgnLCAnLW1hJywgJzIwMCcsICctbWV0YWxfYmluZGluZycsICctaW1hZScsICc8aW5maWxlLm1hZT4nLCAnLW9tYWUnLCAnPG91dGZpbGUubWFlPic=

> <r_lp_tautomer_probability>
1

> <r_epik_Ionization_Penalty>
5.72888

> <r_epik_Ionization_Penalty_Charging>
5.7288

> <r_epik_Ionization_Penalty_Neutral>
7.84403e-05

> <r_epik_State_Penalty>
6.54882

> <r_epik_Charging_Adjusted_Penalty>
12.2776

> <i_epik_Tot_Q>
0

> <i_epik_Tot_abs_Q>
2

> <r_epik_Metal_State_Penalty>
2.51301

> <b_epik_Metal_Only>
1

> <s_lp_Force_Field>
OPLS_2005

> <r_lp_Energy>
10.1368

> <b_lp_Chiralities_Consistent>
1

> <s_lp_Variant>
AV-unprocessed.smi:1428-5

> <Gold.Version>
5.8.1

> <Gold.Id.Protein>
6NUR|6NUR_protein|mol2

> <Gold.PLP.Fitness>
44.3725

> <Gold.PLP.PLP>
-36.5765

> <Gold.PLP.part.hbond>
-2.0000

> <Gold.PLP.part.metal>
0.0000

> <Gold.PLP.part.buried>
-5.4432

> <Gold.PLP.part.nonpolar>
-29.4764

> <Gold.PLP.part.repulsive>
0.3949

> <Gold.PLP.ligand.clash>
0.0000

> <Gold.PLP.ligand.torsion>
0.6243

> <Gold.PLP.Chemscore.Hbond>
3.0000

> <Gold.PLP.Chemscore.CHOScore>
0.0000

> <Gold.PLP.Chemscore.Metal>
0.0000

> <Gold.Chemscore.Hbonds>
donor molecule, donor type, donor heavy atom, donor atom, acceptor molecule, acceptor atom, score
      L1  H    16    43       P1  7948  2.00
      L1  H    19    38       P1  7948  0.90

> <Gold.PLP.Chemscore.Internal.Correction>
0.0446

> <Gold.Rescore>
     Score         DG    S(hbond)    S(metal)    S(lipo)     H(rot)  DE(clash)    DE(int)     intcor
     13.80     -15.50       1.88        0.00      82.07       2.29       0.35       1.36       ----

> <Gold.Chemscore.Fitness>
13.7972

> <Gold.Chemscore.DG>
-15.5011

> <Gold.Chemscore.ZeroCoef>
-5.4800

> <Gold.Chemscore.Hbond>
1.8802

> <Gold.Chemscore.Metal>
0.0000

> <Gold.Chemscore.Lipo>
82.0682

> <Gold.Chemscore.Internal_Hbond>
0.0000

> <Gold.Chemscore.DEClash>
0.3477

> <Gold.Chemscore.DEInternal>
1.3563

> <Gold.Chemscore.Rot>
2.2894

> <Gold.Chemscore.Internal.Correction>
   9.000000E+99

> <Gold.Chemscore.Hbonds>
donor molecule, donor type, donor heavy atom, donor atom, acceptor molecule, acceptor atom, score
      L1  H    16    43       P1  7948  0.93
      L1  H    19    38       P1  7948  0.17

> <Gold.Chemscore.Hbond.Weighted>
-6.2799

> <Gold.Chemscore.Metal.Weighted>
-0.0000

> <Gold.Chemscore.Lipo.Weighted>
-9.6020

> <Gold.Chemscore.Internal_Hbond.Weighted>
0.0000

> <Gold.Chemscore.DEClash.Weighted>
0.3477

> <Gold.Chemscore.DEInternal.Weighted>
1.3563

> <Gold.Chemscore.Rot.Weighted>
5.8608

> <Gold.Chemscore.Internal.Correction.Weighted>
   9.000000E+99

> <Gold.Protein.RotatedTorsions>
[ 6907 6896 6895 6894 ] final  105.87 input  -60.11 | X-H torsion
[ 7974 7965 7964 7962 ] final   81.81 input  175.53 | X-H torsion
[ 8008 7997 7996 7995 ] final  -41.89 input   59.86 | X-H torsion
[ 10167 10162 10161 10158 ] final  167.39 input  -65.29 | X-H torsion
[ 10718 10713 10712 10709 ] final   98.80 input   66.30 | X-H torsion
[ 10763 10752 10751 10750 ] final  174.30 input  -60.55 | X-H torsion
[ 11005 11000 10999 10996 ] final  164.79 input  -57.11 | X-H torsion

> <Gold.Protein.ActiveResidues>
 VAL166  LYS551  ARG553  GLY616  TRP617  ASP618  TYR619  PRO620  LYS621  CYS622 
 ASP623  PHE694  ASN695  SER759  ASP760  ASP761  ALA762  ILE779  LEU786  VAL792 
 PHE793  MET794  SER795  GLU796  ALA797  LYS798  CYS799  TRP800  GLU811  SER814 

> <Gold.Protein.RotatedAtoms>
  152.5215  133.9465  159.7651 H   0  0  0  0  0  0  0  0  0  0  0  0  # atno 6907 bound_to 6896
  150.9784  133.6263  159.2733 H   0  0  0  0  0  0  0  0  0  0  0  0  # atno 6908 bound_to 6896
  151.3449  135.0877  159.9436 H   0  0  0  0  0  0  0  0  0  0  0  0  # atno 6909 bound_to 6896
  145.6333  139.2409  143.2072 H   0  0  0  0  0  0  0  0  0  0  0  0  # atno 7974 bound_to 7965
  154.4001  140.1487  156.3265 H   0  0  0  0  0  0  0  0  0  0  0  0  # atno 8008 bound_to 7997
  155.8482  140.3459  155.5655 H   0  0  0  0  0  0  0  0  0  0  0  0  # atno 8009 bound_to 7997
  155.8013  140.0870  157.1946 H   0  0  0  0  0  0  0  0  0  0  0  0  # atno 8010 bound_to 7997
  139.4944  144.3926  151.9500 H   0  0  0  0  0  0  0  0  0  0  0  0  # atno 10167 bound_to 10162
  157.6889  131.0651  150.4851 H   0  0  0  0  0  0  0  0  0  0  0  0  # atno 10718 bound_to 10713
  154.4520  135.2765  155.1774 H   0  0  0  0  0  0  0  0  0  0  0  0  # atno 10763 bound_to 10752
  154.3598  135.6132  153.5688 H   0  0  0  0  0  0  0  0  0  0  0  0  # atno 10764 bound_to 10752
  152.9848  135.5831  154.4866 H   0  0  0  0  0  0  0  0  0  0  0  0  # atno 10765 bound_to 10752
  140.2495  134.7988  157.3488 H   0  0  0  0  0  0  0  0  0  0  0  0  # atno 11005 bound_to 11000
  146.1339  140.7148  142.9399 LP  0  0  0  0  0  0  0  0  0  0  0  0  # atno 17320 bound_to 7965
  144.7185  140.4293  143.7026 LP  0  0  0  0  0  0  0  0  0  0  0  0  # atno 17321 bound_to 7965
  140.3364  144.3255  150.5976 LP  0  0  0  0  0  0  0  0  0  0  0  0  # atno 17342 bound_to 10162
  140.5602  143.2193  151.7778 LP  0  0  0  0  0  0  0  0  0  0  0  0  # atno 17343 bound_to 10162
  156.5181  130.4155  149.6265 LP  0  0  0  0  0  0  0  0  0  0  0  0  # atno 17370 bound_to 10713
  156.3179  130.7265  151.2171 LP  0  0  0  0  0  0  0  0  0  0  0  0  # atno 17371 bound_to 10713
  140.1572  134.4774  155.7920 LP  0  0  0  0  0  0  0  0  0  0  0  0  # atno 17394 bound_to 11000
  141.2203  133.6886  156.7481 LP  0  0  0  0  0  0  0  0  0  0  0  0  # atno 17395 bound_to 11000

$$$$
