AV-unprocessed.smi:1824|AV-procd|sdf|7407|dock1
  -GOLD-   22720 9 83D 1   1.00000     0.00000
 Structure written by MMmdl.
 45 47  0  0  0  0  0  0  0  0  2 V2000
  147.9549  136.0137  156.4896 C   0  0  0  0  0  0  0  0  0  0  0  0
  148.4706  136.0026  155.0405 C   0  0  2  0  0  0  0  0  0  0  0  0
  149.9955  136.2071  154.9344 C   0  0  0  0  0  0  0  0  0  0  0  0
  150.4006  137.5879  155.1941 N   0  0  0  0  0  0  0  0  0  0  0  0
  151.8446  137.7897  155.0611 C   0  0  0  0  0  0  0  0  0  0  0  0
  152.3877  139.1091  155.6456 C   0  0  2  0  0  0  0  0  0  0  0  0
  153.7722  138.9521  155.8866 O   0  0  0  0  0  0  0  0  0  0  0  0
  151.6737  139.4780  156.9607 C   0  0  0  0  0  0  0  0  0  0  0  0
  151.2146  140.8746  156.9911 N   0  0  0  0  0  0  0  0  0  0  0  0
  150.4360  141.5511  156.1037 C   0  0  0  0  0  0  0  0  0  0  0  0
  150.2874  142.8215  156.5711 N   0  3  0  0  0  0  0  0  0  0  0  0
  150.9833  142.9604  157.7739 C   0  0  0  0  0  0  0  0  0  0  0  0
  151.1313  144.0551  158.6196 C   0  0  0  0  0  0  0  0  0  0  0  0
  151.9162  143.8632  159.7755 C   0  0  0  0  0  0  0  0  0  0  0  0
  152.0934  144.8964  160.6325 F   0  0  0  0  0  0  0  0  0  0  0  0
  152.5199  142.6188  160.0544 C   0  0  0  0  0  0  0  0  0  0  0  0
  153.2679  142.4780  161.1743 F   0  0  0  0  0  0  0  0  0  0  0  0
  152.3611  141.5159  159.1898 C   0  0  0  0  0  0  0  0  0  0  0  0
  151.5826  141.7134  158.0500 C   0  0  0  0  0  0  0  0  0  0  0  0
  149.6687  138.4695  154.2930 C   0  0  0  0  0  0  0  0  0  0  0  0
  148.1450  138.3159  154.4460 C   0  0  1  0  0  0  0  0  0  0  0  0
  147.3747  139.1810  153.4429 C   0  0  0  0  0  0  0  0  0  0  0  0
  147.7834  136.9539  154.2263 O   0  0  0  0  0  0  0  0  0  0  0  0
  148.4064  135.2071  157.0676 H   0  0  0  0  0  0  0  0  0  0  0  0
  146.8740  135.8755  156.5182 H   0  0  0  0  0  0  0  0  0  0  0  0
  148.1860  136.9480  157.0005 H   0  0  0  0  0  0  0  0  0  0  0  0
  148.2358  135.0212  154.6279 H   0  0  0  0  0  0  0  0  0  0  0  0
  150.4870  135.5233  155.6249 H   0  0  0  0  0  0  0  0  0  0  0  0
  150.3192  135.9184  153.9332 H   0  0  0  0  0  0  0  0  0  0  0  0
  152.3644  136.9502  155.5252 H   0  0  0  0  0  0  0  0  0  0  0  0
  152.1168  137.7554  154.0050 H   0  0  0  0  0  0  0  0  0  0  0  0
  152.2526  139.9301  154.9427 H   0  0  0  0  0  0  0  0  0  0  0  0
  153.8901  138.2101  156.4609 H   0  0  0  0  0  0  0  0  0  0  0  0
  150.7907  138.8506  157.0890 H   0  0  0  0  0  0  0  0  0  0  0  0
  152.3096  139.2878  157.8258 H   0  0  0  0  0  0  0  0  0  0  0  0
  150.0120  141.1518  155.1936 H   0  0  0  0  0  0  0  0  0  0  0  0
  150.6724  145.0099  158.4093 H   0  0  0  0  0  0  0  0  0  0  0  0
  152.8335  140.5705  159.4106 H   0  0  0  0  0  0  0  0  0  0  0  0
  149.9432  139.5066  154.4892 H   0  0  0  0  0  0  0  0  0  0  0  0
  149.9552  138.2618  153.2606 H   0  0  0  0  0  0  0  0  0  0  0  0
  147.8481  138.6120  155.4526 H   0  0  0  0  0  0  0  0  0  0  0  0
  147.6086  140.2376  153.5748 H   0  0  0  0  0  0  0  0  0  0  0  0
  146.2987  139.0604  153.5705 H   0  0  0  0  0  0  0  0  0  0  0  0
  147.6210  138.9084  152.4164 H   0  0  0  0  0  0  0  0  0  0  0  0
  149.7507  143.5391  156.1006 H   0  0  0  0  0  0  0  0  0  0  0  0
  1  2  1  0  0  0  0
  1 24  1  0  0  0  0
  1 25  1  0  0  0  0
  1 26  1  0  0  0  0
  2 23  1  0  0  0  0
  2  3  1  0  0  0  0
  2 27  1  0  0  0  0
  3  4  1  0  0  0  0
  3 28  1  0  0  0  0
  3 29  1  0  0  0  0
  4  5  1  0  0  0  0
  4 20  1  0  0  0  0
  5  6  1  0  0  0  0
  5 30  1  0  0  0  0
  5 31  1  0  0  0  0
  6  7  1  0  0  0  0
  6  8  1  0  0  0  0
  6 32  1  0  0  0  0
  7 33  1  0  0  0  0
  8  9  1  0  0  0  0
  8 34  1  0  0  0  0
  8 35  1  0  0  0  0
  9 19  1  0  0  0  0
  9 10  1  0  0  0  0
 10 11  2  0  0  0  0
 10 36  1  0  0  0  0
 11 12  1  0  0  0  0
 11 45  1  0  0  0  0
 12 19  2  0  0  0  0
 12 13  1  0  0  0  0
 13 14  2  0  0  0  0
 13 37  1  0  0  0  0
 14 15  1  0  0  0  0
 14 16  1  0  0  0  0
 16 17  1  0  0  0  0
 16 18  2  0  0  0  0
 18 19  1  0  0  0  0
 18 38  1  0  0  0  0
 20 21  1  0  0  0  0
 20 39  1  0  0  0  0
 20 40  1  0  0  0  0
 21 22  1  0  0  0  0
 21 23  1  0  0  0  0
 21 41  1  0  0  0  0
 22 42  1  0  0  0  0
 22 43  1  0  0  0  0
 22 44  1  0  0  0  0
M  CHG  1  11   1
M  END
> <s_m_source_file>
AV-unprocessed.smi

> <i_m_source_file_index>
1824

> <i_lp_mmshare_version>
43012

> <i_f3d_flags>
0

> <s_epik_input>
W0NIM11bQ0BASF0xW0NIMl1OKFtDSDJdW0NASF0oTzEpW0NIM10pW0NIMl1bQ0BIXShbT0hdKVtDSDJdbihbY0hdbjIpYyhjMjMpW2NIXWMoRiljKEYpW2NIXTM=

> <s_epik_cmdline>
J2VwaWtfcHl0aG9uJywgJy1waCcsICc3LjAnLCAnLXRuJywgJzgnLCAnLW1hJywgJzIwMCcsICctbWV0YWxfYmluZGluZycsICctaW1hZScsICc8aW5maWxlLm1hZT4nLCAnLW9tYWUnLCAnPG91dGZpbGUubWFlPic=

> <r_epik_Ionization_Penalty>
2.58709

> <r_epik_Ionization_Penalty_Charging>
2.37273

> <r_epik_Ionization_Penalty_Neutral>
0.214359

> <r_epik_State_Penalty>
2.71799

> <r_epik_Charging_Adjusted_Penalty>
5.09071

> <i_epik_Tot_Q>
1

> <i_epik_Tot_abs_Q>
1

> <r_epik_Metal_State_Penalty>
6.80217

> <b_epik_Metal_Only>
0

> <s_lp_Force_Field>
OPLS_2005

> <r_lp_Energy>
35.5782

> <b_lp_Chiralities_Consistent>
1

> <s_lp_Variant>
AV-unprocessed.smi:1824-15

> <Gold.Version>
5.8.1

> <Gold.Id.Protein>
6NUR|6NUR_protein|mol2

> <Gold.PLP.Fitness>
50.4279

> <Gold.PLP.PLP>
-43.7453

> <Gold.PLP.part.hbond>
-1.6535

> <Gold.PLP.part.metal>
0.0000

> <Gold.PLP.part.buried>
-6.9896

> <Gold.PLP.part.nonpolar>
-37.5179

> <Gold.PLP.part.repulsive>
1.0453

> <Gold.PLP.ligand.clash>
0.0000

> <Gold.PLP.ligand.torsion>
1.0227

> <Gold.PLP.Chemscore.Hbond>
2.8640

> <Gold.PLP.Chemscore.CHOScore>
0.0000

> <Gold.PLP.Chemscore.Metal>
0.0000

> <Gold.Chemscore.Hbonds>
donor molecule, donor type, donor heavy atom, donor atom, acceptor molecule, acceptor atom, score
      L1  H    11    45       P1  8028  1.98
      P1  H  7997  8008       L1     7  0.43

> <Gold.PLP.Chemscore.Internal.Correction>
0.1360

> <Gold.Rescore>
     Score         DG    S(hbond)    S(metal)    S(lipo)     H(rot)  DE(clash)    DE(int)     intcor
     15.77     -16.93       1.74        0.00      98.90       2.32       0.35       0.81       ----

> <Gold.Chemscore.Fitness>
15.7725

> <Gold.Chemscore.DG>
-16.9257

> <Gold.Chemscore.ZeroCoef>
-5.4800

> <Gold.Chemscore.Hbond>
1.7412

> <Gold.Chemscore.Metal>
0.0000

> <Gold.Chemscore.Lipo>
98.9049

> <Gold.Chemscore.Internal_Hbond>
0.0000

> <Gold.Chemscore.DEClash>
0.3450

> <Gold.Chemscore.DEInternal>
0.8081

> <Gold.Chemscore.Rot>
2.3210

> <Gold.Chemscore.Internal.Correction>
   9.000000E+99

> <Gold.Chemscore.Hbonds>
donor molecule, donor type, donor heavy atom, donor atom, acceptor molecule, acceptor atom, score
      L1  H    11    45       P1  8028  0.92
      P1  H  7997  8008       L1     7  0.30

> <Gold.Chemscore.Hbond.Weighted>
-5.8155

> <Gold.Chemscore.Metal.Weighted>
-0.0000

> <Gold.Chemscore.Lipo.Weighted>
-11.5719

> <Gold.Chemscore.Internal_Hbond.Weighted>
0.0000

> <Gold.Chemscore.DEClash.Weighted>
0.3450

> <Gold.Chemscore.DEInternal.Weighted>
0.8081

> <Gold.Chemscore.Rot.Weighted>
5.9416

> <Gold.Chemscore.Internal.Correction.Weighted>
   9.000000E+99

> <Gold.Protein.RotatedTorsions>
[ 6907 6896 6895 6894 ] final  166.13 input  -60.11 | X-H torsion
[ 7974 7965 7964 7962 ] final   80.78 input  175.53 | X-H torsion
[ 8008 7997 7996 7995 ] final  -47.71 input   59.86 | X-H torsion
[ 10167 10162 10161 10158 ] final -131.23 input  -65.29 | X-H torsion
[ 10718 10713 10712 10709 ] final   96.42 input   66.30 | X-H torsion
[ 10763 10752 10751 10750 ] final  -94.77 input  -60.55 | X-H torsion
[ 11005 11000 10999 10996 ] final  -64.83 input  -57.11 | X-H torsion

> <Gold.Protein.ActiveResidues>
 VAL166  LYS551  ARG553  GLY616  TRP617  ASP618  TYR619  PRO620  LYS621  CYS622 
 ASP623  PHE694  ASN695  SER759  ASP760  ASP761  ALA762  ILE779  LEU786  VAL792 
 PHE793  MET794  SER795  GLU796  ALA797  LYS798  CYS799  TRP800  GLU811  SER814 

> <Gold.Protein.RotatedAtoms>
  151.8837  133.3501  159.3774 H   0  0  0  0  0  0  0  0  0  0  0  0  # atno 6907 bound_to 6896
  150.7121  134.4993  159.5563 H   0  0  0  0  0  0  0  0  0  0  0  0  # atno 6908 bound_to 6896
  152.2549  134.8094  160.0491 H   0  0  0  0  0  0  0  0  0  0  0  0  # atno 6909 bound_to 6896
  145.6468  139.2438  143.1999 H   0  0  0  0  0  0  0  0  0  0  0  0  # atno 7974 bound_to 7965
  154.4020  140.1339  156.4220 H   0  0  0  0  0  0  0  0  0  0  0  0  # atno 8008 bound_to 7997
  155.7633  140.3485  155.5189 H   0  0  0  0  0  0  0  0  0  0  0  0  # atno 8009 bound_to 7997
  155.8837  140.0991  157.1457 H   0  0  0  0  0  0  0  0  0  0  0  0  # atno 8010 bound_to 7997
  139.9211  143.6381  152.2553 H   0  0  0  0  0  0  0  0  0  0  0  0  # atno 10167 bound_to 10162
  157.6927  131.0577  150.4488 H   0  0  0  0  0  0  0  0  0  0  0  0  # atno 10718 bound_to 10713
  154.7086  135.5145  153.8632 H   0  0  0  0  0  0  0  0  0  0  0  0  # atno 10763 bound_to 10752
  153.0762  135.6617  154.0151 H   0  0  0  0  0  0  0  0  0  0  0  0  # atno 10764 bound_to 10752
  153.9997  135.3012  155.3383 H   0  0  0  0  0  0  0  0  0  0  0  0  # atno 10765 bound_to 10752
  141.1436  133.6672  156.5893 H   0  0  0  0  0  0  0  0  0  0  0  0  # atno 11005 bound_to 11000
  146.1236  140.7276  142.9445 LP  0  0  0  0  0  0  0  0  0  0  0  0  # atno 17320 bound_to 7965
  144.7137  140.4133  143.7061 LP  0  0  0  0  0  0  0  0  0  0  0  0  # atno 17321 bound_to 7965
  139.6861  144.7651  151.1522 LP  0  0  0  0  0  0  0  0  0  0  0  0  # atno 17342 bound_to 10162
  140.7662  143.5656  150.9052 LP  0  0  0  0  0  0  0  0  0  0  0  0  # atno 17343 bound_to 10162
  156.4841  130.4080  149.6444 LP  0  0  0  0  0  0  0  0  0  0  0  0  # atno 17370 bound_to 10713
  156.3479  130.7416  151.2372 LP  0  0  0  0  0  0  0  0  0  0  0  0  # atno 17371 bound_to 10713
  140.3776  134.7551  157.4640 LP  0  0  0  0  0  0  0  0  0  0  0  0  # atno 17394 bound_to 11000
  140.0662  134.5926  155.8692 LP  0  0  0  0  0  0  0  0  0  0  0  0  # atno 17395 bound_to 11000

$$$$
