AV-unprocessed.smi:1272|AV-procd|sdf|5337|dock6
  -GOLD-   22720 4463D 1   1.00000     0.00000
 Structure written by MMmdl.
 46 48  0  0  0  0  0  0  0  0  2 V2000
  150.8894  140.8138  157.6189 C   0  0  0  0  0  0  0  0  0  0  0  0
  151.8091  141.9492  158.0849 C   0  0  0  0  0  0  0  0  0  0  0  0
  152.6556  141.5222  159.1959 N   0  0  0  0  0  0  0  0  0  0  0  0
  153.4823  140.4505  159.2147 C   0  0  0  0  0  0  0  0  0  0  0  0
  153.6616  139.6563  158.2913 O   0  0  0  0  0  0  0  0  0  0  0  0
  154.0977  140.4147  160.4202 N   0  0  0  0  0  0  0  0  0  0  0  0
  155.0833  139.4296  160.8614 C   0  0  0  0  0  0  0  0  0  0  0  0
  156.4995  140.0362  160.9352 C   0  0  1  0  0  0  0  0  0  0  0  0
  156.9374  139.9689  162.2786 O   0  0  0  0  0  0  0  0  0  0  0  0
  157.5063  139.2446  160.0757 C   0  0  0  0  0  0  0  0  0  0  0  0
  158.5453  140.1126  159.4638 N   0  3  0  0  0  0  0  0  0  0  0  0
  157.9648  141.1888  158.6257 C   0  0  0  0  0  0  0  0  0  0  0  0
  159.0799  142.0150  157.9620 C   0  0  0  0  0  0  0  0  0  0  0  0
  159.9402  142.5460  158.9621 O   0  0  0  0  0  0  0  0  0  0  0  0
  160.5713  141.5214  159.7200 C   0  0  0  0  0  0  0  0  0  0  0  0
  159.5033  140.6837  160.4434 C   0  0  0  0  0  0  0  0  0  0  0  0
  153.6755  141.5125  161.1838 C   0  0  0  0  0  0  0  0  0  0  0  0
  154.0357  141.9362  162.4750 C   0  0  0  0  0  0  0  0  0  0  0  0
  153.4268  143.1166  162.9616 C   0  0  0  0  0  0  0  0  0  0  0  0
  152.4938  143.8337  162.1686 C   0  0  0  0  0  0  0  0  0  0  0  0
  152.1502  143.3860  160.8716 C   0  0  0  0  0  0  0  0  0  0  0  0
  152.7686  142.2097  160.4130 C   0  0  0  0  0  0  0  0  0  0  0  0
  150.2609  141.1401  156.7902 H   0  0  0  0  0  0  0  0  0  0  0  0
  150.2325  140.4823  158.4236 H   0  0  0  0  0  0  0  0  0  0  0  0
  151.4662  139.9528  157.2800 H   0  0  0  0  0  0  0  0  0  0  0  0
  152.4341  142.2877  157.2584 H   0  0  0  0  0  0  0  0  0  0  0  0
  151.2113  142.8117  158.3838 H   0  0  0  0  0  0  0  0  0  0  0  0
  154.7904  138.9798  161.8109 H   0  0  0  0  0  0  0  0  0  0  0  0
  155.0722  138.6116  160.1389 H   0  0  0  0  0  0  0  0  0  0  0  0
  156.4718  141.0784  160.6186 H   0  0  0  0  0  0  0  0  0  0  0  0
  157.5261  139.2349  162.3684 H   0  0  0  0  0  0  0  0  0  0  0  0
  157.9816  138.4890  160.7036 H   0  0  0  0  0  0  0  0  0  0  0  0
  156.9891  138.6996  159.2844 H   0  0  0  0  0  0  0  0  0  0  0  0
  157.3239  140.7567  157.8562 H   0  0  0  0  0  0  0  0  0  0  0  0
  157.3372  141.8349  159.2418 H   0  0  0  0  0  0  0  0  0  0  0  0
  159.6510  141.4062  157.2593 H   0  0  0  0  0  0  0  0  0  0  0  0
  158.6491  142.8388  157.3927 H   0  0  0  0  0  0  0  0  0  0  0  0
  161.1839  140.8946  159.0698 H   0  0  0  0  0  0  0  0  0  0  0  0
  161.2437  141.9805  160.4448 H   0  0  0  0  0  0  0  0  0  0  0  0
  158.9671  141.3056  161.1622 H   0  0  0  0  0  0  0  0  0  0  0  0
  159.9941  139.8933  161.0099 H   0  0  0  0  0  0  0  0  0  0  0  0
  154.7505  141.3911  163.0732 H   0  0  0  0  0  0  0  0  0  0  0  0
  153.6766  143.4779  163.9482 H   0  0  0  0  0  0  0  0  0  0  0  0
  152.0422  144.7338  162.5590 H   0  0  0  0  0  0  0  0  0  0  0  0
  151.4449  143.9307  160.2616 H   0  0  0  0  0  0  0  0  0  0  0  0
  159.0769  139.5221  158.8395 H   0  0  0  0  0  0  0  0  0  0  0  0
  1  2  1  0  0  0  0
  1 23  1  0  0  0  0
  1 24  1  0  0  0  0
  1 25  1  0  0  0  0
  2  3  1  0  0  0  0
  2 26  1  0  0  0  0
  2 27  1  0  0  0  0
  3 22  1  0  0  0  0
  3  4  1  0  0  0  0
  4  5  2  0  0  0  0
  4  6  1  0  0  0  0
  6  7  1  0  0  0  0
  6 17  1  0  0  0  0
  7  8  1  0  0  0  0
  7 28  1  0  0  0  0
  7 29  1  0  0  0  0
  8  9  1  0  0  0  0
  8 10  1  0  0  0  0
  8 30  1  0  0  0  0
  9 31  1  0  0  0  0
 10 11  1  0  0  0  0
 10 32  1  0  0  0  0
 10 33  1  0  0  0  0
 11 16  1  0  0  0  0
 11 12  1  0  0  0  0
 11 46  1  0  0  0  0
 12 13  1  0  0  0  0
 12 34  1  0  0  0  0
 12 35  1  0  0  0  0
 13 14  1  0  0  0  0
 13 36  1  0  0  0  0
 13 37  1  0  0  0  0
 14 15  1  0  0  0  0
 15 16  1  0  0  0  0
 15 38  1  0  0  0  0
 15 39  1  0  0  0  0
 16 40  1  0  0  0  0
 16 41  1  0  0  0  0
 17 22  2  0  0  0  0
 17 18  1  0  0  0  0
 18 19  2  0  0  0  0
 18 42  1  0  0  0  0
 19 20  1  0  0  0  0
 19 43  1  0  0  0  0
 20 21  2  0  0  0  0
 20 44  1  0  0  0  0
 21 22  1  0  0  0  0
 21 45  1  0  0  0  0
M  CHG  1  11   1
M  END
> <s_m_source_file>
AV-unprocessed.smi

> <i_m_source_file_index>
1272

> <i_lp_mmshare_version>
43012

> <i_f3d_flags>
0

> <s_epik_input>
W2NIXTFbY0hdW2NIXVtjSF1jKGMxMiluKFtDSDJdW0NIM10pYyg9TyluMltDSDJdW0NASF0oW09IXSlbQ0gyXU4zW0NIMl1bQ0gyXU9bQ0gyXVtDSDJdMw==

> <s_epik_cmdline>
J2VwaWtfcHl0aG9uJywgJy1waCcsICc3LjAnLCAnLXRuJywgJzgnLCAnLW1hJywgJzIwMCcsICctbWV0YWxfYmluZGluZycsICctaW1hZScsICc8aW5maWxlLm1hZT4nLCAnLW9tYWUnLCAnPG91dGZpbGUubWFlPic=

> <r_epik_Ionization_Penalty>
0.706332

> <r_epik_Ionization_Penalty_Charging>
0.706318

> <r_epik_Ionization_Penalty_Neutral>
1.42224e-05

> <r_epik_State_Penalty>
0.729493

> <r_epik_Charging_Adjusted_Penalty>
1.43581

> <i_epik_Tot_Q>
1

> <i_epik_Tot_abs_Q>
1

> <r_epik_Metal_State_Penalty>
0.729493

> <b_epik_Metal_Only>
0

> <s_lp_Force_Field>
OPLS_2005

> <r_lp_Energy>
52.83

> <b_lp_Chiralities_Consistent>
1

> <s_lp_Variant>
AV-unprocessed.smi:1272-4

> <Gold.Version>
5.8.1

> <Gold.Id.Protein>
6NUR|6NUR_protein|mol2

> <Gold.PLP.Fitness>
48.6387

> <Gold.PLP.PLP>
-48.3228

> <Gold.PLP.part.hbond>
-4.1033

> <Gold.PLP.part.metal>
0.0000

> <Gold.PLP.part.buried>
-3.4929

> <Gold.PLP.part.nonpolar>
-40.5714

> <Gold.PLP.part.repulsive>
0.1139

> <Gold.PLP.ligand.clash>
0.0000

> <Gold.PLP.ligand.torsion>
1.3894

> <Gold.PLP.Chemscore.Hbond>
1.0000

> <Gold.PLP.Chemscore.CHOScore>
0.0000

> <Gold.PLP.Chemscore.Metal>
0.0000

> <Gold.Chemscore.Hbonds>
donor molecule, donor type, donor heavy atom, donor atom, acceptor molecule, acceptor atom, score
      P1  H  7997  8008       L1     5  1.00

> <Gold.PLP.Chemscore.Internal.Correction>
0.0947

> <Gold.Rescore>
     Score         DG    S(hbond)    S(metal)    S(lipo)     H(rot)  DE(clash)    DE(int)     intcor
     17.04     -18.53       0.98        0.00     132.33       2.23       0.07       1.42       ----

> <Gold.Chemscore.Fitness>
17.0399

> <Gold.Chemscore.DG>
-18.5331

> <Gold.Chemscore.ZeroCoef>
-5.4800

> <Gold.Chemscore.Hbond>
0.9807

> <Gold.Chemscore.Metal>
0.0000

> <Gold.Chemscore.Lipo>
132.3332

> <Gold.Chemscore.Internal_Hbond>
0.0000

> <Gold.Chemscore.DEClash>
0.0737

> <Gold.Chemscore.DEInternal>
1.4195

> <Gold.Chemscore.Rot>
2.2287

> <Gold.Chemscore.Internal.Correction>
   9.000000E+99

> <Gold.Chemscore.Hbonds>
donor molecule, donor type, donor heavy atom, donor atom, acceptor molecule, acceptor atom, score
      P1  H  7997  8008       L1     5  0.91

> <Gold.Chemscore.Hbond.Weighted>
-3.2755

> <Gold.Chemscore.Metal.Weighted>
-0.0000

> <Gold.Chemscore.Lipo.Weighted>
-15.4830

> <Gold.Chemscore.Internal_Hbond.Weighted>
0.0000

> <Gold.Chemscore.DEClash.Weighted>
0.0737

> <Gold.Chemscore.DEInternal.Weighted>
1.4195

> <Gold.Chemscore.Rot.Weighted>
5.7054

> <Gold.Chemscore.Internal.Correction.Weighted>
   9.000000E+99

> <Gold.Protein.RotatedTorsions>
[ 6907 6896 6895 6894 ] final -144.23 input  -60.11 | X-H torsion
[ 7974 7965 7964 7962 ] final  -60.35 input  175.53 | X-H torsion
[ 8008 7997 7996 7995 ] final -105.57 input   59.86 | X-H torsion
[ 10167 10162 10161 10158 ] final   46.00 input  -65.29 | X-H torsion
[ 10718 10713 10712 10709 ] final   62.05 input   66.30 | X-H torsion
[ 10763 10752 10751 10750 ] final -144.05 input  -60.55 | X-H torsion
[ 11005 11000 10999 10996 ] final  127.61 input  -57.11 | X-H torsion

> <Gold.Protein.ActiveResidues>
 VAL166  LYS551  ARG553  GLY616  TRP617  ASP618  TYR619  PRO620  LYS621  CYS622 
 ASP623  PHE694  ASN695  SER759  ASP760  ASP761  ALA762  ILE779  LEU786  VAL792 
 PHE793  MET794  SER795  GLU796  ALA797  LYS798  CYS799  TRP800  GLU811  SER814 

> <Gold.Protein.RotatedAtoms>
  151.1112  133.5172  159.2605 H   0  0  0  0  0  0  0  0  0  0  0  0  # atno 6907 bound_to 6896
  151.1965  135.0424  159.8864 H   0  0  0  0  0  0  0  0  0  0  0  0  # atno 6908 bound_to 6896
  152.5450  134.0945  159.8345 H   0  0  0  0  0  0  0  0  0  0  0  0  # atno 6909 bound_to 6896
  145.8165  140.8566  143.0154 H   0  0  0  0  0  0  0  0  0  0  0  0  # atno 7974 bound_to 7965
  154.9018  140.0412  157.1897 H   0  0  0  0  0  0  0  0  0  0  0  0  # atno 8008 bound_to 7997
  154.8436  140.2918  155.5622 H   0  0  0  0  0  0  0  0  0  0  0  0  # atno 8009 bound_to 7997
  156.2993  140.2478  156.3383 H   0  0  0  0  0  0  0  0  0  0  0  0  # atno 8010 bound_to 7997
  140.3184  144.2736  150.6187 H   0  0  0  0  0  0  0  0  0  0  0  0  # atno 10167 bound_to 10162
  157.5872  130.9028  149.9538 H   0  0  0  0  0  0  0  0  0  0  0  0  # atno 10718 bound_to 10713
  154.8444  135.3451  154.6284 H   0  0  0  0  0  0  0  0  0  0  0  0  # atno 10763 bound_to 10752
  153.6894  135.6976  153.5099 H   0  0  0  0  0  0  0  0  0  0  0  0  # atno 10764 bound_to 10752
  153.2607  135.4324  155.0846 H   0  0  0  0  0  0  0  0  0  0  0  0  # atno 10765 bound_to 10752
  139.9516  134.9621  156.8880 H   0  0  0  0  0  0  0  0  0  0  0  0  # atno 11005 bound_to 11000
  144.6752  140.0472  143.7479 LP  0  0  0  0  0  0  0  0  0  0  0  0  # atno 17320 bound_to 7965
  145.9721  139.2877  143.1093 LP  0  0  0  0  0  0  0  0  0  0  0  0  # atno 17321 bound_to 7965
  140.5506  143.2207  151.7934 LP  0  0  0  0  0  0  0  0  0  0  0  0  # atno 17342 bound_to 10162
  139.4879  144.4482  151.9685 LP  0  0  0  0  0  0  0  0  0  0  0  0  # atno 17343 bound_to 10162
  156.0923  130.3662  150.0372 LP  0  0  0  0  0  0  0  0  0  0  0  0  # atno 17370 bound_to 10713
  156.8501  130.9456  151.3626 LP  0  0  0  0  0  0  0  0  0  0  0  0  # atno 17371 bound_to 10713
  140.5705  134.0448  155.7429 LP  0  0  0  0  0  0  0  0  0  0  0  0  # atno 17394 bound_to 11000
  141.1180  133.9508  157.2784 LP  0  0  0  0  0  0  0  0  0  0  0  0  # atno 17395 bound_to 11000

$$$$
