AV-unprocessed.smi:1355|AV-procd|sdf|5539|dock1
  -GOLD-   22720 5133D 1   1.00000     0.00000
 Structure written by MMmdl.
 33 34  0  0  0  0  0  0  0  0  2 V2000
  150.6180  136.3607  155.6781 C   0  0  0  0  0  0  0  0  0  0  0  0
  151.7889  137.0942  155.3664 O   0  0  0  0  0  0  0  0  0  0  0  0
  151.5468  138.4877  155.2598 C   0  0  0  0  0  0  0  0  0  0  0  0
  151.0359  139.0341  156.6007 C   0  0  0  0  0  0  0  0  0  0  0  0
  150.8051  140.4863  156.5589 N   0  0  0  0  0  0  0  0  0  0  0  0
  149.9973  141.2258  155.7450 C   0  0  0  0  0  0  0  0  0  0  0  0
  149.0988  140.7123  154.6631 C   0  0  1  0  0  0  0  0  0  0  0  0
  147.6557  141.1831  154.8838 C   0  0  0  0  0  0  0  0  0  0  0  0
  149.5186  141.1263  153.3794 O   0  0  0  0  0  0  0  0  0  0  0  0
  150.1371  142.5302  156.1176 N   0  3  0  0  0  0  0  0  0  0  0  0
  151.0542  142.6287  157.1638 C   0  0  0  0  0  0  0  0  0  0  0  0
  151.5249  143.7373  157.8605 C   0  0  0  0  0  0  0  0  0  0  0  0
  152.4676  143.4903  158.8802 C   0  0  0  0  0  0  0  0  0  0  0  0
  152.9069  142.1828  159.1724 C   0  0  0  0  0  0  0  0  0  0  0  0
  152.4222  141.0670  158.4586 C   0  0  0  0  0  0  0  0  0  0  0  0
  151.4888  141.3192  157.4533 C   0  0  0  0  0  0  0  0  0  0  0  0
  150.8594  135.3004  155.7507 H   0  0  0  0  0  0  0  0  0  0  0  0
  149.8600  136.4809  154.9030 H   0  0  0  0  0  0  0  0  0  0  0  0
  150.1967  136.6767  156.6332 H   0  0  0  0  0  0  0  0  0  0  0  0
  152.4654  139.0036  154.9762 H   0  0  0  0  0  0  0  0  0  0  0  0
  150.8106  138.6795  154.4779 H   0  0  0  0  0  0  0  0  0  0  0  0
  150.0930  138.5546  156.8650 H   0  0  0  0  0  0  0  0  0  0  0  0
  151.7306  138.8025  157.4081 H   0  0  0  0  0  0  0  0  0  0  0  0
  149.1239  139.6225  154.6741 H   0  0  0  0  0  0  0  0  0  0  0  0
  147.2764  140.8441  155.8482 H   0  0  0  0  0  0  0  0  0  0  0  0
  146.9917  140.7906  154.1130 H   0  0  0  0  0  0  0  0  0  0  0  0
  147.5845  142.2711  154.8621 H   0  0  0  0  0  0  0  0  0  0  0  0
  149.3226  140.4374  152.7626 H   0  0  0  0  0  0  0  0  0  0  0  0
  151.1911  144.7398  157.6364 H   0  0  0  0  0  0  0  0  0  0  0  0
  152.8627  144.3203  159.4479 H   0  0  0  0  0  0  0  0  0  0  0  0
  153.6320  142.0318  159.9591 H   0  0  0  0  0  0  0  0  0  0  0  0
  152.7716  140.0710  158.6869 H   0  0  0  0  0  0  0  0  0  0  0  0
  149.6391  143.2947  155.6798 H   0  0  0  0  0  0  0  0  0  0  0  0
  1  2  1  0  0  0  0
  1 17  1  0  0  0  0
  1 18  1  0  0  0  0
  1 19  1  0  0  0  0
  2  3  1  0  0  0  0
  3  4  1  0  0  0  0
  3 20  1  0  0  0  0
  3 21  1  0  0  0  0
  4  5  1  0  0  0  0
  4 22  1  0  0  0  0
  4 23  1  0  0  0  0
  5 16  1  0  0  0  0
  5  6  1  0  0  0  0
  6  7  1  0  0  0  0
  6 10  2  0  0  0  0
  7  8  1  0  0  0  0
  7  9  1  0  0  0  0
  7 24  1  0  0  0  0
  8 25  1  0  0  0  0
  8 26  1  0  0  0  0
  8 27  1  0  0  0  0
  9 28  1  0  0  0  0
 10 11  1  0  0  0  0
 10 33  1  0  0  0  0
 11 16  2  0  0  0  0
 11 12  1  0  0  0  0
 12 13  2  0  0  0  0
 12 29  1  0  0  0  0
 13 14  1  0  0  0  0
 13 30  1  0  0  0  0
 14 15  2  0  0  0  0
 14 31  1  0  0  0  0
 15 16  1  0  0  0  0
 15 32  1  0  0  0  0
M  CHG  1  10   1
M  END
> <s_m_source_file>
AV-unprocessed.smi

> <i_m_source_file_index>
1355

> <i_lp_mmshare_version>
43012

> <i_f3d_flags>
0

> <s_epik_input>
W0NIM11PW0NIMl1bQ0gyXW4oYyhuMSlbQ0BIXShbQ0gzXSlbT0hdKWMoYzEyKVtjSF1bY0hdW2NIXVtjSF0y

> <s_epik_cmdline>
J2VwaWtfcHl0aG9uJywgJy1waCcsICc3LjAnLCAnLXRuJywgJzgnLCAnLW1hJywgJzIwMCcsICctbWV0YWxfYmluZGluZycsICctaW1hZScsICc8aW5maWxlLm1hZT4nLCAnLW9tYWUnLCAnPG91dGZpbGUubWFlPic=

> <r_epik_Ionization_Penalty>
1.43426

> <r_epik_Ionization_Penalty_Charging>
1.43423

> <r_epik_Ionization_Penalty_Neutral>
2.92192e-05

> <r_epik_State_Penalty>
1.51908

> <r_epik_Charging_Adjusted_Penalty>
2.95331

> <i_epik_Tot_Q>
1

> <i_epik_Tot_abs_Q>
1

> <r_epik_Metal_State_Penalty>
5.5644

> <b_epik_Metal_Only>
0

> <s_lp_Force_Field>
OPLS_2005

> <r_lp_Energy>
11.2179

> <b_lp_Chiralities_Consistent>
1

> <s_lp_Variant>
AV-unprocessed.smi:1355-4

> <Gold.Version>
5.8.1

> <Gold.Id.Protein>
6NUR|6NUR_protein|mol2

> <Gold.PLP.Fitness>
50.1223

> <Gold.PLP.PLP>
-35.4923

> <Gold.PLP.part.hbond>
-4.7890

> <Gold.PLP.part.metal>
0.0000

> <Gold.PLP.part.buried>
-5.0497

> <Gold.PLP.part.nonpolar>
-27.6320

> <Gold.PLP.part.repulsive>
0.1892

> <Gold.PLP.ligand.clash>
0.0000

> <Gold.PLP.ligand.torsion>
0.0807

> <Gold.PLP.Chemscore.Hbond>
4.9253

> <Gold.PLP.Chemscore.CHOScore>
0.0000

> <Gold.PLP.Chemscore.Metal>
0.0000

> <Gold.Chemscore.Hbonds>
donor molecule, donor type, donor heavy atom, donor atom, acceptor molecule, acceptor atom, score
      L1  H     9    28       P1  7957  0.78
      L1  H    10    33       P1  8028  2.00
      P1  H  7989  7998       L1     9  0.14
      P1  H  8011  8017       L1     9  1.00
      P1  H 10752 10764       L1     2  1.00

> <Gold.PLP.Chemscore.Internal.Correction>
0.0156

> <Gold.Rescore>
     Score         DG    S(hbond)    S(metal)    S(lipo)     H(rot)  DE(clash)    DE(int)     intcor
     20.72     -21.08       3.32        0.00      84.49       2.10       0.02       0.33       ----

> <Gold.Chemscore.Fitness>
20.7231

> <Gold.Chemscore.DG>
-21.0792

> <Gold.Chemscore.ZeroCoef>
-5.4800

> <Gold.Chemscore.Hbond>
3.3217

> <Gold.Chemscore.Metal>
0.0000

> <Gold.Chemscore.Lipo>
84.4882

> <Gold.Chemscore.Internal_Hbond>
0.0000

> <Gold.Chemscore.DEClash>
0.0219

> <Gold.Chemscore.DEInternal>
0.3342

> <Gold.Chemscore.Rot>
2.1017

> <Gold.Chemscore.Internal.Correction>
   9.000000E+99

> <Gold.Chemscore.Hbonds>
donor molecule, donor type, donor heavy atom, donor atom, acceptor molecule, acceptor atom, score
      L1  H     9    28       P1  7957  0.78
      L1  H    10    33       P1  8028  0.97
      P1  H  7989  7998       L1     9  0.02
      P1  H  8011  8017       L1     9  0.29
      P1  H 10752 10764       L1     2  0.23

> <Gold.Chemscore.Hbond.Weighted>
-11.0944

> <Gold.Chemscore.Metal.Weighted>
-0.0000

> <Gold.Chemscore.Lipo.Weighted>
-9.8851

> <Gold.Chemscore.Internal_Hbond.Weighted>
0.0000

> <Gold.Chemscore.DEClash.Weighted>
0.0219

> <Gold.Chemscore.DEInternal.Weighted>
0.3342

> <Gold.Chemscore.Rot.Weighted>
5.3803

> <Gold.Chemscore.Internal.Correction.Weighted>
   9.000000E+99

> <Gold.Protein.RotatedTorsions>
[ 6907 6896 6895 6894 ] final -125.59 input  -60.11 | X-H torsion
[ 7974 7965 7964 7962 ] final   -0.41 input  175.53 | X-H torsion
[ 8008 7997 7996 7995 ] final -131.65 input   59.86 | X-H torsion
[ 10167 10162 10161 10158 ] final    5.04 input  -65.29 | X-H torsion
[ 10718 10713 10712 10709 ] final -135.34 input   66.30 | X-H torsion
[ 10763 10752 10751 10750 ] final  -54.85 input  -60.55 | X-H torsion
[ 11005 11000 10999 10996 ] final  133.19 input  -57.11 | X-H torsion

> <Gold.Protein.ActiveResidues>
 VAL166  LYS551  ARG553  GLY616  TRP617  ASP618  TYR619  PRO620  LYS621  CYS622 
 ASP623  PHE694  ASN695  SER759  ASP760  ASP761  ALA762  ILE779  LEU786  VAL792 
 PHE793  MET794  SER795  GLU796  ALA797  LYS798  CYS799  TRP800  GLU811  SER814 

> <Gold.Protein.RotatedAtoms>
  150.8883  133.7278  159.2911 H   0  0  0  0  0  0  0  0  0  0  0  0  # atno 6907 bound_to 6896
  151.4836  135.1052  159.9794 H   0  0  0  0  0  0  0  0  0  0  0  0  # atno 6908 bound_to 6896
  152.4804  133.8193  159.7100 H   0  0  0  0  0  0  0  0  0  0  0  0  # atno 6909 bound_to 6896
  146.2427  140.1265  142.8339 H   0  0  0  0  0  0  0  0  0  0  0  0  # atno 7974 bound_to 7965
  155.3159  140.0459  157.3037 H   0  0  0  0  0  0  0  0  0  0  0  0  # atno 8008 bound_to 7997
  154.5407  140.2287  155.8612 H   0  0  0  0  0  0  0  0  0  0  0  0  # atno 8009 bound_to 7997
  156.1878  140.3058  155.9279 H   0  0  0  0  0  0  0  0  0  0  0  0  # atno 8010 bound_to 7997
  140.6503  143.7561  150.7564 H   0  0  0  0  0  0  0  0  0  0  0  0  # atno 10167 bound_to 10162
  156.2651  130.7233  151.1181 H   0  0  0  0  0  0  0  0  0  0  0  0  # atno 10718 bound_to 10713
  154.1814  135.6443  153.5035 H   0  0  0  0  0  0  0  0  0  0  0  0  # atno 10763 bound_to 10752
  153.0058  135.5407  154.6510 H   0  0  0  0  0  0  0  0  0  0  0  0  # atno 10764 bound_to 10752
  154.5875  135.2931  155.0642 H   0  0  0  0  0  0  0  0  0  0  0  0  # atno 10765 bound_to 10752
  139.9836  134.9539  156.9690 H   0  0  0  0  0  0  0  0  0  0  0  0  # atno 11005 bound_to 11000
  145.0362  140.8909  143.5080 LP  0  0  0  0  0  0  0  0  0  0  0  0  # atno 17320 bound_to 7965
  145.1338  139.2615  143.5525 LP  0  0  0  0  0  0  0  0  0  0  0  0  # atno 17321 bound_to 7965
  140.1211  143.4611  152.2313 LP  0  0  0  0  0  0  0  0  0  0  0  0  # atno 17342 bound_to 10162
  139.5717  144.7466  151.3872 LP  0  0  0  0  0  0  0  0  0  0  0  0  # atno 17343 bound_to 10162
  157.7264  131.0646  150.5909 LP  0  0  0  0  0  0  0  0  0  0  0  0  # atno 17370 bound_to 10713
  156.6000  130.4352  149.5901 LP  0  0  0  0  0  0  0  0  0  0  0  0  # atno 17371 bound_to 10713
  140.5046  134.1063  155.7257 LP  0  0  0  0  0  0  0  0  0  0  0  0  # atno 17394 bound_to 11000
  141.1505  133.8977  157.2110 LP  0  0  0  0  0  0  0  0  0  0  0  0  # atno 17395 bound_to 11000

$$$$
