AV-unprocessed.smi:2159|AV-procd|sdf|8795|dock4
  -GOLD-   2272011573D 1   1.00000     0.00000
 Structure written by MMmdl.
 48 50  0  0  0  0  0  0  0  0  2 V2000
  151.4807  137.8816  156.4081 O   0  0  0  0  0  0  0  0  0  0  0  0
  151.1494  138.2447  157.5362 C   0  0  0  0  0  0  0  0  0  0  0  0
  150.5692  137.2377  158.5300 C   0  0  0  0  0  0  0  0  0  0  0  0
  149.6064  136.2475  157.8444 C   0  0  0  0  0  0  0  0  0  0  0  0
  148.5969  135.7454  158.7810 N   0  0  0  0  0  0  0  0  0  0  0  0
  147.7218  136.5297  159.4255 C   0  0  0  0  0  0  0  0  0  0  0  0
  147.6472  137.7563  159.3403 O   0  0  0  0  0  0  0  0  0  0  0  0
  146.7825  135.7029  160.2996 C   0  0  2  0  0  0  0  0  0  0  0  0
  146.8167  136.1455  161.7775 C   0  0  0  0  0  0  0  0  0  0  0  0
  146.1491  135.0987  162.6856 C   0  0  0  0  0  0  0  0  0  0  0  0
  146.6992  133.6689  162.4851 C   0  0  0  0  0  0  0  0  0  0  0  0
  147.7547  133.5641  161.3697 C   0  0  0  0  0  0  0  0  0  0  0  0
  147.2846  134.2599  160.0749 C   0  0  2  0  0  0  0  0  0  0  0  0
  148.4292  134.4504  159.0823 C   0  0  0  0  0  0  0  0  0  0  0  0
  149.0861  133.5101  158.6355 O   0  0  0  0  0  0  0  0  0  0  0  0
  151.2975  139.5021  157.9801 N   0  0  0  0  0  0  0  0  0  0  0  0
  151.9390  140.5860  157.2418 C   0  0  0  0  0  0  0  0  0  0  0  0
  151.0054  141.7946  157.0161 C   0  0  0  0  0  0  0  0  0  0  0  0
  151.3538  143.0021  157.8706 C   0  0  0  0  0  0  0  0  0  0  0  0
  152.3777  142.9625  158.8426 C   0  0  0  0  0  0  0  0  0  0  0  0
  152.6345  144.1093  159.6217 C   0  0  0  0  0  0  0  0  0  0  0  0
  151.8667  145.2728  159.4091 C   0  0  0  0  0  0  0  0  0  0  0  0
  150.8603  145.2594  158.4218 C   0  0  0  0  0  0  0  0  0  0  0  0
  150.6421  144.1393  157.6980 N   0  3  0  0  0  0  0  0  0  0  0  0
  151.3913  136.6940  158.9992 H   0  0  0  0  0  0  0  0  0  0  0  0
  150.0557  137.7721  159.3299 H   0  0  0  0  0  0  0  0  0  0  0  0
  149.1270  136.7276  156.9893 H   0  0  0  0  0  0  0  0  0  0  0  0
  150.1573  135.4022  157.4273 H   0  0  0  0  0  0  0  0  0  0  0  0
  145.7673  135.8001  159.9121 H   0  0  0  0  0  0  0  0  0  0  0  0
  147.8462  136.3017  162.1046 H   0  0  0  0  0  0  0  0  0  0  0  0
  146.3131  137.1061  161.8921 H   0  0  0  0  0  0  0  0  0  0  0  0
  146.2590  135.3953  163.7289 H   0  0  0  0  0  0  0  0  0  0  0  0
  145.0763  135.0947  162.4886 H   0  0  0  0  0  0  0  0  0  0  0  0
  147.1242  133.3017  163.4197 H   0  0  0  0  0  0  0  0  0  0  0  0
  145.8687  133.0008  162.2536 H   0  0  0  0  0  0  0  0  0  0  0  0
  148.6879  134.0101  161.7185 H   0  0  0  0  0  0  0  0  0  0  0  0
  147.9778  132.5148  161.1729 H   0  0  0  0  0  0  0  0  0  0  0  0
  146.5009  133.6666  159.6019 H   0  0  0  0  0  0  0  0  0  0  0  0
  150.9852  139.7110  158.9176 H   0  0  0  0  0  0  0  0  0  0  0  0
  152.8550  140.8981  157.7457 H   0  0  0  0  0  0  0  0  0  0  0  0
  152.2421  140.1796  156.2764 H   0  0  0  0  0  0  0  0  0  0  0  0
  151.0378  142.0908  155.9669 H   0  0  0  0  0  0  0  0  0  0  0  0
  149.9727  141.5038  157.2112 H   0  0  0  0  0  0  0  0  0  0  0  0
  152.9530  142.0613  158.9979 H   0  0  0  0  0  0  0  0  0  0  0  0
  153.4090  144.0948  160.3746 H   0  0  0  0  0  0  0  0  0  0  0  0
  152.0474  146.1617  159.9958 H   0  0  0  0  0  0  0  0  0  0  0  0
  150.2261  146.1035  158.1928 H   0  0  0  0  0  0  0  0  0  0  0  0
  149.9062  144.1517  156.9913 H   0  0  0  0  0  0  0  0  0  0  0  0
  1  2  2  0  0  0  0
  2  3  1  0  0  0  0
  2 16  1  0  0  0  0
  3  4  1  0  0  0  0
  3 25  1  0  0  0  0
  3 26  1  0  0  0  0
  4  5  1  0  0  0  0
  4 27  1  0  0  0  0
  4 28  1  0  0  0  0
  5 14  1  0  0  0  0
  5  6  1  0  0  0  0
  6  7  2  0  0  0  0
  6  8  1  0  0  0  0
  8 13  1  0  0  0  0
  8  9  1  0  0  0  0
  8 29  1  0  0  0  0
  9 10  1  0  0  0  0
  9 30  1  0  0  0  0
  9 31  1  0  0  0  0
 10 11  1  0  0  0  0
 10 32  1  0  0  0  0
 10 33  1  0  0  0  0
 11 12  1  0  0  0  0
 11 34  1  0  0  0  0
 11 35  1  0  0  0  0
 12 13  1  0  0  0  0
 12 36  1  0  0  0  0
 12 37  1  0  0  0  0
 13 14  1  0  0  0  0
 13 38  1  0  0  0  0
 14 15  2  0  0  0  0
 16 17  1  0  0  0  0
 16 39  1  0  0  0  0
 17 18  1  0  0  0  0
 17 40  1  0  0  0  0
 17 41  1  0  0  0  0
 18 19  1  0  0  0  0
 18 42  1  0  0  0  0
 18 43  1  0  0  0  0
 19 24  1  0  0  0  0
 19 20  2  0  0  0  0
 20 21  1  0  0  0  0
 20 44  1  0  0  0  0
 21 22  2  0  0  0  0
 21 45  1  0  0  0  0
 22 23  1  0  0  0  0
 22 46  1  0  0  0  0
 23 24  2  0  0  0  0
 23 47  1  0  0  0  0
 24 48  1  0  0  0  0
M  CHG  1  24   1
M  END
> <s_m_source_file>
AV-unprocessed.smi

> <i_m_source_file_index>
2159

> <i_lp_mmshare_version>
43012

> <i_f3d_flags>
0

> <s_epik_input>
bjFbY0hdW2NIXVtjSF1bY0hdYzFbQ0gyXVtDSDJdW05IXUMoPU8pW0NIMl1bQ0gyXU4oQzI9TylDKD1PKVtDQEhdKFtDQEBIXTIzKVtDSDJdW0NIMl1bQ0gyXVtDSDJdMw==

> <s_epik_cmdline>
J2VwaWtfcHl0aG9uJywgJy1waCcsICc3LjAnLCAnLXRuJywgJzgnLCAnLW1hJywgJzIwMCcsICctbWV0YWxfYmluZGluZycsICctaW1hZScsICc8aW5maWxlLm1hZT4nLCAnLW9tYWUnLCAnPG91dGZpbGUubWFlPic=

> <r_lp_tautomer_probability>
1

> <r_epik_Ionization_Penalty>
1.85146

> <r_epik_Ionization_Penalty_Charging>
1.85146

> <r_epik_Ionization_Penalty_Neutral>
2.95922e-08

> <r_epik_State_Penalty>
1.96899

> <r_epik_Charging_Adjusted_Penalty>
3.82044

> <i_epik_Tot_Q>
1

> <i_epik_Tot_abs_Q>
1

> <r_epik_Metal_State_Penalty>
1.99467

> <b_epik_Metal_Only>
0

> <s_lp_Force_Field>
OPLS_2005

> <r_lp_Energy>
31.2596

> <b_lp_Chiralities_Consistent>
1

> <s_lp_Variant>
AV-unprocessed.smi:2159-5

> <Gold.Version>
5.8.1

> <Gold.Id.Protein>
6NUR|6NUR_protein|mol2

> <Gold.PLP.Fitness>
53.7469

> <Gold.PLP.PLP>
-44.4116

> <Gold.PLP.part.hbond>
-3.0000

> <Gold.PLP.part.metal>
0.0000

> <Gold.PLP.part.buried>
-6.0361

> <Gold.PLP.part.nonpolar>
-35.9754

> <Gold.PLP.part.repulsive>
0.1130

> <Gold.PLP.ligand.clash>
0.0000

> <Gold.PLP.ligand.torsion>
0.8121

> <Gold.PLP.Chemscore.Hbond>
3.5920

> <Gold.PLP.Chemscore.CHOScore>
0.0000

> <Gold.PLP.Chemscore.Metal>
0.0000

> <Gold.Chemscore.Hbonds>
donor molecule, donor type, donor heavy atom, donor atom, acceptor molecule, acceptor atom, score
      L1  H    24    48       P1  8028  2.00
      P1  H  6896  6907       L1    15  1.00
      P1  H  6934  6947       L1     7  0.52

> <Gold.PLP.Chemscore.Internal.Correction>
0.1835

> <Gold.Rescore>
     Score         DG    S(hbond)    S(metal)    S(lipo)     H(rot)  DE(clash)    DE(int)     intcor
     20.51     -21.50       2.11        0.00     122.52       2.10       0.15       0.84       ----

> <Gold.Chemscore.Fitness>
20.5119

> <Gold.Chemscore.DG>
-21.4973

> <Gold.Chemscore.ZeroCoef>
-5.4800

> <Gold.Chemscore.Hbond>
2.1103

> <Gold.Chemscore.Metal>
0.0000

> <Gold.Chemscore.Lipo>
122.5160

> <Gold.Chemscore.Internal_Hbond>
0.0000

> <Gold.Chemscore.DEClash>
0.1498

> <Gold.Chemscore.DEInternal>
0.8355

> <Gold.Chemscore.Rot>
2.0959

> <Gold.Chemscore.Internal.Correction>
   9.000000E+99

> <Gold.Chemscore.Hbonds>
donor molecule, donor type, donor heavy atom, donor atom, acceptor molecule, acceptor atom, score
      L1  H    24    48       P1  8028  0.82
      P1  H  6896  6907       L1    15  0.44
      P1  H  6934  6947       L1     7  0.50

> <Gold.Chemscore.Hbond.Weighted>
-7.0484

> <Gold.Chemscore.Metal.Weighted>
-0.0000

> <Gold.Chemscore.Lipo.Weighted>
-14.3344

> <Gold.Chemscore.Internal_Hbond.Weighted>
0.0000

> <Gold.Chemscore.DEClash.Weighted>
0.1498

> <Gold.Chemscore.DEInternal.Weighted>
0.8355

> <Gold.Chemscore.Rot.Weighted>
5.3655

> <Gold.Chemscore.Internal.Correction.Weighted>
   9.000000E+99

> <Gold.Protein.RotatedTorsions>
[ 6907 6896 6895 6894 ] final -119.43 input  -60.11 | X-H torsion
[ 7974 7965 7964 7962 ] final   22.73 input  175.53 | X-H torsion
[ 8008 7997 7996 7995 ] final  175.28 input   59.86 | X-H torsion
[ 10167 10162 10161 10158 ] final -109.27 input  -65.29 | X-H torsion
[ 10718 10713 10712 10709 ] final    3.18 input   66.30 | X-H torsion
[ 10763 10752 10751 10750 ] final -122.77 input  -60.55 | X-H torsion
[ 11005 11000 10999 10996 ] final -104.88 input  -57.11 | X-H torsion

> <Gold.Protein.ActiveResidues>
 VAL166  LYS551  ARG553  GLY616  TRP617  ASP618  TYR619  PRO620  LYS621  CYS622 
 ASP623  PHE694  ASN695  SER759  ASP760  ASP761  ALA762  ILE779  LEU786  VAL792 
 PHE793  MET794  SER795  GLU796  ALA797  LYS798  CYS799  TRP800  GLU811  SER814 

> <Gold.Protein.RotatedAtoms>
  150.8304  133.8100  159.3100 H   0  0  0  0  0  0  0  0  0  0  0  0  # atno 6907 bound_to 6896
  151.5832  135.1056  160.0031 H   0  0  0  0  0  0  0  0  0  0  0  0  # atno 6908 bound_to 6896
  152.4384  133.7362  159.6671 H   0  0  0  0  0  0  0  0  0  0  0  0  # atno 6909 bound_to 6896
  146.2016  139.7845  142.8757 H   0  0  0  0  0  0  0  0  0  0  0  0  # atno 7974 bound_to 7965
  156.0887  140.1413  156.9620 H   0  0  0  0  0  0  0  0  0  0  0  0  # atno 8008 bound_to 7997
  154.4628  140.0937  156.6988 H   0  0  0  0  0  0  0  0  0  0  0  0  # atno 8009 bound_to 7997
  155.4955  140.3449  155.4364 H   0  0  0  0  0  0  0  0  0  0  0  0  # atno 8010 bound_to 7997
  140.1571  143.4151  152.1453 H   0  0  0  0  0  0  0  0  0  0  0  0  # atno 10167 bound_to 10162
  156.8740  130.5630  149.5656 H   0  0  0  0  0  0  0  0  0  0  0  0  # atno 10718 bound_to 10713
  154.8696  135.4121  154.2835 H   0  0  0  0  0  0  0  0  0  0  0  0  # atno 10763 bound_to 10752
  153.3724  135.7008  153.6633 H   0  0  0  0  0  0  0  0  0  0  0  0  # atno 10764 bound_to 10752
  153.5489  135.3633  155.2723 H   0  0  0  0  0  0  0  0  0  0  0  0  # atno 10765 bound_to 10752
  141.1080  133.8761  157.1666 H   0  0  0  0  0  0  0  0  0  0  0  0  # atno 11005 bound_to 11000
  145.3464  141.0298  143.3363 LP  0  0  0  0  0  0  0  0  0  0  0  0  # atno 17320 bound_to 7965
  144.8696  139.5057  143.6774 LP  0  0  0  0  0  0  0  0  0  0  0  0  # atno 17321 bound_to 7965
  139.5398  144.7246  151.4770 LP  0  0  0  0  0  0  0  0  0  0  0  0  # atno 17342 bound_to 10162
  140.6666  143.8384  150.6949 LP  0  0  0  0  0  0  0  0  0  0  0  0  # atno 17343 bound_to 10162
  156.0712  130.5744  150.9386 LP  0  0  0  0  0  0  0  0  0  0  0  0  # atno 17370 bound_to 10713
  157.6179  131.0932  150.8676 LP  0  0  0  0  0  0  0  0  0  0  0  0  # atno 17371 bound_to 10713
  139.9959  135.0047  157.0081 LP  0  0  0  0  0  0  0  0  0  0  0  0  # atno 17394 bound_to 11000
  140.4852  134.1249  155.7223 LP  0  0  0  0  0  0  0  0  0  0  0  0  # atno 17395 bound_to 11000

$$$$
