AV-unprocessed.smi:3198|AV-procd|sdf|12229|dock6
  -GOLD-   2272018 63D 1   1.00000     0.00000
 Structure written by MMmdl.
 37 38  0  0  0  0  0  0  0  0  1 V2000
  153.6651  141.8618  160.2142 C   0  0  0  0  0  0  0  0  0  0  0  0
  152.8534  142.8968  159.4641 C   0  0  0  0  0  0  0  0  0  0  0  0
  152.8182  144.2401  159.8908 C   0  0  0  0  0  0  0  0  0  0  0  0
  152.0448  145.1546  159.1514 C   0  0  0  0  0  0  0  0  0  0  0  0
  151.3392  144.6926  158.0234 C   0  0  0  0  0  0  0  0  0  0  0  0
  151.4316  143.3286  157.6746 C   0  0  0  0  0  0  0  0  0  0  0  0
  150.7256  142.8747  156.5507 N   0  0  0  0  0  0  0  0  0  0  0  0
  150.6884  141.4623  156.1895 C   0  0  0  0  0  0  0  0  0  0  0  0
  149.7154  141.1766  155.0367 C   0  0  0  0  0  0  0  0  0  0  0  0
  148.3849  141.2867  155.5146 O   0  0  0  0  0  0  0  0  0  0  0  0
  147.4271  141.3045  154.4695 C   0  0  0  0  0  0  0  0  0  0  0  0
  147.4477  139.9489  153.7531 C   0  0  2  0  0  0  0  0  0  0  0  0
  146.7484  139.9588  152.3953 C   0  0  0  0  0  0  0  0  0  0  0  0
  146.3422  138.5070  152.1952 C   0  0  0  0  0  0  0  0  0  0  0  0
  146.4493  137.8942  153.5949 C   0  0  0  0  0  0  0  0  0  0  0  0
  146.6821  138.9915  154.4671 O   0  0  0  0  0  0  0  0  0  0  0  0
  152.1791  142.4484  158.3828 N   0  0  0  0  0  0  0  0  0  0  0  0
  154.2596  142.3215  161.0044 H   0  0  0  0  0  0  0  0  0  0  0  0
  154.3447  141.3462  159.5350 H   0  0  0  0  0  0  0  0  0  0  0  0
  153.0060  141.1219  160.6690 H   0  0  0  0  0  0  0  0  0  0  0  0
  153.3692  144.5646  160.7613 H   0  0  0  0  0  0  0  0  0  0  0  0
  151.9931  146.1929  159.4443 H   0  0  0  0  0  0  0  0  0  0  0  0
  150.7384  145.3757  157.4409 H   0  0  0  0  0  0  0  0  0  0  0  0
  150.0861  143.5024  156.0855 H   0  0  0  0  0  0  0  0  0  0  0  0
  151.6941  141.1485  155.9092 H   0  0  0  0  0  0  0  0  0  0  0  0
  150.4186  140.8684  157.0635 H   0  0  0  0  0  0  0  0  0  0  0  0
  149.8739  141.9081  154.2430 H   0  0  0  0  0  0  0  0  0  0  0  0
  149.8940  140.1896  154.6073 H   0  0  0  0  0  0  0  0  0  0  0  0
  146.4299  141.5195  154.8569 H   0  0  0  0  0  0  0  0  0  0  0  0
  147.6845  142.0956  153.7634 H   0  0  0  0  0  0  0  0  0  0  0  0
  148.4720  139.5887  153.6395 H   0  0  0  0  0  0  0  0  0  0  0  0
  145.8553  140.5841  152.4366 H   0  0  0  0  0  0  0  0  0  0  0  0
  147.3858  140.3363  151.5953 H   0  0  0  0  0  0  0  0  0  0  0  0
  145.3300  138.4350  151.7956 H   0  0  0  0  0  0  0  0  0  0  0  0
  147.0139  137.9978  151.5032 H   0  0  0  0  0  0  0  0  0  0  0  0
  145.5505  137.3491  153.8840 H   0  0  0  0  0  0  0  0  0  0  0  0
  147.2958  137.2079  153.6481 H   0  0  0  0  0  0  0  0  0  0  0  0
  1  2  1  0  0  0  0
  1 18  1  0  0  0  0
  1 19  1  0  0  0  0
  1 20  1  0  0  0  0
  2 17  1  0  0  0  0
  2  3  2  0  0  0  0
  3  4  1  0  0  0  0
  3 21  1  0  0  0  0
  4  5  2  0  0  0  0
  4 22  1  0  0  0  0
  5  6  1  0  0  0  0
  5 23  1  0  0  0  0
  6  7  1  0  0  0  0
  6 17  2  0  0  0  0
  7  8  1  0  0  0  0
  7 24  1  0  0  0  0
  8  9  1  0  0  0  0
  8 25  1  0  0  0  0
  8 26  1  0  0  0  0
  9 10  1  0  0  0  0
  9 27  1  0  0  0  0
  9 28  1  0  0  0  0
 10 11  1  0  0  0  0
 11 12  1  0  0  0  0
 11 29  1  0  0  0  0
 11 30  1  0  0  0  0
 12 16  1  0  0  0  0
 12 13  1  0  0  0  0
 12 31  1  0  0  0  0
 13 14  1  0  0  0  0
 13 32  1  0  0  0  0
 13 33  1  0  0  0  0
 14 15  1  0  0  0  0
 14 34  1  0  0  0  0
 14 35  1  0  0  0  0
 15 16  1  0  0  0  0
 15 36  1  0  0  0  0
 15 37  1  0  0  0  0
M  END
> <s_m_source_file>
AV-unprocessed.smi

> <i_m_source_file_index>
3198

> <i_lp_mmshare_version>
43012

> <i_f3d_flags>
0

> <s_epik_input>
W0NIM11jMVtjSF1bY0hdW2NIXWMobjEpW05IXVtDSDJdW0NIMl1PW0NIMl1bQ0BASF0yW0NIMl1bQ0gyXVtDSDJdTzI=

> <s_epik_cmdline>
J2VwaWtfcHl0aG9uJywgJy1waCcsICc3LjAnLCAnLXRuJywgJzgnLCAnLW1hJywgJzIwMCcsICctbWV0YWxfYmluZGluZycsICctaW1hZScsICc8aW5maWxlLm1hZT4nLCAnLW9tYWUnLCAnPG91dGZpbGUubWFlPic=

> <r_lp_tautomer_probability>
1

> <r_epik_Ionization_Penalty>
1.29225

> <r_epik_Ionization_Penalty_Charging>
0

> <r_epik_Ionization_Penalty_Neutral>
1.29225

> <r_epik_State_Penalty>
1.3654

> <r_epik_Charging_Adjusted_Penalty>
1.3654

> <i_epik_Tot_Q>
0

> <i_epik_Tot_abs_Q>
0

> <r_epik_Metal_State_Penalty>
0.00531989

> <b_epik_Metal_Only>
0

> <s_lp_Force_Field>
OPLS_2005

> <r_lp_Energy>
18.1736

> <b_lp_Chiralities_Consistent>
1

> <s_lp_Variant>
AV-unprocessed.smi:3198-3

> <Gold.Version>
5.8.1

> <Gold.Id.Protein>
6NUR|6NUR_protein|mol2

> <Gold.PLP.Fitness>
44.0489

> <Gold.PLP.PLP>
-41.5573

> <Gold.PLP.part.hbond>
-1.0000

> <Gold.PLP.part.metal>
0.0000

> <Gold.PLP.part.buried>
-0.8412

> <Gold.PLP.part.nonpolar>
-40.1364

> <Gold.PLP.part.repulsive>
0.3318

> <Gold.PLP.ligand.clash>
0.0000

> <Gold.PLP.ligand.torsion>
0.2795

> <Gold.PLP.Chemscore.Hbond>
1.0000

> <Gold.PLP.Chemscore.CHOScore>
0.0000

> <Gold.PLP.Chemscore.Metal>
0.0000

> <Gold.Chemscore.Hbonds>
donor molecule, donor type, donor heavy atom, donor atom, acceptor molecule, acceptor atom, score
      L1  H     7    24       P1  8028  1.00

> <Gold.PLP.Chemscore.Internal.Correction>
0.0506

> <Gold.Rescore>
     Score         DG    S(hbond)    S(metal)    S(lipo)     H(rot)  DE(clash)    DE(int)     intcor
     16.94     -17.47       1.00        0.00     109.58       1.63       0.45       0.07       ----

> <Gold.Chemscore.Fitness>
16.9441

> <Gold.Chemscore.DG>
-17.4652

> <Gold.Chemscore.ZeroCoef>
-5.4800

> <Gold.Chemscore.Hbond>
1.0000

> <Gold.Chemscore.Metal>
0.0000

> <Gold.Chemscore.Lipo>
109.5804

> <Gold.Chemscore.Internal_Hbond>
0.0000

> <Gold.Chemscore.DEClash>
0.4488

> <Gold.Chemscore.DEInternal>
0.0723

> <Gold.Chemscore.Rot>
1.6311

> <Gold.Chemscore.Internal.Correction>
   9.000000E+99

> <Gold.Chemscore.Hbonds>
donor molecule, donor type, donor heavy atom, donor atom, acceptor molecule, acceptor atom, score
      L1  H     7    24       P1  8028  1.00

> <Gold.Chemscore.Hbond.Weighted>
-3.3400

> <Gold.Chemscore.Metal.Weighted>
-0.0000

> <Gold.Chemscore.Lipo.Weighted>
-12.8209

> <Gold.Chemscore.Internal_Hbond.Weighted>
0.0000

> <Gold.Chemscore.DEClash.Weighted>
0.4488

> <Gold.Chemscore.DEInternal.Weighted>
0.0723

> <Gold.Chemscore.Rot.Weighted>
4.1757

> <Gold.Chemscore.Internal.Correction.Weighted>
   9.000000E+99

> <Gold.Protein.RotatedTorsions>
[ 6907 6896 6895 6894 ] final   76.03 input  -60.11 | X-H torsion
[ 7974 7965 7964 7962 ] final -158.35 input  175.53 | X-H torsion
[ 8008 7997 7996 7995 ] final   76.90 input   59.86 | X-H torsion
[ 10167 10162 10161 10158 ] final  112.26 input  -65.29 | X-H torsion
[ 10718 10713 10712 10709 ] final   36.81 input   66.30 | X-H torsion
[ 10763 10752 10751 10750 ] final   89.05 input  -60.55 | X-H torsion
[ 11005 11000 10999 10996 ] final  157.84 input  -57.11 | X-H torsion

> <Gold.Protein.ActiveResidues>
 VAL166  LYS551  ARG553  GLY616  TRP617  ASP618  TYR619  PRO620  LYS621  CYS622 
 ASP623  PHE694  ASN695  SER759  ASP760  ASP761  ALA762  ILE779  LEU786  VAL792 
 PHE793  MET794  SER795  GLU796  ALA797  LYS798  CYS799  TRP800  GLU811  SER814 

> <Gold.Protein.RotatedAtoms>
  152.5054  134.4031  159.9422 H   0  0  0  0  0  0  0  0  0  0  0  0  # atno 6907 bound_to 6896
  151.3995  133.3756  159.2738 H   0  0  0  0  0  0  0  0  0  0  0  0  # atno 6908 bound_to 6896
  150.9372  134.8805  159.7648 H   0  0  0  0  0  0  0  0  0  0  0  0  # atno 6909 bound_to 6896
  144.7509  140.3840  143.6048 H   0  0  0  0  0  0  0  0  0  0  0  0  # atno 7974 bound_to 7965
  155.8339  140.3465  155.5589 H   0  0  0  0  0  0  0  0  0  0  0  0  # atno 8008 bound_to 7997
  155.8213  140.0913  157.1867 H   0  0  0  0  0  0  0  0  0  0  0  0  # atno 8009 bound_to 7997
  154.4004  140.1429  156.3490 H   0  0  0  0  0  0  0  0  0  0  0  0  # atno 8010 bound_to 7997
  139.6549  144.7129  151.1977 H   0  0  0  0  0  0  0  0  0  0  0  0  # atno 10167 bound_to 10162
  157.3394  130.7540  149.6901 H   0  0  0  0  0  0  0  0  0  0  0  0  # atno 10718 bound_to 10713
  153.1831  135.4484  155.0054 H   0  0  0  0  0  0  0  0  0  0  0  0  # atno 10763 bound_to 10752
  154.8043  135.3268  154.7474 H   0  0  0  0  0  0  0  0  0  0  0  0  # atno 10764 bound_to 10752
  153.7936  135.6968  153.4922 H   0  0  0  0  0  0  0  0  0  0  0  0  # atno 10765 bound_to 10752
  140.1808  134.8477  157.2800 H   0  0  0  0  0  0  0  0  0  0  0  0  # atno 11005 bound_to 11000
  145.6947  139.1647  143.2627 LP  0  0  0  0  0  0  0  0  0  0  0  0  # atno 17320 bound_to 7965
  146.1458  140.6995  142.9345 LP  0  0  0  0  0  0  0  0  0  0  0  0  # atno 17321 bound_to 7965
  140.7554  143.6089  150.8625 LP  0  0  0  0  0  0  0  0  0  0  0  0  # atno 17342 bound_to 10162
  139.9741  143.6024  152.2964 LP  0  0  0  0  0  0  0  0  0  0  0  0  # atno 17343 bound_to 10162
  155.9705  130.4172  150.4268 LP  0  0  0  0  0  0  0  0  0  0  0  0  # atno 17370 bound_to 10713
  157.2313  131.0505  151.2490 LP  0  0  0  0  0  0  0  0  0  0  0  0  # atno 17371 bound_to 10713
  140.2270  134.3955  155.7539 LP  0  0  0  0  0  0  0  0  0  0  0  0  # atno 17394 bound_to 11000
  141.2223  133.7195  156.8580 LP  0  0  0  0  0  0  0  0  0  0  0  0  # atno 17395 bound_to 11000

$$$$
