AV-unprocessed.smi:1038|AV-procd|sdf|4521|dock10
  -GOLD-   22720 2533D 1   1.00000     0.00000
 Structure written by MMmdl.
 57 58  0  0  0  0  0  0  0  0  2 V2000
  150.2607  138.7822  154.7415 C   0  0  0  0  0  0  0  0  0  0  0  0
  150.7545  140.0483  155.1409 O   0  0  0  0  0  0  0  0  0  0  0  0
  150.1531  140.5143  156.3376 C   0  0  0  0  0  0  0  0  0  0  0  0
  150.7883  141.8500  156.7567 C   0  0  0  0  0  0  0  0  0  0  0  0
  151.6999  141.6882  157.8986 N   0  0  0  0  0  0  0  0  0  0  0  0
  152.3025  140.4246  158.0540 C   0  0  0  0  0  0  0  0  0  0  0  0
  153.1560  140.1504  159.0597 C   0  0  0  0  0  0  0  0  0  0  0  0
  153.7475  138.8147  159.1648 C   0  0  0  0  0  0  0  0  0  0  0  0
  153.4148  137.8446  158.4823 O   0  0  0  0  0  0  0  0  0  0  0  0
  154.7112  138.7241  160.0949 N   0  0  0  0  0  0  0  0  0  0  0  0
  155.4621  137.5118  160.4079 C   0  0  0  0  0  0  0  0  0  0  0  0
  155.6844  137.3097  161.9409 C   0  0  0  0  0  0  0  0  0  0  0  0
  156.3925  135.9997  162.1838 N   0  3  0  0  0  0  0  0  0  0  0  0
  157.7749  135.9002  161.6443 C   0  0  0  0  0  0  0  0  0  0  0  0
  155.6233  134.7810  161.8166 C   0  0  0  0  0  0  0  0  0  0  0  0
  156.5169  138.5299  162.4577 C   0  0  0  0  0  0  0  0  0  0  0  0
  156.9975  138.5132  163.9207 C   0  0  0  0  0  0  0  0  0  0  0  0
  155.8806  138.4562  164.9705 C   0  0  0  0  0  0  0  0  0  0  0  0
  155.2599  137.0597  165.0784 C   0  0  0  0  0  0  0  0  0  0  0  0
  154.1403  136.7660  164.0690 C   0  0  0  0  0  0  0  0  0  0  0  0
  154.2859  137.3363  162.6386 C   0  0  0  0  0  0  0  0  0  0  0  0
  153.4459  141.2239  159.9991 C   0  0  0  0  0  0  0  0  0  0  0  0
  152.8761  142.4358  159.8517 C   0  0  0  0  0  0  0  0  0  0  0  0
  151.9488  142.7250  158.7541 C   0  0  0  0  0  0  0  0  0  0  0  0
  151.4299  143.8328  158.6158 O   0  0  0  0  0  0  0  0  0  0  0  0
  150.7593  138.4666  153.8251 H   0  0  0  0  0  0  0  0  0  0  0  0
  149.1884  138.8213  154.5454 H   0  0  0  0  0  0  0  0  0  0  0  0
  150.4497  138.0265  155.5051 H   0  0  0  0  0  0  0  0  0  0  0  0
  149.0846  140.6591  156.1707 H   0  0  0  0  0  0  0  0  0  0  0  0
  150.2592  139.7747  157.1331 H   0  0  0  0  0  0  0  0  0  0  0  0
  151.2862  142.3121  155.9026 H   0  0  0  0  0  0  0  0  0  0  0  0
  149.9972  142.5500  157.0292 H   0  0  0  0  0  0  0  0  0  0  0  0
  152.0212  139.7045  157.2979 H   0  0  0  0  0  0  0  0  0  0  0  0
  154.9379  139.5543  160.6230 H   0  0  0  0  0  0  0  0  0  0  0  0
  154.9153  136.6723  159.9773 H   0  0  0  0  0  0  0  0  0  0  0  0
  156.4164  137.5644  159.8827 H   0  0  0  0  0  0  0  0  0  0  0  0
  157.7840  135.9178  160.5546 H   0  0  0  0  0  0  0  0  0  0  0  0
  158.2294  134.9593  161.9565 H   0  0  0  0  0  0  0  0  0  0  0  0
  158.4324  136.6887  162.0035 H   0  0  0  0  0  0  0  0  0  0  0  0
  155.5730  134.6502  160.7354 H   0  0  0  0  0  0  0  0  0  0  0  0
  154.6060  134.7824  162.2018 H   0  0  0  0  0  0  0  0  0  0  0  0
  156.1125  133.8965  162.2258 H   0  0  0  0  0  0  0  0  0  0  0  0
  157.3892  138.6732  161.8192 H   0  0  0  0  0  0  0  0  0  0  0  0
  155.9411  139.4465  162.3255 H   0  0  0  0  0  0  0  0  0  0  0  0
  157.7024  137.6998  164.0893 H   0  0  0  0  0  0  0  0  0  0  0  0
  157.5710  139.4256  164.0891 H   0  0  0  0  0  0  0  0  0  0  0  0
  156.3200  138.7054  165.9371 H   0  0  0  0  0  0  0  0  0  0  0  0
  155.1197  139.2150  164.7837 H   0  0  0  0  0  0  0  0  0  0  0  0
  156.0418  136.3041  164.9963 H   0  0  0  0  0  0  0  0  0  0  0  0
  154.8485  136.9329  166.0805 H   0  0  0  0  0  0  0  0  0  0  0  0
  154.0018  135.6861  164.0256 H   0  0  0  0  0  0  0  0  0  0  0  0
  153.2035  137.1486  164.4761 H   0  0  0  0  0  0  0  0  0  0  0  0
  153.9232  138.3649  162.6577 H   0  0  0  0  0  0  0  0  0  0  0  0
  153.5586  136.8150  162.0149 H   0  0  0  0  0  0  0  0  0  0  0  0
  154.1210  141.0790  160.8296 H   0  0  0  0  0  0  0  0  0  0  0  0
  153.1073  143.2175  160.5606 H   0  0  0  0  0  0  0  0  0  0  0  0
  156.4977  135.9538  163.1875 H   0  0  0  0  0  0  0  0  0  0  0  0
  1  2  1  0  0  0  0
  1 26  1  0  0  0  0
  1 27  1  0  0  0  0
  1 28  1  0  0  0  0
  2  3  1  0  0  0  0
  3  4  1  0  0  0  0
  3 29  1  0  0  0  0
  3 30  1  0  0  0  0
  4  5  1  0  0  0  0
  4 31  1  0  0  0  0
  4 32  1  0  0  0  0
  5 24  1  0  0  0  0
  5  6  1  0  0  0  0
  6  7  2  0  0  0  0
  6 33  1  0  0  0  0
  7  8  1  0  0  0  0
  7 22  1  0  0  0  0
  8  9  2  0  0  0  0
  8 10  1  0  0  0  0
 10 11  1  0  0  0  0
 10 34  1  0  0  0  0
 11 12  1  0  0  0  0
 11 35  1  0  0  0  0
 11 36  1  0  0  0  0
 12 21  1  0  0  0  0
 12 13  1  0  0  0  0
 12 16  1  0  0  0  0
 13 14  1  0  0  0  0
 13 15  1  0  0  0  0
 13 57  1  0  0  0  0
 14 37  1  0  0  0  0
 14 38  1  0  0  0  0
 14 39  1  0  0  0  0
 15 40  1  0  0  0  0
 15 41  1  0  0  0  0
 15 42  1  0  0  0  0
 16 17  1  0  0  0  0
 16 43  1  0  0  0  0
 16 44  1  0  0  0  0
 17 18  1  0  0  0  0
 17 45  1  0  0  0  0
 17 46  1  0  0  0  0
 18 19  1  0  0  0  0
 18 47  1  0  0  0  0
 18 48  1  0  0  0  0
 19 20  1  0  0  0  0
 19 49  1  0  0  0  0
 19 50  1  0  0  0  0
 20 21  1  0  0  0  0
 20 51  1  0  0  0  0
 20 52  1  0  0  0  0
 21 53  1  0  0  0  0
 21 54  1  0  0  0  0
 22 23  2  0  0  0  0
 22 55  1  0  0  0  0
 23 24  1  0  0  0  0
 23 56  1  0  0  0  0
 24 25  2  0  0  0  0
M  CHG  1  13   1
M  END
> <s_m_source_file>
AV-unprocessed.smi

> <i_m_source_file_index>
1038

> <i_lp_mmshare_version>
43012

> <i_f3d_flags>
0

> <s_epik_input>
W0NIM11PW0NIMl1bQ0gyXW4xW2NIXWMoW2NIXVtjSF1jMT1PKUMoPU8pW05IXVtDSDJdQzIoTihbQ0gzXSlbQ0gzXSlbQ0gyXVtDSDJdW0NIMl1bQ0gyXVtDSDJdW0NIMl0y

> <s_epik_cmdline>
J2VwaWtfcHl0aG9uJywgJy1waCcsICc3LjAnLCAnLXRuJywgJzgnLCAnLW1hJywgJzIwMCcsICctbWV0YWxfYmluZGluZycsICctaW1hZScsICc8aW5maWxlLm1hZT4nLCAnLW9tYWUnLCAnPG91dGZpbGUubWFlPic=

> <r_lp_tautomer_probability>
1

> <r_epik_Ionization_Penalty>
0.00379096

> <r_epik_Ionization_Penalty_Charging>
0.0037899

> <r_epik_Ionization_Penalty_Neutral>
1.06849e-06

> <r_epik_State_Penalty>
0.00270348

> <r_epik_Charging_Adjusted_Penalty>
0.00649338

> <i_epik_Tot_Q>
1

> <i_epik_Tot_abs_Q>
1

> <r_epik_Metal_State_Penalty>
-0

> <b_epik_Metal_Only>
0

> <s_lp_Force_Field>
OPLS_2005

> <r_lp_Energy>
50.9414

> <b_lp_Chiralities_Consistent>
1

> <s_lp_Variant>
AV-unprocessed.smi:1038-1

> <Gold.Version>
5.8.1

> <Gold.Id.Protein>
6NUR|6NUR_protein|mol2

> <Gold.PLP.Fitness>
41.3480

> <Gold.PLP.PLP>
-39.9022

> <Gold.PLP.part.hbond>
-1.0000

> <Gold.PLP.part.metal>
0.0000

> <Gold.PLP.part.buried>
-2.8701

> <Gold.PLP.part.nonpolar>
-35.9599

> <Gold.PLP.part.repulsive>
0.1834

> <Gold.PLP.ligand.clash>
0.0000

> <Gold.PLP.ligand.torsion>
0.8968

> <Gold.PLP.Chemscore.Hbond>
1.0000

> <Gold.PLP.Chemscore.CHOScore>
0.0000

> <Gold.PLP.Chemscore.Metal>
0.0000

> <Gold.Chemscore.Hbonds>
donor molecule, donor type, donor heavy atom, donor atom, acceptor molecule, acceptor atom, score
      P1  H  7989  7998       L1     2  0.99

> <Gold.PLP.Chemscore.Internal.Correction>
0.2395

> <Gold.Rescore>
     Score         DG    S(hbond)    S(metal)    S(lipo)     H(rot)  DE(clash)    DE(int)     intcor
     15.18     -16.12       0.96        0.00     104.39       1.86       0.02       0.91       ----

> <Gold.Chemscore.Fitness>
15.1831

> <Gold.Chemscore.DG>
-16.1171

> <Gold.Chemscore.ZeroCoef>
-5.4800

> <Gold.Chemscore.Hbond>
0.9575

> <Gold.Chemscore.Metal>
0.0000

> <Gold.Chemscore.Lipo>
104.3855

> <Gold.Chemscore.Internal_Hbond>
0.0000

> <Gold.Chemscore.DEClash>
0.0234

> <Gold.Chemscore.DEInternal>
0.9105

> <Gold.Chemscore.Rot>
1.8649

> <Gold.Chemscore.Internal.Correction>
   9.000000E+99

> <Gold.Chemscore.Hbonds>
donor molecule, donor type, donor heavy atom, donor atom, acceptor molecule, acceptor atom, score
      P1  H  7989  7998       L1     2  0.56

> <Gold.Chemscore.Hbond.Weighted>
-3.1980

> <Gold.Chemscore.Metal.Weighted>
-0.0000

> <Gold.Chemscore.Lipo.Weighted>
-12.2131

> <Gold.Chemscore.Internal_Hbond.Weighted>
0.0000

> <Gold.Chemscore.DEClash.Weighted>
0.0234

> <Gold.Chemscore.DEInternal.Weighted>
0.9105

> <Gold.Chemscore.Rot.Weighted>
4.7741

> <Gold.Chemscore.Internal.Correction.Weighted>
   9.000000E+99

> <Gold.Protein.RotatedTorsions>
[ 6907 6896 6895 6894 ] final   56.67 input  -60.11 | X-H torsion
[ 7974 7965 7964 7962 ] final   21.51 input  175.53 | X-H torsion
[ 8008 7997 7996 7995 ] final    1.44 input   59.86 | X-H torsion
[ 10167 10162 10161 10158 ] final   59.00 input  -65.29 | X-H torsion
[ 10718 10713 10712 10709 ] final  -18.39 input   66.30 | X-H torsion
[ 10763 10752 10751 10750 ] final -131.91 input  -60.55 | X-H torsion
[ 11005 11000 10999 10996 ] final -145.63 input  -57.11 | X-H torsion

> <Gold.Protein.ActiveResidues>
 VAL166  LYS551  ARG553  GLY616  TRP617  ASP618  TYR619  PRO620  LYS621  CYS622 
 ASP623  PHE694  ASN695  SER759  ASP760  ASP761  ALA762  ILE779  LEU786  VAL792 
 PHE793  MET794  SER795  GLU796  ALA797  LYS798  CYS799  TRP800  GLU811  SER814 

> <Gold.Protein.RotatedAtoms>
  152.3658  134.6806  160.0192 H   0  0  0  0  0  0  0  0  0  0  0  0  # atno 6907 bound_to 6896
  151.7115  133.3307  159.3300 H   0  0  0  0  0  0  0  0  0  0  0  0  # atno 6908 bound_to 6896
  150.7637  134.6462  159.6308 H   0  0  0  0  0  0  0  0  0  0  0  0  # atno 6909 bound_to 6896
  146.2068  139.8016  142.8720 H   0  0  0  0  0  0  0  0  0  0  0  0  # atno 7974 bound_to 7965
  154.6798  140.2630  155.6920 H   0  0  0  0  0  0  0  0  0  0  0  0  # atno 8008 bound_to 7997
  156.2692  140.2812  156.1261 H   0  0  0  0  0  0  0  0  0  0  0  0  # atno 8009 bound_to 7997
  155.1048  140.0375  157.2697 H   0  0  0  0  0  0  0  0  0  0  0  0  # atno 8010 bound_to 7997
  140.1812  144.4180  150.6614 H   0  0  0  0  0  0  0  0  0  0  0  0  # atno 10167 bound_to 10162
  156.5602  130.4723  149.6410 H   0  0  0  0  0  0  0  0  0  0  0  0  # atno 10718 bound_to 10713
  154.8747  135.3814  154.4324 H   0  0  0  0  0  0  0  0  0  0  0  0  # atno 10763 bound_to 10752
  153.5017  135.7030  153.5833 H   0  0  0  0  0  0  0  0  0  0  0  0  # atno 10764 bound_to 10752
  153.4162  135.3912  155.2049 H   0  0  0  0  0  0  0  0  0  0  0  0  # atno 10765 bound_to 10752
  140.7903  134.2976  157.5016 H   0  0  0  0  0  0  0  0  0  0  0  0  # atno 11005 bound_to 11000
  145.3290  141.0262  143.3457 LP  0  0  0  0  0  0  0  0  0  0  0  0  # atno 17320 bound_to 7965
  144.8812  139.4901  143.6722 LP  0  0  0  0  0  0  0  0  0  0  0  0  # atno 17321 bound_to 7965
  140.6518  143.2227  151.6059 LP  0  0  0  0  0  0  0  0  0  0  0  0  # atno 17342 bound_to 10162
  139.5295  144.2957  152.1115 LP  0  0  0  0  0  0  0  0  0  0  0  0  # atno 17343 bound_to 10162
  156.2806  130.7069  151.1892 LP  0  0  0  0  0  0  0  0  0  0  0  0  # atno 17370 bound_to 10713
  157.7370  131.0556  150.5381 LP  0  0  0  0  0  0  0  0  0  0  0  0  # atno 17371 bound_to 10713
  139.8732  134.9370  156.3676 LP  0  0  0  0  0  0  0  0  0  0  0  0  # atno 17394 bound_to 11000
  140.9396  133.7523  156.0130 LP  0  0  0  0  0  0  0  0  0  0  0  0  # atno 17395 bound_to 11000

$$$$
