AV-unprocessed.smi:777|AV-procd|sdf|3702|dock2
  -GOLD-   22720 1123D 1   1.00000     0.00000
 Structure written by MMmdl.
 37 38  0  0  0  0  0  0  0  0  2 V2000
  153.1929  141.1519  161.1815 C   0  0  0  0  0  0  0  0  0  0  0  0
  152.7229  141.7123  159.8230 C   0  0  1  0  0  0  0  0  0  0  0  0
  151.5993  140.8825  159.1794 C   0  0  0  0  0  0  0  0  0  0  0  0
  150.4709  141.3571  159.0534 O   0  0  0  0  0  0  0  0  0  0  0  0
  151.9578  139.6448  158.7890 N   0  0  0  0  0  0  0  0  0  0  0  0
  151.2651  138.6145  157.9980 C   0  0  0  0  0  0  0  0  0  0  0  0
  151.2180  137.3551  158.8976 C   0  0  0  0  0  0  0  0  0  0  0  0
  150.0997  136.8497  159.1428 O   0  0  0  0  0  0  0  0  0  0  0  0
  152.2988  136.9318  159.3671 O   0  5  0  0  0  0  0  0  0  0  0  0
  149.8281  138.9782  157.4988 C   0  0  0  0  0  0  0  0  0  0  0  0
  149.8012  140.0738  156.4137 C   0  0  0  0  0  0  0  0  0  0  0  0
  150.7063  139.7152  155.2298 C   0  0  0  0  0  0  0  0  0  0  0  0
  152.1352  139.4339  155.7071 C   0  0  0  0  0  0  0  0  0  0  0  0
  152.1575  138.3114  156.7593 C   0  0  0  0  0  0  0  0  0  0  0  0
  152.3225  143.1129  159.9162 N   0  0  0  0  0  0  0  0  0  0  0  0
  152.0518  143.9873  158.8828 C   0  0  0  0  0  0  0  0  0  0  0  0
  151.6626  145.1723  159.4378 C   0  0  0  0  0  0  0  0  0  0  0  0
  151.7127  144.9221  160.8369 C   0  0  0  0  0  0  0  0  0  0  0  0
  152.1005  143.6900  161.1204 N   0  0  0  0  0  0  0  0  0  0  0  0
  153.5552  140.1282  161.0808 H   0  0  0  0  0  0  0  0  0  0  0  0
  152.3919  141.1473  161.9220 H   0  0  0  0  0  0  0  0  0  0  0  0
  154.0117  141.7481  161.5852 H   0  0  0  0  0  0  0  0  0  0  0  0
  153.5760  141.6675  159.1440 H   0  0  0  0  0  0  0  0  0  0  0  0
  152.9064  139.3910  159.0216 H   0  0  0  0  0  0  0  0  0  0  0  0
  149.3716  138.0850  157.0690 H   0  0  0  0  0  0  0  0  0  0  0  0
  149.1713  139.2551  158.3232 H   0  0  0  0  0  0  0  0  0  0  0  0
  148.7786  140.2187  156.0651 H   0  0  0  0  0  0  0  0  0  0  0  0
  150.1169  141.0306  156.8281 H   0  0  0  0  0  0  0  0  0  0  0  0
  150.3106  138.8380  154.7162 H   0  0  0  0  0  0  0  0  0  0  0  0
  150.7081  140.5279  154.5029 H   0  0  0  0  0  0  0  0  0  0  0  0
  152.7589  139.1549  154.8576 H   0  0  0  0  0  0  0  0  0  0  0  0
  152.5713  140.3432  156.1236 H   0  0  0  0  0  0  0  0  0  0  0  0
  153.1922  138.1388  157.0606 H   0  0  0  0  0  0  0  0  0  0  0  0
  151.8258  137.3866  156.2833 H   0  0  0  0  0  0  0  0  0  0  0  0
  152.1536  143.6942  157.8484 H   0  0  0  0  0  0  0  0  0  0  0  0
  151.3776  146.0774  158.9224 H   0  0  0  0  0  0  0  0  0  0  0  0
  151.4754  145.5929  161.6493 H   0  0  0  0  0  0  0  0  0  0  0  0
  1  2  1  0  0  0  0
  1 20  1  0  0  0  0
  1 21  1  0  0  0  0
  1 22  1  0  0  0  0
  2  3  1  0  0  0  0
  2 15  1  0  0  0  0
  2 23  1  0  0  0  0
  3  4  2  0  0  0  0
  3  5  1  0  0  0  0
  5  6  1  0  0  0  0
  5 24  1  0  0  0  0
  6 14  1  0  0  0  0
  6  7  1  0  0  0  0
  6 10  1  0  0  0  0
  7  8  2  0  0  0  0
  7  9  1  0  0  0  0
 10 11  1  0  0  0  0
 10 25  1  0  0  0  0
 10 26  1  0  0  0  0
 11 12  1  0  0  0  0
 11 27  1  0  0  0  0
 11 28  1  0  0  0  0
 12 13  1  0  0  0  0
 12 29  1  0  0  0  0
 12 30  1  0  0  0  0
 13 14  1  0  0  0  0
 13 31  1  0  0  0  0
 13 32  1  0  0  0  0
 14 33  1  0  0  0  0
 14 34  1  0  0  0  0
 15 19  1  0  0  0  0
 15 16  1  0  0  0  0
 16 17  2  0  0  0  0
 16 35  1  0  0  0  0
 17 18  1  0  0  0  0
 17 36  1  0  0  0  0
 18 19  2  0  0  0  0
 18 37  1  0  0  0  0
M  CHG  1   9  -1
M  END
> <s_m_source_file>
AV-unprocessed.smi

> <i_m_source_file_index>
777

> <i_lp_mmshare_version>
43012

> <i_f3d_flags>
0

> <s_epik_input>
bjFbY0hdW2NIXVtjSF1uMVtDQEhdKFtDSDNdKUMoPU8pW05IXUMyKEMoPU8pW09IXSlbQ0gyXVtDSDJdW0NIMl1bQ0gyXVtDSDJdMg==

> <s_epik_cmdline>
J2VwaWtfcHl0aG9uJywgJy1waCcsICc3LjAnLCAnLXRuJywgJzgnLCAnLW1hJywgJzIwMCcsICctbWV0YWxfYmluZGluZycsICctaW1hZScsICc8aW5maWxlLm1hZT4nLCAnLW9tYWUnLCAnPG91dGZpbGUubWFlPic=

> <r_lp_tautomer_probability>
1

> <r_epik_Ionization_Penalty>
0.000371068

> <r_epik_Ionization_Penalty_Charging>
0.000323848

> <r_epik_Ionization_Penalty_Neutral>
4.72198e-05

> <r_epik_State_Penalty>
0.000195685

> <r_epik_Charging_Adjusted_Penalty>
0.000519533

> <i_epik_Tot_Q>
-1

> <i_epik_Tot_abs_Q>
1

> <r_epik_Metal_State_Penalty>
-0

> <b_epik_Metal_Only>
0

> <s_lp_Force_Field>
OPLS_2005

> <r_lp_Energy>
12.5044

> <b_lp_Chiralities_Consistent>
1

> <s_lp_Variant>
AV-unprocessed.smi:777-2

> <Gold.Version>
5.8.1

> <Gold.Id.Protein>
6NUR|6NUR_protein|mol2

> <Gold.PLP.Fitness>
46.6033

> <Gold.PLP.PLP>
-41.2379

> <Gold.PLP.part.hbond>
-1.4158

> <Gold.PLP.part.metal>
0.0000

> <Gold.PLP.part.buried>
-5.7947

> <Gold.PLP.part.nonpolar>
-34.2305

> <Gold.PLP.part.repulsive>
0.1871

> <Gold.PLP.ligand.clash>
0.0000

> <Gold.PLP.ligand.torsion>
0.4162

> <Gold.PLP.Chemscore.Hbond>
2.0000

> <Gold.PLP.Chemscore.CHOScore>
0.0000

> <Gold.PLP.Chemscore.Metal>
0.0000

> <Gold.Chemscore.Hbonds>
donor molecule, donor type, donor heavy atom, donor atom, acceptor molecule, acceptor atom, score
      P1  H  6896  6907       L1     8  0.53

> <Gold.PLP.Chemscore.Internal.Correction>
0.1978

> <Gold.Rescore>
     Score         DG    S(hbond)    S(metal)    S(lipo)     H(rot)  DE(clash)    DE(int)     intcor
     12.64     -14.45       0.98        0.00      91.82       1.98       0.00       1.81       ----

> <Gold.Chemscore.Fitness>
12.6371

> <Gold.Chemscore.DG>
-14.4480

> <Gold.Chemscore.ZeroCoef>
-5.4800

> <Gold.Chemscore.Hbond>
0.9841

> <Gold.Chemscore.Metal>
0.0000

> <Gold.Chemscore.Lipo>
91.8217

> <Gold.Chemscore.Internal_Hbond>
0.0000

> <Gold.Chemscore.DEClash>
0.0019

> <Gold.Chemscore.DEInternal>
1.8090

> <Gold.Chemscore.Rot>
1.9774

> <Gold.Chemscore.Internal.Correction>
   9.000000E+99

> <Gold.Chemscore.Hbonds>
donor molecule, donor type, donor heavy atom, donor atom, acceptor molecule, acceptor atom, score
      P1  H  6896  6907       L1     8  0.01

> <Gold.Chemscore.Hbond.Weighted>
-3.2869

> <Gold.Chemscore.Metal.Weighted>
-0.0000

> <Gold.Chemscore.Lipo.Weighted>
-10.7431

> <Gold.Chemscore.Internal_Hbond.Weighted>
0.0000

> <Gold.Chemscore.DEClash.Weighted>
0.0019

> <Gold.Chemscore.DEInternal.Weighted>
1.8090

> <Gold.Chemscore.Rot.Weighted>
5.0620

> <Gold.Chemscore.Internal.Correction.Weighted>
   9.000000E+99

> <Gold.Protein.RotatedTorsions>
[ 6907 6896 6895 6894 ] final  -26.15 input  -60.11 | X-H torsion
[ 7974 7965 7964 7962 ] final -178.67 input  175.53 | X-H torsion
[ 8008 7997 7996 7995 ] final   90.62 input   59.86 | X-H torsion
[ 10167 10162 10161 10158 ] final   23.02 input  -65.29 | X-H torsion
[ 10718 10713 10712 10709 ] final  -85.46 input   66.30 | X-H torsion
[ 10763 10752 10751 10750 ] final -104.40 input  -60.55 | X-H torsion
[ 11005 11000 10999 10996 ] final   -9.50 input  -57.11 | X-H torsion

> <Gold.Protein.ActiveResidues>
 VAL166  LYS551  ARG553  GLY616  TRP617  ASP618  TYR619  PRO620  LYS621  CYS622 
 ASP623  PHE694  ASN695  SER759  ASP760  ASP761  ALA762  ILE779  LEU786  VAL792 
 PHE793  MET794  SER795  GLU796  ALA797  LYS798  CYS799  TRP800  GLU811  SER814 

> <Gold.Protein.RotatedAtoms>
  151.1650  135.0291  159.8726 H   0  0  0  0  0  0  0  0  0  0  0  0  # atno 6907 bound_to 6896
  152.5450  134.1236  159.8419 H   0  0  0  0  0  0  0  0  0  0  0  0  # atno 6908 bound_to 6896
  151.1335  133.4974  159.2631 H   0  0  0  0  0  0  0  0  0  0  0  0  # atno 6909 bound_to 6896
  144.7132  140.0834  143.6424 H   0  0  0  0  0  0  0  0  0  0  0  0  # atno 7974 bound_to 7965
  156.0141  140.3347  155.6971 H   0  0  0  0  0  0  0  0  0  0  0  0  # atno 8008 bound_to 7997
  155.6115  140.0666  157.2722 H   0  0  0  0  0  0  0  0  0  0  0  0  # atno 8009 bound_to 7997
  154.4292  140.1792  156.1265 H   0  0  0  0  0  0  0  0  0  0  0  0  # atno 8010 bound_to 7997
  140.5303  143.9854  150.6462 H   0  0  0  0  0  0  0  0  0  0  0  0  # atno 10167 bound_to 10162
  155.9996  130.4732  150.4565 H   0  0  0  0  0  0  0  0  0  0  0  0  # atno 10718 bound_to 10713
  154.7875  135.4787  153.9979 H   0  0  0  0  0  0  0  0  0  0  0  0  # atno 10763 bound_to 10752
  153.1582  135.6804  153.8788 H   0  0  0  0  0  0  0  0  0  0  0  0  # atno 10764 bound_to 10752
  153.8410  135.3179  155.3404 H   0  0  0  0  0  0  0  0  0  0  0  0  # atno 10765 bound_to 10752
  140.7348  133.8719  155.8921 H   0  0  0  0  0  0  0  0  0  0  0  0  # atno 11005 bound_to 11000
  145.9682  139.2850  143.1114 LP  0  0  0  0  0  0  0  0  0  0  0  0  # atno 17320 bound_to 7965
  145.9145  140.9157  143.0436 LP  0  0  0  0  0  0  0  0  0  0  0  0  # atno 17321 bound_to 7965
  140.3226  143.3127  152.0768 LP  0  0  0  0  0  0  0  0  0  0  0  0  # atno 17342 bound_to 10162
  139.4952  144.6563  151.6565 LP  0  0  0  0  0  0  0  0  0  0  0  0  # atno 17343 bound_to 10162
  157.2594  131.0563  151.2330 LP  0  0  0  0  0  0  0  0  0  0  0  0  # atno 17370 bound_to 10713
  157.3450  130.7053  149.6405 LP  0  0  0  0  0  0  0  0  0  0  0  0  # atno 17371 bound_to 10713
  140.9889  134.1306  157.4427 LP  0  0  0  0  0  0  0  0  0  0  0  0  # atno 17394 bound_to 11000
  139.8818  135.0034  156.6185 LP  0  0  0  0  0  0  0  0  0  0  0  0  # atno 17395 bound_to 11000

$$$$
