AV-unprocessed.smi:3321|AV-procd|sdf|12772|dock8
  -GOLD-   2272019113D 1   1.00000     0.00000
 Structure written by MMmdl.
 40 41  0  0  0  0  0  0  0  0  1 V2000
  152.2504  139.2569  155.0108 C   0  0  0  0  0  0  0  0  0  0  0  0
  151.4982  140.2349  155.9272 C   0  0  1  0  0  0  0  0  0  0  0  0
  150.0780  139.8440  155.9936 N   0  0  0  0  0  0  0  0  0  0  0  0
  149.4828  139.5534  154.6920 C   0  0  0  0  0  0  0  0  0  0  0  0
  147.9594  139.3923  154.8296 C   0  0  0  0  0  0  0  0  0  0  0  0
  147.2472  140.6420  154.6290 N   0  0  0  0  0  0  0  0  0  0  0  0
  147.2317  141.4486  153.5106 C   0  0  0  0  0  0  0  0  0  0  0  0
  146.4281  142.5163  153.7909 C   0  0  0  0  0  0  0  0  0  0  0  0
  145.9904  142.2689  155.1221 C   0  0  0  0  0  0  0  0  0  0  0  0
  146.4811  141.1455  155.6207 N   0  0  0  0  0  0  0  0  0  0  0  0
  152.1857  140.2966  157.3117 C   0  0  0  0  0  0  0  0  0  0  0  0
  153.0887  139.4905  157.5456 O   0  0  0  0  0  0  0  0  0  0  0  0
  151.7958  141.2187  158.2283 N   0  0  0  0  0  0  0  0  0  0  0  0
  150.8253  142.2770  157.9157 C   0  0  0  0  0  0  0  0  0  0  0  0
  151.5693  143.6251  157.8680 C   0  0  0  0  0  0  0  0  0  0  0  0
  152.3225  143.8914  159.1862 C   0  0  0  0  0  0  0  0  0  0  0  0
  153.1783  142.6819  159.6110 C   0  0  0  0  0  0  0  0  0  0  0  0
  152.3427  141.3899  159.5815 C   0  0  0  0  0  0  0  0  0  0  0  0
  153.3020  139.5278  154.9099 H   0  0  0  0  0  0  0  0  0  0  0  0
  151.8197  139.2515  154.0090 H   0  0  0  0  0  0  0  0  0  0  0  0
  152.2071  138.2369  155.3949 H   0  0  0  0  0  0  0  0  0  0  0  0
  151.5164  141.2210  155.4653 H   0  0  0  0  0  0  0  0  0  0  0  0
  149.5253  140.5338  156.4825 H   0  0  0  0  0  0  0  0  0  0  0  0
  149.6900  140.3625  153.9916 H   0  0  0  0  0  0  0  0  0  0  0  0
  149.9199  138.6463  154.2719 H   0  0  0  0  0  0  0  0  0  0  0  0
  147.5847  138.6546  154.1187 H   0  0  0  0  0  0  0  0  0  0  0  0
  147.7154  139.0160  155.8240 H   0  0  0  0  0  0  0  0  0  0  0  0
  147.7909  141.1997  152.6209 H   0  0  0  0  0  0  0  0  0  0  0  0
  146.1904  143.3478  153.1443 H   0  0  0  0  0  0  0  0  0  0  0  0
  145.3354  142.8683  155.7369 H   0  0  0  0  0  0  0  0  0  0  0  0
  150.3011  142.1119  156.9738 H   0  0  0  0  0  0  0  0  0  0  0  0
  150.0505  142.3009  158.6832 H   0  0  0  0  0  0  0  0  0  0  0  0
  152.2780  143.6182  157.0388 H   0  0  0  0  0  0  0  0  0  0  0  0
  150.8674  144.4352  157.6686 H   0  0  0  0  0  0  0  0  0  0  0  0
  152.9456  144.7811  159.0924 H   0  0  0  0  0  0  0  0  0  0  0  0
  151.5966  144.1056  159.9717 H   0  0  0  0  0  0  0  0  0  0  0  0
  154.0317  142.5798  158.9392 H   0  0  0  0  0  0  0  0  0  0  0  0
  153.5856  142.8448  160.6092 H   0  0  0  0  0  0  0  0  0  0  0  0
  151.5176  141.4707  160.2906 H   0  0  0  0  0  0  0  0  0  0  0  0
  152.9285  140.5448  159.9365 H   0  0  0  0  0  0  0  0  0  0  0  0
  1  2  1  0  0  0  0
  1 19  1  0  0  0  0
  1 20  1  0  0  0  0
  1 21  1  0  0  0  0
  2  3  1  0  0  0  0
  2 11  1  0  0  0  0
  2 22  1  0  0  0  0
  3  4  1  0  0  0  0
  3 23  1  0  0  0  0
  4  5  1  0  0  0  0
  4 24  1  0  0  0  0
  4 25  1  0  0  0  0
  5  6  1  0  0  0  0
  5 26  1  0  0  0  0
  5 27  1  0  0  0  0
  6 10  1  0  0  0  0
  6  7  1  0  0  0  0
  7  8  2  0  0  0  0
  7 28  1  0  0  0  0
  8  9  1  0  0  0  0
  8 29  1  0  0  0  0
  9 10  2  0  0  0  0
  9 30  1  0  0  0  0
 11 12  2  0  0  0  0
 11 13  1  0  0  0  0
 13 18  1  0  0  0  0
 13 14  1  0  0  0  0
 14 15  1  0  0  0  0
 14 31  1  0  0  0  0
 14 32  1  0  0  0  0
 15 16  1  0  0  0  0
 15 33  1  0  0  0  0
 15 34  1  0  0  0  0
 16 17  1  0  0  0  0
 16 35  1  0  0  0  0
 16 36  1  0  0  0  0
 17 18  1  0  0  0  0
 17 37  1  0  0  0  0
 17 38  1  0  0  0  0
 18 39  1  0  0  0  0
 18 40  1  0  0  0  0
M  END
> <s_m_source_file>
AV-unprocessed.smi

> <i_m_source_file_index>
3321

> <i_lp_mmshare_version>
43012

> <i_f3d_flags>
0

> <s_epik_input>
W0NIMl0xW0NIMl1bQ0gyXVtDSDJdW0NIMl1OMUMoPU8pW0NASF0oW0NIM10pW05IXVtDSDJdW0NIMl1uMltjSF1bY0hdW2NIXW4y

> <s_epik_cmdline>
J2VwaWtfcHl0aG9uJywgJy1waCcsICc3LjAnLCAnLXRuJywgJzgnLCAnLW1hJywgJzIwMCcsICctbWV0YWxfYmluZGluZycsICctaW1hZScsICc8aW5maWxlLm1hZT4nLCAnLW9tYWUnLCAnPG91dGZpbGUubWFlPic=

> <r_lp_tautomer_probability>
1

> <r_epik_Ionization_Penalty>
0.736446

> <r_epik_Ionization_Penalty_Charging>
0

> <r_epik_Ionization_Penalty_Neutral>
0.736446

> <r_epik_State_Penalty>
0.761204

> <r_epik_Charging_Adjusted_Penalty>
0.761204

> <i_epik_Tot_Q>
0

> <i_epik_Tot_abs_Q>
0

> <r_epik_Metal_State_Penalty>
0.760551

> <b_epik_Metal_Only>
0

> <s_lp_Force_Field>
OPLS_2005

> <r_lp_Energy>
28.7251

> <b_lp_Chiralities_Consistent>
1

> <s_lp_Variant>
AV-unprocessed.smi:3321-4

> <Gold.Version>
5.8.1

> <Gold.Id.Protein>
6NUR|6NUR_protein|mol2

> <Gold.PLP.Fitness>
43.8940

> <Gold.PLP.PLP>
-38.6115

> <Gold.PLP.part.hbond>
-1.0000

> <Gold.PLP.part.metal>
0.0000

> <Gold.PLP.part.buried>
-4.3983

> <Gold.PLP.part.nonpolar>
-32.6146

> <Gold.PLP.part.repulsive>
0.0769

> <Gold.PLP.ligand.clash>
0.0000

> <Gold.PLP.ligand.torsion>
0.3988

> <Gold.PLP.Chemscore.Hbond>
1.0000

> <Gold.PLP.Chemscore.CHOScore>
0.9979

> <Gold.PLP.Chemscore.Metal>
0.0000

> <Gold.Chemscore.Hbonds>
donor molecule, donor type, donor heavy atom, donor atom, acceptor molecule, acceptor atom, score
      P1  H  7997  8008       L1    12  1.00
      L1  C     7    28       P1  7957  0.87

> <Gold.PLP.Chemscore.Internal.Correction>
0.0864

> <Gold.Rescore>
     Score         DG    S(hbond)    S(metal)    S(lipo)     H(rot)  DE(clash)    DE(int)     intcor
     15.35     -15.75       0.97        0.00      97.88       1.73       0.01       0.39       ----

> <Gold.Chemscore.Fitness>
15.3522

> <Gold.Chemscore.DG>
-15.7481

> <Gold.Chemscore.ZeroCoef>
-5.4800

> <Gold.Chemscore.Hbond>
0.9698

> <Gold.Chemscore.Metal>
0.0000

> <Gold.Chemscore.Lipo>
97.8778

> <Gold.Chemscore.Internal_Hbond>
0.0000

> <Gold.Chemscore.DEClash>
0.0082

> <Gold.Chemscore.DEInternal>
0.3876

> <Gold.Chemscore.Rot>
1.7277

> <Gold.Chemscore.Internal.Correction>
   9.000000E+99

> <Gold.Chemscore.Hbonds>
donor molecule, donor type, donor heavy atom, donor atom, acceptor molecule, acceptor atom, score
      P1  H  7997  8008       L1    12  0.70

> <Gold.Chemscore.Hbond.Weighted>
-3.2391

> <Gold.Chemscore.Metal.Weighted>
-0.0000

> <Gold.Chemscore.Lipo.Weighted>
-11.4517

> <Gold.Chemscore.Internal_Hbond.Weighted>
0.0000

> <Gold.Chemscore.DEClash.Weighted>
0.0082

> <Gold.Chemscore.DEInternal.Weighted>
0.3876

> <Gold.Chemscore.Rot.Weighted>
4.4228

> <Gold.Chemscore.Internal.Correction.Weighted>
   9.000000E+99

> <Gold.Protein.RotatedTorsions>
[ 6907 6896 6895 6894 ] final -117.94 input  -60.11 | X-H torsion
[ 7974 7965 7964 7962 ] final  109.68 input  175.53 | X-H torsion
[ 8008 7997 7996 7995 ] final  -75.78 input   59.86 | X-H torsion
[ 10167 10162 10161 10158 ] final  -81.83 input  -65.29 | X-H torsion
[ 10718 10713 10712 10709 ] final  -65.47 input   66.30 | X-H torsion
[ 10763 10752 10751 10750 ] final -135.87 input  -60.55 | X-H torsion
[ 11005 11000 10999 10996 ] final  -71.80 input  -57.11 | X-H torsion

> <Gold.Protein.ActiveResidues>
 VAL166  LYS551  ARG553  GLY616  TRP617  ASP618  TYR619  PRO620  LYS621  CYS622 
 ASP623  PHE694  ASN695  SER759  ASP760  ASP761  ALA762  ILE779  LEU786  VAL792 
 PHE793  MET794  SER795  GLU796  ALA797  LYS798  CYS799  TRP800  GLU811  SER814 

> <Gold.Protein.RotatedAtoms>
  150.8178  133.8306  159.3152 H   0  0  0  0  0  0  0  0  0  0  0  0  # atno 6907 bound_to 6896
  151.6073  135.1041  160.0083 H   0  0  0  0  0  0  0  0  0  0  0  0  # atno 6908 bound_to 6896
  152.4269  133.7169  159.6568 H   0  0  0  0  0  0  0  0  0  0  0  0  # atno 6909 bound_to 6896
  145.2647  139.2689  143.3998 H   0  0  0  0  0  0  0  0  0  0  0  0  # atno 7974 bound_to 7965
  154.5447  140.0738  156.8568 H   0  0  0  0  0  0  0  0  0  0  0  0  # atno 8008 bound_to 7997
  155.3112  140.3390  155.4226 H   0  0  0  0  0  0  0  0  0  0  0  0  # atno 8009 bound_to 7997
  156.1907  140.1685  156.8084 H   0  0  0  0  0  0  0  0  0  0  0  0  # atno 8010 bound_to 7997
  140.4376  143.2526  151.8672 H   0  0  0  0  0  0  0  0  0  0  0  0  # atno 10167 bound_to 10162
  156.0668  130.4248  150.1568 H   0  0  0  0  0  0  0  0  0  0  0  0  # atno 10718 bound_to 10713
  154.8695  135.3690  154.4968 H   0  0  0  0  0  0  0  0  0  0  0  0  # atno 10763 bound_to 10752
  153.5611  135.7023  153.5552 H   0  0  0  0  0  0  0  0  0  0  0  0  # atno 10764 bound_to 10752
  153.3627  135.4042  155.1694 H   0  0  0  0  0  0  0  0  0  0  0  0  # atno 10765 bound_to 10752
  141.1598  133.6828  156.6962 H   0  0  0  0  0  0  0  0  0  0  0  0  # atno 11005 bound_to 11000
  146.3264  140.3074  142.8624 LP  0  0  0  0  0  0  0  0  0  0  0  0  # atno 17320 bound_to 7965
  144.9387  140.8055  143.5644 LP  0  0  0  0  0  0  0  0  0  0  0  0  # atno 17321 bound_to 7965
  139.4788  144.5265  151.8727 LP  0  0  0  0  0  0  0  0  0  0  0  0  # atno 17342 bound_to 10162
  140.4356  144.2057  150.5889 LP  0  0  0  0  0  0  0  0  0  0  0  0  # atno 17343 bound_to 10162
  156.9627  130.9810  151.3476 LP  0  0  0  0  0  0  0  0  0  0  0  0  # atno 17370 bound_to 10713
  157.5714  130.8313  149.8397 LP  0  0  0  0  0  0  0  0  0  0  0  0  # atno 17371 bound_to 10713
  140.2993  134.8177  157.4084 LP  0  0  0  0  0  0  0  0  0  0  0  0  # atno 17394 bound_to 11000
  140.1276  134.5137  155.8132 LP  0  0  0  0  0  0  0  0  0  0  0  0  # atno 17395 bound_to 11000

$$$$
