AV-unprocessed.smi:1760|AV-procd|sdf|7093|dock4
  -GOLD-   22720 8313D 1   1.00000     0.00000
 Structure written by MMmdl.
 43 45  0  0  0  0  0  0  0  0  3 V2000
  147.9094  134.5588  155.1402 O   0  0  0  0  0  0  0  0  0  0  0  0
  146.7251  134.3853  155.4268 C   0  0  0  0  0  0  0  0  0  0  0  0
  146.2466  134.0327  156.6339 N   0  0  0  0  0  0  0  0  0  0  0  0
  146.9346  133.7983  157.8372 C   0  0  0  0  0  0  0  0  0  0  0  0
  146.5192  134.2113  159.0669 C   0  0  0  0  0  0  0  0  0  0  0  0
  147.2777  133.9305  160.2798 C   0  0  0  0  0  0  0  0  0  0  0  0
  146.8712  134.3862  161.6692 C   0  0  0  0  0  0  0  0  0  0  0  0
  146.7846  135.7152  161.7109 F   0  0  0  0  0  0  0  0  0  0  0  0
  145.6777  133.8860  161.9875 F   0  0  0  0  0  0  0  0  0  0  0  0
  147.7517  133.9925  162.5895 F   0  0  0  0  0  0  0  0  0  0  0  0
  148.4237  133.2037  160.0273 C   0  0  0  0  0  0  0  0  0  0  0  0
  148.8982  132.7455  158.8482 N   0  5  0  0  0  0  0  0  0  0  0  0
  148.1857  133.0198  157.7190 C   0  0  0  0  0  0  0  0  0  0  0  0
  148.5611  132.6341  156.6112 O   0  0  0  0  0  0  0  0  0  0  0  0
  145.7268  134.5069  154.5391 N   0  0  0  0  0  0  0  0  0  0  0  0
  145.8745  134.8398  153.1246 C   0  0  2  0  0  0  0  0  0  0  0  0
  144.5533  135.3997  152.5718 C   0  0  0  0  0  0  0  0  0  0  0  0
  144.6492  135.6551  151.0554 C   0  0  0  0  0  0  0  0  0  0  0  0
  145.0686  134.4411  150.3084 N   0  3  2  0  0  0  0  0  0  0  0  0
  143.9945  133.4280  150.1836 C   0  0  0  0  0  0  0  0  0  0  0  0
  144.4300  132.1681  149.4722 C   0  0  0  0  0  0  0  0  0  0  0  0
  143.5598  133.1781  148.7582 C   0  0  0  0  0  0  0  0  0  0  0  0
  146.3468  133.8833  150.8208 C   0  0  0  0  0  0  0  0  0  0  0  0
  146.2859  133.5885  152.3315 C   0  0  0  0  0  0  0  0  0  0  0  0
  145.2521  133.8682  156.6915 H   0  0  0  0  0  0  0  0  0  0  0  0
  145.5960  134.7535  159.1845 H   0  0  0  0  0  0  0  0  0  0  0  0
  149.0545  132.9561  160.9077 H   0  0  0  0  0  0  0  0  0  0  0  0
  144.7871  134.3419  154.8695 H   0  0  0  0  0  0  0  0  0  0  0  0
  146.6493  135.5965  152.9884 H   0  0  0  0  0  0  0  0  0  0  0  0
  143.7372  134.7063  152.7792 H   0  0  0  0  0  0  0  0  0  0  0  0
  144.3009  136.3288  153.0843 H   0  0  0  0  0  0  0  0  0  0  0  0
  143.6968  136.0201  150.6695 H   0  0  0  0  0  0  0  0  0  0  0  0
  145.3792  136.4432  150.8659 H   0  0  0  0  0  0  0  0  0  0  0  0
  143.2700  133.3762  150.9939 H   0  0  0  0  0  0  0  0  0  0  0  0
  145.4680  132.0865  149.1545 H   0  0  0  0  0  0  0  0  0  0  0  0
  143.9622  131.2336  149.7756 H   0  0  0  0  0  0  0  0  0  0  0  0
  142.5190  132.9085  148.5908 H   0  0  0  0  0  0  0  0  0  0  0  0
  144.0204  133.7668  147.9668 H   0  0  0  0  0  0  0  0  0  0  0  0
  146.6096  132.9816  150.2667 H   0  0  0  0  0  0  0  0  0  0  0  0
  147.1398  134.6061  150.6242 H   0  0  0  0  0  0  0  0  0  0  0  0
  147.2588  133.2344  152.6747 H   0  0  0  0  0  0  0  0  0  0  0  0
  145.5824  132.7767  152.5216 H   0  0  0  0  0  0  0  0  0  0  0  0
  145.2558  134.7454  149.3634 H   0  0  0  0  0  0  0  0  0  0  0  0
  1  2  2  0  0  0  0
  2  3  1  0  0  0  0
  2 15  1  0  0  0  0
  3  4  1  0  0  0  0
  3 25  1  0  0  0  0
  4 13  1  0  0  0  0
  4  5  2  0  0  0  0
  5  6  1  0  0  0  0
  5 26  1  0  0  0  0
  6  7  1  0  0  0  0
  6 11  2  0  0  0  0
  7  8  1  0  0  0  0
  7  9  1  0  0  0  0
  7 10  1  0  0  0  0
 11 12  1  0  0  0  0
 11 27  1  0  0  0  0
 12 13  1  0  0  0  0
 13 14  2  0  0  0  0
 15 16  1  0  0  0  0
 15 28  1  0  0  0  0
 16 24  1  0  0  0  0
 16 17  1  0  0  0  0
 16 29  1  0  0  0  0
 17 18  1  0  0  0  0
 17 30  1  0  0  0  0
 17 31  1  0  0  0  0
 18 19  1  0  0  0  0
 18 32  1  0  0  0  0
 18 33  1  0  0  0  0
 19 20  1  0  0  0  0
 19 23  1  0  0  0  0
 19 43  1  0  0  0  0
 20 22  1  0  0  0  0
 20 21  1  0  0  0  0
 20 34  1  0  0  0  0
 21 22  1  0  0  0  0
 21 35  1  0  0  0  0
 21 36  1  0  0  0  0
 22 37  1  0  0  0  0
 22 38  1  0  0  0  0
 23 24  1  0  0  0  0
 23 39  1  0  0  0  0
 23 40  1  0  0  0  0
 24 41  1  0  0  0  0
 24 42  1  0  0  0  0
M  CHG  1  12  -1
M  CHG  1  19   1
M  END
> <s_m_source_file>
AV-unprocessed.smi

> <i_m_source_file_index>
1760

> <i_lp_mmshare_version>
43012

> <i_f3d_flags>
0

> <s_epik_input>
W0NIMl0xW0NIMl1bQ0hdMU4oW0NIMl1bQ0gyXTIpW0NIMl1bQ0gyXVtDSF0yW05IXUMoPU8pW05IXWMzW2NIXWMoQyhGKShGKUYpW2NIXVtuSF1jMz1P

> <s_epik_cmdline>
J2VwaWtfcHl0aG9uJywgJy1waCcsICc3LjAnLCAnLXRuJywgJzgnLCAnLW1hJywgJzIwMCcsICctbWV0YWxfYmluZGluZycsICctaW1hZScsICc8aW5maWxlLm1hZT4nLCAnLW9tYWUnLCAnPG91dGZpbGUubWFlPic=

> <r_lp_tautomer_probability>
0.999

> <r_epik_Ionization_Penalty>
3.16043

> <r_epik_Ionization_Penalty_Charging>
0.268029

> <r_epik_Ionization_Penalty_Neutral>
2.8924

> <r_epik_State_Penalty>
3.0039

> <r_epik_Charging_Adjusted_Penalty>
3.27193

> <i_epik_Tot_Q>
0

> <i_epik_Tot_abs_Q>
2

> <r_epik_Metal_State_Penalty>
0.560618

> <b_epik_Metal_Only>
1

> <s_lp_Force_Field>
OPLS_2005

> <r_lp_Energy>
41.7611

> <b_lp_Chiralities_Consistent>
1

> <s_lp_Variant>
AV-unprocessed.smi:1760-5

> <Gold.Version>
5.8.1

> <Gold.Id.Protein>
6NUR|6NUR_protein|mol2

> <Gold.PLP.Fitness>
39.2658

> <Gold.PLP.PLP>
-31.8313

> <Gold.PLP.part.hbond>
-2.0000

> <Gold.PLP.part.metal>
0.0000

> <Gold.PLP.part.buried>
-3.0348

> <Gold.PLP.part.nonpolar>
-26.3661

> <Gold.PLP.part.repulsive>
0.1164

> <Gold.PLP.ligand.clash>
0.0000

> <Gold.PLP.ligand.torsion>
1.4008

> <Gold.PLP.Chemscore.Hbond>
2.9840

> <Gold.PLP.Chemscore.CHOScore>
0.0000

> <Gold.PLP.Chemscore.Metal>
0.0000

> <Gold.Chemscore.Hbonds>
donor molecule, donor type, donor heavy atom, donor atom, acceptor molecule, acceptor atom, score
      L1  H    19    43       P1  7921  1.00
      P1  H  6896  6907       L1    12  0.34

> <Gold.PLP.Chemscore.Internal.Correction>
1.2841

> <Gold.Rescore>
     Score         DG    S(hbond)    S(metal)    S(lipo)     H(rot)  DE(clash)    DE(int)     intcor
     11.45     -16.84       1.71        0.00      76.29       1.28       0.08       5.30       ----

> <Gold.Chemscore.Fitness>
11.4546

> <Gold.Chemscore.DG>
-16.8370

> <Gold.Chemscore.ZeroCoef>
-5.4800

> <Gold.Chemscore.Hbond>
1.7081

> <Gold.Chemscore.Metal>
0.0000

> <Gold.Chemscore.Lipo>
76.2869

> <Gold.Chemscore.Internal_Hbond>
0.0000

> <Gold.Chemscore.DEClash>
0.0783

> <Gold.Chemscore.DEInternal>
5.3041

> <Gold.Chemscore.Rot>
1.2787

> <Gold.Chemscore.Internal.Correction>
   9.000000E+99

> <Gold.Chemscore.Hbonds>
donor molecule, donor type, donor heavy atom, donor atom, acceptor molecule, acceptor atom, score
      L1  H    19    43       P1  7921  0.98

> <Gold.Chemscore.Hbond.Weighted>
-5.7050

> <Gold.Chemscore.Metal.Weighted>
-0.0000

> <Gold.Chemscore.Lipo.Weighted>
-8.9256

> <Gold.Chemscore.Internal_Hbond.Weighted>
0.0000

> <Gold.Chemscore.DEClash.Weighted>
0.0783

> <Gold.Chemscore.DEInternal.Weighted>
5.3041

> <Gold.Chemscore.Rot.Weighted>
3.2735

> <Gold.Chemscore.Internal.Correction.Weighted>
   9.000000E+99

> <Gold.Protein.RotatedTorsions>
[ 6907 6896 6895 6894 ] final -111.31 input  -60.11 | X-H torsion
[ 7974 7965 7964 7962 ] final   47.97 input  175.53 | X-H torsion
[ 8008 7997 7996 7995 ] final -147.67 input   59.86 | X-H torsion
[ 10167 10162 10161 10158 ] final  -89.07 input  -65.29 | X-H torsion
[ 10718 10713 10712 10709 ] final   57.65 input   66.30 | X-H torsion
[ 10763 10752 10751 10750 ] final   -5.86 input  -60.55 | X-H torsion
[ 11005 11000 10999 10996 ] final -142.23 input  -57.11 | X-H torsion

> <Gold.Protein.ActiveResidues>
 VAL166  LYS551  ARG553  GLY616  TRP617  ASP618  TYR619  PRO620  LYS621  CYS622 
 ASP623  PHE694  ASN695  SER759  ASP760  ASP761  ALA762  ILE779  LEU786  VAL792 
 PHE793  MET794  SER795  GLU796  ALA797  LYS798  CYS799  TRP800  GLU811  SER814 

> <Gold.Protein.RotatedAtoms>
  150.7682  133.9254  159.3410 H   0  0  0  0  0  0  0  0  0  0  0  0  # atno 6907 bound_to 6896
  151.7146  135.0904  160.0283 H   0  0  0  0  0  0  0  0  0  0  0  0  # atno 6908 bound_to 6896
  152.3688  133.6353  159.6106 H   0  0  0  0  0  0  0  0  0  0  0  0  # atno 6909 bound_to 6896
  146.0248  139.4694  142.9874 H   0  0  0  0  0  0  0  0  0  0  0  0  # atno 7974 bound_to 7965
  155.5793  140.0642  157.2787 H   0  0  0  0  0  0  0  0  0  0  0  0  # atno 8008 bound_to 7997
  154.4337  140.1855  156.1006 H   0  0  0  0  0  0  0  0  0  0  0  0  # atno 8009 bound_to 7997
  156.0317  140.3305  155.7150 H   0  0  0  0  0  0  0  0  0  0  0  0  # atno 8010 bound_to 7997
  140.3685  143.2806  151.9529 H   0  0  0  0  0  0  0  0  0  0  0  0  # atno 10167 bound_to 10162
  157.5532  130.8780  149.8994 H   0  0  0  0  0  0  0  0  0  0  0  0  # atno 10718 bound_to 10713
  153.4044  135.7006  153.6403 H   0  0  0  0  0  0  0  0  0  0  0  0  # atno 10763 bound_to 10752
  153.4923  135.3670  155.2498 H   0  0  0  0  0  0  0  0  0  0  0  0  # atno 10764 bound_to 10752
  154.8713  135.4092  154.3385 H   0  0  0  0  0  0  0  0  0  0  0  0  # atno 10765 bound_to 10752
  140.8245  134.2591  157.4885 H   0  0  0  0  0  0  0  0  0  0  0  0  # atno 11005 bound_to 11000
  145.7135  141.0098  143.1440 LP  0  0  0  0  0  0  0  0  0  0  0  0  # atno 17320 bound_to 7965
  144.7005  139.8785  143.7445 LP  0  0  0  0  0  0  0  0  0  0  0  0  # atno 17321 bound_to 7965
  139.4806  144.5929  151.7741 LP  0  0  0  0  0  0  0  0  0  0  0  0  # atno 17342 bound_to 10162
  140.5057  144.1101  150.5982 LP  0  0  0  0  0  0  0  0  0  0  0  0  # atno 17343 bound_to 10162
  156.0595  130.3702  150.1015 LP  0  0  0  0  0  0  0  0  0  0  0  0  # atno 17370 bound_to 10713
  156.9186  130.9675  151.3552 LP  0  0  0  0  0  0  0  0  0  0  0  0  # atno 17371 bound_to 10713
  139.8707  134.9553  156.4203 LP  0  0  0  0  0  0  0  0  0  0  0  0  # atno 17394 bound_to 11000
  140.9063  133.7743  155.9739 LP  0  0  0  0  0  0  0  0  0  0  0  0  # atno 17395 bound_to 11000

$$$$
