AV-unprocessed.smi:3004|AV-procd|sdf|11441|dock10
  -GOLD-   2272016373D 1   1.00000     0.00000
 Structure written by MMmdl.
 47 48  0  0  0  0  0  0  0  0  2 V2000
  153.3528  140.3637  160.2958 C   0  0  0  0  0  0  0  0  0  0  0  0
  152.6469  140.3584  158.9722 C   0  0  0  0  0  0  0  0  0  0  0  0
  151.5672  141.1809  158.5457 C   0  0  0  0  0  0  0  0  0  0  0  0
  151.3105  140.7668  157.2691 C   0  0  0  0  0  0  0  0  0  0  0  0
  150.2918  141.2458  156.2878 C   0  0  0  0  0  0  0  0  0  0  0  0
  152.2075  139.7510  156.9888 N   0  0  0  0  0  0  0  0  0  0  0  0
  152.3631  138.9740  155.7689 C   0  0  0  0  0  0  0  0  0  0  0  0
  151.0583  138.2741  155.3862 C   0  0  0  0  0  0  0  0  0  0  0  0
  150.2145  138.8659  154.7130 O   0  0  0  0  0  0  0  0  0  0  0  0
  150.9042  137.0133  155.8204 N   0  0  0  0  0  0  0  0  0  0  0  0
  149.7396  136.1770  155.5607 C   0  0  0  0  0  0  0  0  0  0  0  0
  150.1380  134.8633  154.8588 C   0  0  0  0  0  0  0  0  0  0  0  0
  149.1129  134.3668  153.9008 N   0  3  2  0  0  0  0  0  0  0  0  0
  147.7671  134.2739  154.5292 C   0  0  0  0  0  0  0  0  0  0  0  0
  146.6790  133.9702  153.4872 C   0  0  0  0  0  0  0  0  0  0  0  0
  147.0039  132.6911  152.7089 C   0  0  0  0  0  0  0  0  0  0  0  0
  148.4012  132.8044  152.0847 C   0  0  0  0  0  0  0  0  0  0  0  0
  149.4851  133.1357  153.1330 C   0  0  2  0  0  0  0  0  0  0  0  0
  149.8212  131.9244  154.0292 C   0  0  0  0  0  0  0  0  0  0  0  0
  153.0273  139.5059  158.0348 N   0  0  0  0  0  0  0  0  0  0  0  0
  152.8676  141.0419  160.9980 H   0  0  0  0  0  0  0  0  0  0  0  0
  154.3887  140.6855  160.1864 H   0  0  0  0  0  0  0  0  0  0  0  0
  153.3564  139.3700  160.7445 H   0  0  0  0  0  0  0  0  0  0  0  0
  151.0571  141.9581  159.0952 H   0  0  0  0  0  0  0  0  0  0  0  0
  149.7094  142.0691  156.7019 H   0  0  0  0  0  0  0  0  0  0  0  0
  149.5997  140.4460  156.0238 H   0  0  0  0  0  0  0  0  0  0  0  0
  150.7681  141.6001  155.3737 H   0  0  0  0  0  0  0  0  0  0  0  0
  152.6838  139.6298  154.9578 H   0  0  0  0  0  0  0  0  0  0  0  0
  153.1558  138.2387  155.9125 H   0  0  0  0  0  0  0  0  0  0  0  0
  151.6518  136.6063  156.3645 H   0  0  0  0  0  0  0  0  0  0  0  0
  149.2556  135.9608  156.5134 H   0  0  0  0  0  0  0  0  0  0  0  0
  149.0272  136.7510  154.9680 H   0  0  0  0  0  0  0  0  0  0  0  0
  151.1004  134.9631  154.3565 H   0  0  0  0  0  0  0  0  0  0  0  0
  150.2835  134.1044  155.6291 H   0  0  0  0  0  0  0  0  0  0  0  0
  147.7697  133.5124  155.3097 H   0  0  0  0  0  0  0  0  0  0  0  0
  147.5271  135.2179  155.0199 H   0  0  0  0  0  0  0  0  0  0  0  0
  145.7097  133.8727  153.9769 H   0  0  0  0  0  0  0  0  0  0  0  0
  146.5923  134.8083  152.7943 H   0  0  0  0  0  0  0  0  0  0  0  0
  146.9559  131.8274  153.3730 H   0  0  0  0  0  0  0  0  0  0  0  0
  146.2580  132.5259  151.9311 H   0  0  0  0  0  0  0  0  0  0  0  0
  148.6514  131.8830  151.5576 H   0  0  0  0  0  0  0  0  0  0  0  0
  148.3863  133.5887  151.3267 H   0  0  0  0  0  0  0  0  0  0  0  0
  150.3824  133.3607  152.5583 H   0  0  0  0  0  0  0  0  0  0  0  0
  150.0613  131.0520  153.4210 H   0  0  0  0  0  0  0  0  0  0  0  0
  148.9931  131.6461  154.6802 H   0  0  0  0  0  0  0  0  0  0  0  0
  150.6911  132.1141  154.6575 H   0  0  0  0  0  0  0  0  0  0  0  0
  149.0258  135.0949  153.2063 H   0  0  0  0  0  0  0  0  0  0  0  0
  1  2  1  0  0  0  0
  1 21  1  0  0  0  0
  1 22  1  0  0  0  0
  1 23  1  0  0  0  0
  2 20  2  0  0  0  0
  2  3  1  0  0  0  0
  3  4  2  0  0  0  0
  3 24  1  0  0  0  0
  4  5  1  0  0  0  0
  4  6  1  0  0  0  0
  5 25  1  0  0  0  0
  5 26  1  0  0  0  0
  5 27  1  0  0  0  0
  6  7  1  0  0  0  0
  6 20  1  0  0  0  0
  7  8  1  0  0  0  0
  7 28  1  0  0  0  0
  7 29  1  0  0  0  0
  8  9  2  0  0  0  0
  8 10  1  0  0  0  0
 10 11  1  0  0  0  0
 10 30  1  0  0  0  0
 11 12  1  0  0  0  0
 11 31  1  0  0  0  0
 11 32  1  0  0  0  0
 12 13  1  0  0  0  0
 12 33  1  0  0  0  0
 12 34  1  0  0  0  0
 13 18  1  0  0  0  0
 13 14  1  0  0  0  0
 13 47  1  0  0  0  0
 14 15  1  0  0  0  0
 14 35  1  0  0  0  0
 14 36  1  0  0  0  0
 15 16  1  0  0  0  0
 15 37  1  0  0  0  0
 15 38  1  0  0  0  0
 16 17  1  0  0  0  0
 16 39  1  0  0  0  0
 16 40  1  0  0  0  0
 17 18  1  0  0  0  0
 17 41  1  0  0  0  0
 17 42  1  0  0  0  0
 18 19  1  0  0  0  0
 18 43  1  0  0  0  0
 19 44  1  0  0  0  0
 19 45  1  0  0  0  0
 19 46  1  0  0  0  0
M  CHG  1  13   1
M  END
> <s_m_source_file>
AV-unprocessed.smi

> <i_m_source_file_index>
3004

> <i_lp_mmshare_version>
43012

> <i_f3d_flags>
0

> <s_epik_input>
W0NIM11jMVtjSF1jKFtDSDNdKW4objEpW0NIMl1DKD1PKVtOSF1bQ0gyXVtDSDJdTjJbQ0gyXVtDSDJdW0NIMl1bQ0gyXVtDQEhdMltDSDNd

> <s_epik_cmdline>
J2VwaWtfcHl0aG9uJywgJy1waCcsICc3LjAnLCAnLXRuJywgJzgnLCAnLW1hJywgJzIwMCcsICctbWV0YWxfYmluZGluZycsICctaW1hZScsICc8aW5maWxlLm1hZT4nLCAnLW9tYWUnLCAnPG91dGZpbGUubWFlPic=

> <r_lp_tautomer_probability>
1

> <r_epik_Ionization_Penalty>
0.00303644

> <r_epik_Ionization_Penalty_Charging>
0.00284254

> <r_epik_Ionization_Penalty_Neutral>
0.000193908

> <r_epik_State_Penalty>
-0

> <r_epik_Charging_Adjusted_Penalty>
0.00284254

> <i_epik_Tot_Q>
1

> <i_epik_Tot_abs_Q>
1

> <r_epik_Metal_State_Penalty>
-0

> <b_epik_Metal_Only>
0

> <s_lp_Force_Field>
OPLS_2005

> <r_lp_Energy>
17.6316

> <b_lp_Chiralities_Consistent>
1

> <s_lp_Variant>
AV-unprocessed.smi:3004-3

> <Gold.Version>
5.8.1

> <Gold.Id.Protein>
6NUR|6NUR_protein|mol2

> <Gold.PLP.Fitness>
42.7882

> <Gold.PLP.PLP>
-34.9787

> <Gold.PLP.part.hbond>
-2.0000

> <Gold.PLP.part.metal>
0.0000

> <Gold.PLP.part.buried>
-2.5573

> <Gold.PLP.part.nonpolar>
-30.2405

> <Gold.PLP.part.repulsive>
0.2217

> <Gold.PLP.ligand.clash>
0.0000

> <Gold.PLP.ligand.torsion>
0.6176

> <Gold.PLP.Chemscore.Hbond>
3.0000

> <Gold.PLP.Chemscore.CHOScore>
0.0000

> <Gold.PLP.Chemscore.Metal>
0.0000

> <Gold.Chemscore.Hbonds>
donor molecule, donor type, donor heavy atom, donor atom, acceptor molecule, acceptor atom, score
      L1  H    13    47       P1  7948  1.90
      P1  H  7997  8008       L1    20  0.25

> <Gold.PLP.Chemscore.Internal.Correction>
0.0447

> <Gold.Rescore>
     Score         DG    S(hbond)    S(metal)    S(lipo)     H(rot)  DE(clash)    DE(int)     intcor
     14.84     -16.02       1.68        0.00      78.73       1.67       0.57       0.61       ----

> <Gold.Chemscore.Fitness>
14.8354

> <Gold.Chemscore.DG>
-16.0220

> <Gold.Chemscore.ZeroCoef>
-5.4800

> <Gold.Chemscore.Hbond>
1.6750

> <Gold.Chemscore.Metal>
0.0000

> <Gold.Chemscore.Lipo>
78.7310

> <Gold.Chemscore.Internal_Hbond>
0.0000

> <Gold.Chemscore.DEClash>
0.5720

> <Gold.Chemscore.DEInternal>
0.6146

> <Gold.Chemscore.Rot>
1.6657

> <Gold.Chemscore.Internal.Correction>
   9.000000E+99

> <Gold.Chemscore.Hbonds>
donor molecule, donor type, donor heavy atom, donor atom, acceptor molecule, acceptor atom, score
      L1  H    13    47       P1  7948  0.22

> <Gold.Chemscore.Hbond.Weighted>
-5.5945

> <Gold.Chemscore.Metal.Weighted>
-0.0000

> <Gold.Chemscore.Lipo.Weighted>
-9.2115

> <Gold.Chemscore.Internal_Hbond.Weighted>
0.0000

> <Gold.Chemscore.DEClash.Weighted>
0.5720

> <Gold.Chemscore.DEInternal.Weighted>
0.6146

> <Gold.Chemscore.Rot.Weighted>
4.2641

> <Gold.Chemscore.Internal.Correction.Weighted>
   9.000000E+99

> <Gold.Protein.RotatedTorsions>
[ 6907 6896 6895 6894 ] final   64.48 input  -60.11 | X-H torsion
[ 7974 7965 7964 7962 ] final  -11.23 input  175.53 | X-H torsion
[ 8008 7997 7996 7995 ] final  -70.47 input   59.86 | X-H torsion
[ 10167 10162 10161 10158 ] final   94.93 input  -65.29 | X-H torsion
[ 10718 10713 10712 10709 ] final  -77.20 input   66.30 | X-H torsion
[ 10763 10752 10751 10750 ] final  109.35 input  -60.55 | X-H torsion
[ 11005 11000 10999 10996 ] final   64.24 input  -57.11 | X-H torsion

> <Gold.Protein.ActiveResidues>
 VAL166  LYS551  ARG553  GLY616  TRP617  ASP618  TYR619  PRO620  LYS621  CYS622 
 ASP623  PHE694  ASN695  SER759  ASP760  ASP761  ALA762  ILE779  LEU786  VAL792 
 PHE793  MET794  SER795  GLU796  ALA797  LYS798  CYS799  TRP800  GLU811  SER814 

> <Gold.Protein.RotatedAtoms>
  152.4335  134.5732  159.9926 H   0  0  0  0  0  0  0  0  0  0  0  0  # atno 6907 bound_to 6896
  151.5849  133.3367  159.3024 H   0  0  0  0  0  0  0  0  0  0  0  0  # atno 6908 bound_to 6896
  150.8230  134.7483  159.6853 H   0  0  0  0  0  0  0  0  0  0  0  0  # atno 6909 bound_to 6896
  146.2194  140.2880  142.8366 H   0  0  0  0  0  0  0  0  0  0  0  0  # atno 7974 bound_to 7965
  154.5014  140.0834  156.7806 H   0  0  0  0  0  0  0  0  0  0  0  0  # atno 8008 bound_to 7997
  155.3994  140.3436  155.4238 H   0  0  0  0  0  0  0  0  0  0  0  0  # atno 8009 bound_to 7997
  156.1461  140.1544  156.8832 H   0  0  0  0  0  0  0  0  0  0  0  0  # atno 8010 bound_to 7997
  139.8036  144.6803  150.9732 H   0  0  0  0  0  0  0  0  0  0  0  0  # atno 10167 bound_to 10162
  156.0152  130.4485  150.3309 H   0  0  0  0  0  0  0  0  0  0  0  0  # atno 10718 bound_to 10713
  153.4335  135.3783  155.2185 H   0  0  0  0  0  0  0  0  0  0  0  0  # atno 10763 bound_to 10752
  154.8751  135.3846  154.4239 H   0  0  0  0  0  0  0  0  0  0  0  0  # atno 10764 bound_to 10752
  153.4774  135.7088  153.6021 H   0  0  0  0  0  0  0  0  0  0  0  0  # atno 10765 bound_to 10752
  139.9971  134.6499  155.9991 H   0  0  0  0  0  0  0  0  0  0  0  0  # atno 11005 bound_to 11000
  144.9148  140.7799  143.5785 LP  0  0  0  0  0  0  0  0  0  0  0  0  # atno 17320 bound_to 7965
  145.2813  139.1917  143.4789 LP  0  0  0  0  0  0  0  0  0  0  0  0  # atno 17321 bound_to 7965
  140.7819  143.4256  151.0773 LP  0  0  0  0  0  0  0  0  0  0  0  0  # atno 17342 bound_to 10162
  139.7926  143.8196  152.3153 LP  0  0  0  0  0  0  0  0  0  0  0  0  # atno 17343 bound_to 10162
  157.1407  131.0296  151.2929 LP  0  0  0  0  0  0  0  0  0  0  0  0  # atno 17370 bound_to 10713
  157.4474  130.7578  149.7121 LP  0  0  0  0  0  0  0  0  0  0  0  0  # atno 17371 bound_to 10713
  141.1613  133.6539  156.4329 LP  0  0  0  0  0  0  0  0  0  0  0  0  # atno 17394 bound_to 11000
  140.4797  134.6676  157.5165 LP  0  0  0  0  0  0  0  0  0  0  0  0  # atno 17395 bound_to 11000

$$$$
