AV-unprocessed.smi:1958|AV-procd|sdf|7906|dock3
  -GOLD-   2272010 63D 1   1.00000     0.00000
 Structure written by MMmdl.
 47 48  0  0  0  0  0  0  0  0  1 V2000
  143.9214  138.2596  160.5346 C   0  0  0  0  0  0  0  0  0  0  0  0
  145.2967  138.1226  160.8454 O   0  0  0  0  0  0  0  0  0  0  0  0
  145.5134  137.4024  162.0480 C   0  0  0  0  0  0  0  0  0  0  0  0
  147.0091  137.0732  162.1848 C   0  0  0  0  0  0  0  0  0  0  0  0
  147.3478  135.7989  161.5410 N   0  0  0  0  0  0  0  0  0  0  0  0
  147.8094  135.9297  160.2422 N   0  0  0  0  0  0  0  0  0  0  0  0
  148.1251  134.8799  159.5547 C   0  0  0  0  0  0  0  0  0  0  0  0
  148.6199  134.9785  158.1539 C   0  0  0  0  0  0  0  0  0  0  0  0
  149.6268  134.3778  157.7750 O   0  0  0  0  0  0  0  0  0  0  0  0
  147.8947  135.7730  157.3466 N   0  0  0  0  0  0  0  0  0  0  0  0
  148.1884  136.0770  155.9480 C   0  0  0  0  0  0  0  0  0  0  0  0
  148.1871  137.6021  155.6619 C   0  0  2  0  0  0  0  0  0  0  0  0
  147.3366  137.8639  154.3984 C   0  0  0  0  0  0  0  0  0  0  0  0
  149.5380  138.2021  155.5984 N   0  0  0  0  0  0  0  0  0  0  0  0
  149.5038  139.6675  155.6257 C   0  0  0  0  0  0  0  0  0  0  0  0
  150.9075  140.2918  155.5505 C   0  0  0  0  0  0  0  0  0  0  0  0
  151.5698  139.8377  154.3776 O   0  0  0  0  0  0  0  0  0  0  0  0
  151.6850  138.4212  154.3387 C   0  0  0  0  0  0  0  0  0  0  0  0
  150.2861  137.7845  154.4094 C   0  0  0  0  0  0  0  0  0  0  0  0
  148.0086  133.5509  160.1307 C   0  0  0  0  0  0  0  0  0  0  0  0
  147.5569  133.4391  161.3992 C   0  0  0  0  0  0  0  0  0  0  0  0
  147.1866  134.6097  162.1960 C   0  0  0  0  0  0  0  0  0  0  0  0
  146.7639  134.5325  163.3493 O   0  0  0  0  0  0  0  0  0  0  0  0
  143.8095  138.8216  159.6073 H   0  0  0  0  0  0  0  0  0  0  0  0
  143.3910  138.7985  161.3206 H   0  0  0  0  0  0  0  0  0  0  0  0
  143.4491  137.2860  160.3970 H   0  0  0  0  0  0  0  0  0  0  0  0
  145.1958  138.0097  162.8965 H   0  0  0  0  0  0  0  0  0  0  0  0
  144.9144  136.4907  162.0615 H   0  0  0  0  0  0  0  0  0  0  0  0
  147.6029  137.8843  161.7594 H   0  0  0  0  0  0  0  0  0  0  0  0
  147.2830  137.0406  163.2408 H   0  0  0  0  0  0  0  0  0  0  0  0
  147.0863  136.2286  157.7452 H   0  0  0  0  0  0  0  0  0  0  0  0
  149.1391  135.6343  155.6465 H   0  0  0  0  0  0  0  0  0  0  0  0
  147.4459  135.5707  155.3321 H   0  0  0  0  0  0  0  0  0  0  0  0
  147.6521  138.0678  156.4912 H   0  0  0  0  0  0  0  0  0  0  0  0
  146.3991  137.3085  154.4306 H   0  0  0  0  0  0  0  0  0  0  0  0
  147.8641  137.5666  153.4915 H   0  0  0  0  0  0  0  0  0  0  0  0
  147.0634  138.9140  154.2998 H   0  0  0  0  0  0  0  0  0  0  0  0
  148.8983  140.0387  154.7975 H   0  0  0  0  0  0  0  0  0  0  0  0
  149.0359  140.0232  156.5422 H   0  0  0  0  0  0  0  0  0  0  0  0
  150.8373  141.3792  155.5208 H   0  0  0  0  0  0  0  0  0  0  0  0
  151.4937  140.0325  156.4335 H   0  0  0  0  0  0  0  0  0  0  0  0
  152.1870  138.1300  153.4159 H   0  0  0  0  0  0  0  0  0  0  0  0
  152.3082  138.0764  155.1653 H   0  0  0  0  0  0  0  0  0  0  0  0
  150.4186  136.7036  154.4016 H   0  0  0  0  0  0  0  0  0  0  0  0
  149.7247  138.0409  153.5097 H   0  0  0  0  0  0  0  0  0  0  0  0
  148.2744  132.6692  159.5658 H   0  0  0  0  0  0  0  0  0  0  0  0
  147.4646  132.4571  161.8399 H   0  0  0  0  0  0  0  0  0  0  0  0
  1  2  1  0  0  0  0
  1 24  1  0  0  0  0
  1 25  1  0  0  0  0
  1 26  1  0  0  0  0
  2  3  1  0  0  0  0
  3  4  1  0  0  0  0
  3 27  1  0  0  0  0
  3 28  1  0  0  0  0
  4  5  1  0  0  0  0
  4 29  1  0  0  0  0
  4 30  1  0  0  0  0
  5 22  1  0  0  0  0
  5  6  1  0  0  0  0
  6  7  2  0  0  0  0
  7  8  1  0  0  0  0
  7 20  1  0  0  0  0
  8  9  2  0  0  0  0
  8 10  1  0  0  0  0
 10 11  1  0  0  0  0
 10 31  1  0  0  0  0
 11 12  1  0  0  0  0
 11 32  1  0  0  0  0
 11 33  1  0  0  0  0
 12 13  1  0  0  0  0
 12 14  1  0  0  0  0
 12 34  1  0  0  0  0
 13 35  1  0  0  0  0
 13 36  1  0  0  0  0
 13 37  1  0  0  0  0
 14 19  1  0  0  0  0
 14 15  1  0  0  0  0
 15 16  1  0  0  0  0
 15 38  1  0  0  0  0
 15 39  1  0  0  0  0
 16 17  1  0  0  0  0
 16 40  1  0  0  0  0
 16 41  1  0  0  0  0
 17 18  1  0  0  0  0
 18 19  1  0  0  0  0
 18 42  1  0  0  0  0
 18 43  1  0  0  0  0
 19 44  1  0  0  0  0
 19 45  1  0  0  0  0
 20 21  2  0  0  0  0
 20 46  1  0  0  0  0
 21 22  1  0  0  0  0
 21 47  1  0  0  0  0
 22 23  2  0  0  0  0
M  END
> <s_m_source_file>
AV-unprocessed.smi

> <i_m_source_file_index>
1958

> <i_lp_mmshare_version>
43012

> <i_f3d_flags>
0

> <s_epik_input>
W0NIM11PW0NIMl1bQ0gyXW4xbmMoW2NIXVtjSF1jMT1PKUMoPU8pW05IXVtDSDJdW0NASF0oW0NIM10pTjJbQ0gyXVtDSDJdT1tDSDJdW0NIMl0y

> <s_epik_cmdline>
J2VwaWtfcHl0aG9uJywgJy1waCcsICc3LjAnLCAnLXRuJywgJzgnLCAnLW1hJywgJzIwMCcsICctbWV0YWxfYmluZGluZycsICctaW1hZScsICc8aW5maWxlLm1hZT4nLCAnLW9tYWUnLCAnPG91dGZpbGUubWFlPic=

> <r_lp_tautomer_probability>
1

> <r_epik_Ionization_Penalty>
0.206669

> <r_epik_Ionization_Penalty_Charging>
5.75808e-09

> <r_epik_Ionization_Penalty_Neutral>
0.206669

> <r_epik_State_Penalty>
0.196651

> <r_epik_Charging_Adjusted_Penalty>
0.196651

> <i_epik_Tot_Q>
0

> <i_epik_Tot_abs_Q>
0

> <r_epik_Metal_State_Penalty>
0.198415

> <b_epik_Metal_Only>
0

> <s_lp_Force_Field>
OPLS_2005

> <r_lp_Energy>
53.7992

> <b_lp_Chiralities_Consistent>
1

> <s_lp_Variant>
AV-unprocessed.smi:1958-1

> <Gold.Version>
5.8.1

> <Gold.Id.Protein>
6NUR|6NUR_protein|mol2

> <Gold.PLP.Fitness>
38.9608

> <Gold.PLP.PLP>
-35.1353

> <Gold.PLP.part.hbond>
-4.0000

> <Gold.PLP.part.metal>
0.0000

> <Gold.PLP.part.buried>
-5.3058

> <Gold.PLP.part.nonpolar>
-26.2564

> <Gold.PLP.part.repulsive>
0.1176

> <Gold.PLP.ligand.clash>
0.0000

> <Gold.PLP.ligand.torsion>
2.1239

> <Gold.PLP.Chemscore.Hbond>
2.6480

> <Gold.PLP.Chemscore.CHOScore>
0.0000

> <Gold.PLP.Chemscore.Metal>
0.0000

> <Gold.Chemscore.Hbonds>
donor molecule, donor type, donor heavy atom, donor atom, acceptor molecule, acceptor atom, score
      P1  H  6896  6909       L1     9  1.00
      P1  H  6934  6947       L1     2  0.48
      P1  H  7989  7998       L1    17  0.55

> <Gold.PLP.Chemscore.Internal.Correction>
0.1294

> <Gold.Rescore>
     Score         DG    S(hbond)    S(metal)    S(lipo)     H(rot)  DE(clash)    DE(int)     intcor
     12.81     -14.97       2.57        0.00      52.52       2.04       0.07       2.09       ----

> <Gold.Chemscore.Fitness>
12.8110

> <Gold.Chemscore.DG>
-14.9719

> <Gold.Chemscore.ZeroCoef>
-5.4800

> <Gold.Chemscore.Hbond>
2.5665

> <Gold.Chemscore.Metal>
0.0000

> <Gold.Chemscore.Lipo>
52.5248

> <Gold.Chemscore.Internal_Hbond>
0.0000

> <Gold.Chemscore.DEClash>
0.0710

> <Gold.Chemscore.DEInternal>
2.0899

> <Gold.Chemscore.Rot>
2.0413

> <Gold.Chemscore.Internal.Correction>
   9.000000E+99

> <Gold.Chemscore.Hbonds>
donor molecule, donor type, donor heavy atom, donor atom, acceptor molecule, acceptor atom, score
      P1  H  6896  6909       L1     9  0.68
      P1  H  6934  6947       L1     2  0.05
      P1  H  7989  7998       L1    17  0.38

> <Gold.Chemscore.Hbond.Weighted>
-8.5722

> <Gold.Chemscore.Metal.Weighted>
-0.0000

> <Gold.Chemscore.Lipo.Weighted>
-6.1454

> <Gold.Chemscore.Internal_Hbond.Weighted>
0.0000

> <Gold.Chemscore.DEClash.Weighted>
0.0710

> <Gold.Chemscore.DEInternal.Weighted>
2.0899

> <Gold.Chemscore.Rot.Weighted>
5.2257

> <Gold.Chemscore.Internal.Correction.Weighted>
   9.000000E+99

> <Gold.Protein.RotatedTorsions>
[ 6907 6896 6895 6894 ] final   10.17 input  -60.11 | X-H torsion
[ 7974 7965 7964 7962 ] final  -23.34 input  175.53 | X-H torsion
[ 8008 7997 7996 7995 ] final   76.87 input   59.86 | X-H torsion
[ 10167 10162 10161 10158 ] final  -72.14 input  -65.29 | X-H torsion
[ 10718 10713 10712 10709 ] final  -11.68 input   66.30 | X-H torsion
[ 10763 10752 10751 10750 ] final    5.33 input  -60.55 | X-H torsion
[ 11005 11000 10999 10996 ] final    3.06 input  -57.11 | X-H torsion

> <Gold.Protein.ActiveResidues>
 VAL166  LYS551  ARG553  GLY616  TRP617  ASP618  TYR619  PRO620  LYS621  CYS622 
 ASP623  PHE694  ASN695  SER759  ASP760  ASP761  ALA762  ILE779  LEU786  VAL792 
 PHE793  MET794  SER795  GLU796  ALA797  LYS798  CYS799  TRP800  GLU811  SER814 

> <Gold.Protein.RotatedAtoms>
  151.7340  135.0869  160.0304 H   0  0  0  0  0  0  0  0  0  0  0  0  # atno 6907 bound_to 6896
  152.3523  133.6190  159.5962 H   0  0  0  0  0  0  0  0  0  0  0  0  # atno 6908 bound_to 6896
  150.7548  133.9471  159.3516 H   0  0  0  0  0  0  0  0  0  0  0  0  # atno 6909 bound_to 6896
  146.1622  140.4603  142.8567 H   0  0  0  0  0  0  0  0  0  0  0  0  # atno 7974 bound_to 7965
  155.8335  140.3465  155.5587 H   0  0  0  0  0  0  0  0  0  0  0  0  # atno 8008 bound_to 7997
  155.8216  140.0914  157.1865 H   0  0  0  0  0  0  0  0  0  0  0  0  # atno 8009 bound_to 7997
  154.4004  140.1429  156.3494 H   0  0  0  0  0  0  0  0  0  0  0  0  # atno 8010 bound_to 7997
  140.5216  143.2331  151.7419 H   0  0  0  0  0  0  0  0  0  0  0  0  # atno 10167 bound_to 10162
  156.6555  130.4967  149.6048 H   0  0  0  0  0  0  0  0  0  0  0  0  # atno 10718 bound_to 10713
  153.2607  135.6923  153.7581 H   0  0  0  0  0  0  0  0  0  0  0  0  # atno 10763 bound_to 10752
  153.6641  135.3355  155.3136 H   0  0  0  0  0  0  0  0  0  0  0  0  # atno 10764 bound_to 10752
  154.8429  135.4484  154.1596 H   0  0  0  0  0  0  0  0  0  0  0  0  # atno 10765 bound_to 10752
  140.5973  133.9868  155.8116 H   0  0  0  0  0  0  0  0  0  0  0  0  # atno 11005 bound_to 11000
  144.8042  140.6269  143.6458 LP  0  0  0  0  0  0  0  0  0  0  0  0  # atno 17320 bound_to 7965
  145.4560  139.1518  143.3892 LP  0  0  0  0  0  0  0  0  0  0  0  0  # atno 17321 bound_to 7965
  139.4925  144.4246  151.9940 LP  0  0  0  0  0  0  0  0  0  0  0  0  # atno 17342 bound_to 10162
  140.3343  144.3279  150.5980 LP  0  0  0  0  0  0  0  0  0  0  0  0  # atno 17343 bound_to 10162
  156.2051  130.6644  151.1210 LP  0  0  0  0  0  0  0  0  0  0  0  0  # atno 17370 bound_to 10713
  157.7127  131.0726  150.6442 LP  0  0  0  0  0  0  0  0  0  0  0  0  # atno 17371 bound_to 10713
  141.0895  133.9938  157.3259 LP  0  0  0  0  0  0  0  0  0  0  0  0  # atno 17394 bound_to 11000
  139.9248  135.0201  156.8194 LP  0  0  0  0  0  0  0  0  0  0  0  0  # atno 17395 bound_to 11000

$$$$
