AV-unprocessed.smi:72|AV-procd|sdf|689|dock4
  -GOLD-   2262017 03D 1   1.00000     0.00000
 Structure written by MMmdl.
 29 30  0  0  0  0  0  0  0  0  1 V2000
  153.8870  138.8608  159.0822 N   0  0  0  0  0  0  0  0  0  0  0  0
  153.1273  139.0076  158.0563 C   0  0  0  0  0  0  0  0  0  0  0  0
  152.4972  140.2021  157.6763 N   0  0  0  0  0  0  0  0  0  0  0  0
  151.7548  140.2029  156.6118 C   0  0  0  0  0  0  0  0  0  0  0  0
  151.5533  139.0067  155.8053 N   0  0  0  0  0  0  0  0  0  0  0  0
  150.6855  139.0001  154.5586 C   0  0  2  0  0  0  0  0  0  0  0  0
  150.2164  140.2909  154.2922 O   0  0  0  0  0  0  0  0  0  0  0  0
  148.8229  140.3764  154.5767 C   0  0  1  0  0  0  0  0  0  0  0  0
  148.1685  141.5407  153.8127 C   0  0  0  0  0  0  0  0  0  0  0  0
  148.7106  142.7699  154.2463 O   0  0  0  0  0  0  0  0  0  0  0  0
  148.3133  138.9760  154.2150 C   0  0  1  0  0  0  0  0  0  0  0  0
  148.1145  138.8487  152.8183 O   0  0  0  0  0  0  0  0  0  0  0  0
  149.4503  138.0724  154.6735 C   0  0  2  0  0  0  0  0  0  0  0  0
  149.1935  137.6153  155.9904 O   0  0  0  0  0  0  0  0  0  0  0  0
  152.1824  137.7937  156.1785 C   0  0  0  0  0  0  0  0  0  0  0  0
  152.0356  136.7523  155.5388 O   0  0  0  0  0  0  0  0  0  0  0  0
  152.9471  137.8494  157.2900 N   0  0  0  0  0  0  0  0  0  0  0  0
  151.3539  138.7225  153.7416 H   0  0  0  0  0  0  0  0  0  0  0  0
  148.6856  140.5136  155.6508 H   0  0  0  0  0  0  0  0  0  0  0  0
  147.3686  138.7468  154.7102 H   0  0  0  0  0  0  0  0  0  0  0  0
  149.5794  137.2030  154.0272 H   0  0  0  0  0  0  0  0  0  0  0  0
  154.2153  137.9071  159.1353 H   0  0  0  0  0  0  0  0  0  0  0  0
  151.2412  141.0981  156.2618 H   0  0  0  0  0  0  0  0  0  0  0  0
  148.2942  141.4316  152.7350 H   0  0  0  0  0  0  0  0  0  0  0  0
  147.0975  141.5685  154.0158 H   0  0  0  0  0  0  0  0  0  0  0  0
  149.5378  142.6004  154.6711 H   0  0  0  0  0  0  0  0  0  0  0  0
  148.7056  139.4381  152.3754 H   0  0  0  0  0  0  0  0  0  0  0  0
  149.4404  136.7046  156.0430 H   0  0  0  0  0  0  0  0  0  0  0  0
  153.4096  137.0016  157.5843 H   0  0  0  0  0  0  0  0  0  0  0  0
  1  2  2  0  0  0  0
  1 22  1  0  0  0  0
  2 17  1  0  0  0  0
  2  3  1  0  0  0  0
  3  4  2  0  0  0  0
  4  5  1  0  0  0  0
  4 23  1  0  0  0  0
  5  6  1  0  0  0  0
  5 15  1  0  0  0  0
  6 18  1  0  0  0  0
  6 13  1  0  0  0  0
  6  7  1  0  0  0  0
  7  8  1  0  0  0  0
  8 19  1  0  0  0  0
  8  9  1  0  0  0  0
  8 11  1  0  0  0  0
  9 10  1  0  0  0  0
  9 24  1  0  0  0  0
  9 25  1  0  0  0  0
 10 26  1  0  0  0  0
 11 20  1  0  0  0  0
 11 12  1  0  0  0  0
 11 13  1  0  0  0  0
 12 27  1  0  0  0  0
 13 21  1  0  0  0  0
 13 14  1  0  0  0  0
 14 28  1  0  0  0  0
 15 16  2  0  0  0  0
 15 17  1  0  0  0  0
 17 29  1  0  0  0  0
M  END
> <s_m_source_file>
AV-unprocessed.smi

> <i_m_source_file_index>
72

> <i_lp_mmshare_version>
43012

> <i_f3d_flags>
0

> <s_epik_input>
W05IMl1jMW5bY0hdbihjKD1PKW4xKVtDQEBIXTJPW0NASF0oW0NIMl1bT0hdKVtDQEBIXShbT0hdKVtDQEhdMltPSF0=

> <s_epik_cmdline>
J2VwaWtfcHl0aG9uJywgJy1waCcsICc3LjAnLCAnLXRuJywgJzgnLCAnLW1hJywgJzIwMCcsICctbWV0YWxfYmluZGluZycsICctaW1hZScsICc8aW5maWxlLm1hZT4nLCAnLW9tYWUnLCAnPG91dGZpbGUubWFlPic=

> <r_lp_tautomer_probability>
7.17554e-07

> <r_epik_Ionization_Penalty>
0.0066451

> <r_epik_Ionization_Penalty_Charging>
0.00663793

> <r_epik_Ionization_Penalty_Neutral>
7.17052e-06

> <r_epik_State_Penalty>
0.419231

> <r_epik_Charging_Adjusted_Penalty>
0.425868

> <i_epik_Tot_Q>
0

> <i_epik_Tot_abs_Q>
0

> <r_epik_Metal_State_Penalty>
1.44144

> <b_epik_Metal_Only>
0

> <s_epik_Chemistry_Notes>
This compound contains an acetal/aminal-like group ( X-CH(R)-Y where X, Y are N, S, or O) that may be acid/base labile, releasing an aldehyde.

> <s_lp_Force_Field>
OPLS_2005

> <r_lp_Energy>
44.3496

> <b_lp_Chiralities_Consistent>
1

> <s_lp_Variant>
AV-unprocessed.smi:72-27

> <Gold.Version>
5.8.1

> <Gold.Id.Protein>
6NUR|6NUR_protein|mol2

> <Gold.PLP.Fitness>
36.0185

> <Gold.PLP.PLP>
-24.5638

> <Gold.PLP.part.hbond>
-7.2983

> <Gold.PLP.part.metal>
0.0000

> <Gold.PLP.part.buried>
-2.1499

> <Gold.PLP.part.nonpolar>
-15.9038

> <Gold.PLP.part.repulsive>
0.2945

> <Gold.PLP.ligand.clash>
0.0000

> <Gold.PLP.ligand.torsion>
0.0307

> <Gold.PLP.Chemscore.Hbond>
3.8199

> <Gold.PLP.Chemscore.CHOScore>
0.0000

> <Gold.PLP.Chemscore.Metal>
0.0000

> <Gold.Chemscore.Hbonds>
donor molecule, donor type, donor heavy atom, donor atom, acceptor molecule, acceptor atom, score
      L1  H    12    27       P1  7957  1.00
      P1  H  7989  7998       L1     7  0.88
      P1  H  8022  8030       L1    10  0.86
      P1  H 10752 10763       L1    16  1.00

> <Gold.PLP.Chemscore.Internal.Correction>
0.0563

> <Gold.Rescore>
     Score         DG    S(hbond)    S(metal)    S(lipo)     H(rot)  DE(clash)    DE(int)     intcor
      8.28      -9.06       3.41        0.00      22.09       4.06       0.55       0.23       ----

> <Gold.Chemscore.Fitness>
8.2760

> <Gold.Chemscore.DG>
-9.0619

> <Gold.Chemscore.ZeroCoef>
-5.4800

> <Gold.Chemscore.Hbond>
3.4104

> <Gold.Chemscore.Metal>
0.0000

> <Gold.Chemscore.Lipo>
22.0932

> <Gold.Chemscore.Internal_Hbond>
0.0000

> <Gold.Chemscore.DEClash>
0.5516

> <Gold.Chemscore.DEInternal>
0.2343

> <Gold.Chemscore.Rot>
4.0600

> <Gold.Chemscore.Internal.Correction>
   9.000000E+99

> <Gold.Chemscore.Hbonds>
donor molecule, donor type, donor heavy atom, donor atom, acceptor molecule, acceptor atom, score
      L1  H    12    27       P1  7957  0.98
      P1  H  7989  7998       L1     7  0.17
      P1  H  8022  8030       L1    10  0.66
      P1  H 10752 10763       L1    16  0.97

> <Gold.Chemscore.Hbond.Weighted>
-11.3906

> <Gold.Chemscore.Metal.Weighted>
-0.0000

> <Gold.Chemscore.Lipo.Weighted>
-2.5849

> <Gold.Chemscore.Internal_Hbond.Weighted>
0.0000

> <Gold.Chemscore.DEClash.Weighted>
0.5516

> <Gold.Chemscore.DEInternal.Weighted>
0.2343

> <Gold.Chemscore.Rot.Weighted>
10.3936

> <Gold.Chemscore.Internal.Correction.Weighted>
   9.000000E+99

> <Gold.Protein.RotatedTorsions>
[ 6907 6896 6895 6894 ] final    7.49 input  -60.11 | X-H torsion
[ 7974 7965 7964 7962 ] final  -20.49 input  175.53 | X-H torsion
[ 8008 7997 7996 7995 ] final   87.17 input   59.86 | X-H torsion
[ 10167 10162 10161 10158 ] final  -44.23 input  -65.29 | X-H torsion
[ 10718 10713 10712 10709 ] final -117.50 input   66.30 | X-H torsion
[ 10763 10752 10751 10750 ] final   68.40 input  -60.55 | X-H torsion
[ 11005 11000 10999 10996 ] final -141.32 input  -57.11 | X-H torsion

> <Gold.Protein.ActiveResidues>
 VAL166  LYS551  ARG553  GLY616  TRP617  ASP618  TYR619  PRO620  LYS621  CYS622 
 ASP623  PHE694  ASN695  SER759  ASP760  ASP761  ALA762  ILE779  LEU786  VAL792 
 PHE793  MET794  SER795  GLU796  ALA797  LYS798  CYS799  TRP800  GLU811  SER814 

> <Gold.Protein.RotatedAtoms>
  151.6907  135.0947  160.0232 H   0  0  0  0  0  0  0  0  0  0  0  0  # atno 6907 bound_to 6896
  152.3780  133.6503  159.6147 H   0  0  0  0  0  0  0  0  0  0  0  0  # atno 6908 bound_to 6896
  150.7724  133.9077  159.3401 H   0  0  0  0  0  0  0  0  0  0  0  0  # atno 6909 bound_to 6896
  146.1785  140.4210  142.8504 H   0  0  0  0  0  0  0  0  0  0  0  0  # atno 7974 bound_to 7965
  155.9720  140.3385  155.6584 H   0  0  0  0  0  0  0  0  0  0  0  0  # atno 8008 bound_to 7997
  155.6661  140.0721  157.2555 H   0  0  0  0  0  0  0  0  0  0  0  0  # atno 8009 bound_to 7997
  154.4169  140.1700  156.1817 H   0  0  0  0  0  0  0  0  0  0  0  0  # atno 8010 bound_to 7997
  140.6904  143.2941  151.3466 H   0  0  0  0  0  0  0  0  0  0  0  0  # atno 10167 bound_to 10162
  156.1038  130.6193  150.9171 H   0  0  0  0  0  0  0  0  0  0  0  0  # atno 10718 bound_to 10713
  153.0233  135.5248  154.7129 H   0  0  0  0  0  0  0  0  0  0  0  0  # atno 10763 bound_to 10752
  154.6206  135.2888  155.0332 H   0  0  0  0  0  0  0  0  0  0  0  0  # atno 10764 bound_to 10752
  154.1320  135.6591  153.4976 H   0  0  0  0  0  0  0  0  0  0  0  0  # atno 10765 bound_to 10752
  140.8336  134.2487  157.4845 H   0  0  0  0  0  0  0  0  0  0  0  0  # atno 11005 bound_to 11000
  144.8275  140.6653  143.6312 LP  0  0  0  0  0  0  0  0  0  0  0  0  # atno 17320 bound_to 7965
  145.4144  139.1574  143.4108 LP  0  0  0  0  0  0  0  0  0  0  0  0  # atno 17321 bound_to 7965
  139.6302  144.0735  152.2470 LP  0  0  0  0  0  0  0  0  0  0  0  0  # atno 17342 bound_to 10162
  140.0208  144.6155  150.7569 LP  0  0  0  0  0  0  0  0  0  0  0  0  # atno 17343 bound_to 10162
  157.6212  131.0929  150.8619 LP  0  0  0  0  0  0  0  0  0  0  0  0  # atno 17370 bound_to 10713
  156.8742  130.5156  149.5295 LP  0  0  0  0  0  0  0  0  0  0  0  0  # atno 17371 bound_to 10713
  139.8704  134.9599  156.4346 LP  0  0  0  0  0  0  0  0  0  0  0  0  # atno 17394 bound_to 11000
  140.8971  133.7806  155.9638 LP  0  0  0  0  0  0  0  0  0  0  0  0  # atno 17395 bound_to 11000

$$$$
