AV-unprocessed.smi:2569|AV-procd|sdf|10103|dock1
  -GOLD-   2272014113D 1   1.00000     0.00000
 Structure written by MMmdl.
 39 41  0  0  0  0  0  0  0  0  1 V2000
  153.0562  142.7154  161.8461 C   0  0  0  0  0  0  0  0  0  0  0  0
  152.5108  142.4397  160.4559 C   0  0  0  0  0  0  0  0  0  0  0  0
  152.8151  141.2099  159.8295 C   0  0  0  0  0  0  0  0  0  0  0  0
  152.3281  140.9155  158.5372 C   0  0  0  0  0  0  0  0  0  0  0  0
  152.4960  139.7906  157.7479 N   0  0  0  0  0  0  0  0  0  0  0  0
  151.8027  140.1193  156.6617 C   0  0  0  0  0  0  0  0  0  0  0  0
  151.2031  141.3253  156.6546 N   0  0  0  0  0  0  0  0  0  0  0  0
  150.4012  141.8941  155.5862 C   0  0  0  0  0  0  0  0  0  0  0  0
  149.4539  140.8593  154.9423 C   0  0  1  0  0  0  0  0  0  0  0  0
  150.1919  139.9631  154.1352 O   0  0  0  0  0  0  0  0  0  0  0  0
  148.6559  140.0287  155.9665 C   0  0  0  0  0  0  0  0  0  0  0  0
  147.7430  140.8370  156.7575 N   0  0  0  0  0  0  0  0  0  0  0  0
  147.6808  140.7050  158.1059 N   0  0  0  0  0  0  0  0  0  0  0  0
  146.7898  141.5572  158.5244 N   0  0  0  0  0  0  0  0  0  0  0  0
  146.2405  142.2673  157.4733 N   0  0  0  0  0  0  0  0  0  0  0  0
  146.8612  141.7819  156.4062 C   0  0  0  0  0  0  0  0  0  0  0  0
  146.6298  142.2197  154.9975 C   0  0  0  0  0  0  0  0  0  0  0  0
  151.5241  141.8938  157.8824 C   0  0  0  0  0  0  0  0  0  0  0  0
  151.2144  143.1208  158.4951 C   0  0  0  0  0  0  0  0  0  0  0  0
  151.7065  143.3978  159.7877 C   0  0  0  0  0  0  0  0  0  0  0  0
  151.3623  144.7238  160.4426 C   0  0  0  0  0  0  0  0  0  0  0  0
  153.6463  141.8767  162.2165 H   0  0  0  0  0  0  0  0  0  0  0  0
  152.2414  142.8869  162.5497 H   0  0  0  0  0  0  0  0  0  0  0  0
  153.6976  143.5969  161.8363 H   0  0  0  0  0  0  0  0  0  0  0  0
  153.4266  140.4794  160.3384 H   0  0  0  0  0  0  0  0  0  0  0  0
  151.7251  139.4443  155.8218 H   0  0  0  0  0  0  0  0  0  0  0  0
  149.8338  142.7360  155.9849 H   0  0  0  0  0  0  0  0  0  0  0  0
  151.0835  142.3051  154.8414 H   0  0  0  0  0  0  0  0  0  0  0  0
  148.7548  141.3821  154.2888 H   0  0  0  0  0  0  0  0  0  0  0  0
  149.7665  139.8961  153.2938 H   0  0  0  0  0  0  0  0  0  0  0  0
  148.0778  139.2549  155.4602 H   0  0  0  0  0  0  0  0  0  0  0  0
  149.3379  139.5099  156.6425 H   0  0  0  0  0  0  0  0  0  0  0  0
  145.7289  142.8308  154.9335 H   0  0  0  0  0  0  0  0  0  0  0  0
  146.5067  141.3548  154.3453 H   0  0  0  0  0  0  0  0  0  0  0  0
  147.4754  142.8106  154.6456 H   0  0  0  0  0  0  0  0  0  0  0  0
  150.6001  143.8408  157.9748 H   0  0  0  0  0  0  0  0  0  0  0  0
  150.7461  145.3421  159.7891 H   0  0  0  0  0  0  0  0  0  0  0  0
  152.2690  145.2828  160.6748 H   0  0  0  0  0  0  0  0  0  0  0  0
  150.8086  144.5605  161.3675 H   0  0  0  0  0  0  0  0  0  0  0  0
  1  2  1  0  0  0  0
  1 22  1  0  0  0  0
  1 23  1  0  0  0  0
  1 24  1  0  0  0  0
  2 20  1  0  0  0  0
  2  3  2  0  0  0  0
  3  4  1  0  0  0  0
  3 25  1  0  0  0  0
  4 18  2  0  0  0  0
  4  5  1  0  0  0  0
  5  6  2  0  0  0  0
  6  7  1  0  0  0  0
  6 26  1  0  0  0  0
  7  8  1  0  0  0  0
  7 18  1  0  0  0  0
  8  9  1  0  0  0  0
  8 27  1  0  0  0  0
  8 28  1  0  0  0  0
  9 10  1  0  0  0  0
  9 11  1  0  0  0  0
  9 29  1  0  0  0  0
 10 30  1  0  0  0  0
 11 12  1  0  0  0  0
 11 31  1  0  0  0  0
 11 32  1  0  0  0  0
 12 16  1  0  0  0  0
 12 13  1  0  0  0  0
 13 14  2  0  0  0  0
 14 15  1  0  0  0  0
 15 16  2  0  0  0  0
 16 17  1  0  0  0  0
 17 33  1  0  0  0  0
 17 34  1  0  0  0  0
 17 35  1  0  0  0  0
 18 19  1  0  0  0  0
 19 20  2  0  0  0  0
 19 36  1  0  0  0  0
 20 21  1  0  0  0  0
 21 37  1  0  0  0  0
 21 38  1  0  0  0  0
 21 39  1  0  0  0  0
M  END
> <s_m_source_file>
AV-unprocessed.smi

> <i_m_source_file_index>
2569

> <i_lp_mmshare_version>
43012

> <i_f3d_flags>
0

> <s_epik_input>
W0NIM11jKFtjSF0xKWMoW0NIM10pW2NIXWMoYzEyKW4oW2NIXW4yKVtDSDJdW0NASF0oW09IXSlbQ0gyXW4zbm5uYzNbQ0gzXQ==

> <s_epik_cmdline>
J2VwaWtfcHl0aG9uJywgJy1waCcsICc3LjAnLCAnLXRuJywgJzgnLCAnLW1hJywgJzIwMCcsICctbWV0YWxfYmluZGluZycsICctaW1hZScsICc8aW5maWxlLm1hZT4nLCAnLW9tYWUnLCAnPG91dGZpbGUubWFlPic=

> <r_lp_tautomer_probability>
1

> <r_epik_Ionization_Penalty>
0.0946713

> <r_epik_Ionization_Penalty_Charging>
0

> <r_epik_Ionization_Penalty_Neutral>
0.0946713

> <r_epik_State_Penalty>
0.0848712

> <r_epik_Charging_Adjusted_Penalty>
0.0848712

> <i_epik_Tot_Q>
0

> <i_epik_Tot_abs_Q>
0

> <r_epik_Metal_State_Penalty>
0.0730911

> <b_epik_Metal_Only>
0

> <s_lp_Force_Field>
OPLS_2005

> <r_lp_Energy>
9.51249

> <b_lp_Chiralities_Consistent>
1

> <s_lp_Variant>
AV-unprocessed.smi:2569-2

> <Gold.Version>
5.8.1

> <Gold.Id.Protein>
6NUR|6NUR_protein|mol2

> <Gold.PLP.Fitness>
49.0770

> <Gold.PLP.PLP>
-40.2976

> <Gold.PLP.part.hbond>
-5.0000

> <Gold.PLP.part.metal>
0.0000

> <Gold.PLP.part.buried>
-5.0754

> <Gold.PLP.part.nonpolar>
-30.4297

> <Gold.PLP.part.repulsive>
0.0851

> <Gold.PLP.ligand.clash>
0.0000

> <Gold.PLP.ligand.torsion>
0.5013

> <Gold.PLP.Chemscore.Hbond>
3.2509

> <Gold.PLP.Chemscore.CHOScore>
0.0000

> <Gold.PLP.Chemscore.Metal>
0.0000

> <Gold.Chemscore.Hbonds>
donor molecule, donor type, donor heavy atom, donor atom, acceptor molecule, acceptor atom, score
      L1  H    10    30       P1  7957  0.71
      P1  H  6934  6946       L1    14  0.12
      P1  H  7989  7998       L1    10  0.70
      P1  H  7997  8009       L1     5  0.44

> <Gold.PLP.Chemscore.Internal.Correction>
0.0293

> <Gold.Rescore>
     Score         DG    S(hbond)    S(metal)    S(lipo)     H(rot)  DE(clash)    DE(int)     intcor
     15.61     -17.79       2.08        0.00     101.00       2.53       0.73       1.46       ----

> <Gold.Chemscore.Fitness>
15.6060

> <Gold.Chemscore.DG>
-17.7916

> <Gold.Chemscore.ZeroCoef>
-5.4800

> <Gold.Chemscore.Hbond>
2.0850

> <Gold.Chemscore.Metal>
0.0000

> <Gold.Chemscore.Lipo>
101.0001

> <Gold.Chemscore.Internal_Hbond>
0.0000

> <Gold.Chemscore.DEClash>
0.7279

> <Gold.Chemscore.DEInternal>
1.4577

> <Gold.Chemscore.Rot>
2.5270

> <Gold.Chemscore.Internal.Correction>
   9.000000E+99

> <Gold.Chemscore.Hbonds>
donor molecule, donor type, donor heavy atom, donor atom, acceptor molecule, acceptor atom, score
      L1  H    10    30       P1  7957  0.72
      P1  H  6934  6946       L1    14  0.01
      P1  H  7989  7998       L1    10  0.05
      P1  H  7997  8009       L1     5  0.02

> <Gold.Chemscore.Hbond.Weighted>
-6.9637

> <Gold.Chemscore.Metal.Weighted>
-0.0000

> <Gold.Chemscore.Lipo.Weighted>
-11.8170

> <Gold.Chemscore.Internal_Hbond.Weighted>
0.0000

> <Gold.Chemscore.DEClash.Weighted>
0.7279

> <Gold.Chemscore.DEInternal.Weighted>
1.4577

> <Gold.Chemscore.Rot.Weighted>
6.4691

> <Gold.Chemscore.Internal.Correction.Weighted>
   9.000000E+99

> <Gold.Protein.RotatedTorsions>
[ 6907 6896 6895 6894 ] final  167.71 input  -60.11 | X-H torsion
[ 7974 7965 7964 7962 ] final   81.22 input  175.53 | X-H torsion
[ 8008 7997 7996 7995 ] final  171.99 input   59.86 | X-H torsion
[ 10167 10162 10161 10158 ] final  -33.62 input  -65.29 | X-H torsion
[ 10718 10713 10712 10709 ] final  132.38 input   66.30 | X-H torsion
[ 10763 10752 10751 10750 ] final   21.12 input  -60.55 | X-H torsion
[ 11005 11000 10999 10996 ] final    0.17 input  -57.11 | X-H torsion

> <Gold.Protein.ActiveResidues>
 VAL166  LYS551  ARG553  GLY616  TRP617  ASP618  TYR619  PRO620  LYS621  CYS622 
 ASP623  PHE694  ASN695  SER759  ASP760  ASP761  ALA762  ILE779  LEU786  VAL792 
 PHE793  MET794  SER795  GLU796  ALA797  LYS798  CYS799  TRP800  GLU811  SER814 

> <Gold.Protein.RotatedAtoms>
  151.8591  133.3454  159.3697 H   0  0  0  0  0  0  0  0  0  0  0  0  # atno 6907 bound_to 6896
  150.7184  134.5224  159.5669 H   0  0  0  0  0  0  0  0  0  0  0  0  # atno 6908 bound_to 6896
  152.2734  134.7909  160.0461 H   0  0  0  0  0  0  0  0  0  0  0  0  # atno 6909 bound_to 6896
  145.6410  139.2425  143.2031 H   0  0  0  0  0  0  0  0  0  0  0  0  # atno 7974 bound_to 7965
  156.1217  140.1497  156.9194 H   0  0  0  0  0  0  0  0  0  0  0  0  # atno 8008 bound_to 7997
  154.4841  140.0870  156.7487 H   0  0  0  0  0  0  0  0  0  0  0  0  # atno 8009 bound_to 7997
  155.4415  140.3431  155.4293 H   0  0  0  0  0  0  0  0  0  0  0  0  # atno 8010 bound_to 7997
  140.7201  143.3607  151.1968 H   0  0  0  0  0  0  0  0  0  0  0  0  # atno 10167 bound_to 10162
  157.4876  131.1089  150.9599 H   0  0  0  0  0  0  0  0  0  0  0  0  # atno 10718 bound_to 10713
  153.1021  135.6675  153.9654 H   0  0  0  0  0  0  0  0  0  0  0  0  # atno 10763 bound_to 10752
  153.9221  135.3013  155.3449 H   0  0  0  0  0  0  0  0  0  0  0  0  # atno 10764 bound_to 10752
  154.7442  135.5065  153.9250 H   0  0  0  0  0  0  0  0  0  0  0  0  # atno 10765 bound_to 10752
  140.6295  133.9588  155.8267 H   0  0  0  0  0  0  0  0  0  0  0  0  # atno 11005 bound_to 11000
  146.1281  140.7222  142.9425 LP  0  0  0  0  0  0  0  0  0  0  0  0  # atno 17320 bound_to 7965
  144.7157  140.4202  143.7046 LP  0  0  0  0  0  0  0  0  0  0  0  0  # atno 17321 bound_to 7965
  139.7159  143.9302  152.2966 LP  0  0  0  0  0  0  0  0  0  0  0  0  # atno 17342 bound_to 10162
  139.9042  144.6894  150.8632 LP  0  0  0  0  0  0  0  0  0  0  0  0  # atno 17343 bound_to 10162
  157.0311  130.5712  149.5343 LP  0  0  0  0  0  0  0  0  0  0  0  0  # atno 17370 bound_to 10713
  156.0156  130.5249  150.8123 LP  0  0  0  0  0  0  0  0  0  0  0  0  # atno 17371 bound_to 10713
  141.0685  134.0241  157.3560 LP  0  0  0  0  0  0  0  0  0  0  0  0  # atno 17394 bound_to 11000
  139.9121  135.0192  156.7735 LP  0  0  0  0  0  0  0  0  0  0  0  0  # atno 17395 bound_to 11000

$$$$
