AV-unprocessed.smi:1167|AV-procd|sdf|4938|dock10
  -GOLD-   22720 3523D 1   1.00000     0.00000
 Structure written by MMmdl.
 41 42  0  0  0  0  0  0  0  0  1 V2000
  154.3113  142.9557  164.3968 C   0  0  0  0  0  0  0  0  0  0  0  0
  154.6293  142.0099  163.3818 O   0  0  0  0  0  0  0  0  0  0  0  0
  153.9084  142.0433  162.2057 C   0  0  0  0  0  0  0  0  0  0  0  0
  152.9577  143.0671  162.0265 C   0  0  0  0  0  0  0  0  0  0  0  0
  152.2153  143.1082  160.8305 C   0  0  0  0  0  0  0  0  0  0  0  0
  152.4485  142.1179  159.8449 C   0  0  0  0  0  0  0  0  0  0  0  0
  151.7766  142.0339  158.5934 N   0  0  0  0  0  0  0  0  0  0  0  0
  151.5132  140.9582  157.8308 C   0  0  0  0  0  0  0  0  0  0  0  0
  151.8205  139.7967  158.0952 O   0  0  0  0  0  0  0  0  0  0  0  0
  150.8572  141.3099  156.7156 N   0  0  0  0  0  0  0  0  0  0  0  0
  150.4191  140.3903  155.6698 C   0  0  0  0  0  0  0  0  0  0  0  0
  149.2888  139.4897  156.2126 C   0  0  0  0  0  0  0  0  0  0  0  0
  148.9269  138.3791  155.2103 C   0  0  0  0  0  0  0  0  0  0  0  0
  150.1378  137.6125  154.8950 N   0  0  0  0  0  0  0  0  0  0  0  0
  150.3337  136.3427  155.3245 C   0  0  0  0  0  0  0  0  0  0  0  0
  149.2277  135.6409  156.1160 C   0  0  0  0  0  0  0  0  0  0  0  0
  151.3718  135.7185  155.1043 O   0  0  0  0  0  0  0  0  0  0  0  0
  151.1325  138.4371  154.1976 C   0  0  0  0  0  0  0  0  0  0  0  0
  151.6083  139.5505  155.1477 C   0  0  0  0  0  0  0  0  0  0  0  0
  153.4248  141.1386  160.1228 C   0  0  0  0  0  0  0  0  0  0  0  0
  154.1392  141.0929  161.2670 N   0  0  0  0  0  0  0  0  0  0  0  0
  154.9666  142.7988  165.2535 H   0  0  0  0  0  0  0  0  0  0  0  0
  153.2827  142.8406  164.7419 H   0  0  0  0  0  0  0  0  0  0  0  0
  154.4604  143.9792  164.0493 H   0  0  0  0  0  0  0  0  0  0  0  0
  152.7989  143.8098  162.7945 H   0  0  0  0  0  0  0  0  0  0  0  0
  151.4922  143.8973  160.7060 H   0  0  0  0  0  0  0  0  0  0  0  0
  151.4582  142.9176  158.2235 H   0  0  0  0  0  0  0  0  0  0  0  0
  150.6442  142.2871  156.5780 H   0  0  0  0  0  0  0  0  0  0  0  0
  150.0106  140.9650  154.8363 H   0  0  0  0  0  0  0  0  0  0  0  0
  149.5989  139.0316  157.1533 H   0  0  0  0  0  0  0  0  0  0  0  0
  148.4062  140.0897  156.4369 H   0  0  0  0  0  0  0  0  0  0  0  0
  148.1274  137.7585  155.6168 H   0  0  0  0  0  0  0  0  0  0  0  0
  148.5260  138.8159  154.2944 H   0  0  0  0  0  0  0  0  0  0  0  0
  148.3088  135.5848  155.5316 H   0  0  0  0  0  0  0  0  0  0  0  0
  149.0250  136.1694  157.0480 H   0  0  0  0  0  0  0  0  0  0  0  0
  149.5237  134.6222  156.3692 H   0  0  0  0  0  0  0  0  0  0  0  0
  151.9886  137.8731  153.8303 H   0  0  0  0  0  0  0  0  0  0  0  0
  150.6741  138.8771  153.3109 H   0  0  0  0  0  0  0  0  0  0  0  0
  152.3261  140.1914  154.6345 H   0  0  0  0  0  0  0  0  0  0  0  0
  152.1410  139.1006  155.9870 H   0  0  0  0  0  0  0  0  0  0  0  0
  153.6419  140.3625  159.4032 H   0  0  0  0  0  0  0  0  0  0  0  0
  1  2  1  0  0  0  0
  1 22  1  0  0  0  0
  1 23  1  0  0  0  0
  1 24  1  0  0  0  0
  2  3  1  0  0  0  0
  3 21  1  0  0  0  0
  3  4  2  0  0  0  0
  4  5  1  0  0  0  0
  4 25  1  0  0  0  0
  5  6  2  0  0  0  0
  5 26  1  0  0  0  0
  6  7  1  0  0  0  0
  6 20  1  0  0  0  0
  7  8  1  0  0  0  0
  7 27  1  0  0  0  0
  8  9  2  0  0  0  0
  8 10  1  0  0  0  0
 10 11  1  0  0  0  0
 10 28  1  0  0  0  0
 11 19  1  0  0  0  0
 11 12  1  0  0  0  0
 11 29  1  0  0  0  0
 12 13  1  0  0  0  0
 12 30  1  0  0  0  0
 12 31  1  0  0  0  0
 13 14  1  0  0  0  0
 13 32  1  0  0  0  0
 13 33  1  0  0  0  0
 14 15  1  0  0  0  0
 14 18  1  0  0  0  0
 15 16  1  0  0  0  0
 15 17  2  0  0  0  0
 16 34  1  0  0  0  0
 16 35  1  0  0  0  0
 16 36  1  0  0  0  0
 18 19  1  0  0  0  0
 18 37  1  0  0  0  0
 18 38  1  0  0  0  0
 19 39  1  0  0  0  0
 19 40  1  0  0  0  0
 20 21  2  0  0  0  0
 20 41  1  0  0  0  0
M  END
> <s_m_source_file>
AV-unprocessed.smi

> <i_m_source_file_index>
1167

> <i_lp_mmshare_version>
43012

> <i_f3d_flags>
0

> <s_epik_input>
W0NIM11PYzFbY0hdW2NIXWMoW2NIXW4xKVtOSF1DKD1PKVtOSF1bQ0hdMltDSDJdW0NIMl1OKEMoPU8pW0NIM10pW0NIMl1bQ0gyXTI=

> <s_epik_cmdline>
J2VwaWtfcHl0aG9uJywgJy1waCcsICc3LjAnLCAnLXRuJywgJzgnLCAnLW1hJywgJzIwMCcsICctbWV0YWxfYmluZGluZycsICctaW1hZScsICc8aW5maWxlLm1hZT4nLCAnLW9tYWUnLCAnPG91dGZpbGUubWFlPic=

> <r_lp_tautomer_probability>
1

> <r_epik_Ionization_Penalty>
9.6092e-05

> <r_epik_Ionization_Penalty_Charging>
0

> <r_epik_Ionization_Penalty_Neutral>
9.6092e-05

> <r_epik_State_Penalty>
-0

> <r_epik_Charging_Adjusted_Penalty>
0

> <i_epik_Tot_Q>
0

> <i_epik_Tot_abs_Q>
0

> <r_epik_Metal_State_Penalty>
-0

> <b_epik_Metal_Only>
0

> <s_lp_Force_Field>
OPLS_2005

> <r_lp_Energy>
24.5609

> <b_lp_Chiralities_Consistent>
1

> <s_lp_Variant>
AV-unprocessed.smi:1167-1

> <Gold.Version>
5.8.1

> <Gold.Id.Protein>
6NUR|6NUR_protein|mol2

> <Gold.PLP.Fitness>
40.7315

> <Gold.PLP.PLP>
-38.8634

> <Gold.PLP.part.hbond>
-2.0000

> <Gold.PLP.part.metal>
0.0000

> <Gold.PLP.part.buried>
-4.6516

> <Gold.PLP.part.nonpolar>
-31.1187

> <Gold.PLP.part.repulsive>
0.2790

> <Gold.PLP.ligand.clash>
0.6608

> <Gold.PLP.ligand.torsion>
0.2440

> <Gold.PLP.Chemscore.Hbond>
1.0000

> <Gold.PLP.Chemscore.CHOScore>
0.0000

> <Gold.PLP.Chemscore.Metal>
0.0000

> <Gold.Chemscore.Hbonds>
donor molecule, donor type, donor heavy atom, donor atom, acceptor molecule, acceptor atom, score
      P1  H 10752 10764       L1    17  1.00

> <Gold.PLP.Chemscore.Internal.Correction>
0.0168

> <Gold.Rescore>
     Score         DG    S(hbond)    S(metal)    S(lipo)     H(rot)  DE(clash)    DE(int)     intcor
     12.44     -15.53       0.99        0.00      85.49       1.27       0.51       2.58       ----

> <Gold.Chemscore.Fitness>
12.4428

> <Gold.Chemscore.DG>
-15.5329

> <Gold.Chemscore.ZeroCoef>
-5.4800

> <Gold.Chemscore.Hbond>
0.9921

> <Gold.Chemscore.Metal>
0.0000

> <Gold.Chemscore.Lipo>
85.4902

> <Gold.Chemscore.Internal_Hbond>
0.0000

> <Gold.Chemscore.DEClash>
0.5107

> <Gold.Chemscore.DEInternal>
2.5794

> <Gold.Chemscore.Rot>
1.2746

> <Gold.Chemscore.Internal.Correction>
   9.000000E+99

> <Gold.Chemscore.Hbonds>
donor molecule, donor type, donor heavy atom, donor atom, acceptor molecule, acceptor atom, score
      P1  H 10752 10764       L1    17  0.96

> <Gold.Chemscore.Hbond.Weighted>
-3.3135

> <Gold.Chemscore.Metal.Weighted>
-0.0000

> <Gold.Chemscore.Lipo.Weighted>
-10.0024

> <Gold.Chemscore.Internal_Hbond.Weighted>
0.0000

> <Gold.Chemscore.DEClash.Weighted>
0.5107

> <Gold.Chemscore.DEInternal.Weighted>
2.5794

> <Gold.Chemscore.Rot.Weighted>
3.2630

> <Gold.Chemscore.Internal.Correction.Weighted>
   9.000000E+99

> <Gold.Protein.RotatedTorsions>
[ 6907 6896 6895 6894 ] final   25.98 input  -60.11 | X-H torsion
[ 7974 7965 7964 7962 ] final -175.05 input  175.53 | X-H torsion
[ 8008 7997 7996 7995 ] final  126.27 input   59.86 | X-H torsion
[ 10167 10162 10161 10158 ] final  113.83 input  -65.29 | X-H torsion
[ 10718 10713 10712 10709 ] final -165.30 input   66.30 | X-H torsion
[ 10763 10752 10751 10750 ] final  -39.75 input  -60.55 | X-H torsion
[ 11005 11000 10999 10996 ] final  -46.14 input  -57.11 | X-H torsion

> <Gold.Protein.ActiveResidues>
 VAL166  LYS551  ARG553  GLY616  TRP617  ASP618  TYR619  PRO620  LYS621  CYS622 
 ASP623  PHE694  ASN695  SER759  ASP760  ASP761  ALA762  ILE779  LEU786  VAL792 
 PHE793  MET794  SER795  GLU796  ALA797  LYS798  CYS799  TRP800  GLU811  SER814 

> <Gold.Protein.RotatedAtoms>
  151.9806  135.0030  160.0556 H   0  0  0  0  0  0  0  0  0  0  0  0  # atno 6907 bound_to 6896
  152.1700  133.4632  159.4912 H   0  0  0  0  0  0  0  0  0  0  0  0  # atno 6908 bound_to 6896
  150.6900  134.1883  159.4318 H   0  0  0  0  0  0  0  0  0  0  0  0  # atno 6909 bound_to 6896
  144.7129  140.1379  143.6394 H   0  0  0  0  0  0  0  0  0  0  0  0  # atno 7974 bound_to 7965
  156.2859  140.2696  156.2084 H   0  0  0  0  0  0  0  0  0  0  0  0  # atno 8008 bound_to 7997
  155.0290  140.0386  157.2484 H   0  0  0  0  0  0  0  0  0  0  0  0  # atno 8009 bound_to 7997
  154.7371  140.2718  155.6411 H   0  0  0  0  0  0  0  0  0  0  0  0  # atno 8010 bound_to 7997
  139.6433  144.7125  151.2193 H   0  0  0  0  0  0  0  0  0  0  0  0  # atno 10167 bound_to 10162
  156.6515  130.9009  151.3014 H   0  0  0  0  0  0  0  0  0  0  0  0  # atno 10718 bound_to 10713
  153.9345  135.6768  153.4745 H   0  0  0  0  0  0  0  0  0  0  0  0  # atno 10763 bound_to 10752
  153.0962  135.4850  154.8781 H   0  0  0  0  0  0  0  0  0  0  0  0  # atno 10764 bound_to 10752
  154.7410  135.3161  154.8686 H   0  0  0  0  0  0  0  0  0  0  0  0  # atno 10765 bound_to 10752
  141.0560  133.6725  156.3113 H   0  0  0  0  0  0  0  0  0  0  0  0  # atno 11005 bound_to 11000
  145.9228  139.2556  143.1371 LP  0  0  0  0  0  0  0  0  0  0  0  0  # atno 17320 bound_to 7965
  145.9603  140.8841  143.0214 LP  0  0  0  0  0  0  0  0  0  0  0  0  # atno 17321 bound_to 7965
  140.7502  143.6274  150.8455 LP  0  0  0  0  0  0  0  0  0  0  0  0  # atno 17342 bound_to 10162
  139.9914  143.5843  152.2909 LP  0  0  0  0  0  0  0  0  0  0  0  0  # atno 17343 bound_to 10162
  157.7139  130.9474  150.1187 LP  0  0  0  0  0  0  0  0  0  0  0  0  # atno 17370 bound_to 10713
  156.2081  130.3665  149.8704 LP  0  0  0  0  0  0  0  0  0  0  0  0  # atno 17371 bound_to 10713
  140.5963  134.5600  157.5509 LP  0  0  0  0  0  0  0  0  0  0  0  0  # atno 17394 bound_to 11000
  139.9391  134.7821  156.0726 LP  0  0  0  0  0  0  0  0  0  0  0  0  # atno 17395 bound_to 11000

$$$$
