AV-unprocessed.smi:2775|AV-procd|sdf|10698|dock5
  -GOLD-   2272015133D 1   1.00000     0.00000
 Structure written by MMmdl.
 43 46  0  0  0  0  0  0  0  0  2 V2000
  149.4875  130.2860  153.8526 C   0  0  0  0  0  0  0  0  0  0  0  0
  149.9845  131.5210  154.5793 C   0  0  0  0  0  0  0  0  0  0  0  0
  150.8347  131.3421  155.6141 N   0  3  0  0  0  0  0  0  0  0  0  0
  151.3372  132.3639  156.3376 C   0  0  0  0  0  0  0  0  0  0  0  0
  150.9838  133.6902  156.0216 C   0  0  0  0  0  0  0  0  0  0  0  0
  150.1061  133.9369  154.9354 C   0  0  0  0  0  0  0  0  0  0  0  0
  149.6810  135.2374  154.5466 N   0  0  0  0  0  0  0  0  0  0  0  0
  149.6034  136.3700  155.2716 C   0  0  0  0  0  0  0  0  0  0  0  0
  149.8976  136.4663  156.4607 O   0  0  0  0  0  0  0  0  0  0  0  0
  149.1721  137.4330  154.5706 N   0  0  0  0  0  0  0  0  0  0  0  0
  148.9789  138.7989  155.0607 C   0  0  2  0  0  0  0  0  0  0  0  0
  148.4003  139.7340  153.9823 C   0  0  1  0  0  0  0  0  0  0  0  0
  147.0435  140.3547  154.1804 C   0  0  0  0  0  0  0  0  0  0  0  0
  147.3801  141.7472  154.7205 C   0  0  0  0  0  0  0  0  0  0  0  0
  148.6863  141.6112  155.2755 O   0  0  0  0  0  0  0  0  0  0  0  0
  149.4362  140.7705  154.4039 C   0  0  1  0  0  0  0  0  0  0  0  0
  150.2547  139.6675  155.0858 C   0  0  0  0  0  0  0  0  0  0  0  0
  151.5923  139.2129  154.4708 C   0  0  0  0  0  0  0  0  0  0  0  0
  152.1376  139.0263  155.8892 C   0  0  0  0  0  0  0  0  0  0  0  0
  151.0121  139.9342  156.3942 C   0  0  0  0  0  0  0  0  0  0  0  0
  149.5917  132.8303  154.2150 C   0  0  0  0  0  0  0  0  0  0  0  0
  148.4945  133.0729  152.8966 Cl  0  0  0  0  0  0  0  0  0  0  0  0
  149.7490  130.3369  152.7951 H   0  0  0  0  0  0  0  0  0  0  0  0
  148.4032  130.2075  153.9363 H   0  0  0  0  0  0  0  0  0  0  0  0
  149.9262  129.3766  154.2653 H   0  0  0  0  0  0  0  0  0  0  0  0
  152.0000  132.0919  157.1463 H   0  0  0  0  0  0  0  0  0  0  0  0
  151.3861  134.4868  156.6273 H   0  0  0  0  0  0  0  0  0  0  0  0
  149.4592  135.3371  153.5665 H   0  0  0  0  0  0  0  0  0  0  0  0
  148.9462  137.2761  153.5987 H   0  0  0  0  0  0  0  0  0  0  0  0
  148.4137  138.8722  155.9925 H   0  0  0  0  0  0  0  0  0  0  0  0
  148.5921  139.3749  152.9695 H   0  0  0  0  0  0  0  0  0  0  0  0
  146.4673  140.4105  153.2564 H   0  0  0  0  0  0  0  0  0  0  0  0
  146.4585  139.7890  154.9062 H   0  0  0  0  0  0  0  0  0  0  0  0
  147.4140  142.4749  153.9083 H   0  0  0  0  0  0  0  0  0  0  0  0
  146.6618  142.0966  155.4623 H   0  0  0  0  0  0  0  0  0  0  0  0
  149.9137  141.2926  153.5737 H   0  0  0  0  0  0  0  0  0  0  0  0
  151.5626  138.3028  153.8720 H   0  0  0  0  0  0  0  0  0  0  0  0
  152.1010  140.0172  153.9373 H   0  0  0  0  0  0  0  0  0  0  0  0
  152.0483  137.9998  156.2458 H   0  0  0  0  0  0  0  0  0  0  0  0
  153.1423  139.4206  156.0441 H   0  0  0  0  0  0  0  0  0  0  0  0
  151.3249  140.9746  156.4939 H   0  0  0  0  0  0  0  0  0  0  0  0
  150.5109  139.5765  157.2938 H   0  0  0  0  0  0  0  0  0  0  0  0
  151.1057  130.3905  155.8628 H   0  0  0  0  0  0  0  0  0  0  0  0
  1  2  1  0  0  0  0
  1 23  1  0  0  0  0
  1 24  1  0  0  0  0
  1 25  1  0  0  0  0
  2 21  1  0  0  0  0
  2  3  2  0  0  0  0
  3  4  1  0  0  0  0
  3 43  1  0  0  0  0
  4  5  2  0  0  0  0
  4 26  1  0  0  0  0
  5  6  1  0  0  0  0
  5 27  1  0  0  0  0
  6  7  1  0  0  0  0
  6 21  2  0  0  0  0
  7  8  1  0  0  0  0
  7 28  1  0  0  0  0
  8  9  2  0  0  0  0
  8 10  1  0  0  0  0
 10 11  1  0  0  0  0
 10 29  1  0  0  0  0
 11 17  1  0  0  0  0
 11 12  1  0  0  0  0
 11 30  1  0  0  0  0
 12 16  1  0  0  0  0
 12 13  1  0  0  0  0
 12 31  1  0  0  0  0
 13 14  1  0  0  0  0
 13 32  1  0  0  0  0
 13 33  1  0  0  0  0
 14 15  1  0  0  0  0
 14 34  1  0  0  0  0
 14 35  1  0  0  0  0
 15 16  1  0  0  0  0
 16 17  1  0  0  0  0
 16 36  1  0  0  0  0
 17 20  1  0  0  0  0
 17 18  1  0  0  0  0
 18 19  1  0  0  0  0
 18 37  1  0  0  0  0
 18 38  1  0  0  0  0
 19 20  1  0  0  0  0
 19 39  1  0  0  0  0
 19 40  1  0  0  0  0
 20 41  1  0  0  0  0
 20 42  1  0  0  0  0
 21 22  1  0  0  0  0
M  CHG  1   3   1
M  END
> <s_m_source_file>
AV-unprocessed.smi

> <i_m_source_file_index>
2775

> <i_lp_mmshare_version>
43012

> <i_f3d_flags>
0

> <s_epik_input>
W0NIM11jMW5bY0hdW2NIXWMoYzFDbClbTkhdQyg9TylbTkhdW0NAQEhdMltDQEhdKFtDSDJdW0NIMl1PMylbQ0BASF0zQzI0W0NIMl1bQ0gyXVtDSDJdNA==

> <s_epik_cmdline>
J2VwaWtfcHl0aG9uJywgJy1waCcsICc3LjAnLCAnLXRuJywgJzgnLCAnLW1hJywgJzIwMCcsICctbWV0YWxfYmluZGluZycsICctaW1hZScsICc8aW5maWxlLm1hZT4nLCAnLW9tYWUnLCAnPG91dGZpbGUubWFlPic=

> <r_epik_Ionization_Penalty>
2.4104

> <r_epik_Ionization_Penalty_Charging>
2.41038

> <r_epik_Ionization_Penalty_Neutral>
1.9872e-05

> <r_epik_State_Penalty>
2.56896

> <r_epik_Charging_Adjusted_Penalty>
4.97934

> <i_epik_Tot_Q>
1

> <i_epik_Tot_abs_Q>
1

> <r_epik_Metal_State_Penalty>
2.57906

> <b_epik_Metal_Only>
0

> <s_lp_Force_Field>
OPLS_2005

> <r_lp_Energy>
60.4392

> <b_lp_Chiralities_Consistent>
1

> <s_lp_Variant>
AV-unprocessed.smi:2775-11

> <Gold.Version>
5.8.1

> <Gold.Id.Protein>
6NUR|6NUR_protein|mol2

> <Gold.PLP.Fitness>
42.2267

> <Gold.PLP.PLP>
-36.6456

> <Gold.PLP.part.hbond>
-2.0000

> <Gold.PLP.part.metal>
0.0000

> <Gold.PLP.part.buried>
-2.1320

> <Gold.PLP.part.nonpolar>
-33.2805

> <Gold.PLP.part.repulsive>
0.1810

> <Gold.PLP.ligand.clash>
0.0000

> <Gold.PLP.ligand.torsion>
0.3061

> <Gold.PLP.Chemscore.Hbond>
2.0000

> <Gold.PLP.Chemscore.CHOScore>
0.0000

> <Gold.PLP.Chemscore.Metal>
0.0000

> <Gold.Chemscore.Hbonds>
donor molecule, donor type, donor heavy atom, donor atom, acceptor molecule, acceptor atom, score
      L1  H     7    28       P1  7948  0.85
      L1  H    10    29       P1  7948  1.00

> <Gold.PLP.Chemscore.Internal.Correction>
0.1933

> <Gold.Rescore>
     Score         DG    S(hbond)    S(metal)    S(lipo)     H(rot)  DE(clash)    DE(int)     intcor
     17.24     -18.78       1.57        0.00      90.64       1.00       0.21       1.33       ----

> <Gold.Chemscore.Fitness>
17.2392

> <Gold.Chemscore.DG>
-18.7770

> <Gold.Chemscore.ZeroCoef>
-5.4800

> <Gold.Chemscore.Hbond>
1.5726

> <Gold.Chemscore.Metal>
0.0000

> <Gold.Chemscore.Lipo>
90.6361

> <Gold.Chemscore.Internal_Hbond>
0.0000

> <Gold.Chemscore.DEClash>
0.2074

> <Gold.Chemscore.DEInternal>
1.3304

> <Gold.Chemscore.Rot>
1.0000

> <Gold.Chemscore.Internal.Correction>
   9.000000E+99

> <Gold.Chemscore.Hbonds>
donor molecule, donor type, donor heavy atom, donor atom, acceptor molecule, acceptor atom, score
      L1  H     7    28       P1  7948  0.14
      L1  H    10    29       P1  7948  0.93

> <Gold.Chemscore.Hbond.Weighted>
-5.2525

> <Gold.Chemscore.Metal.Weighted>
-0.0000

> <Gold.Chemscore.Lipo.Weighted>
-10.6044

> <Gold.Chemscore.Internal_Hbond.Weighted>
0.0000

> <Gold.Chemscore.DEClash.Weighted>
0.2074

> <Gold.Chemscore.DEInternal.Weighted>
1.3304

> <Gold.Chemscore.Rot.Weighted>
2.5600

> <Gold.Chemscore.Internal.Correction.Weighted>
   9.000000E+99

> <Gold.Protein.RotatedTorsions>
[ 6907 6896 6895 6894 ] final   -1.67 input  -60.11 | X-H torsion
[ 7974 7965 7964 7962 ] final   66.11 input  175.53 | X-H torsion
[ 8008 7997 7996 7995 ] final -166.13 input   59.86 | X-H torsion
[ 10167 10162 10161 10158 ] final  -40.22 input  -65.29 | X-H torsion
[ 10718 10713 10712 10709 ] final  -89.75 input   66.30 | X-H torsion
[ 10763 10752 10751 10750 ] final   89.83 input  -60.55 | X-H torsion
[ 11005 11000 10999 10996 ] final  124.04 input  -57.11 | X-H torsion

> <Gold.Protein.ActiveResidues>
 VAL166  LYS551  ARG553  GLY616  TRP617  ASP618  TYR619  PRO620  LYS621  CYS622 
 ASP623  PHE694  ASN695  SER759  ASP760  ASP761  ALA762  ILE779  LEU786  VAL792 
 PHE793  MET794  SER795  GLU796  ALA797  LYS798  CYS799  TRP800  GLU811  SER814 

> <Gold.Protein.RotatedAtoms>
  151.5424  135.1068  159.9929 H   0  0  0  0  0  0  0  0  0  0  0  0  # atno 6907 bound_to 6896
  152.4529  133.7661  159.6784 H   0  0  0  0  0  0  0  0  0  0  0  0  # atno 6908 bound_to 6896
  150.8463  133.7790  159.3066 H   0  0  0  0  0  0  0  0  0  0  0  0  # atno 6909 bound_to 6896
  145.8305  139.3136  143.0990 H   0  0  0  0  0  0  0  0  0  0  0  0  # atno 7974 bound_to 7965
  155.8595  140.0976  157.1623 H   0  0  0  0  0  0  0  0  0  0  0  0  # atno 8008 bound_to 7997
  154.3989  140.1368  156.4005 H   0  0  0  0  0  0  0  0  0  0  0  0  # atno 8009 bound_to 7997
  155.7872  140.3457  155.5332 H   0  0  0  0  0  0  0  0  0  0  0  0  # atno 8010 bound_to 7997
  140.7041  143.3166  151.2893 H   0  0  0  0  0  0  0  0  0  0  0  0  # atno 10167 bound_to 10162
  155.9985  130.4884  150.5218 H   0  0  0  0  0  0  0  0  0  0  0  0  # atno 10718 bound_to 10713
  153.1912  135.4456  155.0151 H   0  0  0  0  0  0  0  0  0  0  0  0  # atno 10763 bound_to 10752
  154.8091  135.3287  154.7355 H   0  0  0  0  0  0  0  0  0  0  0  0  # atno 10764 bound_to 10752
  153.7809  135.6977  153.4944 H   0  0  0  0  0  0  0  0  0  0  0  0  # atno 10765 bound_to 10752
  139.9340  134.9640  156.8349 H   0  0  0  0  0  0  0  0  0  0  0  0  # atno 11005 bound_to 11000
  145.9576  140.8860  143.0227 LP  0  0  0  0  0  0  0  0  0  0  0  0  # atno 17320 bound_to 7965
  144.6740  140.1768  143.7409 LP  0  0  0  0  0  0  0  0  0  0  0  0  # atno 17321 bound_to 7965
  139.6607  144.0194  152.2690 LP  0  0  0  0  0  0  0  0  0  0  0  0  # atno 17342 bound_to 10162
  139.9761  144.6461  150.7944 LP  0  0  0  0  0  0  0  0  0  0  0  0  # atno 17343 bound_to 10162
  157.3179  131.0676  151.1953 LP  0  0  0  0  0  0  0  0  0  0  0  0  # atno 17370 bound_to 10713
  157.2877  130.6781  149.6098 LP  0  0  0  0  0  0  0  0  0  0  0  0  # atno 17371 bound_to 10713
  140.6125  134.0069  155.7583 LP  0  0  0  0  0  0  0  0  0  0  0  0  # atno 17394 bound_to 11000
  141.0944  133.9866  157.3184 LP  0  0  0  0  0  0  0  0  0  0  0  0  # atno 17395 bound_to 11000

$$$$
