AV-unprocessed.smi:227|AV-procd|sdf|1742|dock5
  -GOLD-   2262020253D 1   1.00000     0.00000
 Structure written by MMmdl.
 54 58  0  0  0  0  0  0  0  0  1 V2000
  151.4795  136.6067  154.1127 O   0  0  0  0  0  0  0  0  0  0  0  0
  150.6271  137.6985  154.3936 C   0  0  0  0  0  0  0  0  0  0  0  0
  150.0747  137.6413  155.8417 C   0  0  1  0  0  0  0  0  0  0  0  0
  149.6133  136.2144  156.2405 C   0  0  0  0  0  0  0  0  0  0  0  0
  148.5443  135.6907  155.4091 N   0  0  0  0  0  0  0  0  0  0  0  0
  147.3097  136.2606  155.2082 C   0  0  0  0  0  0  0  0  0  0  0  0
  146.5188  135.5993  154.4092 N   0  0  0  0  0  0  0  0  0  0  0  0
  147.2627  134.4897  154.0203 C   0  0  0  0  0  0  0  0  0  0  0  0
  147.0306  133.3745  153.1600 C   0  0  0  0  0  0  0  0  0  0  0  0
  145.8833  133.1485  152.4604 N   0  0  0  0  0  0  0  0  0  0  0  0
  144.7541  134.0662  152.5160 C   0  0  1  0  0  0  0  0  0  0  0  0
  145.2213  135.2813  151.6904 C   0  0  0  0  0  0  0  0  0  0  0  0
  146.0800  134.5970  150.6159 C   0  0  0  0  0  0  0  0  0  0  0  0
  145.9262  133.1079  151.0042 C   0  0  2  0  0  0  0  0  0  0  0  0
  144.5155  132.5712  150.6727 C   0  0  2  0  0  0  0  0  0  0  0  0
  144.0227  132.7217  149.2212 C   0  0  0  0  0  0  0  0  0  0  0  0
  142.7666  132.0978  149.0618 O   0  0  0  0  0  0  0  0  0  0  0  0
  143.6699  133.3149  151.7211 C   0  0  0  0  0  0  0  0  0  0  0  0
  148.0303  132.4596  153.0497 N   0  0  0  0  0  0  0  0  0  0  0  0
  149.1801  132.6225  153.7088 C   0  0  0  0  0  0  0  0  0  0  0  0
  149.5374  133.6114  154.5278 N   0  0  0  0  0  0  0  0  0  0  0  0
  148.5379  134.5296  154.6565 C   0  0  0  0  0  0  0  0  0  0  0  0
  151.1190  138.1782  156.8550 C   0  0  1  0  0  0  0  0  0  0  0  0
  151.5946  139.6075  156.5900 C   0  0  0  0  0  0  0  0  0  0  0  0
  151.7489  140.2383  157.9773 C   0  0  0  0  0  0  0  0  0  0  0  0
  151.5441  139.1774  158.8965 O   0  0  0  0  0  0  0  0  0  0  0  0
  150.6256  138.2789  158.3012 C   0  0  0  0  0  0  0  0  0  0  0  0
  151.2786  136.2831  153.2476 H   0  0  0  0  0  0  0  0  0  0  0  0
  151.1592  138.6342  154.2186 H   0  0  0  0  0  0  0  0  0  0  0  0
  149.8246  137.6581  153.6583 H   0  0  0  0  0  0  0  0  0  0  0  0
  149.2076  138.3022  155.8973 H   0  0  0  0  0  0  0  0  0  0  0  0
  150.4557  135.5227  156.1996 H   0  0  0  0  0  0  0  0  0  0  0  0
  149.2550  136.1989  157.2696 H   0  0  0  0  0  0  0  0  0  0  0  0
  147.0149  137.1902  155.6729 H   0  0  0  0  0  0  0  0  0  0  0  0
  144.4041  134.3252  153.5134 H   0  0  0  0  0  0  0  0  0  0  0  0
  144.3908  135.8504  151.2713 H   0  0  0  0  0  0  0  0  0  0  0  0
  145.8264  135.9598  152.2932 H   0  0  0  0  0  0  0  0  0  0  0  0
  145.7644  134.8258  149.5994 H   0  0  0  0  0  0  0  0  0  0  0  0
  147.1201  134.9121  150.7088 H   0  0  0  0  0  0  0  0  0  0  0  0
  146.7112  132.4753  150.5884 H   0  0  0  0  0  0  0  0  0  0  0  0
  144.4989  131.5081  150.9210 H   0  0  0  0  0  0  0  0  0  0  0  0
  143.9142  133.7784  148.9764 H   0  0  0  0  0  0  0  0  0  0  0  0
  144.7303  132.3094  148.5029 H   0  0  0  0  0  0  0  0  0  0  0  0
  142.0922  132.7152  149.3007 H   0  0  0  0  0  0  0  0  0  0  0  0
  143.1388  132.6045  152.3559 H   0  0  0  0  0  0  0  0  0  0  0  0
  142.9330  133.9902  151.2845 H   0  0  0  0  0  0  0  0  0  0  0  0
  149.9196  131.8501  153.5571 H   0  0  0  0  0  0  0  0  0  0  0  0
  151.9925  137.5240  156.8478 H   0  0  0  0  0  0  0  0  0  0  0  0
  152.5379  139.6093  156.0426 H   0  0  0  0  0  0  0  0  0  0  0  0
  150.8709  140.1756  156.0040 H   0  0  0  0  0  0  0  0  0  0  0  0
  152.7276  140.6962  158.1224 H   0  0  0  0  0  0  0  0  0  0  0  0
  150.9882  141.0039  158.1365 H   0  0  0  0  0  0  0  0  0  0  0  0
  149.6188  138.6971  158.3517 H   0  0  0  0  0  0  0  0  0  0  0  0
  150.6284  137.3193  158.8185 H   0  0  0  0  0  0  0  0  0  0  0  0
  1  2  1  0  0  0  0
  1 28  1  0  0  0  0
  2  3  1  0  0  0  0
  2 29  1  0  0  0  0
  2 30  1  0  0  0  0
  3  4  1  0  0  0  0
  3 23  1  0  0  0  0
  3 31  1  0  0  0  0
  4  5  1  0  0  0  0
  4 32  1  0  0  0  0
  4 33  1  0  0  0  0
  5 22  1  0  0  0  0
  5  6  1  0  0  0  0
  6  7  2  0  0  0  0
  6 34  1  0  0  0  0
  7  8  1  0  0  0  0
  8 22  2  0  0  0  0
  8  9  1  0  0  0  0
  9 10  1  0  0  0  0
  9 19  2  0  0  0  0
 10 14  1  0  0  0  0
 10 11  1  0  0  0  0
 11 18  1  0  0  0  0
 11 12  1  0  0  0  0
 11 35  1  0  0  0  0
 12 13  1  0  0  0  0
 12 36  1  0  0  0  0
 12 37  1  0  0  0  0
 13 14  1  0  0  0  0
 13 38  1  0  0  0  0
 13 39  1  0  0  0  0
 14 15  1  0  0  0  0
 14 40  1  0  0  0  0
 15 16  1  0  0  0  0
 15 18  1  0  0  0  0
 15 41  1  0  0  0  0
 16 17  1  0  0  0  0
 16 42  1  0  0  0  0
 16 43  1  0  0  0  0
 17 44  1  0  0  0  0
 18 45  1  0  0  0  0
 18 46  1  0  0  0  0
 19 20  1  0  0  0  0
 20 21  2  0  0  0  0
 20 47  1  0  0  0  0
 21 22  1  0  0  0  0
 23 27  1  0  0  0  0
 23 24  1  0  0  0  0
 23 48  1  0  0  0  0
 24 25  1  0  0  0  0
 24 49  1  0  0  0  0
 24 50  1  0  0  0  0
 25 26  1  0  0  0  0
 25 51  1  0  0  0  0
 25 52  1  0  0  0  0
 26 27  1  0  0  0  0
 27 53  1  0  0  0  0
 27 54  1  0  0  0  0
M  END
> <s_m_source_file>
AV-unprocessed.smi

> <i_m_source_file_index>
227

> <i_lp_mmshare_version>
43012

> <i_f3d_flags>
0

> <s_epik_input>
W0NIMl0xT1tDSDJdW0NIMl1bQ0BIXTFbQ0BIXShbQ0gyXVtPSF0pW0NIMl1uKFtjSF1uMiljKGMyMyluW2NIXW5jM04oW0NASF00NSlbQ0BASF0oW0NIMl1bQ0gyXTQpW0NASF0oW0NIMl01KVtDSDJdW09IXQ==

> <s_epik_cmdline>
J2VwaWtfcHl0aG9uJywgJy1waCcsICc3LjAnLCAnLXRuJywgJzgnLCAnLW1hJywgJzIwMCcsICctbWV0YWxfYmluZGluZycsICctaW1hZScsICc8aW5maWxlLm1hZT4nLCAnLW9tYWUnLCAnPG91dGZpbGUubWFlPic=

> <r_lp_tautomer_probability>
1

> <r_epik_Ionization_Penalty>
0.0055791

> <r_epik_Ionization_Penalty_Charging>
0

> <r_epik_Ionization_Penalty_Neutral>
0.0055791

> <r_epik_State_Penalty>
0.00401299

> <r_epik_Charging_Adjusted_Penalty>
0.00401299

> <i_epik_Tot_Q>
0

> <i_epik_Tot_abs_Q>
0

> <r_epik_Metal_State_Penalty>
-0

> <b_epik_Metal_Only>
0

> <s_lp_Force_Field>
OPLS_2005

> <r_lp_Energy>
88.534

> <b_lp_Chiralities_Consistent>
1

> <s_lp_Variant>
AV-unprocessed.smi:227-16

> <Gold.Version>
5.8.1

> <Gold.Id.Protein>
6NUR|6NUR_protein|mol2

> <Gold.PLP.Fitness>
50.4201

> <Gold.PLP.PLP>
-38.7256

> <Gold.PLP.part.hbond>
-5.0014

> <Gold.PLP.part.metal>
0.0000

> <Gold.PLP.part.buried>
-7.2841

> <Gold.PLP.part.nonpolar>
-26.4641

> <Gold.PLP.part.repulsive>
0.4341

> <Gold.PLP.ligand.clash>
0.0000

> <Gold.PLP.ligand.torsion>
0.2081

> <Gold.PLP.Chemscore.Hbond>
4.0000

> <Gold.PLP.Chemscore.CHOScore>
0.0000

> <Gold.PLP.Chemscore.Metal>
0.0000

> <Gold.Chemscore.Hbonds>
donor molecule, donor type, donor heavy atom, donor atom, acceptor molecule, acceptor atom, score
      L1  H     1    28       P1  7949  1.00
      L1  H    17    44       P1 10186  1.00
      P1  H 10752 10764       L1     1  1.00
      P1  H 10785 10796       L1    17  1.00

> <Gold.PLP.Chemscore.Internal.Correction>
0.1106

> <Gold.Rescore>
     Score         DG    S(hbond)    S(metal)    S(lipo)     H(rot)  DE(clash)    DE(int)     intcor
     13.26     -15.55       2.82        0.00      84.53       3.61       1.00       1.30       ----

> <Gold.Chemscore.Fitness>
13.2617

> <Gold.Chemscore.DG>
-15.5541

> <Gold.Chemscore.ZeroCoef>
-5.4800

> <Gold.Chemscore.Hbond>
2.8198

> <Gold.Chemscore.Metal>
0.0000

> <Gold.Chemscore.Lipo>
84.5328

> <Gold.Chemscore.Internal_Hbond>
0.0000

> <Gold.Chemscore.DEClash>
0.9957

> <Gold.Chemscore.DEInternal>
1.2967

> <Gold.Chemscore.Rot>
3.6071

> <Gold.Chemscore.Internal.Correction>
   9.000000E+99

> <Gold.Chemscore.Hbonds>
donor molecule, donor type, donor heavy atom, donor atom, acceptor molecule, acceptor atom, score
      L1  H     1    28       P1  7949  0.60
      L1  H    17    44       P1 10186  0.93
      P1  H 10752 10764       L1     1  0.29
      P1  H 10785 10796       L1    17  0.47

> <Gold.Chemscore.Hbond.Weighted>
-9.4180

> <Gold.Chemscore.Metal.Weighted>
-0.0000

> <Gold.Chemscore.Lipo.Weighted>
-9.8903

> <Gold.Chemscore.Internal_Hbond.Weighted>
0.0000

> <Gold.Chemscore.DEClash.Weighted>
0.9957

> <Gold.Chemscore.DEInternal.Weighted>
1.2967

> <Gold.Chemscore.Rot.Weighted>
9.2342

> <Gold.Chemscore.Internal.Correction.Weighted>
   9.000000E+99

> <Gold.Protein.RotatedTorsions>
[ 6907 6896 6895 6894 ] final  151.93 input  -60.11 | X-H torsion
[ 7974 7965 7964 7962 ] final -169.52 input  175.53 | X-H torsion
[ 8008 7997 7996 7995 ] final  -52.50 input   59.86 | X-H torsion
[ 10167 10162 10161 10158 ] final   96.12 input  -65.29 | X-H torsion
[ 10718 10713 10712 10709 ] final   52.93 input   66.30 | X-H torsion
[ 10763 10752 10751 10750 ] final  -61.02 input  -60.55 | X-H torsion
[ 11005 11000 10999 10996 ] final  -59.51 input  -57.11 | X-H torsion

> <Gold.Protein.ActiveResidues>
 VAL166  LYS551  ARG553  GLY616  TRP617  ASP618  TYR619  PRO620  LYS621  CYS622 
 ASP623  PHE694  ASN695  SER759  ASP760  ASP761  ALA762  ILE779  LEU786  VAL792 
 PHE793  MET794  SER795  GLU796  ALA797  LYS798  CYS799  TRP800  GLU811  SER814 

> <Gold.Protein.RotatedAtoms>
  152.0938  133.4214  159.4555 H   0  0  0  0  0  0  0  0  0  0  0  0  # atno 6907 bound_to 6896
  150.6863  134.2840  159.4648 H   0  0  0  0  0  0  0  0  0  0  0  0  # atno 6908 bound_to 6896
  152.0694  134.9543  160.0625 H   0  0  0  0  0  0  0  0  0  0  0  0  # atno 6909 bound_to 6896
  144.7184  140.2208  143.6316 H   0  0  0  0  0  0  0  0  0  0  0  0  # atno 7974 bound_to 7965
  154.4108  140.1222  156.5002 H   0  0  0  0  0  0  0  0  0  0  0  0  # atno 8008 bound_to 7997
  155.6902  140.3495  155.4871 H   0  0  0  0  0  0  0  0  0  0  0  0  # atno 8009 bound_to 7997
  155.9475  140.1098  157.0994 H   0  0  0  0  0  0  0  0  0  0  0  0  # atno 8010 bound_to 7997
  139.7924  144.6847  150.9874 H   0  0  0  0  0  0  0  0  0  0  0  0  # atno 10167 bound_to 10162
  157.5120  130.8507  149.8447 H   0  0  0  0  0  0  0  0  0  0  0  0  # atno 10718 bound_to 10713
  154.2782  135.6277  153.5336 H   0  0  0  0  0  0  0  0  0  0  0  0  # atno 10763 bound_to 10752
  152.9870  135.5626  154.5525 H   0  0  0  0  0  0  0  0  0  0  0  0  # atno 10764 bound_to 10752
  154.5110  135.2877  155.1318 H   0  0  0  0  0  0  0  0  0  0  0  0  # atno 10765 bound_to 10752
  141.1251  133.6616  156.5082 H   0  0  0  0  0  0  0  0  0  0  0  0  # atno 11005 bound_to 11000
  145.8502  139.2172  143.1776 LP  0  0  0  0  0  0  0  0  0  0  0  0  # atno 17320 bound_to 7965
  146.0267  140.8297  142.9896 LP  0  0  0  0  0  0  0  0  0  0  0  0  # atno 17321 bound_to 7965
  140.7820  143.4367  151.0613 LP  0  0  0  0  0  0  0  0  0  0  0  0  # atno 17342 bound_to 10162
  139.8043  143.8040  152.3166 LP  0  0  0  0  0  0  0  0  0  0  0  0  # atno 17343 bound_to 10162
  156.0295  130.3769  150.1727 LP  0  0  0  0  0  0  0  0  0  0  0  0  # atno 17370 bound_to 10713
  156.9917  130.9895  151.3413 LP  0  0  0  0  0  0  0  0  0  0  0  0  # atno 17371 bound_to 10713
  140.4390  134.7032  157.4982 LP  0  0  0  0  0  0  0  0  0  0  0  0  # atno 17394 bound_to 11000
  140.0242  134.6502  155.9197 LP  0  0  0  0  0  0  0  0  0  0  0  0  # atno 17395 bound_to 11000

$$$$
