AV-unprocessed.smi:1913|AV-procd|sdf|7755|dock2
  -GOLD-   22720 9493D 1   1.00000     0.00000
 Structure written by MMmdl.
 41 43  0  0  0  0  0  0  0  0  2 V2000
  151.9106  145.6949  159.9358 C   0  0  0  0  0  0  0  0  0  0  0  0
  151.7000  144.7639  158.8842 O   0  0  0  0  0  0  0  0  0  0  0  0
  152.0513  143.4491  159.1019 C   0  0  0  0  0  0  0  0  0  0  0  0
  152.9826  143.0249  160.0786 C   0  0  0  0  0  0  0  0  0  0  0  0
  153.2897  141.6599  160.2260 C   0  0  0  0  0  0  0  0  0  0  0  0
  152.6731  140.6837  159.4052 C   0  0  0  0  0  0  0  0  0  0  0  0
  152.9523  139.3347  159.4951 O   0  0  0  0  0  0  0  0  0  0  0  0
  153.8823  138.8980  160.4745 C   0  0  0  0  0  0  0  0  0  0  0  0
  151.7303  141.1041  158.4346 C   0  0  0  0  0  0  0  0  0  0  0  0
  151.0586  140.0861  157.5136 C   0  0  1  0  0  0  0  0  0  0  0  0
  149.6483  140.1407  157.5809 O   0  0  0  0  0  0  0  0  0  0  0  0
  151.4701  140.2729  156.0379 C   0  0  0  0  0  0  0  0  0  0  0  0
  150.6186  139.5186  155.1087 N   0  0  0  0  0  0  0  0  0  0  0  0
  150.7317  138.2361  154.6684 C   0  0  0  0  0  0  0  0  0  0  0  0
  149.6758  137.9901  153.8443 N   0  3  0  0  0  0  0  0  0  0  0  0
  148.8789  139.1335  153.7540 C   0  0  0  0  0  0  0  0  0  0  0  0
  147.7027  139.3715  153.0501 C   0  0  0  0  0  0  0  0  0  0  0  0
  147.1373  140.6572  153.1796 C   0  0  0  0  0  0  0  0  0  0  0  0
  147.7403  141.6483  153.9816 C   0  0  0  0  0  0  0  0  0  0  0  0
  148.9343  141.3965  154.6888 C   0  0  0  0  0  0  0  0  0  0  0  0
  149.4838  140.1221  154.5583 C   0  0  0  0  0  0  0  0  0  0  0  0
  151.4360  142.4779  158.2896 C   0  0  0  0  0  0  0  0  0  0  0  0
  151.5880  146.6838  159.6106 H   0  0  0  0  0  0  0  0  0  0  0  0
  152.9661  145.7641  160.2022 H   0  0  0  0  0  0  0  0  0  0  0  0
  151.3302  145.4338  160.8218 H   0  0  0  0  0  0  0  0  0  0  0  0
  153.4804  143.7290  160.7276 H   0  0  0  0  0  0  0  0  0  0  0  0
  154.0089  141.3871  160.9830 H   0  0  0  0  0  0  0  0  0  0  0  0
  154.0430  137.8260  160.3608 H   0  0  0  0  0  0  0  0  0  0  0  0
  153.5093  139.0716  161.4845 H   0  0  0  0  0  0  0  0  0  0  0  0
  154.8487  139.3892  160.3537 H   0  0  0  0  0  0  0  0  0  0  0  0
  151.3214  139.0792  157.8361 H   0  0  0  0  0  0  0  0  0  0  0  0
  149.3025  139.3027  157.3132 H   0  0  0  0  0  0  0  0  0  0  0  0
  151.4382  141.3249  155.7511 H   0  0  0  0  0  0  0  0  0  0  0  0
  152.4971  139.9379  155.8846 H   0  0  0  0  0  0  0  0  0  0  0  0
  151.5096  137.5359  154.9371 H   0  0  0  0  0  0  0  0  0  0  0  0
  147.2384  138.6145  152.4351 H   0  0  0  0  0  0  0  0  0  0  0  0
  146.2226  140.8878  152.6530 H   0  0  0  0  0  0  0  0  0  0  0  0
  147.2774  142.6215  154.0565 H   0  0  0  0  0  0  0  0  0  0  0  0
  149.3885  142.1601  155.3029 H   0  0  0  0  0  0  0  0  0  0  0  0
  150.7300  142.7994  157.5376 H   0  0  0  0  0  0  0  0  0  0  0  0
  149.5122  137.1049  153.3820 H   0  0  0  0  0  0  0  0  0  0  0  0
  1  2  1  0  0  0  0
  1 23  1  0  0  0  0
  1 24  1  0  0  0  0
  1 25  1  0  0  0  0
  2  3  1  0  0  0  0
  3 22  1  0  0  0  0
  3  4  2  0  0  0  0
  4  5  1  0  0  0  0
  4 26  1  0  0  0  0
  5  6  2  0  0  0  0
  5 27  1  0  0  0  0
  6  7  1  0  0  0  0
  6  9  1  0  0  0  0
  7  8  1  0  0  0  0
  8 28  1  0  0  0  0
  8 29  1  0  0  0  0
  8 30  1  0  0  0  0
  9 10  1  0  0  0  0
  9 22  2  0  0  0  0
 10 11  1  0  0  0  0
 10 12  1  0  0  0  0
 10 31  1  0  0  0  0
 11 32  1  0  0  0  0
 12 13  1  0  0  0  0
 12 33  1  0  0  0  0
 12 34  1  0  0  0  0
 13 21  1  0  0  0  0
 13 14  1  0  0  0  0
 14 15  2  0  0  0  0
 14 35  1  0  0  0  0
 15 16  1  0  0  0  0
 15 41  1  0  0  0  0
 16 21  2  0  0  0  0
 16 17  1  0  0  0  0
 17 18  2  0  0  0  0
 17 36  1  0  0  0  0
 18 19  1  0  0  0  0
 18 37  1  0  0  0  0
 19 20  2  0  0  0  0
 19 38  1  0  0  0  0
 20 21  1  0  0  0  0
 20 39  1  0  0  0  0
 22 40  1  0  0  0  0
M  CHG  1  15   1
M  END
> <s_m_source_file>
AV-unprocessed.smi

> <i_m_source_file_index>
1913

> <i_lp_mmshare_version>
43012

> <i_f3d_flags>
0

> <s_epik_input>
W0NIM11PYzFbY0hdW2NIXWMoT1tDSDNdKWMoW2NIXTEpW0NASF0oW09IXSlbQ0gyXW4oW2NIXW4yKWMoYzIzKVtjSF1bY0hdW2NIXVtjSF0z

> <s_epik_cmdline>
J2VwaWtfcHl0aG9uJywgJy1waCcsICc3LjAnLCAnLXRuJywgJzgnLCAnLW1hJywgJzIwMCcsICctbWV0YWxfYmluZGluZycsICctaW1hZScsICc8aW5maWxlLm1hZT4nLCAnLW9tYWUnLCAnPG91dGZpbGUubWFlPic=

> <r_lp_tautomer_probability>
1

> <r_epik_Ionization_Penalty>
1.3029

> <r_epik_Ionization_Penalty_Charging>
1.3029

> <r_epik_Ionization_Penalty_Neutral>
1.34362e-06

> <r_epik_State_Penalty>
1.377

> <r_epik_Charging_Adjusted_Penalty>
2.6799

> <i_epik_Tot_Q>
1

> <i_epik_Tot_abs_Q>
1

> <r_epik_Metal_State_Penalty>
5.40879

> <b_epik_Metal_Only>
0

> <s_lp_Force_Field>
OPLS_2005

> <r_lp_Energy>
24.0382

> <b_lp_Chiralities_Consistent>
1

> <s_lp_Variant>
AV-unprocessed.smi:1913-4

> <Gold.Version>
5.8.1

> <Gold.Id.Protein>
6NUR|6NUR_protein|mol2

> <Gold.PLP.Fitness>
53.3932

> <Gold.PLP.PLP>
-49.0271

> <Gold.PLP.part.hbond>
-1.3667

> <Gold.PLP.part.metal>
0.0000

> <Gold.PLP.part.buried>
-1.3381

> <Gold.PLP.part.nonpolar>
-46.9363

> <Gold.PLP.part.repulsive>
0.1266

> <Gold.PLP.ligand.clash>
0.0000

> <Gold.PLP.ligand.torsion>
0.8384

> <Gold.PLP.Chemscore.Hbond>
2.0000

> <Gold.PLP.Chemscore.CHOScore>
0.0000

> <Gold.PLP.Chemscore.Metal>
0.0000

> <Gold.Chemscore.Hbonds>
donor molecule, donor type, donor heavy atom, donor atom, acceptor molecule, acceptor atom, score
      L1  H    15    41       P1  7948  1.89

> <Gold.PLP.Chemscore.Internal.Correction>
0.0430

> <Gold.Rescore>
     Score         DG    S(hbond)    S(metal)    S(lipo)     H(rot)  DE(clash)    DE(int)     intcor
     16.05     -17.29       0.77        0.00     131.73       2.41       0.46       0.78       ----

> <Gold.Chemscore.Fitness>
16.0509

> <Gold.Chemscore.DG>
-17.2866

> <Gold.Chemscore.ZeroCoef>
-5.4800

> <Gold.Chemscore.Hbond>
0.7684

> <Gold.Chemscore.Metal>
0.0000

> <Gold.Chemscore.Lipo>
131.7259

> <Gold.Chemscore.Internal_Hbond>
0.0000

> <Gold.Chemscore.DEClash>
0.4584

> <Gold.Chemscore.DEInternal>
0.7772

> <Gold.Chemscore.Rot>
2.4109

> <Gold.Chemscore.Internal.Correction>
   9.000000E+99

> <Gold.Chemscore.Hbonds>
donor molecule, donor type, donor heavy atom, donor atom, acceptor molecule, acceptor atom, score
      L1  H    15    41       P1  7948  0.78

> <Gold.Chemscore.Hbond.Weighted>
-2.5666

> <Gold.Chemscore.Metal.Weighted>
-0.0000

> <Gold.Chemscore.Lipo.Weighted>
-15.4119

> <Gold.Chemscore.Internal_Hbond.Weighted>
0.0000

> <Gold.Chemscore.DEClash.Weighted>
0.4584

> <Gold.Chemscore.DEInternal.Weighted>
0.7772

> <Gold.Chemscore.Rot.Weighted>
6.1720

> <Gold.Chemscore.Internal.Correction.Weighted>
   9.000000E+99

> <Gold.Protein.RotatedTorsions>
[ 6907 6896 6895 6894 ] final  -67.11 input  -60.11 | X-H torsion
[ 7974 7965 7964 7962 ] final  140.59 input  175.53 | X-H torsion
[ 8008 7997 7996 7995 ] final -117.68 input   59.86 | X-H torsion
[ 10167 10162 10161 10158 ] final   37.90 input  -65.29 | X-H torsion
[ 10718 10713 10712 10709 ] final  165.39 input   66.30 | X-H torsion
[ 10763 10752 10751 10750 ] final -138.86 input  -60.55 | X-H torsion
[ 11005 11000 10999 10996 ] final  151.90 input  -57.11 | X-H torsion

> <Gold.Protein.ActiveResidues>
 VAL166  LYS551  ARG553  GLY616  TRP617  ASP618  TYR619  PRO620  LYS621  CYS622 
 ASP623  PHE694  ASN695  SER759  ASP760  ASP761  ALA762  ILE779  LEU786  VAL792 
 PHE793  MET794  SER795  GLU796  ALA797  LYS798  CYS799  TRP800  GLU811  SER814 

> <Gold.Protein.RotatedAtoms>
  150.7427  134.5926  159.5995 H   0  0  0  0  0  0  0  0  0  0  0  0  # atno 6907 bound_to 6896
  152.3310  134.7256  160.0298 H   0  0  0  0  0  0  0  0  0  0  0  0  # atno 6908 bound_to 6896
  151.7740  133.3308  159.3489 H   0  0  0  0  0  0  0  0  0  0  0  0  # atno 6909 bound_to 6896
  144.9173  139.5214  143.5680 H   0  0  0  0  0  0  0  0  0  0  0  0  # atno 7974 bound_to 7965
  155.0875  140.0394  157.2658 H   0  0  0  0  0  0  0  0  0  0  0  0  # atno 8008 bound_to 7997
  154.6858  140.2643  155.6837 H   0  0  0  0  0  0  0  0  0  0  0  0  # atno 8009 bound_to 7997
  156.2711  140.2769  156.1418 H   0  0  0  0  0  0  0  0  0  0  0  0  # atno 8010 bound_to 7997
  140.3989  144.1751  150.6133 H   0  0  0  0  0  0  0  0  0  0  0  0  # atno 10167 bound_to 10162
  157.0808  131.0391  151.2576 H   0  0  0  0  0  0  0  0  0  0  0  0  # atno 10718 bound_to 10713
  154.8625  135.3599  154.5454 H   0  0  0  0  0  0  0  0  0  0  0  0  # atno 10763 bound_to 10752
  153.6074  135.7010  153.5365 H   0  0  0  0  0  0  0  0  0  0  0  0  # atno 10764 bound_to 10752
  153.3239  135.4143  155.1400 H   0  0  0  0  0  0  0  0  0  0  0  0  # atno 10765 bound_to 10752
  140.1259  134.8833  157.2137 H   0  0  0  0  0  0  0  0  0  0  0  0  # atno 11005 bound_to 11000
  146.3188  139.8025  142.8962 LP  0  0  0  0  0  0  0  0  0  0  0  0  # atno 17320 bound_to 7965
  145.3355  141.0276  143.3422 LP  0  0  0  0  0  0  0  0  0  0  0  0  # atno 17321 bound_to 7965
  140.4761  143.2395  151.9021 LP  0  0  0  0  0  0  0  0  0  0  0  0  # atno 17342 bound_to 10162
  139.4785  144.5318  151.8655 LP  0  0  0  0  0  0  0  0  0  0  0  0  # atno 17343 bound_to 10162
  157.4802  130.7760  149.7407 LP  0  0  0  0  0  0  0  0  0  0  0  0  # atno 17370 bound_to 10713
  155.9924  130.3931  150.2943 LP  0  0  0  0  0  0  0  0  0  0  0  0  # atno 17371 bound_to 10713
  140.2904  134.3247  155.7317 LP  0  0  0  0  0  0  0  0  0  0  0  0  # atno 17394 bound_to 11000
  141.2161  133.7531  156.9495 LP  0  0  0  0  0  0  0  0  0  0  0  0  # atno 17395 bound_to 11000

$$$$
