AV-unprocessed.smi:1236|AV-procd|sdf|5180|dock9
  -GOLD-   22720 4263D 1   1.00000     0.00000
 Structure written by MMmdl.
 39 40  0  0  0  0  0  0  0  0  1 V2000
  146.4734  138.1414  155.3699 C   0  0  0  0  0  0  0  0  0  0  0  0
  146.4762  138.4791  153.8731 C   0  0  1  0  0  0  0  0  0  0  0  0
  147.5500  139.5377  153.5410 C   0  0  0  0  0  0  0  0  0  0  0  0
  148.6789  139.6093  154.4699 N   0  0  0  0  0  0  0  0  0  0  0  0
  149.7970  138.7581  154.0689 C   0  0  0  0  0  0  0  0  0  0  0  0
  150.9726  138.8580  155.0559 C   0  0  0  0  0  0  0  0  0  0  0  0
  151.3851  140.2159  155.1729 O   0  0  0  0  0  0  0  0  0  0  0  0
  150.3332  141.0744  155.6016 C   0  0  0  0  0  0  0  0  0  0  0  0
  149.1565  140.9797  154.6153 C   0  0  0  0  0  0  0  0  0  0  0  0
  146.7185  137.2566  153.1079 N   0  0  0  0  0  0  0  0  0  0  0  0
  145.7797  136.4012  152.6754 C   0  0  0  0  0  0  0  0  0  0  0  0
  144.5772  136.5335  152.9052 O   0  0  0  0  0  0  0  0  0  0  0  0
  146.3279  135.4011  151.9630 N   0  0  0  0  0  0  0  0  0  0  0  0
  145.6723  134.3114  151.3304 C   0  0  0  0  0  0  0  0  0  0  0  0
  146.5308  133.3704  150.7184 C   0  0  0  0  0  0  0  0  0  0  0  0
  145.9793  132.2525  150.0629 C   0  0  0  0  0  0  0  0  0  0  0  0
  144.5811  132.1035  150.0373 C   0  0  0  0  0  0  0  0  0  0  0  0
  143.7982  133.0853  150.6719 C   0  0  0  0  0  0  0  0  0  0  0  0
  144.3247  134.1575  151.3000 N   0  0  0  0  0  0  0  0  0  0  0  0
  146.2774  139.0297  155.9709 H   0  0  0  0  0  0  0  0  0  0  0  0
  147.4320  137.7297  155.6878 H   0  0  0  0  0  0  0  0  0  0  0  0
  145.7009  137.4086  155.6055 H   0  0  0  0  0  0  0  0  0  0  0  0
  145.4893  138.8818  153.6432 H   0  0  0  0  0  0  0  0  0  0  0  0
  147.9235  139.3678  152.5299 H   0  0  0  0  0  0  0  0  0  0  0  0
  147.0574  140.5107  153.5135 H   0  0  0  0  0  0  0  0  0  0  0  0
  149.4827  137.7173  154.0099 H   0  0  0  0  0  0  0  0  0  0  0  0
  150.1376  139.0389  153.0713 H   0  0  0  0  0  0  0  0  0  0  0  0
  150.6868  138.4708  156.0350 H   0  0  0  0  0  0  0  0  0  0  0  0
  151.8132  138.2580  154.7074 H   0  0  0  0  0  0  0  0  0  0  0  0
  150.0159  140.7980  156.6082 H   0  0  0  0  0  0  0  0  0  0  0  0
  150.7055  142.0976  155.6520 H   0  0  0  0  0  0  0  0  0  0  0  0
  149.4674  141.3688  153.6445 H   0  0  0  0  0  0  0  0  0  0  0  0
  148.3448  141.6203  154.9626 H   0  0  0  0  0  0  0  0  0  0  0  0
  147.6789  137.0625  152.8663 H   0  0  0  0  0  0  0  0  0  0  0  0
  147.3307  135.4265  151.8533 H   0  0  0  0  0  0  0  0  0  0  0  0
  147.6031  133.5003  150.7478 H   0  0  0  0  0  0  0  0  0  0  0  0
  146.6183  131.5228  149.5886 H   0  0  0  0  0  0  0  0  0  0  0  0
  144.1208  131.2595  149.5452 H   0  0  0  0  0  0  0  0  0  0  0  0
  142.7210  133.0081  150.6760 H   0  0  0  0  0  0  0  0  0  0  0  0
  1  2  1  0  0  0  0
  1 20  1  0  0  0  0
  1 21  1  0  0  0  0
  1 22  1  0  0  0  0
  2  3  1  0  0  0  0
  2 10  1  0  0  0  0
  2 23  1  0  0  0  0
  3  4  1  0  0  0  0
  3 24  1  0  0  0  0
  3 25  1  0  0  0  0
  4  9  1  0  0  0  0
  4  5  1  0  0  0  0
  5  6  1  0  0  0  0
  5 26  1  0  0  0  0
  5 27  1  0  0  0  0
  6  7  1  0  0  0  0
  6 28  1  0  0  0  0
  6 29  1  0  0  0  0
  7  8  1  0  0  0  0
  8  9  1  0  0  0  0
  8 30  1  0  0  0  0
  8 31  1  0  0  0  0
  9 32  1  0  0  0  0
  9 33  1  0  0  0  0
 10 11  1  0  0  0  0
 10 34  1  0  0  0  0
 11 12  2  0  0  0  0
 11 13  1  0  0  0  0
 13 14  1  0  0  0  0
 13 35  1  0  0  0  0
 14 19  1  0  0  0  0
 14 15  2  0  0  0  0
 15 16  1  0  0  0  0
 15 36  1  0  0  0  0
 16 17  2  0  0  0  0
 16 37  1  0  0  0  0
 17 18  1  0  0  0  0
 17 38  1  0  0  0  0
 18 19  2  0  0  0  0
 18 39  1  0  0  0  0
M  END
> <s_m_source_file>
AV-unprocessed.smi

> <i_m_source_file_index>
1236

> <i_lp_mmshare_version>
43012

> <i_f3d_flags>
0

> <s_epik_input>
W0NIMl0xW0NIMl1PW0NIMl1bQ0gyXU4xW0NIMl1bQ0BASF0oW0NIM10pW05IXUMoPU8pW05IXWMyW2NIXVtjSF1bY0hdW2NIXW4y

> <s_epik_cmdline>
J2VwaWtfcHl0aG9uJywgJy1waCcsICc3LjAnLCAnLXRuJywgJzgnLCAnLW1hJywgJzIwMCcsICctbWV0YWxfYmluZGluZycsICctaW1hZScsICc8aW5maWxlLm1hZT4nLCAnLW9tYWUnLCAnPG91dGZpbGUubWFlPic=

> <r_epik_Ionization_Penalty>
0.26604

> <r_epik_Ionization_Penalty_Charging>
0

> <r_epik_Ionization_Penalty_Neutral>
0.26604

> <r_epik_State_Penalty>
0.257924

> <r_epik_Charging_Adjusted_Penalty>
0.257924

> <i_epik_Tot_Q>
0

> <i_epik_Tot_abs_Q>
0

> <r_epik_Metal_State_Penalty>
0.257923

> <b_epik_Metal_Only>
0

> <s_lp_Force_Field>
OPLS_2005

> <r_lp_Energy>
27.6221

> <b_lp_Chiralities_Consistent>
1

> <s_lp_Variant>
AV-unprocessed.smi:1236-2

> <Gold.Version>
5.8.1

> <Gold.Id.Protein>
6NUR|6NUR_protein|mol2

> <Gold.PLP.Fitness>
42.5953

> <Gold.PLP.PLP>
-33.1611

> <Gold.PLP.part.hbond>
-3.0000

> <Gold.PLP.part.metal>
0.0000

> <Gold.PLP.part.buried>
-4.8586

> <Gold.PLP.part.nonpolar>
-26.2415

> <Gold.PLP.part.repulsive>
0.4947

> <Gold.PLP.ligand.clash>
0.0000

> <Gold.PLP.ligand.torsion>
1.2987

> <Gold.PLP.Chemscore.Hbond>
3.0000

> <Gold.PLP.Chemscore.CHOScore>
1.0000

> <Gold.PLP.Chemscore.Metal>
0.0000

> <Gold.Chemscore.Hbonds>
donor molecule, donor type, donor heavy atom, donor atom, acceptor molecule, acceptor atom, score
      L1  H    10    34       P1  7948  1.00
      L1  H    13    35       P1  7948  1.00
      P1  H  7989  7998       L1     7  1.00
      L1  C    18    39       P1 10186  1.00

> <Gold.PLP.Chemscore.Internal.Correction>
0.0317

> <Gold.Rescore>
     Score         DG    S(hbond)    S(metal)    S(lipo)     H(rot)  DE(clash)    DE(int)     intcor
     16.61     -19.38       2.50        0.00      80.45       1.51       0.21       2.57       ----

> <Gold.Chemscore.Fitness>
16.6062

> <Gold.Chemscore.DG>
-19.3825

> <Gold.Chemscore.ZeroCoef>
-5.4800

> <Gold.Chemscore.Hbond>
2.5018

> <Gold.Chemscore.Metal>
0.0000

> <Gold.Chemscore.Lipo>
80.4541

> <Gold.Chemscore.Internal_Hbond>
0.0000

> <Gold.Chemscore.DEClash>
0.2108

> <Gold.Chemscore.DEInternal>
2.5655

> <Gold.Chemscore.Rot>
1.5104

> <Gold.Chemscore.Internal.Correction>
   9.000000E+99

> <Gold.Chemscore.Hbonds>
donor molecule, donor type, donor heavy atom, donor atom, acceptor molecule, acceptor atom, score
      L1  H    10    34       P1  7948  0.96
      L1  H    13    35       P1  7948  0.98
      P1  H  7989  7998       L1     7  0.16

> <Gold.Chemscore.Hbond.Weighted>
-8.3559

> <Gold.Chemscore.Metal.Weighted>
-0.0000

> <Gold.Chemscore.Lipo.Weighted>
-9.4131

> <Gold.Chemscore.Internal_Hbond.Weighted>
0.0000

> <Gold.Chemscore.DEClash.Weighted>
0.2108

> <Gold.Chemscore.DEInternal.Weighted>
2.5655

> <Gold.Chemscore.Rot.Weighted>
3.8665

> <Gold.Chemscore.Internal.Correction.Weighted>
   9.000000E+99

> <Gold.Protein.RotatedTorsions>
[ 6907 6896 6895 6894 ] final  -94.80 input  -60.11 | X-H torsion
[ 7974 7965 7964 7962 ] final -154.13 input  175.53 | X-H torsion
[ 8008 7997 7996 7995 ] final  169.57 input   59.86 | X-H torsion
[ 10167 10162 10161 10158 ] final   93.90 input  -65.29 | X-H torsion
[ 10718 10713 10712 10709 ] final   49.52 input   66.30 | X-H torsion
[ 10763 10752 10751 10750 ] final  144.41 input  -60.55 | X-H torsion
[ 11005 11000 10999 10996 ] final -101.67 input  -57.11 | X-H torsion

> <Gold.Protein.ActiveResidues>
 VAL166  LYS551  ARG553  GLY616  TRP617  ASP618  TYR619  PRO620  LYS621  CYS622 
 ASP623  PHE694  ASN695  SER759  ASP760  ASP761  ALA762  ILE779  LEU786  VAL792 
 PHE793  MET794  SER795  GLU796  ALA797  LYS798  CYS799  TRP800  GLU811  SER814 

> <Gold.Protein.RotatedAtoms>
  150.6949  134.1756  159.4228 H   0  0  0  0  0  0  0  0  0  0  0  0  # atno 6907 bound_to 6896
  151.9732  135.0064  160.0563 H   0  0  0  0  0  0  0  0  0  0  0  0  # atno 6908 bound_to 6896
  152.1822  133.4680  159.5001 H   0  0  0  0  0  0  0  0  0  0  0  0  # atno 6909 bound_to 6896
  144.7705  140.4430  143.5911 H   0  0  0  0  0  0  0  0  0  0  0  0  # atno 7974 bound_to 7965
  156.1445  140.1560  156.8869 H   0  0  0  0  0  0  0  0  0  0  0  0  # atno 8008 bound_to 7997
  154.5016  140.0824  156.7847 H   0  0  0  0  0  0  0  0  0  0  0  0  # atno 8009 bound_to 7997
  155.4016  140.3414  155.4259 H   0  0  0  0  0  0  0  0  0  0  0  0  # atno 8010 bound_to 7997
  139.8135  144.6763  150.9610 H   0  0  0  0  0  0  0  0  0  0  0  0  # atno 10167 bound_to 10162
  157.4794  130.8305  149.8076 H   0  0  0  0  0  0  0  0  0  0  0  0  # atno 10718 bound_to 10713
  153.9884  135.2934  155.3414 H   0  0  0  0  0  0  0  0  0  0  0  0  # atno 10763 bound_to 10752
  154.7229  135.5101  153.8843 H   0  0  0  0  0  0  0  0  0  0  0  0  # atno 10764 bound_to 10752
  153.0821  135.6682  154.0139 H   0  0  0  0  0  0  0  0  0  0  0  0  # atno 10765 bound_to 10752
  141.1221  133.8497  157.1262 H   0  0  0  0  0  0  0  0  0  0  0  0  # atno 11005 bound_to 11000
  145.6339  139.1540  143.2953 LP  0  0  0  0  0  0  0  0  0  0  0  0  # atno 17320 bound_to 7965
  146.1847  140.6441  142.9173 LP  0  0  0  0  0  0  0  0  0  0  0  0  # atno 17321 bound_to 7965
  140.7817  143.4162  151.0914 LP  0  0  0  0  0  0  0  0  0  0  0  0  # atno 17342 bound_to 10162
  139.7827  143.8332  152.3140 LP  0  0  0  0  0  0  0  0  0  0  0  0  # atno 17343 bound_to 10162
  156.0114  130.3832  150.2253 LP  0  0  0  0  0  0  0  0  0  0  0  0  # atno 17370 bound_to 10713
  157.0439  131.0043  151.3275 LP  0  0  0  0  0  0  0  0  0  0  0  0  # atno 17371 bound_to 10713
  140.0187  134.9955  157.0547 LP  0  0  0  0  0  0  0  0  0  0  0  0  # atno 17394 bound_to 11000
  140.4476  134.1616  155.7179 LP  0  0  0  0  0  0  0  0  0  0  0  0  # atno 17395 bound_to 11000

$$$$
