AV-unprocessed.smi:45|AV-procd|sdf|411|dock7
  -GOLD-   2262016273D 1   1.00000     0.00000
 Structure written by MMmdl.
 61 64  0  0  0  0  0  0  0  0  2 V2000
  147.4904  136.1812  163.0557 C   0  0  0  0  0  0  0  0  0  0  0  0
  148.2103  136.5700  161.8950 O   0  0  0  0  0  0  0  0  0  0  0  0
  147.8245  136.0419  160.6803 C   0  0  0  0  0  0  0  0  0  0  0  0
  146.7039  135.1890  160.5114 C   0  0  0  0  0  0  0  0  0  0  0  0
  146.3718  134.6857  159.2389 C   0  0  0  0  0  0  0  0  0  0  0  0
  147.1518  135.0247  158.1162 C   0  0  0  0  0  0  0  0  0  0  0  0
  146.8027  134.4744  156.7491 C   0  0  0  0  0  0  0  0  0  0  0  0
  147.7966  133.5364  156.2494 N   0  0  0  0  0  0  0  0  0  0  0  0
  147.7822  133.0957  154.9163 C   0  0  0  0  0  0  0  0  0  0  0  0
  146.7961  133.5543  154.1005 N   0  3  0  0  0  0  0  0  0  0  0  0
  146.7178  133.1569  152.8202 C   0  0  0  0  0  0  0  0  0  0  0  0
  145.6933  133.6548  152.0201 N   0  0  0  0  0  0  0  0  0  0  0  0
  145.2418  133.0195  150.7883 C   0  0  0  0  0  0  0  0  0  0  0  0
  144.1009  133.8902  150.2587 C   0  0  0  0  0  0  0  0  0  0  0  0
  144.3724  135.2552  150.8873 C   0  0  0  0  0  0  0  0  0  0  0  0
  144.9898  134.9127  152.2513 C   0  0  1  0  0  0  0  0  0  0  0  0
  143.9331  134.7714  153.3666 C   0  0  0  0  0  0  0  0  0  0  0  0
  143.1372  133.6283  153.1386 O   0  0  0  0  0  0  0  0  0  0  0  0
  147.5977  132.3002  152.2867 N   0  0  0  0  0  0  0  0  0  0  0  0
  148.5951  131.8186  153.0518 C   0  0  0  0  0  0  0  0  0  0  0  0
  148.7399  132.1818  154.4051 C   0  0  0  0  0  0  0  0  0  0  0  0
  149.8894  131.6512  155.2189 C   0  0  0  0  0  0  0  0  0  0  0  0
  150.1018  130.4422  155.3100 O   0  0  0  0  0  0  0  0  0  0  0  0
  150.6558  132.5845  155.8057 N   0  0  0  0  0  0  0  0  0  0  0  0
  151.7752  132.2997  156.6955 C   0  0  0  0  0  0  0  0  0  0  0  0
  152.9084  131.5832  155.9822 C   0  0  0  0  0  0  0  0  0  0  0  0
  154.1505  131.8509  156.3976 N   0  0  0  0  0  0  0  0  0  0  0  0
  155.1586  131.2269  155.7504 C   0  0  0  0  0  0  0  0  0  0  0  0
  154.9166  130.3344  154.6865 C   0  0  0  0  0  0  0  0  0  0  0  0
  153.5664  130.1318  154.3370 C   0  0  0  0  0  0  0  0  0  0  0  0
  152.5620  130.7596  154.9867 N   0  0  0  0  0  0  0  0  0  0  0  0
  148.2666  135.8710  158.2750 C   0  0  0  0  0  0  0  0  0  0  0  0
  148.5995  136.3764  159.5471 C   0  0  0  0  0  0  0  0  0  0  0  0
  149.9727  137.4121  159.7071 Cl  0  0  0  0  0  0  0  0  0  0  0  0
  145.7071  135.6865  152.5290 H   0  0  0  0  0  0  0  0  0  0  0  0
  147.9219  136.6724  163.9277 H   0  0  0  0  0  0  0  0  0  0  0  0
  147.5515  135.1046  163.2210 H   0  0  0  0  0  0  0  0  0  0  0  0
  146.4430  136.4795  162.9941 H   0  0  0  0  0  0  0  0  0  0  0  0
  146.0808  134.9033  161.3451 H   0  0  0  0  0  0  0  0  0  0  0  0
  145.5168  134.0343  159.1302 H   0  0  0  0  0  0  0  0  0  0  0  0
  145.8295  133.9838  156.7943 H   0  0  0  0  0  0  0  0  0  0  0  0
  146.7101  135.3070  156.0508 H   0  0  0  0  0  0  0  0  0  0  0  0
  148.5327  133.2308  156.8712 H   0  0  0  0  0  0  0  0  0  0  0  0
  146.0689  132.9998  150.0777 H   0  0  0  0  0  0  0  0  0  0  0  0
  144.9157  131.9934  150.9612 H   0  0  0  0  0  0  0  0  0  0  0  0
  144.0643  133.9218  149.1693 H   0  0  0  0  0  0  0  0  0  0  0  0
  143.1448  133.5045  150.6148 H   0  0  0  0  0  0  0  0  0  0  0  0
  145.1040  135.7919  150.2814 H   0  0  0  0  0  0  0  0  0  0  0  0
  143.4801  135.8787  150.9524 H   0  0  0  0  0  0  0  0  0  0  0  0
  144.4004  134.6997  154.3494 H   0  0  0  0  0  0  0  0  0  0  0  0
  143.2716  135.6378  153.3893 H   0  0  0  0  0  0  0  0  0  0  0  0
  143.2698  133.0194  153.8493 H   0  0  0  0  0  0  0  0  0  0  0  0
  149.2868  131.1440  152.5684 H   0  0  0  0  0  0  0  0  0  0  0  0
  150.4255  133.5574  155.6673 H   0  0  0  0  0  0  0  0  0  0  0  0
  152.1339  133.2215  157.1582 H   0  0  0  0  0  0  0  0  0  0  0  0
  151.4173  131.6685  157.5096 H   0  0  0  0  0  0  0  0  0  0  0  0
  156.1637  131.4406  156.0833 H   0  0  0  0  0  0  0  0  0  0  0  0
  155.7210  129.8339  154.1682 H   0  0  0  0  0  0  0  0  0  0  0  0
  153.2910  129.4652  153.5332 H   0  0  0  0  0  0  0  0  0  0  0  0
  148.8709  136.1328  157.4186 H   0  0  0  0  0  0  0  0  0  0  0  0
  146.1117  134.2101  154.4761 H   0  0  0  0  0  0  0  0  0  0  0  0
  1  2  1  0  0  0  0
  1 36  1  0  0  0  0
  1 37  1  0  0  0  0
  1 38  1  0  0  0  0
  2  3  1  0  0  0  0
  3 33  1  0  0  0  0
  3  4  2  0  0  0  0
  4  5  1  0  0  0  0
  4 39  1  0  0  0  0
  5  6  2  0  0  0  0
  5 40  1  0  0  0  0
  6  7  1  0  0  0  0
  6 32  1  0  0  0  0
  7  8  1  0  0  0  0
  7 41  1  0  0  0  0
  7 42  1  0  0  0  0
  8  9  1  0  0  0  0
  8 43  1  0  0  0  0
  9 21  1  0  0  0  0
  9 10  2  0  0  0  0
 10 11  1  0  0  0  0
 10 61  1  0  0  0  0
 11 12  1  0  0  0  0
 11 19  2  0  0  0  0
 12 16  1  0  0  0  0
 12 13  1  0  0  0  0
 13 14  1  0  0  0  0
 13 44  1  0  0  0  0
 13 45  1  0  0  0  0
 14 15  1  0  0  0  0
 14 46  1  0  0  0  0
 14 47  1  0  0  0  0
 15 16  1  0  0  0  0
 15 48  1  0  0  0  0
 15 49  1  0  0  0  0
 16 35  1  0  0  0  0
 16 17  1  0  0  0  0
 17 18  1  0  0  0  0
 17 50  1  0  0  0  0
 17 51  1  0  0  0  0
 18 52  1  0  0  0  0
 19 20  1  0  0  0  0
 20 21  2  0  0  0  0
 20 53  1  0  0  0  0
 21 22  1  0  0  0  0
 22 23  2  0  0  0  0
 22 24  1  0  0  0  0
 24 25  1  0  0  0  0
 24 54  1  0  0  0  0
 25 26  1  0  0  0  0
 25 55  1  0  0  0  0
 25 56  1  0  0  0  0
 26 31  1  0  0  0  0
 26 27  2  0  0  0  0
 27 28  1  0  0  0  0
 28 29  2  0  0  0  0
 28 57  1  0  0  0  0
 29 30  1  0  0  0  0
 29 58  1  0  0  0  0
 30 31  2  0  0  0  0
 30 59  1  0  0  0  0
 32 33  2  0  0  0  0
 32 60  1  0  0  0  0
 33 34  1  0  0  0  0
M  CHG  1  10   1
M  END
> <s_m_source_file>
AV-unprocessed.smi

> <i_m_source_file_index>
45

> <i_lp_mmshare_version>
43012

> <i_f3d_flags>
0

> <s_epik_input>
W0NIM11PYzFbY0hdW2NIXWMoW2NIXWMxQ2wpW0NIMl1bTkhdYzJuYyhOM1tDSDJdW0NIMl1bQ0gyXVtDQEhdM1tDSDJdW09IXSluW2NIXWMyQyg9TylbTkhdW0NIMl1jNG5bY0hdW2NIXVtjSF1uNA==

> <s_epik_cmdline>
J2VwaWtfcHl0aG9uJywgJy1waCcsICc3LjAnLCAnLXRuJywgJzgnLCAnLW1hJywgJzIwMCcsICctbWV0YWxfYmluZGluZycsICctaW1hZScsICc8aW5maWxlLm1hZT4nLCAnLW9tYWUnLCAnPG91dGZpbGUubWFlPic=

> <r_lp_tautomer_probability>
0.424989

> <r_epik_Ionization_Penalty>
2.31209

> <r_epik_Ionization_Penalty_Charging>
2.31199

> <r_epik_Ionization_Penalty_Neutral>
9.65277e-05

> <r_epik_State_Penalty>
2.29675

> <r_epik_Charging_Adjusted_Penalty>
4.60874

> <i_epik_Tot_Q>
1

> <i_epik_Tot_abs_Q>
1

> <r_epik_Metal_State_Penalty>
2.3404

> <b_epik_Metal_Only>
0

> <s_epik_Chemistry_Notes>
This compound contains an electron-poor aromatic ring that is susceptible to covalent hydrolysis at low pH, typically resulting in measured values for nitrogen ring protonation that are around two units higher than predicted values.

> <s_lp_Force_Field>
OPLS_2005

> <r_lp_Energy>
34.7273

> <b_lp_Chiralities_Consistent>
1

> <s_lp_Variant>
AV-unprocessed.smi:45-5

> <Gold.Version>
5.8.1

> <Gold.Id.Protein>
6NUR|6NUR_protein|mol2

> <Gold.PLP.Fitness>
50.3290

> <Gold.PLP.PLP>
-41.2113

> <Gold.PLP.part.hbond>
-2.0000

> <Gold.PLP.part.metal>
0.0000

> <Gold.PLP.part.buried>
-5.0958

> <Gold.PLP.part.nonpolar>
-37.2469

> <Gold.PLP.part.repulsive>
1.7464

> <Gold.PLP.ligand.clash>
0.0000

> <Gold.PLP.ligand.torsion>
1.7483

> <Gold.PLP.Chemscore.Hbond>
2.0000

> <Gold.PLP.Chemscore.CHOScore>
1.6576

> <Gold.PLP.Chemscore.Metal>
0.0000

> <Gold.Chemscore.Hbonds>
donor molecule, donor type, donor heavy atom, donor atom, acceptor molecule, acceptor atom, score
      L1  H    18    52       P1 10957  0.96
      P1  H  6931  6943       L1     2  1.00
      L1  C    20    53       P1 10747  0.70

> <Gold.PLP.Chemscore.Internal.Correction>
1.6415

> <Gold.Rescore>
     Score         DG    S(hbond)    S(metal)    S(lipo)     H(rot)  DE(clash)    DE(int)     intcor
      9.08     -15.41       1.83        0.00      96.99       2.94       0.97       5.36       ----

> <Gold.Chemscore.Fitness>
9.0845

> <Gold.Chemscore.DG>
-15.4147

> <Gold.Chemscore.ZeroCoef>
-5.4800

> <Gold.Chemscore.Hbond>
1.8299

> <Gold.Chemscore.Metal>
0.0000

> <Gold.Chemscore.Lipo>
96.9899

> <Gold.Chemscore.Internal_Hbond>
0.0000

> <Gold.Chemscore.DEClash>
0.9706

> <Gold.Chemscore.DEInternal>
5.3596

> <Gold.Chemscore.Rot>
2.9395

> <Gold.Chemscore.Internal.Correction>
   9.000000E+99

> <Gold.Chemscore.Hbonds>
donor molecule, donor type, donor heavy atom, donor atom, acceptor molecule, acceptor atom, score
      L1  H    18    52       P1 10957  0.91
      P1  H  6931  6943       L1     2  0.91

> <Gold.Chemscore.Hbond.Weighted>
-6.1120

> <Gold.Chemscore.Metal.Weighted>
-0.0000

> <Gold.Chemscore.Lipo.Weighted>
-11.3478

> <Gold.Chemscore.Internal_Hbond.Weighted>
0.0000

> <Gold.Chemscore.DEClash.Weighted>
0.9706

> <Gold.Chemscore.DEInternal.Weighted>
5.3596

> <Gold.Chemscore.Rot.Weighted>
7.5251

> <Gold.Chemscore.Internal.Correction.Weighted>
   9.000000E+99

> <Gold.Protein.RotatedTorsions>
[ 6907 6896 6895 6894 ] final   29.58 input  -60.11 | X-H torsion
[ 7974 7965 7964 7962 ] final   41.03 input  175.53 | X-H torsion
[ 8008 7997 7996 7995 ] final -130.11 input   59.86 | X-H torsion
[ 10167 10162 10161 10158 ] final   11.99 input  -65.29 | X-H torsion
[ 10718 10713 10712 10709 ] final  -88.68 input   66.30 | X-H torsion
[ 10763 10752 10751 10750 ] final  -68.79 input  -60.55 | X-H torsion
[ 11005 11000 10999 10996 ] final -120.03 input  -57.11 | X-H torsion

> <Gold.Protein.ActiveResidues>
 VAL166  LYS551  ARG553  GLY616  TRP617  ASP618  TYR619  PRO620  LYS621  CYS622 
 ASP623  PHE694  ASN695  SER759  ASP760  ASP761  ALA762  ILE779  LEU786  VAL792 
 PHE793  MET794  SER795  GLU796  ALA797  LYS798  CYS799  TRP800  GLU811  SER814 

> <Gold.Protein.RotatedAtoms>
  152.0336  134.9753  160.0572 H   0  0  0  0  0  0  0  0  0  0  0  0  # atno 6907 bound_to 6896
  152.1220  133.4354  159.4688 H   0  0  0  0  0  0  0  0  0  0  0  0  # atno 6908 bound_to 6896
  150.6850  134.2442  159.4528 H   0  0  0  0  0  0  0  0  0  0  0  0  # atno 6909 bound_to 6896
  146.0857  139.5463  142.9508 H   0  0  0  0  0  0  0  0  0  0  0  0  # atno 7974 bound_to 7965
  155.2903  140.0448  157.3022 H   0  0  0  0  0  0  0  0  0  0  0  0  # atno 8008 bound_to 7997
  154.5545  140.2327  155.8400 H   0  0  0  0  0  0  0  0  0  0  0  0  # atno 8009 bound_to 7997
  156.1995  140.3029  155.9505 H   0  0  0  0  0  0  0  0  0  0  0  0  # atno 8010 bound_to 7997
  140.6097  143.8434  150.7051 H   0  0  0  0  0  0  0  0  0  0  0  0  # atno 10167 bound_to 10162
  155.9983  130.4844  150.5057 H   0  0  0  0  0  0  0  0  0  0  0  0  # atno 10718 bound_to 10713
  154.3941  135.6046  153.5860 H   0  0  0  0  0  0  0  0  0  0  0  0  # atno 10763 bound_to 10752
  152.9787  135.5891  154.4262 H   0  0  0  0  0  0  0  0  0  0  0  0  # atno 10764 bound_to 10752
  154.4051  135.2843  155.2050 H   0  0  0  0  0  0  0  0  0  0  0  0  # atno 10765 bound_to 10752
  141.0173  134.0176  157.3331 H   0  0  0  0  0  0  0  0  0  0  0  0  # atno 11005 bound_to 11000
  145.6135  141.0335  143.1954 LP  0  0  0  0  0  0  0  0  0  0  0  0  # atno 17320 bound_to 7965
  144.7324  139.7686  143.7342 LP  0  0  0  0  0  0  0  0  0  0  0  0  # atno 17321 bound_to 7965
  140.2000  143.3967  152.1799 LP  0  0  0  0  0  0  0  0  0  0  0  0  # atno 17342 bound_to 10162
  139.5351  144.7201  151.4920 LP  0  0  0  0  0  0  0  0  0  0  0  0  # atno 17343 bound_to 10162
  157.3036  131.0650  151.2051 LP  0  0  0  0  0  0  0  0  0  0  0  0  # atno 17370 bound_to 10713
  157.3022  130.6848  149.6170 LP  0  0  0  0  0  0  0  0  0  0  0  0  # atno 17371 bound_to 10713
  139.9125  135.0192  156.7748 LP  0  0  0  0  0  0  0  0  0  0  0  0  # atno 17394 bound_to 11000
  140.6633  133.9626  155.7816 LP  0  0  0  0  0  0  0  0  0  0  0  0  # atno 17395 bound_to 11000

$$$$
