AV-unprocessed.smi:3129|AV-procd|sdf|11924|dock2
  -GOLD-   2272017303D 1   1.00000     0.00000
 Structure written by MMmdl.
 39 39  0  0  0  0  0  0  0  0  1 V2000
  147.7623  141.9576  154.0528 C   0  0  0  0  0  0  0  0  0  0  0  0
  146.7762  140.8036  154.2879 C   0  0  0  0  0  0  0  0  0  0  0  0
  146.6222  140.5266  155.7937 C   0  0  0  0  0  0  0  0  0  0  0  0
  147.2031  139.5543  153.4891 C   0  0  0  0  0  0  0  0  0  0  0  0
  148.6466  139.3373  153.5243 N   0  0  0  0  0  0  0  0  0  0  0  0
  149.3674  139.0434  154.6181 C   0  0  0  0  0  0  0  0  0  0  0  0
  148.8770  138.9261  155.7415 O   0  0  0  0  0  0  0  0  0  0  0  0
  150.8832  138.8782  154.4165 C   0  0  2  0  0  0  0  0  0  0  0  0
  151.3682  137.5511  155.0223 C   0  0  0  0  0  0  0  0  0  0  0  0
  151.6716  139.9950  154.9679 N   0  0  0  0  0  0  0  0  0  0  0  0
  151.2516  140.4286  156.2958 C   0  0  0  0  0  0  0  0  0  0  0  0
  150.8560  141.9108  156.2486 C   0  0  0  0  0  0  0  0  0  0  0  0
  151.4318  142.6486  157.3560 N   0  0  0  0  0  0  0  0  0  0  0  0
  151.5110  144.0147  157.5267 C   0  0  0  0  0  0  0  0  0  0  0  0
  152.1434  144.2392  158.7159 C   0  0  0  0  0  0  0  0  0  0  0  0
  152.4176  142.9313  159.2050 C   0  0  0  0  0  0  0  0  0  0  0  0
  151.9921  141.9813  158.3879 N   0  0  0  0  0  0  0  0  0  0  0  0
  148.7603  141.7053  154.4125 H   0  0  0  0  0  0  0  0  0  0  0  0
  147.4406  142.8618  154.5704 H   0  0  0  0  0  0  0  0  0  0  0  0
  147.8416  142.1983  152.9923 H   0  0  0  0  0  0  0  0  0  0  0  0
  145.8045  141.1267  153.9115 H   0  0  0  0  0  0  0  0  0  0  0  0
  147.5509  140.1494  156.2228 H   0  0  0  0  0  0  0  0  0  0  0  0
  145.8417  139.7918  155.9902 H   0  0  0  0  0  0  0  0  0  0  0  0
  146.3506  141.4339  156.3338 H   0  0  0  0  0  0  0  0  0  0  0  0
  146.7346  138.6684  153.9188 H   0  0  0  0  0  0  0  0  0  0  0  0
  146.8392  139.6171  152.4620 H   0  0  0  0  0  0  0  0  0  0  0  0
  149.1386  139.4224  152.6465 H   0  0  0  0  0  0  0  0  0  0  0  0
  151.0781  138.8329  153.3434 H   0  0  0  0  0  0  0  0  0  0  0  0
  150.8103  136.7045  154.6198 H   0  0  0  0  0  0  0  0  0  0  0  0
  151.2569  137.5378  156.1074 H   0  0  0  0  0  0  0  0  0  0  0  0
  152.4218  137.3823  154.7975 H   0  0  0  0  0  0  0  0  0  0  0  0
  152.6598  139.7854  154.9716 H   0  0  0  0  0  0  0  0  0  0  0  0
  150.4055  139.8259  156.6293 H   0  0  0  0  0  0  0  0  0  0  0  0
  152.0581  140.2933  157.0172 H   0  0  0  0  0  0  0  0  0  0  0  0
  151.1943  142.3674  155.3173 H   0  0  0  0  0  0  0  0  0  0  0  0
  149.7708  142.0213  156.2803 H   0  0  0  0  0  0  0  0  0  0  0  0
  151.1166  144.7050  156.7955 H   0  0  0  0  0  0  0  0  0  0  0  0
  152.3756  145.1924  159.1673 H   0  0  0  0  0  0  0  0  0  0  0  0
  152.9107  142.6459  160.1226 H   0  0  0  0  0  0  0  0  0  0  0  0
  1  2  1  0  0  0  0
  1 18  1  0  0  0  0
  1 19  1  0  0  0  0
  1 20  1  0  0  0  0
  2  3  1  0  0  0  0
  2  4  1  0  0  0  0
  2 21  1  0  0  0  0
  3 22  1  0  0  0  0
  3 23  1  0  0  0  0
  3 24  1  0  0  0  0
  4  5  1  0  0  0  0
  4 25  1  0  0  0  0
  4 26  1  0  0  0  0
  5  6  1  0  0  0  0
  5 27  1  0  0  0  0
  6  7  2  0  0  0  0
  6  8  1  0  0  0  0
  8  9  1  0  0  0  0
  8 10  1  0  0  0  0
  8 28  1  0  0  0  0
  9 29  1  0  0  0  0
  9 30  1  0  0  0  0
  9 31  1  0  0  0  0
 10 11  1  0  0  0  0
 10 32  1  0  0  0  0
 11 12  1  0  0  0  0
 11 33  1  0  0  0  0
 11 34  1  0  0  0  0
 12 13  1  0  0  0  0
 12 35  1  0  0  0  0
 12 36  1  0  0  0  0
 13 17  1  0  0  0  0
 13 14  1  0  0  0  0
 14 15  2  0  0  0  0
 14 37  1  0  0  0  0
 15 16  1  0  0  0  0
 15 38  1  0  0  0  0
 16 17  2  0  0  0  0
 16 39  1  0  0  0  0
M  END
> <s_m_source_file>
AV-unprocessed.smi

> <i_m_source_file_index>
3129

> <i_lp_mmshare_version>
43012

> <i_f3d_flags>
0

> <s_epik_input>
W0NIM11bQ0hdKFtDSDNdKVtDSDJdW05IXUMoPU8pW0NASF0oW0NIM10pW05IXVtDSDJdW0NIMl1uMVtjSF1bY0hdW2NIXW4x

> <s_epik_cmdline>
J2VwaWtfcHl0aG9uJywgJy1waCcsICc3LjAnLCAnLXRuJywgJzgnLCAnLW1hJywgJzIwMCcsICctbWV0YWxfYmluZGluZycsICctaW1hZScsICc8aW5maWxlLm1hZT4nLCAnLW9tYWUnLCAnPG91dGZpbGUubWFlPic=

> <r_lp_tautomer_probability>
1

> <r_epik_Ionization_Penalty>
0.724007

> <r_epik_Ionization_Penalty_Charging>
0

> <r_epik_Ionization_Penalty_Neutral>
0.724007

> <r_epik_State_Penalty>
0.74758

> <r_epik_Charging_Adjusted_Penalty>
0.74758

> <i_epik_Tot_Q>
0

> <i_epik_Tot_abs_Q>
0

> <r_epik_Metal_State_Penalty>
0.746851

> <b_epik_Metal_Only>
0

> <s_lp_Force_Field>
OPLS_2005

> <r_lp_Energy>
5.79034

> <b_lp_Chiralities_Consistent>
1

> <s_lp_Variant>
AV-unprocessed.smi:3129-3

> <Gold.Version>
5.8.1

> <Gold.Id.Protein>
6NUR|6NUR_protein|mol2

> <Gold.PLP.Fitness>
42.4738

> <Gold.PLP.PLP>
-37.3859

> <Gold.PLP.part.hbond>
-2.0000

> <Gold.PLP.part.metal>
0.0000

> <Gold.PLP.part.buried>
-5.7063

> <Gold.PLP.part.nonpolar>
-30.3615

> <Gold.PLP.part.repulsive>
0.1116

> <Gold.PLP.ligand.clash>
0.0000

> <Gold.PLP.ligand.torsion>
1.4017

> <Gold.PLP.Chemscore.Hbond>
1.5525

> <Gold.PLP.Chemscore.CHOScore>
0.9989

> <Gold.PLP.Chemscore.Metal>
0.0000

> <Gold.Chemscore.Hbonds>
donor molecule, donor type, donor heavy atom, donor atom, acceptor molecule, acceptor atom, score
      L1  H     5    27       P1  7957  1.00
      P1  H  7989  7998       L1    10  0.60
      L1  C    14    37       P1  8028  1.00

> <Gold.PLP.Chemscore.Internal.Correction>
0.2371

> <Gold.Rescore>
     Score         DG    S(hbond)    S(metal)    S(lipo)     H(rot)  DE(clash)    DE(int)     intcor
     10.03     -13.86       1.00        0.00      89.87       2.13       0.02       3.81       ----

> <Gold.Chemscore.Fitness>
10.0305

> <Gold.Chemscore.DG>
-13.8610

> <Gold.Chemscore.ZeroCoef>
-5.4800

> <Gold.Chemscore.Hbond>
0.9972

> <Gold.Chemscore.Metal>
0.0000

> <Gold.Chemscore.Lipo>
89.8674

> <Gold.Chemscore.Internal_Hbond>
0.0000

> <Gold.Chemscore.DEClash>
0.0244

> <Gold.Chemscore.DEInternal>
3.8061

> <Gold.Chemscore.Rot>
2.1345

> <Gold.Chemscore.Internal.Correction>
   9.000000E+99

> <Gold.Chemscore.Hbonds>
donor molecule, donor type, donor heavy atom, donor atom, acceptor molecule, acceptor atom, score
      L1  H     5    27       P1  7957  0.99
      P1  H  7989  7998       L1    10  0.01

> <Gold.Chemscore.Hbond.Weighted>
-3.3308

> <Gold.Chemscore.Metal.Weighted>
-0.0000

> <Gold.Chemscore.Lipo.Weighted>
-10.5145

> <Gold.Chemscore.Internal_Hbond.Weighted>
0.0000

> <Gold.Chemscore.DEClash.Weighted>
0.0244

> <Gold.Chemscore.DEInternal.Weighted>
3.8061

> <Gold.Chemscore.Rot.Weighted>
5.4642

> <Gold.Chemscore.Internal.Correction.Weighted>
   9.000000E+99

> <Gold.Protein.RotatedTorsions>
[ 6907 6896 6895 6894 ] final  150.86 input  -60.11 | X-H torsion
[ 7974 7965 7964 7962 ] final   81.93 input  175.53 | X-H torsion
[ 8008 7997 7996 7995 ] final  -88.92 input   59.86 | X-H torsion
[ 10167 10162 10161 10158 ] final   86.97 input  -65.29 | X-H torsion
[ 10718 10713 10712 10709 ] final   -3.35 input   66.30 | X-H torsion
[ 10763 10752 10751 10750 ] final -157.92 input  -60.55 | X-H torsion
[ 11005 11000 10999 10996 ] final  109.47 input  -57.11 | X-H torsion

> <Gold.Protein.ActiveResidues>
 VAL166  LYS551  ARG553  GLY616  TRP617  ASP618  TYR619  PRO620  LYS621  CYS622 
 ASP623  PHE694  ASN695  SER759  ASP760  ASP761  ALA762  ILE779  LEU786  VAL792 
 PHE793  MET794  SER795  GLU796  ALA797  LYS798  CYS799  TRP800  GLU811  SER814 

> <Gold.Protein.RotatedAtoms>
  152.1086  133.4288  159.4620 H   0  0  0  0  0  0  0  0  0  0  0  0  # atno 6907 bound_to 6896
  150.6866  134.2675  159.4583 H   0  0  0  0  0  0  0  0  0  0  0  0  # atno 6908 bound_to 6896
  152.0542  134.9634  160.0625 H   0  0  0  0  0  0  0  0  0  0  0  0  # atno 6909 bound_to 6896
  145.6317  139.2406  143.2081 H   0  0  0  0  0  0  0  0  0  0  0  0  # atno 7974 bound_to 7965
  154.6805  140.0548  157.0261 H   0  0  0  0  0  0  0  0  0  0  0  0  # atno 8008 bound_to 7997
  155.0958  140.3224  155.4542 H   0  0  0  0  0  0  0  0  0  0  0  0  # atno 8009 bound_to 7997
  156.2692  140.2040  156.6085 H   0  0  0  0  0  0  0  0  0  0  0  0  # atno 8010 bound_to 7997
  139.8821  144.6434  150.8831 H   0  0  0  0  0  0  0  0  0  0  0  0  # atno 10167 bound_to 10162
  156.7773  130.5319  149.5757 H   0  0  0  0  0  0  0  0  0  0  0  0  # atno 10718 bound_to 10713
  154.7597  135.3114  154.8401 H   0  0  0  0  0  0  0  0  0  0  0  0  # atno 10763 bound_to 10752
  153.9165  135.6800  153.4753 H   0  0  0  0  0  0  0  0  0  0  0  0  # atno 10764 bound_to 10752
  153.1197  135.4828  154.9106 H   0  0  0  0  0  0  0  0  0  0  0  0  # atno 10765 bound_to 10752
  139.8863  134.9459  156.6131 H   0  0  0  0  0  0  0  0  0  0  0  0  # atno 11005 bound_to 11000
  146.1351  140.7133  142.9393 LP  0  0  0  0  0  0  0  0  0  0  0  0  # atno 17320 bound_to 7965
  144.7191  140.4312  143.7022 LP  0  0  0  0  0  0  0  0  0  0  0  0  # atno 17321 bound_to 7965
  140.7742  143.3577  151.1888 LP  0  0  0  0  0  0  0  0  0  0  0  0  # atno 17342 bound_to 10162
  139.7186  143.9259  152.2976 LP  0  0  0  0  0  0  0  0  0  0  0  0  # atno 17343 bound_to 10162
  156.1240  130.6130  151.0235 LP  0  0  0  0  0  0  0  0  0  0  0  0  # atno 17370 bound_to 10713
  157.6663  131.0871  150.7721 LP  0  0  0  0  0  0  0  0  0  0  0  0  # atno 17371 bound_to 10713
  140.7796  133.8671  155.8557 LP  0  0  0  0  0  0  0  0  0  0  0  0  # atno 17394 bound_to 11000
  140.9772  134.1454  157.4526 LP  0  0  0  0  0  0  0  0  0  0  0  0  # atno 17395 bound_to 11000

$$$$
