AV-unprocessed.smi:3346|AV-procd|sdf|12907|dock7
  -GOLD-   2272019323D 1   1.00000     0.00000
 Structure written by MMmdl.
 48 49  0  0  0  0  0  0  0  0  2 V2000
  151.6665  143.6443  161.7210 C   0  0  0  0  0  0  0  0  0  0  0  0
  151.9910  143.8436  160.2310 C   0  0  0  0  0  0  0  0  0  0  0  0
  152.2508  145.3288  159.9351 C   0  0  0  0  0  0  0  0  0  0  0  0
  150.8788  143.3042  159.3062 C   0  0  0  0  0  0  0  0  0  0  0  0
  151.3389  142.6902  157.9630 C   0  0  2  0  0  0  0  0  0  0  0  0
  152.2327  143.6474  157.1591 C   0  0  0  0  0  0  0  0  0  0  0  0
  150.1572  142.3353  157.1486 N   0  3  0  0  0  0  0  0  0  0  0  0
  150.3669  141.2359  156.1836 C   0  0  0  0  0  0  0  0  0  0  0  0
  149.1481  141.0846  155.2892 C   0  0  0  0  0  0  0  0  0  0  0  0
  148.6367  142.2082  154.6060 C   0  0  0  0  0  0  0  0  0  0  0  0
  147.4942  142.0579  153.7995 C   0  0  0  0  0  0  0  0  0  0  0  0
  146.9040  140.7838  153.7085 C   0  0  0  0  0  0  0  0  0  0  0  0
  147.3815  139.7010  154.3569 N   0  0  0  0  0  0  0  0  0  0  0  0
  148.4825  139.8401  155.1342 C   0  0  0  0  0  0  0  0  0  0  0  0
  148.9686  138.6919  155.7845 N   0  0  0  0  0  0  0  0  0  0  0  0
  148.0746  137.5389  155.7882 C   0  0  0  0  0  0  0  0  0  0  0  0
  148.6702  136.4176  156.6572 C   0  0  0  0  0  0  0  0  0  0  0  0
  149.9703  136.0862  156.1785 O   0  0  0  0  0  0  0  0  0  0  0  0
  150.8648  137.1935  156.2383 C   0  0  0  0  0  0  0  0  0  0  0  0
  150.3243  138.3470  155.3741 C   0  0  0  0  0  0  0  0  0  0  0  0
  150.7185  144.1133  161.9872 H   0  0  0  0  0  0  0  0  0  0  0  0
  152.4405  144.0824  162.3515 H   0  0  0  0  0  0  0  0  0  0  0  0
  151.6046  142.5882  161.9822 H   0  0  0  0  0  0  0  0  0  0  0  0
  152.9180  143.3128  160.0147 H   0  0  0  0  0  0  0  0  0  0  0  0
  151.3639  145.9335  160.1282 H   0  0  0  0  0  0  0  0  0  0  0  0
  152.5343  145.4800  158.8928 H   0  0  0  0  0  0  0  0  0  0  0  0
  153.0602  145.7187  160.5533 H   0  0  0  0  0  0  0  0  0  0  0  0
  150.3082  142.5651  159.8670 H   0  0  0  0  0  0  0  0  0  0  0  0
  150.1760  144.1108  159.0924 H   0  0  0  0  0  0  0  0  0  0  0  0
  151.9034  141.7743  158.1404 H   0  0  0  0  0  0  0  0  0  0  0  0
  153.1690  143.8522  157.6776 H   0  0  0  0  0  0  0  0  0  0  0  0
  151.7346  144.6004  156.9776 H   0  0  0  0  0  0  0  0  0  0  0  0
  152.4929  143.2191  156.1905 H   0  0  0  0  0  0  0  0  0  0  0  0
  149.4102  142.0796  157.7784 H   0  0  0  0  0  0  0  0  0  0  0  0
  151.2527  141.4511  155.5852 H   0  0  0  0  0  0  0  0  0  0  0  0
  150.5663  140.2938  156.6932 H   0  0  0  0  0  0  0  0  0  0  0  0
  149.1097  143.1748  154.7003 H   0  0  0  0  0  0  0  0  0  0  0  0
  147.0784  142.8989  153.2646 H   0  0  0  0  0  0  0  0  0  0  0  0
  146.0253  140.6299  153.0999 H   0  0  0  0  0  0  0  0  0  0  0  0
  147.0959  137.8313  156.1701 H   0  0  0  0  0  0  0  0  0  0  0  0
  147.9312  137.1749  154.7698 H   0  0  0  0  0  0  0  0  0  0  0  0
  148.7226  136.7186  157.7045 H   0  0  0  0  0  0  0  0  0  0  0  0
  148.0382  135.5308  156.6117 H   0  0  0  0  0  0  0  0  0  0  0  0
  150.9987  137.5088  157.2738 H   0  0  0  0  0  0  0  0  0  0  0  0
  151.8431  136.8792  155.8746 H   0  0  0  0  0  0  0  0  0  0  0  0
  150.3202  138.0534  154.3233 H   0  0  0  0  0  0  0  0  0  0  0  0
  150.9774  139.2161  155.4613 H   0  0  0  0  0  0  0  0  0  0  0  0
  149.8684  143.1492  156.6248 H   0  0  0  0  0  0  0  0  0  0  0  0
  1  2  1  0  0  0  0
  1 21  1  0  0  0  0
  1 22  1  0  0  0  0
  1 23  1  0  0  0  0
  2  3  1  0  0  0  0
  2  4  1  0  0  0  0
  2 24  1  0  0  0  0
  3 25  1  0  0  0  0
  3 26  1  0  0  0  0
  3 27  1  0  0  0  0
  4  5  1  0  0  0  0
  4 28  1  0  0  0  0
  4 29  1  0  0  0  0
  5  6  1  0  0  0  0
  5  7  1  0  0  0  0
  5 30  1  0  0  0  0
  6 31  1  0  0  0  0
  6 32  1  0  0  0  0
  6 33  1  0  0  0  0
  7  8  1  0  0  0  0
  7 34  1  0  0  0  0
  7 48  1  0  0  0  0
  8  9  1  0  0  0  0
  8 35  1  0  0  0  0
  8 36  1  0  0  0  0
  9 14  1  0  0  0  0
  9 10  2  0  0  0  0
 10 11  1  0  0  0  0
 10 37  1  0  0  0  0
 11 12  2  0  0  0  0
 11 38  1  0  0  0  0
 12 13  1  0  0  0  0
 12 39  1  0  0  0  0
 13 14  2  0  0  0  0
 14 15  1  0  0  0  0
 15 20  1  0  0  0  0
 15 16  1  0  0  0  0
 16 17  1  0  0  0  0
 16 40  1  0  0  0  0
 16 41  1  0  0  0  0
 17 18  1  0  0  0  0
 17 42  1  0  0  0  0
 17 43  1  0  0  0  0
 18 19  1  0  0  0  0
 19 20  1  0  0  0  0
 19 44  1  0  0  0  0
 19 45  1  0  0  0  0
 20 46  1  0  0  0  0
 20 47  1  0  0  0  0
M  CHG  1   7   1
M  END
> <s_m_source_file>
AV-unprocessed.smi

> <i_m_source_file_index>
3346

> <i_lp_mmshare_version>
43012

> <i_f3d_flags>
0

> <s_epik_input>
W0NIM11bQ0hdKFtDSDNdKVtDSDJdW0NASF0oW0NIM10pW05IXVtDSDJdYzFbY0hdW2NIXVtjSF1uYzFOMltDSDJdW0NIMl1PW0NIMl1bQ0gyXTI=

> <s_epik_cmdline>
J2VwaWtfcHl0aG9uJywgJy1waCcsICc3LjAnLCAnLXRuJywgJzgnLCAnLW1hJywgJzIwMCcsICctbWV0YWxfYmluZGluZycsICctaW1hZScsICc8aW5maWxlLm1hZT4nLCAnLW9tYWUnLCAnPG91dGZpbGUubWFlPic=

> <r_lp_tautomer_probability>
1

> <r_epik_Ionization_Penalty>
0.0185938

> <r_epik_Ionization_Penalty_Charging>
0.0176519

> <r_epik_Ionization_Penalty_Neutral>
0.000941891

> <r_epik_State_Penalty>
0.0140027

> <r_epik_Charging_Adjusted_Penalty>
0.0316546

> <i_epik_Tot_Q>
1

> <i_epik_Tot_abs_Q>
1

> <r_epik_Metal_State_Penalty>
0.0141454

> <b_epik_Metal_Only>
0

> <s_lp_Force_Field>
OPLS_2005

> <r_lp_Energy>
22.6913

> <b_lp_Chiralities_Consistent>
1

> <s_lp_Variant>
AV-unprocessed.smi:3346-1

> <Gold.Version>
5.8.1

> <Gold.Id.Protein>
6NUR|6NUR_protein|mol2

> <Gold.PLP.Fitness>
51.8556

> <Gold.PLP.PLP>
-41.5559

> <Gold.PLP.part.hbond>
-2.0000

> <Gold.PLP.part.metal>
0.0000

> <Gold.PLP.part.buried>
-1.6058

> <Gold.PLP.part.nonpolar>
-37.8841

> <Gold.PLP.part.repulsive>
0.3797

> <Gold.PLP.ligand.clash>
0.0000

> <Gold.PLP.ligand.torsion>
0.9295

> <Gold.PLP.Chemscore.Hbond>
3.0000

> <Gold.PLP.Chemscore.CHOScore>
1.0000

> <Gold.PLP.Chemscore.Metal>
0.0000

> <Gold.Chemscore.Hbonds>
donor molecule, donor type, donor heavy atom, donor atom, acceptor molecule, acceptor atom, score
      L1  H     7    48       P1  8028  1.72
      L1  C    12    39       P1 10175  1.00

> <Gold.PLP.Chemscore.Internal.Correction>
0.1587

> <Gold.Rescore>
     Score         DG    S(hbond)    S(metal)    S(lipo)     H(rot)  DE(clash)    DE(int)     intcor
     18.41     -20.99       1.48        0.00     125.75       1.62       1.16       1.42       ----

> <Gold.Chemscore.Fitness>
18.4078

> <Gold.Chemscore.DG>
-20.9902

> <Gold.Chemscore.ZeroCoef>
-5.4800

> <Gold.Chemscore.Hbond>
1.4841

> <Gold.Chemscore.Metal>
0.0000

> <Gold.Chemscore.Lipo>
125.7512

> <Gold.Chemscore.Internal_Hbond>
0.0000

> <Gold.Chemscore.DEClash>
1.1574

> <Gold.Chemscore.DEInternal>
1.4250

> <Gold.Chemscore.Rot>
1.6248

> <Gold.Chemscore.Internal.Correction>
   9.000000E+99

> <Gold.Chemscore.Hbonds>
donor molecule, donor type, donor heavy atom, donor atom, acceptor molecule, acceptor atom, score
      L1  H     7    48       P1  8028  0.84

> <Gold.Chemscore.Hbond.Weighted>
-4.9569

> <Gold.Chemscore.Metal.Weighted>
-0.0000

> <Gold.Chemscore.Lipo.Weighted>
-14.7129

> <Gold.Chemscore.Internal_Hbond.Weighted>
0.0000

> <Gold.Chemscore.DEClash.Weighted>
1.1574

> <Gold.Chemscore.DEInternal.Weighted>
1.4250

> <Gold.Chemscore.Rot.Weighted>
4.1596

> <Gold.Chemscore.Internal.Correction.Weighted>
   9.000000E+99

> <Gold.Protein.RotatedTorsions>
[ 6907 6896 6895 6894 ] final -109.10 input  -60.11 | X-H torsion
[ 7974 7965 7964 7962 ] final  118.97 input  175.53 | X-H torsion
[ 8008 7997 7996 7995 ] final   31.34 input   59.86 | X-H torsion
[ 10167 10162 10161 10158 ] final  161.96 input  -65.29 | X-H torsion
[ 10718 10713 10712 10709 ] final   90.40 input   66.30 | X-H torsion
[ 10763 10752 10751 10750 ] final   66.68 input  -60.55 | X-H torsion
[ 11005 11000 10999 10996 ] final -102.09 input  -57.11 | X-H torsion

> <Gold.Protein.ActiveResidues>
 VAL166  LYS551  ARG553  GLY616  TRP617  ASP618  TYR619  PRO620  LYS621  CYS622 
 ASP623  PHE694  ASN695  SER759  ASP760  ASP761  ALA762  ILE779  LEU786  VAL792 
 PHE793  MET794  SER795  GLU796  ALA797  LYS798  CYS799  TRP800  GLU811  SER814 

> <Gold.Protein.RotatedAtoms>
  150.7541  133.9579  159.3506 H   0  0  0  0  0  0  0  0  0  0  0  0  # atno 6907 bound_to 6896
  151.7503  135.0832  160.0339 H   0  0  0  0  0  0  0  0  0  0  0  0  # atno 6908 bound_to 6896
  152.3471  133.6098  159.5954 H   0  0  0  0  0  0  0  0  0  0  0  0  # atno 6909 bound_to 6896
  145.1487  139.3223  143.4578 H   0  0  0  0  0  0  0  0  0  0  0  0  # atno 7974 bound_to 7965
  155.1049  140.3233  155.4537 H   0  0  0  0  0  0  0  0  0  0  0  0  # atno 8008 bound_to 7997
  156.2707  140.2054  156.6122 H   0  0  0  0  0  0  0  0  0  0  0  0  # atno 8009 bound_to 7997
  154.6800  140.0527  157.0243 H   0  0  0  0  0  0  0  0  0  0  0  0  # atno 8010 bound_to 7997
  139.4855  144.4485  151.8860 H   0  0  0  0  0  0  0  0  0  0  0  0  # atno 10167 bound_to 10162
  157.6959  131.0369  150.3571 H   0  0  0  0  0  0  0  0  0  0  0  0  # atno 10718 bound_to 10713
  153.0151  135.5311  154.6861 H   0  0  0  0  0  0  0  0  0  0  0  0  # atno 10763 bound_to 10752
  154.6008  135.2868  155.0539 H   0  0  0  0  0  0  0  0  0  0  0  0  # atno 10764 bound_to 10752
  154.1597  135.6549  153.5035 H   0  0  0  0  0  0  0  0  0  0  0  0  # atno 10765 bound_to 10752
  141.1204  133.8530  157.1315 H   0  0  0  0  0  0  0  0  0  0  0  0  # atno 11005 bound_to 11000
  146.3497  140.1553  142.8591 LP  0  0  0  0  0  0  0  0  0  0  0  0  # atno 17320 bound_to 7965
  145.0454  140.8977  143.5027 LP  0  0  0  0  0  0  0  0  0  0  0  0  # atno 17321 bound_to 7965
  140.3941  144.2578  150.5897 LP  0  0  0  0  0  0  0  0  0  0  0  0  # atno 17342 bound_to 10162
  140.5119  143.2288  151.8522 LP  0  0  0  0  0  0  0  0  0  0  0  0  # atno 17343 bound_to 10162
  156.4012  130.3916  149.6958 LP  0  0  0  0  0  0  0  0  0  0  0  0  # atno 17370 bound_to 10713
  156.4275  130.7799  151.2818 LP  0  0  0  0  0  0  0  0  0  0  0  0  # atno 17371 bound_to 10713
  140.0156  134.9969  157.0487 LP  0  0  0  0  0  0  0  0  0  0  0  0  # atno 17394 bound_to 11000
  140.4525  134.1567  155.7183 LP  0  0  0  0  0  0  0  0  0  0  0  0  # atno 17395 bound_to 11000

$$$$
