AV-unprocessed.smi:2655|AV-procd|sdf|10299|dock5
  -GOLD-   2272014313D 1   1.00000     0.00000
 Structure written by MMmdl.
 34 35  0  0  0  0  0  0  0  0  1 V2000
  146.6972  133.3135  151.0644 C   0  0  0  0  0  0  0  0  0  0  0  0
  145.2544  133.7687  151.1121 C   0  0  0  0  0  0  0  0  0  0  0  0
  144.3935  133.5280  150.0812 N   0  0  0  0  0  0  0  0  0  0  0  0
  143.1760  134.0793  150.3907 N   0  0  0  0  0  0  0  0  0  0  0  0
  143.2333  134.6569  151.6021 C   0  0  0  0  0  0  0  0  0  0  0  0
  142.3088  135.2329  152.1719 O   0  0  0  0  0  0  0  0  0  0  0  0
  144.6027  134.4527  152.0613 C   0  0  0  0  0  0  0  0  0  0  0  0
  145.1342  134.9408  153.3952 C   0  0  0  0  0  0  0  0  0  0  0  0
  145.2585  136.4722  153.4397 C   0  0  0  0  0  0  0  0  0  0  0  0
  146.6505  136.8986  153.3648 N   0  0  0  0  0  0  0  0  0  0  0  0
  147.1766  137.9265  154.0466 C   0  0  0  0  0  0  0  0  0  0  0  0
  146.5259  138.6308  154.8189 O   0  0  0  0  0  0  0  0  0  0  0  0
  148.4837  138.0737  153.7719 N   0  0  0  0  0  0  0  0  0  0  0  0
  149.3939  139.0263  154.2982 C   0  0  0  0  0  0  0  0  0  0  0  0
  149.0554  140.2468  154.9521 C   0  0  0  0  0  0  0  0  0  0  0  0
  150.2758  140.7797  155.2573 C   0  0  0  0  0  0  0  0  0  0  0  0
  150.6905  142.0372  155.9410 C   0  0  0  0  0  0  0  0  0  0  0  0
  151.2721  139.9600  154.8269 O   0  0  0  0  0  0  0  0  0  0  0  0
  150.6984  138.8403  154.2132 N   0  0  0  0  0  0  0  0  0  0  0  0
  147.3644  134.1685  151.1762 H   0  0  0  0  0  0  0  0  0  0  0  0
  146.9238  132.8219  150.1179 H   0  0  0  0  0  0  0  0  0  0  0  0
  146.8986  132.6119  151.8743 H   0  0  0  0  0  0  0  0  0  0  0  0
  142.4061  134.0002  149.7421 H   0  0  0  0  0  0  0  0  0  0  0  0
  146.1074  134.4814  153.5713 H   0  0  0  0  0  0  0  0  0  0  0  0
  144.4782  134.5879  154.1920 H   0  0  0  0  0  0  0  0  0  0  0  0
  144.6839  136.9252  152.6296 H   0  0  0  0  0  0  0  0  0  0  0  0
  144.8369  136.8547  154.3697 H   0  0  0  0  0  0  0  0  0  0  0  0
  147.2551  136.3719  152.7514 H   0  0  0  0  0  0  0  0  0  0  0  0
  148.8792  137.4181  153.1144 H   0  0  0  0  0  0  0  0  0  0  0  0
  148.0884  140.6746  155.1694 H   0  0  0  0  0  0  0  0  0  0  0  0
  149.8443  142.5029  156.4463 H   0  0  0  0  0  0  0  0  0  0  0  0
  151.0914  142.7523  155.2228 H   0  0  0  0  0  0  0  0  0  0  0  0
  151.4606  141.8376  156.6863 H   0  0  0  0  0  0  0  0  0  0  0  0
  144.5965  133.1143  149.1823 H   0  0  0  0  0  0  0  0  0  0  0  0
  1 20  1  0  0  0  0
  1 21  1  0  0  0  0
  1 22  1  0  0  0  0
  1  2  1  0  0  0  0
  2  7  2  0  0  0  0
  2  3  1  0  0  0  0
  3  4  1  0  0  0  0
  3 34  1  0  0  0  0
  4 23  1  0  0  0  0
  4  5  1  0  0  0  0
  5  7  1  0  0  0  0
  5  6  2  0  0  0  0
  7  8  1  0  0  0  0
  8  9  1  0  0  0  0
  8 24  1  0  0  0  0
  8 25  1  0  0  0  0
  9 10  1  0  0  0  0
  9 26  1  0  0  0  0
  9 27  1  0  0  0  0
 10 11  1  0  0  0  0
 10 28  1  0  0  0  0
 11 12  2  0  0  0  0
 11 13  1  0  0  0  0
 13 14  1  0  0  0  0
 13 29  1  0  0  0  0
 14 19  2  0  0  0  0
 14 15  1  0  0  0  0
 15 16  2  0  0  0  0
 15 30  1  0  0  0  0
 16 17  1  0  0  0  0
 16 18  1  0  0  0  0
 17 31  1  0  0  0  0
 17 32  1  0  0  0  0
 17 33  1  0  0  0  0
 18 19  1  0  0  0  0
M  END
> <s_m_source_file>
AV-unprocessed.smi

> <i_m_source_file_index>
2655

> <i_lp_mmshare_version>
43012

> <i_f3d_flags>
0

> <s_epik_input>
W0NIM11DMT1OW05IXUMoPU8pW0NASF0xW0NIMl1bQ0gyXVtOSF1DKD1PKVtOSF1jMltjSF1jKFtDSDNdKW9uMg==

> <s_epik_cmdline>
J2VwaWtfcHl0aG9uJywgJy1waCcsICc3LjAnLCAnLXRuJywgJzgnLCAnLW1hJywgJzIwMCcsICctbWV0YWxfYmluZGluZycsICctaW1hZScsICc8aW5maWxlLm1hZT4nLCAnLW9tYWUnLCAnPG91dGZpbGUubWFlPic=

> <r_lp_tautomer_probability>
0.00220696

> <r_epik_Ionization_Penalty>
0.0273702

> <r_epik_Ionization_Penalty_Charging>
8.84748e-06

> <r_epik_Ionization_Penalty_Neutral>
0.0273613

> <r_epik_State_Penalty>
0.626781

> <r_epik_Charging_Adjusted_Penalty>
0.626789

> <i_epik_Tot_Q>
0

> <i_epik_Tot_abs_Q>
0

> <r_epik_Metal_State_Penalty>
2.03048

> <b_epik_Metal_Only>
0

> <s_lp_Force_Field>
OPLS_2005

> <r_lp_Energy>
17.132

> <b_lp_Chiralities_Consistent>
1

> <s_lp_Variant>
AV-unprocessed.smi:2655-2

> <Gold.Version>
5.8.1

> <Gold.Id.Protein>
6NUR|6NUR_protein|mol2

> <Gold.PLP.Fitness>
34.8414

> <Gold.PLP.PLP>
-24.2537

> <Gold.PLP.part.hbond>
-4.3007

> <Gold.PLP.part.metal>
0.0000

> <Gold.PLP.part.buried>
-5.7556

> <Gold.PLP.part.nonpolar>
-15.1270

> <Gold.PLP.part.repulsive>
0.5317

> <Gold.PLP.ligand.clash>
0.0000

> <Gold.PLP.ligand.torsion>
0.6431

> <Gold.PLP.Chemscore.Hbond>
3.9520

> <Gold.PLP.Chemscore.CHOScore>
0.0000

> <Gold.PLP.Chemscore.Metal>
0.0000

> <Gold.Chemscore.Hbonds>
donor molecule, donor type, donor heavy atom, donor atom, acceptor molecule, acceptor atom, score
      L1  H     4    23       P1 10186  0.72
      L1  H    10    28       P1  7948  0.98
      L1  H    13    29       P1  7948  1.00
      P1  H  7989  7998       L1    18  0.75

> <Gold.PLP.Chemscore.Internal.Correction>
0.0180

> <Gold.Rescore>
     Score         DG    S(hbond)    S(metal)    S(lipo)     H(rot)  DE(clash)    DE(int)     intcor
     13.93     -15.53       3.03        0.00      40.79       1.89       0.01       1.59       ----

> <Gold.Chemscore.Fitness>
13.9265

> <Gold.Chemscore.DG>
-15.5271

> <Gold.Chemscore.ZeroCoef>
-5.4800

> <Gold.Chemscore.Hbond>
3.0301

> <Gold.Chemscore.Metal>
0.0000

> <Gold.Chemscore.Lipo>
40.7877

> <Gold.Chemscore.Internal_Hbond>
0.0000

> <Gold.Chemscore.DEClash>
0.0076

> <Gold.Chemscore.DEInternal>
1.5930

> <Gold.Chemscore.Rot>
1.8929

> <Gold.Chemscore.Internal.Correction>
   9.000000E+99

> <Gold.Chemscore.Hbonds>
donor molecule, donor type, donor heavy atom, donor atom, acceptor molecule, acceptor atom, score
      L1  H     4    23       P1 10186  0.70
      L1  H    10    28       P1  7948  0.93
      L1  H    13    29       P1  7948  1.00
      P1  H  7989  7998       L1    18  0.02

> <Gold.Chemscore.Hbond.Weighted>
-10.1207

> <Gold.Chemscore.Metal.Weighted>
-0.0000

> <Gold.Chemscore.Lipo.Weighted>
-4.7722

> <Gold.Chemscore.Internal_Hbond.Weighted>
0.0000

> <Gold.Chemscore.DEClash.Weighted>
0.0076

> <Gold.Chemscore.DEInternal.Weighted>
1.5930

> <Gold.Chemscore.Rot.Weighted>
4.8457

> <Gold.Chemscore.Internal.Correction.Weighted>
   9.000000E+99

> <Gold.Protein.RotatedTorsions>
[ 6907 6896 6895 6894 ] final  136.50 input  -60.11 | X-H torsion
[ 7974 7965 7964 7962 ] final -149.25 input  175.53 | X-H torsion
[ 8008 7997 7996 7995 ] final  161.42 input   59.86 | X-H torsion
[ 10167 10162 10161 10158 ] final -107.54 input  -65.29 | X-H torsion
[ 10718 10713 10712 10709 ] final   74.67 input   66.30 | X-H torsion
[ 10763 10752 10751 10750 ] final  157.64 input  -60.55 | X-H torsion
[ 11005 11000 10999 10996 ] final  143.43 input  -57.11 | X-H torsion

> <Gold.Protein.ActiveResidues>
 VAL166  LYS551  ARG553  GLY616  TRP617  ASP618  TYR619  PRO620  LYS621  CYS622 
 ASP623  PHE694  ASN695  SER759  ASP760  ASP761  ALA762  ILE779  LEU786  VAL792 
 PHE793  MET794  SER795  GLU796  ALA797  LYS798  CYS799  TRP800  GLU811  SER814 

> <Gold.Protein.RotatedAtoms>
  152.2886  133.5539  159.5542 H   0  0  0  0  0  0  0  0  0  0  0  0  # atno 6907 bound_to 6896
  150.7226  134.0461  159.3791 H   0  0  0  0  0  0  0  0  0  0  0  0  # atno 6908 bound_to 6896
  151.8368  135.0603  160.0494 H   0  0  0  0  0  0  0  0  0  0  0  0  # atno 6909 bound_to 6896
  144.7979  140.5089  143.5727 H   0  0  0  0  0  0  0  0  0  0  0  0  # atno 7974 bound_to 7965
  156.2104  140.1777  156.7707 H   0  0  0  0  0  0  0  0  0  0  0  0  # atno 8008 bound_to 7997
  154.5714  140.0682  156.9000 H   0  0  0  0  0  0  0  0  0  0  0  0  # atno 8009 bound_to 7997
  155.2666  140.3339  155.4271 H   0  0  0  0  0  0  0  0  0  0  0  0  # atno 8010 bound_to 7997
  140.1759  143.4005  152.1319 H   0  0  0  0  0  0  0  0  0  0  0  0  # atno 10167 bound_to 10162
  157.6602  130.9689  150.1244 H   0  0  0  0  0  0  0  0  0  0  0  0  # atno 10718 bound_to 10713
  154.2034  135.2789  155.2983 H   0  0  0  0  0  0  0  0  0  0  0  0  # atno 10763 bound_to 10752
  154.5836  135.5581  153.7213 H   0  0  0  0  0  0  0  0  0  0  0  0  # atno 10764 bound_to 10752
  153.0082  135.6351  154.2172 H   0  0  0  0  0  0  0  0  0  0  0  0  # atno 10765 bound_to 10752
  140.0553  134.9234  157.1089 H   0  0  0  0  0  0  0  0  0  0  0  0  # atno 11005 bound_to 11000
  145.5627  139.1480  143.3332 LP  0  0  0  0  0  0  0  0  0  0  0  0  # atno 17320 bound_to 7965
  146.2252  140.5763  142.8999 LP  0  0  0  0  0  0  0  0  0  0  0  0  # atno 17321 bound_to 7965
  139.5317  144.7166  151.5032 LP  0  0  0  0  0  0  0  0  0  0  0  0  # atno 17342 bound_to 10162
  140.6552  143.8615  150.6827 LP  0  0  0  0  0  0  0  0  0  0  0  0  # atno 17343 bound_to 10162
  156.2107  130.3666  149.8674 LP  0  0  0  0  0  0  0  0  0  0  0  0  # atno 17370 bound_to 10713
  156.6553  130.8760  151.3538 LP  0  0  0  0  0  0  0  0  0  0  0  0  # atno 17371 bound_to 10713
  140.3853  134.2242  155.7168 LP  0  0  0  0  0  0  0  0  0  0  0  0  # atno 17394 bound_to 11000
  141.1949  133.8117  157.0737 LP  0  0  0  0  0  0  0  0  0  0  0  0  # atno 17395 bound_to 11000

$$$$
