AV-unprocessed.smi:1244|AV-procd|sdf|5224|dock10
  -GOLD-   22720 4323D 1   1.00000     0.00000
 Structure written by MMmdl.
 55 57  0  0  0  0  0  0  0  0  2 V2000
  143.9118  132.5391  148.7190 C   0  0  0  0  0  0  0  0  0  0  0  0
  143.5000  132.3256  150.1866 C   0  0  2  0  0  0  0  0  0  0  0  0
  143.8340  133.5214  151.1004 C   0  0  0  0  0  0  0  0  0  0  0  0
  145.2888  133.5985  151.3739 N   0  3  1  0  0  0  0  0  0  0  0  0
  145.6471  134.7829  152.1933 C   0  0  0  0  0  0  0  0  0  0  0  0
  145.7627  136.0682  151.3511 C   0  0  0  0  0  0  0  0  0  0  0  0
  146.7976  136.9565  151.8668 N   0  0  0  0  0  0  0  0  0  0  0  0
  146.5685  138.0261  152.6413 C   0  0  0  0  0  0  0  0  0  0  0  0
  145.4454  138.3617  153.0181 O   0  0  0  0  0  0  0  0  0  0  0  0
  147.7127  138.6536  152.9592 N   0  0  0  0  0  0  0  0  0  0  0  0
  147.8817  139.8014  153.7842 C   0  0  0  0  0  0  0  0  0  0  0  0
  146.8993  140.8200  153.8446 C   0  0  0  0  0  0  0  0  0  0  0  0
  147.1413  141.9675  154.6188 C   0  0  0  0  0  0  0  0  0  0  0  0
  148.3685  142.0656  155.2952 C   0  0  0  0  0  0  0  0  0  0  0  0
  149.3194  141.1120  155.2372 N   0  0  0  0  0  0  0  0  0  0  0  0
  149.0949  139.9925  154.5059 C   0  0  0  0  0  0  0  0  0  0  0  0
  150.1200  139.0193  154.4954 N   0  0  0  0  0  0  0  0  0  0  0  0
  151.4719  139.3648  154.9225 C   0  0  0  0  0  0  0  0  0  0  0  0
  152.1669  138.0261  155.1512 C   0  0  0  0  0  0  0  0  0  0  0  0
  151.0373  137.1649  155.7078 C   0  0  0  0  0  0  0  0  0  0  0  0
  149.7932  137.6798  154.9764 C   0  0  0  0  0  0  0  0  0  0  0  0
  145.7738  132.3142  151.9338 C   0  0  0  0  0  0  0  0  0  0  0  0
  145.4460  131.1550  150.9754 C   0  0  1  0  0  0  0  0  0  0  0  0
  145.8568  129.7966  151.5542 C   0  0  0  0  0  0  0  0  0  0  0  0
  144.0421  131.1225  150.7315 O   0  0  0  0  0  0  0  0  0  0  0  0
  143.3782  133.3868  148.2884 H   0  0  0  0  0  0  0  0  0  0  0  0
  143.6738  131.6617  148.1172 H   0  0  0  0  0  0  0  0  0  0  0  0
  144.9772  132.7400  148.6115 H   0  0  0  0  0  0  0  0  0  0  0  0
  142.4171  132.1973  150.1922 H   0  0  0  0  0  0  0  0  0  0  0  0
  143.4858  134.4471  150.6402 H   0  0  0  0  0  0  0  0  0  0  0  0
  143.3006  133.4199  152.0471 H   0  0  0  0  0  0  0  0  0  0  0  0
  144.8719  134.9316  152.9465 H   0  0  0  0  0  0  0  0  0  0  0  0
  146.5731  134.5917  152.7382 H   0  0  0  0  0  0  0  0  0  0  0  0
  146.0251  135.8346  150.3201 H   0  0  0  0  0  0  0  0  0  0  0  0
  144.8056  136.5919  151.3176 H   0  0  0  0  0  0  0  0  0  0  0  0
  147.7514  136.7506  151.6064 H   0  0  0  0  0  0  0  0  0  0  0  0
  148.5677  138.2074  152.6605 H   0  0  0  0  0  0  0  0  0  0  0  0
  145.9751  140.7506  153.2916 H   0  0  0  0  0  0  0  0  0  0  0  0
  146.4091  142.7588  154.6811 H   0  0  0  0  0  0  0  0  0  0  0  0
  148.5961  142.9353  155.8936 H   0  0  0  0  0  0  0  0  0  0  0  0
  151.9856  139.9655  154.1713 H   0  0  0  0  0  0  0  0  0  0  0  0
  151.4524  139.9263  155.8576 H   0  0  0  0  0  0  0  0  0  0  0  0
  152.5143  137.6177  154.2011 H   0  0  0  0  0  0  0  0  0  0  0  0
  153.0218  138.0998  155.8240 H   0  0  0  0  0  0  0  0  0  0  0  0
  151.2029  136.0974  155.5616 H   0  0  0  0  0  0  0  0  0  0  0  0
  150.9340  137.3454  156.7785 H   0  0  0  0  0  0  0  0  0  0  0  0
  148.9194  137.6792  155.6299 H   0  0  0  0  0  0  0  0  0  0  0  0
  149.5757  137.0412  154.1198 H   0  0  0  0  0  0  0  0  0  0  0  0
  146.8509  132.3502  152.0927 H   0  0  0  0  0  0  0  0  0  0  0  0
  145.3128  132.1432  152.9082 H   0  0  0  0  0  0  0  0  0  0  0  0
  145.9805  131.2952  150.0356 H   0  0  0  0  0  0  0  0  0  0  0  0
  146.9279  129.7625  151.7542 H   0  0  0  0  0  0  0  0  0  0  0  0
  145.6240  128.9901  150.8583 H   0  0  0  0  0  0  0  0  0  0  0  0
  145.3348  129.5905  152.4892 H   0  0  0  0  0  0  0  0  0  0  0  0
  145.7391  133.7217  150.4782 H   0  0  0  0  0  0  0  0  0  0  0  0
  1  2  1  0  0  0  0
  1 26  1  0  0  0  0
  1 27  1  0  0  0  0
  1 28  1  0  0  0  0
  2 25  1  0  0  0  0
  2  3  1  0  0  0  0
  2 29  1  0  0  0  0
  3  4  1  0  0  0  0
  3 30  1  0  0  0  0
  3 31  1  0  0  0  0
  4  5  1  0  0  0  0
  4 22  1  0  0  0  0
  4 55  1  0  0  0  0
  5  6  1  0  0  0  0
  5 32  1  0  0  0  0
  5 33  1  0  0  0  0
  6  7  1  0  0  0  0
  6 34  1  0  0  0  0
  6 35  1  0  0  0  0
  7  8  1  0  0  0  0
  7 36  1  0  0  0  0
  8  9  2  0  0  0  0
  8 10  1  0  0  0  0
 10 11  1  0  0  0  0
 10 37  1  0  0  0  0
 11 16  1  0  0  0  0
 11 12  2  0  0  0  0
 12 13  1  0  0  0  0
 12 38  1  0  0  0  0
 13 14  2  0  0  0  0
 13 39  1  0  0  0  0
 14 15  1  0  0  0  0
 14 40  1  0  0  0  0
 15 16  2  0  0  0  0
 16 17  1  0  0  0  0
 17 21  1  0  0  0  0
 17 18  1  0  0  0  0
 18 19  1  0  0  0  0
 18 41  1  0  0  0  0
 18 42  1  0  0  0  0
 19 20  1  0  0  0  0
 19 43  1  0  0  0  0
 19 44  1  0  0  0  0
 20 21  1  0  0  0  0
 20 45  1  0  0  0  0
 20 46  1  0  0  0  0
 21 47  1  0  0  0  0
 21 48  1  0  0  0  0
 22 23  1  0  0  0  0
 22 49  1  0  0  0  0
 22 50  1  0  0  0  0
 23 24  1  0  0  0  0
 23 25  1  0  0  0  0
 23 51  1  0  0  0  0
 24 52  1  0  0  0  0
 24 53  1  0  0  0  0
 24 54  1  0  0  0  0
M  CHG  1   4   1
M  END
> <s_m_source_file>
AV-unprocessed.smi

> <i_m_source_file_index>
1244

> <i_lp_mmshare_version>
43012

> <i_f3d_flags>
0

> <s_epik_input>
W0NIM11bQ0BASF0xW0NIMl1OKFtDSDJdW0NASF0oTzEpW0NIM10pW0NIMl1bQ0gyXVtOSF1DKD1PKVtOSF1jMltjSF1bY0hdW2NIXW5jMk4zW0NIMl1bQ0gyXVtDSDJdW0NIMl0z

> <s_epik_cmdline>
J2VwaWtfcHl0aG9uJywgJy1waCcsICc3LjAnLCAnLXRuJywgJzgnLCAnLW1hJywgJzIwMCcsICctbWV0YWxfYmluZGluZycsICctaW1hZScsICc8aW5maWxlLm1hZT4nLCAnLW9tYWUnLCAnPG91dGZpbGUubWFlPic=

> <r_lp_tautomer_probability>
1

> <r_epik_Ionization_Penalty>
0.684913

> <r_epik_Ionization_Penalty_Charging>
0.602531

> <r_epik_Ionization_Penalty_Neutral>
0.0823829

> <r_epik_State_Penalty>
0.678827

> <r_epik_Charging_Adjusted_Penalty>
1.28136

> <i_epik_Tot_Q>
1

> <i_epik_Tot_abs_Q>
1

> <r_epik_Metal_State_Penalty>
0.67806

> <b_epik_Metal_Only>
0

> <s_lp_Force_Field>
OPLS_2005

> <r_lp_Energy>
45.4431

> <b_lp_Chiralities_Consistent>
1

> <s_lp_Variant>
AV-unprocessed.smi:1244-4

> <Gold.Version>
5.8.1

> <Gold.Id.Protein>
6NUR|6NUR_protein|mol2

> <Gold.PLP.Fitness>
44.5088

> <Gold.PLP.PLP>
-40.5426

> <Gold.PLP.part.hbond>
-3.3101

> <Gold.PLP.part.metal>
0.0000

> <Gold.PLP.part.buried>
0.2130

> <Gold.PLP.part.nonpolar>
-41.8751

> <Gold.PLP.part.repulsive>
3.0281

> <Gold.PLP.ligand.clash>
0.0000

> <Gold.PLP.ligand.torsion>
1.0565

> <Gold.PLP.Chemscore.Hbond>
1.2970

> <Gold.PLP.Chemscore.CHOScore>
0.6064

> <Gold.PLP.Chemscore.Metal>
0.0000

> <Gold.Chemscore.Hbonds>
donor molecule, donor type, donor heavy atom, donor atom, acceptor molecule, acceptor atom, score
      L1  H     7    36       P1  7948  0.42
      L1  H    10    37       P1  7948  0.48
      P1  H 10785 10796       L1    25  0.03
      L1  C    14    40       P1  8028  0.46

> <Gold.PLP.Chemscore.Internal.Correction>
0.3690

> <Gold.Rescore>
     Score         DG    S(hbond)    S(metal)    S(lipo)     H(rot)  DE(clash)    DE(int)     intcor
     11.37     -18.74       0.92        0.00     122.12       1.60       5.00       2.37       ----

> <Gold.Chemscore.Fitness>
11.3706

> <Gold.Chemscore.DG>
-18.7445

> <Gold.Chemscore.ZeroCoef>
-5.4800

> <Gold.Chemscore.Hbond>
0.9184

> <Gold.Chemscore.Metal>
0.0000

> <Gold.Chemscore.Lipo>
122.1160

> <Gold.Chemscore.Internal_Hbond>
0.0000

> <Gold.Chemscore.DEClash>
5.0029

> <Gold.Chemscore.DEInternal>
2.3710

> <Gold.Chemscore.Rot>
1.5978

> <Gold.Chemscore.Internal.Correction>
   9.000000E+99

> <Gold.Chemscore.Hbonds>
donor molecule, donor type, donor heavy atom, donor atom, acceptor molecule, acceptor atom, score
      L1  H     7    36       P1  7948  0.40
      L1  H    10    37       P1  7948  0.48

> <Gold.Chemscore.Hbond.Weighted>
-3.0674

> <Gold.Chemscore.Metal.Weighted>
-0.0000

> <Gold.Chemscore.Lipo.Weighted>
-14.2876

> <Gold.Chemscore.Internal_Hbond.Weighted>
0.0000

> <Gold.Chemscore.DEClash.Weighted>
5.0029

> <Gold.Chemscore.DEInternal.Weighted>
2.3710

> <Gold.Chemscore.Rot.Weighted>
4.0905

> <Gold.Chemscore.Internal.Correction.Weighted>
   9.000000E+99

> <Gold.Protein.RotatedTorsions>
[ 6907 6896 6895 6894 ] final  -12.56 input  -60.11 | X-H torsion
[ 7974 7965 7964 7962 ] final  117.65 input  175.53 | X-H torsion
[ 8008 7997 7996 7995 ] final  172.60 input   59.86 | X-H torsion
[ 10167 10162 10161 10158 ] final -144.17 input  -65.29 | X-H torsion
[ 10718 10713 10712 10709 ] final   76.28 input   66.30 | X-H torsion
[ 10763 10752 10751 10750 ] final  -30.49 input  -60.55 | X-H torsion
[ 11005 11000 10999 10996 ] final -127.59 input  -57.11 | X-H torsion

> <Gold.Protein.ActiveResidues>
 VAL166  LYS551  ARG553  GLY616  TRP617  ASP618  TYR619  PRO620  LYS621  CYS622 
 ASP623  PHE694  ASN695  SER759  ASP760  ASP761  ALA762  ILE779  LEU786  VAL792 
 PHE793  MET794  SER795  GLU796  ALA797  LYS798  CYS799  TRP800  GLU811  SER814 

> <Gold.Protein.RotatedAtoms>
  151.3685  135.0918  159.9457 H   0  0  0  0  0  0  0  0  0  0  0  0  # atno 6907 bound_to 6896
  152.5142  133.9188  159.7534 H   0  0  0  0  0  0  0  0  0  0  0  0  # atno 6908 bound_to 6896
  150.9597  133.6404  159.2786 H   0  0  0  0  0  0  0  0  0  0  0  0  # atno 6909 bound_to 6896
  145.1648  139.3134  143.4498 H   0  0  0  0  0  0  0  0  0  0  0  0  # atno 7974 bound_to 7965
  156.1158  140.1481  156.9274 H   0  0  0  0  0  0  0  0  0  0  0  0  # atno 8008 bound_to 7997
  154.4799  140.0882  156.7396 H   0  0  0  0  0  0  0  0  0  0  0  0  # atno 8009 bound_to 7997
  155.4516  140.3435  155.4304 H   0  0  0  0  0  0  0  0  0  0  0  0  # atno 8010 bound_to 7997
  139.7924  143.7947  152.2651 H   0  0  0  0  0  0  0  0  0  0  0  0  # atno 10167 bound_to 10162
  157.6667  130.9767  150.1474 H   0  0  0  0  0  0  0  0  0  0  0  0  # atno 10718 bound_to 10713
  153.7819  135.6904  153.4887 H   0  0  0  0  0  0  0  0  0  0  0  0  # atno 10763 bound_to 10752
  153.1806  135.4508  155.0021 H   0  0  0  0  0  0  0  0  0  0  0  0  # atno 10764 bound_to 10752
  154.8078  135.3364  154.7321 H   0  0  0  0  0  0  0  0  0  0  0  0  # atno 10765 bound_to 10752
  140.9587  134.0966  157.3990 H   0  0  0  0  0  0  0  0  0  0  0  0  # atno 11005 bound_to 11000
  146.3477  140.1772  142.8589 LP  0  0  0  0  0  0  0  0  0  0  0  0  # atno 17320 bound_to 7965
  145.0294  140.8858  143.5119 LP  0  0  0  0  0  0  0  0  0  0  0  0  # atno 17321 bound_to 7965
  139.8042  144.7362  150.9783 LP  0  0  0  0  0  0  0  0  0  0  0  0  # atno 17342 bound_to 10162
  140.7820  143.4314  151.0688 LP  0  0  0  0  0  0  0  0  0  0  0  0  # atno 17343 bound_to 10162
  156.2282  130.3679  149.8476 LP  0  0  0  0  0  0  0  0  0  0  0  0  # atno 17370 bound_to 10713
  156.6310  130.8666  151.3495 LP  0  0  0  0  0  0  0  0  0  0  0  0  # atno 17371 bound_to 10713
  139.8870  135.0086  156.6537 LP  0  0  0  0  0  0  0  0  0  0  0  0  # atno 17394 bound_to 11000
  140.7499  133.8906  155.8339 LP  0  0  0  0  0  0  0  0  0  0  0  0  # atno 17395 bound_to 11000

$$$$
