AV-unprocessed.smi:114|AV-procd|sdf|1112|dock7
  -GOLD-   2262018233D 1   1.00000     0.00000
 Structure written by MMmdl.
 32 34  0  0  0  0  0  0  0  0  1 V2000
  148.9374  138.9962  153.2056 N   0  0  0  0  0  0  0  0  0  0  0  0
  148.7258  139.9069  154.1661 C   0  0  0  0  0  0  0  0  0  0  0  0
  147.4818  140.4230  154.3038 N   0  0  0  0  0  0  0  0  0  0  0  0
  147.2276  141.3330  155.2529 C   0  0  0  0  0  0  0  0  0  0  0  0
  145.9566  141.7944  155.3184 F   0  0  0  0  0  0  0  0  0  0  0  0
  148.0882  141.8387  156.1438 N   0  0  0  0  0  0  0  0  0  0  0  0
  149.3430  141.3211  156.0046 C   0  0  0  0  0  0  0  0  0  0  0  0
  149.7422  140.3538  155.0453 C   0  0  0  0  0  0  0  0  0  0  0  0
  151.0896  140.0598  155.2037 N   0  0  0  0  0  0  0  0  0  0  0  0
  151.4601  140.8123  156.2059 C   0  0  0  0  0  0  0  0  0  0  0  0
  150.4707  141.6132  156.7400 N   0  0  0  0  0  0  0  0  0  0  0  0
  150.5348  142.5736  157.8880 C   0  0  1  0  0  0  0  0  0  0  0  0
  151.0105  141.8859  159.0059 O   0  0  0  0  0  0  0  0  0  0  0  0
  152.4161  142.0814  159.1183 C   0  0  2  0  0  0  0  0  0  0  0  0
  152.9248  141.7029  160.5200 C   0  0  0  0  0  0  0  0  0  0  0  0
  152.1670  142.3737  161.5043 O   0  0  0  0  0  0  0  0  0  0  0  0
  152.5547  143.5591  158.7343 C   0  0  2  0  0  0  0  0  0  0  0  0
  152.2339  144.3905  159.8381 O   0  0  0  0  0  0  0  0  0  0  0  0
  151.5540  143.6898  157.5862 C   0  0  2  0  0  0  0  0  0  0  0  0
  150.9717  144.9778  157.5110 O   0  0  0  0  0  0  0  0  0  0  0  0
  149.5072  142.9102  158.0309 H   0  0  0  0  0  0  0  0  0  0  0  0
  152.9269  141.4826  158.3616 H   0  0  0  0  0  0  0  0  0  0  0  0
  153.5677  143.8002  158.4111 H   0  0  0  0  0  0  0  0  0  0  0  0
  152.0599  143.4764  156.6429 H   0  0  0  0  0  0  0  0  0  0  0  0
  149.8577  138.5971  153.0861 H   0  0  0  0  0  0  0  0  0  0  0  0
  148.1782  138.7095  152.6048 H   0  0  0  0  0  0  0  0  0  0  0  0
  152.4734  140.7977  156.5810 H   0  0  0  0  0  0  0  0  0  0  0  0
  152.8029  140.6322  160.6870 H   0  0  0  0  0  0  0  0  0  0  0  0
  153.9842  141.9338  160.6368 H   0  0  0  0  0  0  0  0  0  0  0  0
  152.7395  142.9584  161.9769 H   0  0  0  0  0  0  0  0  0  0  0  0
  153.0397  144.6433  160.2625 H   0  0  0  0  0  0  0  0  0  0  0  0
  150.2550  144.9454  156.8955 H   0  0  0  0  0  0  0  0  0  0  0  0
  1  2  1  0  0  0  0
  1 25  1  0  0  0  0
  1 26  1  0  0  0  0
  2  8  1  0  0  0  0
  2  3  2  0  0  0  0
  3  4  1  0  0  0  0
  4  5  1  0  0  0  0
  4  6  2  0  0  0  0
  6  7  1  0  0  0  0
  7 11  1  0  0  0  0
  7  8  2  0  0  0  0
  8  9  1  0  0  0  0
  9 10  2  0  0  0  0
 10 11  1  0  0  0  0
 10 27  1  0  0  0  0
 11 12  1  0  0  0  0
 12 21  1  0  0  0  0
 12 19  1  0  0  0  0
 12 13  1  0  0  0  0
 13 14  1  0  0  0  0
 14 22  1  0  0  0  0
 14 15  1  0  0  0  0
 14 17  1  0  0  0  0
 15 16  1  0  0  0  0
 15 28  1  0  0  0  0
 15 29  1  0  0  0  0
 16 30  1  0  0  0  0
 17 23  1  0  0  0  0
 17 18  1  0  0  0  0
 17 19  1  0  0  0  0
 18 31  1  0  0  0  0
 19 24  1  0  0  0  0
 19 20  1  0  0  0  0
 20 32  1  0  0  0  0
M  END
> <s_m_source_file>
AV-unprocessed.smi

> <i_m_source_file_index>
114

> <i_lp_mmshare_version>
43012

> <i_f3d_flags>
0

> <s_epik_input>
RmMobjEpbmMoW05IMl0pYyhjMTIpbltjSF1uMltDQEBIXTNPW0NASF0oW0NIMl1bT0hdKVtDQEBIXShbT0hdKVtDQEBIXTNbT0hd

> <s_epik_cmdline>
J2VwaWtfcHl0aG9uJywgJy1waCcsICc3LjAnLCAnLXRuJywgJzgnLCAnLW1hJywgJzIwMCcsICctbWV0YWxfYmluZGluZycsICctaW1hZScsICc8aW5maWxlLm1hZT4nLCAnLW9tYWUnLCAnPG91dGZpbGUubWFlPic=

> <r_lp_tautomer_probability>
1

> <r_epik_Ionization_Penalty>
1.13199e-05

> <r_epik_Ionization_Penalty_Charging>
0

> <r_epik_Ionization_Penalty_Neutral>
1.13199e-05

> <r_epik_State_Penalty>
-0

> <r_epik_Charging_Adjusted_Penalty>
0

> <i_epik_Tot_Q>
0

> <i_epik_Tot_abs_Q>
0

> <r_epik_Metal_State_Penalty>
-0

> <b_epik_Metal_Only>
0

> <s_epik_Chemistry_Notes>
This compound contains an acetal/aminal-like group ( X-CH(R)-Y where X, Y are N, S, or O) that may be acid/base labile, releasing an aldehyde.

> <s_lp_Force_Field>
OPLS_2005

> <r_lp_Energy>
39.4962

> <b_lp_Chiralities_Consistent>
1

> <s_lp_Variant>
AV-unprocessed.smi:114-6

> <Gold.Version>
5.8.1

> <Gold.Id.Protein>
6NUR|6NUR_protein|mol2

> <Gold.PLP.Fitness>
41.1617

> <Gold.PLP.PLP>
-35.0403

> <Gold.PLP.part.hbond>
-4.9586

> <Gold.PLP.part.metal>
0.0000

> <Gold.PLP.part.buried>
-4.4873

> <Gold.PLP.part.nonpolar>
-27.1006

> <Gold.PLP.part.repulsive>
0.6000

> <Gold.PLP.ligand.clash>
0.0000

> <Gold.PLP.ligand.torsion>
0.0350

> <Gold.PLP.Chemscore.Hbond>
2.0559

> <Gold.PLP.Chemscore.CHOScore>
0.0000

> <Gold.PLP.Chemscore.Metal>
0.0000

> <Gold.Chemscore.Hbonds>
donor molecule, donor type, donor heavy atom, donor atom, acceptor molecule, acceptor atom, score
      L1  H    20    32       P1  8028  1.00
      P1  H  6933  6945       L1    16  0.19
      P1  H  7989  7998       L1     9  0.75

> <Gold.PLP.Chemscore.Internal.Correction>
0.0236

> <Gold.Rescore>
     Score         DG    S(hbond)    S(metal)    S(lipo)     H(rot)  DE(clash)    DE(int)     intcor
      9.24      -9.43       2.52        0.00      49.88       4.03       0.01       0.18       ----

> <Gold.Chemscore.Fitness>
9.2401

> <Gold.Chemscore.DG>
-9.4266

> <Gold.Chemscore.ZeroCoef>
-5.4800

> <Gold.Chemscore.Hbond>
2.5213

> <Gold.Chemscore.Metal>
0.0000

> <Gold.Chemscore.Lipo>
49.8828

> <Gold.Chemscore.Internal_Hbond>
0.0000

> <Gold.Chemscore.DEClash>
0.0089

> <Gold.Chemscore.DEInternal>
0.1777

> <Gold.Chemscore.Rot>
4.0277

> <Gold.Chemscore.Internal.Correction>
   9.000000E+99

> <Gold.Chemscore.Hbonds>
donor molecule, donor type, donor heavy atom, donor atom, acceptor molecule, acceptor atom, score
      L1  H    20    32       P1  8028  0.35
      P1  H  6933  6945       L1    16  0.19
      P1  H  7989  7998       L1     9  0.07

> <Gold.Chemscore.Hbond.Weighted>
-8.4213

> <Gold.Chemscore.Metal.Weighted>
-0.0000

> <Gold.Chemscore.Lipo.Weighted>
-5.8363

> <Gold.Chemscore.Internal_Hbond.Weighted>
0.0000

> <Gold.Chemscore.DEClash.Weighted>
0.0089

> <Gold.Chemscore.DEInternal.Weighted>
0.1777

> <Gold.Chemscore.Rot.Weighted>
10.3110

> <Gold.Chemscore.Internal.Correction.Weighted>
   9.000000E+99

> <Gold.Protein.RotatedTorsions>
[ 6907 6896 6895 6894 ] final  -46.74 input  -60.11 | X-H torsion
[ 7974 7965 7964 7962 ] final   90.84 input  175.53 | X-H torsion
[ 8008 7997 7996 7995 ] final -140.43 input   59.86 | X-H torsion
[ 10167 10162 10161 10158 ] final  119.15 input  -65.29 | X-H torsion
[ 10718 10713 10712 10709 ] final  162.32 input   66.30 | X-H torsion
[ 10763 10752 10751 10750 ] final   60.62 input  -60.55 | X-H torsion
[ 11005 11000 10999 10996 ] final  149.97 input  -57.11 | X-H torsion

> <Gold.Protein.ActiveResidues>
 VAL166  LYS551  ARG553  GLY616  TRP617  ASP618  TYR619  PRO620  LYS621  CYS622 
 ASP623  PHE694  ASN695  SER759  ASP760  ASP761  ALA762  ILE779  LEU786  VAL792 
 PHE793  MET794  SER795  GLU796  ALA797  LYS798  CYS799  TRP800  GLU811  SER814 

> <Gold.Protein.RotatedAtoms>
  150.9081  134.8497  159.7406 H   0  0  0  0  0  0  0  0  0  0  0  0  # atno 6907 bound_to 6896
  152.4929  134.4401  159.9550 H   0  0  0  0  0  0  0  0  0  0  0  0  # atno 6908 bound_to 6896
  151.4446  133.3595  159.2822 H   0  0  0  0  0  0  0  0  0  0  0  0  # atno 6909 bound_to 6896
  145.5136  139.2277  143.2711 H   0  0  0  0  0  0  0  0  0  0  0  0  # atno 7974 bound_to 7965
  155.4612  140.0546  157.2990 H   0  0  0  0  0  0  0  0  0  0  0  0  # atno 8008 bound_to 7997
  154.4736  140.2051  155.9887 H   0  0  0  0  0  0  0  0  0  0  0  0  # atno 8009 bound_to 7997
  156.1096  140.3206  155.8059 H   0  0  0  0  0  0  0  0  0  0  0  0  # atno 8010 bound_to 7997
  139.6065  144.7071  151.2942 H   0  0  0  0  0  0  0  0  0  0  0  0  # atno 10167 bound_to 10162
  157.1242  131.0500  151.2401 H   0  0  0  0  0  0  0  0  0  0  0  0  # atno 10718 bound_to 10713
  152.9926  135.5530  154.5903 H   0  0  0  0  0  0  0  0  0  0  0  0  # atno 10763 bound_to 10752
  154.5266  135.2811  155.1219 H   0  0  0  0  0  0  0  0  0  0  0  0  # atno 10764 bound_to 10752
  154.2551  135.6391  153.5307 H   0  0  0  0  0  0  0  0  0  0  0  0  # atno 10765 bound_to 10752
  140.1091  134.8935  157.1909 H   0  0  0  0  0  0  0  0  0  0  0  0  # atno 11005 bound_to 11000
  146.2151  140.5944  142.9042 LP  0  0  0  0  0  0  0  0  0  0  0  0  # atno 17320 bound_to 7965
  144.7714  140.5645  143.6668 LP  0  0  0  0  0  0  0  0  0  0  0  0  # atno 17321 bound_to 7965
  140.7288  143.6924  150.7911 LP  0  0  0  0  0  0  0  0  0  0  0  0  # atno 17342 bound_to 10162
  140.0511  143.5249  152.2673 LP  0  0  0  0  0  0  0  0  0  0  0  0  # atno 17343 bound_to 10162
  157.4450  130.7565  149.7101 LP  0  0  0  0  0  0  0  0  0  0  0  0  # atno 17370 bound_to 10713
  155.9822  130.4012  150.3431 LP  0  0  0  0  0  0  0  0  0  0  0  0  # atno 17371 bound_to 10713
  140.3116  134.3018  155.7265 LP  0  0  0  0  0  0  0  0  0  0  0  0  # atno 17394 bound_to 11000
  141.2125  133.7654  156.9784 LP  0  0  0  0  0  0  0  0  0  0  0  0  # atno 17395 bound_to 11000

$$$$
