AV-unprocessed.smi:3348|AV-procd|sdf|12925|dock6
  -GOLD-   2272019353D 1   1.00000     0.00000
 Structure written by MMmdl.
 46 47  0  0  0  0  0  0  0  0  1 V2000
  148.0374  141.7056  153.9642 C   0  0  0  0  0  0  0  0  0  0  0  0
  149.0712  141.3056  155.0259 C   0  0  2  0  0  0  0  0  0  0  0  0
  149.0906  139.7658  155.1871 C   0  0  0  0  0  0  0  0  0  0  0  0
  150.4128  139.1723  155.1102 N   0  0  0  0  0  0  0  0  0  0  0  0
  150.7483  137.8353  155.0548 C   0  0  0  0  0  0  0  0  0  0  0  0
  152.1098  137.7610  154.9895 C   0  0  0  0  0  0  0  0  0  0  0  0
  152.5231  139.1226  155.0021 C   0  0  0  0  0  0  0  0  0  0  0  0
  151.5051  139.9655  155.0704 N   0  0  0  0  0  0  0  0  0  0  0  0
  148.7453  141.9835  156.2845 N   0  0  0  0  0  0  0  0  0  0  0  0
  149.6043  141.6458  157.4199 C   0  0  0  0  0  0  0  0  0  0  0  0
  150.9348  142.3975  157.3405 C   0  0  0  0  0  0  0  0  0  0  0  0
  151.5649  142.2829  158.6074 O   0  0  0  0  0  0  0  0  0  0  0  0
  152.7527  143.0495  158.7673 C   0  0  1  0  0  0  0  0  0  0  0  0
  152.5872  144.4543  158.1479 C   0  0  0  0  0  0  0  0  0  0  0  0
  151.5040  145.2688  158.8735 C   0  0  0  0  0  0  0  0  0  0  0  0
  151.7999  145.3684  160.3774 C   0  0  0  0  0  0  0  0  0  0  0  0
  151.9706  143.9765  161.0068 C   0  0  0  0  0  0  0  0  0  0  0  0
  153.0542  143.1542  160.2797 C   0  0  1  0  0  0  0  0  0  0  0  0
  153.2527  141.7744  160.9268 C   0  0  0  0  0  0  0  0  0  0  0  0
  148.2667  141.2482  153.0011 H   0  0  0  0  0  0  0  0  0  0  0  0
  148.0222  142.7860  153.8164 H   0  0  0  0  0  0  0  0  0  0  0  0
  147.0318  141.3938  154.2492 H   0  0  0  0  0  0  0  0  0  0  0  0
  150.0448  141.6441  154.6681 H   0  0  0  0  0  0  0  0  0  0  0  0
  148.6377  139.4803  156.1378 H   0  0  0  0  0  0  0  0  0  0  0  0
  148.4804  139.3042  154.4096 H   0  0  0  0  0  0  0  0  0  0  0  0
  149.9991  137.0579  155.0752 H   0  0  0  0  0  0  0  0  0  0  0  0
  152.7174  136.8696  154.9406 H   0  0  0  0  0  0  0  0  0  0  0  0
  153.5260  139.5214  154.9641 H   0  0  0  0  0  0  0  0  0  0  0  0
  148.7568  142.9888  156.1448 H   0  0  0  0  0  0  0  0  0  0  0  0
  149.1295  141.8627  158.3735 H   0  0  0  0  0  0  0  0  0  0  0  0
  149.7958  140.5724  157.4138 H   0  0  0  0  0  0  0  0  0  0  0  0
  151.5658  141.9358  156.5800 H   0  0  0  0  0  0  0  0  0  0  0  0
  150.7772  143.4367  157.0516 H   0  0  0  0  0  0  0  0  0  0  0  0
  153.5854  142.5352  158.2841 H   0  0  0  0  0  0  0  0  0  0  0  0
  153.5369  144.9867  158.2132 H   0  0  0  0  0  0  0  0  0  0  0  0
  152.3568  144.3901  157.0851 H   0  0  0  0  0  0  0  0  0  0  0  0
  151.4376  146.2673  158.4412 H   0  0  0  0  0  0  0  0  0  0  0  0
  150.5302  144.8013  158.7213 H   0  0  0  0  0  0  0  0  0  0  0  0
  152.7079  145.9525  160.5324 H   0  0  0  0  0  0  0  0  0  0  0  0
  150.9961  145.9079  160.8794 H   0  0  0  0  0  0  0  0  0  0  0  0
  152.2285  144.0840  162.0609 H   0  0  0  0  0  0  0  0  0  0  0  0
  151.0191  143.4444  160.9774 H   0  0  0  0  0  0  0  0  0  0  0  0
  153.9978  143.6917  160.3867 H   0  0  0  0  0  0  0  0  0  0  0  0
  152.3411  141.1776  160.8840 H   0  0  0  0  0  0  0  0  0  0  0  0
  153.5352  141.8705  161.9753 H   0  0  0  0  0  0  0  0  0  0  0  0
  154.0407  141.2144  160.4230 H   0  0  0  0  0  0  0  0  0  0  0  0
  1  2  1  0  0  0  0
  1 20  1  0  0  0  0
  1 21  1  0  0  0  0
  1 22  1  0  0  0  0
  2  3  1  0  0  0  0
  2  9  1  0  0  0  0
  2 23  1  0  0  0  0
  3  4  1  0  0  0  0
  3 24  1  0  0  0  0
  3 25  1  0  0  0  0
  4  8  1  0  0  0  0
  4  5  1  0  0  0  0
  5  6  2  0  0  0  0
  5 26  1  0  0  0  0
  6  7  1  0  0  0  0
  6 27  1  0  0  0  0
  7  8  2  0  0  0  0
  7 28  1  0  0  0  0
  9 10  1  0  0  0  0
  9 29  1  0  0  0  0
 10 11  1  0  0  0  0
 10 30  1  0  0  0  0
 10 31  1  0  0  0  0
 11 12  1  0  0  0  0
 11 32  1  0  0  0  0
 11 33  1  0  0  0  0
 12 13  1  0  0  0  0
 13 18  1  0  0  0  0
 13 14  1  0  0  0  0
 13 34  1  0  0  0  0
 14 15  1  0  0  0  0
 14 35  1  0  0  0  0
 14 36  1  0  0  0  0
 15 16  1  0  0  0  0
 15 37  1  0  0  0  0
 15 38  1  0  0  0  0
 16 17  1  0  0  0  0
 16 39  1  0  0  0  0
 16 40  1  0  0  0  0
 17 18  1  0  0  0  0
 17 41  1  0  0  0  0
 17 42  1  0  0  0  0
 18 19  1  0  0  0  0
 18 43  1  0  0  0  0
 19 44  1  0  0  0  0
 19 45  1  0  0  0  0
 19 46  1  0  0  0  0
M  END
> <s_m_source_file>
AV-unprocessed.smi

> <i_m_source_file_index>
3348

> <i_lp_mmshare_version>
43012

> <i_f3d_flags>
0

> <s_epik_input>
bjFbY0hdW2NIXVtjSF1uMVtDSDJdW0NAQEhdKFtDSDNdKVtOSF1bQ0gyXVtDSDJdT1tDQEBIXTJbQ0gyXVtDSDJdW0NIMl1bQ0gyXVtDQEhdMltDSDNd

> <s_epik_cmdline>
J2VwaWtfcHl0aG9uJywgJy1waCcsICc3LjAnLCAnLXRuJywgJzgnLCAnLW1hJywgJzIwMCcsICctbWV0YWxfYmluZGluZycsICctaW1hZScsICc8aW5maWxlLm1hZT4nLCAnLW9tYWUnLCAnPG91dGZpbGUubWFlPic=

> <r_lp_tautomer_probability>
1

> <r_epik_Ionization_Penalty>
2.46945

> <r_epik_Ionization_Penalty_Charging>
0

> <r_epik_Ionization_Penalty_Neutral>
2.46945

> <r_epik_State_Penalty>
2.6322

> <r_epik_Charging_Adjusted_Penalty>
2.6322

> <i_epik_Tot_Q>
0

> <i_epik_Tot_abs_Q>
0

> <r_epik_Metal_State_Penalty>
2.63217

> <b_epik_Metal_Only>
0

> <s_lp_Force_Field>
OPLS_2005

> <r_lp_Energy>
18.1509

> <b_lp_Chiralities_Consistent>
1

> <s_lp_Variant>
AV-unprocessed.smi:3348-11

> <Gold.Version>
5.8.1

> <Gold.Id.Protein>
6NUR|6NUR_protein|mol2

> <Gold.PLP.Fitness>
55.7700

> <Gold.PLP.PLP>
-51.7290

> <Gold.PLP.part.hbond>
-2.0000

> <Gold.PLP.part.metal>
0.0000

> <Gold.PLP.part.buried>
-5.1058

> <Gold.PLP.part.nonpolar>
-45.5829

> <Gold.PLP.part.repulsive>
0.0594

> <Gold.PLP.ligand.clash>
0.0000

> <Gold.PLP.ligand.torsion>
1.0649

> <Gold.PLP.Chemscore.Hbond>
2.0000

> <Gold.PLP.Chemscore.CHOScore>
0.0000

> <Gold.PLP.Chemscore.Metal>
0.0000

> <Gold.Chemscore.Hbonds>
donor molecule, donor type, donor heavy atom, donor atom, acceptor molecule, acceptor atom, score
      L1  H     9    29       P1  8028  1.00
      P1  H  7989  7998       L1     8  1.00

> <Gold.PLP.Chemscore.Internal.Correction>
0.1708

> <Gold.Rescore>
     Score         DG    S(hbond)    S(metal)    S(lipo)     H(rot)  DE(clash)    DE(int)     intcor
     22.55     -23.64       1.92        0.00     138.22       1.72       0.03       1.06       ----

> <Gold.Chemscore.Fitness>
22.5523

> <Gold.Chemscore.DG>
-23.6403

> <Gold.Chemscore.ZeroCoef>
-5.4800

> <Gold.Chemscore.Hbond>
1.9163

> <Gold.Chemscore.Metal>
0.0000

> <Gold.Chemscore.Lipo>
138.2248

> <Gold.Chemscore.Internal_Hbond>
0.0000

> <Gold.Chemscore.DEClash>
0.0323

> <Gold.Chemscore.DEInternal>
1.0556

> <Gold.Chemscore.Rot>
1.7237

> <Gold.Chemscore.Internal.Correction>
   9.000000E+99

> <Gold.Chemscore.Hbonds>
donor molecule, donor type, donor heavy atom, donor atom, acceptor molecule, acceptor atom, score
      L1  H     9    29       P1  8028  1.00
      P1  H  7989  7998       L1     8  0.29

> <Gold.Chemscore.Hbond.Weighted>
-6.4005

> <Gold.Chemscore.Metal.Weighted>
-0.0000

> <Gold.Chemscore.Lipo.Weighted>
-16.1723

> <Gold.Chemscore.Internal_Hbond.Weighted>
0.0000

> <Gold.Chemscore.DEClash.Weighted>
0.0323

> <Gold.Chemscore.DEInternal.Weighted>
1.0556

> <Gold.Chemscore.Rot.Weighted>
4.4126

> <Gold.Chemscore.Internal.Correction.Weighted>
   9.000000E+99

> <Gold.Protein.RotatedTorsions>
[ 6907 6896 6895 6894 ] final -112.67 input  -60.11 | X-H torsion
[ 7974 7965 7964 7962 ] final  -79.97 input  175.53 | X-H torsion
[ 8008 7997 7996 7995 ] final  135.12 input   59.86 | X-H torsion
[ 10167 10162 10161 10158 ] final  168.55 input  -65.29 | X-H torsion
[ 10718 10713 10712 10709 ] final -164.08 input   66.30 | X-H torsion
[ 10763 10752 10751 10750 ] final -139.93 input  -60.55 | X-H torsion
[ 11005 11000 10999 10996 ] final  -11.35 input  -57.11 | X-H torsion

> <Gold.Protein.ActiveResidues>
 VAL166  LYS551  ARG553  GLY616  TRP617  ASP618  TYR619  PRO620  LYS621  CYS622 
 ASP623  PHE694  ASN695  SER759  ASP760  ASP761  ALA762  ILE779  LEU786  VAL792 
 PHE793  MET794  SER795  GLU796  ALA797  LYS798  CYS799  TRP800  GLU811  SER814 

> <Gold.Protein.RotatedAtoms>
  150.7774  133.9056  159.3354 H   0  0  0  0  0  0  0  0  0  0  0  0  # atno 6907 bound_to 6896
  151.6927  135.0942  160.0246 H   0  0  0  0  0  0  0  0  0  0  0  0  # atno 6908 bound_to 6896
  152.3815  133.6514  159.6200 H   0  0  0  0  0  0  0  0  0  0  0  0  # atno 6909 bound_to 6896
  145.5662  140.9474  143.1420 H   0  0  0  0  0  0  0  0  0  0  0  0  # atno 7974 bound_to 7965
  156.3002  140.2479  156.3529 H   0  0  0  0  0  0  0  0  0  0  0  0  # atno 8008 bound_to 7997
  154.8949  140.0408  157.1879 H   0  0  0  0  0  0  0  0  0  0  0  0  # atno 8009 bound_to 7997
  154.8560  140.2913  155.5572 H   0  0  0  0  0  0  0  0  0  0  0  0  # atno 8010 bound_to 7997
  139.4970  144.3803  151.9630 H   0  0  0  0  0  0  0  0  0  0  0  0  # atno 10167 bound_to 10162
  156.6339  130.8941  151.2983 H   0  0  0  0  0  0  0  0  0  0  0  0  # atno 10718 bound_to 10713
  154.8594  135.3568  154.5626 H   0  0  0  0  0  0  0  0  0  0  0  0  # atno 10763 bound_to 10752
  153.6241  135.7005  153.5304 H   0  0  0  0  0  0  0  0  0  0  0  0  # atno 10764 bound_to 10752
  153.3104  135.4180  155.1291 H   0  0  0  0  0  0  0  0  0  0  0  0  # atno 10765 bound_to 10752
  140.7543  133.8566  155.9071 H   0  0  0  0  0  0  0  0  0  0  0  0  # atno 11005 bound_to 11000
  144.7459  139.7321  143.7292 LP  0  0  0  0  0  0  0  0  0  0  0  0  # atno 17320 bound_to 7965
  146.1817  139.5012  142.9862 LP  0  0  0  0  0  0  0  0  0  0  0  0  # atno 17321 bound_to 7965
  140.3239  144.3395  150.6003 LP  0  0  0  0  0  0  0  0  0  0  0  0  # atno 17342 bound_to 10162
  140.5700  143.2182  151.7616 LP  0  0  0  0  0  0  0  0  0  0  0  0  # atno 17343 bound_to 10162
  157.7192  130.9536  150.1370 LP  0  0  0  0  0  0  0  0  0  0  0  0  # atno 17370 bound_to 10713
  156.2213  130.3674  149.8553 LP  0  0  0  0  0  0  0  0  0  0  0  0  # atno 17371 bound_to 10713
  140.9722  134.1516  157.4567 LP  0  0  0  0  0  0  0  0  0  0  0  0  # atno 17394 bound_to 11000
  139.8782  134.9982  156.5888 LP  0  0  0  0  0  0  0  0  0  0  0  0  # atno 17395 bound_to 11000

$$$$
