AV-unprocessed.smi:2755|AV-procd|sdf|10617|dock7
  -GOLD-   2272015 63D 1   1.00000     0.00000
 Structure written by MMmdl.
 32 32  0  0  0  0  0  0  0  0  1 V2000
  148.0211  133.1395  152.8398 C   0  0  0  0  0  0  0  0  0  0  0  0
  148.8478  132.4441  153.9270 C   0  0  0  0  0  0  0  0  0  0  0  0
  149.1600  133.3676  155.1132 C   0  0  0  0  0  0  0  0  0  0  0  0
  149.8412  134.6732  154.6792 C   0  0  0  0  0  0  0  0  0  0  0  0
  149.5173  135.8458  155.6143 C   0  0  0  0  0  0  0  0  0  0  0  0
  150.3022  137.0158  155.2491 N   0  0  0  0  0  0  0  0  0  0  0  0
  151.5740  137.2345  155.6209 C   0  0  0  0  0  0  0  0  0  0  0  0
  152.2096  136.4386  156.3112 O   0  0  0  0  0  0  0  0  0  0  0  0
  152.2553  138.5352  155.1618 C   0  0  0  0  0  0  0  0  0  0  0  0
  151.6934  139.7627  155.7340 N   0  0  0  0  0  0  0  0  0  0  0  0
  150.7283  140.4145  155.0040 N   0  0  0  0  0  0  0  0  0  0  0  0
  150.3683  141.4483  155.6794 C   0  0  0  0  0  0  0  0  0  0  0  0
  149.4186  142.3766  155.3054 N   0  0  0  0  0  0  0  0  0  0  0  0
  151.1311  141.7662  157.2530 S   0  0  0  0  0  0  0  0  0  0  0  0
  152.0806  140.2934  156.9695 C   0  0  0  0  0  0  0  0  0  0  0  0
  152.9132  139.8596  157.7637 O   0  0  0  0  0  0  0  0  0  0  0  0
  147.8174  132.4594  152.0125 H   0  0  0  0  0  0  0  0  0  0  0  0
  148.5485  134.0048  152.4371 H   0  0  0  0  0  0  0  0  0  0  0  0
  147.0634  133.4824  153.2321 H   0  0  0  0  0  0  0  0  0  0  0  0
  148.3086  131.5643  154.2798 H   0  0  0  0  0  0  0  0  0  0  0  0
  149.7791  132.0807  153.4908 H   0  0  0  0  0  0  0  0  0  0  0  0
  148.2359  133.6000  155.6440 H   0  0  0  0  0  0  0  0  0  0  0  0
  149.8007  132.8433  155.8234 H   0  0  0  0  0  0  0  0  0  0  0  0
  150.9212  134.5236  154.6442 H   0  0  0  0  0  0  0  0  0  0  0  0
  149.5305  134.9235  153.6638 H   0  0  0  0  0  0  0  0  0  0  0  0
  148.4540  136.0852  155.5581 H   0  0  0  0  0  0  0  0  0  0  0  0
  149.7356  135.5764  156.6488 H   0  0  0  0  0  0  0  0  0  0  0  0
  149.8476  137.7140  154.6785 H   0  0  0  0  0  0  0  0  0  0  0  0
  153.3159  138.4753  155.4112 H   0  0  0  0  0  0  0  0  0  0  0  0
  152.2064  138.5819  154.0726 H   0  0  0  0  0  0  0  0  0  0  0  0
  148.9032  142.3261  154.4384 H   0  0  0  0  0  0  0  0  0  0  0  0
  149.1724  143.1801  155.8654 H   0  0  0  0  0  0  0  0  0  0  0  0
  1  2  1  0  0  0  0
  1 17  1  0  0  0  0
  1 18  1  0  0  0  0
  1 19  1  0  0  0  0
  2  3  1  0  0  0  0
  2 20  1  0  0  0  0
  2 21  1  0  0  0  0
  3  4  1  0  0  0  0
  3 22  1  0  0  0  0
  3 23  1  0  0  0  0
  4  5  1  0  0  0  0
  4 24  1  0  0  0  0
  4 25  1  0  0  0  0
  5  6  1  0  0  0  0
  5 26  1  0  0  0  0
  5 27  1  0  0  0  0
  6  7  1  0  0  0  0
  6 28  1  0  0  0  0
  7  8  2  0  0  0  0
  7  9  1  0  0  0  0
  9 10  1  0  0  0  0
  9 29  1  0  0  0  0
  9 30  1  0  0  0  0
 10 15  1  0  0  0  0
 10 11  1  0  0  0  0
 11 12  2  0  0  0  0
 12 13  1  0  0  0  0
 12 14  1  0  0  0  0
 13 31  1  0  0  0  0
 13 32  1  0  0  0  0
 14 15  1  0  0  0  0
 15 16  2  0  0  0  0
M  END
> <s_m_source_file>
AV-unprocessed.smi

> <i_m_source_file_index>
2755

> <i_lp_mmshare_version>
43012

> <i_f3d_flags>
0

> <s_epik_input>
W0NIM11bQ0gyXVtDSDJdW0NIMl1bQ0gyXVtOSF1DKD1PKVtDSDJdbjFuYyhbTkgyXSlzYzE9Tw==

> <s_epik_cmdline>
J2VwaWtfcHl0aG9uJywgJy1waCcsICc3LjAnLCAnLXRuJywgJzgnLCAnLW1hJywgJzIwMCcsICctbWV0YWxfYmluZGluZycsICctaW1hZScsICc8aW5maWxlLm1hZT4nLCAnLW9tYWUnLCAnPG91dGZpbGUubWFlPic=

> <r_lp_tautomer_probability>
1

> <r_epik_Ionization_Penalty>
4.62415e-07

> <r_epik_Ionization_Penalty_Charging>
1.84682e-08

> <r_epik_Ionization_Penalty_Neutral>
4.43947e-07

> <r_epik_State_Penalty>
-0

> <r_epik_Charging_Adjusted_Penalty>
1.84682e-08

> <i_epik_Tot_Q>
0

> <i_epik_Tot_abs_Q>
0

> <r_epik_Metal_State_Penalty>
-0

> <b_epik_Metal_Only>
0

> <s_lp_Force_Field>
OPLS_2005

> <r_lp_Energy>
7.41943

> <b_lp_Chiralities_Consistent>
1

> <s_lp_Variant>
AV-unprocessed.smi:2755-1

> <Gold.Version>
5.8.1

> <Gold.Id.Protein>
6NUR|6NUR_protein|mol2

> <Gold.PLP.Fitness>
41.3389

> <Gold.PLP.PLP>
-30.8807

> <Gold.PLP.part.hbond>
-4.0000

> <Gold.PLP.part.metal>
0.0000

> <Gold.PLP.part.buried>
-3.6996

> <Gold.PLP.part.nonpolar>
-23.8209

> <Gold.PLP.part.repulsive>
0.3538

> <Gold.PLP.ligand.clash>
0.0000

> <Gold.PLP.ligand.torsion>
0.7588

> <Gold.PLP.Chemscore.Hbond>
3.9840

> <Gold.PLP.Chemscore.CHOScore>
0.0000

> <Gold.PLP.Chemscore.Metal>
0.0000

> <Gold.Chemscore.Hbonds>
donor molecule, donor type, donor heavy atom, donor atom, acceptor molecule, acceptor atom, score
      L1  H    13    32       P1  8028  0.77
      P1  H  7989  7998       L1    11  1.00
      P1  H  7997  8010       L1    16  1.00
      P1  H 10752 10764       L1     8  1.00

> <Gold.PLP.Chemscore.Internal.Correction>
0.0238

> <Gold.Rescore>
     Score         DG    S(hbond)    S(metal)    S(lipo)     H(rot)  DE(clash)    DE(int)     intcor
     11.55     -12.38       2.74        0.00      42.30       2.81       0.07       0.76       ----

> <Gold.Chemscore.Fitness>
11.5485

> <Gold.Chemscore.DG>
-12.3794

> <Gold.Chemscore.ZeroCoef>
-5.4800

> <Gold.Chemscore.Hbond>
2.7354

> <Gold.Chemscore.Metal>
0.0000

> <Gold.Chemscore.Lipo>
42.2972

> <Gold.Chemscore.Internal_Hbond>
0.0000

> <Gold.Chemscore.DEClash>
0.0689

> <Gold.Chemscore.DEInternal>
0.7620

> <Gold.Chemscore.Rot>
2.8069

> <Gold.Chemscore.Internal.Correction>
   9.000000E+99

> <Gold.Chemscore.Hbonds>
donor molecule, donor type, donor heavy atom, donor atom, acceptor molecule, acceptor atom, score
      L1  H    13    32       P1  8028  0.74
      P1  H  7989  7998       L1    11  0.27
      P1  H  7997  8010       L1    16  0.64
      P1  H 10752 10764       L1     8  0.55

> <Gold.Chemscore.Hbond.Weighted>
-9.1362

> <Gold.Chemscore.Metal.Weighted>
-0.0000

> <Gold.Chemscore.Lipo.Weighted>
-4.9488

> <Gold.Chemscore.Internal_Hbond.Weighted>
0.0000

> <Gold.Chemscore.DEClash.Weighted>
0.0689

> <Gold.Chemscore.DEInternal.Weighted>
0.7620

> <Gold.Chemscore.Rot.Weighted>
7.1856

> <Gold.Chemscore.Internal.Correction.Weighted>
   9.000000E+99

> <Gold.Protein.RotatedTorsions>
[ 6907 6896 6895 6894 ] final  -13.15 input  -60.11 | X-H torsion
[ 7974 7965 7964 7962 ] final  158.59 input  175.53 | X-H torsion
[ 8008 7997 7996 7995 ] final   36.20 input   59.86 | X-H torsion
[ 10167 10162 10161 10158 ] final  147.20 input  -65.29 | X-H torsion
[ 10718 10713 10712 10709 ] final   75.24 input   66.30 | X-H torsion
[ 10763 10752 10751 10750 ] final  -21.49 input  -60.55 | X-H torsion
[ 11005 11000 10999 10996 ] final  -66.95 input  -57.11 | X-H torsion

> <Gold.Protein.ActiveResidues>
 VAL166  LYS551  ARG553  GLY616  TRP617  ASP618  TYR619  PRO620  LYS621  CYS622 
 ASP623  PHE694  ASN695  SER759  ASP760  ASP761  ALA762  ILE779  LEU786  VAL792 
 PHE793  MET794  SER795  GLU796  ALA797  LYS798  CYS799  TRP800  GLU811  SER814 

> <Gold.Protein.RotatedAtoms>
  151.3594  135.0901  159.9429 H   0  0  0  0  0  0  0  0  0  0  0  0  # atno 6907 bound_to 6896
  152.5166  133.9273  159.7574 H   0  0  0  0  0  0  0  0  0  0  0  0  # atno 6908 bound_to 6896
  150.9665  133.6335  159.2774 H   0  0  0  0  0  0  0  0  0  0  0  0  # atno 6909 bound_to 6896
  144.7837  139.7500  143.6249 H   0  0  0  0  0  0  0  0  0  0  0  0  # atno 7974 bound_to 7965
  155.1835  140.3302  155.4371 H   0  0  0  0  0  0  0  0  0  0  0  0  # atno 8008 bound_to 7997
  156.2468  140.1922  156.6882 H   0  0  0  0  0  0  0  0  0  0  0  0  # atno 8009 bound_to 7997
  154.6255  140.0589  156.9654 H   0  0  0  0  0  0  0  0  0  0  0  0  # atno 8010 bound_to 7997
  139.4894  144.5773  151.6940 H   0  0  0  0  0  0  0  0  0  0  0  0  # atno 10167 bound_to 10162
  157.6626  130.9716  150.1325 H   0  0  0  0  0  0  0  0  0  0  0  0  # atno 10718 bound_to 10713
  153.6370  135.6986  153.5255 H   0  0  0  0  0  0  0  0  0  0  0  0  # atno 10763 bound_to 10752
  153.2813  135.4185  155.1080 H   0  0  0  0  0  0  0  0  0  0  0  0  # atno 10764 bound_to 10752
  154.8508  135.3602  154.5914 H   0  0  0  0  0  0  0  0  0  0  0  0  # atno 10765 bound_to 10752
  141.1495  133.6709  156.6218 H   0  0  0  0  0  0  0  0  0  0  0  0  # atno 11005 bound_to 11000
  146.2058  139.5382  142.9713 LP  0  0  0  0  0  0  0  0  0  0  0  0  # atno 17320 bound_to 7965
  145.5980  141.0359  143.2034 LP  0  0  0  0  0  0  0  0  0  0  0  0  # atno 17321 bound_to 7965
  140.5372  144.0637  150.6075 LP  0  0  0  0  0  0  0  0  0  0  0  0  # atno 17342 bound_to 10162
  140.3647  143.2888  152.0345 LP  0  0  0  0  0  0  0  0  0  0  0  0  # atno 17343 bound_to 10162
  156.2168  130.3671  149.8604 LP  0  0  0  0  0  0  0  0  0  0  0  0  # atno 17370 bound_to 10713
  156.6468  130.8727  151.3524 LP  0  0  0  0  0  0  0  0  0  0  0  0  # atno 17371 bound_to 10713
  140.3535  134.7749  157.4483 LP  0  0  0  0  0  0  0  0  0  0  0  0  # atno 17394 bound_to 11000
  140.0842  134.5689  155.8509 LP  0  0  0  0  0  0  0  0  0  0  0  0  # atno 17395 bound_to 11000

$$$$
