AV-unprocessed.smi:1338|AV-procd|sdf|5501|dock5
  -GOLD-   22720 5 83D 1   1.00000     0.00000
 Structure written by MMmdl.
 39 40  0  0  0  0  0  0  0  0  2 V2000
  147.9111  136.2741  161.0766 C   0  0  0  0  0  0  0  0  0  0  0  0
  148.5152  136.9278  159.8519 C   0  0  0  0  0  0  0  0  0  0  0  0
  147.8417  137.8096  159.2171 N   0  0  0  0  0  0  0  0  0  0  0  0
  148.4003  138.4228  158.0829 C   0  0  0  0  0  0  0  0  0  0  0  0
  147.5293  139.4605  157.3960 C   0  0  0  0  0  0  0  0  0  0  0  0
  149.6492  138.0924  157.6446 C   0  0  0  0  0  0  0  0  0  0  0  0
  150.3037  138.7343  156.4219 C   0  0  0  0  0  0  0  0  0  0  0  0
  151.3797  139.7775  156.7274 C   0  0  0  0  0  0  0  0  0  0  0  0
  152.4892  139.6918  156.2018 O   0  0  0  0  0  0  0  0  0  0  0  0
  151.0390  140.7582  157.5781 N   0  0  0  0  0  0  0  0  0  0  0  0
  151.9077  141.8539  157.9955 C   0  0  0  0  0  0  0  0  0  0  0  0
  152.3804  141.6500  159.4503 C   0  0  0  0  0  0  0  0  0  0  0  0
  153.2315  142.8341  159.9367 C   0  0  0  0  0  0  0  0  0  0  0  0
  152.4763  144.1635  159.7843 C   0  0  0  0  0  0  0  0  0  0  0  0
  152.0110  144.3730  158.3347 C   0  0  0  0  0  0  0  0  0  0  0  0
  151.1576  143.1912  157.8463 C   0  0  0  0  0  0  0  0  0  0  0  0
  150.3900  137.0669  158.4014 C   0  0  0  0  0  0  0  0  0  0  0  0
  151.5157  136.7222  158.0439 O   0  0  0  0  0  0  0  0  0  0  0  0
  149.7817  136.5244  159.4946 N   0  5  0  0  0  0  0  0  0  0  0  0
  146.8555  136.5297  161.1783 H   0  0  0  0  0  0  0  0  0  0  0  0
  148.4324  136.6060  161.9748 H   0  0  0  0  0  0  0  0  0  0  0  0
  147.9937  135.1888  161.0092 H   0  0  0  0  0  0  0  0  0  0  0  0
  148.0288  140.4289  157.3734 H   0  0  0  0  0  0  0  0  0  0  0  0
  146.5808  139.5881  157.9190 H   0  0  0  0  0  0  0  0  0  0  0  0
  147.3072  139.1575  156.3729 H   0  0  0  0  0  0  0  0  0  0  0  0
  150.7331  137.9442  155.8054 H   0  0  0  0  0  0  0  0  0  0  0  0
  149.5540  139.1983  155.7806 H   0  0  0  0  0  0  0  0  0  0  0  0
  150.1037  140.7486  157.9581 H   0  0  0  0  0  0  0  0  0  0  0  0
  152.7811  141.8820  157.3409 H   0  0  0  0  0  0  0  0  0  0  0  0
  151.5164  141.5335  160.1062 H   0  0  0  0  0  0  0  0  0  0  0  0
  152.9576  140.7284  159.5341 H   0  0  0  0  0  0  0  0  0  0  0  0
  153.5148  142.6842  160.9788 H   0  0  0  0  0  0  0  0  0  0  0  0
  154.1605  142.8736  159.3665 H   0  0  0  0  0  0  0  0  0  0  0  0
  151.6130  144.1726  160.4511 H   0  0  0  0  0  0  0  0  0  0  0  0
  153.1145  144.9915  160.0940 H   0  0  0  0  0  0  0  0  0  0  0  0
  151.4414  145.2995  158.2573 H   0  0  0  0  0  0  0  0  0  0  0  0
  152.8797  144.4891  157.6855 H   0  0  0  0  0  0  0  0  0  0  0  0
  150.8768  143.3475  156.8039 H   0  0  0  0  0  0  0  0  0  0  0  0
  150.2272  143.1598  158.4153 H   0  0  0  0  0  0  0  0  0  0  0  0
  1  2  1  0  0  0  0
  1 20  1  0  0  0  0
  1 21  1  0  0  0  0
  1 22  1  0  0  0  0
  2 19  1  0  0  0  0
  2  3  2  0  0  0  0
  3  4  1  0  0  0  0
  4  5  1  0  0  0  0
  4  6  2  0  0  0  0
  5 23  1  0  0  0  0
  5 24  1  0  0  0  0
  5 25  1  0  0  0  0
  6  7  1  0  0  0  0
  6 17  1  0  0  0  0
  7  8  1  0  0  0  0
  7 26  1  0  0  0  0
  7 27  1  0  0  0  0
  8  9  2  0  0  0  0
  8 10  1  0  0  0  0
 10 11  1  0  0  0  0
 10 28  1  0  0  0  0
 11 16  1  0  0  0  0
 11 12  1  0  0  0  0
 11 29  1  0  0  0  0
 12 13  1  0  0  0  0
 12 30  1  0  0  0  0
 12 31  1  0  0  0  0
 13 14  1  0  0  0  0
 13 32  1  0  0  0  0
 13 33  1  0  0  0  0
 14 15  1  0  0  0  0
 14 34  1  0  0  0  0
 14 35  1  0  0  0  0
 15 16  1  0  0  0  0
 15 36  1  0  0  0  0
 15 37  1  0  0  0  0
 16 38  1  0  0  0  0
 16 39  1  0  0  0  0
 17 18  2  0  0  0  0
 17 19  1  0  0  0  0
M  CHG  1  19  -1
M  END
> <s_m_source_file>
AV-unprocessed.smi

> <i_m_source_file_index>
1338

> <i_lp_mmshare_version>
43012

> <i_f3d_flags>
0

> <s_epik_input>
W0NIM11jMW5jKFtDSDNdKWMoYyg9TylbbkhdMSlbQ0gyXUMoPU8pW05IXVtDSF0yW0NIMl1bQ0gyXVtDSDJdW0NIMl1bQ0gyXTI=

> <s_epik_cmdline>
J2VwaWtfcHl0aG9uJywgJy1waCcsICc3LjAnLCAnLXRuJywgJzgnLCAnLW1hJywgJzIwMCcsICctbWV0YWxfYmluZGluZycsICctaW1hZScsICc8aW5maWxlLm1hZT4nLCAnLW9tYWUnLCAnPG91dGZpbGUubWFlPic=

> <r_lp_tautomer_probability>
0.839158

> <r_epik_Ionization_Penalty>
6.66811

> <r_epik_Ionization_Penalty_Charging>
7.5907e-08

> <r_epik_Ionization_Penalty_Neutral>
6.66811

> <r_epik_State_Penalty>
4.51402

> <r_epik_Charging_Adjusted_Penalty>
4.51402

> <i_epik_Tot_Q>
-1

> <i_epik_Tot_abs_Q>
1

> <r_epik_Metal_State_Penalty>
0.85041

> <b_epik_Metal_Only>
1

> <s_lp_Force_Field>
OPLS_2005

> <r_lp_Energy>
13.4348

> <b_lp_Chiralities_Consistent>
1

> <s_lp_Variant>
AV-unprocessed.smi:1338-3

> <Gold.Version>
5.8.1

> <Gold.Id.Protein>
6NUR|6NUR_protein|mol2

> <Gold.PLP.Fitness>
42.5707

> <Gold.PLP.PLP>
-33.5395

> <Gold.PLP.part.hbond>
-3.4182

> <Gold.PLP.part.metal>
0.0000

> <Gold.PLP.part.buried>
-4.7612

> <Gold.PLP.part.nonpolar>
-25.4771

> <Gold.PLP.part.repulsive>
0.0520

> <Gold.PLP.ligand.clash>
0.0000

> <Gold.PLP.ligand.torsion>
0.4048

> <Gold.PLP.Chemscore.Hbond>
3.2790

> <Gold.PLP.Chemscore.CHOScore>
0.0000

> <Gold.PLP.Chemscore.Metal>
0.0000

> <Gold.Chemscore.Hbonds>
donor molecule, donor type, donor heavy atom, donor atom, acceptor molecule, acceptor atom, score
      P1  H  6896  6909       L1    19  2.00
      P1  H  6934  6947       L1     3  0.30
      P1  H  7997  8009       L1     9  1.00

> <Gold.PLP.Chemscore.Internal.Correction>
0.0037

> <Gold.Rescore>
     Score         DG    S(hbond)    S(metal)    S(lipo)     H(rot)  DE(clash)    DE(int)     intcor
     18.16     -18.66       2.13        0.00      83.65       1.46       0.08       0.42       ----

> <Gold.Chemscore.Fitness>
18.1593

> <Gold.Chemscore.DG>
-18.6561

> <Gold.Chemscore.ZeroCoef>
-5.4800

> <Gold.Chemscore.Hbond>
2.1332

> <Gold.Chemscore.Metal>
0.0000

> <Gold.Chemscore.Lipo>
83.6465

> <Gold.Chemscore.Internal_Hbond>
0.0000

> <Gold.Chemscore.DEClash>
0.0814

> <Gold.Chemscore.DEInternal>
0.4154

> <Gold.Chemscore.Rot>
1.4591

> <Gold.Chemscore.Internal.Correction>
   9.000000E+99

> <Gold.Chemscore.Hbonds>
donor molecule, donor type, donor heavy atom, donor atom, acceptor molecule, acceptor atom, score
      P1  H  6896  6909       L1    19  0.29
      P1  H  6934  6947       L1     3  0.07
      P1  H  7997  8009       L1     9  0.99

> <Gold.Chemscore.Hbond.Weighted>
-7.1248

> <Gold.Chemscore.Metal.Weighted>
-0.0000

> <Gold.Chemscore.Lipo.Weighted>
-9.7866

> <Gold.Chemscore.Internal_Hbond.Weighted>
0.0000

> <Gold.Chemscore.DEClash.Weighted>
0.0814

> <Gold.Chemscore.DEInternal.Weighted>
0.4154

> <Gold.Chemscore.Rot.Weighted>
3.7353

> <Gold.Chemscore.Internal.Correction.Weighted>
   9.000000E+99

> <Gold.Protein.RotatedTorsions>
[ 6907 6896 6895 6894 ] final   63.64 input  -60.11 | X-H torsion
[ 7974 7965 7964 7962 ] final  -23.97 input  175.53 | X-H torsion
[ 8008 7997 7996 7995 ] final -149.59 input   59.86 | X-H torsion
[ 10167 10162 10161 10158 ] final   28.58 input  -65.29 | X-H torsion
[ 10718 10713 10712 10709 ] final  -63.81 input   66.30 | X-H torsion
[ 10763 10752 10751 10750 ] final  -71.14 input  -60.55 | X-H torsion
[ 11005 11000 10999 10996 ] final  -80.07 input  -57.11 | X-H torsion

> <Gold.Protein.ActiveResidues>
 VAL166  LYS551  ARG553  GLY616  TRP617  ASP618  TYR619  PRO620  LYS621  CYS622 
 ASP623  PHE694  ASN695  SER759  ASP760  ASP761  ALA762  ILE779  LEU786  VAL792 
 PHE793  MET794  SER795  GLU796  ALA797  LYS798  CYS799  TRP800  GLU811  SER814 

> <Gold.Protein.RotatedAtoms>
  152.4269  134.5851  159.9958 H   0  0  0  0  0  0  0  0  0  0  0  0  # atno 6907 bound_to 6896
  151.5985  133.3353  159.3050 H   0  0  0  0  0  0  0  0  0  0  0  0  # atno 6908 bound_to 6896
  150.8159  134.7377  159.6795 H   0  0  0  0  0  0  0  0  0  0  0  0  # atno 6909 bound_to 6896
  146.1584  140.4688  142.8582 H   0  0  0  0  0  0  0  0  0  0  0  0  # atno 7974 bound_to 7965
  155.6101  140.0671  157.2708 H   0  0  0  0  0  0  0  0  0  0  0  0  # atno 8008 bound_to 7997
  154.4256  140.1803  156.1311 H   0  0  0  0  0  0  0  0  0  0  0  0  # atno 8009 bound_to 7997
  156.0091  140.3328  155.6926 H   0  0  0  0  0  0  0  0  0  0  0  0  # atno 8010 bound_to 7997
  140.4840  144.0571  150.6274 H   0  0  0  0  0  0  0  0  0  0  0  0  # atno 10167 bound_to 10162
  156.0767  130.4225  150.1331 H   0  0  0  0  0  0  0  0  0  0  0  0  # atno 10718 bound_to 10713
  154.4275  135.5972  153.6048 H   0  0  0  0  0  0  0  0  0  0  0  0  # atno 10763 bound_to 10752
  152.9797  135.5967  154.3880 H   0  0  0  0  0  0  0  0  0  0  0  0  # atno 10764 bound_to 10752
  154.3713  135.2841  155.2243 H   0  0  0  0  0  0  0  0  0  0  0  0  # atno 10765 bound_to 10752
  141.1668  133.7134  156.8218 H   0  0  0  0  0  0  0  0  0  0  0  0  # atno 11005 bound_to 11000
  144.7993  140.6183  143.6489 LP  0  0  0  0  0  0  0  0  0  0  0  0  # atno 17320 bound_to 7965
  145.4651  139.1509  143.3845 LP  0  0  0  0  0  0  0  0  0  0  0  0  # atno 17321 bound_to 7965
  140.3821  143.2797  152.0158 LP  0  0  0  0  0  0  0  0  0  0  0  0  # atno 17342 bound_to 10162
  139.4838  144.6146  151.7370 LP  0  0  0  0  0  0  0  0  0  0  0  0  # atno 17343 bound_to 10162
  156.9370  130.9732  151.3523 LP  0  0  0  0  0  0  0  0  0  0  0  0  # atno 17370 bound_to 10713
  157.5866  130.8414  149.8599 LP  0  0  0  0  0  0  0  0  0  0  0  0  # atno 17371 bound_to 10713
  140.2113  134.8825  157.3278 LP  0  0  0  0  0  0  0  0  0  0  0  0  # atno 17394 bound_to 11000
  140.2083  134.4170  155.7626 LP  0  0  0  0  0  0  0  0  0  0  0  0  # atno 17395 bound_to 11000

$$$$
