AV-unprocessed.smi:828|AV-procd|sdf|3865|dock5
  -GOLD-   22720 1313D 1   1.00000     0.00000
 Structure written by MMmdl.
 34 35  0  0  0  0  0  0  0  0  3 V2000
  150.4282  134.8659  157.1171 C   0  0  0  0  0  0  0  0  0  0  0  0
  151.2417  136.1064  156.9753 C   0  0  0  0  0  0  0  0  0  0  0  0
  151.6087  136.5967  155.7889 N   0  0  0  0  0  0  0  0  0  0  0  0
  152.3603  137.7562  155.9121 N   0  0  0  0  0  0  0  0  0  0  0  0
  152.5593  138.1206  157.1867 C   0  0  0  0  0  0  0  0  0  0  0  0
  153.2599  139.2170  157.5208 N   0  5  0  0  0  0  0  0  0  0  0  0
  153.3584  139.5862  158.8172 C   0  0  0  0  0  0  0  0  0  0  0  0
  153.3477  138.8345  159.7945 O   0  0  0  0  0  0  0  0  0  0  0  0
  153.4665  140.9111  158.9904 N   0  0  0  0  0  0  0  0  0  0  0  0
  153.5674  141.6104  160.2676 C   0  0  0  0  0  0  0  0  0  0  0  0
  153.3726  143.1306  160.1048 C   0  0  1  0  0  0  0  0  0  0  0  0
  152.4622  143.5326  158.9392 C   0  0  0  0  0  0  0  0  0  0  0  0
  151.9821  144.9187  159.3430 C   0  0  0  0  0  0  0  0  0  0  0  0
  151.8335  144.8131  160.8621 C   0  0  0  0  0  0  0  0  0  0  0  0
  152.7460  143.7321  161.3063 N   0  3  2  0  0  0  0  0  0  0  0  0
  153.7090  144.1534  162.3472 C   0  0  0  0  0  0  0  0  0  0  0  0
  151.7976  137.0402  158.3539 S   0  0  0  0  0  0  0  0  0  0  0  0
  151.0324  133.9932  156.8689 H   0  0  0  0  0  0  0  0  0  0  0  0
  149.5688  134.9016  156.4473 H   0  0  0  0  0  0  0  0  0  0  0  0
  150.0681  134.7633  158.1408 H   0  0  0  0  0  0  0  0  0  0  0  0
  153.4762  141.4816  158.1576 H   0  0  0  0  0  0  0  0  0  0  0  0
  152.8586  141.2071  160.9931 H   0  0  0  0  0  0  0  0  0  0  0  0
  154.5594  141.4053  160.6697 H   0  0  0  0  0  0  0  0  0  0  0  0
  154.3434  143.6052  159.9468 H   0  0  0  0  0  0  0  0  0  0  0  0
  152.9752  143.5265  157.9768 H   0  0  0  0  0  0  0  0  0  0  0  0
  151.6085  142.8567  158.8700 H   0  0  0  0  0  0  0  0  0  0  0  0
  152.7454  145.6574  159.0949 H   0  0  0  0  0  0  0  0  0  0  0  0
  151.0569  145.2102  158.8451 H   0  0  0  0  0  0  0  0  0  0  0  0
  152.0362  145.7682  161.3491 H   0  0  0  0  0  0  0  0  0  0  0  0
  150.8154  144.5222  161.1222 H   0  0  0  0  0  0  0  0  0  0  0  0
  154.3656  144.9427  161.9788 H   0  0  0  0  0  0  0  0  0  0  0  0
  154.3274  143.3135  162.6642 H   0  0  0  0  0  0  0  0  0  0  0  0
  153.1808  144.5287  163.2243 H   0  0  0  0  0  0  0  0  0  0  0  0
  152.1576  143.0178  161.7112 H   0  0  0  0  0  0  0  0  0  0  0  0
  1  2  1  0  0  0  0
  1 18  1  0  0  0  0
  1 19  1  0  0  0  0
  1 20  1  0  0  0  0
  2 17  1  0  0  0  0
  2  3  2  0  0  0  0
  3  4  1  0  0  0  0
  4  5  2  0  0  0  0
  5  6  1  0  0  0  0
  5 17  1  0  0  0  0
  6  7  1  0  0  0  0
  7  8  2  0  0  0  0
  7  9  1  0  0  0  0
  9 10  1  0  0  0  0
  9 21  1  0  0  0  0
 10 11  1  0  0  0  0
 10 22  1  0  0  0  0
 10 23  1  0  0  0  0
 11 15  1  0  0  0  0
 11 12  1  0  0  0  0
 11 24  1  0  0  0  0
 12 13  1  0  0  0  0
 12 25  1  0  0  0  0
 12 26  1  0  0  0  0
 13 14  1  0  0  0  0
 13 27  1  0  0  0  0
 13 28  1  0  0  0  0
 14 15  1  0  0  0  0
 14 29  1  0  0  0  0
 14 30  1  0  0  0  0
 15 16  1  0  0  0  0
 15 34  1  0  0  0  0
 16 31  1  0  0  0  0
 16 32  1  0  0  0  0
 16 33  1  0  0  0  0
M  CHG  1   6  -1
M  CHG  1  15   1
M  END
> <s_m_source_file>
AV-unprocessed.smi

> <i_m_source_file_index>
828

> <i_lp_mmshare_version>
43012

> <i_f3d_flags>
0

> <s_epik_input>
W0NIM11jMW5uYyhzMSlbTkhdQyg9TylbTkhdW0NIMl1bQ0BASF0yW0NIMl1bQ0gyXVtDSDJdTjJbQ0gzXQ==

> <s_epik_cmdline>
J2VwaWtfcHl0aG9uJywgJy1waCcsICc3LjAnLCAnLXRuJywgJzgnLCAnLW1hJywgJzIwMCcsICctbWV0YWxfYmluZGluZycsICctaW1hZScsICc8aW5maWxlLm1hZT4nLCAnLW9tYWUnLCAnPG91dGZpbGUubWFlPic=

> <r_lp_tautomer_probability>
1

> <r_epik_Ionization_Penalty>
3.94379

> <r_epik_Ionization_Penalty_Charging>
3.83377

> <r_epik_Ionization_Penalty_Neutral>
0.110023

> <r_epik_State_Penalty>
3.83036

> <r_epik_Charging_Adjusted_Penalty>
7.66413

> <i_epik_Tot_Q>
0

> <i_epik_Tot_abs_Q>
2

> <r_epik_Metal_State_Penalty>
0.575095

> <b_epik_Metal_Only>
1

> <s_lp_Force_Field>
OPLS_2005

> <r_lp_Energy>
18.3481

> <b_lp_Chiralities_Consistent>
1

> <s_lp_Variant>
AV-unprocessed.smi:828-8

> <Gold.Version>
5.8.1

> <Gold.Id.Protein>
6NUR|6NUR_protein|mol2

> <Gold.PLP.Fitness>
41.6322

> <Gold.PLP.PLP>
-33.9337

> <Gold.PLP.part.hbond>
-2.9906

> <Gold.PLP.part.metal>
0.0000

> <Gold.PLP.part.buried>
-5.8619

> <Gold.PLP.part.nonpolar>
-25.2454

> <Gold.PLP.part.repulsive>
0.3040

> <Gold.PLP.ligand.clash>
0.0000

> <Gold.PLP.ligand.torsion>
0.6593

> <Gold.PLP.Chemscore.Hbond>
3.0000

> <Gold.PLP.Chemscore.CHOScore>
0.0000

> <Gold.PLP.Chemscore.Metal>
0.0000

> <Gold.Chemscore.Hbonds>
donor molecule, donor type, donor heavy atom, donor atom, acceptor molecule, acceptor atom, score
      P1  H  7997  8010       L1     6  1.90
      P1  H 10752 10763       L1     3  0.33

> <Gold.PLP.Chemscore.Internal.Correction>
0.0171

> <Gold.Rescore>
     Score         DG    S(hbond)    S(metal)    S(lipo)     H(rot)  DE(clash)    DE(int)     intcor
     14.89     -16.70       1.58        0.00      79.51       1.31       0.00       1.80       ----

> <Gold.Chemscore.Fitness>
14.8946

> <Gold.Chemscore.DG>
-16.6993

> <Gold.Chemscore.ZeroCoef>
-5.4800

> <Gold.Chemscore.Hbond>
1.5816

> <Gold.Chemscore.Metal>
0.0000

> <Gold.Chemscore.Lipo>
79.5129

> <Gold.Chemscore.Internal_Hbond>
0.0000

> <Gold.Chemscore.DEClash>
0.0019

> <Gold.Chemscore.DEInternal>
1.8028

> <Gold.Chemscore.Rot>
1.3149

> <Gold.Chemscore.Internal.Correction>
   9.000000E+99

> <Gold.Chemscore.Hbonds>
donor molecule, donor type, donor heavy atom, donor atom, acceptor molecule, acceptor atom, score
      P1  H  7997  8010       L1     6  0.21
      P1  H 10752 10763       L1     3  0.04

> <Gold.Chemscore.Hbond.Weighted>
-5.2824

> <Gold.Chemscore.Metal.Weighted>
-0.0000

> <Gold.Chemscore.Lipo.Weighted>
-9.3030

> <Gold.Chemscore.Internal_Hbond.Weighted>
0.0000

> <Gold.Chemscore.DEClash.Weighted>
0.0019

> <Gold.Chemscore.DEInternal.Weighted>
1.8028

> <Gold.Chemscore.Rot.Weighted>
3.3662

> <Gold.Chemscore.Internal.Correction.Weighted>
   9.000000E+99

> <Gold.Protein.RotatedTorsions>
[ 6907 6896 6895 6894 ] final  -89.85 input  -60.11 | X-H torsion
[ 7974 7965 7964 7962 ] final   -5.24 input  175.53 | X-H torsion
[ 8008 7997 7996 7995 ] final   40.89 input   59.86 | X-H torsion
[ 10167 10162 10161 10158 ] final  -13.03 input  -65.29 | X-H torsion
[ 10718 10713 10712 10709 ] final   85.91 input   66.30 | X-H torsion
[ 10763 10752 10751 10750 ] final   42.81 input  -60.55 | X-H torsion
[ 11005 11000 10999 10996 ] final -114.29 input  -57.11 | X-H torsion

> <Gold.Protein.ActiveResidues>
 VAL166  LYS551  ARG553  GLY616  TRP617  ASP618  TYR619  PRO620  LYS621  CYS622 
 ASP623  PHE694  ASN695  SER759  ASP760  ASP761  ALA762  ILE779  LEU786  VAL792 
 PHE793  MET794  SER795  GLU796  ALA797  LYS798  CYS799  TRP800  GLU811  SER814 

> <Gold.Protein.RotatedAtoms>
  150.6877  134.2522  159.4515 H   0  0  0  0  0  0  0  0  0  0  0  0  # atno 6907 bound_to 6896
  152.0459  134.9681  160.0583 H   0  0  0  0  0  0  0  0  0  0  0  0  # atno 6908 bound_to 6896
  152.1164  133.4294  159.4692 H   0  0  0  0  0  0  0  0  0  0  0  0  # atno 6909 bound_to 6896
  146.2357  140.1991  142.8333 H   0  0  0  0  0  0  0  0  0  0  0  0  # atno 7974 bound_to 7965
  155.2606  140.3359  155.4273 H   0  0  0  0  0  0  0  0  0  0  0  0  # atno 8008 bound_to 7997
  156.2176  140.1795  156.7595 H   0  0  0  0  0  0  0  0  0  0  0  0  # atno 8009 bound_to 7997
  154.5777  140.0659  156.9043 H   0  0  0  0  0  0  0  0  0  0  0  0  # atno 8010 bound_to 7997
  140.7174  143.5469  150.9345 H   0  0  0  0  0  0  0  0  0  0  0  0  # atno 10167 bound_to 10162
  157.6921  131.0194  150.2893 H   0  0  0  0  0  0  0  0  0  0  0  0  # atno 10718 bound_to 10713
  152.9874  135.6120  154.3010 H   0  0  0  0  0  0  0  0  0  0  0  0  # atno 10763 bound_to 10752
  154.2731  135.2779  155.2731 H   0  0  0  0  0  0  0  0  0  0  0  0  # atno 10764 bound_to 10752
  154.5105  135.5842  153.6658 H   0  0  0  0  0  0  0  0  0  0  0  0  # atno 10765 bound_to 10752
  141.0561  133.9610  157.2751 H   0  0  0  0  0  0  0  0  0  0  0  0  # atno 11005 bound_to 11000
  144.9796  140.8446  143.5405 LP  0  0  0  0  0  0  0  0  0  0  0  0  # atno 17320 bound_to 7965
  145.1983  139.2265  143.5206 LP  0  0  0  0  0  0  0  0  0  0  0  0  # atno 17321 bound_to 7965
  139.9193  143.6626  152.3100 LP  0  0  0  0  0  0  0  0  0  0  0  0  # atno 17342 bound_to 10162
  139.7037  144.7631  151.1230 LP  0  0  0  0  0  0  0  0  0  0  0  0  # atno 17343 bound_to 10162
  156.3427  130.3818  149.7395 LP  0  0  0  0  0  0  0  0  0  0  0  0  # atno 17370 bound_to 10713
  156.4899  130.8080  151.3090 LP  0  0  0  0  0  0  0  0  0  0  0  0  # atno 17371 bound_to 10713
  139.9391  135.0193  156.8652 LP  0  0  0  0  0  0  0  0  0  0  0  0  # atno 17394 bound_to 11000
  140.5961  134.0216  155.7518 LP  0  0  0  0  0  0  0  0  0  0  0  0  # atno 17395 bound_to 11000

$$$$
