AV-unprocessed.smi:99|AV-procd|sdf|876|dock7
  -GOLD-   2262017343D 1   1.00000     0.00000
 Structure written by MMmdl.
 53 56  0  0  0  0  0  0  0  0  1 V2000
  152.9114  139.3062  158.0677 O   0  0  0  0  0  0  0  0  0  0  0  0
  151.9411  139.9278  158.5060 C   0  0  0  0  0  0  0  0  0  0  0  0
  150.7410  139.3631  158.7449 O   0  0  0  0  0  0  0  0  0  0  0  0
  150.6420  137.9595  158.9195 C   0  0  0  0  0  0  0  0  0  0  0  0
  149.1634  137.5423  158.8823 C   0  0  1  0  0  0  0  0  0  0  0  0
  148.6392  137.7915  157.5837 O   0  0  0  0  0  0  0  0  0  0  0  0
  148.8190  136.6735  156.7723 C   0  0  2  0  0  0  0  0  0  0  0  0
  147.5816  136.5488  155.9051 N   0  0  0  0  0  0  0  0  0  0  0  0
  146.5739  137.5059  155.9480 C   0  0  0  0  0  0  0  0  0  0  0  0
  145.4925  137.4874  155.1338 C   0  0  0  0  0  0  0  0  0  0  0  0
  145.3449  136.4449  154.1250 C   0  0  0  0  0  0  0  0  0  0  0  0
  144.3957  136.3343  153.3520 O   0  0  0  0  0  0  0  0  0  0  0  0
  146.4042  135.5351  154.0759 N   0  0  0  0  0  0  0  0  0  0  0  0
  147.5304  135.5535  154.9008 C   0  0  0  0  0  0  0  0  0  0  0  0
  148.4177  134.7175  154.7334 O   0  0  0  0  0  0  0  0  0  0  0  0
  149.0636  135.4485  157.6765 C   0  0  1  0  0  0  0  0  0  0  0  0
  150.3461  134.8854  157.4829 O   0  0  0  0  0  0  0  0  0  0  0  0
  148.9781  136.0348  159.0850 C   0  0  2  0  0  0  0  0  0  0  0  0
  147.7008  135.8023  159.6660 O   0  0  0  0  0  0  0  0  0  0  0  0
  147.4208  136.2155  160.9204 C   0  0  0  0  0  0  0  0  0  0  0  0
  147.9874  137.1611  161.4713 O   0  0  0  0  0  0  0  0  0  0  0  0
  146.3586  135.3974  161.5724 C   0  0  0  0  0  0  0  0  0  0  0  0
  145.2551  136.0459  162.1744 C   0  0  0  0  0  0  0  0  0  0  0  0
  144.2386  135.2985  162.8005 C   0  0  0  0  0  0  0  0  0  0  0  0
  144.3136  133.8938  162.8332 C   0  0  0  0  0  0  0  0  0  0  0  0
  145.4071  133.2370  162.2394 C   0  0  0  0  0  0  0  0  0  0  0  0
  146.4245  133.9824  161.6124 C   0  0  0  0  0  0  0  0  0  0  0  0
  151.9736  141.3837  158.8277 C   0  0  0  0  0  0  0  0  0  0  0  0
  153.0963  141.9192  159.5012 C   0  0  0  0  0  0  0  0  0  0  0  0
  153.1559  143.2902  159.8189 C   0  0  0  0  0  0  0  0  0  0  0  0
  152.0931  144.1424  159.4672 C   0  0  0  0  0  0  0  0  0  0  0  0
  150.9709  143.6223  158.7964 C   0  0  0  0  0  0  0  0  0  0  0  0
  150.9097  142.2515  158.4776 C   0  0  0  0  0  0  0  0  0  0  0  0
  146.3573  134.8099  153.3747 H   0  0  0  0  0  0  0  0  0  0  0  0
  151.2145  137.4373  158.1518 H   0  0  0  0  0  0  0  0  0  0  0  0
  151.0746  137.6965  159.8858 H   0  0  0  0  0  0  0  0  0  0  0  0
  148.6105  138.1094  159.6327 H   0  0  0  0  0  0  0  0  0  0  0  0
  149.6696  136.8441  156.1106 H   0  0  0  0  0  0  0  0  0  0  0  0
  146.6394  138.3199  156.6516 H   0  0  0  0  0  0  0  0  0  0  0  0
  144.7365  138.2544  155.2235 H   0  0  0  0  0  0  0  0  0  0  0  0
  148.3350  134.6574  157.4999 H   0  0  0  0  0  0  0  0  0  0  0  0
  150.8113  135.4044  156.8449 H   0  0  0  0  0  0  0  0  0  0  0  0
  149.7506  135.6391  159.7470 H   0  0  0  0  0  0  0  0  0  0  0  0
  145.1756  137.1235  162.1619 H   0  0  0  0  0  0  0  0  0  0  0  0
  143.4000  135.8044  163.2559 H   0  0  0  0  0  0  0  0  0  0  0  0
  143.5337  133.3209  163.3131 H   0  0  0  0  0  0  0  0  0  0  0  0
  145.4665  132.1587  162.2648 H   0  0  0  0  0  0  0  0  0  0  0  0
  147.2505  133.4460  161.1683 H   0  0  0  0  0  0  0  0  0  0  0  0
  153.9242  141.2843  159.7821 H   0  0  0  0  0  0  0  0  0  0  0  0
  154.0182  143.6876  160.3336 H   0  0  0  0  0  0  0  0  0  0  0  0
  152.1387  145.1934  159.7121 H   0  0  0  0  0  0  0  0  0  0  0  0
  150.1545  144.2756  158.5257 H   0  0  0  0  0  0  0  0  0  0  0  0
  150.0337  141.8849  157.9626 H   0  0  0  0  0  0  0  0  0  0  0  0
  1  2  2  0  0  0  0
  2  3  1  0  0  0  0
  2 28  1  0  0  0  0
  3  4  1  0  0  0  0
  4  5  1  0  0  0  0
  4 35  1  0  0  0  0
  4 36  1  0  0  0  0
  5 18  1  0  0  0  0
  5  6  1  0  0  0  0
  5 37  1  0  0  0  0
  6  7  1  0  0  0  0
  7  8  1  0  0  0  0
  7 16  1  0  0  0  0
  7 38  1  0  0  0  0
  8 14  1  0  0  0  0
  8  9  1  0  0  0  0
  9 10  2  0  0  0  0
  9 39  1  0  0  0  0
 10 11  1  0  0  0  0
 10 40  1  0  0  0  0
 11 12  2  0  0  0  0
 11 13  1  0  0  0  0
 13 34  1  0  0  0  0
 13 14  1  0  0  0  0
 14 15  2  0  0  0  0
 16 17  1  0  0  0  0
 16 18  1  0  0  0  0
 16 41  1  0  0  0  0
 17 42  1  0  0  0  0
 18 19  1  0  0  0  0
 18 43  1  0  0  0  0
 19 20  1  0  0  0  0
 20 21  2  0  0  0  0
 20 22  1  0  0  0  0
 22 27  1  0  0  0  0
 22 23  2  0  0  0  0
 23 24  1  0  0  0  0
 23 44  1  0  0  0  0
 24 25  2  0  0  0  0
 24 45  1  0  0  0  0
 25 26  1  0  0  0  0
 25 46  1  0  0  0  0
 26 27  2  0  0  0  0
 26 47  1  0  0  0  0
 27 48  1  0  0  0  0
 28 33  1  0  0  0  0
 28 29  2  0  0  0  0
 29 30  1  0  0  0  0
 29 49  1  0  0  0  0
 30 31  2  0  0  0  0
 30 50  1  0  0  0  0
 31 32  1  0  0  0  0
 31 51  1  0  0  0  0
 32 33  2  0  0  0  0
 32 52  1  0  0  0  0
 33 53  1  0  0  0  0
M  END
> <s_m_source_file>
AV-unprocessed.smi

> <i_m_source_file_index>
99

> <i_lp_mmshare_version>
43012

> <i_f3d_flags>
0

> <s_epik_input>
W2NIXTFbY0hdW2NIXVtjSF1bY0hdYzFDKD1PKU9bQ0gyXVtDQEBIXTJPW0NAQEhdKG4zW2NIXVtjSF1jKD1PKVtuSF1jMz1PKVtDQEBIXShbT0hdKVtDQEhdMk9DKD1PKWM0W2NIXVtjSF1bY0hdW2NIXVtjSF00

> <s_epik_cmdline>
J2VwaWtfcHl0aG9uJywgJy1waCcsICc3LjAnLCAnLXRuJywgJzgnLCAnLW1hJywgJzIwMCcsICctbWV0YWxfYmluZGluZycsICctaW1hZScsICc8aW5maWxlLm1hZT4nLCAnLW9tYWUnLCAnPG91dGZpbGUubWFlPic=

> <r_lp_tautomer_probability>
1

> <r_epik_Ionization_Penalty>
0.00454555

> <r_epik_Ionization_Penalty_Charging>
0.0045191

> <r_epik_Ionization_Penalty_Neutral>
2.64449e-05

> <r_epik_State_Penalty>
-0

> <r_epik_Charging_Adjusted_Penalty>
0.0045191

> <i_epik_Tot_Q>
0

> <i_epik_Tot_abs_Q>
0

> <r_epik_Metal_State_Penalty>
1.27877

> <b_epik_Metal_Only>
0

> <s_epik_Chemistry_Notes>
This compound has an ester and may undergo hydrolysis at high or low pH. This compound contains an acetal/aminal-like group ( X-CH(R)-Y where X, Y are N, S, or O) that may be acid/base labile, releasing an aldehyde.

> <s_lp_Force_Field>
OPLS_2005

> <r_lp_Energy>
32.4523

> <b_lp_Chiralities_Consistent>
1

> <s_lp_Variant>
AV-unprocessed.smi:99-12

> <Gold.Version>
5.8.1

> <Gold.Id.Protein>
6NUR|6NUR_protein|mol2

> <Gold.PLP.Fitness>
51.0451

> <Gold.PLP.PLP>
-45.4856

> <Gold.PLP.part.hbond>
-3.8951

> <Gold.PLP.part.metal>
0.0000

> <Gold.PLP.part.buried>
-6.0833

> <Gold.PLP.part.nonpolar>
-35.8646

> <Gold.PLP.part.repulsive>
0.1790

> <Gold.PLP.ligand.clash>
0.0000

> <Gold.PLP.ligand.torsion>
2.3486

> <Gold.PLP.Chemscore.Hbond>
3.2640

> <Gold.PLP.Chemscore.CHOScore>
0.0000

> <Gold.PLP.Chemscore.Metal>
0.0000

> <Gold.Chemscore.Hbonds>
donor molecule, donor type, donor heavy atom, donor atom, acceptor molecule, acceptor atom, score
      P1  H  6896  6909       L1    17  0.59
      P1  H  6931  6943       L1    21  1.00
      P1  H  6934  6947       L1    21  0.55
      P1  H  7997  8009       L1     1  0.80

> <Gold.PLP.Chemscore.Internal.Correction>
0.4648

> <Gold.Rescore>
     Score         DG    S(hbond)    S(metal)    S(lipo)     H(rot)  DE(clash)    DE(int)     intcor
     16.52     -20.30       2.77        0.00     117.53       3.19       0.04       3.74       ----

> <Gold.Chemscore.Fitness>
16.5201

> <Gold.Chemscore.DG>
-20.3027

> <Gold.Chemscore.ZeroCoef>
-5.4800

> <Gold.Chemscore.Hbond>
2.7660

> <Gold.Chemscore.Metal>
0.0000

> <Gold.Chemscore.Lipo>
117.5330

> <Gold.Chemscore.Internal_Hbond>
0.0000

> <Gold.Chemscore.DEClash>
0.0398

> <Gold.Chemscore.DEInternal>
3.7428

> <Gold.Chemscore.Rot>
3.1903

> <Gold.Chemscore.Internal.Correction>
   9.000000E+99

> <Gold.Chemscore.Hbonds>
donor molecule, donor type, donor heavy atom, donor atom, acceptor molecule, acceptor atom, score
      P1  H  6896  6909       L1    17  0.17
      P1  H  6931  6943       L1    21  0.95
      P1  H  6934  6947       L1    21  0.49
      P1  H  7997  8009       L1     1  0.79

> <Gold.Chemscore.Hbond.Weighted>
-9.2385

> <Gold.Chemscore.Metal.Weighted>
-0.0000

> <Gold.Chemscore.Lipo.Weighted>
-13.7514

> <Gold.Chemscore.Internal_Hbond.Weighted>
0.0000

> <Gold.Chemscore.DEClash.Weighted>
0.0398

> <Gold.Chemscore.DEInternal.Weighted>
3.7428

> <Gold.Chemscore.Rot.Weighted>
8.1671

> <Gold.Chemscore.Internal.Correction.Weighted>
   9.000000E+99

> <Gold.Protein.RotatedTorsions>
[ 6907 6896 6895 6894 ] final   17.95 input  -60.11 | X-H torsion
[ 7974 7965 7964 7962 ] final  -66.25 input  175.53 | X-H torsion
[ 8008 7997 7996 7995 ] final  168.52 input   59.86 | X-H torsion
[ 10167 10162 10161 10158 ] final -110.86 input  -65.29 | X-H torsion
[ 10718 10713 10712 10709 ] final -115.89 input   66.30 | X-H torsion
[ 10763 10752 10751 10750 ] final   36.87 input  -60.55 | X-H torsion
[ 11005 11000 10999 10996 ] final   95.04 input  -57.11 | X-H torsion

> <Gold.Protein.ActiveResidues>
 VAL166  LYS551  ARG553  GLY616  TRP617  ASP618  TYR619  PRO620  LYS621  CYS622 
 ASP623  PHE694  ASN695  SER759  ASP760  ASP761  ALA762  ILE779  LEU786  VAL792 
 PHE793  MET794  SER795  GLU796  ALA797  LYS798  CYS799  TRP800  GLU811  SER814 

> <Gold.Protein.RotatedAtoms>
  151.8576  135.0535  160.0465 H   0  0  0  0  0  0  0  0  0  0  0  0  # atno 6907 bound_to 6896
  152.2688  133.5359  159.5434 H   0  0  0  0  0  0  0  0  0  0  0  0  # atno 6908 bound_to 6896
  150.7143  134.0643  159.3884 H   0  0  0  0  0  0  0  0  0  0  0  0  # atno 6909 bound_to 6896
  145.7442  140.8939  143.0514 H   0  0  0  0  0  0  0  0  0  0  0  0  # atno 7974 bound_to 7965
  156.1539  140.1588  156.8724 H   0  0  0  0  0  0  0  0  0  0  0  0  # atno 8008 bound_to 7997
  154.5097  140.0804  156.8001 H   0  0  0  0  0  0  0  0  0  0  0  0  # atno 8009 bound_to 7997
  155.3841  140.3406  155.4250 H   0  0  0  0  0  0  0  0  0  0  0  0  # atno 8010 bound_to 7997
  140.1398  143.4289  152.1570 H   0  0  0  0  0  0  0  0  0  0  0  0  # atno 10167 bound_to 10162
  156.0926  130.6105  150.8964 H   0  0  0  0  0  0  0  0  0  0  0  0  # atno 10718 bound_to 10713
  153.0059  135.6293  154.2054 H   0  0  0  0  0  0  0  0  0  0  0  0  # atno 10763 bound_to 10752
  154.1798  135.2814  155.3057 H   0  0  0  0  0  0  0  0  0  0  0  0  # atno 10764 bound_to 10752
  154.5844  135.5637  153.7276 H   0  0  0  0  0  0  0  0  0  0  0  0  # atno 10765 bound_to 10752
  139.8793  134.8877  156.3952 H   0  0  0  0  0  0  0  0  0  0  0  0  # atno 11005 bound_to 11000
  144.6864  139.9502  143.7477 LP  0  0  0  0  0  0  0  0  0  0  0  0  # atno 17320 bound_to 7965
  146.0419  139.3429  143.0692 LP  0  0  0  0  0  0  0  0  0  0  0  0  # atno 17321 bound_to 7965
  139.5477  144.7312  151.4530 LP  0  0  0  0  0  0  0  0  0  0  0  0  # atno 17342 bound_to 10162
  140.6767  143.8174  150.7068 LP  0  0  0  0  0  0  0  0  0  0  0  0  # atno 17343 bound_to 10162
  157.6079  131.0938  150.8847 LP  0  0  0  0  0  0  0  0  0  0  0  0  # atno 17370 bound_to 10713
  156.8992  130.5240  149.5283 LP  0  0  0  0  0  0  0  0  0  0  0  0  # atno 17371 bound_to 10713
  140.9305  133.7582  156.0019 LP  0  0  0  0  0  0  0  0  0  0  0  0  # atno 17394 bound_to 11000
  140.8336  134.3149  157.5340 LP  0  0  0  0  0  0  0  0  0  0  0  0  # atno 17395 bound_to 11000

$$$$
