AV-unprocessed.smi:232|AV-procd|sdf|1775|dock3
  -GOLD-   2262020313D 1   1.00000     0.00000
 Structure written by MMmdl.
 52 55  0  0  0  0  0  0  0  0  1 V2000
  151.9279  144.7237  158.5144 C   0  0  0  0  0  0  0  0  0  0  0  0
  151.6035  143.4877  157.6648 C   0  0  0  0  0  0  0  0  0  0  0  0
  151.4277  142.1992  158.4897 C   0  0  2  0  0  0  0  0  0  0  0  0
  152.5533  141.9831  159.5143 C   0  0  0  0  0  0  0  0  0  0  0  0
  152.7022  140.4669  159.5705 C   0  0  0  0  0  0  0  0  0  0  0  0
  152.4578  140.0852  158.1136 C   0  0  1  0  0  0  0  0  0  0  0  0
  152.2266  138.5782  157.8800 C   0  0  0  0  0  0  0  0  0  0  0  0
  151.4059  140.9951  157.6502 N   0  0  0  0  0  0  0  0  0  0  0  0
  150.1913  140.4711  157.3571 C   0  0  0  0  0  0  0  0  0  0  0  0
  149.5224  139.7217  158.2733 N   0  0  0  0  0  0  0  0  0  0  0  0
  148.3336  139.1941  157.9645 C   0  0  0  0  0  0  0  0  0  0  0  0
  147.6502  139.2858  156.8211 N   0  0  0  0  0  0  0  0  0  0  0  0
  148.3255  140.0313  155.8998 C   0  0  0  0  0  0  0  0  0  0  0  0
  149.5908  140.6535  156.0840 C   0  0  0  0  0  0  0  0  0  0  0  0
  149.9666  141.3254  154.9278 N   0  0  0  0  0  0  0  0  0  0  0  0
  148.9772  141.1114  154.1034 C   0  0  0  0  0  0  0  0  0  0  0  0
  147.9513  140.3424  154.6054 N   0  0  0  0  0  0  0  0  0  0  0  0
  146.7379  139.9447  153.9143 C   0  0  0  0  0  0  0  0  0  0  0  0
  146.8336  138.5181  153.3381 C   0  0  2  0  0  0  0  0  0  0  0  0
  147.7009  138.5281  152.2197 O   0  0  0  0  0  0  0  0  0  0  0  0
  145.4631  137.9677  152.9019 C   0  0  1  0  0  0  0  0  0  0  0  0
  145.5344  136.6641  152.1022 C   0  0  0  0  0  0  0  0  0  0  0  0
  144.1819  136.0523  152.3838 C   0  0  0  0  0  0  0  0  0  0  0  0
  143.9871  136.4110  153.8524 C   0  0  0  0  0  0  0  0  0  0  0  0
  144.6666  137.6490  154.0426 O   0  0  0  0  0  0  0  0  0  0  0  0
  152.1126  145.5909  157.8801 H   0  0  0  0  0  0  0  0  0  0  0  0
  152.8179  144.5609  159.1229 H   0  0  0  0  0  0  0  0  0  0  0  0
  151.1050  144.9769  159.1826 H   0  0  0  0  0  0  0  0  0  0  0  0
  150.7081  143.6755  157.0711 H   0  0  0  0  0  0  0  0  0  0  0  0
  152.4158  143.3407  156.9523 H   0  0  0  0  0  0  0  0  0  0  0  0
  150.4972  142.2854  159.0518 H   0  0  0  0  0  0  0  0  0  0  0  0
  153.4854  142.4232  159.1561 H   0  0  0  0  0  0  0  0  0  0  0  0
  152.3291  142.4230  160.4864 H   0  0  0  0  0  0  0  0  0  0  0  0
  153.6787  140.1482  159.9364 H   0  0  0  0  0  0  0  0  0  0  0  0
  151.9343  140.0360  160.2148 H   0  0  0  0  0  0  0  0  0  0  0  0
  153.3470  140.3600  157.5442 H   0  0  0  0  0  0  0  0  0  0  0  0
  153.0893  138.0017  158.2146 H   0  0  0  0  0  0  0  0  0  0  0  0
  152.0791  138.3576  156.8224 H   0  0  0  0  0  0  0  0  0  0  0  0
  151.3588  138.2096  158.4278 H   0  0  0  0  0  0  0  0  0  0  0  0
  147.8641  138.6122  158.7438 H   0  0  0  0  0  0  0  0  0  0  0  0
  148.9713  141.5071  153.0982 H   0  0  0  0  0  0  0  0  0  0  0  0
  145.9107  140.0150  154.6214 H   0  0  0  0  0  0  0  0  0  0  0  0
  146.5323  140.6661  153.1221 H   0  0  0  0  0  0  0  0  0  0  0  0
  147.2618  137.8546  154.0907 H   0  0  0  0  0  0  0  0  0  0  0  0
  148.2226  137.7406  152.2378 H   0  0  0  0  0  0  0  0  0  0  0  0
  144.9209  138.7157  152.3209 H   0  0  0  0  0  0  0  0  0  0  0  0
  145.7170  136.8259  151.0396 H   0  0  0  0  0  0  0  0  0  0  0  0
  146.3226  136.0164  152.4891 H   0  0  0  0  0  0  0  0  0  0  0  0
  143.4172  136.5331  151.7723 H   0  0  0  0  0  0  0  0  0  0  0  0
  144.1471  134.9786  152.1978 H   0  0  0  0  0  0  0  0  0  0  0  0
  142.9349  136.4853  154.1276 H   0  0  0  0  0  0  0  0  0  0  0  0
  144.4529  135.6608  154.4924 H   0  0  0  0  0  0  0  0  0  0  0  0
  1  2  1  0  0  0  0
  1 26  1  0  0  0  0
  1 27  1  0  0  0  0
  1 28  1  0  0  0  0
  2  3  1  0  0  0  0
  2 29  1  0  0  0  0
  2 30  1  0  0  0  0
  3  8  1  0  0  0  0
  3  4  1  0  0  0  0
  3 31  1  0  0  0  0
  4  5  1  0  0  0  0
  4 32  1  0  0  0  0
  4 33  1  0  0  0  0
  5  6  1  0  0  0  0
  5 34  1  0  0  0  0
  5 35  1  0  0  0  0
  6  7  1  0  0  0  0
  6  8  1  0  0  0  0
  6 36  1  0  0  0  0
  7 37  1  0  0  0  0
  7 38  1  0  0  0  0
  7 39  1  0  0  0  0
  8  9  1  0  0  0  0
  9 14  1  0  0  0  0
  9 10  2  0  0  0  0
 10 11  1  0  0  0  0
 11 12  2  0  0  0  0
 11 40  1  0  0  0  0
 12 13  1  0  0  0  0
 13 17  1  0  0  0  0
 13 14  2  0  0  0  0
 14 15  1  0  0  0  0
 15 16  2  0  0  0  0
 16 17  1  0  0  0  0
 16 41  1  0  0  0  0
 17 18  1  0  0  0  0
 18 19  1  0  0  0  0
 18 42  1  0  0  0  0
 18 43  1  0  0  0  0
 19 20  1  0  0  0  0
 19 21  1  0  0  0  0
 19 44  1  0  0  0  0
 20 45  1  0  0  0  0
 21 25  1  0  0  0  0
 21 22  1  0  0  0  0
 21 46  1  0  0  0  0
 22 23  1  0  0  0  0
 22 47  1  0  0  0  0
 22 48  1  0  0  0  0
 23 24  1  0  0  0  0
 23 49  1  0  0  0  0
 23 50  1  0  0  0  0
 24 25  1  0  0  0  0
 24 51  1  0  0  0  0
 24 52  1  0  0  0  0
M  END
> <s_m_source_file>
AV-unprocessed.smi

> <i_m_source_file_index>
232

> <i_lp_mmshare_version>
43012

> <i_f3d_flags>
0

> <s_epik_input>
W0NIM11bQ0gyXVtDQEBIXTFbQ0gyXVtDSDJdW0NAQEhdKFtDSDNdKU4xYyhuW2NIXW4yKWMoYzIzKW5bY0hdbjNbQ0gyXVtDQEhdKFtPSF0pW0NAQEhdNFtDSDJdW0NIMl1bQ0gyXU80

> <s_epik_cmdline>
J2VwaWtfcHl0aG9uJywgJy1waCcsICc3LjAnLCAnLXRuJywgJzgnLCAnLW1hJywgJzIwMCcsICctbWV0YWxfYmluZGluZycsICctaW1hZScsICc8aW5maWxlLm1hZT4nLCAnLW9tYWUnLCAnPG91dGZpbGUubWFlPic=

> <r_lp_tautomer_probability>
1

> <r_epik_Ionization_Penalty>
0.00258048

> <r_epik_Ionization_Penalty_Charging>
0

> <r_epik_Ionization_Penalty_Neutral>
0.00258048

> <r_epik_State_Penalty>
0.00168551

> <r_epik_Charging_Adjusted_Penalty>
0.00168551

> <i_epik_Tot_Q>
0

> <i_epik_Tot_abs_Q>
0

> <r_epik_Metal_State_Penalty>
-0

> <b_epik_Metal_Only>
0

> <s_lp_Force_Field>
OPLS_2005

> <r_lp_Energy>
56.7631

> <b_lp_Chiralities_Consistent>
1

> <s_lp_Variant>
AV-unprocessed.smi:232-9

> <Gold.Version>
5.8.1

> <Gold.Id.Protein>
6NUR|6NUR_protein|mol2

> <Gold.PLP.Fitness>
39.9858

> <Gold.PLP.PLP>
-35.5000

> <Gold.PLP.part.hbond>
-3.0298

> <Gold.PLP.part.metal>
0.0000

> <Gold.PLP.part.buried>
-1.8312

> <Gold.PLP.part.nonpolar>
-30.8048

> <Gold.PLP.part.repulsive>
0.2672

> <Gold.PLP.ligand.clash>
0.0000

> <Gold.PLP.ligand.torsion>
0.8678

> <Gold.PLP.Chemscore.Hbond>
1.2321

> <Gold.PLP.Chemscore.CHOScore>
0.7650

> <Gold.PLP.Chemscore.Metal>
0.0000

> <Gold.Chemscore.Hbonds>
donor molecule, donor type, donor heavy atom, donor atom, acceptor molecule, acceptor atom, score
      L1  H    20    45       P1  7948  1.00
      P1  H  7989  7998       L1    15  0.23
      L1  C    16    41       P1  7957  0.82

> <Gold.PLP.Chemscore.Internal.Correction>
0.2302

> <Gold.Rescore>
     Score         DG    S(hbond)    S(metal)    S(lipo)     H(rot)  DE(clash)    DE(int)     intcor
     12.70     -13.48       1.00        0.00      93.01       2.43       0.13       0.65       ----

> <Gold.Chemscore.Fitness>
12.6967

> <Gold.Chemscore.DG>
-13.4841

> <Gold.Chemscore.ZeroCoef>
-5.4800

> <Gold.Chemscore.Hbond>
0.9979

> <Gold.Chemscore.Metal>
0.0000

> <Gold.Chemscore.Lipo>
93.0073

> <Gold.Chemscore.Internal_Hbond>
0.0000

> <Gold.Chemscore.DEClash>
0.1326

> <Gold.Chemscore.DEInternal>
0.6548

> <Gold.Chemscore.Rot>
2.4260

> <Gold.Chemscore.Internal.Correction>
   9.000000E+99

> <Gold.Chemscore.Hbonds>
donor molecule, donor type, donor heavy atom, donor atom, acceptor molecule, acceptor atom, score
      L1  H    20    45       P1  7948  1.00
      P1  H  7989  7998       L1    15  0.04

> <Gold.Chemscore.Hbond.Weighted>
-3.3329

> <Gold.Chemscore.Metal.Weighted>
-0.0000

> <Gold.Chemscore.Lipo.Weighted>
-10.8819

> <Gold.Chemscore.Internal_Hbond.Weighted>
0.0000

> <Gold.Chemscore.DEClash.Weighted>
0.1326

> <Gold.Chemscore.DEInternal.Weighted>
0.6548

> <Gold.Chemscore.Rot.Weighted>
6.2107

> <Gold.Chemscore.Internal.Correction.Weighted>
   9.000000E+99

> <Gold.Protein.RotatedTorsions>
[ 6907 6896 6895 6894 ] final  126.03 input  -60.11 | X-H torsion
[ 7974 7965 7964 7962 ] final   77.81 input  175.53 | X-H torsion
[ 8008 7997 7996 7995 ] final  171.46 input   59.86 | X-H torsion
[ 10167 10162 10161 10158 ] final   24.90 input  -65.29 | X-H torsion
[ 10718 10713 10712 10709 ] final  -17.00 input   66.30 | X-H torsion
[ 10763 10752 10751 10750 ] final  -68.73 input  -60.55 | X-H torsion
[ 11005 11000 10999 10996 ] final   30.13 input  -57.11 | X-H torsion

> <Gold.Protein.ActiveResidues>
 VAL166  LYS551  ARG553  GLY616  TRP617  ASP618  TYR619  PRO620  LYS621  CYS622 
 ASP623  PHE694  ASN695  SER759  ASP760  ASP761  ALA762  ILE779  LEU786  VAL792 
 PHE793  MET794  SER795  GLU796  ALA797  LYS798  CYS799  TRP800  GLU811  SER814 

> <Gold.Protein.RotatedAtoms>
  152.3940  133.6719  159.6260 H   0  0  0  0  0  0  0  0  0  0  0  0  # atno 6907 bound_to 6896
  150.7842  133.8906  159.3321 H   0  0  0  0  0  0  0  0  0  0  0  0  # atno 6908 bound_to 6896
  151.6687  135.0980  160.0245 H   0  0  0  0  0  0  0  0  0  0  0  0  # atno 6909 bound_to 6896
  145.6853  139.2536  143.1791 H   0  0  0  0  0  0  0  0  0  0  0  0  # atno 7974 bound_to 7965
  156.1268  140.1511  156.9124 H   0  0  0  0  0  0  0  0  0  0  0  0  # atno 8008 bound_to 7997
  154.4878  140.0860  156.7567 H   0  0  0  0  0  0  0  0  0  0  0  0  # atno 8009 bound_to 7997
  155.4328  140.3428  155.4284 H   0  0  0  0  0  0  0  0  0  0  0  0  # atno 8010 bound_to 7997
  140.5150  144.0098  150.6390 H   0  0  0  0  0  0  0  0  0  0  0  0  # atno 10167 bound_to 10162
  156.5796  130.4771  149.6326 H   0  0  0  0  0  0  0  0  0  0  0  0  # atno 10718 bound_to 10713
  154.3932  135.6048  153.5855 H   0  0  0  0  0  0  0  0  0  0  0  0  # atno 10763 bound_to 10752
  152.9787  135.5888  154.4273 H   0  0  0  0  0  0  0  0  0  0  0  0  # atno 10764 bound_to 10752
  154.4060  135.2843  155.2045 H   0  0  0  0  0  0  0  0  0  0  0  0  # atno 10765 bound_to 10752
  140.2976  134.2793  155.7761 H   0  0  0  0  0  0  0  0  0  0  0  0  # atno 11005 bound_to 11000
  146.0929  140.7635  142.9586 LP  0  0  0  0  0  0  0  0  0  0  0  0  # atno 17320 bound_to 7965
  144.7013  140.3665  143.7153 LP  0  0  0  0  0  0  0  0  0  0  0  0  # atno 17321 bound_to 7965
  140.3431  143.3008  152.0567 LP  0  0  0  0  0  0  0  0  0  0  0  0  # atno 17342 bound_to 10162
  139.4906  144.6428  151.6841 LP  0  0  0  0  0  0  0  0  0  0  0  0  # atno 17343 bound_to 10162
  156.2643  130.6980  151.1758 LP  0  0  0  0  0  0  0  0  0  0  0  0  # atno 17370 bound_to 10713
  157.7329  131.0595  150.5602 LP  0  0  0  0  0  0  0  0  0  0  0  0  # atno 17371 bound_to 10713
  141.2134  133.7625  156.9719 LP  0  0  0  0  0  0  0  0  0  0  0  0  # atno 17394 bound_to 11000
  140.1138  134.9460  157.2105 LP  0  0  0  0  0  0  0  0  0  0  0  0  # atno 17395 bound_to 11000

$$$$
