AV-unprocessed.smi:1247|AV-procd|sdf|5248|dock1
  -GOLD-   22720 4353D 1   1.00000     0.00000
 Structure written by MMmdl.
 47 48  0  0  0  0  0  0  0  0  2 V2000
  145.9662  130.0286  151.6916 C   0  0  0  0  0  0  0  0  0  0  0  0
  145.9101  131.5271  151.6454 C   0  0  0  0  0  0  0  0  0  0  0  0
  146.7327  132.4575  152.3444 C   0  0  0  0  0  0  0  0  0  0  0  0
  146.2422  133.6653  151.9288 C   0  0  0  0  0  0  0  0  0  0  0  0
  146.6457  134.9168  152.2755 N   0  0  0  0  0  0  0  0  0  0  0  0
  145.9335  135.8956  152.8611 C   0  0  0  0  0  0  0  0  0  0  0  0
  144.7498  135.8198  153.1912 O   0  0  0  0  0  0  0  0  0  0  0  0
  146.6778  136.9949  153.0499 N   0  0  0  0  0  0  0  0  0  0  0  0
  146.1994  138.2202  153.6800 C   0  0  0  0  0  0  0  0  0  0  0  0
  147.0276  139.4439  153.2433 C   0  0  0  0  0  0  0  0  0  0  0  0
  148.1742  139.6979  154.1506 N   0  3  1  0  0  0  0  0  0  0  0  0
  149.2967  138.7584  153.9252 C   0  0  0  0  0  0  0  0  0  0  0  0
  150.4135  138.9972  154.9573 C   0  0  1  0  0  0  0  0  0  0  0  0
  151.6312  138.1015  154.7051 C   0  0  0  0  0  0  0  0  0  0  0  0
  150.8448  140.3535  154.8835 O   0  0  0  0  0  0  0  0  0  0  0  0
  149.8182  141.3222  155.0963 C   0  0  2  0  0  0  0  0  0  0  0  0
  149.3647  141.3794  156.5660 C   0  0  0  0  0  0  0  0  0  0  0  0
  148.6607  141.0992  154.1033 C   0  0  0  0  0  0  0  0  0  0  0  0
  145.2078  133.4451  151.0459 N   0  0  0  0  0  0  0  0  0  0  0  0
  144.3762  134.4012  150.3409 C   0  0  0  0  0  0  0  0  0  0  0  0
  145.0041  132.1207  150.8764 N   0  0  0  0  0  0  0  0  0  0  0  0
  146.7676  129.6845  152.3458 H   0  0  0  0  0  0  0  0  0  0  0  0
  146.1457  129.6113  150.7005 H   0  0  0  0  0  0  0  0  0  0  0  0
  145.0311  129.6120  152.0660 H   0  0  0  0  0  0  0  0  0  0  0  0
  147.5405  132.2501  153.0298 H   0  0  0  0  0  0  0  0  0  0  0  0
  147.6093  135.1307  152.0639 H   0  0  0  0  0  0  0  0  0  0  0  0
  147.6422  136.9784  152.7509 H   0  0  0  0  0  0  0  0  0  0  0  0
  145.1414  138.3492  153.4501 H   0  0  0  0  0  0  0  0  0  0  0  0
  146.2669  138.0941  154.7609 H   0  0  0  0  0  0  0  0  0  0  0  0
  147.4003  139.2559  152.2353 H   0  0  0  0  0  0  0  0  0  0  0  0
  146.4080  140.3398  153.1786 H   0  0  0  0  0  0  0  0  0  0  0  0
  148.9402  137.7307  154.0069 H   0  0  0  0  0  0  0  0  0  0  0  0
  149.6806  138.8850  152.9114 H   0  0  0  0  0  0  0  0  0  0  0  0
  150.0394  138.7835  155.9589 H   0  0  0  0  0  0  0  0  0  0  0  0
  151.3615  137.0466  154.7607 H   0  0  0  0  0  0  0  0  0  0  0  0
  152.4093  138.2840  155.4465 H   0  0  0  0  0  0  0  0  0  0  0  0
  152.0610  138.2863  153.7200 H   0  0  0  0  0  0  0  0  0  0  0  0
  150.2671  142.2897  154.8694 H   0  0  0  0  0  0  0  0  0  0  0  0
  148.6896  142.2199  156.7293 H   0  0  0  0  0  0  0  0  0  0  0  0
  150.2189  141.5108  157.2307 H   0  0  0  0  0  0  0  0  0  0  0  0
  148.8369  140.4769  156.8731 H   0  0  0  0  0  0  0  0  0  0  0  0
  149.0035  141.3215  153.0914 H   0  0  0  0  0  0  0  0  0  0  0  0
  147.8540  141.7991  154.3192 H   0  0  0  0  0  0  0  0  0  0  0  0
  144.9991  135.1857  149.9099 H   0  0  0  0  0  0  0  0  0  0  0  0
  143.6661  134.8496  151.0363 H   0  0  0  0  0  0  0  0  0  0  0  0
  143.8255  133.9103  149.5373 H   0  0  0  0  0  0  0  0  0  0  0  0
  147.8450  139.5263  155.0900 H   0  0  0  0  0  0  0  0  0  0  0  0
  1  2  1  0  0  0  0
  1 22  1  0  0  0  0
  1 23  1  0  0  0  0
  1 24  1  0  0  0  0
  2 21  2  0  0  0  0
  2  3  1  0  0  0  0
  3  4  2  0  0  0  0
  3 25  1  0  0  0  0
  4  5  1  0  0  0  0
  4 19  1  0  0  0  0
  5  6  1  0  0  0  0
  5 26  1  0  0  0  0
  6  7  2  0  0  0  0
  6  8  1  0  0  0  0
  8  9  1  0  0  0  0
  8 27  1  0  0  0  0
  9 10  1  0  0  0  0
  9 28  1  0  0  0  0
  9 29  1  0  0  0  0
 10 11  1  0  0  0  0
 10 30  1  0  0  0  0
 10 31  1  0  0  0  0
 11 18  1  0  0  0  0
 11 12  1  0  0  0  0
 11 47  1  0  0  0  0
 12 13  1  0  0  0  0
 12 32  1  0  0  0  0
 12 33  1  0  0  0  0
 13 14  1  0  0  0  0
 13 15  1  0  0  0  0
 13 34  1  0  0  0  0
 14 35  1  0  0  0  0
 14 36  1  0  0  0  0
 14 37  1  0  0  0  0
 15 16  1  0  0  0  0
 16 17  1  0  0  0  0
 16 18  1  0  0  0  0
 16 38  1  0  0  0  0
 17 39  1  0  0  0  0
 17 40  1  0  0  0  0
 17 41  1  0  0  0  0
 18 42  1  0  0  0  0
 18 43  1  0  0  0  0
 19 20  1  0  0  0  0
 19 21  1  0  0  0  0
 20 44  1  0  0  0  0
 20 45  1  0  0  0  0
 20 46  1  0  0  0  0
M  CHG  1  11   1
M  END
> <s_m_source_file>
AV-unprocessed.smi

> <i_m_source_file_index>
1247

> <i_lp_mmshare_version>
43012

> <i_f3d_flags>
0

> <s_epik_input>
W0NIM11jMVtjSF1jKG4objEpW0NIM10pW05IXUMoPU8pW05IXVtDSDJdW0NIMl1OMltDSDJdW0NAQEhdKFtDSDNdKU9bQ0BASF0oW0NIM10pW0NIMl0y

> <s_epik_cmdline>
J2VwaWtfcHl0aG9uJywgJy1waCcsICc3LjAnLCAnLXRuJywgJzgnLCAnLW1hJywgJzIwMCcsICctbWV0YWxfYmluZGluZycsICctaW1hZScsICc8aW5maWxlLm1hZT4nLCAnLW9tYWUnLCAnPG91dGZpbGUubWFlPic=

> <r_lp_tautomer_probability>
1

> <r_epik_Ionization_Penalty>
0.663902

> <r_epik_Ionization_Penalty_Charging>
0.663826

> <r_epik_Ionization_Penalty_Neutral>
7.65444e-05

> <r_epik_State_Penalty>
0.683414

> <r_epik_Charging_Adjusted_Penalty>
1.34724

> <i_epik_Tot_Q>
1

> <i_epik_Tot_abs_Q>
1

> <r_epik_Metal_State_Penalty>
0.683419

> <b_epik_Metal_Only>
0

> <s_lp_Force_Field>
OPLS_2005

> <r_lp_Energy>
18.4757

> <b_lp_Chiralities_Consistent>
1

> <s_lp_Variant>
AV-unprocessed.smi:1247-6

> <Gold.Version>
5.8.1

> <Gold.Id.Protein>
6NUR|6NUR_protein|mol2

> <Gold.PLP.Fitness>
42.7845

> <Gold.PLP.PLP>
-35.8908

> <Gold.PLP.part.hbond>
-3.0000

> <Gold.PLP.part.metal>
0.0000

> <Gold.PLP.part.buried>
-3.3142

> <Gold.PLP.part.nonpolar>
-29.5652

> <Gold.PLP.part.repulsive>
0.3303

> <Gold.PLP.ligand.clash>
0.0000

> <Gold.PLP.ligand.torsion>
1.1052

> <Gold.PLP.Chemscore.Hbond>
3.0000

> <Gold.PLP.Chemscore.CHOScore>
0.0000

> <Gold.PLP.Chemscore.Metal>
0.0000

> <Gold.Chemscore.Hbonds>
donor molecule, donor type, donor heavy atom, donor atom, acceptor molecule, acceptor atom, score
      L1  H     5    26       P1  7948  1.00
      L1  H     8    27       P1  7948  1.00
      P1  H  7989  7998       L1    15  1.00

> <Gold.PLP.Chemscore.Internal.Correction>
0.1039

> <Gold.Rescore>
     Score         DG    S(hbond)    S(metal)    S(lipo)     H(rot)  DE(clash)    DE(int)     intcor
     18.82     -20.04       2.62        0.00      82.96       1.52       0.10       1.12       ----

> <Gold.Chemscore.Fitness>
18.8230

> <Gold.Chemscore.DG>
-20.0387

> <Gold.Chemscore.ZeroCoef>
-5.4800

> <Gold.Chemscore.Hbond>
2.6194

> <Gold.Chemscore.Metal>
0.0000

> <Gold.Chemscore.Lipo>
82.9617

> <Gold.Chemscore.Internal_Hbond>
0.0000

> <Gold.Chemscore.DEClash>
0.0998

> <Gold.Chemscore.DEInternal>
1.1159

> <Gold.Chemscore.Rot>
1.5221

> <Gold.Chemscore.Internal.Correction>
   9.000000E+99

> <Gold.Chemscore.Hbonds>
donor molecule, donor type, donor heavy atom, donor atom, acceptor molecule, acceptor atom, score
      L1  H     5    26       P1  7948  0.93
      L1  H     8    27       P1  7948  0.95
      P1  H  7989  7998       L1    15  0.43

> <Gold.Chemscore.Hbond.Weighted>
-8.7489

> <Gold.Chemscore.Metal.Weighted>
-0.0000

> <Gold.Chemscore.Lipo.Weighted>
-9.7065

> <Gold.Chemscore.Internal_Hbond.Weighted>
0.0000

> <Gold.Chemscore.DEClash.Weighted>
0.0998

> <Gold.Chemscore.DEInternal.Weighted>
1.1159

> <Gold.Chemscore.Rot.Weighted>
3.8967

> <Gold.Chemscore.Internal.Correction.Weighted>
   9.000000E+99

> <Gold.Protein.RotatedTorsions>
[ 6907 6896 6895 6894 ] final -141.51 input  -60.11 | X-H torsion
[ 7974 7965 7964 7962 ] final  -86.33 input  175.53 | X-H torsion
[ 8008 7997 7996 7995 ] final  142.41 input   59.86 | X-H torsion
[ 10167 10162 10161 10158 ] final  -54.17 input  -65.29 | X-H torsion
[ 10718 10713 10712 10709 ] final  -32.87 input   66.30 | X-H torsion
[ 10763 10752 10751 10750 ] final  173.53 input  -60.55 | X-H torsion
[ 11005 11000 10999 10996 ] final   51.96 input  -57.11 | X-H torsion

> <Gold.Protein.ActiveResidues>
 VAL166  LYS551  ARG553  GLY616  TRP617  ASP618  TYR619  PRO620  LYS621  CYS622 
 ASP623  PHE694  ASN695  SER759  ASP760  ASP761  ALA762  ILE779  LEU786  VAL792 
 PHE793  MET794  SER795  GLU796  ALA797  LYS798  CYS799  TRP800  GLU811  SER814 

> <Gold.Protein.RotatedAtoms>
  151.0747  133.5438  159.2624 H   0  0  0  0  0  0  0  0  0  0  0  0  # atno 6907 bound_to 6896
  151.2364  135.0572  159.9017 H   0  0  0  0  0  0  0  0  0  0  0  0  # atno 6908 bound_to 6896
  152.5416  134.0528  159.8171 H   0  0  0  0  0  0  0  0  0  0  0  0  # atno 6909 bound_to 6896
  145.4814  140.9557  143.1862 H   0  0  0  0  0  0  0  0  0  0  0  0  # atno 7974 bound_to 7965
  156.2950  140.2289  156.4724 H   0  0  0  0  0  0  0  0  0  0  0  0  # atno 8008 bound_to 7997
  154.7924  140.0453  157.1232 H   0  0  0  0  0  0  0  0  0  0  0  0  # atno 8009 bound_to 7997
  154.9630  140.3057  155.5026 H   0  0  0  0  0  0  0  0  0  0  0  0  # atno 8010 bound_to 7997
  140.6445  143.2527  151.4898 H   0  0  0  0  0  0  0  0  0  0  0  0  # atno 10167 bound_to 10162
  156.3695  130.4337  149.7557 H   0  0  0  0  0  0  0  0  0  0  0  0  # atno 10718 bound_to 10713
  154.4413  135.2762  155.1845 H   0  0  0  0  0  0  0  0  0  0  0  0  # atno 10763 bound_to 10752
  154.3710  135.6108  153.5744 H   0  0  0  0  0  0  0  0  0  0  0  0  # atno 10764 bound_to 10752
  152.9841  135.5857  154.4742 H   0  0  0  0  0  0  0  0  0  0  0  0  # atno 10765 bound_to 10752
  140.0888  134.5237  155.8872 H   0  0  0  0  0  0  0  0  0  0  0  0  # atno 11005 bound_to 11000
  144.7887  139.6373  143.7123 LP  0  0  0  0  0  0  0  0  0  0  0  0  # atno 17320 bound_to 7965
  146.2339  139.5867  142.9537 LP  0  0  0  0  0  0  0  0  0  0  0  0  # atno 17321 bound_to 7965
  139.5655  144.2053  152.1758 LP  0  0  0  0  0  0  0  0  0  0  0  0  # atno 17342 bound_to 10162
  140.1334  144.5268  150.6788 LP  0  0  0  0  0  0  0  0  0  0  0  0  # atno 17343 bound_to 10162
  156.4689  130.7987  151.3006 LP  0  0  0  0  0  0  0  0  0  0  0  0  # atno 17370 bound_to 10713
  157.7482  131.0042  150.3067 LP  0  0  0  0  0  0  0  0  0  0  0  0  # atno 17371 bound_to 10713
  141.2071  133.6661  156.6286 LP  0  0  0  0  0  0  0  0  0  0  0  0  # atno 17394 bound_to 11000
  140.3381  134.7872  157.4377 LP  0  0  0  0  0  0  0  0  0  0  0  0  # atno 17395 bound_to 11000

$$$$
