AV-unprocessed.smi:2517|AV-procd|sdf|9900|dock7
  -GOLD-   2272013533D 1   1.00000     0.00000
 Structure written by MMmdl.
 41 42  0  0  0  0  0  0  0  0  1 V2000
  152.0241  145.6556  159.6955 C   0  0  0  0  0  0  0  0  0  0  0  0
  152.4829  144.8880  158.4508 C   0  0  0  0  0  0  0  0  0  0  0  0
  152.6123  143.4131  158.7156 C   0  0  0  0  0  0  0  0  0  0  0  0
  153.4703  142.9774  159.6282 N   0  0  0  0  0  0  0  0  0  0  0  0
  153.3362  141.6297  159.6277 N   0  0  0  0  0  0  0  0  0  0  0  0
  154.1463  140.8372  160.5274 C   0  0  0  0  0  0  0  0  0  0  0  0
  152.3927  141.1980  158.7181 C   0  0  0  0  0  0  0  0  0  0  0  0
  151.9112  142.3290  158.1215 C   0  0  0  0  0  0  0  0  0  0  0  0
  150.9139  142.4581  157.1212 N   0  0  0  0  0  0  0  0  0  0  0  0
  150.7420  141.6883  156.0346 C   0  0  0  0  0  0  0  0  0  0  0  0
  151.4605  140.7410  155.7149 O   0  0  0  0  0  0  0  0  0  0  0  0
  149.6773  142.0809  155.3248 N   0  0  0  0  0  0  0  0  0  0  0  0
  149.2186  141.4375  154.1009 C   0  0  0  0  0  0  0  0  0  0  0  0
  147.6934  141.5469  153.9692 C   0  0  0  0  0  0  0  0  0  0  0  0
  147.2565  142.9061  153.9454 O   0  0  0  0  0  0  0  0  0  0  0  0
  145.8497  143.1088  153.9772 C   0  0  0  0  0  0  0  0  0  0  0  0
  147.0201  140.8100  152.7957 C   0  0  0  0  0  0  0  0  0  0  0  0
  146.6712  139.6740  153.7587 C   0  0  0  0  0  0  0  0  0  0  0  0
  146.8054  140.6900  154.8939 C   0  0  0  0  0  0  0  0  0  0  0  0
  151.9343  146.7211  159.4838 H   0  0  0  0  0  0  0  0  0  0  0  0
  152.7327  145.5376  160.5156 H   0  0  0  0  0  0  0  0  0  0  0  0
  151.0519  145.3006  160.0382 H   0  0  0  0  0  0  0  0  0  0  0  0
  151.7765  145.0611  157.6386 H   0  0  0  0  0  0  0  0  0  0  0  0
  153.4369  145.2908  158.1083 H   0  0  0  0  0  0  0  0  0  0  0  0
  153.8796  139.7834  160.4415 H   0  0  0  0  0  0  0  0  0  0  0  0
  153.9819  141.1614  161.5554 H   0  0  0  0  0  0  0  0  0  0  0  0
  155.2005  140.9579  160.2769 H   0  0  0  0  0  0  0  0  0  0  0  0
  152.1568  140.1522  158.5884 H   0  0  0  0  0  0  0  0  0  0  0  0
  150.2550  143.2115  157.2530 H   0  0  0  0  0  0  0  0  0  0  0  0
  149.1375  142.8664  155.6575 H   0  0  0  0  0  0  0  0  0  0  0  0
  149.7086  141.9206  153.2544 H   0  0  0  0  0  0  0  0  0  0  0  0
  149.5413  140.3961  154.0788 H   0  0  0  0  0  0  0  0  0  0  0  0
  145.6384  144.1690  153.8393 H   0  0  0  0  0  0  0  0  0  0  0  0
  145.4204  142.8155  154.9350 H   0  0  0  0  0  0  0  0  0  0  0  0
  145.3408  142.5635  153.1822 H   0  0  0  0  0  0  0  0  0  0  0  0
  146.1337  141.3221  152.4165 H   0  0  0  0  0  0  0  0  0  0  0  0
  147.6906  140.5224  151.9854 H   0  0  0  0  0  0  0  0  0  0  0  0
  145.6713  139.2581  153.6324 H   0  0  0  0  0  0  0  0  0  0  0  0
  147.4352  138.8957  153.7920 H   0  0  0  0  0  0  0  0  0  0  0  0
  147.3061  140.3088  155.7842 H   0  0  0  0  0  0  0  0  0  0  0  0
  145.8531  141.1629  155.1410 H   0  0  0  0  0  0  0  0  0  0  0  0
  1  2  1  0  0  0  0
  1 20  1  0  0  0  0
  1 21  1  0  0  0  0
  1 22  1  0  0  0  0
  2  3  1  0  0  0  0
  2 23  1  0  0  0  0
  2 24  1  0  0  0  0
  3  8  1  0  0  0  0
  3  4  2  0  0  0  0
  4  5  1  0  0  0  0
  5  6  1  0  0  0  0
  5  7  1  0  0  0  0
  6 25  1  0  0  0  0
  6 26  1  0  0  0  0
  6 27  1  0  0  0  0
  7  8  2  0  0  0  0
  7 28  1  0  0  0  0
  8  9  1  0  0  0  0
  9 10  1  0  0  0  0
  9 29  1  0  0  0  0
 10 11  2  0  0  0  0
 10 12  1  0  0  0  0
 12 13  1  0  0  0  0
 12 30  1  0  0  0  0
 13 14  1  0  0  0  0
 13 31  1  0  0  0  0
 13 32  1  0  0  0  0
 14 19  1  0  0  0  0
 14 15  1  0  0  0  0
 14 17  1  0  0  0  0
 15 16  1  0  0  0  0
 16 33  1  0  0  0  0
 16 34  1  0  0  0  0
 16 35  1  0  0  0  0
 17 18  1  0  0  0  0
 17 36  1  0  0  0  0
 17 37  1  0  0  0  0
 18 19  1  0  0  0  0
 18 38  1  0  0  0  0
 18 39  1  0  0  0  0
 19 40  1  0  0  0  0
 19 41  1  0  0  0  0
M  END
> <s_m_source_file>
AV-unprocessed.smi

> <i_m_source_file_index>
2517

> <i_lp_mmshare_version>
43012

> <i_f3d_flags>
0

> <s_epik_input>
W0NIM11bQ0gyXWMxbm4oW0NIM10pW2NIXWMxW05IXUMoPU8pW05IXVtDSDJdQzIoT1tDSDNdKVtDSDJdW0NIMl1bQ0gyXTI=

> <s_epik_cmdline>
J2VwaWtfcHl0aG9uJywgJy1waCcsICc3LjAnLCAnLXRuJywgJzgnLCAnLW1hJywgJzIwMCcsICctbWV0YWxfYmluZGluZycsICctaW1hZScsICc8aW5maWxlLm1hZT4nLCAnLW9tYWUnLCAnPG91dGZpbGUubWFlPic=

> <r_lp_tautomer_probability>
1

> <r_epik_Ionization_Penalty>
0.000729918

> <r_epik_Ionization_Penalty_Charging>
0

> <r_epik_Ionization_Penalty_Neutral>
0.000729918

> <r_epik_State_Penalty>
-0

> <r_epik_Charging_Adjusted_Penalty>
0

> <i_epik_Tot_Q>
0

> <i_epik_Tot_abs_Q>
0

> <r_epik_Metal_State_Penalty>
-0

> <b_epik_Metal_Only>
0

> <s_lp_Force_Field>
OPLS_2005

> <r_lp_Energy>
14.833

> <b_lp_Chiralities_Consistent>
1

> <s_lp_Variant>
AV-unprocessed.smi:2517-1

> <Gold.Version>
5.8.1

> <Gold.Id.Protein>
6NUR|6NUR_protein|mol2

> <Gold.PLP.Fitness>
45.8209

> <Gold.PLP.PLP>
-43.6620

> <Gold.PLP.part.hbond>
-2.1830

> <Gold.PLP.part.metal>
0.0000

> <Gold.PLP.part.buried>
-3.8318

> <Gold.PLP.part.nonpolar>
-38.0179

> <Gold.PLP.part.repulsive>
1.1819

> <Gold.PLP.ligand.clash>
0.0000

> <Gold.PLP.ligand.torsion>
0.6921

> <Gold.PLP.Chemscore.Hbond>
1.0860

> <Gold.PLP.Chemscore.CHOScore>
0.0000

> <Gold.PLP.Chemscore.Metal>
0.0000

> <Gold.Chemscore.Hbonds>
donor molecule, donor type, donor heavy atom, donor atom, acceptor molecule, acceptor atom, score
      L1  H    12    30       P1  8028  0.94
      P1  H  7989  7998       L1    11  0.38
      P1  H  8022  8030       L1    15  0.20

> <Gold.PLP.Chemscore.Internal.Correction>
0.2851

> <Gold.Rescore>
     Score         DG    S(hbond)    S(metal)    S(lipo)     H(rot)  DE(clash)    DE(int)     intcor
     16.31     -17.25       1.03        0.00     105.14       1.55       0.12       0.83       ----

> <Gold.Chemscore.Fitness>
16.3051

> <Gold.Chemscore.DG>
-17.2495

> <Gold.Chemscore.ZeroCoef>
-5.4800

> <Gold.Chemscore.Hbond>
1.0282

> <Gold.Chemscore.Metal>
0.0000

> <Gold.Chemscore.Lipo>
105.1385

> <Gold.Chemscore.Internal_Hbond>
0.0000

> <Gold.Chemscore.DEClash>
0.1169

> <Gold.Chemscore.DEInternal>
0.8275

> <Gold.Chemscore.Rot>
1.5493

> <Gold.Chemscore.Internal.Correction>
   9.000000E+99

> <Gold.Chemscore.Hbonds>
donor molecule, donor type, donor heavy atom, donor atom, acceptor molecule, acceptor atom, score
      L1  H    12    30       P1  8028  0.92
      P1  H  7989  7998       L1    11  0.19
      P1  H  8022  8030       L1    15  0.19

> <Gold.Chemscore.Hbond.Weighted>
-3.4344

> <Gold.Chemscore.Metal.Weighted>
-0.0000

> <Gold.Chemscore.Lipo.Weighted>
-12.3012

> <Gold.Chemscore.Internal_Hbond.Weighted>
0.0000

> <Gold.Chemscore.DEClash.Weighted>
0.1169

> <Gold.Chemscore.DEInternal.Weighted>
0.8275

> <Gold.Chemscore.Rot.Weighted>
3.9661

> <Gold.Chemscore.Internal.Correction.Weighted>
   9.000000E+99

> <Gold.Protein.RotatedTorsions>
[ 6907 6896 6895 6894 ] final  -91.69 input  -60.11 | X-H torsion
[ 7974 7965 7964 7962 ] final  138.07 input  175.53 | X-H torsion
[ 8008 7997 7996 7995 ] final -155.24 input   59.86 | X-H torsion
[ 10167 10162 10161 10158 ] final  -75.52 input  -65.29 | X-H torsion
[ 10718 10713 10712 10709 ] final  -98.82 input   66.30 | X-H torsion
[ 10763 10752 10751 10750 ] final   59.33 input  -60.55 | X-H torsion
[ 11005 11000 10999 10996 ] final  129.14 input  -57.11 | X-H torsion

> <Gold.Protein.ActiveResidues>
 VAL166  LYS551  ARG553  GLY616  TRP617  ASP618  TYR619  PRO620  LYS621  CYS622 
 ASP623  PHE694  ASN695  SER759  ASP760  ASP761  ALA762  ILE779  LEU786  VAL792 
 PHE793  MET794  SER795  GLU796  ALA797  LYS798  CYS799  TRP800  GLU811  SER814 

> <Gold.Protein.RotatedAtoms>
  150.6896  134.2238  159.4406 H   0  0  0  0  0  0  0  0  0  0  0  0  # atno 6907 bound_to 6896
  152.0192  134.9830  160.0579 H   0  0  0  0  0  0  0  0  0  0  0  0  # atno 6908 bound_to 6896
  152.1413  133.4431  159.4805 H   0  0  0  0  0  0  0  0  0  0  0  0  # atno 6909 bound_to 6896
  144.9407  139.4934  143.5573 H   0  0  0  0  0  0  0  0  0  0  0  0  # atno 7974 bound_to 7965
  155.6988  140.0764  157.2419 H   0  0  0  0  0  0  0  0  0  0  0  0  # atno 8008 bound_to 7997
  154.4076  140.1651  156.2220 H   0  0  0  0  0  0  0  0  0  0  0  0  # atno 8009 bound_to 7997
  155.9387  140.3386  155.6312 H   0  0  0  0  0  0  0  0  0  0  0  0  # atno 8010 bound_to 7997
  140.4935  143.2375  151.7868 H   0  0  0  0  0  0  0  0  0  0  0  0  # atno 10167 bound_to 10162
  156.0117  130.5255  150.6578 H   0  0  0  0  0  0  0  0  0  0  0  0  # atno 10718 bound_to 10713
  152.9892  135.5575  154.5696 H   0  0  0  0  0  0  0  0  0  0  0  0  # atno 10763 bound_to 10752
  154.5099  135.2801  155.1354 H   0  0  0  0  0  0  0  0  0  0  0  0  # atno 10764 bound_to 10752
  154.2750  135.6356  153.5377 H   0  0  0  0  0  0  0  0  0  0  0  0  # atno 10765 bound_to 10752
  139.9599  134.9605  156.9104 H   0  0  0  0  0  0  0  0  0  0  0  0  # atno 11005 bound_to 11000
  146.3284  139.8424  142.8888 LP  0  0  0  0  0  0  0  0  0  0  0  0  # atno 17320 bound_to 7965
  145.2996  141.0190  143.3616 LP  0  0  0  0  0  0  0  0  0  0  0  0  # atno 17321 bound_to 7965
  139.4856  144.4617  151.9533 LP  0  0  0  0  0  0  0  0  0  0  0  0  # atno 17342 bound_to 10162
  140.3704  144.2862  150.5921 LP  0  0  0  0  0  0  0  0  0  0  0  0  # atno 17343 bound_to 10162
  157.4327  131.0851  151.1023 LP  0  0  0  0  0  0  0  0  0  0  0  0  # atno 17370 bound_to 10713
  157.1591  130.6217  149.5605 LP  0  0  0  0  0  0  0  0  0  0  0  0  # atno 17371 bound_to 10713
  140.5524  134.0614  155.7373 LP  0  0  0  0  0  0  0  0  0  0  0  0  # atno 17394 bound_to 11000
  141.1275  133.9359  157.2605 LP  0  0  0  0  0  0  0  0  0  0  0  0  # atno 17395 bound_to 11000

$$$$
