AV-unprocessed.smi:3|AV-procd|sdf|30|dock7
  -GOLD-   2262015143D 1   1.00000     0.00000
 Structure written by MMmdl.
 34 36  0  0  0  0  0  0  0  0  2 V2000
  149.7544  141.7756  156.9145 C   0  0  0  0  0  0  0  0  0  0  0  0
  150.9405  140.9526  156.7240 N   0  0  0  0  0  0  0  0  0  0  0  0
  151.9697  140.9921  157.7657 C   0  0  0  0  0  0  0  0  0  0  0  0
  151.7980  142.1823  158.7091 C   0  0  1  0  0  0  0  0  0  0  0  0
  152.9158  142.5609  159.6931 C   0  0  0  0  0  0  0  0  0  0  0  0
  152.6208  144.0400  159.4269 C   0  0  2  0  0  0  0  0  0  0  0  0
  151.8489  144.7244  160.3898 O   0  0  0  0  0  0  0  0  0  0  0  0
  151.9057  143.6055  158.1437 C   0  0  0  0  0  0  0  0  0  0  0  0
  150.9499  139.9461  155.7261 C   0  0  0  0  0  0  0  0  0  0  0  0
  152.0930  139.2191  155.5791 N   0  0  0  0  0  0  0  0  0  0  0  0
  152.2294  138.2404  154.6753 C   0  0  0  0  0  0  0  0  0  0  0  0
  151.2516  137.8964  153.8348 N   0  3  0  0  0  0  0  0  0  0  0  0
  150.0923  138.5929  153.9324 C   0  0  0  0  0  0  0  0  0  0  0  0
  148.9434  138.4380  153.1862 N   0  0  0  0  0  0  0  0  0  0  0  0
  147.9880  139.3486  153.5966 C   0  0  0  0  0  0  0  0  0  0  0  0
  148.5046  140.1075  154.6161 C   0  0  0  0  0  0  0  0  0  0  0  0
  149.8527  139.6454  154.8576 C   0  0  0  0  0  0  0  0  0  0  0  0
  150.8568  142.1153  159.2585 H   0  0  0  0  0  0  0  0  0  0  0  0
  153.5247  144.6138  159.2189 H   0  0  0  0  0  0  0  0  0  0  0  0
  148.7899  137.7706  152.4434 H   0  0  0  0  0  0  0  0  0  0  0  0
  149.5974  142.4248  156.0532 H   0  0  0  0  0  0  0  0  0  0  0  0
  149.8600  142.4162  157.7908 H   0  0  0  0  0  0  0  0  0  0  0  0
  148.8712  141.1548  157.0670 H   0  0  0  0  0  0  0  0  0  0  0  0
  152.0142  140.0568  158.3238 H   0  0  0  0  0  0  0  0  0  0  0  0
  152.9382  141.0614  157.2694 H   0  0  0  0  0  0  0  0  0  0  0  0
  152.7379  142.2316  160.7174 H   0  0  0  0  0  0  0  0  0  0  0  0
  153.9096  142.2720  159.3485 H   0  0  0  0  0  0  0  0  0  0  0  0
  150.9409  144.5677  160.1796 H   0  0  0  0  0  0  0  0  0  0  0  0
  152.5498  143.6683  157.2651 H   0  0  0  0  0  0  0  0  0  0  0  0
  150.9447  144.0902  157.9673 H   0  0  0  0  0  0  0  0  0  0  0  0
  153.1560  137.6903  154.5996 H   0  0  0  0  0  0  0  0  0  0  0  0
  147.0145  139.3842  153.1286 H   0  0  0  0  0  0  0  0  0  0  0  0
  147.9874  140.9001  155.1342 H   0  0  0  0  0  0  0  0  0  0  0  0
  151.3641  137.1501  153.1489 H   0  0  0  0  0  0  0  0  0  0  0  0
  1  2  1  0  0  0  0
  1 21  1  0  0  0  0
  1 22  1  0  0  0  0
  1 23  1  0  0  0  0
  2  3  1  0  0  0  0
  2  9  1  0  0  0  0
  3  4  1  0  0  0  0
  3 24  1  0  0  0  0
  3 25  1  0  0  0  0
  4 18  1  0  0  0  0
  4  8  1  0  0  0  0
  4  5  1  0  0  0  0
  5  6  1  0  0  0  0
  5 26  1  0  0  0  0
  5 27  1  0  0  0  0
  6 19  1  0  0  0  0
  6  7  1  0  0  0  0
  6  8  1  0  0  0  0
  7 28  1  0  0  0  0
  8 29  1  0  0  0  0
  8 30  1  0  0  0  0
  9 17  1  0  0  0  0
  9 10  2  0  0  0  0
 10 11  1  0  0  0  0
 11 12  2  0  0  0  0
 11 31  1  0  0  0  0
 12 13  1  0  0  0  0
 12 34  1  0  0  0  0
 13 17  2  0  0  0  0
 13 14  1  0  0  0  0
 14 20  1  0  0  0  0
 14 15  1  0  0  0  0
 15 16  2  0  0  0  0
 15 32  1  0  0  0  0
 16 17  1  0  0  0  0
 16 33  1  0  0  0  0
M  CHG  1  12   1
M  END
> <s_m_source_file>
AV-unprocessed.smi

> <i_m_source_file_index>
3

> <i_lp_mmshare_version>
43012

> <i_f3d_flags>
0

> <s_epik_input>
W25IXTFbY0hdW2NIXWMoYzEyKWMobltjSF1uMilOKFtDSDNdKVtDSDJdW0NASF0zW0NIMl1bQ0BASF0oW09IXSlbQ0gyXTM=

> <s_epik_cmdline>
J2VwaWtfcHl0aG9uJywgJy1waCcsICc3LjAnLCAnLXRuJywgJzgnLCAnLW1hJywgJzIwMCcsICctbWV0YWxfYmluZGluZycsICctaW1hZScsICc8aW5maWxlLm1hZT4nLCAnLW9tYWUnLCAnPG91dGZpbGUubWFlPic=

> <r_lp_tautomer_probability>
1.75997e-05

> <r_epik_Ionization_Penalty>
2.28439

> <r_epik_Ionization_Penalty_Charging>
2.28438

> <r_epik_Ionization_Penalty_Neutral>
1.03791e-05

> <r_epik_State_Penalty>
2.43392

> <r_epik_Charging_Adjusted_Penalty>
4.7183

> <i_epik_Tot_Q>
1

> <i_epik_Tot_abs_Q>
1

> <r_epik_Metal_State_Penalty>
2.4464

> <b_epik_Metal_Only>
0

> <s_lp_Force_Field>
OPLS_2005

> <r_lp_Energy>
18.3307

> <b_lp_Chiralities_Consistent>
1

> <s_lp_Variant>
AV-unprocessed.smi:3-4

> <Gold.Version>
5.8.1

> <Gold.Id.Protein>
6NUR|6NUR_protein|mol2

> <Gold.PLP.Fitness>
47.8247

> <Gold.PLP.PLP>
-36.0088

> <Gold.PLP.part.hbond>
-2.9995

> <Gold.PLP.part.metal>
0.0000

> <Gold.PLP.part.buried>
-3.2343

> <Gold.PLP.part.nonpolar>
-30.7500

> <Gold.PLP.part.repulsive>
0.1995

> <Gold.PLP.ligand.clash>
0.0021

> <Gold.PLP.ligand.torsion>
0.1864

> <Gold.PLP.Chemscore.Hbond>
4.0000

> <Gold.PLP.Chemscore.CHOScore>
0.0000

> <Gold.PLP.Chemscore.Metal>
0.0000

> <Gold.Chemscore.Hbonds>
donor molecule, donor type, donor heavy atom, donor atom, acceptor molecule, acceptor atom, score
      L1  H    12    34       P1  7949  1.98
      L1  H    14    20       P1  7948  1.98

> <Gold.PLP.Chemscore.Internal.Correction>
0.1908

> <Gold.Rescore>
     Score         DG    S(hbond)    S(metal)    S(lipo)     H(rot)  DE(clash)    DE(int)     intcor
     15.11     -15.28       1.65        0.00      77.37       1.86       0.01       0.17       ----

> <Gold.Chemscore.Fitness>
15.1062

> <Gold.Chemscore.DG>
-15.2777

> <Gold.Chemscore.ZeroCoef>
-5.4800

> <Gold.Chemscore.Hbond>
1.6523

> <Gold.Chemscore.Metal>
0.0000

> <Gold.Chemscore.Lipo>
77.3679

> <Gold.Chemscore.Internal_Hbond>
0.0000

> <Gold.Chemscore.DEClash>
0.0064

> <Gold.Chemscore.DEInternal>
0.1651

> <Gold.Chemscore.Rot>
1.8645

> <Gold.Chemscore.Internal.Correction>
   9.000000E+99

> <Gold.Chemscore.Hbonds>
donor molecule, donor type, donor heavy atom, donor atom, acceptor molecule, acceptor atom, score
      L1  H    12    34       P1  7949  0.72
      L1  H    14    20       P1  7948  0.94
      P1  H  7997  8009       L1    10  0.01

> <Gold.Chemscore.Hbond.Weighted>
-5.5187

> <Gold.Chemscore.Metal.Weighted>
-0.0000

> <Gold.Chemscore.Lipo.Weighted>
-9.0520

> <Gold.Chemscore.Internal_Hbond.Weighted>
0.0000

> <Gold.Chemscore.DEClash.Weighted>
0.0064

> <Gold.Chemscore.DEInternal.Weighted>
0.1651

> <Gold.Chemscore.Rot.Weighted>
4.7730

> <Gold.Chemscore.Internal.Correction.Weighted>
   9.000000E+99

> <Gold.Protein.RotatedTorsions>
[ 6907 6896 6895 6894 ] final   14.47 input  -60.11 | X-H torsion
[ 7974 7965 7964 7962 ] final -115.16 input  175.53 | X-H torsion
[ 8008 7997 7996 7995 ] final -151.86 input   59.86 | X-H torsion
[ 10167 10162 10161 10158 ] final   19.31 input  -65.29 | X-H torsion
[ 10718 10713 10712 10709 ] final -134.09 input   66.30 | X-H torsion
[ 10763 10752 10751 10750 ] final  -88.86 input  -60.55 | X-H torsion
[ 11005 11000 10999 10996 ] final  -27.80 input  -57.11 | X-H torsion

> <Gold.Protein.ActiveResidues>
 VAL166  LYS551  ARG553  GLY616  TRP617  ASP618  TYR619  PRO620  LYS621  CYS622 
 ASP623  PHE694  ASN695  SER759  ASP760  ASP761  ALA762  ILE779  LEU786  VAL792 
 PHE793  MET794  SER795  GLU796  ALA797  LYS798  CYS799  TRP800  GLU811  SER814 

> <Gold.Protein.RotatedAtoms>
  151.8027  135.0704  160.0402 H   0  0  0  0  0  0  0  0  0  0  0  0  # atno 6907 bound_to 6896
  152.3078  133.5716  159.5669 H   0  0  0  0  0  0  0  0  0  0  0  0  # atno 6908 bound_to 6896
  150.7304  134.0114  159.3713 H   0  0  0  0  0  0  0  0  0  0  0  0  # atno 6909 bound_to 6896
  145.1116  140.8615  143.3866 H   0  0  0  0  0  0  0  0  0  0  0  0  # atno 7974 bound_to 7965
  155.6461  140.0707  157.2602 H   0  0  0  0  0  0  0  0  0  0  0  0  # atno 8008 bound_to 7997
  154.4173  140.1742  156.1674 H   0  0  0  0  0  0  0  0  0  0  0  0  # atno 8009 bound_to 7997
  155.9816  140.3353  155.6671 H   0  0  0  0  0  0  0  0  0  0  0  0  # atno 8010 bound_to 7997
  140.5589  143.9374  150.6628 H   0  0  0  0  0  0  0  0  0  0  0  0  # atno 10167 bound_to 10162
  156.2518  130.7158  151.1059 H   0  0  0  0  0  0  0  0  0  0  0  0  # atno 10718 bound_to 10713
  154.6491  135.5362  153.7880 H   0  0  0  0  0  0  0  0  0  0  0  0  # atno 10763 bound_to 10752
  153.0376  135.6478  154.1044 H   0  0  0  0  0  0  0  0  0  0  0  0  # atno 10764 bound_to 10752
  154.0963  135.2936  155.3241 H   0  0  0  0  0  0  0  0  0  0  0  0  # atno 10765 bound_to 10752
  140.9151  133.7435  156.0724 H   0  0  0  0  0  0  0  0  0  0  0  0  # atno 11005 bound_to 11000
  145.0840  139.2938  143.5769 LP  0  0  0  0  0  0  0  0  0  0  0  0  # atno 17320 bound_to 7965
  146.3526  140.0356  142.8647 LP  0  0  0  0  0  0  0  0  0  0  0  0  # atno 17321 bound_to 7965
  140.2820  143.3383  152.1143 LP  0  0  0  0  0  0  0  0  0  0  0  0  # atno 17342 bound_to 10162
  139.5060  144.6806  151.6017 LP  0  0  0  0  0  0  0  0  0  0  0  0  # atno 17343 bound_to 10162
  157.7217  131.0677  150.6106 LP  0  0  0  0  0  0  0  0  0  0  0  0  # atno 17370 bound_to 10713
  156.6187  130.4400  149.5830 LP  0  0  0  0  0  0  0  0  0  0  0  0  # atno 17371 bound_to 10713
  140.8060  134.3454  157.5426 LP  0  0  0  0  0  0  0  0  0  0  0  0  # atno 17394 bound_to 11000
  139.8764  134.9226  156.3303 LP  0  0  0  0  0  0  0  0  0  0  0  0  # atno 17395 bound_to 11000

$$$$
