AV-unprocessed.smi:1774|AV-procd|sdf|7164|dock6
  -GOLD-   22720 8403D 1   1.00000     0.00000
 Structure written by MMmdl.
 45 46  0  0  0  0  0  0  0  0  1 V2000
  147.8931  133.0849  152.5665 C   0  0  0  0  0  0  0  0  0  0  0  0
  146.5735  133.0662  151.8120 C   0  0  0  0  0  0  0  0  0  0  0  0
  146.0375  131.8312  151.3891 C   0  0  0  0  0  0  0  0  0  0  0  0
  144.8184  131.8161  150.6901 C   0  0  0  0  0  0  0  0  0  0  0  0
  144.1829  133.0446  150.4416 C   0  0  0  0  0  0  0  0  0  0  0  0
  144.6877  134.2291  150.8422 N   0  0  0  0  0  0  0  0  0  0  0  0
  145.8637  134.2616  151.5184 C   0  0  0  0  0  0  0  0  0  0  0  0
  146.4508  135.4738  151.9794 N   0  0  0  0  0  0  0  0  0  0  0  0
  145.8845  136.4556  152.7029 C   0  0  0  0  0  0  0  0  0  0  0  0
  144.7057  136.4907  153.0568 O   0  0  0  0  0  0  0  0  0  0  0  0
  146.7749  137.4154  152.9947 N   0  0  0  0  0  0  0  0  0  0  0  0
  146.5004  138.6093  153.7882 C   0  0  0  0  0  0  0  0  0  0  0  0
  147.5551  139.7078  153.5476 C   0  0  0  0  0  0  0  0  0  0  0  0
  148.6925  139.7030  154.4676 N   0  0  0  0  0  0  0  0  0  0  0  0
  149.1463  141.0488  154.8093 C   0  0  0  0  0  0  0  0  0  0  0  0
  150.3404  141.0199  155.7820 C   0  0  2  0  0  0  0  0  0  0  0  0
  150.8734  142.4233  156.0874 C   0  0  0  0  0  0  0  0  0  0  0  0
  151.3942  140.2542  155.2033 O   0  0  0  0  0  0  0  0  0  0  0  0
  151.0115  138.9179  154.8889 C   0  0  2  0  0  0  0  0  0  0  0  0
  152.2236  138.1977  154.2895 C   0  0  0  0  0  0  0  0  0  0  0  0
  149.8151  138.9527  153.9188 C   0  0  0  0  0  0  0  0  0  0  0  0
  148.2994  132.0797  152.6817 H   0  0  0  0  0  0  0  0  0  0  0  0
  147.7579  133.5083  153.5621 H   0  0  0  0  0  0  0  0  0  0  0  0
  148.6302  133.6842  152.0312 H   0  0  0  0  0  0  0  0  0  0  0  0
  146.5519  130.9043  151.5966 H   0  0  0  0  0  0  0  0  0  0  0  0
  144.3818  130.8875  150.3535 H   0  0  0  0  0  0  0  0  0  0  0  0
  143.2448  133.0783  149.9077 H   0  0  0  0  0  0  0  0  0  0  0  0
  147.4228  135.5997  151.7399 H   0  0  0  0  0  0  0  0  0  0  0  0
  147.7199  137.3039  152.6581 H   0  0  0  0  0  0  0  0  0  0  0  0
  145.5261  138.9843  153.4745 H   0  0  0  0  0  0  0  0  0  0  0  0
  146.3941  138.3680  154.8460 H   0  0  0  0  0  0  0  0  0  0  0  0
  147.9213  139.5972  152.5260 H   0  0  0  0  0  0  0  0  0  0  0  0
  147.0682  140.6836  153.5815 H   0  0  0  0  0  0  0  0  0  0  0  0
  149.4281  141.5844  153.9013 H   0  0  0  0  0  0  0  0  0  0  0  0
  148.3381  141.6172  155.2675 H   0  0  0  0  0  0  0  0  0  0  0  0
  150.0349  140.5503  156.7187 H   0  0  0  0  0  0  0  0  0  0  0  0
  150.1025  143.0434  156.5457 H   0  0  0  0  0  0  0  0  0  0  0  0
  151.2108  142.9243  155.1796 H   0  0  0  0  0  0  0  0  0  0  0  0
  151.7166  142.3778  156.7769 H   0  0  0  0  0  0  0  0  0  0  0  0
  150.7205  138.4082  155.8091 H   0  0  0  0  0  0  0  0  0  0  0  0
  151.9822  137.1641  154.0401 H   0  0  0  0  0  0  0  0  0  0  0  0
  153.0555  138.1841  154.9939 H   0  0  0  0  0  0  0  0  0  0  0  0
  152.5655  138.6916  153.3797 H   0  0  0  0  0  0  0  0  0  0  0  0
  149.5018  137.9314  153.6985 H   0  0  0  0  0  0  0  0  0  0  0  0
  150.1264  139.3950  152.9710 H   0  0  0  0  0  0  0  0  0  0  0  0
  1  2  1  0  0  0  0
  1 22  1  0  0  0  0
  1 23  1  0  0  0  0
  1 24  1  0  0  0  0
  2  7  1  0  0  0  0
  2  3  2  0  0  0  0
  3  4  1  0  0  0  0
  3 25  1  0  0  0  0
  4  5  2  0  0  0  0
  4 26  1  0  0  0  0
  5  6  1  0  0  0  0
  5 27  1  0  0  0  0
  6  7  2  0  0  0  0
  7  8  1  0  0  0  0
  8  9  1  0  0  0  0
  8 28  1  0  0  0  0
  9 10  2  0  0  0  0
  9 11  1  0  0  0  0
 11 12  1  0  0  0  0
 11 29  1  0  0  0  0
 12 13  1  0  0  0  0
 12 30  1  0  0  0  0
 12 31  1  0  0  0  0
 13 14  1  0  0  0  0
 13 32  1  0  0  0  0
 13 33  1  0  0  0  0
 14 21  1  0  0  0  0
 14 15  1  0  0  0  0
 15 16  1  0  0  0  0
 15 34  1  0  0  0  0
 15 35  1  0  0  0  0
 16 17  1  0  0  0  0
 16 18  1  0  0  0  0
 16 36  1  0  0  0  0
 17 37  1  0  0  0  0
 17 38  1  0  0  0  0
 17 39  1  0  0  0  0
 18 19  1  0  0  0  0
 19 20  1  0  0  0  0
 19 21  1  0  0  0  0
 19 40  1  0  0  0  0
 20 41  1  0  0  0  0
 20 42  1  0  0  0  0
 20 43  1  0  0  0  0
 21 44  1  0  0  0  0
 21 45  1  0  0  0  0
M  END
> <s_m_source_file>
AV-unprocessed.smi

> <i_m_source_file_index>
1774

> <i_lp_mmshare_version>
43012

> <i_f3d_flags>
0

> <s_epik_input>
W0NIM11jMVtjSF1bY0hdW2NIXW5jMVtOSF1DKD1PKVtOSF1bQ0gyXVtDSDJdTjJbQ0gyXVtDQEBIXShbQ0gzXSlPW0NAQEhdKFtDSDNdKVtDSDJdMg==

> <s_epik_cmdline>
J2VwaWtfcHl0aG9uJywgJy1waCcsICc3LjAnLCAnLXRuJywgJzgnLCAnLW1hJywgJzIwMCcsICctbWV0YWxfYmluZGluZycsICctaW1hZScsICc8aW5maWxlLm1hZT4nLCAnLW9tYWUnLCAnPG91dGZpbGUubWFlPic=

> <r_epik_Ionization_Penalty>
0.266047

> <r_epik_Ionization_Penalty_Charging>
0

> <r_epik_Ionization_Penalty_Neutral>
0.266047

> <r_epik_State_Penalty>
0.257924

> <r_epik_Charging_Adjusted_Penalty>
0.257924

> <i_epik_Tot_Q>
0

> <i_epik_Tot_abs_Q>
0

> <r_epik_Metal_State_Penalty>
0.257922

> <b_epik_Metal_Only>
0

> <s_lp_Force_Field>
OPLS_2005

> <r_lp_Energy>
26.8029

> <b_lp_Chiralities_Consistent>
1

> <s_lp_Variant>
AV-unprocessed.smi:1774-1

> <Gold.Version>
5.8.1

> <Gold.Id.Protein>
6NUR|6NUR_protein|mol2

> <Gold.PLP.Fitness>
47.7087

> <Gold.PLP.PLP>
-38.3314

> <Gold.PLP.part.hbond>
-3.0000

> <Gold.PLP.part.metal>
0.0000

> <Gold.PLP.part.buried>
-4.4657

> <Gold.PLP.part.nonpolar>
-31.7396

> <Gold.PLP.part.repulsive>
0.5723

> <Gold.PLP.ligand.clash>
0.0000

> <Gold.PLP.ligand.torsion>
1.2804

> <Gold.PLP.Chemscore.Hbond>
2.9760

> <Gold.PLP.Chemscore.CHOScore>
1.0000

> <Gold.PLP.Chemscore.Metal>
0.0000

> <Gold.Chemscore.Hbonds>
donor molecule, donor type, donor heavy atom, donor atom, acceptor molecule, acceptor atom, score
      L1  H     8    28       P1  7948  1.00
      L1  H    11    29       P1  7948  0.96
      P1  H  7989  7998       L1    18  0.95
      L1  C     5    27       P1 10186  0.74

> <Gold.PLP.Chemscore.Internal.Correction>
0.0100

> <Gold.Rescore>
     Score         DG    S(hbond)    S(metal)    S(lipo)     H(rot)  DE(clash)    DE(int)     intcor
     18.49     -19.59       2.07        0.00      93.32       1.46       0.02       1.08       ----

> <Gold.Chemscore.Fitness>
18.4947

> <Gold.Chemscore.DG>
-19.5939

> <Gold.Chemscore.ZeroCoef>
-5.4800

> <Gold.Chemscore.Hbond>
2.0727

> <Gold.Chemscore.Metal>
0.0000

> <Gold.Chemscore.Lipo>
93.3227

> <Gold.Chemscore.Internal_Hbond>
0.0000

> <Gold.Chemscore.DEClash>
0.0208

> <Gold.Chemscore.DEInternal>
1.0784

> <Gold.Chemscore.Rot>
1.4562

> <Gold.Chemscore.Internal.Correction>
   9.000000E+99

> <Gold.Chemscore.Hbonds>
donor molecule, donor type, donor heavy atom, donor atom, acceptor molecule, acceptor atom, score
      L1  H     8    28       P1  7948  0.98
      L1  H    11    29       P1  7948  0.92
      P1  H  7989  7998       L1    18  0.12

> <Gold.Chemscore.Hbond.Weighted>
-6.9230

> <Gold.Chemscore.Metal.Weighted>
-0.0000

> <Gold.Chemscore.Lipo.Weighted>
-10.9188

> <Gold.Chemscore.Internal_Hbond.Weighted>
0.0000

> <Gold.Chemscore.DEClash.Weighted>
0.0208

> <Gold.Chemscore.DEInternal.Weighted>
1.0784

> <Gold.Chemscore.Rot.Weighted>
3.7278

> <Gold.Chemscore.Internal.Correction.Weighted>
   9.000000E+99

> <Gold.Protein.RotatedTorsions>
[ 6907 6896 6895 6894 ] final  108.22 input  -60.11 | X-H torsion
[ 7974 7965 7964 7962 ] final   38.48 input  175.53 | X-H torsion
[ 8008 7997 7996 7995 ] final -169.25 input   59.86 | X-H torsion
[ 10167 10162 10161 10158 ] final -107.85 input  -65.29 | X-H torsion
[ 10718 10713 10712 10709 ] final   69.90 input   66.30 | X-H torsion
[ 10763 10752 10751 10750 ] final   78.35 input  -60.55 | X-H torsion
[ 11005 11000 10999 10996 ] final   34.74 input  -57.11 | X-H torsion

> <Gold.Protein.ActiveResidues>
 VAL166  LYS551  ARG553  GLY616  TRP617  ASP618  TYR619  PRO620  LYS621  CYS622 
 ASP623  PHE694  ASN695  SER759  ASP760  ASP761  ALA762  ILE779  LEU786  VAL792 
 PHE793  MET794  SER795  GLU796  ALA797  LYS798  CYS799  TRP800  GLU811  SER814 

> <Gold.Protein.RotatedAtoms>
  152.5121  133.9121  159.7492 H   0  0  0  0  0  0  0  0  0  0  0  0  # atno 6907 bound_to 6896
  150.9512  133.6539  159.2778 H   0  0  0  0  0  0  0  0  0  0  0  0  # atno 6908 bound_to 6896
  151.3817  135.0946  159.9551 H   0  0  0  0  0  0  0  0  0  0  0  0  # atno 6909 bound_to 6896
  146.1058  139.5767  142.9384 H   0  0  0  0  0  0  0  0  0  0  0  0  # atno 7974 bound_to 7965
  155.9024  140.1043  157.1340 H   0  0  0  0  0  0  0  0  0  0  0  0  # atno 8008 bound_to 7997
  154.4028  140.1290  156.4517 H   0  0  0  0  0  0  0  0  0  0  0  0  # atno 8009 bound_to 7997
  155.7407  140.3467  155.5105 H   0  0  0  0  0  0  0  0  0  0  0  0  # atno 8010 bound_to 7997
  140.1725  143.4031  152.1344 H   0  0  0  0  0  0  0  0  0  0  0  0  # atno 10167 bound_to 10162
  157.6371  130.9450  150.0577 H   0  0  0  0  0  0  0  0  0  0  0  0  # atno 10718 bound_to 10713
  153.0868  135.4880  154.8612 H   0  0  0  0  0  0  0  0  0  0  0  0  # atno 10763 bound_to 10752
  154.7220  135.3041  154.9034 H   0  0  0  0  0  0  0  0  0  0  0  0  # atno 10764 bound_to 10752
  153.9696  135.6803  153.4800 H   0  0  0  0  0  0  0  0  0  0  0  0  # atno 10765 bound_to 10752
  140.2498  134.3317  155.7894 H   0  0  0  0  0  0  0  0  0  0  0  0  # atno 11005 bound_to 11000
  145.5763  141.0388  143.2146 LP  0  0  0  0  0  0  0  0  0  0  0  0  # atno 17320 bound_to 7965
  144.7470  139.7294  143.7288 LP  0  0  0  0  0  0  0  0  0  0  0  0  # atno 17321 bound_to 7965
  139.5332  144.7181  151.4985 LP  0  0  0  0  0  0  0  0  0  0  0  0  # atno 17342 bound_to 10162
  140.6573  143.8573  150.6849 LP  0  0  0  0  0  0  0  0  0  0  0  0  # atno 17343 bound_to 10162
  156.1619  130.3644  149.9287 LP  0  0  0  0  0  0  0  0  0  0  0  0  # atno 17370 bound_to 10713
  156.7282  130.9033  151.3624 LP  0  0  0  0  0  0  0  0  0  0  0  0  # atno 17371 bound_to 10713
  141.2202  133.7347  156.9018 LP  0  0  0  0  0  0  0  0  0  0  0  0  # atno 17394 bound_to 11000
  140.1570  134.9192  157.2666 LP  0  0  0  0  0  0  0  0  0  0  0  0  # atno 17395 bound_to 11000

$$$$
