AV-unprocessed.smi:1599|AV-procd|sdf|6424|dock6
  -GOLD-   22720 7 63D 1   1.00000     0.00000
 Structure written by MMmdl.
 39 40  0  0  0  0  0  0  0  0  1 V2000
  147.2838  140.7120  153.0573 C   0  0  0  0  0  0  0  0  0  0  0  0
  147.7506  139.4329  153.7681 C   0  0  1  0  0  0  0  0  0  0  0  0
  147.4678  138.2764  152.9206 N   0  0  0  0  0  0  0  0  0  0  0  0
  146.2979  137.6261  152.8474 C   0  0  0  0  0  0  0  0  0  0  0  0
  145.2958  137.9454  153.4865 O   0  0  0  0  0  0  0  0  0  0  0  0
  146.3716  136.5916  151.9951 N   0  0  0  0  0  0  0  0  0  0  0  0
  145.3464  135.6647  151.6822 C   0  0  0  0  0  0  0  0  0  0  0  0
  144.0102  135.5998  152.1686 C   0  0  0  0  0  0  0  0  0  0  0  0
  143.3602  134.5763  151.6353 N   0  0  0  0  0  0  0  0  0  0  0  0
  144.2545  133.9808  150.8071 N   0  0  0  0  0  0  0  0  0  0  0  0
  143.8635  132.8017  150.0536 C   0  0  0  0  0  0  0  0  0  0  0  0
  143.3376  133.1712  148.6638 C   0  0  0  0  0  0  0  0  0  0  0  0
  142.3639  132.4089  148.1592 N   0  0  0  0  0  0  0  0  0  0  0  0
  143.8020  134.1305  148.0507 O   0  0  0  0  0  0  0  0  0  0  0  0
  145.4785  134.6217  150.8159 C   0  0  0  0  0  0  0  0  0  0  0  0
  149.2523  139.4729  154.1087 C   0  0  2  0  0  0  0  0  0  0  0  0
  149.8157  138.1636  154.6606 C   0  0  0  0  0  0  0  0  0  0  0  0
  151.0638  138.6158  155.3960 C   0  0  0  0  0  0  0  0  0  0  0  0
  150.7910  140.0899  155.7116 C   0  0  0  0  0  0  0  0  0  0  0  0
  149.5024  140.3718  155.1781 O   0  0  0  0  0  0  0  0  0  0  0  0
  147.4639  141.5929  153.6740 H   0  0  0  0  0  0  0  0  0  0  0  0
  146.2147  140.6750  152.8449 H   0  0  0  0  0  0  0  0  0  0  0  0
  147.8071  140.8561  152.1116 H   0  0  0  0  0  0  0  0  0  0  0  0
  147.1998  139.3484  154.7067 H   0  0  0  0  0  0  0  0  0  0  0  0
  148.2312  137.9380  152.3537 H   0  0  0  0  0  0  0  0  0  0  0  0
  147.2566  136.4438  151.5328 H   0  0  0  0  0  0  0  0  0  0  0  0
  143.4950  136.2359  152.8726 H   0  0  0  0  0  0  0  0  0  0  0  0
  144.7275  132.1398  149.9771 H   0  0  0  0  0  0  0  0  0  0  0  0
  143.0905  132.2580  150.5990 H   0  0  0  0  0  0  0  0  0  0  0  0
  141.9861  132.6103  147.2448 H   0  0  0  0  0  0  0  0  0  0  0  0
  142.0110  131.6297  148.6957 H   0  0  0  0  0  0  0  0  0  0  0  0
  146.3139  134.2858  150.2193 H   0  0  0  0  0  0  0  0  0  0  0  0
  149.8343  139.7868  153.2397 H   0  0  0  0  0  0  0  0  0  0  0  0
  149.1124  137.7198  155.3670 H   0  0  0  0  0  0  0  0  0  0  0  0
  150.0246  137.4272  153.8840 H   0  0  0  0  0  0  0  0  0  0  0  0
  151.2422  138.0236  156.2939 H   0  0  0  0  0  0  0  0  0  0  0  0
  151.9411  138.5260  154.7544 H   0  0  0  0  0  0  0  0  0  0  0  0
  150.8085  140.2930  156.7827 H   0  0  0  0  0  0  0  0  0  0  0  0
  151.5327  140.7298  155.2324 H   0  0  0  0  0  0  0  0  0  0  0  0
  1  2  1  0  0  0  0
  1 21  1  0  0  0  0
  1 22  1  0  0  0  0
  1 23  1  0  0  0  0
  2  3  1  0  0  0  0
  2 16  1  0  0  0  0
  2 24  1  0  0  0  0
  3  4  1  0  0  0  0
  3 25  1  0  0  0  0
  4  5  2  0  0  0  0
  4  6  1  0  0  0  0
  6  7  1  0  0  0  0
  6 26  1  0  0  0  0
  7 15  2  0  0  0  0
  7  8  1  0  0  0  0
  8  9  2  0  0  0  0
  8 27  1  0  0  0  0
  9 10  1  0  0  0  0
 10 11  1  0  0  0  0
 10 15  1  0  0  0  0
 11 12  1  0  0  0  0
 11 28  1  0  0  0  0
 11 29  1  0  0  0  0
 12 13  1  0  0  0  0
 12 14  2  0  0  0  0
 13 30  1  0  0  0  0
 13 31  1  0  0  0  0
 15 32  1  0  0  0  0
 16 20  1  0  0  0  0
 16 17  1  0  0  0  0
 16 33  1  0  0  0  0
 17 18  1  0  0  0  0
 17 34  1  0  0  0  0
 17 35  1  0  0  0  0
 18 19  1  0  0  0  0
 18 36  1  0  0  0  0
 18 37  1  0  0  0  0
 19 20  1  0  0  0  0
 19 38  1  0  0  0  0
 19 39  1  0  0  0  0
M  END
> <s_m_source_file>
AV-unprocessed.smi

> <i_m_source_file_index>
1599

> <i_lp_mmshare_version>
43012

> <i_f3d_flags>
0

> <s_epik_input>
TzFbQ0gyXVtDSDJdW0NIMl1bQ0BIXTFbQ0BIXShbQ0gzXSlbTkhdQyg9TylbTkhdYzJbY0hdbm4oW2NIXTIpW0NIMl1DKD1PKVtOSDJd

> <s_epik_cmdline>
J2VwaWtfcHl0aG9uJywgJy1waCcsICc3LjAnLCAnLXRuJywgJzgnLCAnLW1hJywgJzIwMCcsICctbWV0YWxfYmluZGluZycsICctaW1hZScsICc8aW5maWxlLm1hZT4nLCAnLW9tYWUnLCAnPG91dGZpbGUubWFlPic=

> <r_lp_tautomer_probability>
1

> <r_epik_Ionization_Penalty>
4.15391e-05

> <r_epik_Ionization_Penalty_Charging>
0

> <r_epik_Ionization_Penalty_Neutral>
4.15391e-05

> <r_epik_State_Penalty>
-0

> <r_epik_Charging_Adjusted_Penalty>
0

> <i_epik_Tot_Q>
0

> <i_epik_Tot_abs_Q>
0

> <r_epik_Metal_State_Penalty>
-0

> <b_epik_Metal_Only>
0

> <s_lp_Force_Field>
OPLS_2005

> <r_lp_Energy>
20.7391

> <b_lp_Chiralities_Consistent>
1

> <s_lp_Variant>
AV-unprocessed.smi:1599-2

> <Gold.Version>
5.8.1

> <Gold.Id.Protein>
6NUR|6NUR_protein|mol2

> <Gold.PLP.Fitness>
44.3679

> <Gold.PLP.PLP>
-31.3393

> <Gold.PLP.part.hbond>
-6.2030

> <Gold.PLP.part.metal>
0.0000

> <Gold.PLP.part.buried>
-0.6941

> <Gold.PLP.part.nonpolar>
-31.1825

> <Gold.PLP.part.repulsive>
5.3269

> <Gold.PLP.ligand.clash>
0.0000

> <Gold.PLP.ligand.torsion>
1.2045

> <Gold.PLP.Chemscore.Hbond>
4.2553

> <Gold.PLP.Chemscore.CHOScore>
0.8711

> <Gold.PLP.Chemscore.Metal>
0.0000

> <Gold.Chemscore.Hbonds>
donor molecule, donor type, donor heavy atom, donor atom, acceptor molecule, acceptor atom, score
      L1  H     3    25       P1  7948  0.77
      L1  H     6    26       P1  7948  0.88
      L1  H    13    30       P1 10195  1.00
      L1  H    13    31       P1 10952  1.00
      P1  H 10192 10197       L1    14  0.46
      L1  C    15    32       P1  7921  0.46

> <Gold.PLP.Chemscore.Internal.Correction>
0.0586

> <Gold.Rescore>
     Score         DG    S(hbond)    S(metal)    S(lipo)     H(rot)  DE(clash)    DE(int)     intcor
     13.57     -19.22       3.66        0.00      62.84       2.28       3.41       2.24       ----

> <Gold.Chemscore.Fitness>
13.5726

> <Gold.Chemscore.DG>
-19.2239

> <Gold.Chemscore.ZeroCoef>
-5.4800

> <Gold.Chemscore.Hbond>
3.6628

> <Gold.Chemscore.Metal>
0.0000

> <Gold.Chemscore.Lipo>
62.8443

> <Gold.Chemscore.Internal_Hbond>
0.0000

> <Gold.Chemscore.DEClash>
3.4074

> <Gold.Chemscore.DEInternal>
2.2439

> <Gold.Chemscore.Rot>
2.2823

> <Gold.Chemscore.Internal.Correction>
   9.000000E+99

> <Gold.Chemscore.Hbonds>
donor molecule, donor type, donor heavy atom, donor atom, acceptor molecule, acceptor atom, score
      L1  H     3    25       P1  7948  0.76
      L1  H     6    26       P1  7948  0.86
      L1  H    13    30       P1 10195  0.99
      L1  H    13    31       P1 10952  0.99
      P1  H 10192 10197       L1    14  0.23

> <Gold.Chemscore.Hbond.Weighted>
-12.2337

> <Gold.Chemscore.Metal.Weighted>
-0.0000

> <Gold.Chemscore.Lipo.Weighted>
-7.3528

> <Gold.Chemscore.Internal_Hbond.Weighted>
0.0000

> <Gold.Chemscore.DEClash.Weighted>
3.4074

> <Gold.Chemscore.DEInternal.Weighted>
2.2439

> <Gold.Chemscore.Rot.Weighted>
5.8427

> <Gold.Chemscore.Internal.Correction.Weighted>
   9.000000E+99

> <Gold.Protein.RotatedTorsions>
[ 6907 6896 6895 6894 ] final   94.98 input  -60.11 | X-H torsion
[ 7974 7965 7964 7962 ] final  162.45 input  175.53 | X-H torsion
[ 8008 7997 7996 7995 ] final  -75.80 input   59.86 | X-H torsion
[ 10167 10162 10161 10158 ] final  -38.08 input  -65.29 | X-H torsion
[ 10718 10713 10712 10709 ] final  150.16 input   66.30 | X-H torsion
[ 10763 10752 10751 10750 ] final -175.94 input  -60.55 | X-H torsion
[ 11005 11000 10999 10996 ] final  157.37 input  -57.11 | X-H torsion

> <Gold.Protein.ActiveResidues>
 VAL166  LYS551  ARG553  GLY616  TRP617  ASP618  TYR619  PRO620  LYS621  CYS622 
 ASP623  PHE694  ASN695  SER759  ASP760  ASP761  ALA762  ILE779  LEU786  VAL792 
 PHE793  MET794  SER795  GLU796  ALA797  LYS798  CYS799  TRP800  GLU811  SER814 

> <Gold.Protein.RotatedAtoms>
  152.5446  134.1109  159.8357 H   0  0  0  0  0  0  0  0  0  0  0  0  # atno 6907 bound_to 6896
  151.1176  133.5120  159.2610 H   0  0  0  0  0  0  0  0  0  0  0  0  # atno 6908 bound_to 6896
  151.1814  135.0372  159.8848 H   0  0  0  0  0  0  0  0  0  0  0  0  # atno 6909 bound_to 6896
  144.7636  139.8042  143.6323 H   0  0  0  0  0  0  0  0  0  0  0  0  # atno 7974 bound_to 7965
  154.5449  140.0738  156.8571 H   0  0  0  0  0  0  0  0  0  0  0  0  # atno 8008 bound_to 7997
  155.3108  140.3390  155.4226 H   0  0  0  0  0  0  0  0  0  0  0  0  # atno 8009 bound_to 7997
  156.1908  140.1685  156.8081 H   0  0  0  0  0  0  0  0  0  0  0  0  # atno 8010 bound_to 7997
  140.7102  143.3300  151.2590 H   0  0  0  0  0  0  0  0  0  0  0  0  # atno 10167 bound_to 10162
  157.2870  131.0846  151.1490 H   0  0  0  0  0  0  0  0  0  0  0  0  # atno 10718 bound_to 10713
  154.5784  135.2834  155.0758 H   0  0  0  0  0  0  0  0  0  0  0  0  # atno 10763 bound_to 10752
  154.2103  135.6409  153.5117 H   0  0  0  0  0  0  0  0  0  0  0  0  # atno 10764 bound_to 10752
  153.0080  135.5490  154.6430 H   0  0  0  0  0  0  0  0  0  0  0  0  # atno 10765 bound_to 10752
  140.1763  134.8507  157.2750 H   0  0  0  0  0  0  0  0  0  0  0  0  # atno 11005 bound_to 11000
  146.1723  139.4878  142.9920 LP  0  0  0  0  0  0  0  0  0  0  0  0  # atno 17320 bound_to 7965
  145.6540  141.0256  143.1744 LP  0  0  0  0  0  0  0  0  0  0  0  0  # atno 17321 bound_to 7965
  139.6780  143.9905  152.2792 LP  0  0  0  0  0  0  0  0  0  0  0  0  # atno 17342 bound_to 10162
  139.9525  144.6611  150.8158 LP  0  0  0  0  0  0  0  0  0  0  0  0  # atno 17343 bound_to 10162
  157.2901  130.6792  149.6110 LP  0  0  0  0  0  0  0  0  0  0  0  0  # atno 17370 bound_to 10713
  155.9666  130.4423  150.5376 LP  0  0  0  0  0  0  0  0  0  0  0  0  # atno 17371 bound_to 10713
  140.2319  134.3899  155.7518 LP  0  0  0  0  0  0  0  0  0  0  0  0  # atno 17394 bound_to 11000
  141.2220  133.7219  156.8654 LP  0  0  0  0  0  0  0  0  0  0  0  0  # atno 17395 bound_to 11000

$$$$
