AV-unprocessed.smi:2684|AV-procd|sdf|10380|dock7
  -GOLD-   2272014413D 1   1.00000     0.00000
 Structure written by MMmdl.
 44 45  0  0  0  0  0  0  0  0  1 V2000
  151.4651  145.8150  159.8233 C   0  0  0  0  0  0  0  0  0  0  0  0
  151.9364  144.4702  160.2940 C   0  0  0  0  0  0  0  0  0  0  0  0
  152.1562  144.0389  161.6328 C   0  0  0  0  0  0  0  0  0  0  0  0
  152.5860  142.7899  161.7069 N   0  0  0  0  0  0  0  0  0  0  0  0
  152.6440  142.3767  160.4226 N   0  0  0  0  0  0  0  0  0  0  0  0
  153.0927  141.0307  160.1126 C   0  0  0  0  0  0  0  0  0  0  0  0
  152.8778  140.6252  158.6365 C   0  0  2  0  0  0  0  0  0  0  0  0
  151.3904  140.6954  158.2639 C   0  0  0  0  0  0  0  0  0  0  0  0
  153.3149  139.2507  158.4047 N   0  0  0  0  0  0  0  0  0  0  0  0
  152.4341  138.2701  159.0518 C   0  0  0  0  0  0  0  0  0  0  0  0
  153.1287  137.5759  160.2316 C   0  0  0  0  0  0  0  0  0  0  0  0
  153.2337  136.3506  160.2233 O   0  0  0  0  0  0  0  0  0  0  0  0
  153.6251  138.2944  161.2548 N   0  0  0  0  0  0  0  0  0  0  0  0
  154.3132  137.8261  162.4562 C   0  0  0  0  0  0  0  0  0  0  0  0
  153.3647  137.0432  163.3836 C   0  0  0  0  0  0  0  0  0  0  0  0
  154.0620  136.7061  164.7108 C   0  0  0  0  0  0  0  0  0  0  0  0
  154.5130  137.9006  165.3395 O   0  0  0  0  0  0  0  0  0  0  0  0
  155.4804  138.6026  164.5673 C   0  0  0  0  0  0  0  0  0  0  0  0
  154.8739  139.0344  163.2222 C   0  0  0  0  0  0  0  0  0  0  0  0
  152.2615  143.3722  159.5492 C   0  0  0  0  0  0  0  0  0  0  0  0
  150.8903  146.3342  160.5905 H   0  0  0  0  0  0  0  0  0  0  0  0
  150.8269  145.7326  158.9431 H   0  0  0  0  0  0  0  0  0  0  0  0
  152.3013  146.4614  159.5554 H   0  0  0  0  0  0  0  0  0  0  0  0
  152.0214  144.5958  162.5483 H   0  0  0  0  0  0  0  0  0  0  0  0
  154.1464  140.9431  160.3824 H   0  0  0  0  0  0  0  0  0  0  0  0
  152.5515  140.3457  160.7670 H   0  0  0  0  0  0  0  0  0  0  0  0
  153.4078  141.3166  157.9784 H   0  0  0  0  0  0  0  0  0  0  0  0
  151.0024  141.7057  158.3955 H   0  0  0  0  0  0  0  0  0  0  0  0
  150.7902  140.0277  158.8834 H   0  0  0  0  0  0  0  0  0  0  0  0
  151.2305  140.4182  157.2211 H   0  0  0  0  0  0  0  0  0  0  0  0
  154.2616  139.1496  158.7425 H   0  0  0  0  0  0  0  0  0  0  0  0
  151.5499  138.7782  159.4389 H   0  0  0  0  0  0  0  0  0  0  0  0
  152.0825  137.5566  158.3131 H   0  0  0  0  0  0  0  0  0  0  0  0
  153.5200  139.2960  161.1823 H   0  0  0  0  0  0  0  0  0  0  0  0
  155.1561  137.1958  162.1713 H   0  0  0  0  0  0  0  0  0  0  0  0
  152.4735  137.6380  163.5884 H   0  0  0  0  0  0  0  0  0  0  0  0
  153.0204  136.1247  162.9093 H   0  0  0  0  0  0  0  0  0  0  0  0
  153.3676  136.1975  165.3796 H   0  0  0  0  0  0  0  0  0  0  0  0
  154.9008  136.0277  164.5475 H   0  0  0  0  0  0  0  0  0  0  0  0
  155.8084  139.4786  165.1270 H   0  0  0  0  0  0  0  0  0  0  0  0
  156.3607  137.9783  164.4151 H   0  0  0  0  0  0  0  0  0  0  0  0
  155.6266  139.5469  162.6222 H   0  0  0  0  0  0  0  0  0  0  0  0
  154.0785  139.7576  163.4083 H   0  0  0  0  0  0  0  0  0  0  0  0
  152.2524  143.2180  158.4803 H   0  0  0  0  0  0  0  0  0  0  0  0
  1  2  1  0  0  0  0
  1 21  1  0  0  0  0
  1 22  1  0  0  0  0
  1 23  1  0  0  0  0
  2 20  2  0  0  0  0
  2  3  1  0  0  0  0
  3  4  2  0  0  0  0
  3 24  1  0  0  0  0
  4  5  1  0  0  0  0
  5  6  1  0  0  0  0
  5 20  1  0  0  0  0
  6  7  1  0  0  0  0
  6 25  1  0  0  0  0
  6 26  1  0  0  0  0
  7  8  1  0  0  0  0
  7  9  1  0  0  0  0
  7 27  1  0  0  0  0
  8 28  1  0  0  0  0
  8 29  1  0  0  0  0
  8 30  1  0  0  0  0
  9 10  1  0  0  0  0
  9 31  1  0  0  0  0
 10 11  1  0  0  0  0
 10 32  1  0  0  0  0
 10 33  1  0  0  0  0
 11 12  2  0  0  0  0
 11 13  1  0  0  0  0
 13 14  1  0  0  0  0
 13 34  1  0  0  0  0
 14 19  1  0  0  0  0
 14 15  1  0  0  0  0
 14 35  1  0  0  0  0
 15 16  1  0  0  0  0
 15 36  1  0  0  0  0
 15 37  1  0  0  0  0
 16 17  1  0  0  0  0
 16 38  1  0  0  0  0
 16 39  1  0  0  0  0
 17 18  1  0  0  0  0
 18 19  1  0  0  0  0
 18 40  1  0  0  0  0
 18 41  1  0  0  0  0
 19 42  1  0  0  0  0
 19 43  1  0  0  0  0
 20 44  1  0  0  0  0
M  END
> <s_m_source_file>
AV-unprocessed.smi

> <i_m_source_file_index>
2684

> <i_lp_mmshare_version>
43012

> <i_f3d_flags>
0

> <s_epik_input>
W0NIM11jMVtjSF1ubihbY0hdMSlbQ0gyXVtDQEhdKFtDSDNdKVtOSF1bQ0gyXUMoPU8pW05IXVtDSF0yW0NIMl1bQ0gyXU9bQ0gyXVtDSDJdMg==

> <s_epik_cmdline>
J2VwaWtfcHl0aG9uJywgJy1waCcsICc3LjAnLCAnLXRuJywgJzgnLCAnLW1hJywgJzIwMCcsICctbWV0YWxfYmluZGluZycsICctaW1hZScsICc8aW5maWxlLm1hZT4nLCAnLW9tYWUnLCAnPG91dGZpbGUubWFlPic=

> <r_lp_tautomer_probability>
1

> <r_epik_Ionization_Penalty>
0.968507

> <r_epik_Ionization_Penalty_Charging>
0

> <r_epik_Ionization_Penalty_Neutral>
0.968507

> <r_epik_State_Penalty>
1.01412

> <r_epik_Charging_Adjusted_Penalty>
1.01412

> <i_epik_Tot_Q>
0

> <i_epik_Tot_abs_Q>
0

> <r_epik_Metal_State_Penalty>
1.01401

> <b_epik_Metal_Only>
0

> <s_lp_Force_Field>
OPLS_2005

> <r_lp_Energy>
12.1402

> <b_lp_Chiralities_Consistent>
1

> <s_lp_Variant>
AV-unprocessed.smi:2684-3

> <Gold.Version>
5.8.1

> <Gold.Id.Protein>
6NUR|6NUR_protein|mol2

> <Gold.PLP.Fitness>
45.9487

> <Gold.PLP.PLP>
-44.0604

> <Gold.PLP.part.hbond>
-2.0000

> <Gold.PLP.part.metal>
0.0000

> <Gold.PLP.part.buried>
-5.0617

> <Gold.PLP.part.nonpolar>
-35.3918

> <Gold.PLP.part.repulsive>
0.1857

> <Gold.PLP.ligand.clash>
0.0000

> <Gold.PLP.ligand.torsion>
0.5694

> <Gold.PLP.Chemscore.Hbond>
1.0000

> <Gold.PLP.Chemscore.CHOScore>
0.0000

> <Gold.PLP.Chemscore.Metal>
0.0000

> <Gold.Chemscore.Hbonds>
donor molecule, donor type, donor heavy atom, donor atom, acceptor molecule, acceptor atom, score
      P1  H  6896  6908       L1    12  1.00

> <Gold.PLP.Chemscore.Internal.Correction>
0.0272

> <Gold.Rescore>
     Score         DG    S(hbond)    S(metal)    S(lipo)     H(rot)  DE(clash)    DE(int)     intcor
     16.15     -16.77       1.00        0.00     111.18       1.97       0.05       0.58       ----

> <Gold.Chemscore.Fitness>
16.1459

> <Gold.Chemscore.DG>
-16.7740

> <Gold.Chemscore.ZeroCoef>
-5.4800

> <Gold.Chemscore.Hbond>
0.9995

> <Gold.Chemscore.Metal>
0.0000

> <Gold.Chemscore.Lipo>
111.1788

> <Gold.Chemscore.Internal_Hbond>
0.0000

> <Gold.Chemscore.DEClash>
0.0497

> <Gold.Chemscore.DEInternal>
0.5784

> <Gold.Chemscore.Rot>
1.9736

> <Gold.Chemscore.Internal.Correction>
   9.000000E+99

> <Gold.Chemscore.Hbonds>
donor molecule, donor type, donor heavy atom, donor atom, acceptor molecule, acceptor atom, score
      P1  H  6896  6908       L1    12  1.00

> <Gold.Chemscore.Hbond.Weighted>
-3.3384

> <Gold.Chemscore.Metal.Weighted>
-0.0000

> <Gold.Chemscore.Lipo.Weighted>
-13.0079

> <Gold.Chemscore.Internal_Hbond.Weighted>
0.0000

> <Gold.Chemscore.DEClash.Weighted>
0.0497

> <Gold.Chemscore.DEInternal.Weighted>
0.5784

> <Gold.Chemscore.Rot.Weighted>
5.0523

> <Gold.Chemscore.Internal.Correction.Weighted>
   9.000000E+99

> <Gold.Protein.RotatedTorsions>
[ 6907 6896 6895 6894 ] final  -80.12 input  -60.11 | X-H torsion
[ 7974 7965 7964 7962 ] final -179.89 input  175.53 | X-H torsion
[ 8008 7997 7996 7995 ] final -107.88 input   59.86 | X-H torsion
[ 10167 10162 10161 10158 ] final   77.86 input  -65.29 | X-H torsion
[ 10718 10713 10712 10709 ] final   90.16 input   66.30 | X-H torsion
[ 10763 10752 10751 10750 ] final -168.90 input  -60.55 | X-H torsion
[ 11005 11000 10999 10996 ] final -110.70 input  -57.11 | X-H torsion

> <Gold.Protein.ActiveResidues>
 VAL166  LYS551  ARG553  GLY616  TRP617  ASP618  TYR619  PRO620  LYS621  CYS622 
 ASP623  PHE694  ASN695  SER759  ASP760  ASP761  ALA762  ILE779  LEU786  VAL792 
 PHE793  MET794  SER795  GLU796  ALA797  LYS798  CYS799  TRP800  GLU811  SER814 

> <Gold.Protein.RotatedAtoms>
  150.6936  134.4018  159.5121 H   0  0  0  0  0  0  0  0  0  0  0  0  # atno 6907 bound_to 6896
  152.1790  134.8767  160.0537 H   0  0  0  0  0  0  0  0  0  0  0  0  # atno 6908 bound_to 6896
  151.9765  133.3708  159.4128 H   0  0  0  0  0  0  0  0  0  0  0  0  # atno 6909 bound_to 6896
  144.7140  140.0650  143.6431 H   0  0  0  0  0  0  0  0  0  0  0  0  # atno 7974 bound_to 7965
  154.9359  140.0404  157.2072 H   0  0  0  0  0  0  0  0  0  0  0  0  # atno 8008 bound_to 7997
  154.8116  140.2869  155.5827 H   0  0  0  0  0  0  0  0  0  0  0  0  # atno 8009 bound_to 7997
  156.2972  140.2536  156.3005 H   0  0  0  0  0  0  0  0  0  0  0  0  # atno 8010 bound_to 7997
  139.9771  144.5853  150.7933 H   0  0  0  0  0  0  0  0  0  0  0  0  # atno 10167 bound_to 10162
  157.6958  131.0360  150.3535 H   0  0  0  0  0  0  0  0  0  0  0  0  # atno 10718 bound_to 10713
  154.6580  135.2921  154.9903 H   0  0  0  0  0  0  0  0  0  0  0  0  # atno 10763 bound_to 10752
  154.0973  135.6582  153.4866 H   0  0  0  0  0  0  0  0  0  0  0  0  # atno 10764 bound_to 10752
  153.0413  135.5234  154.7518 H   0  0  0  0  0  0  0  0  0  0  0  0  # atno 10765 bound_to 10752
  141.0777  133.9273  157.2355 H   0  0  0  0  0  0  0  0  0  0  0  0  # atno 11005 bound_to 11000
  145.9832  139.2957  143.1029 LP  0  0  0  0  0  0  0  0  0  0  0  0  # atno 17320 bound_to 7965
  145.8987  140.9257  143.0514 LP  0  0  0  0  0  0  0  0  0  0  0  0  # atno 17321 bound_to 7965
  140.7502  143.2951  151.3226 LP  0  0  0  0  0  0  0  0  0  0  0  0  # atno 17342 bound_to 10162
  139.6437  144.0490  152.2574 LP  0  0  0  0  0  0  0  0  0  0  0  0  # atno 17343 bound_to 10162
  156.3980  130.3910  149.6980 LP  0  0  0  0  0  0  0  0  0  0  0  0  # atno 17370 bound_to 10713
  156.4307  130.7814  151.2833 LP  0  0  0  0  0  0  0  0  0  0  0  0  # atno 17371 bound_to 10713
  139.9589  135.0159  156.9207 LP  0  0  0  0  0  0  0  0  0  0  0  0  # atno 17394 bound_to 11000
  140.5537  134.0602  155.7377 LP  0  0  0  0  0  0  0  0  0  0  0  0  # atno 17395 bound_to 11000

$$$$
