AV-unprocessed.smi:1991|AV-procd|sdf|8067|dock3
  -GOLD-   2272010273D 1   1.00000     0.00000
 Structure written by MMmdl.
 44 45  0  0  0  0  0  0  0  0  1 V2000
  143.8780  135.4581  153.7908 C   0  0  0  0  0  0  0  0  0  0  0  0
  144.8533  136.3577  153.0167 C   0  0  2  0  0  0  0  0  0  0  0  0
  145.6430  135.5161  152.1802 O   0  0  0  0  0  0  0  0  0  0  0  0
  144.9238  134.7672  151.2053 C   0  0  0  0  0  0  0  0  0  0  0  0
  145.3801  133.3041  151.2521 C   0  0  0  0  0  0  0  0  0  0  0  0
  144.9160  132.6656  150.1784 F   0  0  0  0  0  0  0  0  0  0  0  0
  146.7110  133.2360  151.2492 F   0  0  0  0  0  0  0  0  0  0  0  0
  144.9028  132.7069  152.3437 F   0  0  0  0  0  0  0  0  0  0  0  0
  145.7501  137.1668  153.9679 C   0  0  0  0  0  0  0  0  0  0  0  0
  145.2600  137.7673  154.9243 O   0  0  0  0  0  0  0  0  0  0  0  0
  147.0638  137.1635  153.6920 N   0  0  0  0  0  0  0  0  0  0  0  0
  148.0975  137.8627  154.4488 C   0  0  0  0  0  0  0  0  0  0  0  0
  148.0059  139.3795  154.3049 C   0  0  0  0  0  0  0  0  0  0  0  0
  146.8420  139.9532  153.7474 C   0  0  0  0  0  0  0  0  0  0  0  0
  146.7558  141.3506  153.6141 C   0  0  0  0  0  0  0  0  0  0  0  0
  147.8425  142.1294  154.0500 C   0  0  0  0  0  0  0  0  0  0  0  0
  148.9598  141.6001  154.5893 N   0  0  0  0  0  0  0  0  0  0  0  0
  149.0464  140.2535  154.7186 C   0  0  0  0  0  0  0  0  0  0  0  0
  150.2279  139.7435  155.2793 N   0  0  0  0  0  0  0  0  0  0  0  0
  151.0285  140.7376  155.9829 C   0  0  0  0  0  0  0  0  0  0  0  0
  152.2148  140.0533  156.6833 C   0  0  0  0  0  0  0  0  0  0  0  0
  152.9744  139.3179  155.7279 O   0  0  0  0  0  0  0  0  0  0  0  0
  152.2022  138.2994  155.0977 C   0  0  0  0  0  0  0  0  0  0  0  0
  151.0149  138.9366  154.3557 C   0  0  0  0  0  0  0  0  0  0  0  0
  143.2596  136.0402  154.4753 H   0  0  0  0  0  0  0  0  0  0  0  0
  144.4053  134.7022  154.3742 H   0  0  0  0  0  0  0  0  0  0  0  0
  143.2091  134.9356  153.1067 H   0  0  0  0  0  0  0  0  0  0  0  0
  144.2668  137.0386  152.3969 H   0  0  0  0  0  0  0  0  0  0  0  0
  143.8531  134.8244  151.4064 H   0  0  0  0  0  0  0  0  0  0  0  0
  145.0896  135.1688  150.2050 H   0  0  0  0  0  0  0  0  0  0  0  0
  147.3727  136.6382  152.8872 H   0  0  0  0  0  0  0  0  0  0  0  0
  148.0436  137.6154  155.5100 H   0  0  0  0  0  0  0  0  0  0  0  0
  149.0585  137.4780  154.1110 H   0  0  0  0  0  0  0  0  0  0  0  0
  146.0202  139.3312  153.4248 H   0  0  0  0  0  0  0  0  0  0  0  0
  145.8776  141.8135  153.1892 H   0  0  0  0  0  0  0  0  0  0  0  0
  147.8139  143.2056  153.9647 H   0  0  0  0  0  0  0  0  0  0  0  0
  151.3958  141.4842  155.2773 H   0  0  0  0  0  0  0  0  0  0  0  0
  150.4104  141.2590  156.7148 H   0  0  0  0  0  0  0  0  0  0  0  0
  152.8573  140.7993  157.1511 H   0  0  0  0  0  0  0  0  0  0  0  0
  151.8676  139.3887  157.4762 H   0  0  0  0  0  0  0  0  0  0  0  0
  152.8354  137.7543  154.3975 H   0  0  0  0  0  0  0  0  0  0  0  0
  151.8551  137.5798  155.8409 H   0  0  0  0  0  0  0  0  0  0  0  0
  150.3877  138.1607  153.9151 H   0  0  0  0  0  0  0  0  0  0  0  0
  151.3797  139.5610  153.5389 H   0  0  0  0  0  0  0  0  0  0  0  0
  1  2  1  0  0  0  0
  1 25  1  0  0  0  0
  1 26  1  0  0  0  0
  1 27  1  0  0  0  0
  2  3  1  0  0  0  0
  2  9  1  0  0  0  0
  2 28  1  0  0  0  0
  3  4  1  0  0  0  0
  4  5  1  0  0  0  0
  4 29  1  0  0  0  0
  4 30  1  0  0  0  0
  5  6  1  0  0  0  0
  5  7  1  0  0  0  0
  5  8  1  0  0  0  0
  9 10  2  0  0  0  0
  9 11  1  0  0  0  0
 11 12  1  0  0  0  0
 11 31  1  0  0  0  0
 12 13  1  0  0  0  0
 12 32  1  0  0  0  0
 12 33  1  0  0  0  0
 13 18  1  0  0  0  0
 13 14  2  0  0  0  0
 14 15  1  0  0  0  0
 14 34  1  0  0  0  0
 15 16  2  0  0  0  0
 15 35  1  0  0  0  0
 16 17  1  0  0  0  0
 16 36  1  0  0  0  0
 17 18  2  0  0  0  0
 18 19  1  0  0  0  0
 19 24  1  0  0  0  0
 19 20  1  0  0  0  0
 20 21  1  0  0  0  0
 20 37  1  0  0  0  0
 20 38  1  0  0  0  0
 21 22  1  0  0  0  0
 21 39  1  0  0  0  0
 21 40  1  0  0  0  0
 22 23  1  0  0  0  0
 23 24  1  0  0  0  0
 23 41  1  0  0  0  0
 23 42  1  0  0  0  0
 24 43  1  0  0  0  0
 24 44  1  0  0  0  0
M  END
> <s_m_source_file>
AV-unprocessed.smi

> <i_m_source_file_index>
1991

> <i_lp_mmshare_version>
43012

> <i_f3d_flags>
0

> <s_epik_input>
RkMoRikoRilbQ0gyXU9bQ0BASF0oW0NIM10pQyg9TylbTkhdW0NIMl1jMVtjSF1bY0hdW2NIXW5jMU4yW0NIMl1bQ0gyXU9bQ0gyXVtDSDJdMg==

> <s_epik_cmdline>
J2VwaWtfcHl0aG9uJywgJy1waCcsICc3LjAnLCAnLXRuJywgJzgnLCAnLW1hJywgJzIwMCcsICctbWV0YWxfYmluZGluZycsICctaW1hZScsICc8aW5maWxlLm1hZT4nLCAnLW9tYWUnLCAnPG91dGZpbGUubWFlPic=

> <r_lp_tautomer_probability>
1

> <r_epik_Ionization_Penalty>
0.00436412

> <r_epik_Ionization_Penalty_Charging>
0

> <r_epik_Ionization_Penalty_Neutral>
0.00436412

> <r_epik_State_Penalty>
0.00314317

> <r_epik_Charging_Adjusted_Penalty>
0.00314317

> <i_epik_Tot_Q>
0

> <i_epik_Tot_abs_Q>
0

> <r_epik_Metal_State_Penalty>
-0

> <b_epik_Metal_Only>
0

> <s_lp_Force_Field>
OPLS_2005

> <r_lp_Energy>
21.8151

> <b_lp_Chiralities_Consistent>
1

> <s_lp_Variant>
AV-unprocessed.smi:1991-1

> <Gold.Version>
5.8.1

> <Gold.Id.Protein>
6NUR|6NUR_protein|mol2

> <Gold.PLP.Fitness>
42.9342

> <Gold.PLP.PLP>
-36.5923

> <Gold.PLP.part.hbond>
-2.1094

> <Gold.PLP.part.metal>
0.0000

> <Gold.PLP.part.buried>
-4.5705

> <Gold.PLP.part.nonpolar>
-30.0211

> <Gold.PLP.part.repulsive>
0.4122

> <Gold.PLP.ligand.clash>
0.0000

> <Gold.PLP.ligand.torsion>
1.1708

> <Gold.PLP.Chemscore.Hbond>
1.9120

> <Gold.PLP.Chemscore.CHOScore>
0.9110

> <Gold.PLP.Chemscore.Metal>
0.0000

> <Gold.Chemscore.Hbonds>
donor molecule, donor type, donor heavy atom, donor atom, acceptor molecule, acceptor atom, score
      L1  H    11    31       P1  7948  0.85
      P1  H  7997  8010       L1    22  0.60
      L1  C    16    36       P1  8028  0.88

> <Gold.PLP.Chemscore.Internal.Correction>
0.2145

> <Gold.Rescore>
     Score         DG    S(hbond)    S(metal)    S(lipo)     H(rot)  DE(clash)    DE(int)     intcor
     12.53     -13.85       1.94        0.00      70.62       2.49       0.18       1.14       ----

> <Gold.Chemscore.Fitness>
12.5263

> <Gold.Chemscore.DG>
-13.8521

> <Gold.Chemscore.ZeroCoef>
-5.4800

> <Gold.Chemscore.Hbond>
1.9413

> <Gold.Chemscore.Metal>
0.0000

> <Gold.Chemscore.Lipo>
70.6195

> <Gold.Chemscore.Internal_Hbond>
0.0000

> <Gold.Chemscore.DEClash>
0.1817

> <Gold.Chemscore.DEInternal>
1.1441

> <Gold.Chemscore.Rot>
2.4899

> <Gold.Chemscore.Internal.Correction>
   9.000000E+99

> <Gold.Chemscore.Hbonds>
donor molecule, donor type, donor heavy atom, donor atom, acceptor molecule, acceptor atom, score
      L1  H    11    31       P1  7948  0.83
      P1  H  7997  8010       L1    22  0.04

> <Gold.Chemscore.Hbond.Weighted>
-6.4838

> <Gold.Chemscore.Metal.Weighted>
-0.0000

> <Gold.Chemscore.Lipo.Weighted>
-8.2625

> <Gold.Chemscore.Internal_Hbond.Weighted>
0.0000

> <Gold.Chemscore.DEClash.Weighted>
0.1817

> <Gold.Chemscore.DEInternal.Weighted>
1.1441

> <Gold.Chemscore.Rot.Weighted>
6.3741

> <Gold.Chemscore.Internal.Correction.Weighted>
   9.000000E+99

> <Gold.Protein.RotatedTorsions>
[ 6907 6896 6895 6894 ] final   87.86 input  -60.11 | X-H torsion
[ 7974 7965 7964 7962 ] final  -49.53 input  175.53 | X-H torsion
[ 8008 7997 7996 7995 ] final   90.59 input   59.86 | X-H torsion
[ 10167 10162 10161 10158 ] final -134.43 input  -65.29 | X-H torsion
[ 10718 10713 10712 10709 ] final  -50.16 input   66.30 | X-H torsion
[ 10763 10752 10751 10750 ] final -157.71 input  -60.55 | X-H torsion
[ 11005 11000 10999 10996 ] final  -32.42 input  -57.11 | X-H torsion

> <Gold.Protein.ActiveResidues>
 VAL166  LYS551  ARG553  GLY616  TRP617  ASP618  TYR619  PRO620  LYS621  CYS622 
 ASP623  PHE694  ASN695  SER759  ASP760  ASP761  ALA762  ILE779  LEU786  VAL792 
 PHE793  MET794  SER795  GLU796  ALA797  LYS798  CYS799  TRP800  GLU811  SER814 

> <Gold.Protein.RotatedAtoms>
  152.5417  134.2211  159.8787 H   0  0  0  0  0  0  0  0  0  0  0  0  # atno 6907 bound_to 6896
  151.2188  133.4507  159.2607 H   0  0  0  0  0  0  0  0  0  0  0  0  # atno 6908 bound_to 6896
  151.0825  134.9880  159.8419 H   0  0  0  0  0  0  0  0  0  0  0  0  # atno 6909 bound_to 6896
  145.9396  140.7674  142.9558 H   0  0  0  0  0  0  0  0  0  0  0  0  # atno 7974 bound_to 7965
  156.0138  140.3347  155.6967 H   0  0  0  0  0  0  0  0  0  0  0  0  # atno 8008 bound_to 7997
  155.6121  140.0666  157.2721 H   0  0  0  0  0  0  0  0  0  0  0  0  # atno 8009 bound_to 7997
  154.4291  140.1791  156.1270 H   0  0  0  0  0  0  0  0  0  0  0  0  # atno 8010 bound_to 7997
  139.8881  143.6756  152.2616 H   0  0  0  0  0  0  0  0  0  0  0  0  # atno 10167 bound_to 10162
  156.1826  130.4151  149.9485 H   0  0  0  0  0  0  0  0  0  0  0  0  # atno 10718 bound_to 10713
  154.7614  135.3119  154.8371 H   0  0  0  0  0  0  0  0  0  0  0  0  # atno 10763 bound_to 10752
  153.9130  135.6803  153.4754 H   0  0  0  0  0  0  0  0  0  0  0  0  # atno 10764 bound_to 10752
  153.1215  135.4820  154.9135 H   0  0  0  0  0  0  0  0  0  0  0  0  # atno 10765 bound_to 10752
  140.9551  133.7198  156.1280 H   0  0  0  0  0  0  0  0  0  0  0  0  # atno 11005 bound_to 11000
  144.6777  140.2259  143.7361 LP  0  0  0  0  0  0  0  0  0  0  0  0  # atno 17320 bound_to 7965
  145.8317  139.2089  143.1879 LP  0  0  0  0  0  0  0  0  0  0  0  0  # atno 17321 bound_to 7965
  139.7134  144.7616  151.1074 LP  0  0  0  0  0  0  0  0  0  0  0  0  # atno 17342 bound_to 10162
  140.7732  143.5301  150.9434 LP  0  0  0  0  0  0  0  0  0  0  0  0  # atno 17343 bound_to 10162
  156.7250  130.9021  151.3621 LP  0  0  0  0  0  0  0  0  0  0  0  0  # atno 17370 bound_to 10713
  157.6878  130.9203  150.0433 LP  0  0  0  0  0  0  0  0  0  0  0  0  # atno 17371 bound_to 10713
  140.7548  134.4005  157.5535 LP  0  0  0  0  0  0  0  0  0  0  0  0  # atno 17394 bound_to 11000
  139.8859  134.8923  156.2613 LP  0  0  0  0  0  0  0  0  0  0  0  0  # atno 17395 bound_to 11000

$$$$
