AV-unprocessed.smi:287|AV-procd|sdf|2188|dock5
  -GOLD-   2262021573D 1   1.00000     0.00000
 Structure written by MMmdl.
 55 58  0  0  0  0  0  0  0  0  1 V2000
  151.4462  143.5902  158.4321 C   0  0  0  0  0  0  0  0  0  0  0  0
  150.8181  142.4383  157.7256 C   0  0  0  0  0  0  0  0  0  0  0  0
  150.6355  142.1227  156.4109 C   0  0  0  0  0  0  0  0  0  0  0  0
  149.9668  140.8627  156.3641 C   0  0  0  0  0  0  0  0  0  0  0  0
  149.5447  140.1111  155.1093 C   0  0  2  0  0  0  0  0  0  0  0  0
  150.2047  138.7228  155.0924 C   0  0  0  0  0  0  0  0  0  0  0  0
  149.9733  140.7488  153.9212 O   0  0  0  0  0  0  0  0  0  0  0  0
  148.0105  139.9713  154.9835 C   0  0  0  0  0  0  0  0  0  0  0  0
  147.5861  139.5011  153.6709 N   0  0  0  0  0  0  0  0  0  0  0  0
  146.4736  138.7502  153.5287 C   0  0  0  0  0  0  0  0  0  0  0  0
  145.5614  138.8652  154.5235 N   0  0  0  0  0  0  0  0  0  0  0  0
  144.4242  138.1652  154.4781 C   0  0  0  0  0  0  0  0  0  0  0  0
  144.0098  137.3067  153.5445 N   0  0  0  0  0  0  0  0  0  0  0  0
  144.9252  137.1837  152.5405 C   0  0  0  0  0  0  0  0  0  0  0  0
  146.1739  137.8622  152.4526 C   0  0  0  0  0  0  0  0  0  0  0  0
  146.8224  137.4714  151.2855 N   0  0  0  0  0  0  0  0  0  0  0  0
  146.0076  136.6172  150.7284 C   0  0  0  0  0  0  0  0  0  0  0  0
  144.8423  136.3801  151.4247 N   0  0  0  0  0  0  0  0  0  0  0  0
  143.6920  135.4799  151.0819 C   0  0  1  0  0  0  0  0  0  0  0  0
  143.8526  135.0392  149.7668 O   0  0  0  0  0  0  0  0  0  0  0  0
  144.3924  133.7224  149.7678 C   0  0  2  0  0  0  0  0  0  0  0  0
  144.1829  133.0245  148.4128 C   0  0  0  0  0  0  0  0  0  0  0  0
  143.8202  133.9735  147.4327 O   0  0  0  0  0  0  0  0  0  0  0  0
  143.6732  133.0828  150.9612 C   0  0  2  0  0  0  0  0  0  0  0  0
  142.3628  132.6799  150.6053 O   0  0  0  0  0  0  0  0  0  0  0  0
  143.6291  134.2174  151.9790 C   0  0  1  0  0  0  0  0  0  0  0  0
  144.7163  134.0891  152.8797 O   0  0  0  0  0  0  0  0  0  0  0  0
  149.7749  140.5196  157.6806 C   0  0  0  0  0  0  0  0  0  0  0  0
  149.1276  139.3613  158.3647 C   0  0  0  0  0  0  0  0  0  0  0  0
  150.2945  141.4652  158.5122 O   0  0  0  0  0  0  0  0  0  0  0  0
  142.8129  136.1206  151.1612 H   0  0  0  0  0  0  0  0  0  0  0  0
  145.4581  133.7708  150.0008 H   0  0  0  0  0  0  0  0  0  0  0  0
  144.2050  132.2051  151.3314 H   0  0  0  0  0  0  0  0  0  0  0  0
  142.7022  134.2215  152.5542 H   0  0  0  0  0  0  0  0  0  0  0  0
  151.9338  144.2616  157.7249 H   0  0  0  0  0  0  0  0  0  0  0  0
  152.1975  143.2453  159.1428 H   0  0  0  0  0  0  0  0  0  0  0  0
  150.6973  144.1617  158.9803 H   0  0  0  0  0  0  0  0  0  0  0  0
  150.9520  142.7263  155.5732 H   0  0  0  0  0  0  0  0  0  0  0  0
  149.9074  138.1349  155.9615 H   0  0  0  0  0  0  0  0  0  0  0  0
  151.2927  138.8006  155.1059 H   0  0  0  0  0  0  0  0  0  0  0  0
  149.9248  138.1564  154.2031 H   0  0  0  0  0  0  0  0  0  0  0  0
  149.9145  140.1284  153.2112 H   0  0  0  0  0  0  0  0  0  0  0  0
  147.6183  139.3174  155.7641 H   0  0  0  0  0  0  0  0  0  0  0  0
  147.5608  140.9531  155.1362 H   0  0  0  0  0  0  0  0  0  0  0  0
  148.1864  139.7563  152.8996 H   0  0  0  0  0  0  0  0  0  0  0  0
  143.7515  138.3133  155.3099 H   0  0  0  0  0  0  0  0  0  0  0  0
  146.2415  136.1398  149.7879 H   0  0  0  0  0  0  0  0  0  0  0  0
  145.1114  132.5553  148.0854 H   0  0  0  0  0  0  0  0  0  0  0  0
  143.4268  132.2415  148.4784 H   0  0  0  0  0  0  0  0  0  0  0  0
  144.5897  134.4669  147.1925 H   0  0  0  0  0  0  0  0  0  0  0  0
  141.8649  133.4494  150.3752 H   0  0  0  0  0  0  0  0  0  0  0  0
  144.3953  134.2407  153.7559 H   0  0  0  0  0  0  0  0  0  0  0  0
  148.1524  139.1486  157.9263 H   0  0  0  0  0  0  0  0  0  0  0  0
  148.9795  139.5625  159.4260 H   0  0  0  0  0  0  0  0  0  0  0  0
  149.7434  138.4666  158.2740 H   0  0  0  0  0  0  0  0  0  0  0  0
  1  2  1  0  0  0  0
  1 35  1  0  0  0  0
  1 36  1  0  0  0  0
  1 37  1  0  0  0  0
  2 30  1  0  0  0  0
  2  3  2  0  0  0  0
  3  4  1  0  0  0  0
  3 38  1  0  0  0  0
  4  5  1  0  0  0  0
  4 28  2  0  0  0  0
  5  6  1  0  0  0  0
  5  7  1  0  0  0  0
  5  8  1  0  0  0  0
  6 39  1  0  0  0  0
  6 40  1  0  0  0  0
  6 41  1  0  0  0  0
  7 42  1  0  0  0  0
  8  9  1  0  0  0  0
  8 43  1  0  0  0  0
  8 44  1  0  0  0  0
  9 10  1  0  0  0  0
  9 45  1  0  0  0  0
 10 15  1  0  0  0  0
 10 11  2  0  0  0  0
 11 12  1  0  0  0  0
 12 13  2  0  0  0  0
 12 46  1  0  0  0  0
 13 14  1  0  0  0  0
 14 18  1  0  0  0  0
 14 15  2  0  0  0  0
 15 16  1  0  0  0  0
 16 17  2  0  0  0  0
 17 18  1  0  0  0  0
 17 47  1  0  0  0  0
 18 19  1  0  0  0  0
 19 31  1  0  0  0  0
 19 26  1  0  0  0  0
 19 20  1  0  0  0  0
 20 21  1  0  0  0  0
 21 32  1  0  0  0  0
 21 22  1  0  0  0  0
 21 24  1  0  0  0  0
 22 23  1  0  0  0  0
 22 48  1  0  0  0  0
 22 49  1  0  0  0  0
 23 50  1  0  0  0  0
 24 33  1  0  0  0  0
 24 25  1  0  0  0  0
 24 26  1  0  0  0  0
 25 51  1  0  0  0  0
 26 34  1  0  0  0  0
 26 27  1  0  0  0  0
 27 52  1  0  0  0  0
 28 29  1  0  0  0  0
 28 30  1  0  0  0  0
 29 53  1  0  0  0  0
 29 54  1  0  0  0  0
 29 55  1  0  0  0  0
M  END
> <s_m_source_file>
AV-unprocessed.smi

> <i_m_source_file_index>
287

> <i_lp_mmshare_version>
43012

> <i_f3d_flags>
0

> <s_epik_input>
W0NIM11jMVtjSF1jKGMobzEpW0NIM10pW0NAQF0oW0NIM10pKFtPSF0pW0NIMl1bTkhdYyhuW2NIXW4yKWMoYzIzKW5bY0hdbjNbQ0BASF00T1tDQEhdKFtDSDJdW09IXSlbQ0BASF0oW09IXSlbQ0BIXTRbT0hd

> <s_epik_cmdline>
J2VwaWtfcHl0aG9uJywgJy1waCcsICc3LjAnLCAnLXRuJywgJzgnLCAnLW1hJywgJzIwMCcsICctbWV0YWxfYmluZGluZycsICctaW1hZScsICc8aW5maWxlLm1hZT4nLCAnLW9tYWUnLCAnPG91dGZpbGUubWFlPic=

> <r_lp_tautomer_probability>
1

> <r_epik_Ionization_Penalty>
0.000992612

> <r_epik_Ionization_Penalty_Charging>
0

> <r_epik_Ionization_Penalty_Neutral>
0.000992612

> <r_epik_State_Penalty>
-0

> <r_epik_Charging_Adjusted_Penalty>
0

> <i_epik_Tot_Q>
0

> <i_epik_Tot_abs_Q>
0

> <r_epik_Metal_State_Penalty>
-0

> <b_epik_Metal_Only>
0

> <s_epik_Chemistry_Notes>
This compound contains an acetal/aminal-like group ( X-CH(R)-Y where X, Y are N, S, or O) that may be acid/base labile, releasing an aldehyde.

> <s_lp_Force_Field>
OPLS_2005

> <r_lp_Energy>
43.0869

> <b_lp_Chiralities_Consistent>
1

> <s_lp_Variant>
AV-unprocessed.smi:287-12

> <Gold.Version>
5.8.1

> <Gold.Id.Protein>
6NUR|6NUR_protein|mol2

> <Gold.PLP.Fitness>
59.7522

> <Gold.PLP.PLP>
-39.4176

> <Gold.PLP.part.hbond>
-9.2583

> <Gold.PLP.part.metal>
0.0000

> <Gold.PLP.part.buried>
4.1484

> <Gold.PLP.part.nonpolar>
-39.0768

> <Gold.PLP.part.repulsive>
6.0871

> <Gold.PLP.ligand.clash>
0.0000

> <Gold.PLP.ligand.torsion>
1.3612

> <Gold.PLP.Chemscore.Hbond>
6.6148

> <Gold.PLP.Chemscore.CHOScore>
1.0000

> <Gold.PLP.Chemscore.Metal>
0.0000

> <Gold.Chemscore.Hbonds>
donor molecule, donor type, donor heavy atom, donor atom, acceptor molecule, acceptor atom, score
      L1  H     7    42       P1  7957  0.73
      L1  H     9    45       P1  7957  0.44
      L1  H    23    50       P1  7921  0.91
      L1  H    25    51       P1 10186  0.99
      P1  H  7954  7966       L1    16  1.00
      P1  H  7989  7998       L1     7  0.14
      P1  H  8011  8017       L1     7  0.10
      P1  H 10192 10197       L1    23  0.65
      L1  C    17    47       P1  7921  1.00

> <Gold.PLP.Chemscore.Internal.Correction>
0.2126

> <Gold.Rescore>
     Score         DG    S(hbond)    S(metal)    S(lipo)     H(rot)  DE(clash)    DE(int)     intcor
     14.86     -22.04       5.40        0.00     102.53       5.27       6.15       1.02       ----

> <Gold.Chemscore.Fitness>
14.8609

> <Gold.Chemscore.DG>
-22.0356

> <Gold.Chemscore.ZeroCoef>
-5.4800

> <Gold.Chemscore.Hbond>
5.4024

> <Gold.Chemscore.Metal>
0.0000

> <Gold.Chemscore.Lipo>
102.5253

> <Gold.Chemscore.Internal_Hbond>
0.0000

> <Gold.Chemscore.DEClash>
6.1499

> <Gold.Chemscore.DEInternal>
1.0248

> <Gold.Chemscore.Rot>
5.2672

> <Gold.Chemscore.Internal.Correction>
   9.000000E+99

> <Gold.Chemscore.Hbonds>
donor molecule, donor type, donor heavy atom, donor atom, acceptor molecule, acceptor atom, score
      L1  H     7    42       P1  7957  0.71
      L1  H     9    45       P1  7957  0.44
      L1  H    23    50       P1  7921  0.88
      L1  H    25    51       P1 10186  0.91
      P1  H  7954  7966       L1    16  0.49
      P1  H 10192 10197       L1    23  0.51

> <Gold.Chemscore.Hbond.Weighted>
-18.0441

> <Gold.Chemscore.Metal.Weighted>
-0.0000

> <Gold.Chemscore.Lipo.Weighted>
-11.9955

> <Gold.Chemscore.Internal_Hbond.Weighted>
0.0000

> <Gold.Chemscore.DEClash.Weighted>
6.1499

> <Gold.Chemscore.DEInternal.Weighted>
1.0248

> <Gold.Chemscore.Rot.Weighted>
13.4839

> <Gold.Chemscore.Internal.Correction.Weighted>
   9.000000E+99

> <Gold.Protein.RotatedTorsions>
[ 6907 6896 6895 6894 ] final -157.18 input  -60.11 | X-H torsion
[ 7974 7965 7964 7962 ] final  126.11 input  175.53 | X-H torsion
[ 8008 7997 7996 7995 ] final  -92.88 input   59.86 | X-H torsion
[ 10167 10162 10161 10158 ] final -169.04 input  -65.29 | X-H torsion
[ 10718 10713 10712 10709 ] final -117.06 input   66.30 | X-H torsion
[ 10763 10752 10751 10750 ] final  144.38 input  -60.55 | X-H torsion
[ 11005 11000 10999 10996 ] final  -65.83 input  -57.11 | X-H torsion

> <Gold.Protein.ActiveResidues>
 VAL166  LYS551  ARG553  GLY616  TRP617  ASP618  TYR619  PRO620  LYS621  CYS622 
 ASP623  PHE694  ASN695  SER759  ASP760  ASP761  ALA762  ILE779  LEU786  VAL792 
 PHE793  MET794  SER795  GLU796  ALA797  LYS798  CYS799  TRP800  GLU811  SER814 

> <Gold.Protein.RotatedAtoms>
  151.2989  133.4131  159.2638 H   0  0  0  0  0  0  0  0  0  0  0  0  # atno 6907 bound_to 6896
  151.0213  134.9471  159.8071 H   0  0  0  0  0  0  0  0  0  0  0  0  # atno 6908 bound_to 6896
  152.5325  134.2951  159.9110 H   0  0  0  0  0  0  0  0  0  0  0  0  # atno 6909 bound_to 6896
  145.0654  139.3771  143.4984 H   0  0  0  0  0  0  0  0  0  0  0  0  # atno 7974 bound_to 7965
  154.7287  140.0504  157.0706 H   0  0  0  0  0  0  0  0  0  0  0  0  # atno 8008 bound_to 7997
  155.0331  140.3160  155.4732 H   0  0  0  0  0  0  0  0  0  0  0  0  # atno 8009 bound_to 7997
  156.2836  140.2146  156.5452 H   0  0  0  0  0  0  0  0  0  0  0  0  # atno 8010 bound_to 7997
  139.5947  144.1137  152.1676 H   0  0  0  0  0  0  0  0  0  0  0  0  # atno 10167 bound_to 10162
  156.1007  130.6169  150.9115 H   0  0  0  0  0  0  0  0  0  0  0  0  # atno 10718 bound_to 10713
  153.9879  135.2935  155.3414 H   0  0  0  0  0  0  0  0  0  0  0  0  # atno 10763 bound_to 10752
  154.7231  135.5100  153.8847 H   0  0  0  0  0  0  0  0  0  0  0  0  # atno 10764 bound_to 10752
  153.0823  135.6683  154.0135 H   0  0  0  0  0  0  0  0  0  0  0  0  # atno 10765 bound_to 10752
  141.1465  133.6688  156.6046 H   0  0  0  0  0  0  0  0  0  0  0  0  # atno 11005 bound_to 11000
  146.3526  140.0373  142.8645 LP  0  0  0  0  0  0  0  0  0  0  0  0  # atno 17320 bound_to 7965
  145.1357  140.9543  143.4518 LP  0  0  0  0  0  0  0  0  0  0  0  0  # atno 17321 bound_to 7965
  140.0719  144.5772  150.7185 LP  0  0  0  0  0  0  0  0  0  0  0  0  # atno 17342 bound_to 10162
  140.7202  143.2582  151.4302 LP  0  0  0  0  0  0  0  0  0  0  0  0  # atno 17343 bound_to 10162
  157.6176  131.0932  150.8681 LP  0  0  0  0  0  0  0  0  0  0  0  0  # atno 17370 bound_to 10713
  156.8810  130.5179  149.5291 LP  0  0  0  0  0  0  0  0  0  0  0  0  # atno 17371 bound_to 10713
  140.3662  134.7645  157.4567 LP  0  0  0  0  0  0  0  0  0  0  0  0  # atno 17394 bound_to 11000
  140.0746  134.5815  155.8605 LP  0  0  0  0  0  0  0  0  0  0  0  0  # atno 17395 bound_to 11000

$$$$
