AV-unprocessed.smi:3237|AV-procd|sdf|12373|dock9
  -GOLD-   2272018233D 1   1.00000     0.00000
 Structure written by MMmdl.
 36 38  0  0  0  0  0  0  0  0  3 V2000
  146.8615  135.8039  162.5529 C   0  0  0  0  0  0  0  0  0  0  0  0
  147.4967  136.0652  161.2301 C   0  0  0  0  0  0  0  0  0  0  0  0
  147.5303  135.3594  160.0607 C   0  0  0  0  0  0  0  0  0  0  0  0
  148.3071  136.1878  159.2074 C   0  0  0  0  0  0  0  0  0  0  0  0
  148.5783  135.7964  157.8698 N   0  0  0  0  0  0  0  0  0  0  0  0
  148.9135  134.5815  157.3986 C   0  0  0  0  0  0  0  0  0  0  0  0
  149.0212  133.6196  158.1686 O   0  0  0  0  0  0  0  0  0  0  0  0
  149.0927  134.5835  156.0484 N   0  5  0  0  0  0  0  0  0  0  0  0
  148.2487  133.8606  155.0951 C   0  0  2  0  0  0  0  0  0  0  0  0
  149.0726  133.2931  153.9385 C   0  0  0  0  0  0  0  0  0  0  0  0
  148.0550  133.1979  152.8030 C   0  0  0  0  0  0  0  0  0  0  0  0
  147.1811  134.3772  152.9747 N   0  3  1  0  0  0  0  0  0  0  0  0
  145.8149  134.2012  152.4362 C   0  0  0  0  0  0  0  0  0  0  0  0
  145.7862  133.7805  150.9865 C   0  0  0  0  0  0  0  0  0  0  0  0
  145.4542  135.2067  151.3693 C   0  0  0  0  0  0  0  0  0  0  0  0
  147.2308  134.7830  154.3996 C   0  0  0  0  0  0  0  0  0  0  0  0
  148.7114  137.2995  159.8043 N   0  0  0  0  0  0  0  0  0  0  0  0
  148.1934  137.2270  161.1027 O   0  0  0  0  0  0  0  0  0  0  0  0
  146.8341  134.7352  162.7654 H   0  0  0  0  0  0  0  0  0  0  0  0
  145.8383  136.1790  162.5689 H   0  0  0  0  0  0  0  0  0  0  0  0
  147.4145  136.2930  163.3551 H   0  0  0  0  0  0  0  0  0  0  0  0
  147.0720  134.4042  159.8511 H   0  0  0  0  0  0  0  0  0  0  0  0
  148.5104  136.5293  157.1793 H   0  0  0  0  0  0  0  0  0  0  0  0
  147.7082  133.0335  155.5581 H   0  0  0  0  0  0  0  0  0  0  0  0
  149.8690  133.9836  153.6543 H   0  0  0  0  0  0  0  0  0  0  0  0
  149.5302  132.3324  154.1764 H   0  0  0  0  0  0  0  0  0  0  0  0
  148.5298  133.2006  151.8214 H   0  0  0  0  0  0  0  0  0  0  0  0
  147.4718  132.2763  152.8818 H   0  0  0  0  0  0  0  0  0  0  0  0
  145.0607  133.8413  153.1339 H   0  0  0  0  0  0  0  0  0  0  0  0
  146.7348  133.6025  150.4832 H   0  0  0  0  0  0  0  0  0  0  0  0
  144.9627  133.1464  150.6643 H   0  0  0  0  0  0  0  0  0  0  0  0
  144.4122  135.5123  151.2994 H   0  0  0  0  0  0  0  0  0  0  0  0
  146.1822  135.9770  151.1211 H   0  0  0  0  0  0  0  0  0  0  0  0
  146.2546  134.7110  154.8818 H   0  0  0  0  0  0  0  0  0  0  0  0
  147.5343  135.8303  154.4364 H   0  0  0  0  0  0  0  0  0  0  0  0
  147.6163  135.1299  152.4612 H   0  0  0  0  0  0  0  0  0  0  0  0
  1  2  1  0  0  0  0
  1 19  1  0  0  0  0
  1 20  1  0  0  0  0
  1 21  1  0  0  0  0
  2 18  1  0  0  0  0
  2  3  2  0  0  0  0
  3  4  1  0  0  0  0
  3 22  1  0  0  0  0
  4  5  1  0  0  0  0
  4 17  2  0  0  0  0
  5  6  1  0  0  0  0
  5 23  1  0  0  0  0
  6  7  2  0  0  0  0
  6  8  1  0  0  0  0
  8  9  1  0  0  0  0
  9 16  1  0  0  0  0
  9 10  1  0  0  0  0
  9 24  1  0  0  0  0
 10 11  1  0  0  0  0
 10 25  1  0  0  0  0
 10 26  1  0  0  0  0
 11 12  1  0  0  0  0
 11 27  1  0  0  0  0
 11 28  1  0  0  0  0
 12 13  1  0  0  0  0
 12 16  1  0  0  0  0
 12 36  1  0  0  0  0
 13 15  1  0  0  0  0
 13 14  1  0  0  0  0
 13 29  1  0  0  0  0
 14 15  1  0  0  0  0
 14 30  1  0  0  0  0
 14 31  1  0  0  0  0
 15 32  1  0  0  0  0
 15 33  1  0  0  0  0
 16 34  1  0  0  0  0
 16 35  1  0  0  0  0
 17 18  1  0  0  0  0
M  CHG  1   8  -1
M  CHG  1  12   1
M  END
> <s_m_source_file>
AV-unprocessed.smi

> <i_m_source_file_index>
3237

> <i_lp_mmshare_version>
43012

> <i_f3d_flags>
0

> <s_epik_input>
W0NIM11jMVtjSF1jKG5vMSlbTkhdQyg9TylbTkhdW0NAQEhdMltDSDJdW0NIMl1OKFtDSDJdMilbQ0hdM1tDSDJdW0NIMl0z

> <s_epik_cmdline>
J2VwaWtfcHl0aG9uJywgJy1waCcsICc3LjAnLCAnLXRuJywgJzgnLCAnLW1hJywgJzIwMCcsICctbWV0YWxfYmluZGluZycsICctaW1hZScsICc8aW5maWxlLm1hZT4nLCAnLW9tYWUnLCAnPG91dGZpbGUubWFlPic=

> <r_epik_Ionization_Penalty>
6.76456

> <r_epik_Ionization_Penalty_Charging>
6.76456

> <r_epik_Ionization_Penalty_Neutral>
5.76722e-06

> <r_epik_State_Penalty>
6.78919

> <r_epik_Charging_Adjusted_Penalty>
13.5538

> <i_epik_Tot_Q>
0

> <i_epik_Tot_abs_Q>
2

> <r_epik_Metal_State_Penalty>
2.728

> <b_epik_Metal_Only>
1

> <s_lp_Force_Field>
OPLS_2005

> <r_lp_Energy>
30.8833

> <b_lp_Chiralities_Consistent>
1

> <s_lp_Variant>
AV-unprocessed.smi:3237-11

> <Gold.Version>
5.8.1

> <Gold.Id.Protein>
6NUR|6NUR_protein|mol2

> <Gold.PLP.Fitness>
39.9708

> <Gold.PLP.PLP>
-30.1155

> <Gold.PLP.part.hbond>
-5.4508

> <Gold.PLP.part.metal>
0.0000

> <Gold.PLP.part.buried>
-3.7599

> <Gold.PLP.part.nonpolar>
-21.3378

> <Gold.PLP.part.repulsive>
0.0819

> <Gold.PLP.ligand.clash>
0.0000

> <Gold.PLP.ligand.torsion>
1.9994

> <Gold.PLP.Chemscore.Hbond>
4.1950

> <Gold.PLP.Chemscore.CHOScore>
0.0000

> <Gold.PLP.Chemscore.Metal>
0.0000

> <Gold.Chemscore.Hbonds>
donor molecule, donor type, donor heavy atom, donor atom, acceptor molecule, acceptor atom, score
      L1  H    12    36       P1  7948  2.00
      P1  H  6896  6908       L1     7  0.32
      P1  H  6931  6943       L1    18  1.00
      P1  H  6934  6947       L1    18  0.38

> <Gold.PLP.Chemscore.Internal.Correction>
1.2691

> <Gold.Rescore>
     Score         DG    S(hbond)    S(metal)    S(lipo)     H(rot)  DE(clash)    DE(int)     intcor
     15.76     -17.96       2.67        0.00      57.64       1.25       0.01       2.19       ----

> <Gold.Chemscore.Fitness>
15.7626

> <Gold.Chemscore.DG>
-17.9636

> <Gold.Chemscore.ZeroCoef>
-5.4800

> <Gold.Chemscore.Hbond>
2.6737

> <Gold.Chemscore.Metal>
0.0000

> <Gold.Chemscore.Lipo>
57.6443

> <Gold.Chemscore.Internal_Hbond>
0.0000

> <Gold.Chemscore.DEClash>
0.0137

> <Gold.Chemscore.DEInternal>
2.1874

> <Gold.Chemscore.Rot>
1.2464

> <Gold.Chemscore.Internal.Correction>
   9.000000E+99

> <Gold.Chemscore.Hbonds>
donor molecule, donor type, donor heavy atom, donor atom, acceptor molecule, acceptor atom, score
      L1  H    12    36       P1  7948  0.98
      P1  H  6896  6908       L1     7  0.27
      P1  H  6931  6943       L1    18  0.40
      P1  H  6934  6947       L1    18  0.03

> <Gold.Chemscore.Hbond.Weighted>
-8.9301

> <Gold.Chemscore.Metal.Weighted>
-0.0000

> <Gold.Chemscore.Lipo.Weighted>
-6.7444

> <Gold.Chemscore.Internal_Hbond.Weighted>
0.0000

> <Gold.Chemscore.DEClash.Weighted>
0.0137

> <Gold.Chemscore.DEInternal.Weighted>
2.1874

> <Gold.Chemscore.Rot.Weighted>
3.1909

> <Gold.Chemscore.Internal.Correction.Weighted>
   9.000000E+99

> <Gold.Protein.RotatedTorsions>
[ 6907 6896 6895 6894 ] final   98.40 input  -60.11 | X-H torsion
[ 7974 7965 7964 7962 ] final  -71.10 input  175.53 | X-H torsion
[ 8008 7997 7996 7995 ] final  139.39 input   59.86 | X-H torsion
[ 10167 10162 10161 10158 ] final  130.47 input  -65.29 | X-H torsion
[ 10718 10713 10712 10709 ] final   71.34 input   66.30 | X-H torsion
[ 10763 10752 10751 10750 ] final -167.32 input  -60.55 | X-H torsion
[ 11005 11000 10999 10996 ] final  128.88 input  -57.11 | X-H torsion

> <Gold.Protein.ActiveResidues>
 VAL166  LYS551  ARG553  GLY616  TRP617  ASP618  TYR619  PRO620  LYS621  CYS622 
 ASP623  PHE694  ASN695  SER759  ASP760  ASP761  ALA762  ILE779  LEU786  VAL792 
 PHE793  MET794  SER795  GLU796  ALA797  LYS798  CYS799  TRP800  GLU811  SER814 

> <Gold.Protein.RotatedAtoms>
  152.5409  134.0586  159.8141 H   0  0  0  0  0  0  0  0  0  0  0  0  # atno 6907 bound_to 6896
  151.0717  133.5453  159.2634 H   0  0  0  0  0  0  0  0  0  0  0  0  # atno 6908 bound_to 6896
  151.2314  135.0564  159.9043 H   0  0  0  0  0  0  0  0  0  0  0  0  # atno 6909 bound_to 6896
  145.6825  140.9183  143.0825 H   0  0  0  0  0  0  0  0  0  0  0  0  # atno 7974 bound_to 7965
  156.2990  140.2369  156.4230 H   0  0  0  0  0  0  0  0  0  0  0  0  # atno 8008 bound_to 7997
  154.8339  140.0431  157.1516 H   0  0  0  0  0  0  0  0  0  0  0  0  # atno 8009 bound_to 7997
  154.9178  140.2999  155.5236 H   0  0  0  0  0  0  0  0  0  0  0  0  # atno 8010 bound_to 7997
  139.5428  144.6747  151.4568 H   0  0  0  0  0  0  0  0  0  0  0  0  # atno 10167 bound_to 10162
  157.6447  130.9523  150.0776 H   0  0  0  0  0  0  0  0  0  0  0  0  # atno 10718 bound_to 10713
  154.6744  135.2944  154.9698 H   0  0  0  0  0  0  0  0  0  0  0  0  # atno 10763 bound_to 10752
  154.0714  135.6617  153.4829 H   0  0  0  0  0  0  0  0  0  0  0  0  # atno 10764 bound_to 10752
  153.0507  135.5176  154.7756 H   0  0  0  0  0  0  0  0  0  0  0  0  # atno 10765 bound_to 10752
  139.9585  134.9608  156.9067 H   0  0  0  0  0  0  0  0  0  0  0  0  # atno 11005 bound_to 11000
  144.7022  139.8715  143.7441 LP  0  0  0  0  0  0  0  0  0  0  0  0  # atno 17320 bound_to 7965
  146.0952  139.3944  143.0381 LP  0  0  0  0  0  0  0  0  0  0  0  0  # atno 17321 bound_to 7965
  140.6665  143.8386  150.6948 LP  0  0  0  0  0  0  0  0  0  0  0  0  # atno 17342 bound_to 10162
  140.1797  143.4125  152.1942 LP  0  0  0  0  0  0  0  0  0  0  0  0  # atno 17343 bound_to 10162
  156.1762  130.3648  149.9097 LP  0  0  0  0  0  0  0  0  0  0  0  0  # atno 17370 bound_to 10713
  156.7061  130.8952  151.3604 LP  0  0  0  0  0  0  0  0  0  0  0  0  # atno 17371 bound_to 10713
  140.5555  134.0586  155.7382 LP  0  0  0  0  0  0  0  0  0  0  0  0  # atno 17394 bound_to 11000
  141.1259  133.9384  157.2636 LP  0  0  0  0  0  0  0  0  0  0  0  0  # atno 17395 bound_to 11000

$$$$
