AV-unprocessed.smi:1525|AV-procd|sdf|6145|dock5
  -GOLD-   22720 6293D 1   1.00000     0.00000
 Structure written by MMmdl.
 49 51  0  0  0  0  0  0  0  0  4 V2000
  152.0894  138.4073  159.5527 O   0  0  0  0  0  0  0  0  0  0  0  0
  151.0245  138.1445  158.9822 C   0  0  0  0  0  0  0  0  0  0  0  0
  150.3617  136.9576  158.9610 N   0  5  0  0  0  0  0  0  0  0  0  0
  148.9324  136.7939  159.2205 C   0  0  0  0  0  0  0  0  0  0  0  0
  148.7049  136.4032  160.6951 C   0  0  0  0  0  0  0  0  0  0  0  0
  147.3392  135.8626  160.9248 N   0  3  0  0  0  0  0  0  0  0  0  0
  146.9581  134.7710  159.9903 C   0  0  0  0  0  0  0  0  0  0  0  0
  145.5132  134.3182  160.2561 C   0  0  0  0  0  0  0  0  0  0  0  0
  145.3839  133.9043  161.6109 O   0  0  0  0  0  0  0  0  0  0  0  0
  145.6653  134.9615  162.5196 C   0  0  0  0  0  0  0  0  0  0  0  0
  147.1147  135.4378  162.3280 C   0  0  0  0  0  0  0  0  0  0  0  0
  150.3744  139.0933  158.2887 N   0  0  0  0  0  0  0  0  0  0  0  0
  150.7079  140.4669  158.1347 C   0  0  0  0  0  0  0  0  0  0  0  0
  151.7291  141.0744  158.9073 C   0  0  0  0  0  0  0  0  0  0  0  0
  152.0548  142.4284  158.6960 C   0  0  0  0  0  0  0  0  0  0  0  0
  151.3636  143.1510  157.7061 C   0  0  0  0  0  0  0  0  0  0  0  0
  150.4081  142.5396  156.9749 N   0  3  0  0  0  0  0  0  0  0  0  0
  150.0535  141.2450  157.1391 C   0  0  0  0  0  0  0  0  0  0  0  0
  149.0356  140.7806  156.2884 N   0  0  0  0  0  0  0  0  0  0  0  0
  149.3571  140.7054  154.8662 C   0  0  0  0  0  0  0  0  0  0  0  0
  148.2390  141.4469  154.1274 C   0  0  0  0  0  0  0  0  0  0  0  0
  147.0603  141.3543  155.0903 C   0  0  0  0  0  0  0  0  0  0  0  0
  147.7347  141.4154  156.4602 C   0  0  0  0  0  0  0  0  0  0  0  0
  148.3631  137.6973  158.9968 H   0  0  0  0  0  0  0  0  0  0  0  0
  148.5079  136.0205  158.5803 H   0  0  0  0  0  0  0  0  0  0  0  0
  149.4548  135.6847  161.0304 H   0  0  0  0  0  0  0  0  0  0  0  0
  148.8497  137.2948  161.3076 H   0  0  0  0  0  0  0  0  0  0  0  0
  147.0505  135.1064  158.9567 H   0  0  0  0  0  0  0  0  0  0  0  0
  147.6399  133.9281  160.1138 H   0  0  0  0  0  0  0  0  0  0  0  0
  144.8068  135.1209  160.0378 H   0  0  0  0  0  0  0  0  0  0  0  0
  145.2564  133.4822  159.6055 H   0  0  0  0  0  0  0  0  0  0  0  0
  144.9627  135.7830  162.3698 H   0  0  0  0  0  0  0  0  0  0  0  0
  145.5204  134.6004  163.5378 H   0  0  0  0  0  0  0  0  0  0  0  0
  147.8111  134.6379  162.5847 H   0  0  0  0  0  0  0  0  0  0  0  0
  147.3162  136.2704  163.0033 H   0  0  0  0  0  0  0  0  0  0  0  0
  149.4681  138.8217  157.9364 H   0  0  0  0  0  0  0  0  0  0  0  0
  152.2778  140.5147  159.6498 H   0  0  0  0  0  0  0  0  0  0  0  0
  152.8290  142.9027  159.2810 H   0  0  0  0  0  0  0  0  0  0  0  0
  151.5488  144.1896  157.4738 H   0  0  0  0  0  0  0  0  0  0  0  0
  150.3394  141.1142  154.6255 H   0  0  0  0  0  0  0  0  0  0  0  0
  149.3638  139.6536  154.5790 H   0  0  0  0  0  0  0  0  0  0  0  0
  148.5159  142.4921  153.9845 H   0  0  0  0  0  0  0  0  0  0  0  0
  148.0244  141.0215  153.1467 H   0  0  0  0  0  0  0  0  0  0  0  0
  146.3241  142.1450  154.9429 H   0  0  0  0  0  0  0  0  0  0  0  0
  146.5570  140.3944  154.9665 H   0  0  0  0  0  0  0  0  0  0  0  0
  147.1461  140.8957  157.2165 H   0  0  0  0  0  0  0  0  0  0  0  0
  147.8455  142.4515  156.7817 H   0  0  0  0  0  0  0  0  0  0  0  0
  146.7051  136.6316  160.7598 H   0  0  0  0  0  0  0  0  0  0  0  0
  149.9251  143.0838  156.2598 H   0  0  0  0  0  0  0  0  0  0  0  0
  1  2  2  0  0  0  0
  2  3  1  0  0  0  0
  2 12  1  0  0  0  0
  3  4  1  0  0  0  0
  4  5  1  0  0  0  0
  4 24  1  0  0  0  0
  4 25  1  0  0  0  0
  5  6  1  0  0  0  0
  5 26  1  0  0  0  0
  5 27  1  0  0  0  0
  6 11  1  0  0  0  0
  6  7  1  0  0  0  0
  6 48  1  0  0  0  0
  7  8  1  0  0  0  0
  7 28  1  0  0  0  0
  7 29  1  0  0  0  0
  8  9  1  0  0  0  0
  8 30  1  0  0  0  0
  8 31  1  0  0  0  0
  9 10  1  0  0  0  0
 10 11  1  0  0  0  0
 10 32  1  0  0  0  0
 10 33  1  0  0  0  0
 11 34  1  0  0  0  0
 11 35  1  0  0  0  0
 12 13  1  0  0  0  0
 12 36  1  0  0  0  0
 13 18  1  0  0  0  0
 13 14  2  0  0  0  0
 14 15  1  0  0  0  0
 14 37  1  0  0  0  0
 15 16  2  0  0  0  0
 15 38  1  0  0  0  0
 16 17  1  0  0  0  0
 16 39  1  0  0  0  0
 17 18  2  0  0  0  0
 17 49  1  0  0  0  0
 18 19  1  0  0  0  0
 19 23  1  0  0  0  0
 19 20  1  0  0  0  0
 20 21  1  0  0  0  0
 20 40  1  0  0  0  0
 20 41  1  0  0  0  0
 21 22  1  0  0  0  0
 21 42  1  0  0  0  0
 21 43  1  0  0  0  0
 22 23  1  0  0  0  0
 22 44  1  0  0  0  0
 22 45  1  0  0  0  0
 23 46  1  0  0  0  0
 23 47  1  0  0  0  0
M  CHG  1   3  -1
M  CHG  1   6   1
M  CHG  1  17   1
M  END
> <s_m_source_file>
AV-unprocessed.smi

> <i_m_source_file_index>
1525

> <i_lp_mmshare_version>
43012

> <i_f3d_flags>
0

> <s_epik_input>
W0NIMl0xW0NIMl1PW0NIMl1bQ0gyXU4xW0NIMl1bQ0gyXVtOSF1DKD1PKVtOSF1jMltjSF1bY0hdW2NIXW5jMk4zW0NIMl1bQ0gyXVtDSDJdW0NIMl0z

> <s_epik_cmdline>
J2VwaWtfcHl0aG9uJywgJy1waCcsICc3LjAnLCAnLXRuJywgJzgnLCAnLW1hJywgJzIwMCcsICctbWV0YWxfYmluZGluZycsICctaW1hZScsICc8aW5maWxlLm1hZT4nLCAnLW9tYWUnLCAnPG91dGZpbGUubWFlPic=

> <r_lp_tautomer_probability>
0.999994

> <r_epik_Ionization_Penalty>
8.59159

> <r_epik_Ionization_Penalty_Charging>
8.59159

> <r_epik_Ionization_Penalty_Neutral>
3.55275e-06

> <r_epik_State_Penalty>
8.58545

> <r_epik_Charging_Adjusted_Penalty>
17.177

> <i_epik_Tot_Q>
1

> <i_epik_Tot_abs_Q>
3

> <r_epik_Metal_State_Penalty>
4.58086

> <b_epik_Metal_Only>
1

> <s_lp_Force_Field>
OPLS_2005

> <r_lp_Energy>
45.7376

> <b_lp_Chiralities_Consistent>
1

> <s_lp_Variant>
AV-unprocessed.smi:1525-5

> <Gold.Version>
5.8.1

> <Gold.Id.Protein>
6NUR|6NUR_protein|mol2

> <Gold.PLP.Fitness>
41.7347

> <Gold.PLP.PLP>
-33.3347

> <Gold.PLP.part.hbond>
-1.6728

> <Gold.PLP.part.metal>
0.0000

> <Gold.PLP.part.buried>
-6.6697

> <Gold.PLP.part.nonpolar>
-26.4271

> <Gold.PLP.part.repulsive>
0.3426

> <Gold.PLP.ligand.clash>
0.0000

> <Gold.PLP.ligand.torsion>
0.7505

> <Gold.PLP.Chemscore.Hbond>
3.2175

> <Gold.PLP.Chemscore.CHOScore>
0.0000

> <Gold.PLP.Chemscore.Metal>
0.0000

> <Gold.Chemscore.Hbonds>
donor molecule, donor type, donor heavy atom, donor atom, acceptor molecule, acceptor atom, score
      L1  H    17    49       P1  8028  2.00
      P1  H  6896  6908       L1     3  0.98

> <Gold.PLP.Chemscore.Internal.Correction>
0.2485

> <Gold.Rescore>
     Score         DG    S(hbond)    S(metal)    S(lipo)     H(rot)  DE(clash)    DE(int)     intcor
     12.59     -14.64       1.02        0.00      85.51       1.66       0.00       2.04       ----

> <Gold.Chemscore.Fitness>
12.5937

> <Gold.Chemscore.DG>
-14.6365

> <Gold.Chemscore.ZeroCoef>
-5.4800

> <Gold.Chemscore.Hbond>
1.0208

> <Gold.Chemscore.Metal>
0.0000

> <Gold.Chemscore.Lipo>
85.5096

> <Gold.Chemscore.Internal_Hbond>
0.0000

> <Gold.Chemscore.DEClash>
0.0000

> <Gold.Chemscore.DEInternal>
2.0428

> <Gold.Chemscore.Rot>
1.6632

> <Gold.Chemscore.Internal.Correction>
   9.000000E+99

> <Gold.Chemscore.Hbonds>
donor molecule, donor type, donor heavy atom, donor atom, acceptor molecule, acceptor atom, score
      L1  H    17    49       P1  8028  0.89
      P1  H  6896  6908       L1     3  0.19

> <Gold.Chemscore.Hbond.Weighted>
-3.4096

> <Gold.Chemscore.Metal.Weighted>
-0.0000

> <Gold.Chemscore.Lipo.Weighted>
-10.0046

> <Gold.Chemscore.Internal_Hbond.Weighted>
0.0000

> <Gold.Chemscore.DEClash.Weighted>
0.0000

> <Gold.Chemscore.DEInternal.Weighted>
2.0428

> <Gold.Chemscore.Rot.Weighted>
4.2577

> <Gold.Chemscore.Internal.Correction.Weighted>
   9.000000E+99

> <Gold.Protein.RotatedTorsions>
[ 6907 6896 6895 6894 ] final -139.01 input  -60.11 | X-H torsion
[ 7974 7965 7964 7962 ] final -153.78 input  175.53 | X-H torsion
[ 8008 7997 7996 7995 ] final  -35.36 input   59.86 | X-H torsion
[ 10167 10162 10161 10158 ] final  105.59 input  -65.29 | X-H torsion
[ 10718 10713 10712 10709 ] final  -71.82 input   66.30 | X-H torsion
[ 10763 10752 10751 10750 ] final   88.46 input  -60.55 | X-H torsion
[ 11005 11000 10999 10996 ] final   77.97 input  -57.11 | X-H torsion

> <Gold.Protein.ActiveResidues>
 VAL166  LYS551  ARG553  GLY616  TRP617  ASP618  TYR619  PRO620  LYS621  CYS622 
 ASP623  PHE694  ASN695  SER759  ASP760  ASP761  ALA762  ILE779  LEU786  VAL792 
 PHE793  MET794  SER795  GLU796  ALA797  LYS798  CYS799  TRP800  GLU811  SER814 

> <Gold.Protein.RotatedAtoms>
  151.0424  133.5695  159.2649 H   0  0  0  0  0  0  0  0  0  0  0  0  # atno 6907 bound_to 6896
  151.2736  135.0691  159.9153 H   0  0  0  0  0  0  0  0  0  0  0  0  # atno 6908 bound_to 6896
  152.5366  134.0150  159.8009 H   0  0  0  0  0  0  0  0  0  0  0  0  # atno 6909 bound_to 6896
  144.7723  140.4478  143.5898 H   0  0  0  0  0  0  0  0  0  0  0  0  # atno 7974 bound_to 7965
  154.4097  140.1659  156.2199 H   0  0  0  0  0  0  0  0  0  0  0  0  # atno 8008 bound_to 7997
  155.9372  140.3410  155.6274 H   0  0  0  0  0  0  0  0  0  0  0  0  # atno 8009 bound_to 7997
  155.7033  140.0748  157.2392 H   0  0  0  0  0  0  0  0  0  0  0  0  # atno 8010 bound_to 7997
  139.7080  144.7083  151.1075 H   0  0  0  0  0  0  0  0  0  0  0  0  # atno 10167 bound_to 10162
  156.0346  130.4359  150.2501 H   0  0  0  0  0  0  0  0  0  0  0  0  # atno 10718 bound_to 10713
  153.1771  135.4506  154.9979 H   0  0  0  0  0  0  0  0  0  0  0  0  # atno 10763 bound_to 10752
  154.8005  135.3254  154.7564 H   0  0  0  0  0  0  0  0  0  0  0  0  # atno 10764 bound_to 10752
  153.8033  135.6961  153.4907 H   0  0  0  0  0  0  0  0  0  0  0  0  # atno 10765 bound_to 10752
  139.9232  134.7726  156.1590 H   0  0  0  0  0  0  0  0  0  0  0  0  # atno 11005 bound_to 11000
  145.6288  139.1533  143.2981 LP  0  0  0  0  0  0  0  0  0  0  0  0  # atno 17320 bound_to 7965
  146.1878  140.6393  142.9159 LP  0  0  0  0  0  0  0  0  0  0  0  0  # atno 17321 bound_to 7965
  140.7726  143.5332  150.9398 LP  0  0  0  0  0  0  0  0  0  0  0  0  # atno 17342 bound_to 10162
  139.9016  143.6828  152.3130 LP  0  0  0  0  0  0  0  0  0  0  0  0  # atno 17343 bound_to 10162
  157.0601  131.0087  151.3225 LP  0  0  0  0  0  0  0  0  0  0  0  0  # atno 17370 bound_to 10713
  157.5076  130.7919  149.7671 LP  0  0  0  0  0  0  0  0  0  0  0  0  # atno 17371 bound_to 10713
  141.0769  133.6771  156.2256 LP  0  0  0  0  0  0  0  0  0  0  0  0  # atno 17394 bound_to 11000
  140.6413  134.5163  157.5569 LP  0  0  0  0  0  0  0  0  0  0  0  0  # atno 17395 bound_to 11000

$$$$
