AV-unprocessed.smi:2250|AV-procd|sdf|9100|dock1
  -GOLD-   2272012293D 1   1.00000     0.00000
 Structure written by MMmdl.
 43 44  0  0  0  0  0  0  0  0  1 V2000
  153.8967  142.3437  161.5264 C   0  0  0  0  0  0  0  0  0  0  0  0
  152.9815  142.4437  160.3242 C   0  0  0  0  0  0  0  0  0  0  0  0
  152.3297  143.6492  160.0025 C   0  0  0  0  0  0  0  0  0  0  0  0
  151.4911  143.6862  158.8719 C   0  0  0  0  0  0  0  0  0  0  0  0
  151.3227  142.5200  158.0918 C   0  0  0  0  0  0  0  0  0  0  0  0
  150.4578  142.6651  156.9748 N   0  0  0  0  0  0  0  0  0  0  0  0
  150.1114  141.7387  156.0639 C   0  0  0  0  0  0  0  0  0  0  0  0
  150.4844  140.5651  156.0635 O   0  0  0  0  0  0  0  0  0  0  0  0
  149.2907  142.2564  155.1396 N   0  0  0  0  0  0  0  0  0  0  0  0
  148.7288  141.5267  154.0094 C   0  0  0  0  0  0  0  0  0  0  0  0
  147.2630  141.1530  154.2956 C   0  0  0  0  0  0  0  0  0  0  0  0
  146.3260  142.3646  154.4454 C   0  0  0  0  0  0  0  0  0  0  0  0
  146.4269  143.2990  153.6485 O   0  0  0  0  0  0  0  0  0  0  0  0
  145.4204  142.3720  155.4543 N   0  0  0  0  0  0  0  0  0  0  0  0
  145.2701  141.3252  156.4747 C   0  0  0  0  0  0  0  0  0  0  0  0
  145.7931  141.8672  157.8173 C   0  0  0  0  0  0  0  0  0  0  0  0
  145.0574  143.1635  158.2082 C   0  0  0  0  0  0  0  0  0  0  0  0
  145.0446  144.1839  157.0535 C   0  0  0  0  0  0  0  0  0  0  0  0
  144.5657  143.5310  155.7434 C   0  0  0  0  0  0  0  0  0  0  0  0
  151.9566  141.3636  158.4088 N   0  0  0  0  0  0  0  0  0  0  0  0
  152.7608  141.3293  159.4920 C   0  0  0  0  0  0  0  0  0  0  0  0
  153.7938  143.2145  162.1747 H   0  0  0  0  0  0  0  0  0  0  0  0
  154.9359  142.2771  161.2039 H   0  0  0  0  0  0  0  0  0  0  0  0
  153.6604  141.4549  162.1120 H   0  0  0  0  0  0  0  0  0  0  0  0
  152.4666  144.5326  160.6088 H   0  0  0  0  0  0  0  0  0  0  0  0
  150.9830  144.6031  158.6110 H   0  0  0  0  0  0  0  0  0  0  0  0
  150.0575  143.5836  156.8537 H   0  0  0  0  0  0  0  0  0  0  0  0
  149.0335  143.2288  155.2243 H   0  0  0  0  0  0  0  0  0  0  0  0
  148.7861  142.1253  153.0980 H   0  0  0  0  0  0  0  0  0  0  0  0
  149.3311  140.6318  153.8464 H   0  0  0  0  0  0  0  0  0  0  0  0
  146.8853  140.5216  153.4902 H   0  0  0  0  0  0  0  0  0  0  0  0
  147.2283  140.5656  155.2143 H   0  0  0  0  0  0  0  0  0  0  0  0
  144.2145  141.0647  156.5658 H   0  0  0  0  0  0  0  0  0  0  0  0
  145.7733  140.3924  156.2258 H   0  0  0  0  0  0  0  0  0  0  0  0
  145.6702  141.1178  158.5998 H   0  0  0  0  0  0  0  0  0  0  0  0
  146.8636  142.0621  157.7395 H   0  0  0  0  0  0  0  0  0  0  0  0
  144.0289  142.9204  158.4781 H   0  0  0  0  0  0  0  0  0  0  0  0
  145.5126  143.6029  159.0962 H   0  0  0  0  0  0  0  0  0  0  0  0
  144.4044  145.0288  157.3085 H   0  0  0  0  0  0  0  0  0  0  0  0
  146.0481  144.5878  156.9117 H   0  0  0  0  0  0  0  0  0  0  0  0
  144.5641  144.2688  154.9400 H   0  0  0  0  0  0  0  0  0  0  0  0
  143.5305  143.2016  155.8435 H   0  0  0  0  0  0  0  0  0  0  0  0
  153.2416  140.3843  159.6990 H   0  0  0  0  0  0  0  0  0  0  0  0
  1  2  1  0  0  0  0
  1 22  1  0  0  0  0
  1 23  1  0  0  0  0
  1 24  1  0  0  0  0
  2 21  1  0  0  0  0
  2  3  2  0  0  0  0
  3  4  1  0  0  0  0
  3 25  1  0  0  0  0
  4  5  2  0  0  0  0
  4 26  1  0  0  0  0
  5  6  1  0  0  0  0
  5 20  1  0  0  0  0
  6  7  1  0  0  0  0
  6 27  1  0  0  0  0
  7  8  2  0  0  0  0
  7  9  1  0  0  0  0
  9 10  1  0  0  0  0
  9 28  1  0  0  0  0
 10 11  1  0  0  0  0
 10 29  1  0  0  0  0
 10 30  1  0  0  0  0
 11 12  1  0  0  0  0
 11 31  1  0  0  0  0
 11 32  1  0  0  0  0
 12 13  2  0  0  0  0
 12 14  1  0  0  0  0
 14 19  1  0  0  0  0
 14 15  1  0  0  0  0
 15 16  1  0  0  0  0
 15 33  1  0  0  0  0
 15 34  1  0  0  0  0
 16 17  1  0  0  0  0
 16 35  1  0  0  0  0
 16 36  1  0  0  0  0
 17 18  1  0  0  0  0
 17 37  1  0  0  0  0
 17 38  1  0  0  0  0
 18 19  1  0  0  0  0
 18 39  1  0  0  0  0
 18 40  1  0  0  0  0
 19 41  1  0  0  0  0
 19 42  1  0  0  0  0
 20 21  2  0  0  0  0
 21 43  1  0  0  0  0
M  END
> <s_m_source_file>
AV-unprocessed.smi

> <i_m_source_file_index>
2250

> <i_lp_mmshare_version>
43012

> <i_f3d_flags>
0

> <s_epik_input>
W0NIM11jMVtjSF1bY0hdYyhuW2NIXTEpW05IXUMoPU8pW05IXVtDSDJdW0NIMl1DKD1PKU4yW0NIMl1bQ0gyXVtDSDJdW0NIMl1bQ0gyXTI=

> <s_epik_cmdline>
J2VwaWtfcHl0aG9uJywgJy1waCcsICc3LjAnLCAnLXRuJywgJzgnLCAnLW1hJywgJzIwMCcsICctbWV0YWxfYmluZGluZycsICctaW1hZScsICc8aW5maWxlLm1hZT4nLCAnLW9tYWUnLCAnPG91dGZpbGUubWFlPic=

> <r_lp_tautomer_probability>
1

> <r_epik_Ionization_Penalty>
5.00358e-05

> <r_epik_Ionization_Penalty_Charging>
0

> <r_epik_Ionization_Penalty_Neutral>
5.00358e-05

> <r_epik_State_Penalty>
-0

> <r_epik_Charging_Adjusted_Penalty>
0

> <i_epik_Tot_Q>
0

> <i_epik_Tot_abs_Q>
0

> <r_epik_Metal_State_Penalty>
-0

> <b_epik_Metal_Only>
0

> <s_lp_Force_Field>
OPLS_2005

> <r_lp_Energy>
26.56

> <b_lp_Chiralities_Consistent>
1

> <s_lp_Variant>
AV-unprocessed.smi:2250-1

> <Gold.Version>
5.8.1

> <Gold.Id.Protein>
6NUR|6NUR_protein|mol2

> <Gold.PLP.Fitness>
42.6460

> <Gold.PLP.PLP>
-37.5728

> <Gold.PLP.part.hbond>
-3.0000

> <Gold.PLP.part.metal>
0.0000

> <Gold.PLP.part.buried>
-2.7943

> <Gold.PLP.part.nonpolar>
-32.0102

> <Gold.PLP.part.repulsive>
0.4685

> <Gold.PLP.ligand.clash>
0.0000

> <Gold.PLP.ligand.torsion>
0.3457

> <Gold.PLP.Chemscore.Hbond>
1.9120

> <Gold.PLP.Chemscore.CHOScore>
0.0000

> <Gold.PLP.Chemscore.Metal>
0.0000

> <Gold.Chemscore.Hbonds>
donor molecule, donor type, donor heavy atom, donor atom, acceptor molecule, acceptor atom, score
      L1  H     6    27       P1  8028  0.91
      L1  H     9    28       P1  8028  1.00

> <Gold.PLP.Chemscore.Internal.Correction>
0.0285

> <Gold.Rescore>
     Score         DG    S(hbond)    S(metal)    S(lipo)     H(rot)  DE(clash)    DE(int)     intcor
     15.13     -16.85       1.94        0.00      74.88       1.51       0.08       1.63       ----

> <Gold.Chemscore.Fitness>
15.1340

> <Gold.Chemscore.DG>
-16.8530

> <Gold.Chemscore.ZeroCoef>
-5.4800

> <Gold.Chemscore.Hbond>
1.9418

> <Gold.Chemscore.Metal>
0.0000

> <Gold.Chemscore.Lipo>
74.8795

> <Gold.Chemscore.Internal_Hbond>
0.0000

> <Gold.Chemscore.DEClash>
0.0846

> <Gold.Chemscore.DEInternal>
1.6344

> <Gold.Chemscore.Rot>
1.5131

> <Gold.Chemscore.Internal.Correction>
   9.000000E+99

> <Gold.Chemscore.Hbonds>
donor molecule, donor type, donor heavy atom, donor atom, acceptor molecule, acceptor atom, score
      L1  H     6    27       P1  8028  0.84
      L1  H     9    28       P1  8028  0.95

> <Gold.Chemscore.Hbond.Weighted>
-6.4856

> <Gold.Chemscore.Metal.Weighted>
-0.0000

> <Gold.Chemscore.Lipo.Weighted>
-8.7609

> <Gold.Chemscore.Internal_Hbond.Weighted>
0.0000

> <Gold.Chemscore.DEClash.Weighted>
0.0846

> <Gold.Chemscore.DEInternal.Weighted>
1.6344

> <Gold.Chemscore.Rot.Weighted>
3.8735

> <Gold.Chemscore.Internal.Correction.Weighted>
   9.000000E+99

> <Gold.Protein.RotatedTorsions>
[ 6907 6896 6895 6894 ] final   -9.32 input  -60.11 | X-H torsion
[ 7974 7965 7964 7962 ] final   30.47 input  175.53 | X-H torsion
[ 8008 7997 7996 7995 ] final  159.39 input   59.86 | X-H torsion
[ 10167 10162 10161 10158 ] final   82.69 input  -65.29 | X-H torsion
[ 10718 10713 10712 10709 ] final   86.42 input   66.30 | X-H torsion
[ 10763 10752 10751 10750 ] final -125.62 input  -60.55 | X-H torsion
[ 11005 11000 10999 10996 ] final  -68.97 input  -57.11 | X-H torsion

> <Gold.Protein.ActiveResidues>
 VAL166  LYS551  ARG553  GLY616  TRP617  ASP618  TYR619  PRO620  LYS621  CYS622 
 ASP623  PHE694  ASN695  SER759  ASP760  ASP761  ALA762  ILE779  LEU786  VAL792 
 PHE793  MET794  SER795  GLU796  ALA797  LYS798  CYS799  TRP800  GLU811  SER814 

> <Gold.Protein.RotatedAtoms>
  151.4196  135.0996  159.9609 H   0  0  0  0  0  0  0  0  0  0  0  0  # atno 6907 bound_to 6896
  152.4993  133.8720  159.7313 H   0  0  0  0  0  0  0  0  0  0  0  0  # atno 6908 bound_to 6896
  150.9233  133.6797  159.2855 H   0  0  0  0  0  0  0  0  0  0  0  0  # atno 6909 bound_to 6896
  146.1610  139.6784  142.9034 H   0  0  0  0  0  0  0  0  0  0  0  0  # atno 7974 bound_to 7965
  156.2242  140.1832  156.7404 H   0  0  0  0  0  0  0  0  0  0  0  0  # atno 8008 bound_to 7997
  154.5913  140.0650  156.9271 H   0  0  0  0  0  0  0  0  0  0  0  0  # atno 8009 bound_to 7997
  155.2331  140.3316  155.4303 H   0  0  0  0  0  0  0  0  0  0  0  0  # atno 8010 bound_to 7997
  139.9261  144.6182  150.8391 H   0  0  0  0  0  0  0  0  0  0  0  0  # atno 10167 bound_to 10162
  157.6928  131.0215  150.2970 H   0  0  0  0  0  0  0  0  0  0  0  0  # atno 10718 bound_to 10713
  154.8738  135.4023  154.3298 H   0  0  0  0  0  0  0  0  0  0  0  0  # atno 10763 bound_to 10752
  153.4113  135.7021  153.6362 H   0  0  0  0  0  0  0  0  0  0  0  0  # atno 10764 bound_to 10752
  153.5064  135.3717  155.2535 H   0  0  0  0  0  0  0  0  0  0  0  0  # atno 10765 bound_to 10752
  141.1544  133.6753  156.6528 H   0  0  0  0  0  0  0  0  0  0  0  0  # atno 11005 bound_to 11000
  145.4589  141.0432  143.2763 LP  0  0  0  0  0  0  0  0  0  0  0  0  # atno 17320 bound_to 7965
  144.8027  139.6111  143.7064 LP  0  0  0  0  0  0  0  0  0  0  0  0  # atno 17321 bound_to 7965
  140.7650  143.3263  151.2509 LP  0  0  0  0  0  0  0  0  0  0  0  0  # atno 17342 bound_to 10162
  139.6821  143.9837  152.2814 LP  0  0  0  0  0  0  0  0  0  0  0  0  # atno 17343 bound_to 10162
  156.3492  130.3828  149.7343 LP  0  0  0  0  0  0  0  0  0  0  0  0  # atno 17370 bound_to 10713
  156.4827  130.8048  151.3062 LP  0  0  0  0  0  0  0  0  0  0  0  0  # atno 17371 bound_to 10713
  140.3307  134.7931  157.4324 LP  0  0  0  0  0  0  0  0  0  0  0  0  # atno 17394 bound_to 11000
  140.1019  134.5461  155.8345 LP  0  0  0  0  0  0  0  0  0  0  0  0  # atno 17395 bound_to 11000

$$$$
