AV-unprocessed.smi:2119|AV-procd|sdf|8633|dock8
  -GOLD-   2272011383D 1   1.00000     0.00000
 Structure written by MMmdl.
 47 49  0  0  0  0  0  0  0  0  1 V2000
  146.1953  133.6764  154.4532 O   0  0  0  0  0  0  0  0  0  0  0  0
  146.9655  134.2223  153.6640 C   0  0  0  0  0  0  0  0  0  0  0  0
  148.0620  134.8933  154.0422 N   0  0  0  0  0  0  0  0  0  0  0  0
  148.4774  135.1230  155.4213 C   0  0  0  0  0  0  0  0  0  0  0  0
  148.2039  136.5811  155.8853 C   0  0  1  0  0  0  0  0  0  0  0  0
  148.3993  136.7587  157.4205 C   0  0  1  0  0  0  0  0  0  0  0  0
  147.6234  135.7599  158.2655 C   0  0  0  0  0  0  0  0  0  0  0  0
  148.3245  135.8644  159.6126 C   0  0  0  0  0  0  0  0  0  0  0  0
  149.6952  136.0586  159.2948 O   0  0  0  0  0  0  0  0  0  0  0  0
  149.8206  136.5184  157.9520 C   0  0  0  0  0  0  0  0  0  0  0  0
  148.9585  137.5912  155.1218 N   0  0  0  0  0  0  0  0  0  0  0  0
  150.4051  137.3908  155.1341 C   0  0  0  0  0  0  0  0  0  0  0  0
  151.1183  138.3836  154.2004 C   0  0  0  0  0  0  0  0  0  0  0  0
  150.7781  139.7162  154.5716 O   0  0  0  0  0  0  0  0  0  0  0  0
  149.3756  139.9616  154.5239 C   0  0  0  0  0  0  0  0  0  0  0  0
  148.6446  138.9799  155.4558 C   0  0  0  0  0  0  0  0  0  0  0  0
  146.8387  134.2217  152.3261 N   0  0  0  0  0  0  0  0  0  0  0  0
  145.7892  133.6822  151.5342 C   0  0  0  0  0  0  0  0  0  0  0  0
  144.4712  133.7908  152.0239 C   0  0  0  0  0  0  0  0  0  0  0  0
  143.4123  133.2467  151.2725 C   0  0  0  0  0  0  0  0  0  0  0  0
  143.7155  132.6037  150.0570 C   0  0  0  0  0  0  0  0  0  0  0  0
  144.9715  132.4784  149.5796 N   0  0  0  0  0  0  0  0  0  0  0  0
  145.9826  133.0037  150.3048 C   0  0  0  0  0  0  0  0  0  0  0  0
  148.6428  135.2965  153.3220 H   0  0  0  0  0  0  0  0  0  0  0  0
  147.9795  134.4244  156.0956 H   0  0  0  0  0  0  0  0  0  0  0  0
  149.5392  134.8855  155.4630 H   0  0  0  0  0  0  0  0  0  0  0  0
  147.1482  136.7787  155.6934 H   0  0  0  0  0  0  0  0  0  0  0  0
  148.0947  137.7635  157.7172 H   0  0  0  0  0  0  0  0  0  0  0  0
  146.5589  135.9878  158.3322 H   0  0  0  0  0  0  0  0  0  0  0  0
  147.7323  134.7517  157.8629 H   0  0  0  0  0  0  0  0  0  0  0  0
  147.9638  136.7342  160.1632 H   0  0  0  0  0  0  0  0  0  0  0  0
  148.1775  134.9812  160.2343 H   0  0  0  0  0  0  0  0  0  0  0  0
  150.3288  135.7433  157.3773 H   0  0  0  0  0  0  0  0  0  0  0  0
  150.4312  137.4208  157.9171 H   0  0  0  0  0  0  0  0  0  0  0  0
  150.8002  137.5180  156.1414 H   0  0  0  0  0  0  0  0  0  0  0  0
  150.6431  136.3717  154.8275 H   0  0  0  0  0  0  0  0  0  0  0  0
  152.1989  138.2586  154.2691 H   0  0  0  0  0  0  0  0  0  0  0  0
  150.8396  138.2059  153.1605 H   0  0  0  0  0  0  0  0  0  0  0  0
  149.1818  140.9898  154.8290 H   0  0  0  0  0  0  0  0  0  0  0  0
  149.0164  139.8586  153.4988 H   0  0  0  0  0  0  0  0  0  0  0  0
  147.5722  139.1581  155.3849 H   0  0  0  0  0  0  0  0  0  0  0  0
  148.9316  139.1919  156.4863 H   0  0  0  0  0  0  0  0  0  0  0  0
  147.5998  134.6360  151.8083 H   0  0  0  0  0  0  0  0  0  0  0  0
  144.2702  134.2864  152.9625 H   0  0  0  0  0  0  0  0  0  0  0  0
  142.3924  133.3191  151.6200 H   0  0  0  0  0  0  0  0  0  0  0  0
  142.9287  132.1739  149.4549 H   0  0  0  0  0  0  0  0  0  0  0  0
  146.9635  132.8471  149.8845 H   0  0  0  0  0  0  0  0  0  0  0  0
  1  2  2  0  0  0  0
  2  3  1  0  0  0  0
  2 17  1  0  0  0  0
  3  4  1  0  0  0  0
  3 24  1  0  0  0  0
  4  5  1  0  0  0  0
  4 25  1  0  0  0  0
  4 26  1  0  0  0  0
  5  6  1  0  0  0  0
  5 11  1  0  0  0  0
  5 27  1  0  0  0  0
  6 10  1  0  0  0  0
  6  7  1  0  0  0  0
  6 28  1  0  0  0  0
  7  8  1  0  0  0  0
  7 29  1  0  0  0  0
  7 30  1  0  0  0  0
  8  9  1  0  0  0  0
  8 31  1  0  0  0  0
  8 32  1  0  0  0  0
  9 10  1  0  0  0  0
 10 33  1  0  0  0  0
 10 34  1  0  0  0  0
 11 16  1  0  0  0  0
 11 12  1  0  0  0  0
 12 13  1  0  0  0  0
 12 35  1  0  0  0  0
 12 36  1  0  0  0  0
 13 14  1  0  0  0  0
 13 37  1  0  0  0  0
 13 38  1  0  0  0  0
 14 15  1  0  0  0  0
 15 16  1  0  0  0  0
 15 39  1  0  0  0  0
 15 40  1  0  0  0  0
 16 41  1  0  0  0  0
 16 42  1  0  0  0  0
 17 18  1  0  0  0  0
 17 43  1  0  0  0  0
 18 23  1  0  0  0  0
 18 19  2  0  0  0  0
 19 20  1  0  0  0  0
 19 44  1  0  0  0  0
 20 21  2  0  0  0  0
 20 45  1  0  0  0  0
 21 22  1  0  0  0  0
 21 46  1  0  0  0  0
 22 23  2  0  0  0  0
 23 47  1  0  0  0  0
M  END
> <s_m_source_file>
AV-unprocessed.smi

> <i_m_source_file_index>
2119

> <i_lp_mmshare_version>
43012

> <i_f3d_flags>
0

> <s_epik_input>
W2NIXTFuW2NIXVtjSF1bY0hdYzFbTkhdQyg9TylbTkhdW0NIMl1bQ0BIXShbQ0BASF0yW0NIMl1bQ0gyXU9bQ0gyXTIpTjNbQ0gyXVtDSDJdT1tDSDJdW0NIMl0z

> <s_epik_cmdline>
J2VwaWtfcHl0aG9uJywgJy1waCcsICc3LjAnLCAnLXRuJywgJzgnLCAnLW1hJywgJzIwMCcsICctbWV0YWxfYmluZGluZycsICctaW1hZScsICc8aW5maWxlLm1hZT4nLCAnLW9tYWUnLCAnPG91dGZpbGUubWFlPic=

> <r_epik_Ionization_Penalty>
0.129787

> <r_epik_Ionization_Penalty_Charging>
0

> <r_epik_Ionization_Penalty_Neutral>
0.129787

> <r_epik_State_Penalty>
0.121311

> <r_epik_Charging_Adjusted_Penalty>
0.121311

> <i_epik_Tot_Q>
0

> <i_epik_Tot_abs_Q>
0

> <r_epik_Metal_State_Penalty>
0.117931

> <b_epik_Metal_Only>
0

> <s_lp_Force_Field>
OPLS_2005

> <r_lp_Energy>
52.557

> <b_lp_Chiralities_Consistent>
1

> <s_lp_Variant>
AV-unprocessed.smi:2119-4

> <Gold.Version>
5.8.1

> <Gold.Id.Protein>
6NUR|6NUR_protein|mol2

> <Gold.PLP.Fitness>
46.0252

> <Gold.PLP.PLP>
-30.9632

> <Gold.PLP.part.hbond>
-4.0000

> <Gold.PLP.part.metal>
0.0000

> <Gold.PLP.part.buried>
-7.3820

> <Gold.PLP.part.nonpolar>
-20.0851

> <Gold.PLP.part.repulsive>
0.4626

> <Gold.PLP.ligand.clash>
0.0000

> <Gold.PLP.ligand.torsion>
0.4855

> <Gold.PLP.Chemscore.Hbond>
3.8268

> <Gold.PLP.Chemscore.CHOScore>
1.4486

> <Gold.PLP.Chemscore.Metal>
0.0000

> <Gold.Chemscore.Hbonds>
donor molecule, donor type, donor heavy atom, donor atom, acceptor molecule, acceptor atom, score
      L1  H     3    24       P1  7948  1.00
      L1  H    17    43       P1  7948  0.86
      P1  H  6896  6908       L1     9  1.00
      P1  H  7989  7998       L1    14  1.00
      L1  C    21    46       P1 10952  0.36
      L1  C    23    47       P1 10747  0.22

> <Gold.PLP.Chemscore.Internal.Correction>
0.2067

> <Gold.Rescore>
     Score         DG    S(hbond)    S(metal)    S(lipo)     H(rot)  DE(clash)    DE(int)     intcor
     17.86     -19.59       2.84        0.00      75.65       1.65       0.05       1.68       ----

> <Gold.Chemscore.Fitness>
17.8600

> <Gold.Chemscore.DG>
-19.5909

> <Gold.Chemscore.ZeroCoef>
-5.4800

> <Gold.Chemscore.Hbond>
2.8401

> <Gold.Chemscore.Metal>
0.0000

> <Gold.Chemscore.Lipo>
75.6518

> <Gold.Chemscore.Internal_Hbond>
0.0000

> <Gold.Chemscore.DEClash>
0.0473

> <Gold.Chemscore.DEInternal>
1.6837

> <Gold.Chemscore.Rot>
1.6508

> <Gold.Chemscore.Internal.Correction>
   9.000000E+99

> <Gold.Chemscore.Hbonds>
donor molecule, donor type, donor heavy atom, donor atom, acceptor molecule, acceptor atom, score
      L1  H     3    24       P1  7948  0.87
      L1  H    17    43       P1  7948  0.36
      P1  H  6896  6908       L1     9  0.71
      P1  H  7989  7998       L1    14  0.52

> <Gold.Chemscore.Hbond.Weighted>
-9.4858

> <Gold.Chemscore.Metal.Weighted>
-0.0000

> <Gold.Chemscore.Lipo.Weighted>
-8.8513

> <Gold.Chemscore.Internal_Hbond.Weighted>
0.0000

> <Gold.Chemscore.DEClash.Weighted>
0.0473

> <Gold.Chemscore.DEInternal.Weighted>
1.6837

> <Gold.Chemscore.Rot.Weighted>
4.2262

> <Gold.Chemscore.Internal.Correction.Weighted>
   9.000000E+99

> <Gold.Protein.RotatedTorsions>
[ 6907 6896 6895 6894 ] final  173.35 input  -60.11 | X-H torsion
[ 7974 7965 7964 7962 ] final -157.68 input  175.53 | X-H torsion
[ 8008 7997 7996 7995 ] final -139.76 input   59.86 | X-H torsion
[ 10167 10162 10161 10158 ] final -170.92 input  -65.29 | X-H torsion
[ 10718 10713 10712 10709 ] final   71.72 input   66.30 | X-H torsion
[ 10763 10752 10751 10750 ] final -113.79 input  -60.55 | X-H torsion
[ 11005 11000 10999 10996 ] final   42.71 input  -57.11 | X-H torsion

> <Gold.Protein.ActiveResidues>
 VAL166  LYS551  ARG553  GLY616  TRP617  ASP618  TYR619  PRO620  LYS621  CYS622 
 ASP623  PHE694  ASN695  SER759  ASP760  ASP761  ALA762  ILE779  LEU786  VAL792 
 PHE793  MET794  SER795  GLU796  ALA797  LYS798  CYS799  TRP800  GLU811  SER814 

> <Gold.Protein.RotatedAtoms>
  151.7697  133.3340  159.3440 H   0  0  0  0  0  0  0  0  0  0  0  0  # atno 6907 bound_to 6896
  150.7466  134.6030  159.6056 H   0  0  0  0  0  0  0  0  0  0  0  0  # atno 6908 bound_to 6896
  152.3349  134.7212  160.0331 H   0  0  0  0  0  0  0  0  0  0  0  0  # atno 6909 bound_to 6896
  144.7538  140.3935  143.6028 H   0  0  0  0  0  0  0  0  0  0  0  0  # atno 7974 bound_to 7965
  155.4501  140.0538  157.3002 H   0  0  0  0  0  0  0  0  0  0  0  0  # atno 8008 bound_to 7997
  154.4781  140.2069  155.9786 H   0  0  0  0  0  0  0  0  0  0  0  0  # atno 8009 bound_to 7997
  156.1163  140.3196  155.8148 H   0  0  0  0  0  0  0  0  0  0  0  0  # atno 8010 bound_to 7997
  139.5833  144.1375  152.1543 H   0  0  0  0  0  0  0  0  0  0  0  0  # atno 10167 bound_to 10162
  157.6466  130.9543  150.0829 H   0  0  0  0  0  0  0  0  0  0  0  0  # atno 10718 bound_to 10713
  154.8412  135.4441  154.1405 H   0  0  0  0  0  0  0  0  0  0  0  0  # atno 10763 bound_to 10752
  153.2592  135.6934  153.7603 H   0  0  0  0  0  0  0  0  0  0  0  0  # atno 10764 bound_to 10752
  153.6886  135.3391  155.3172 H   0  0  0  0  0  0  0  0  0  0  0  0  # atno 10765 bound_to 10752
  140.1713  134.4218  155.8255 H   0  0  0  0  0  0  0  0  0  0  0  0  # atno 11005 bound_to 11000
  145.6851  139.1627  143.2678 LP  0  0  0  0  0  0  0  0  0  0  0  0  # atno 17320 bound_to 7965
  146.1522  140.6909  142.9317 LP  0  0  0  0  0  0  0  0  0  0  0  0  # atno 17321 bound_to 7965
  140.0933  144.5602  150.7040 LP  0  0  0  0  0  0  0  0  0  0  0  0  # atno 17342 bound_to 10162
  140.7108  143.2504  151.4586 LP  0  0  0  0  0  0  0  0  0  0  0  0  # atno 17343 bound_to 10162
  156.1800  130.3649  149.9048 LP  0  0  0  0  0  0  0  0  0  0  0  0  # atno 17370 bound_to 10713
  156.7003  130.8930  151.3598 LP  0  0  0  0  0  0  0  0  0  0  0  0  # atno 17371 bound_to 10713
  141.2217  133.6957  156.7769 LP  0  0  0  0  0  0  0  0  0  0  0  0  # atno 17394 bound_to 11000
  140.2374  134.8640  157.3538 LP  0  0  0  0  0  0  0  0  0  0  0  0  # atno 17395 bound_to 11000

$$$$
