AV-unprocessed.smi:3124|AV-procd|sdf|11904|dock5
  -GOLD-   2272017283D 1   1.00000     0.00000
 Structure written by MMmdl.
 24 24  0  0  0  0  0  0  0  0  2 V2000
  140.3079  137.1836  153.8426 C   0  0  0  0  0  0  0  0  0  0  0  0
  141.3103  136.0892  153.6207 C   0  0  0  0  0  0  0  0  0  0  0  0
  142.5286  136.1481  152.8826 C   0  0  0  0  0  0  0  0  0  0  0  0
  143.0594  134.8919  152.9988 C   0  0  0  0  0  0  0  0  0  0  0  0
  144.3115  134.2705  152.4601 C   0  0  0  0  0  0  0  0  0  0  0  0
  144.2060  133.7364  151.0179 C   0  0  2  0  0  0  0  0  0  0  0  0
  145.4970  133.0318  150.5792 C   0  0  0  0  0  0  0  0  0  0  0  0
  143.8777  134.8230  150.0760 N   0  3  0  0  0  0  0  0  0  0  0  0
  142.1649  134.1728  153.7586 N   0  0  0  0  0  0  0  0  0  0  0  0
  141.0987  134.8943  154.1496 N   0  0  0  0  0  0  0  0  0  0  0  0
  142.2676  133.2014  154.0166 H   0  0  0  0  0  0  0  0  0  0  0  0
  140.4080  137.9668  153.0909 H   0  0  0  0  0  0  0  0  0  0  0  0
  140.4426  137.6436  154.8216 H   0  0  0  0  0  0  0  0  0  0  0  0
  139.2867  136.8047  153.7895 H   0  0  0  0  0  0  0  0  0  0  0  0
  142.9435  136.9898  152.3482 H   0  0  0  0  0  0  0  0  0  0  0  0
  145.1268  134.9930  152.5203 H   0  0  0  0  0  0  0  0  0  0  0  0
  144.5949  133.4501  153.1207 H   0  0  0  0  0  0  0  0  0  0  0  0
  143.3962  133.0072  150.9711 H   0  0  0  0  0  0  0  0  0  0  0  0
  145.7320  132.1962  151.2396 H   0  0  0  0  0  0  0  0  0  0  0  0
  146.3476  133.7142  150.5922 H   0  0  0  0  0  0  0  0  0  0  0  0
  145.4048  132.6333  149.5682 H   0  0  0  0  0  0  0  0  0  0  0  0
  144.0901  135.7147  150.5000 H   0  0  0  0  0  0  0  0  0  0  0  0
  142.8935  134.7852  149.8500 H   0  0  0  0  0  0  0  0  0  0  0  0
  144.4206  134.7140  149.2315 H   0  0  0  0  0  0  0  0  0  0  0  0
  1  2  1  0  0  0  0
  1 12  1  0  0  0  0
  1 13  1  0  0  0  0
  1 14  1  0  0  0  0
  2 10  2  0  0  0  0
  2  3  1  0  0  0  0
  3  4  2  0  0  0  0
  3 15  1  0  0  0  0
  4  5  1  0  0  0  0
  4  9  1  0  0  0  0
  5  6  1  0  0  0  0
  5 16  1  0  0  0  0
  5 17  1  0  0  0  0
  6  7  1  0  0  0  0
  6  8  1  0  0  0  0
  6 18  1  0  0  0  0
  7 19  1  0  0  0  0
  7 20  1  0  0  0  0
  7 21  1  0  0  0  0
  8 22  1  0  0  0  0
  8 23  1  0  0  0  0
  8 24  1  0  0  0  0
  9 11  1  0  0  0  0
  9 10  1  0  0  0  0
M  CHG  1   8   1
M  END
> <s_m_source_file>
AV-unprocessed.smi

> <i_m_source_file_index>
3124

> <i_lp_mmshare_version>
43012

> <i_f3d_flags>
0

> <s_epik_input>
W0NIM11jMVtjSF1jKFtuSF1uMSlbQ0gyXVtDQEhdKFtDSDNdKVtOSDJd

> <s_epik_cmdline>
J2VwaWtfcHl0aG9uJywgJy1waCcsICc3LjAnLCAnLXRuJywgJzgnLCAnLW1hJywgJzIwMCcsICctbWV0YWxfYmluZGluZycsICctaW1hZScsICc8aW5maWxlLm1hZT4nLCAnLW9tYWUnLCAnPG91dGZpbGUubWFlPic=

> <r_lp_tautomer_probability>
0.5

> <r_epik_Ionization_Penalty>
0.00227197

> <r_epik_Ionization_Penalty_Charging>
0.00223142

> <r_epik_Ionization_Penalty_Neutral>
4.05538e-05

> <r_epik_State_Penalty>
0.446108

> <r_epik_Charging_Adjusted_Penalty>
0.448339

> <i_epik_Tot_Q>
1

> <i_epik_Tot_abs_Q>
1

> <r_epik_Metal_State_Penalty>
0.444886

> <b_epik_Metal_Only>
0

> <s_lp_Force_Field>
OPLS_2005

> <r_lp_Energy>
4.61412

> <b_lp_Chiralities_Consistent>
1

> <s_lp_Variant>
AV-unprocessed.smi:3124-3

> <Gold.Version>
5.8.1

> <Gold.Id.Protein>
6NUR|6NUR_protein|mol2

> <Gold.PLP.Fitness>
33.5598

> <Gold.PLP.PLP>
-20.8823

> <Gold.PLP.part.hbond>
-3.9181

> <Gold.PLP.part.metal>
0.0000

> <Gold.PLP.part.buried>
-5.8554

> <Gold.PLP.part.nonpolar>
-11.3587

> <Gold.PLP.part.repulsive>
0.3233

> <Gold.PLP.ligand.clash>
0.0000

> <Gold.PLP.ligand.torsion>
0.3454

> <Gold.PLP.Chemscore.Hbond>
4.4550

> <Gold.PLP.Chemscore.CHOScore>
0.0000

> <Gold.PLP.Chemscore.Metal>
0.0000

> <Gold.Chemscore.Hbonds>
donor molecule, donor type, donor heavy atom, donor atom, acceptor molecule, acceptor atom, score
      L1  H     8    23       P1 10186  2.00
      L1  H     8    24       P1  7921  0.23
      L1  H     9    11       P1 10957  1.00
      P1  H 11000 11005       L1    10  1.00

> <Gold.PLP.Chemscore.Internal.Correction>
0.0033

> <Gold.Rescore>
     Score         DG    S(hbond)    S(metal)    S(lipo)     H(rot)  DE(clash)    DE(int)     intcor
     18.62     -18.97       3.61        0.00      40.77       1.30       0.05       0.30       ----

> <Gold.Chemscore.Fitness>
18.6178

> <Gold.Chemscore.DG>
-18.9704

> <Gold.Chemscore.ZeroCoef>
-5.4800

> <Gold.Chemscore.Hbond>
3.6061

> <Gold.Chemscore.Metal>
0.0000

> <Gold.Chemscore.Lipo>
40.7737

> <Gold.Chemscore.Internal_Hbond>
0.0000

> <Gold.Chemscore.DEClash>
0.0544

> <Gold.Chemscore.DEInternal>
0.2982

> <Gold.Chemscore.Rot>
1.2987

> <Gold.Chemscore.Internal.Correction>
   9.000000E+99

> <Gold.Chemscore.Hbonds>
donor molecule, donor type, donor heavy atom, donor atom, acceptor molecule, acceptor atom, score
      L1  H     8    23       P1 10186  0.70
      L1  H     8    24       P1  7921  0.23
      L1  H     9    11       P1 10957  1.00
      P1  H 11000 11005       L1    10  0.59

> <Gold.Chemscore.Hbond.Weighted>
-12.0445

> <Gold.Chemscore.Metal.Weighted>
-0.0000

> <Gold.Chemscore.Lipo.Weighted>
-4.7705

> <Gold.Chemscore.Internal_Hbond.Weighted>
0.0000

> <Gold.Chemscore.DEClash.Weighted>
0.0544

> <Gold.Chemscore.DEInternal.Weighted>
0.2982

> <Gold.Chemscore.Rot.Weighted>
3.3246

> <Gold.Chemscore.Internal.Correction.Weighted>
   9.000000E+99

> <Gold.Protein.RotatedTorsions>
[ 6907 6896 6895 6894 ] final -123.42 input  -60.11 | X-H torsion
[ 7974 7965 7964 7962 ] final  -15.54 input  175.53 | X-H torsion
[ 8008 7997 7996 7995 ] final  -27.41 input   59.86 | X-H torsion
[ 10167 10162 10161 10158 ] final  145.03 input  -65.29 | X-H torsion
[ 10718 10713 10712 10709 ] final   42.80 input   66.30 | X-H torsion
[ 10763 10752 10751 10750 ] final -164.58 input  -60.55 | X-H torsion
[ 11005 11000 10999 10996 ] final   16.12 input  -57.11 | X-H torsion

> <Gold.Protein.ActiveResidues>
 VAL166  LYS551  ARG553  GLY616  TRP617  ASP618  TYR619  PRO620  LYS621  CYS622 
 ASP623  PHE694  ASN695  SER759  ASP760  ASP761  ALA762  ILE779  LEU786  VAL792 
 PHE793  MET794  SER795  GLU796  ALA797  LYS798  CYS799  TRP800  GLU811  SER814 

> <Gold.Protein.RotatedAtoms>
  150.8670  133.7561  159.2973 H   0  0  0  0  0  0  0  0  0  0  0  0  # atno 6907 bound_to 6896
  151.5185  135.1065  159.9882 H   0  0  0  0  0  0  0  0  0  0  0  0  # atno 6908 bound_to 6896
  152.4668  133.7895  159.6950 H   0  0  0  0  0  0  0  0  0  0  0  0  # atno 6909 bound_to 6896
  146.2027  140.3508  142.8417 H   0  0  0  0  0  0  0  0  0  0  0  0  # atno 7974 bound_to 7965
  154.4378  140.1873  156.0928 H   0  0  0  0  0  0  0  0  0  0  0  0  # atno 8008 bound_to 7997
  156.0352  140.3326  155.7157 H   0  0  0  0  0  0  0  0  0  0  0  0  # atno 8009 bound_to 7997
  155.5781  140.0619  157.2781 H   0  0  0  0  0  0  0  0  0  0  0  0  # atno 8010 bound_to 7997
  139.4934  144.5930  151.6641 H   0  0  0  0  0  0  0  0  0  0  0  0  # atno 10167 bound_to 10162
  157.4089  130.7902  149.7413 H   0  0  0  0  0  0  0  0  0  0  0  0  # atno 10718 bound_to 10713
  154.7015  135.2989  154.9334 H   0  0  0  0  0  0  0  0  0  0  0  0  # atno 10763 bound_to 10752
  154.0265  135.6676  153.4781 H   0  0  0  0  0  0  0  0  0  0  0  0  # atno 10764 bound_to 10752
  153.0685  135.5074  154.8161 H   0  0  0  0  0  0  0  0  0  0  0  0  # atno 10765 bound_to 10752
  140.4507  134.1227  155.7702 H   0  0  0  0  0  0  0  0  0  0  0  0  # atno 11005 bound_to 11000
  144.8721  140.7286  143.6040 LP  0  0  0  0  0  0  0  0  0  0  0  0  # atno 17320 bound_to 7965
  145.3427  139.1728  143.4477 LP  0  0  0  0  0  0  0  0  0  0  0  0  # atno 17321 bound_to 7965
  140.5561  144.0345  150.6148 LP  0  0  0  0  0  0  0  0  0  0  0  0  # atno 17342 bound_to 10162
  140.3415  143.3016  152.0583 LP  0  0  0  0  0  0  0  0  0  0  0  0  # atno 17343 bound_to 10162
  155.9844  130.3991  150.3311 LP  0  0  0  0  0  0  0  0  0  0  0  0  # atno 17370 bound_to 10713
  157.1447  131.0305  151.2912 LP  0  0  0  0  0  0  0  0  0  0  0  0  # atno 17371 bound_to 10713
  141.1665  133.8692  157.1698 LP  0  0  0  0  0  0  0  0  0  0  0  0  # atno 17394 bound_to 11000
  140.0009  135.0028  157.0187 LP  0  0  0  0  0  0  0  0  0  0  0  0  # atno 17395 bound_to 11000

$$$$
