AV-unprocessed.smi:655|AV-procd|sdf|3216|dock3
  -GOLD-   22720 0153D 1   1.00000     0.00000
 Structure written by MMmdl.
 34 35  0  0  0  0  0  0  0  0  2 V2000
  153.0383  142.8922  160.8797 C   0  0  0  0  0  0  0  0  0  0  0  0
  152.6465  142.5558  159.4340 C   0  0  2  0  0  0  0  0  0  0  0  0
  152.1204  143.7940  158.6876 C   0  0  0  0  0  0  0  0  0  0  0  0
  151.7356  143.4592  157.2351 C   0  0  0  0  0  0  0  0  0  0  0  0
  150.7208  142.2961  157.1213 C   0  0  1  0  0  0  0  0  0  0  0  0
  149.5039  142.7599  157.6774 O   0  0  0  0  0  0  0  0  0  0  0  0
  150.4612  141.9882  155.6187 C   0  0  0  0  0  0  0  0  0  0  0  0
  149.7515  140.7220  155.3621 N   0  0  0  0  0  0  0  0  0  0  0  0
  148.3719  140.6776  155.6331 C   0  0  0  0  0  0  0  0  0  0  0  0
  147.6358  139.5689  155.4258 C   0  0  0  0  0  0  0  0  0  0  0  0
  145.9405  139.5500  155.7584 Cl  0  0  0  0  0  0  0  0  0  0  0  0
  148.3146  138.3825  154.9096 C   0  0  0  0  0  0  0  0  0  0  0  0
  147.6709  137.3552  154.7011 O   0  0  0  0  0  0  0  0  0  0  0  0
  149.6573  138.4700  154.6803 N   0  5  0  0  0  0  0  0  0  0  0  0
  150.3898  139.6050  154.9015 C   0  0  0  0  0  0  0  0  0  0  0  0
  151.6039  139.6504  154.7025 O   0  0  0  0  0  0  0  0  0  0  0  0
  151.2150  141.0738  157.9357 C   0  0  0  0  0  0  0  0  0  0  0  0
  151.6036  141.4263  159.3824 C   0  0  0  0  0  0  0  0  0  0  0  0
  152.1803  143.2478  161.4512 H   0  0  0  0  0  0  0  0  0  0  0  0
  153.8031  143.6686  160.9087 H   0  0  0  0  0  0  0  0  0  0  0  0
  153.4388  142.0163  161.3908 H   0  0  0  0  0  0  0  0  0  0  0  0
  153.5454  142.2089  158.9222 H   0  0  0  0  0  0  0  0  0  0  0  0
  151.2570  144.2048  159.2127 H   0  0  0  0  0  0  0  0  0  0  0  0
  152.8786  144.5779  158.6888 H   0  0  0  0  0  0  0  0  0  0  0  0
  151.3433  144.3519  156.7456 H   0  0  0  0  0  0  0  0  0  0  0  0
  152.6451  143.1965  156.6933 H   0  0  0  0  0  0  0  0  0  0  0  0
  149.1793  143.4675  157.1417 H   0  0  0  0  0  0  0  0  0  0  0  0
  149.9471  142.8251  155.1424 H   0  0  0  0  0  0  0  0  0  0  0  0
  151.4196  141.9403  155.0995 H   0  0  0  0  0  0  0  0  0  0  0  0
  147.9500  141.5979  156.0096 H   0  0  0  0  0  0  0  0  0  0  0  0
  150.4532  140.2937  157.9559 H   0  0  0  0  0  0  0  0  0  0  0  0
  152.0842  140.6404  157.4397 H   0  0  0  0  0  0  0  0  0  0  0  0
  151.9947  140.5367  159.8773 H   0  0  0  0  0  0  0  0  0  0  0  0
  150.7130  141.7186  159.9404 H   0  0  0  0  0  0  0  0  0  0  0  0
  1  2  1  0  0  0  0
  1 19  1  0  0  0  0
  1 20  1  0  0  0  0
  1 21  1  0  0  0  0
  2 18  1  0  0  0  0
  2  3  1  0  0  0  0
  2 22  1  0  0  0  0
  3  4  1  0  0  0  0
  3 23  1  0  0  0  0
  3 24  1  0  0  0  0
  4  5  1  0  0  0  0
  4 25  1  0  0  0  0
  4 26  1  0  0  0  0
  5  6  1  0  0  0  0
  5  7  1  0  0  0  0
  5 17  1  0  0  0  0
  6 27  1  0  0  0  0
  7  8  1  0  0  0  0
  7 28  1  0  0  0  0
  7 29  1  0  0  0  0
  8 15  1  0  0  0  0
  8  9  1  0  0  0  0
  9 10  2  0  0  0  0
  9 30  1  0  0  0  0
 10 11  1  0  0  0  0
 10 12  1  0  0  0  0
 12 13  2  0  0  0  0
 12 14  1  0  0  0  0
 14 15  1  0  0  0  0
 15 16  2  0  0  0  0
 17 18  1  0  0  0  0
 17 31  1  0  0  0  0
 17 32  1  0  0  0  0
 18 33  1  0  0  0  0
 18 34  1  0  0  0  0
M  CHG  1  14  -1
M  END
> <s_m_source_file>
AV-unprocessed.smi

> <i_m_source_file_index>
655

> <i_lp_mmshare_version>
43012

> <i_f3d_flags>
0

> <s_epik_input>
W0NIMl0xW0NIMl1bQ0BIXShbQ0gzXSlbQ0gyXVtDSDJdW0NAQF0xKFtPSF0pW0NIMl1uMltjSF1jKENsKWMoPU8pW25IXWMyPU8=

> <s_epik_cmdline>
J2VwaWtfcHl0aG9uJywgJy1waCcsICc3LjAnLCAnLXRuJywgJzgnLCAnLW1hJywgJzIwMCcsICctbWV0YWxfYmluZGluZycsICctaW1hZScsICc8aW5maWxlLm1hZT4nLCAnLW9tYWUnLCAnPG91dGZpbGUubWFlPic=

> <r_epik_Ionization_Penalty>
2.34257

> <r_epik_Ionization_Penalty_Charging>
1.00552e-07

> <r_epik_Ionization_Penalty_Neutral>
2.34257

> <r_epik_State_Penalty>
2.4963

> <r_epik_Charging_Adjusted_Penalty>
2.4963

> <i_epik_Tot_Q>
-1

> <i_epik_Tot_abs_Q>
1

> <r_epik_Metal_State_Penalty>
0.0381881

> <b_epik_Metal_Only>
0

> <s_lp_Force_Field>
OPLS_2005

> <r_lp_Energy>
26.568

> <b_lp_Chiralities_Consistent>
1

> <s_lp_Variant>
AV-unprocessed.smi:655-3

> <Gold.Version>
5.8.1

> <Gold.Id.Protein>
6NUR|6NUR_protein|mol2

> <Gold.PLP.Fitness>
34.4399

> <Gold.PLP.PLP>
-29.1309

> <Gold.PLP.part.hbond>
-2.0000

> <Gold.PLP.part.metal>
0.0000

> <Gold.PLP.part.buried>
-3.5145

> <Gold.PLP.part.nonpolar>
-23.9764

> <Gold.PLP.part.repulsive>
0.3289

> <Gold.PLP.ligand.clash>
0.0000

> <Gold.PLP.ligand.torsion>
0.3737

> <Gold.PLP.Chemscore.Hbond>
2.0000

> <Gold.PLP.Chemscore.CHOScore>
0.0000

> <Gold.PLP.Chemscore.Metal>
0.0000

> <Gold.Chemscore.Hbonds>
donor molecule, donor type, donor heavy atom, donor atom, acceptor molecule, acceptor atom, score
      L1  H     6    27       P1  8028  1.00
      P1  H  7989  7998       L1    16  1.00

> <Gold.PLP.Chemscore.Internal.Correction>
0.0564

> <Gold.Rescore>
     Score         DG    S(hbond)    S(metal)    S(lipo)     H(rot)  DE(clash)    DE(int)     intcor
     14.80     -15.47       1.60        0.00      79.40       1.81       0.33       0.33       ----

> <Gold.Chemscore.Fitness>
14.8049

> <Gold.Chemscore.DG>
-15.4702

> <Gold.Chemscore.ZeroCoef>
-5.4800

> <Gold.Chemscore.Hbond>
1.5965

> <Gold.Chemscore.Metal>
0.0000

> <Gold.Chemscore.Lipo>
79.3972

> <Gold.Chemscore.Internal_Hbond>
0.0000

> <Gold.Chemscore.DEClash>
0.3336

> <Gold.Chemscore.DEInternal>
0.3317

> <Gold.Chemscore.Rot>
1.8092

> <Gold.Chemscore.Internal.Correction>
   9.000000E+99

> <Gold.Chemscore.Hbonds>
donor molecule, donor type, donor heavy atom, donor atom, acceptor molecule, acceptor atom, score
      L1  H     6    27       P1  8028  0.69
      P1  H  7989  7998       L1    16  0.25

> <Gold.Chemscore.Hbond.Weighted>
-5.3323

> <Gold.Chemscore.Metal.Weighted>
-0.0000

> <Gold.Chemscore.Lipo.Weighted>
-9.2895

> <Gold.Chemscore.Internal_Hbond.Weighted>
0.0000

> <Gold.Chemscore.DEClash.Weighted>
0.3336

> <Gold.Chemscore.DEInternal.Weighted>
0.3317

> <Gold.Chemscore.Rot.Weighted>
4.6316

> <Gold.Chemscore.Internal.Correction.Weighted>
   9.000000E+99

> <Gold.Protein.RotatedTorsions>
[ 6907 6896 6895 6894 ] final  -84.42 input  -60.11 | X-H torsion
[ 7974 7965 7964 7962 ] final -179.97 input  175.53 | X-H torsion
[ 8008 7997 7996 7995 ] final  151.76 input   59.86 | X-H torsion
[ 10167 10162 10161 10158 ] final    7.40 input  -65.29 | X-H torsion
[ 10718 10713 10712 10709 ] final  -67.58 input   66.30 | X-H torsion
[ 10763 10752 10751 10750 ] final  118.80 input  -60.55 | X-H torsion
[ 11005 11000 10999 10996 ] final  -11.53 input  -57.11 | X-H torsion

> <Gold.Protein.ActiveResidues>
 VAL166  LYS551  ARG553  GLY616  TRP617  ASP618  TYR619  PRO620  LYS621  CYS622 
 ASP623  PHE694  ASN695  SER759  ASP760  ASP761  ALA762  ILE779  LEU786  VAL792 
 PHE793  MET794  SER795  GLU796  ALA797  LYS798  CYS799  TRP800  GLU811  SER814 

> <Gold.Protein.RotatedAtoms>
  150.6877  134.3361  159.4847 H   0  0  0  0  0  0  0  0  0  0  0  0  # atno 6907 bound_to 6896
  152.1220  134.9196  160.0572 H   0  0  0  0  0  0  0  0  0  0  0  0  # atno 6908 bound_to 6896
  152.0398  133.3938  159.4369 H   0  0  0  0  0  0  0  0  0  0  0  0  # atno 6909 bound_to 6896
  144.7140  140.0637  143.6432 H   0  0  0  0  0  0  0  0  0  0  0  0  # atno 7974 bound_to 7965
  156.2659  140.2039  156.6227 H   0  0  0  0  0  0  0  0  0  0  0  0  # atno 8008 bound_to 7997
  154.6744  140.0546  157.0224 H   0  0  0  0  0  0  0  0  0  0  0  0  # atno 8009 bound_to 7997
  155.1090  140.3213  155.4529 H   0  0  0  0  0  0  0  0  0  0  0  0  # atno 8010 bound_to 7997
  140.6374  143.7855  150.7378 H   0  0  0  0  0  0  0  0  0  0  0  0  # atno 10167 bound_to 10162
  156.0550  130.4280  150.1876 H   0  0  0  0  0  0  0  0  0  0  0  0  # atno 10718 bound_to 10713
  153.5731  135.3498  155.2846 H   0  0  0  0  0  0  0  0  0  0  0  0  # atno 10763 bound_to 10752
  154.8679  135.4164  154.2703 H   0  0  0  0  0  0  0  0  0  0  0  0  # atno 10764 bound_to 10752
  153.3473  135.7053  153.6887 H   0  0  0  0  0  0  0  0  0  0  0  0  # atno 10765 bound_to 10752
  140.7562  133.8552  155.9086 H   0  0  0  0  0  0  0  0  0  0  0  0  # atno 11005 bound_to 11000
  145.9842  139.2964  143.1024 LP  0  0  0  0  0  0  0  0  0  0  0  0  # atno 17320 bound_to 7965
  145.8976  140.9263  143.0519 LP  0  0  0  0  0  0  0  0  0  0  0  0  # atno 17321 bound_to 7965
  140.1479  143.4383  152.2151 LP  0  0  0  0  0  0  0  0  0  0  0  0  # atno 17342 bound_to 10162
  139.5584  144.7388  151.4228 LP  0  0  0  0  0  0  0  0  0  0  0  0  # atno 17343 bound_to 10162
  156.9953  130.9906  151.3404 LP  0  0  0  0  0  0  0  0  0  0  0  0  # atno 17370 bound_to 10713
  157.5511  130.8183  149.8147 LP  0  0  0  0  0  0  0  0  0  0  0  0  # atno 17371 bound_to 10713
  140.9705  134.1537  157.4580 LP  0  0  0  0  0  0  0  0  0  0  0  0  # atno 17394 bound_to 11000
  139.8778  134.9977  156.5859 LP  0  0  0  0  0  0  0  0  0  0  0  0  # atno 17395 bound_to 11000

$$$$
