AV-unprocessed.smi:3198|AV-procd|sdf|12228|dock8
  -GOLD-   2272018 63D 1   1.00000     0.00000
 Structure written by MMmdl.
 38 39  0  0  0  0  0  0  0  0  2 V2000
  153.2276  141.4284  160.0542 C   0  0  0  0  0  0  0  0  0  0  0  0
  152.6106  142.6084  159.3343 C   0  0  0  0  0  0  0  0  0  0  0  0
  152.7190  143.9280  159.8195 C   0  0  0  0  0  0  0  0  0  0  0  0
  152.1172  144.9748  159.0938 C   0  0  0  0  0  0  0  0  0  0  0  0
  151.4251  144.6821  157.9011 C   0  0  0  0  0  0  0  0  0  0  0  0
  151.3542  143.3421  157.4480 C   0  0  0  0  0  0  0  0  0  0  0  0
  150.7164  142.9341  156.2670 N   0  0  0  0  0  0  0  0  0  0  0  0
  150.6992  141.5260  155.8878 C   0  0  0  0  0  0  0  0  0  0  0  0
  149.3026  141.0520  155.4557 C   0  0  0  0  0  0  0  0  0  0  0  0
  148.9034  141.7841  154.3115 O   0  0  0  0  0  0  0  0  0  0  0  0
  147.8689  141.1661  153.5674 C   0  0  0  0  0  0  0  0  0  0  0  0
  146.5178  141.7371  154.0206 C   0  0  1  0  0  0  0  0  0  0  0  0
  146.2013  141.5835  155.5111 C   0  0  0  0  0  0  0  0  0  0  0  0
  145.3438  142.8020  155.8286 C   0  0  0  0  0  0  0  0  0  0  0  0
  145.3426  143.6182  154.5337 C   0  0  0  0  0  0  0  0  0  0  0  0
  146.4625  143.1385  153.8062 O   0  0  0  0  0  0  0  0  0  0  0  0
  151.9404  142.3716  158.1845 N   0  3  0  0  0  0  0  0  0  0  0  0
  153.6043  141.7205  161.0349 H   0  0  0  0  0  0  0  0  0  0  0  0
  154.0581  141.0240  159.4752 H   0  0  0  0  0  0  0  0  0  0  0  0
  152.4888  140.6391  160.1962 H   0  0  0  0  0  0  0  0  0  0  0  0
  153.2547  144.1379  160.7339 H   0  0  0  0  0  0  0  0  0  0  0  0
  152.1880  145.9932  159.4464 H   0  0  0  0  0  0  0  0  0  0  0  0
  150.9692  145.4898  157.3492 H   0  0  0  0  0  0  0  0  0  0  0  0
  149.9518  143.5024  155.9322 H   0  0  0  0  0  0  0  0  0  0  0  0
  151.3809  141.4190  155.0437 H   0  0  0  0  0  0  0  0  0  0  0  0
  151.1038  140.8950  156.6785 H   0  0  0  0  0  0  0  0  0  0  0  0
  149.3119  139.9797  155.2533 H   0  0  0  0  0  0  0  0  0  0  0  0
  148.5853  141.2280  156.2582 H   0  0  0  0  0  0  0  0  0  0  0  0
  148.0041  141.3522  152.5008 H   0  0  0  0  0  0  0  0  0  0  0  0
  147.8963  140.0862  153.7198 H   0  0  0  0  0  0  0  0  0  0  0  0
  145.7192  141.2779  153.4347 H   0  0  0  0  0  0  0  0  0  0  0  0
  145.6915  140.6435  155.7243 H   0  0  0  0  0  0  0  0  0  0  0  0
  147.1084  141.6128  156.1156 H   0  0  0  0  0  0  0  0  0  0  0  0
  144.3308  142.5285  156.1250 H   0  0  0  0  0  0  0  0  0  0  0  0
  145.7881  143.3717  156.6454 H   0  0  0  0  0  0  0  0  0  0  0  0
  144.4340  143.4266  153.9605 H   0  0  0  0  0  0  0  0  0  0  0  0
  145.4122  144.6913  154.7127 H   0  0  0  0  0  0  0  0  0  0  0  0
  151.8822  141.4088  157.8525 H   0  0  0  0  0  0  0  0  0  0  0  0
  1  2  1  0  0  0  0
  1 18  1  0  0  0  0
  1 19  1  0  0  0  0
  1 20  1  0  0  0  0
  2 17  1  0  0  0  0
  2  3  2  0  0  0  0
  3  4  1  0  0  0  0
  3 21  1  0  0  0  0
  4  5  2  0  0  0  0
  4 22  1  0  0  0  0
  5  6  1  0  0  0  0
  5 23  1  0  0  0  0
  6  7  1  0  0  0  0
  6 17  2  0  0  0  0
  7  8  1  0  0  0  0
  7 24  1  0  0  0  0
  8  9  1  0  0  0  0
  8 25  1  0  0  0  0
  8 26  1  0  0  0  0
  9 10  1  0  0  0  0
  9 27  1  0  0  0  0
  9 28  1  0  0  0  0
 10 11  1  0  0  0  0
 11 12  1  0  0  0  0
 11 29  1  0  0  0  0
 11 30  1  0  0  0  0
 12 16  1  0  0  0  0
 12 13  1  0  0  0  0
 12 31  1  0  0  0  0
 13 14  1  0  0  0  0
 13 32  1  0  0  0  0
 13 33  1  0  0  0  0
 14 15  1  0  0  0  0
 14 34  1  0  0  0  0
 14 35  1  0  0  0  0
 15 16  1  0  0  0  0
 15 36  1  0  0  0  0
 15 37  1  0  0  0  0
 17 38  1  0  0  0  0
M  CHG  1  17   1
M  END
> <s_m_source_file>
AV-unprocessed.smi

> <i_m_source_file_index>
3198

> <i_lp_mmshare_version>
43012

> <i_f3d_flags>
0

> <s_epik_input>
W0NIM11jMVtjSF1bY0hdW2NIXWMobjEpW05IXVtDSDJdW0NIMl1PW0NIMl1bQ0BASF0yW0NIMl1bQ0gyXVtDSDJdTzI=

> <s_epik_cmdline>
J2VwaWtfcHl0aG9uJywgJy1waCcsICc3LjAnLCAnLXRuJywgJzgnLCAnLW1hJywgJzIwMCcsICctbWV0YWxfYmluZGluZycsICctaW1hZScsICc8aW5maWxlLm1hZT4nLCAnLW9tYWUnLCAnPG91dGZpbGUubWFlPic=

> <r_lp_tautomer_probability>
0.999994

> <r_epik_Ionization_Penalty>
0.0710016

> <r_epik_Ionization_Penalty_Charging>
0.0710012

> <r_epik_Ionization_Penalty_Neutral>
3.47026e-07

> <r_epik_State_Penalty>
0.0622974

> <r_epik_Charging_Adjusted_Penalty>
0.133299

> <i_epik_Tot_Q>
1

> <i_epik_Tot_abs_Q>
1

> <r_epik_Metal_State_Penalty>
2.79497

> <b_epik_Metal_Only>
0

> <s_lp_Force_Field>
OPLS_2005

> <r_lp_Energy>
24.0011

> <b_lp_Chiralities_Consistent>
1

> <s_lp_Variant>
AV-unprocessed.smi:3198-2

> <Gold.Version>
5.8.1

> <Gold.Id.Protein>
6NUR|6NUR_protein|mol2

> <Gold.PLP.Fitness>
46.7648

> <Gold.PLP.PLP>
-41.5491

> <Gold.PLP.part.hbond>
-2.6293

> <Gold.PLP.part.metal>
0.0000

> <Gold.PLP.part.buried>
-5.4173

> <Gold.PLP.part.nonpolar>
-34.4356

> <Gold.PLP.part.repulsive>
0.5563

> <Gold.PLP.ligand.clash>
0.2098

> <Gold.PLP.ligand.torsion>
0.4039

> <Gold.PLP.Chemscore.Hbond>
2.0679

> <Gold.PLP.Chemscore.CHOScore>
0.0000

> <Gold.PLP.Chemscore.Metal>
0.0000

> <Gold.Chemscore.Hbonds>
donor molecule, donor type, donor heavy atom, donor atom, acceptor molecule, acceptor atom, score
      L1  H     7    24       P1  8028  2.00
      P1  H  8011  8017       L1    10  0.07

> <Gold.PLP.Chemscore.Internal.Correction>
0.0298

> <Gold.Rescore>
     Score         DG    S(hbond)    S(metal)    S(lipo)     H(rot)  DE(clash)    DE(int)     intcor
     15.83     -16.33       1.00        0.00     101.48       1.71       0.11       0.40       ----

> <Gold.Chemscore.Fitness>
15.8262

> <Gold.Chemscore.DG>
-16.3312

> <Gold.Chemscore.ZeroCoef>
-5.4800

> <Gold.Chemscore.Hbond>
1.0018

> <Gold.Chemscore.Metal>
0.0000

> <Gold.Chemscore.Lipo>
101.4826

> <Gold.Chemscore.Internal_Hbond>
0.0000

> <Gold.Chemscore.DEClash>
0.1101

> <Gold.Chemscore.DEInternal>
0.3950

> <Gold.Chemscore.Rot>
1.7063

> <Gold.Chemscore.Internal.Correction>
   9.000000E+99

> <Gold.Chemscore.Hbonds>
donor molecule, donor type, donor heavy atom, donor atom, acceptor molecule, acceptor atom, score
      L1  H     7    24       P1  8028  0.99

> <Gold.Chemscore.Hbond.Weighted>
-3.3459

> <Gold.Chemscore.Metal.Weighted>
-0.0000

> <Gold.Chemscore.Lipo.Weighted>
-11.8735

> <Gold.Chemscore.Internal_Hbond.Weighted>
0.0000

> <Gold.Chemscore.DEClash.Weighted>
0.1101

> <Gold.Chemscore.DEInternal.Weighted>
0.3950

> <Gold.Chemscore.Rot.Weighted>
4.3681

> <Gold.Chemscore.Internal.Correction.Weighted>
   9.000000E+99

> <Gold.Protein.RotatedTorsions>
[ 6907 6896 6895 6894 ] final  -33.28 input  -60.11 | X-H torsion
[ 7974 7965 7964 7962 ] final   58.47 input  175.53 | X-H torsion
[ 8008 7997 7996 7995 ] final -151.31 input   59.86 | X-H torsion
[ 10167 10162 10161 10158 ] final  -57.67 input  -65.29 | X-H torsion
[ 10718 10713 10712 10709 ] final   81.79 input   66.30 | X-H torsion
[ 10763 10752 10751 10750 ] final   43.33 input  -60.55 | X-H torsion
[ 11005 11000 10999 10996 ] final -137.56 input  -57.11 | X-H torsion

> <Gold.Protein.ActiveResidues>
 VAL166  LYS551  ARG553  GLY616  TRP617  ASP618  TYR619  PRO620  LYS621  CYS622 
 ASP623  PHE694  ASN695  SER759  ASP760  ASP761  ALA762  ILE779  LEU786  VAL792 
 PHE793  MET794  SER795  GLU796  ALA797  LYS798  CYS799  TRP800  GLU811  SER814 

> <Gold.Protein.RotatedAtoms>
  151.0676  134.9778  159.8292 H   0  0  0  0  0  0  0  0  0  0  0  0  # atno 6907 bound_to 6896
  152.5404  134.2339  159.8845 H   0  0  0  0  0  0  0  0  0  0  0  0  # atno 6908 bound_to 6896
  151.2362  133.4380  159.2639 H   0  0  0  0  0  0  0  0  0  0  0  0  # atno 6909 bound_to 6896
  145.9178  139.3705  143.0497 H   0  0  0  0  0  0  0  0  0  0  0  0  # atno 7974 bound_to 7965
  155.6374  140.0698  157.2629 H   0  0  0  0  0  0  0  0  0  0  0  0  # atno 8008 bound_to 7997
  154.4191  140.1756  156.1586 H   0  0  0  0  0  0  0  0  0  0  0  0  # atno 8009 bound_to 7997
  155.9883  140.3347  155.6732 H   0  0  0  0  0  0  0  0  0  0  0  0  # atno 8010 bound_to 7997
  140.6244  143.2432  151.5400 H   0  0  0  0  0  0  0  0  0  0  0  0  # atno 10167 bound_to 10162
  157.6842  131.0019  150.2279 H   0  0  0  0  0  0  0  0  0  0  0  0  # atno 10718 bound_to 10713
  152.9863  135.6105  154.3093 H   0  0  0  0  0  0  0  0  0  0  0  0  # atno 10763 bound_to 10752
  154.2809  135.2777  155.2699 H   0  0  0  0  0  0  0  0  0  0  0  0  # atno 10764 bound_to 10752
  154.5038  135.5859  153.6608 H   0  0  0  0  0  0  0  0  0  0  0  0  # atno 10765 bound_to 10752
  140.8699  134.2064  157.4657 H   0  0  0  0  0  0  0  0  0  0  0  0  # atno 11005 bound_to 11000
  145.8589  140.9486  143.0710 LP  0  0  0  0  0  0  0  0  0  0  0  0  # atno 17320 bound_to 7965
  144.6749  140.0504  143.7479 LP  0  0  0  0  0  0  0  0  0  0  0  0  # atno 17321 bound_to 7965
  139.5467  144.2503  152.1455 LP  0  0  0  0  0  0  0  0  0  0  0  0  # atno 17342 bound_to 10162
  140.1731  144.4917  150.6569 LP  0  0  0  0  0  0  0  0  0  0  0  0  # atno 17343 bound_to 10162
  156.2917  130.3746  149.7835 LP  0  0  0  0  0  0  0  0  0  0  0  0  # atno 17370 bound_to 10713
  156.5492  130.8334  151.3294 LP  0  0  0  0  0  0  0  0  0  0  0  0  # atno 17371 bound_to 10713
  139.8711  134.9769  156.4939 LP  0  0  0  0  0  0  0  0  0  0  0  0  # atno 17394 bound_to 11000
  140.8585  133.8077  155.9241 LP  0  0  0  0  0  0  0  0  0  0  0  0  # atno 17395 bound_to 11000

$$$$
