AV-unprocessed.smi:565|AV-procd|sdf|2951|dock7
  -GOLD-   2262023453D 1   1.00000     0.00000
 Structure written by MMmdl.
 50 51  0  0  0  0  0  0  0  0  2 V2000
  143.8391  132.6302  149.7586 C   0  0  0  0  0  0  0  0  0  0  0  0
  144.8807  132.1782  150.7421 C   0  0  0  0  0  0  0  0  0  0  0  0
  144.9459  130.8984  151.0682 N   0  0  0  0  0  0  0  0  0  0  0  0
  145.9637  130.8178  151.9480 N   0  0  0  0  0  0  0  0  0  0  0  0
  146.3138  129.5302  152.5155 C   0  0  0  0  0  0  0  0  0  0  0  0
  146.5431  132.0501  152.1794 C   0  0  0  0  0  0  0  0  0  0  0  0
  147.6918  132.2222  153.1206 C   0  0  0  0  0  0  0  0  0  0  0  0
  145.8654  132.9619  151.4139 C   0  0  0  0  0  0  0  0  0  0  0  0
  146.0881  134.4493  151.2973 C   0  0  0  0  0  0  0  0  0  0  0  0
  145.7234  135.1266  152.6184 C   0  0  0  0  0  0  0  0  0  0  0  0
  144.5678  135.0775  153.0390 O   0  0  0  0  0  0  0  0  0  0  0  0
  146.7200  135.7437  153.2719 N   0  0  0  0  0  0  0  0  0  0  0  0
  146.5913  136.3886  154.5723 C   0  0  0  0  0  0  0  0  0  0  0  0
  147.5027  137.6275  154.6699 C   0  0  0  0  0  0  0  0  0  0  0  0
  148.9423  137.2886  154.5402 N   0  3  1  0  0  0  0  0  0  0  0  0
  149.8111  138.4875  154.6677 C   0  0  0  0  0  0  0  0  0  0  0  0
  151.2816  138.1387  154.3886 C   0  0  0  0  0  0  0  0  0  0  0  0
  151.7647  137.0161  155.3152 C   0  0  0  0  0  0  0  0  0  0  0  0
  150.8409  135.7925  155.1962 C   0  0  1  0  0  0  0  0  0  0  0  0
  151.2860  134.6610  156.1337 C   0  0  0  0  0  0  0  0  0  0  0  0
  149.3768  136.2004  155.4574 C   0  0  0  0  0  0  0  0  0  0  0  0
  143.5337  133.6587  149.9501 H   0  0  0  0  0  0  0  0  0  0  0  0
  142.9439  132.0093  149.8094 H   0  0  0  0  0  0  0  0  0  0  0  0
  144.2203  132.5815  148.7386 H   0  0  0  0  0  0  0  0  0  0  0  0
  146.2367  129.5748  153.6020 H   0  0  0  0  0  0  0  0  0  0  0  0
  147.3374  129.2751  152.2405 H   0  0  0  0  0  0  0  0  0  0  0  0
  145.6449  128.7511  152.1472 H   0  0  0  0  0  0  0  0  0  0  0  0
  147.9639  133.2717  153.2291 H   0  0  0  0  0  0  0  0  0  0  0  0
  148.5694  131.6848  152.7605 H   0  0  0  0  0  0  0  0  0  0  0  0
  147.4426  131.8401  154.1107 H   0  0  0  0  0  0  0  0  0  0  0  0
  147.1227  134.6865  151.0472 H   0  0  0  0  0  0  0  0  0  0  0  0
  145.4822  134.8771  150.4977 H   0  0  0  0  0  0  0  0  0  0  0  0
  147.6374  135.7381  152.8502 H   0  0  0  0  0  0  0  0  0  0  0  0
  145.5442  136.6626  154.6931 H   0  0  0  0  0  0  0  0  0  0  0  0
  146.8214  135.6782  155.3681 H   0  0  0  0  0  0  0  0  0  0  0  0
  147.2296  138.3154  153.8684 H   0  0  0  0  0  0  0  0  0  0  0  0
  147.3305  138.1633  155.6046 H   0  0  0  0  0  0  0  0  0  0  0  0
  149.4890  139.2558  153.9636 H   0  0  0  0  0  0  0  0  0  0  0  0
  149.7064  138.9098  155.6685 H   0  0  0  0  0  0  0  0  0  0  0  0
  151.3950  137.8312  153.3482 H   0  0  0  0  0  0  0  0  0  0  0  0
  151.9056  139.0236  154.5191 H   0  0  0  0  0  0  0  0  0  0  0  0
  152.7900  136.7428  155.0635 H   0  0  0  0  0  0  0  0  0  0  0  0
  151.7812  137.3730  156.3461 H   0  0  0  0  0  0  0  0  0  0  0  0
  150.9082  135.4161  154.1743 H   0  0  0  0  0  0  0  0  0  0  0  0
  151.2401  134.9693  157.1788 H   0  0  0  0  0  0  0  0  0  0  0  0
  152.3115  134.3566  155.9216 H   0  0  0  0  0  0  0  0  0  0  0  0
  150.6518  133.7818  156.0177 H   0  0  0  0  0  0  0  0  0  0  0  0
  149.2544  136.5270  156.4917 H   0  0  0  0  0  0  0  0  0  0  0  0
  148.7410  135.3255  155.3277 H   0  0  0  0  0  0  0  0  0  0  0  0
  149.0710  136.9494  153.5974 H   0  0  0  0  0  0  0  0  0  0  0  0
  1  2  1  0  0  0  0
  1 22  1  0  0  0  0
  1 23  1  0  0  0  0
  1 24  1  0  0  0  0
  2  8  1  0  0  0  0
  2  3  2  0  0  0  0
  3  4  1  0  0  0  0
  4  5  1  0  0  0  0
  4  6  1  0  0  0  0
  5 25  1  0  0  0  0
  5 26  1  0  0  0  0
  5 27  1  0  0  0  0
  6  7  1  0  0  0  0
  6  8  2  0  0  0  0
  7 28  1  0  0  0  0
  7 29  1  0  0  0  0
  7 30  1  0  0  0  0
  8  9  1  0  0  0  0
  9 10  1  0  0  0  0
  9 31  1  0  0  0  0
  9 32  1  0  0  0  0
 10 11  2  0  0  0  0
 10 12  1  0  0  0  0
 12 13  1  0  0  0  0
 12 33  1  0  0  0  0
 13 14  1  0  0  0  0
 13 34  1  0  0  0  0
 13 35  1  0  0  0  0
 14 15  1  0  0  0  0
 14 36  1  0  0  0  0
 14 37  1  0  0  0  0
 15 21  1  0  0  0  0
 15 16  1  0  0  0  0
 15 50  1  0  0  0  0
 16 17  1  0  0  0  0
 16 38  1  0  0  0  0
 16 39  1  0  0  0  0
 17 18  1  0  0  0  0
 17 40  1  0  0  0  0
 17 41  1  0  0  0  0
 18 19  1  0  0  0  0
 18 42  1  0  0  0  0
 18 43  1  0  0  0  0
 19 20  1  0  0  0  0
 19 21  1  0  0  0  0
 19 44  1  0  0  0  0
 20 45  1  0  0  0  0
 20 46  1  0  0  0  0
 20 47  1  0  0  0  0
 21 48  1  0  0  0  0
 21 49  1  0  0  0  0
M  CHG  1  15   1
M  END
> <s_m_source_file>
AV-unprocessed.smi

> <i_m_source_file_index>
565

> <i_lp_mmshare_version>
43012

> <i_f3d_flags>
0

> <s_epik_input>
W0NIM11jMW5uKFtDSDNdKWMoW0NIM10pYzFbQ0gyXUMoPU8pW05IXVtDSDJdW0NIMl1OMltDSDJdW0NIMl1bQ0gyXVtDQEBIXShbQ0gzXSlbQ0gyXTI=

> <s_epik_cmdline>
J2VwaWtfcHl0aG9uJywgJy1waCcsICc3LjAnLCAnLXRuJywgJzgnLCAnLW1hJywgJzIwMCcsICctbWV0YWxfYmluZGluZycsICctaW1hZScsICc8aW5maWxlLm1hZT4nLCAnLW9tYWUnLCAnPG91dGZpbGUubWFlPic=

> <r_lp_tautomer_probability>
1

> <r_epik_Ionization_Penalty>
0.00411138

> <r_epik_Ionization_Penalty_Charging>
0.0019503

> <r_epik_Ionization_Penalty_Neutral>
0.00216107

> <r_epik_State_Penalty>
-0

> <r_epik_Charging_Adjusted_Penalty>
0.0019503

> <i_epik_Tot_Q>
1

> <i_epik_Tot_abs_Q>
1

> <r_epik_Metal_State_Penalty>
-0

> <b_epik_Metal_Only>
0

> <s_lp_Force_Field>
OPLS_2005

> <r_lp_Energy>
10.3148

> <b_lp_Chiralities_Consistent>
1

> <s_lp_Variant>
AV-unprocessed.smi:565-1

> <Gold.Version>
5.8.1

> <Gold.Id.Protein>
6NUR|6NUR_protein|mol2

> <Gold.PLP.Fitness>
44.0925

> <Gold.PLP.PLP>
-35.5990

> <Gold.PLP.part.hbond>
-2.0000

> <Gold.PLP.part.metal>
0.0000

> <Gold.PLP.part.buried>
-6.4049

> <Gold.PLP.part.nonpolar>
-27.9152

> <Gold.PLP.part.repulsive>
0.2106

> <Gold.PLP.ligand.clash>
0.0000

> <Gold.PLP.ligand.torsion>
0.2671

> <Gold.PLP.Chemscore.Hbond>
3.0000

> <Gold.PLP.Chemscore.CHOScore>
0.0000

> <Gold.PLP.Chemscore.Metal>
0.0000

> <Gold.Chemscore.Hbonds>
donor molecule, donor type, donor heavy atom, donor atom, acceptor molecule, acceptor atom, score
      L1  H    12    33       P1  7948  1.00
      L1  H    15    50       P1  7948  2.00

> <Gold.PLP.Chemscore.Internal.Correction>
0.0277

> <Gold.Rescore>
     Score         DG    S(hbond)    S(metal)    S(lipo)     H(rot)  DE(clash)    DE(int)     intcor
     18.53     -18.81       2.00        0.00      92.25       1.61       0.06       0.22       ----

> <Gold.Chemscore.Fitness>
18.5312

> <Gold.Chemscore.DG>
-18.8143

> <Gold.Chemscore.ZeroCoef>
-5.4800

> <Gold.Chemscore.Hbond>
1.9981

> <Gold.Chemscore.Metal>
0.0000

> <Gold.Chemscore.Lipo>
92.2476

> <Gold.Chemscore.Internal_Hbond>
0.0000

> <Gold.Chemscore.DEClash>
0.0582

> <Gold.Chemscore.DEInternal>
0.2248

> <Gold.Chemscore.Rot>
1.6142

> <Gold.Chemscore.Internal.Correction>
   9.000000E+99

> <Gold.Chemscore.Hbonds>
donor molecule, donor type, donor heavy atom, donor atom, acceptor molecule, acceptor atom, score
      L1  H    12    33       P1  7948  1.00
      L1  H    15    50       P1  7948  1.00

> <Gold.Chemscore.Hbond.Weighted>
-6.6737

> <Gold.Chemscore.Metal.Weighted>
-0.0000

> <Gold.Chemscore.Lipo.Weighted>
-10.7930

> <Gold.Chemscore.Internal_Hbond.Weighted>
0.0000

> <Gold.Chemscore.DEClash.Weighted>
0.0582

> <Gold.Chemscore.DEInternal.Weighted>
0.2248

> <Gold.Chemscore.Rot.Weighted>
4.1324

> <Gold.Chemscore.Internal.Correction.Weighted>
   9.000000E+99

> <Gold.Protein.RotatedTorsions>
[ 6907 6896 6895 6894 ] final   38.30 input  -60.11 | X-H torsion
[ 7974 7965 7964 7962 ] final  158.91 input  175.53 | X-H torsion
[ 8008 7997 7996 7995 ] final -117.97 input   59.86 | X-H torsion
[ 10167 10162 10161 10158 ] final  115.28 input  -65.29 | X-H torsion
[ 10718 10713 10712 10709 ] final  108.36 input   66.30 | X-H torsion
[ 10763 10752 10751 10750 ] final -123.94 input  -60.55 | X-H torsion
[ 11005 11000 10999 10996 ] final -161.98 input  -57.11 | X-H torsion

> <Gold.Protein.ActiveResidues>
 VAL166  LYS551  ARG553  GLY616  TRP617  ASP618  TYR619  PRO620  LYS621  CYS622 
 ASP623  PHE694  ASN695  SER759  ASP760  ASP761  ALA762  ILE779  LEU786  VAL792 
 PHE793  MET794  SER795  GLU796  ALA797  LYS798  CYS799  TRP800  GLU811  SER814 

> <Gold.Protein.RotatedAtoms>
  152.1547  134.8960  160.0545 H   0  0  0  0  0  0  0  0  0  0  0  0  # atno 6907 bound_to 6896
  151.9979  133.3809  159.4178 H   0  0  0  0  0  0  0  0  0  0  0  0  # atno 6908 bound_to 6896
  150.6880  134.3788  159.5068 H   0  0  0  0  0  0  0  0  0  0  0  0  # atno 6909 bound_to 6896
  144.7819  139.7544  143.6256 H   0  0  0  0  0  0  0  0  0  0  0  0  # atno 7974 bound_to 7965
  155.0921  140.0395  157.2672 H   0  0  0  0  0  0  0  0  0  0  0  0  # atno 8008 bound_to 7997
  154.6823  140.2636  155.6870 H   0  0  0  0  0  0  0  0  0  0  0  0  # atno 8009 bound_to 7997
  156.2699  140.2776  156.1372 H   0  0  0  0  0  0  0  0  0  0  0  0  # atno 8010 bound_to 7997
  139.6328  144.7117  151.2396 H   0  0  0  0  0  0  0  0  0  0  0  0  # atno 10167 bound_to 10162
  157.6589  131.0892  150.6294 H   0  0  0  0  0  0  0  0  0  0  0  0  # atno 10718 bound_to 10713
  154.8716  135.4081  154.3024 H   0  0  0  0  0  0  0  0  0  0  0  0  # atno 10763 bound_to 10752
  153.3881  135.7014  153.6520 H   0  0  0  0  0  0  0  0  0  0  0  0  # atno 10764 bound_to 10752
  153.5314  135.3666  155.2649 H   0  0  0  0  0  0  0  0  0  0  0  0  # atno 10765 bound_to 10752
  140.6143  134.4816  157.5218 H   0  0  0  0  0  0  0  0  0  0  0  0  # atno 11005 bound_to 11000
  146.2032  139.5340  142.9729 LP  0  0  0  0  0  0  0  0  0  0  0  0  # atno 17320 bound_to 7965
  145.6026  141.0353  143.2010 LP  0  0  0  0  0  0  0  0  0  0  0  0  # atno 17321 bound_to 7965
  140.7449  143.6449  150.8301 LP  0  0  0  0  0  0  0  0  0  0  0  0  # atno 17342 bound_to 10162
  140.0076  143.5677  152.2851 LP  0  0  0  0  0  0  0  0  0  0  0  0  # atno 17343 bound_to 10162
  156.6598  130.4509  149.5691 LP  0  0  0  0  0  0  0  0  0  0  0  0  # atno 17370 bound_to 10713
  156.2075  130.6658  151.1234 LP  0  0  0  0  0  0  0  0  0  0  0  0  # atno 17371 bound_to 10713
  139.9179  134.8208  156.1306 LP  0  0  0  0  0  0  0  0  0  0  0  0  # atno 17394 bound_to 11000
  141.0786  133.6764  156.2289 LP  0  0  0  0  0  0  0  0  0  0  0  0  # atno 17395 bound_to 11000

$$$$
