AV-unprocessed.smi:203|AV-procd|sdf|1582|dock9
  -GOLD-   2262019473D 1   1.00000     0.00000
 Structure written by MMmdl.
 57 61  0  0  0  0  0  0  0  0  1 V2000
  144.9599  131.6029  157.8527 O   0  0  0  0  0  0  0  0  0  0  0  0
  146.0287  132.1940  157.9866 C   0  0  0  0  0  0  0  0  0  0  0  0
  146.1377  133.6968  158.1781 C   0  0  0  0  0  0  0  0  0  0  0  0
  147.6241  133.9111  158.5308 C   0  0  1  0  0  0  0  0  0  0  0  0
  147.8826  134.3563  160.0053 C   0  0  2  0  0  0  0  0  0  0  0  0
  147.3402  133.3393  161.0445 C   0  0  0  0  0  0  0  0  0  0  0  0
  147.6127  133.7969  162.4832 C   0  0  0  0  0  0  0  0  0  0  0  0
  147.0246  135.1942  162.7052 C   0  0  0  0  0  0  0  0  0  0  0  0
  147.5808  136.1783  161.6679 C   0  0  0  0  0  0  0  0  0  0  0  0
  147.3553  135.7001  160.3040 N   0  0  0  0  0  0  0  0  0  0  0  0
  147.6490  136.6745  159.4145 C   0  0  0  0  0  0  0  0  0  0  0  0
  146.6162  137.2080  158.7173 N   0  0  0  0  0  0  0  0  0  0  0  0
  146.8447  138.1740  157.8223 C   0  0  0  0  0  0  0  0  0  0  0  0
  148.0044  138.7426  157.4843 N   0  0  0  0  0  0  0  0  0  0  0  0
  149.0426  138.2126  158.1927 C   0  0  0  0  0  0  0  0  0  0  0  0
  148.9563  137.1806  159.1681 C   0  0  0  0  0  0  0  0  0  0  0  0
  150.2191  136.8973  159.6738 N   0  0  0  0  0  0  0  0  0  0  0  0
  151.0074  137.7184  159.0361 C   0  0  0  0  0  0  0  0  0  0  0  0
  150.3819  138.5575  158.1415 N   0  0  0  0  0  0  0  0  0  0  0  0
  151.0115  139.5723  157.3145 C   0  0  0  0  0  0  0  0  0  0  0  0
  152.4150  139.9910  157.8112 C   0  0  2  0  0  0  0  0  0  0  0  0
  153.3159  138.9339  157.5535 O   0  0  0  0  0  0  0  0  0  0  0  0
  152.5426  140.4022  159.2975 C   0  0  2  0  0  0  0  0  0  0  0  0
  152.0154  141.7881  159.6769 C   0  0  0  0  0  0  0  0  0  0  0  0
  152.7564  142.0419  160.9705 C   0  0  0  0  0  0  0  0  0  0  0  0
  154.1230  141.4232  160.6838 C   0  0  0  0  0  0  0  0  0  0  0  0
  153.8947  140.3729  159.7473 O   0  0  0  0  0  0  0  0  0  0  0  0
  148.3155  132.5801  158.1646 C   0  0  0  0  0  0  0  0  0  0  0  0
  147.2350  131.6305  157.9840 N   0  0  0  0  0  0  0  0  0  0  0  0
  145.8806  134.1969  157.2438 H   0  0  0  0  0  0  0  0  0  0  0  0
  145.4533  134.0513  158.9490 H   0  0  0  0  0  0  0  0  0  0  0  0
  148.0332  134.6644  157.8572 H   0  0  0  0  0  0  0  0  0  0  0  0
  148.9632  134.4028  160.1441 H   0  0  0  0  0  0  0  0  0  0  0  0
  146.2655  133.2067  160.9188 H   0  0  0  0  0  0  0  0  0  0  0  0
  147.7866  132.3565  160.8981 H   0  0  0  0  0  0  0  0  0  0  0  0
  147.1812  133.0897  163.1920 H   0  0  0  0  0  0  0  0  0  0  0  0
  148.6873  133.8127  162.6695 H   0  0  0  0  0  0  0  0  0  0  0  0
  145.9374  135.1542  162.6275 H   0  0  0  0  0  0  0  0  0  0  0  0
  147.2537  135.5427  163.7125 H   0  0  0  0  0  0  0  0  0  0  0  0
  147.1101  137.1532  161.8041 H   0  0  0  0  0  0  0  0  0  0  0  0
  148.6506  136.3174  161.8308 H   0  0  0  0  0  0  0  0  0  0  0  0
  145.9730  138.5463  157.3045 H   0  0  0  0  0  0  0  0  0  0  0  0
  152.0727  137.7431  159.2140 H   0  0  0  0  0  0  0  0  0  0  0  0
  151.0655  139.1975  156.2916 H   0  0  0  0  0  0  0  0  0  0  0  0
  150.3520  140.4406  157.2858 H   0  0  0  0  0  0  0  0  0  0  0  0
  152.7557  140.8321  157.2071 H   0  0  0  0  0  0  0  0  0  0  0  0
  152.8569  138.2573  157.0804 H   0  0  0  0  0  0  0  0  0  0  0  0
  152.0203  139.6634  159.9083 H   0  0  0  0  0  0  0  0  0  0  0  0
  152.2958  142.5426  158.9430 H   0  0  0  0  0  0  0  0  0  0  0  0
  150.9318  141.8125  159.7938 H   0  0  0  0  0  0  0  0  0  0  0  0
  152.8141  143.0983  161.2338 H   0  0  0  0  0  0  0  0  0  0  0  0
  152.2690  141.5111  161.7896 H   0  0  0  0  0  0  0  0  0  0  0  0
  154.7865  142.1568  160.2253 H   0  0  0  0  0  0  0  0  0  0  0  0
  154.6063  141.0508  161.5872 H   0  0  0  0  0  0  0  0  0  0  0  0
  148.8597  132.6721  157.2236 H   0  0  0  0  0  0  0  0  0  0  0  0
  149.0239  132.2387  158.9196 H   0  0  0  0  0  0  0  0  0  0  0  0
  147.3955  130.6400  157.8700 H   0  0  0  0  0  0  0  0  0  0  0  0
  1  2  2  0  0  0  0
  2 29  1  0  0  0  0
  2  3  1  0  0  0  0
  3  4  1  0  0  0  0
  3 30  1  0  0  0  0
  3 31  1  0  0  0  0
  4  5  1  0  0  0  0
  4 28  1  0  0  0  0
  4 32  1  0  0  0  0
  5 10  1  0  0  0  0
  5  6  1  0  0  0  0
  5 33  1  0  0  0  0
  6  7  1  0  0  0  0
  6 34  1  0  0  0  0
  6 35  1  0  0  0  0
  7  8  1  0  0  0  0
  7 36  1  0  0  0  0
  7 37  1  0  0  0  0
  8  9  1  0  0  0  0
  8 38  1  0  0  0  0
  8 39  1  0  0  0  0
  9 10  1  0  0  0  0
  9 40  1  0  0  0  0
  9 41  1  0  0  0  0
 10 11  1  0  0  0  0
 11 16  1  0  0  0  0
 11 12  2  0  0  0  0
 12 13  1  0  0  0  0
 13 14  2  0  0  0  0
 13 42  1  0  0  0  0
 14 15  1  0  0  0  0
 15 19  1  0  0  0  0
 15 16  2  0  0  0  0
 16 17  1  0  0  0  0
 17 18  2  0  0  0  0
 18 19  1  0  0  0  0
 18 43  1  0  0  0  0
 19 20  1  0  0  0  0
 20 21  1  0  0  0  0
 20 44  1  0  0  0  0
 20 45  1  0  0  0  0
 21 22  1  0  0  0  0
 21 23  1  0  0  0  0
 21 46  1  0  0  0  0
 22 47  1  0  0  0  0
 23 27  1  0  0  0  0
 23 24  1  0  0  0  0
 23 48  1  0  0  0  0
 24 25  1  0  0  0  0
 24 49  1  0  0  0  0
 24 50  1  0  0  0  0
 25 26  1  0  0  0  0
 25 51  1  0  0  0  0
 25 52  1  0  0  0  0
 26 27  1  0  0  0  0
 26 53  1  0  0  0  0
 26 54  1  0  0  0  0
 28 29  1  0  0  0  0
 28 55  1  0  0  0  0
 28 56  1  0  0  0  0
 29 57  1  0  0  0  0
M  END
> <s_m_source_file>
AV-unprocessed.smi

> <i_m_source_file_index>
203

> <i_lp_mmshare_version>
43012

> <i_f3d_flags>
0

> <s_epik_input>
Tz1DMVtDSDJdW0NASF0oW0NIMl1bTkhdMSlbQ0BASF0yW0NIMl1bQ0gyXVtDSDJdW0NIMl1OMmMobltjSF1uMyljKGMzNCluW2NIXW40W0NIMl1bQ0BIXShbT0hdKVtDQEBIXTVbQ0gyXVtDSDJdW0NIMl1PNQ==

> <s_epik_cmdline>
J2VwaWtfcHl0aG9uJywgJy1waCcsICc3LjAnLCAnLXRuJywgJzgnLCAnLW1hJywgJzIwMCcsICctbWV0YWxfYmluZGluZycsICctaW1hZScsICc8aW5maWxlLm1hZT4nLCAnLW9tYWUnLCAnPG91dGZpbGUubWFlPic=

> <r_lp_tautomer_probability>
1

> <r_epik_Ionization_Penalty>
0.00175146

> <r_epik_Ionization_Penalty_Charging>
0

> <r_epik_Ionization_Penalty_Neutral>
0.00175146

> <r_epik_State_Penalty>
0.00109045

> <r_epik_Charging_Adjusted_Penalty>
0.00109045

> <i_epik_Tot_Q>
0

> <i_epik_Tot_abs_Q>
0

> <r_epik_Metal_State_Penalty>
-0

> <b_epik_Metal_Only>
0

> <s_lp_Force_Field>
OPLS_2005

> <r_lp_Energy>
56.5802

> <b_lp_Chiralities_Consistent>
1

> <s_lp_Variant>
AV-unprocessed.smi:203-1

> <Gold.Version>
5.8.1

> <Gold.Id.Protein>
6NUR|6NUR_protein|mol2

> <Gold.PLP.Fitness>
43.8745

> <Gold.PLP.PLP>
-39.5292

> <Gold.PLP.part.hbond>
-2.0093

> <Gold.PLP.part.metal>
0.0000

> <Gold.PLP.part.buried>
-6.4747

> <Gold.PLP.part.nonpolar>
-31.8318

> <Gold.PLP.part.repulsive>
0.1051

> <Gold.PLP.ligand.clash>
0.0000

> <Gold.PLP.ligand.torsion>
0.7586

> <Gold.PLP.Chemscore.Hbond>
1.8588

> <Gold.PLP.Chemscore.CHOScore>
0.0000

> <Gold.PLP.Chemscore.Metal>
0.0000

> <Gold.Chemscore.Hbonds>
donor molecule, donor type, donor heavy atom, donor atom, acceptor molecule, acceptor atom, score
      P1  H  6896  6908       L1    17  0.99
      P1  H  7997  8010       L1    22  0.60

> <Gold.PLP.Chemscore.Internal.Correction>
0.2862

> <Gold.Rescore>
     Score         DG    S(hbond)    S(metal)    S(lipo)     H(rot)  DE(clash)    DE(int)     intcor
     11.90     -14.87       1.61        0.00      93.71       2.72       1.18       1.79       ----

> <Gold.Chemscore.Fitness>
11.9016

> <Gold.Chemscore.DG>
-14.8714

> <Gold.Chemscore.ZeroCoef>
-5.4800

> <Gold.Chemscore.Hbond>
1.6118

> <Gold.Chemscore.Metal>
0.0000

> <Gold.Chemscore.Lipo>
93.7072

> <Gold.Chemscore.Internal_Hbond>
0.0000

> <Gold.Chemscore.DEClash>
1.1778

> <Gold.Chemscore.DEInternal>
1.7920

> <Gold.Chemscore.Rot>
2.7171

> <Gold.Chemscore.Internal.Correction>
   9.000000E+99

> <Gold.Chemscore.Hbonds>
donor molecule, donor type, donor heavy atom, donor atom, acceptor molecule, acceptor atom, score
      P1  H  6896  6908       L1    17  0.76
      P1  H  7997  8010       L1    22  0.04

> <Gold.Chemscore.Hbond.Weighted>
-5.3833

> <Gold.Chemscore.Metal.Weighted>
-0.0000

> <Gold.Chemscore.Lipo.Weighted>
-10.9637

> <Gold.Chemscore.Internal_Hbond.Weighted>
0.0000

> <Gold.Chemscore.DEClash.Weighted>
1.1778

> <Gold.Chemscore.DEInternal.Weighted>
1.7920

> <Gold.Chemscore.Rot.Weighted>
6.9557

> <Gold.Chemscore.Internal.Correction.Weighted>
   9.000000E+99

> <Gold.Protein.RotatedTorsions>
[ 6907 6896 6895 6894 ] final -154.71 input  -60.11 | X-H torsion
[ 7974 7965 7964 7962 ] final  148.60 input  175.53 | X-H torsion
[ 8008 7997 7996 7995 ] final   40.81 input   59.86 | X-H torsion
[ 10167 10162 10161 10158 ] final   13.47 input  -65.29 | X-H torsion
[ 10718 10713 10712 10709 ] final  -31.06 input   66.30 | X-H torsion
[ 10763 10752 10751 10750 ] final   41.18 input  -60.55 | X-H torsion
[ 11005 11000 10999 10996 ] final   87.65 input  -57.11 | X-H torsion

> <Gold.Protein.ActiveResidues>
 VAL166  LYS551  ARG553  GLY616  TRP617  ASP618  TYR619  PRO620  LYS621  CYS622 
 ASP623  PHE694  ASN695  SER759  ASP760  ASP761  ALA762  ILE779  LEU786  VAL792 
 PHE793  MET794  SER795  GLU796  ALA797  LYS798  CYS799  TRP800  GLU811  SER814 

> <Gold.Protein.RotatedAtoms>
  151.2615  133.4299  159.2616 H   0  0  0  0  0  0  0  0  0  0  0  0  # atno 6907 bound_to 6896
  151.0526  134.9683  159.8229 H   0  0  0  0  0  0  0  0  0  0  0  0  # atno 6908 bound_to 6896
  152.5385  134.2569  159.8973 H   0  0  0  0  0  0  0  0  0  0  0  0  # atno 6909 bound_to 6896
  144.8502  139.6174  143.5977 H   0  0  0  0  0  0  0  0  0  0  0  0  # atno 7974 bound_to 7965
  155.2593  140.3358  155.4274 H   0  0  0  0  0  0  0  0  0  0  0  0  # atno 8008 bound_to 7997
  156.2182  140.1798  156.7583 H   0  0  0  0  0  0  0  0  0  0  0  0  # atno 8009 bound_to 7997
  154.5785  140.0658  156.9054 H   0  0  0  0  0  0  0  0  0  0  0  0  # atno 8010 bound_to 7997
  140.6000  143.8623  150.6956 H   0  0  0  0  0  0  0  0  0  0  0  0  # atno 10167 bound_to 10162
  156.3920  130.4374  149.7388 H   0  0  0  0  0  0  0  0  0  0  0  0  # atno 10718 bound_to 10713
  152.9915  135.6169  154.2746 H   0  0  0  0  0  0  0  0  0  0  0  0  # atno 10763 bound_to 10752
  154.2478  135.2786  155.2830 H   0  0  0  0  0  0  0  0  0  0  0  0  # atno 10764 bound_to 10752
  154.5314  135.5787  153.6820 H   0  0  0  0  0  0  0  0  0  0  0  0  # atno 10765 bound_to 10752
  139.8914  134.8436  156.2890 H   0  0  0  0  0  0  0  0  0  0  0  0  # atno 11005 bound_to 11000
  146.2778  139.6797  142.9251 LP  0  0  0  0  0  0  0  0  0  0  0  0  # atno 17320 bound_to 7965
  145.4516  141.0428  143.2801 LP  0  0  0  0  0  0  0  0  0  0  0  0  # atno 17321 bound_to 7965
  140.2167  143.3841  152.1675 LP  0  0  0  0  0  0  0  0  0  0  0  0  # atno 17342 bound_to 10162
  139.5285  144.7131  151.5143 LP  0  0  0  0  0  0  0  0  0  0  0  0  # atno 17343 bound_to 10162
  156.4437  130.7873  151.2895 LP  0  0  0  0  0  0  0  0  0  0  0  0  # atno 17370 bound_to 10713
  157.7499  131.0117  150.3354 LP  0  0  0  0  0  0  0  0  0  0  0  0  # atno 17371 bound_to 10713
  140.9989  133.7163  156.0929 LP  0  0  0  0  0  0  0  0  0  0  0  0  # atno 17394 bound_to 11000
  140.7525  134.4029  157.5539 LP  0  0  0  0  0  0  0  0  0  0  0  0  # atno 17395 bound_to 11000

$$$$
