AV-unprocessed.smi:1699|AV-procd|sdf|6817|dock3
  -GOLD-   22720 7593D 1   1.00000     0.00000
 Structure written by MMmdl.
 37 38  0  0  0  0  0  0  0  0  1 V2000
  151.9817  143.3332  162.4467 C   0  0  0  0  0  0  0  0  0  0  0  0
  152.1292  143.5737  160.9528 C   0  0  0  0  0  0  0  0  0  0  0  0
  151.7234  144.8111  160.4091 C   0  0  0  0  0  0  0  0  0  0  0  0
  151.8624  145.0321  159.0282 C   0  0  0  0  0  0  0  0  0  0  0  0
  152.4054  143.9996  158.2445 C   0  0  0  0  0  0  0  0  0  0  0  0
  152.7948  142.8140  158.7554 N   0  0  0  0  0  0  0  0  0  0  0  0
  152.6671  142.5842  160.0866 C   0  0  0  0  0  0  0  0  0  0  0  0
  153.0514  141.3557  160.6946 N   0  0  0  0  0  0  0  0  0  0  0  0
  153.4830  140.2273  160.1042 C   0  0  0  0  0  0  0  0  0  0  0  0
  153.6453  140.0734  158.8935 O   0  0  0  0  0  0  0  0  0  0  0  0
  153.7262  139.2715  161.0137 N   0  0  0  0  0  0  0  0  0  0  0  0
  154.2303  137.9303  160.7269 C   0  0  2  0  0  0  0  0  0  0  0  0
  153.2737  137.2502  159.7355 C   0  0  0  0  0  0  0  0  0  0  0  0
  154.3729  137.1361  162.0414 C   0  0  1  0  0  0  0  0  0  0  0  0
  153.1050  137.0738  162.8951 C   0  0  0  0  0  0  0  0  0  0  0  0
  153.2733  135.7951  163.7020 C   0  0  0  0  0  0  0  0  0  0  0  0
  154.4129  135.0555  162.9968 C   0  0  0  0  0  0  0  0  0  0  0  0
  154.6125  135.7613  161.7812 O   0  0  0  0  0  0  0  0  0  0  0  0
  151.5552  144.2020  162.9488 H   0  0  0  0  0  0  0  0  0  0  0  0
  152.9532  143.1288  162.8974 H   0  0  0  0  0  0  0  0  0  0  0  0
  151.3260  142.4824  162.6341 H   0  0  0  0  0  0  0  0  0  0  0  0
  151.3102  145.5841  161.0403 H   0  0  0  0  0  0  0  0  0  0  0  0
  151.5611  145.9678  158.5816 H   0  0  0  0  0  0  0  0  0  0  0  0
  152.5301  144.1276  157.1794 H   0  0  0  0  0  0  0  0  0  0  0  0
  152.9858  141.3344  161.7011 H   0  0  0  0  0  0  0  0  0  0  0  0
  153.5656  139.4928  161.9852 H   0  0  0  0  0  0  0  0  0  0  0  0
  155.2086  137.9979  160.2473 H   0  0  0  0  0  0  0  0  0  0  0  0
  153.6382  136.2651  159.4432 H   0  0  0  0  0  0  0  0  0  0  0  0
  153.1703  137.8403  158.8242 H   0  0  0  0  0  0  0  0  0  0  0  0
  152.2795  137.1231  160.1652 H   0  0  0  0  0  0  0  0  0  0  0  0
  155.2003  137.5296  162.6358 H   0  0  0  0  0  0  0  0  0  0  0  0
  152.9772  137.9558  163.5232 H   0  0  0  0  0  0  0  0  0  0  0  0
  152.2247  136.9862  162.2569 H   0  0  0  0  0  0  0  0  0  0  0  0
  153.5346  136.0056  164.7398 H   0  0  0  0  0  0  0  0  0  0  0  0
  152.3523  135.2112  163.6986 H   0  0  0  0  0  0  0  0  0  0  0  0
  155.3267  135.1019  163.5910 H   0  0  0  0  0  0  0  0  0  0  0  0
  154.1809  134.0070  162.8095 H   0  0  0  0  0  0  0  0  0  0  0  0
  1  2  1  0  0  0  0
  1 19  1  0  0  0  0
  1 20  1  0  0  0  0
  1 21  1  0  0  0  0
  2  7  1  0  0  0  0
  2  3  2  0  0  0  0
  3  4  1  0  0  0  0
  3 22  1  0  0  0  0
  4  5  2  0  0  0  0
  4 23  1  0  0  0  0
  5  6  1  0  0  0  0
  5 24  1  0  0  0  0
  6  7  2  0  0  0  0
  7  8  1  0  0  0  0
  8  9  1  0  0  0  0
  8 25  1  0  0  0  0
  9 10  2  0  0  0  0
  9 11  1  0  0  0  0
 11 12  1  0  0  0  0
 11 26  1  0  0  0  0
 12 13  1  0  0  0  0
 12 14  1  0  0  0  0
 12 27  1  0  0  0  0
 13 28  1  0  0  0  0
 13 29  1  0  0  0  0
 13 30  1  0  0  0  0
 14 18  1  0  0  0  0
 14 15  1  0  0  0  0
 14 31  1  0  0  0  0
 15 16  1  0  0  0  0
 15 32  1  0  0  0  0
 15 33  1  0  0  0  0
 16 17  1  0  0  0  0
 16 34  1  0  0  0  0
 16 35  1  0  0  0  0
 17 18  1  0  0  0  0
 17 36  1  0  0  0  0
 17 37  1  0  0  0  0
M  END
> <s_m_source_file>
AV-unprocessed.smi

> <i_m_source_file_index>
1699

> <i_lp_mmshare_version>
43012

> <i_f3d_flags>
0

> <s_epik_input>
W0NIM11jMVtjSF1bY0hdW2NIXW5jMVtOSF1DKD1PKVtOSF1bQ0BIXShbQ0gzXSlbQ0BASF0yW0NIMl1bQ0gyXVtDSDJdTzI=

> <s_epik_cmdline>
J2VwaWtfcHl0aG9uJywgJy1waCcsICc3LjAnLCAnLXRuJywgJzgnLCAnLW1hJywgJzIwMCcsICctbWV0YWxfYmluZGluZycsICctaW1hZScsICc8aW5maWxlLm1hZT4nLCAnLW9tYWUnLCAnPG91dGZpbGUubWFlPic=

> <r_lp_tautomer_probability>
1

> <r_epik_Ionization_Penalty>
5.52788e-05

> <r_epik_Ionization_Penalty_Charging>
0

> <r_epik_Ionization_Penalty_Neutral>
5.52788e-05

> <r_epik_State_Penalty>
-0

> <r_epik_Charging_Adjusted_Penalty>
0

> <i_epik_Tot_Q>
0

> <i_epik_Tot_abs_Q>
0

> <r_epik_Metal_State_Penalty>
-0

> <b_epik_Metal_Only>
0

> <s_lp_Force_Field>
OPLS_2005

> <r_lp_Energy>
21.1127

> <b_lp_Chiralities_Consistent>
1

> <s_lp_Variant>
AV-unprocessed.smi:1699-3

> <Gold.Version>
5.8.1

> <Gold.Id.Protein>
6NUR|6NUR_protein|mol2

> <Gold.PLP.Fitness>
44.7832

> <Gold.PLP.PLP>
-41.9600

> <Gold.PLP.part.hbond>
-1.0000

> <Gold.PLP.part.metal>
0.0000

> <Gold.PLP.part.buried>
-4.9832

> <Gold.PLP.part.nonpolar>
-35.8368

> <Gold.PLP.part.repulsive>
0.1028

> <Gold.PLP.ligand.clash>
0.0000

> <Gold.PLP.ligand.torsion>
0.0994

> <Gold.PLP.Chemscore.Hbond>
1.0000

> <Gold.PLP.Chemscore.CHOScore>
0.0000

> <Gold.PLP.Chemscore.Metal>
0.0000

> <Gold.Chemscore.Hbonds>
donor molecule, donor type, donor heavy atom, donor atom, acceptor molecule, acceptor atom, score
      P1  H  7997  8008       L1    10  0.98

> <Gold.PLP.Chemscore.Internal.Correction>
0.0220

> <Gold.Rescore>
     Score         DG    S(hbond)    S(metal)    S(lipo)     H(rot)  DE(clash)    DE(int)     intcor
     15.96     -17.52       0.98        0.00     101.60       1.22       0.17       1.39       ----

> <Gold.Chemscore.Fitness>
15.9624

> <Gold.Chemscore.DG>
-17.5190

> <Gold.Chemscore.ZeroCoef>
-5.4800

> <Gold.Chemscore.Hbond>
0.9804

> <Gold.Chemscore.Metal>
0.0000

> <Gold.Chemscore.Lipo>
101.6020

> <Gold.Chemscore.Internal_Hbond>
0.0000

> <Gold.Chemscore.DEClash>
0.1707

> <Gold.Chemscore.DEInternal>
1.3858

> <Gold.Chemscore.Rot>
1.2200

> <Gold.Chemscore.Internal.Correction>
   9.000000E+99

> <Gold.Chemscore.Hbonds>
donor molecule, donor type, donor heavy atom, donor atom, acceptor molecule, acceptor atom, score
      P1  H  7997  8008       L1    10  0.87

> <Gold.Chemscore.Hbond.Weighted>
-3.2747

> <Gold.Chemscore.Metal.Weighted>
-0.0000

> <Gold.Chemscore.Lipo.Weighted>
-11.8874

> <Gold.Chemscore.Internal_Hbond.Weighted>
0.0000

> <Gold.Chemscore.DEClash.Weighted>
0.1707

> <Gold.Chemscore.DEInternal.Weighted>
1.3858

> <Gold.Chemscore.Rot.Weighted>
3.1232

> <Gold.Chemscore.Internal.Correction.Weighted>
   9.000000E+99

> <Gold.Protein.RotatedTorsions>
[ 6907 6896 6895 6894 ] final  -38.43 input  -60.11 | X-H torsion
[ 7974 7965 7964 7962 ] final  113.78 input  175.53 | X-H torsion
[ 8008 7997 7996 7995 ] final -100.83 input   59.86 | X-H torsion
[ 10167 10162 10161 10158 ] final  109.68 input  -65.29 | X-H torsion
[ 10718 10713 10712 10709 ] final -174.63 input   66.30 | X-H torsion
[ 10763 10752 10751 10750 ] final -150.04 input  -60.55 | X-H torsion
[ 11005 11000 10999 10996 ] final   65.85 input  -57.11 | X-H torsion

> <Gold.Protein.ActiveResidues>
 VAL166  LYS551  ARG553  GLY616  TRP617  ASP618  TYR619  PRO620  LYS621  CYS622 
 ASP623  PHE694  ASN695  SER759  ASP760  ASP761  ALA762  ILE779  LEU786  VAL792 
 PHE793  MET794  SER795  GLU796  ALA797  LYS798  CYS799  TRP800  GLU811  SER814 

> <Gold.Protein.RotatedAtoms>
  151.0025  134.9333  159.7961 H   0  0  0  0  0  0  0  0  0  0  0  0  # atno 6907 bound_to 6896
  152.5281  134.3135  159.9132 H   0  0  0  0  0  0  0  0  0  0  0  0  # atno 6908 bound_to 6896
  151.3141  133.4026  159.2683 H   0  0  0  0  0  0  0  0  0  0  0  0  # atno 6909 bound_to 6896
  145.2126  139.2899  143.4260 H   0  0  0  0  0  0  0  0  0  0  0  0  # atno 7974 bound_to 7965
  154.8340  140.0438  157.1496 H   0  0  0  0  0  0  0  0  0  0  0  0  # atno 8008 bound_to 7997
  154.9120  140.3015  155.5241 H   0  0  0  0  0  0  0  0  0  0  0  0  # atno 8009 bound_to 7997
  156.2988  140.2356  156.4161 H   0  0  0  0  0  0  0  0  0  0  0  0  # atno 8010 bound_to 7997
  139.6748  144.7123  151.1623 H   0  0  0  0  0  0  0  0  0  0  0  0  # atno 10167 bound_to 10162
  156.7879  130.9507  151.3120 H   0  0  0  0  0  0  0  0  0  0  0  0  # atno 10718 bound_to 10713
  154.8142  135.3294  154.7222 H   0  0  0  0  0  0  0  0  0  0  0  0  # atno 10763 bound_to 10752
  153.7866  135.6914  153.4883 H   0  0  0  0  0  0  0  0  0  0  0  0  # atno 10764 bound_to 10752
  153.1945  135.4539  155.0137 H   0  0  0  0  0  0  0  0  0  0  0  0  # atno 10765 bound_to 10752
  139.9868  134.6654  156.0161 H   0  0  0  0  0  0  0  0  0  0  0  0  # atno 11005 bound_to 11000
  146.3394  140.2407  142.8595 LP  0  0  0  0  0  0  0  0  0  0  0  0  # atno 17320 bound_to 7965
  144.9841  140.8486  143.5379 LP  0  0  0  0  0  0  0  0  0  0  0  0  # atno 17321 bound_to 7965
  140.7631  143.5789  150.8916 LP  0  0  0  0  0  0  0  0  0  0  0  0  # atno 17342 bound_to 10162
  139.9457  143.6330  152.3042 LP  0  0  0  0  0  0  0  0  0  0  0  0  # atno 17343 bound_to 10162
  157.6615  130.8970  149.9839 LP  0  0  0  0  0  0  0  0  0  0  0  0  # atno 17370 bound_to 10713
  156.1177  130.3647  149.9940 LP  0  0  0  0  0  0  0  0  0  0  0  0  # atno 17371 bound_to 10713
  141.1532  133.6546  156.4078 LP  0  0  0  0  0  0  0  0  0  0  0  0  # atno 17394 bound_to 11000
  140.4986  134.6507  157.5239 LP  0  0  0  0  0  0  0  0  0  0  0  0  # atno 17395 bound_to 11000

$$$$
