AV-unprocessed.smi:520|AV-procd|sdf|2797|dock2
  -GOLD-   2262023273D 1   1.00000     0.00000
 Structure written by MMmdl.
 39 41  0  0  0  0  0  0  0  0  1 V2000
  153.3562  140.4103  160.5056 C   0  0  0  0  0  0  0  0  0  0  0  0
  152.7134  141.7672  160.2875 C   0  0  0  0  0  0  0  0  0  0  0  0
  152.7951  142.7468  161.2995 C   0  0  0  0  0  0  0  0  0  0  0  0
  152.2029  144.0090  161.1142 C   0  0  0  0  0  0  0  0  0  0  0  0
  151.5277  144.2956  159.9145 C   0  0  0  0  0  0  0  0  0  0  0  0
  151.4438  143.3219  158.9010 C   0  0  0  0  0  0  0  0  0  0  0  0
  152.0355  142.0444  159.0772 C   0  0  0  0  0  0  0  0  0  0  0  0
  151.9908  141.0425  158.1293 O   0  0  0  0  0  0  0  0  0  0  0  0
  151.1425  141.2137  157.0032 C   0  0  0  0  0  0  0  0  0  0  0  0
  151.6114  140.2666  155.8926 C   0  0  0  0  0  0  0  0  0  0  0  0
  150.4872  139.6469  155.2097 N   0  0  0  0  0  0  0  0  0  0  0  0
  150.2965  138.3324  154.9335 C   0  0  0  0  0  0  0  0  0  0  0  0
  151.3096  137.2966  155.3310 C   0  0  0  0  0  0  0  0  0  0  0  0
  151.9886  136.7079  154.2401 O   0  0  0  0  0  0  0  0  0  0  0  0
  149.1648  138.0378  154.2888 N   0  0  0  0  0  0  0  0  0  0  0  0
  148.5649  139.2731  154.1424 C   0  0  0  0  0  0  0  0  0  0  0  0
  147.3366  139.6329  153.5431 C   0  0  0  0  0  0  0  0  0  0  0  0
  146.9242  140.9813  153.5151 C   0  0  0  0  0  0  0  0  0  0  0  0
  147.7320  141.9870  154.0844 C   0  0  0  0  0  0  0  0  0  0  0  0
  148.9602  141.6501  154.6853 C   0  0  0  0  0  0  0  0  0  0  0  0
  149.3672  140.3027  154.7100 C   0  0  0  0  0  0  0  0  0  0  0  0
  153.8709  140.3612  161.4657 H   0  0  0  0  0  0  0  0  0  0  0  0
  154.0848  140.2050  159.7208 H   0  0  0  0  0  0  0  0  0  0  0  0
  152.5992  139.6261  160.4860 H   0  0  0  0  0  0  0  0  0  0  0  0
  153.3129  142.5339  162.2232 H   0  0  0  0  0  0  0  0  0  0  0  0
  152.2670  144.7564  161.8913 H   0  0  0  0  0  0  0  0  0  0  0  0
  151.0725  145.2643  159.7703 H   0  0  0  0  0  0  0  0  0  0  0  0
  150.9178  143.5822  157.9953 H   0  0  0  0  0  0  0  0  0  0  0  0
  150.1096  140.9879  157.2724 H   0  0  0  0  0  0  0  0  0  0  0  0
  151.1864  142.2454  156.6501 H   0  0  0  0  0  0  0  0  0  0  0  0
  152.2055  140.8130  155.1592 H   0  0  0  0  0  0  0  0  0  0  0  0
  152.2626  139.4923  156.2983 H   0  0  0  0  0  0  0  0  0  0  0  0
  152.0441  137.7565  155.9927 H   0  0  0  0  0  0  0  0  0  0  0  0
  150.8151  136.5031  155.8916 H   0  0  0  0  0  0  0  0  0  0  0  0
  151.3636  136.5427  153.5513 H   0  0  0  0  0  0  0  0  0  0  0  0
  146.7106  138.8695  153.1052 H   0  0  0  0  0  0  0  0  0  0  0  0
  145.9832  141.2450  153.0550 H   0  0  0  0  0  0  0  0  0  0  0  0
  147.4081  143.0173  154.0598 H   0  0  0  0  0  0  0  0  0  0  0  0
  149.5811  142.4179  155.1227 H   0  0  0  0  0  0  0  0  0  0  0  0
  1  2  1  0  0  0  0
  1 22  1  0  0  0  0
  1 23  1  0  0  0  0
  1 24  1  0  0  0  0
  2  7  1  0  0  0  0
  2  3  2  0  0  0  0
  3  4  1  0  0  0  0
  3 25  1  0  0  0  0
  4  5  2  0  0  0  0
  4 26  1  0  0  0  0
  5  6  1  0  0  0  0
  5 27  1  0  0  0  0
  6  7  2  0  0  0  0
  6 28  1  0  0  0  0
  7  8  1  0  0  0  0
  8  9  1  0  0  0  0
  9 10  1  0  0  0  0
  9 29  1  0  0  0  0
  9 30  1  0  0  0  0
 10 11  1  0  0  0  0
 10 31  1  0  0  0  0
 10 32  1  0  0  0  0
 11 21  1  0  0  0  0
 11 12  1  0  0  0  0
 12 13  1  0  0  0  0
 12 15  2  0  0  0  0
 13 14  1  0  0  0  0
 13 33  1  0  0  0  0
 13 34  1  0  0  0  0
 14 35  1  0  0  0  0
 15 16  1  0  0  0  0
 16 21  2  0  0  0  0
 16 17  1  0  0  0  0
 17 18  2  0  0  0  0
 17 36  1  0  0  0  0
 18 19  1  0  0  0  0
 18 37  1  0  0  0  0
 19 20  2  0  0  0  0
 19 38  1  0  0  0  0
 20 21  1  0  0  0  0
 20 39  1  0  0  0  0
M  END
> <s_m_source_file>
AV-unprocessed.smi

> <i_m_source_file_index>
520

> <i_lp_mmshare_version>
43012

> <i_f3d_flags>
0

> <s_epik_input>
W0NIM11jMVtjSF1bY0hdW2NIXVtjSF1jMU9bQ0gyXVtDSDJdbihjKG4yKVtDSDJdW09IXSljKGMyMylbY0hdW2NIXVtjSF1bY0hdMw==

> <s_epik_cmdline>
J2VwaWtfcHl0aG9uJywgJy1waCcsICc3LjAnLCAnLXRuJywgJzgnLCAnLW1hJywgJzIwMCcsICctbWV0YWxfYmluZGluZycsICctaW1hZScsICc8aW5maWxlLm1hZT4nLCAnLW9tYWUnLCAnPG91dGZpbGUubWFlPic=

> <r_lp_tautomer_probability>
1

> <r_epik_Ionization_Penalty>
0.048627

> <r_epik_Ionization_Penalty_Charging>
0

> <r_epik_Ionization_Penalty_Neutral>
0.048627

> <r_epik_State_Penalty>
0.0414172

> <r_epik_Charging_Adjusted_Penalty>
0.0414172

> <i_epik_Tot_Q>
0

> <i_epik_Tot_abs_Q>
0

> <r_epik_Metal_State_Penalty>
4.28976e-05

> <b_epik_Metal_Only>
0

> <s_lp_Force_Field>
OPLS_2005

> <r_lp_Energy>
16.3375

> <b_lp_Chiralities_Consistent>
1

> <s_lp_Variant>
AV-unprocessed.smi:520-1

> <Gold.Version>
5.8.1

> <Gold.Id.Protein>
6NUR|6NUR_protein|mol2

> <Gold.PLP.Fitness>
54.8772

> <Gold.PLP.PLP>
-50.2956

> <Gold.PLP.part.hbond>
-1.8165

> <Gold.PLP.part.metal>
0.0000

> <Gold.PLP.part.buried>
-3.3751

> <Gold.PLP.part.nonpolar>
-46.1896

> <Gold.PLP.part.repulsive>
1.0756

> <Gold.PLP.ligand.clash>
0.0000

> <Gold.PLP.ligand.torsion>
0.6529

> <Gold.PLP.Chemscore.Hbond>
1.9360

> <Gold.PLP.Chemscore.CHOScore>
0.0000

> <Gold.PLP.Chemscore.Metal>
0.0000

> <Gold.Chemscore.Hbonds>
donor molecule, donor type, donor heavy atom, donor atom, acceptor molecule, acceptor atom, score
      L1  H    14    35       P1  7949  0.63
      P1  H 10752 10764       L1    14  0.76

> <Gold.PLP.Chemscore.Internal.Correction>
0.0795

> <Gold.Rescore>
     Score         DG    S(hbond)    S(metal)    S(lipo)     H(rot)  DE(clash)    DE(int)     intcor
     19.08     -21.12       1.51        0.00     137.73       2.15       1.39       0.65       ----

> <Gold.Chemscore.Fitness>
19.0770

> <Gold.Chemscore.DG>
-21.1237

> <Gold.Chemscore.ZeroCoef>
-5.4800

> <Gold.Chemscore.Hbond>
1.5068

> <Gold.Chemscore.Metal>
0.0000

> <Gold.Chemscore.Lipo>
137.7321

> <Gold.Chemscore.Internal_Hbond>
0.0000

> <Gold.Chemscore.DEClash>
1.3934

> <Gold.Chemscore.DEInternal>
0.6533

> <Gold.Chemscore.Rot>
2.1499

> <Gold.Chemscore.Internal.Correction>
   9.000000E+99

> <Gold.Chemscore.Hbonds>
donor molecule, donor type, donor heavy atom, donor atom, acceptor molecule, acceptor atom, score
      L1  H    14    35       P1  7949  0.44
      P1  H 10752 10764       L1    14  0.36

> <Gold.Chemscore.Hbond.Weighted>
-5.0328

> <Gold.Chemscore.Metal.Weighted>
-0.0000

> <Gold.Chemscore.Lipo.Weighted>
-16.1147

> <Gold.Chemscore.Internal_Hbond.Weighted>
0.0000

> <Gold.Chemscore.DEClash.Weighted>
1.3934

> <Gold.Chemscore.DEInternal.Weighted>
0.6533

> <Gold.Chemscore.Rot.Weighted>
5.5038

> <Gold.Chemscore.Internal.Correction.Weighted>
   9.000000E+99

> <Gold.Protein.RotatedTorsions>
[ 6907 6896 6895 6894 ] final -116.39 input  -60.11 | X-H torsion
[ 7974 7965 7964 7962 ] final -145.18 input  175.53 | X-H torsion
[ 8008 7997 7996 7995 ] final   99.99 input   59.86 | X-H torsion
[ 10167 10162 10161 10158 ] final  -58.55 input  -65.29 | X-H torsion
[ 10718 10713 10712 10709 ] final -129.92 input   66.30 | X-H torsion
[ 10763 10752 10751 10750 ] final  -90.26 input  -60.55 | X-H torsion
[ 11005 11000 10999 10996 ] final  -29.79 input  -57.11 | X-H torsion

> <Gold.Protein.ActiveResidues>
 VAL166  LYS551  ARG553  GLY616  TRP617  ASP618  TYR619  PRO620  LYS621  CYS622 
 ASP623  PHE694  ASN695  SER759  ASP760  ASP761  ALA762  ILE779  LEU786  VAL792 
 PHE793  MET794  SER795  GLU796  ALA797  LYS798  CYS799  TRP800  GLU811  SER814 

> <Gold.Protein.RotatedAtoms>
  150.8053  133.8523  159.3208 H   0  0  0  0  0  0  0  0  0  0  0  0  # atno 6907 bound_to 6896
  151.6324  135.1020  160.0134 H   0  0  0  0  0  0  0  0  0  0  0  0  # atno 6908 bound_to 6896
  152.4143  133.6973  159.6460 H   0  0  0  0  0  0  0  0  0  0  0  0  # atno 6909 bound_to 6896
  144.8245  140.5616  143.5556 H   0  0  0  0  0  0  0  0  0  0  0  0  # atno 7974 bound_to 7965
  156.1159  140.3220  155.8139 H   0  0  0  0  0  0  0  0  0  0  0  0  # atno 8008 bound_to 7997
  155.4590  140.0538  157.3010 H   0  0  0  0  0  0  0  0  0  0  0  0  # atno 8009 bound_to 7997
  154.4793  140.2046  155.9817 H   0  0  0  0  0  0  0  0  0  0  0  0  # atno 8010 bound_to 7997
  140.6190  143.2412  151.5527 H   0  0  0  0  0  0  0  0  0  0  0  0  # atno 10167 bound_to 10162
  156.2094  130.6909  151.0632 H   0  0  0  0  0  0  0  0  0  0  0  0  # atno 10718 bound_to 10713
  154.6639  135.5311  153.8053 H   0  0  0  0  0  0  0  0  0  0  0  0  # atno 10763 bound_to 10752
  153.0459  135.6512  154.0829 H   0  0  0  0  0  0  0  0  0  0  0  0  # atno 10764 bound_to 10752
  154.0735  135.2952  155.3283 H   0  0  0  0  0  0  0  0  0  0  0  0  # atno 10765 bound_to 10752
  140.9327  133.7328  156.0959 H   0  0  0  0  0  0  0  0  0  0  0  0  # atno 11005 bound_to 11000
  145.5030  139.1482  143.3647 LP  0  0  0  0  0  0  0  0  0  0  0  0  # atno 17320 bound_to 7965
  146.2551  140.5170  142.8877 LP  0  0  0  0  0  0  0  0  0  0  0  0  # atno 17321 bound_to 7965
  139.5422  144.2616  152.1374 LP  0  0  0  0  0  0  0  0  0  0  0  0  # atno 17342 bound_to 10162
  140.1831  144.4824  150.6517 LP  0  0  0  0  0  0  0  0  0  0  0  0  # atno 17343 bound_to 10162
  157.7030  131.0768  150.6759 LP  0  0  0  0  0  0  0  0  0  0  0  0  # atno 17370 bound_to 10713
  156.6818  130.4569  149.5625 LP  0  0  0  0  0  0  0  0  0  0  0  0  # atno 17371 bound_to 10713
  140.7841  134.3692  157.5480 LP  0  0  0  0  0  0  0  0  0  0  0  0  # atno 17394 bound_to 11000
  139.8800  134.9100  156.3003 LP  0  0  0  0  0  0  0  0  0  0  0  0  # atno 17395 bound_to 11000

$$$$
