AV-unprocessed.smi:1381|AV-procd|sdf|5616|dock7
  -GOLD-   22720 5223D 1   1.00000     0.00000
 Structure written by MMmdl.
 42 43  0  0  0  0  0  0  0  0  3 V2000
  152.9956  141.7329  161.6023 C   0  0  0  0  0  0  0  0  0  0  0  0
  152.7856  141.1188  160.2608 C   0  0  0  0  0  0  0  0  0  0  0  0
  151.8841  141.3552  159.2616 C   0  0  0  0  0  0  0  0  0  0  0  0
  152.2493  140.4079  158.2684 C   0  0  0  0  0  0  0  0  0  0  0  0
  151.5332  140.3292  157.0446 N   0  0  0  0  0  0  0  0  0  0  0  0
  151.8997  139.7441  155.8897 C   0  0  0  0  0  0  0  0  0  0  0  0
  152.9998  139.1873  155.7925 O   0  0  0  0  0  0  0  0  0  0  0  0
  150.9449  139.8627  154.9256 N   0  5  0  0  0  0  0  0  0  0  0  0
  150.2186  138.7430  154.3280 C   0  0  0  0  0  0  0  0  0  0  0  0
  150.9239  137.4136  154.6548 C   0  0  0  0  0  0  0  0  0  0  0  0
  150.0296  136.2582  154.3875 N   0  3  1  0  0  0  0  0  0  0  0  0
  150.6965  134.9429  154.5397 C   0  0  0  0  0  0  0  0  0  0  0  0
  149.7329  133.8076  154.1472 C   0  0  1  0  0  0  0  0  0  0  0  0
  150.3535  132.4226  154.3595 C   0  0  0  0  0  0  0  0  0  0  0  0
  148.5584  133.8972  154.9474 O   0  0  0  0  0  0  0  0  0  0  0  0
  147.8546  135.1204  154.7556 C   0  0  1  0  0  0  0  0  0  0  0  0
  146.5707  135.0693  155.5908 C   0  0  0  0  0  0  0  0  0  0  0  0
  148.7654  136.2938  155.1620 C   0  0  0  0  0  0  0  0  0  0  0  0
  153.2823  139.6612  158.6301 N   0  0  0  0  0  0  0  0  0  0  0  0
  153.6305  140.1123  159.9087 O   0  0  0  0  0  0  0  0  0  0  0  0
  152.6150  142.7540  161.6258 H   0  0  0  0  0  0  0  0  0  0  0  0
  154.0555  141.7627  161.8562 H   0  0  0  0  0  0  0  0  0  0  0  0
  152.4783  141.1608  162.3724 H   0  0  0  0  0  0  0  0  0  0  0  0
  151.0910  142.0877  159.2459 H   0  0  0  0  0  0  0  0  0  0  0  0
  150.6246  140.7681  157.0435 H   0  0  0  0  0  0  0  0  0  0  0  0
  149.1830  138.6928  154.6677 H   0  0  0  0  0  0  0  0  0  0  0  0
  150.1610  138.8496  153.2444 H   0  0  0  0  0  0  0  0  0  0  0  0
  151.8368  137.3319  154.0622 H   0  0  0  0  0  0  0  0  0  0  0  0
  151.2462  137.4069  155.6976 H   0  0  0  0  0  0  0  0  0  0  0  0
  151.5853  134.9091  153.9081 H   0  0  0  0  0  0  0  0  0  0  0  0
  151.0291  134.8197  155.5718 H   0  0  0  0  0  0  0  0  0  0  0  0
  149.4582  133.9060  153.0954 H   0  0  0  0  0  0  0  0  0  0  0  0
  151.2518  132.2979  153.7542 H   0  0  0  0  0  0  0  0  0  0  0  0
  149.6533  131.6354  154.0793 H   0  0  0  0  0  0  0  0  0  0  0  0
  150.6286  132.2680  155.4031 H   0  0  0  0  0  0  0  0  0  0  0  0
  147.5800  135.2152  153.7035 H   0  0  0  0  0  0  0  0  0  0  0  0
  145.9867  135.9819  155.4688 H   0  0  0  0  0  0  0  0  0  0  0  0
  146.7938  134.9536  156.6519 H   0  0  0  0  0  0  0  0  0  0  0  0
  145.9425  134.2306  155.2893 H   0  0  0  0  0  0  0  0  0  0  0  0
  148.9908  136.2462  156.2287 H   0  0  0  0  0  0  0  0  0  0  0  0
  148.2538  137.2407  154.9827 H   0  0  0  0  0  0  0  0  0  0  0  0
  149.7722  136.3345  153.4136 H   0  0  0  0  0  0  0  0  0  0  0  0
  1  2  1  0  0  0  0
  1 21  1  0  0  0  0
  1 22  1  0  0  0  0
  1 23  1  0  0  0  0
  2 20  1  0  0  0  0
  2  3  2  0  0  0  0
  3  4  1  0  0  0  0
  3 24  1  0  0  0  0
  4  5  1  0  0  0  0
  4 19  2  0  0  0  0
  5  6  1  0  0  0  0
  5 25  1  0  0  0  0
  6  7  2  0  0  0  0
  6  8  1  0  0  0  0
  8  9  1  0  0  0  0
  9 10  1  0  0  0  0
  9 26  1  0  0  0  0
  9 27  1  0  0  0  0
 10 11  1  0  0  0  0
 10 28  1  0  0  0  0
 10 29  1  0  0  0  0
 11 18  1  0  0  0  0
 11 12  1  0  0  0  0
 11 42  1  0  0  0  0
 12 13  1  0  0  0  0
 12 30  1  0  0  0  0
 12 31  1  0  0  0  0
 13 14  1  0  0  0  0
 13 15  1  0  0  0  0
 13 32  1  0  0  0  0
 14 33  1  0  0  0  0
 14 34  1  0  0  0  0
 14 35  1  0  0  0  0
 15 16  1  0  0  0  0
 16 17  1  0  0  0  0
 16 18  1  0  0  0  0
 16 36  1  0  0  0  0
 17 37  1  0  0  0  0
 17 38  1  0  0  0  0
 17 39  1  0  0  0  0
 18 40  1  0  0  0  0
 18 41  1  0  0  0  0
 19 20  1  0  0  0  0
M  CHG  1   8  -1
M  CHG  1  11   1
M  END
> <s_m_source_file>
AV-unprocessed.smi

> <i_m_source_file_index>
1381

> <i_lp_mmshare_version>
43012

> <i_f3d_flags>
0

> <s_epik_input>
W0NIM11jMVtjSF1jKG5vMSlbTkhdQyg9TylbTkhdW0NIMl1bQ0gyXU4yW0NIMl1bQ0BASF0oW0NIM10pT1tDQEBIXShbQ0gzXSlbQ0gyXTI=

> <s_epik_cmdline>
J2VwaWtfcHl0aG9uJywgJy1waCcsICc3LjAnLCAnLXRuJywgJzgnLCAnLW1hJywgJzIwMCcsICctbWV0YWxfYmluZGluZycsICctaW1hZScsICc8aW5maWxlLm1hZT4nLCAnLW9tYWUnLCAnPG91dGZpbGUubWFlPic=

> <r_epik_Ionization_Penalty>
6.8073

> <r_epik_Ionization_Penalty_Charging>
6.80729

> <r_epik_Ionization_Penalty_Neutral>
5.65391e-06

> <r_epik_State_Penalty>
7.47323

> <r_epik_Charging_Adjusted_Penalty>
14.2805

> <i_epik_Tot_Q>
0

> <i_epik_Tot_abs_Q>
2

> <r_epik_Metal_State_Penalty>
3.40035

> <b_epik_Metal_Only>
1

> <s_lp_Force_Field>
OPLS_2005

> <r_lp_Energy>
11.4992

> <b_lp_Chiralities_Consistent>
1

> <s_lp_Variant>
AV-unprocessed.smi:1381-15

> <Gold.Version>
5.8.1

> <Gold.Id.Protein>
6NUR|6NUR_protein|mol2

> <Gold.PLP.Fitness>
45.7032

> <Gold.PLP.PLP>
-34.0995

> <Gold.PLP.part.hbond>
-4.0601

> <Gold.PLP.part.metal>
0.0000

> <Gold.PLP.part.buried>
-5.2986

> <Gold.PLP.part.nonpolar>
-24.9064

> <Gold.PLP.part.repulsive>
0.2807

> <Gold.PLP.ligand.clash>
0.0000

> <Gold.PLP.ligand.torsion>
0.8337

> <Gold.PLP.Chemscore.Hbond>
4.3920

> <Gold.PLP.Chemscore.CHOScore>
0.0000

> <Gold.PLP.Chemscore.Metal>
0.0000

> <Gold.Chemscore.Hbonds>
donor molecule, donor type, donor heavy atom, donor atom, acceptor molecule, acceptor atom, score
      L1  H    11    42       P1  7948  1.90
      P1  H  7989  7998       L1     8  1.00
      P1  H  7997  8009       L1    19  0.34
      P1  H  7997  8010       L1     7  0.64

> <Gold.PLP.Chemscore.Internal.Correction>
0.0952

> <Gold.Rescore>
     Score         DG    S(hbond)    S(metal)    S(lipo)     H(rot)  DE(clash)    DE(int)     intcor
     15.38     -17.60       2.78        0.00      58.81       1.58       0.01       2.20       ----

> <Gold.Chemscore.Fitness>
15.3808

> <Gold.Chemscore.DG>
-17.5969

> <Gold.Chemscore.ZeroCoef>
-5.4800

> <Gold.Chemscore.Hbond>
2.7781

> <Gold.Chemscore.Metal>
0.0000

> <Gold.Chemscore.Lipo>
58.8104

> <Gold.Chemscore.Internal_Hbond>
0.0000

> <Gold.Chemscore.DEClash>
0.0126

> <Gold.Chemscore.DEInternal>
2.2034

> <Gold.Chemscore.Rot>
1.5792

> <Gold.Chemscore.Internal.Correction>
   9.000000E+99

> <Gold.Chemscore.Hbonds>
donor molecule, donor type, donor heavy atom, donor atom, acceptor molecule, acceptor atom, score
      L1  H    11    42       P1  7948  0.22
      P1  H  7989  7998       L1     8  0.39
      P1  H  7997  8009       L1    19  0.15
      P1  H  7997  8010       L1     7  0.62

> <Gold.Chemscore.Hbond.Weighted>
-9.2789

> <Gold.Chemscore.Metal.Weighted>
-0.0000

> <Gold.Chemscore.Lipo.Weighted>
-6.8808

> <Gold.Chemscore.Internal_Hbond.Weighted>
0.0000

> <Gold.Chemscore.DEClash.Weighted>
0.0126

> <Gold.Chemscore.DEInternal.Weighted>
2.2034

> <Gold.Chemscore.Rot.Weighted>
4.0428

> <Gold.Chemscore.Internal.Correction.Weighted>
   9.000000E+99

> <Gold.Protein.RotatedTorsions>
[ 6907 6896 6895 6894 ] final   10.65 input  -60.11 | X-H torsion
[ 7974 7965 7964 7962 ] final -133.37 input  175.53 | X-H torsion
[ 8008 7997 7996 7995 ] final  120.03 input   59.86 | X-H torsion
[ 10167 10162 10161 10158 ] final   11.21 input  -65.29 | X-H torsion
[ 10718 10713 10712 10709 ] final  117.83 input   66.30 | X-H torsion
[ 10763 10752 10751 10750 ] final  137.44 input  -60.55 | X-H torsion
[ 11005 11000 10999 10996 ] final  -22.06 input  -57.11 | X-H torsion

> <Gold.Protein.ActiveResidues>
 VAL166  LYS551  ARG553  GLY616  TRP617  ASP618  TYR619  PRO620  LYS621  CYS622 
 ASP623  PHE694  ASN695  SER759  ASP760  ASP761  ALA762  ILE779  LEU786  VAL792 
 PHE793  MET794  SER795  GLU796  ALA797  LYS798  CYS799  TRP800  GLU811  SER814 

> <Gold.Protein.RotatedAtoms>
  151.7416  135.0853  160.0316 H   0  0  0  0  0  0  0  0  0  0  0  0  # atno 6907 bound_to 6896
  152.3475  133.6136  159.5929 H   0  0  0  0  0  0  0  0  0  0  0  0  # atno 6908 bound_to 6896
  150.7518  133.9542  159.3537 H   0  0  0  0  0  0  0  0  0  0  0  0  # atno 6909 bound_to 6896
  144.9199  140.7001  143.4972 H   0  0  0  0  0  0  0  0  0  0  0  0  # atno 7974 bound_to 7965
  156.2624  140.2840  156.1086 H   0  0  0  0  0  0  0  0  0  0  0  0  # atno 8008 bound_to 7997
  155.1282  140.0393  157.2785 H   0  0  0  0  0  0  0  0  0  0  0  0  # atno 8009 bound_to 7997
  154.6619  140.2568  155.7106 H   0  0  0  0  0  0  0  0  0  0  0  0  # atno 8010 bound_to 7997
  140.6146  143.8336  150.7103 H   0  0  0  0  0  0  0  0  0  0  0  0  # atno 10167 bound_to 10162
  157.6071  131.1041  150.7670 H   0  0  0  0  0  0  0  0  0  0  0  0  # atno 10718 bound_to 10713
  153.8731  135.3053  155.3443 H   0  0  0  0  0  0  0  0  0  0  0  0  # atno 10763 bound_to 10752
  154.7796  135.4842  153.9820 H   0  0  0  0  0  0  0  0  0  0  0  0  # atno 10764 bound_to 10752
  153.1394  135.6821  153.9147 H   0  0  0  0  0  0  0  0  0  0  0  0  # atno 10765 bound_to 10752
  140.8621  133.7781  156.0086 H   0  0  0  0  0  0  0  0  0  0  0  0  # atno 11005 bound_to 11000
  145.3313  139.1759  143.4535 LP  0  0  0  0  0  0  0  0  0  0  0  0  # atno 17320 bound_to 7965
  146.3200  140.3343  142.8643 LP  0  0  0  0  0  0  0  0  0  0  0  0  # atno 17321 bound_to 7965
  140.1912  143.4035  152.1862 LP  0  0  0  0  0  0  0  0  0  0  0  0  # atno 17342 bound_to 10162
  139.5388  144.7236  151.4803 LP  0  0  0  0  0  0  0  0  0  0  0  0  # atno 17343 bound_to 10162
  156.8055  130.4935  149.5363 LP  0  0  0  0  0  0  0  0  0  0  0  0  # atno 17370 bound_to 10713
  156.1161  130.6076  151.0122 LP  0  0  0  0  0  0  0  0  0  0  0  0  # atno 17371 bound_to 10713
  140.8671  134.2771  157.5208 LP  0  0  0  0  0  0  0  0  0  0  0  0  # atno 17394 bound_to 11000
  139.8707  134.9548  156.4187 LP  0  0  0  0  0  0  0  0  0  0  0  0  # atno 17395 bound_to 11000

$$$$
