AV-unprocessed.smi:3290|AV-procd|sdf|12618|dock3
  -GOLD-   2272018553D 1   1.00000     0.00000
 Structure written by MMmdl.
 43 44  0  0  0  0  0  0  0  0  2 V2000
  150.2801  144.6158  160.5859 C   0  0  0  0  0  0  0  0  0  0  0  0
  151.6428  143.9350  160.3635 C   0  0  1  0  0  0  0  0  0  0  0  0
  152.1341  143.3221  161.6923 C   0  0  0  0  0  0  0  0  0  0  0  0
  153.5174  142.6734  161.5518 C   0  0  0  0  0  0  0  0  0  0  0  0
  153.5110  141.6137  160.4447 C   0  0  0  0  0  0  0  0  0  0  0  0
  153.0346  142.2158  159.1155 C   0  0  0  0  0  0  0  0  0  0  0  0
  151.6363  142.8630  159.2328 C   0  0  2  0  0  0  0  0  0  0  0  0
  151.2116  143.4178  157.8538 C   0  0  0  0  0  0  0  0  0  0  0  0
  150.3963  142.4510  157.0916 N   0  3  0  0  0  0  0  0  0  0  0  0
  151.1105  141.2108  156.7284 C   0  0  0  0  0  0  0  0  0  0  0  0
  151.3503  141.1235  155.2110 C   0  0  1  0  0  0  0  0  0  0  0  0
  151.2177  142.4174  154.6543 O   0  0  0  0  0  0  0  0  0  0  0  0
  152.7094  140.5149  154.9033 C   0  0  0  0  0  0  0  0  0  0  0  0
  153.8815  141.0555  155.4722 C   0  0  0  0  0  0  0  0  0  0  0  0
  155.1202  140.4621  155.1556 C   0  0  0  0  0  0  0  0  0  0  0  0
  155.2445  139.4007  154.3308 N   0  0  0  0  0  0  0  0  0  0  0  0
  154.1202  138.8881  153.7871 C   0  0  0  0  0  0  0  0  0  0  0  0
  152.8341  139.4060  154.0383 C   0  0  0  0  0  0  0  0  0  0  0  0
  149.4944  143.8828  160.7712 H   0  0  0  0  0  0  0  0  0  0  0  0
  149.9866  145.2231  159.7303 H   0  0  0  0  0  0  0  0  0  0  0  0
  150.3140  145.2866  161.4450 H   0  0  0  0  0  0  0  0  0  0  0  0
  152.3510  144.7165  160.0836 H   0  0  0  0  0  0  0  0  0  0  0  0
  152.1775  144.0902  162.4655 H   0  0  0  0  0  0  0  0  0  0  0  0
  151.4182  142.5764  162.0412 H   0  0  0  0  0  0  0  0  0  0  0  0
  154.2613  143.4383  161.3254 H   0  0  0  0  0  0  0  0  0  0  0  0
  153.8151  142.2215  162.4985 H   0  0  0  0  0  0  0  0  0  0  0  0
  154.5102  141.1934  160.3268 H   0  0  0  0  0  0  0  0  0  0  0  0
  152.8586  140.7872  160.7297 H   0  0  0  0  0  0  0  0  0  0  0  0
  153.7576  142.9587  158.7748 H   0  0  0  0  0  0  0  0  0  0  0  0
  153.0217  141.4316  158.3575 H   0  0  0  0  0  0  0  0  0  0  0  0
  150.9402  142.0696  159.5113 H   0  0  0  0  0  0  0  0  0  0  0  0
  150.6700  144.3572  157.9742 H   0  0  0  0  0  0  0  0  0  0  0  0
  152.0923  143.6398  157.2497 H   0  0  0  0  0  0  0  0  0  0  0  0
  149.5801  142.2112  157.6361 H   0  0  0  0  0  0  0  0  0  0  0  0
  152.0596  141.1656  157.2652 H   0  0  0  0  0  0  0  0  0  0  0  0
  150.5153  140.3583  157.0588 H   0  0  0  0  0  0  0  0  0  0  0  0
  150.5808  140.4952  154.7599 H   0  0  0  0  0  0  0  0  0  0  0  0
  150.5844  142.8996  155.1649 H   0  0  0  0  0  0  0  0  0  0  0  0
  153.8393  141.9055  156.1373 H   0  0  0  0  0  0  0  0  0  0  0  0
  156.0355  140.8518  155.5758 H   0  0  0  0  0  0  0  0  0  0  0  0
  154.2490  138.0403  153.1305 H   0  0  0  0  0  0  0  0  0  0  0  0
  151.9670  138.9588  153.5746 H   0  0  0  0  0  0  0  0  0  0  0  0
  150.0936  142.8965  156.2366 H   0  0  0  0  0  0  0  0  0  0  0  0
  1  2  1  0  0  0  0
  1 19  1  0  0  0  0
  1 20  1  0  0  0  0
  1 21  1  0  0  0  0
  2  7  1  0  0  0  0
  2  3  1  0  0  0  0
  2 22  1  0  0  0  0
  3  4  1  0  0  0  0
  3 23  1  0  0  0  0
  3 24  1  0  0  0  0
  4  5  1  0  0  0  0
  4 25  1  0  0  0  0
  4 26  1  0  0  0  0
  5  6  1  0  0  0  0
  5 27  1  0  0  0  0
  5 28  1  0  0  0  0
  6  7  1  0  0  0  0
  6 29  1  0  0  0  0
  6 30  1  0  0  0  0
  7  8  1  0  0  0  0
  7 31  1  0  0  0  0
  8  9  1  0  0  0  0
  8 32  1  0  0  0  0
  8 33  1  0  0  0  0
  9 10  1  0  0  0  0
  9 34  1  0  0  0  0
  9 43  1  0  0  0  0
 10 11  1  0  0  0  0
 10 35  1  0  0  0  0
 10 36  1  0  0  0  0
 11 12  1  0  0  0  0
 11 13  1  0  0  0  0
 11 37  1  0  0  0  0
 12 38  1  0  0  0  0
 13 18  1  0  0  0  0
 13 14  2  0  0  0  0
 14 15  1  0  0  0  0
 14 39  1  0  0  0  0
 15 16  2  0  0  0  0
 15 40  1  0  0  0  0
 16 17  1  0  0  0  0
 17 18  2  0  0  0  0
 17 41  1  0  0  0  0
 18 42  1  0  0  0  0
M  CHG  1   9   1
M  END
> <s_m_source_file>
AV-unprocessed.smi

> <i_m_source_file_index>
3290

> <i_lp_mmshare_version>
43012

> <i_f3d_flags>
0

> <s_epik_input>
W0NIM11bQ0BASF0xW0NIMl1bQ0gyXVtDSDJdW0NIMl1bQ0BIXTFbQ0gyXVtOSF1bQ0gyXVtDQEhdKFtPSF0pYzJbY0hdW2NIXW5bY0hdW2NIXTI=

> <s_epik_cmdline>
J2VwaWtfcHl0aG9uJywgJy1waCcsICc3LjAnLCAnLXRuJywgJzgnLCAnLW1hJywgJzIwMCcsICctbWV0YWxfYmluZGluZycsICctaW1hZScsICc8aW5maWxlLm1hZT4nLCAnLW9tYWUnLCAnPG91dGZpbGUubWFlPic=

> <r_lp_tautomer_probability>
1

> <r_epik_Ionization_Penalty>
0.00420552

> <r_epik_Ionization_Penalty_Charging>
0.00207255

> <r_epik_Ionization_Penalty_Neutral>
0.00213297

> <r_epik_State_Penalty>
-0

> <r_epik_Charging_Adjusted_Penalty>
0.00207255

> <i_epik_Tot_Q>
1

> <i_epik_Tot_abs_Q>
1

> <r_epik_Metal_State_Penalty>
-0

> <b_epik_Metal_Only>
0

> <s_lp_Force_Field>
OPLS_2005

> <r_lp_Energy>
17.3555

> <b_lp_Chiralities_Consistent>
1

> <s_lp_Variant>
AV-unprocessed.smi:3290-8

> <Gold.Version>
5.8.1

> <Gold.Id.Protein>
6NUR|6NUR_protein|mol2

> <Gold.PLP.Fitness>
54.7532

> <Gold.PLP.PLP>
-43.8376

> <Gold.PLP.part.hbond>
-4.8663

> <Gold.PLP.part.metal>
0.0000

> <Gold.PLP.part.buried>
-0.1040

> <Gold.PLP.part.nonpolar>
-39.6437

> <Gold.PLP.part.repulsive>
0.1175

> <Gold.PLP.ligand.clash>
0.0000

> <Gold.PLP.ligand.torsion>
1.4987

> <Gold.PLP.Chemscore.Hbond>
3.5446

> <Gold.PLP.Chemscore.CHOScore>
1.0675

> <Gold.PLP.Chemscore.Metal>
0.0000

> <Gold.Chemscore.Hbonds>
donor molecule, donor type, donor heavy atom, donor atom, acceptor molecule, acceptor atom, score
      L1  H     9    43       P1  8028  0.62

> <Gold.PLP.Chemscore.Internal.Correction>
0.0766

> <Gold.Rescore>
     Score         DG    S(hbond)    S(metal)    S(lipo)     H(rot)  DE(clash)    DE(int)     intcor
     21.02     -23.32       2.38        0.00     129.29       2.05       0.48       1.82       ----

> <Gold.Chemscore.Fitness>
21.0241

> <Gold.Chemscore.DG>
-23.3208

> <Gold.Chemscore.ZeroCoef>
-5.4800

> <Gold.Chemscore.Hbond>
2.3835

> <Gold.Chemscore.Metal>
0.0000

> <Gold.Chemscore.Lipo>
129.2945

> <Gold.Chemscore.Internal_Hbond>
0.0000

> <Gold.Chemscore.DEClash>
0.4764

> <Gold.Chemscore.DEInternal>
1.8202

> <Gold.Chemscore.Rot>
2.0498

> <Gold.Chemscore.Internal.Correction>
   9.000000E+99

> <Gold.Chemscore.Hbonds>
donor molecule, donor type, donor heavy atom, donor atom, acceptor molecule, acceptor atom, score
      L1  H     9    43       P1  8028  0.32
      L1  H    12    38       P1  8028  0.01

> <Gold.Chemscore.Hbond.Weighted>
-7.9608

> <Gold.Chemscore.Metal.Weighted>
-0.0000

> <Gold.Chemscore.Lipo.Weighted>
-15.1275

> <Gold.Chemscore.Internal_Hbond.Weighted>
0.0000

> <Gold.Chemscore.DEClash.Weighted>
0.4764

> <Gold.Chemscore.DEInternal.Weighted>
1.8202

> <Gold.Chemscore.Rot.Weighted>
5.2475

> <Gold.Chemscore.Internal.Correction.Weighted>
   9.000000E+99

> <Gold.Protein.RotatedTorsions>
[ 6907 6896 6895 6894 ] final  102.71 input  -60.11 | X-H torsion
[ 7974 7965 7964 7962 ] final  -47.55 input  175.53 | X-H torsion
[ 8008 7997 7996 7995 ] final -123.88 input   59.86 | X-H torsion
[ 10167 10162 10161 10158 ] final -175.22 input  -65.29 | X-H torsion
[ 10718 10713 10712 10709 ] final  -66.54 input   66.30 | X-H torsion
[ 10763 10752 10751 10750 ] final   42.91 input  -60.55 | X-H torsion
[ 11005 11000 10999 10996 ] final -175.99 input  -57.11 | X-H torsion

> <Gold.Protein.ActiveResidues>
 VAL166  LYS551  ARG553  GLY616  TRP617  ASP618  TYR619  PRO620  LYS621  CYS622 
 ASP623  PHE694  ASN695  SER759  ASP760  ASP761  ALA762  ILE779  LEU786  VAL792 
 PHE793  MET794  SER795  GLU796  ALA797  LYS798  CYS799  TRP800  GLU811  SER814 

> <Gold.Protein.RotatedAtoms>
  152.5316  133.9934  159.7861 H   0  0  0  0  0  0  0  0  0  0  0  0  # atno 6907 bound_to 6896
  151.0166  133.5907  159.2683 H   0  0  0  0  0  0  0  0  0  0  0  0  # atno 6908 bound_to 6896
  151.2962  135.0763  159.9275 H   0  0  0  0  0  0  0  0  0  0  0  0  # atno 6909 bound_to 6896
  145.9604  140.7485  142.9460 H   0  0  0  0  0  0  0  0  0  0  0  0  # atno 7974 bound_to 7965
  155.1877  140.0412  157.2894 H   0  0  0  0  0  0  0  0  0  0  0  0  # atno 8008 bound_to 7997
  154.6160  140.2488  155.7581 H   0  0  0  0  0  0  0  0  0  0  0  0  # atno 8009 bound_to 7997
  156.2406  140.2905  156.0445 H   0  0  0  0  0  0  0  0  0  0  0  0  # atno 8010 bound_to 7997
  139.5592  144.1911  152.1211 H   0  0  0  0  0  0  0  0  0  0  0  0  # atno 10167 bound_to 10162
  156.0606  130.4264  150.1724 H   0  0  0  0  0  0  0  0  0  0  0  0  # atno 10718 bound_to 10713
  152.9872  135.6117  154.3026 H   0  0  0  0  0  0  0  0  0  0  0  0  # atno 10763 bound_to 10752
  154.2745  135.2778  155.2725 H   0  0  0  0  0  0  0  0  0  0  0  0  # atno 10764 bound_to 10752
  154.5092  135.5845  153.6648 H   0  0  0  0  0  0  0  0  0  0  0  0  # atno 10765 bound_to 10752
  140.4571  134.6289  157.4826 H   0  0  0  0  0  0  0  0  0  0  0  0  # atno 11005 bound_to 11000
  144.6814  140.2581  143.7322 LP  0  0  0  0  0  0  0  0  0  0  0  0  # atno 17320 bound_to 7965
  145.8048  139.1979  143.2027 LP  0  0  0  0  0  0  0  0  0  0  0  0  # atno 17321 bound_to 7965
  140.1421  144.5192  150.6737 LP  0  0  0  0  0  0  0  0  0  0  0  0  # atno 17342 bound_to 10162
  140.6870  143.2355  151.5234 LP  0  0  0  0  0  0  0  0  0  0  0  0  # atno 17343 bound_to 10162
  156.9793  130.9859  151.3441 LP  0  0  0  0  0  0  0  0  0  0  0  0  # atno 17370 bound_to 10713
  157.5612  130.8247  149.8269 LP  0  0  0  0  0  0  0  0  0  0  0  0  # atno 17371 bound_to 10713
  139.9969  134.6897  155.9594 LP  0  0  0  0  0  0  0  0  0  0  0  0  # atno 17394 bound_to 11000
  141.1638  133.6537  156.4409 LP  0  0  0  0  0  0  0  0  0  0  0  0  # atno 17395 bound_to 11000

$$$$
