AV-unprocessed.smi:671|AV-procd|sdf|3275|dock3
  -GOLD-   22720 0233D 1   1.00000     0.00000
 Structure written by MMmdl.
 49 50  0  0  0  0  0  0  0  0  1 V2000
  149.5603  144.8461  158.9386 C   0  0  0  0  0  0  0  0  0  0  0  0
  150.6633  144.4632  159.8837 C   0  0  0  0  0  0  0  0  0  0  0  0
  150.7761  145.1119  161.0304 N   0  0  0  0  0  0  0  0  0  0  0  0
  151.8375  144.5493  161.6416 N   0  0  0  0  0  0  0  0  0  0  0  0
  152.2450  145.0321  162.9468 C   0  0  0  0  0  0  0  0  0  0  0  0
  152.3985  143.5439  160.8787 C   0  0  0  0  0  0  0  0  0  0  0  0
  153.5868  142.7659  161.3448 C   0  0  0  0  0  0  0  0  0  0  0  0
  151.6618  143.4563  159.7270 C   0  0  0  0  0  0  0  0  0  0  0  0
  151.8428  142.5232  158.5559 C   0  0  0  0  0  0  0  0  0  0  0  0
  151.2501  141.1250  158.8171 C   0  0  2  0  0  0  0  0  0  0  0  0
  152.3183  140.0161  158.8306 C   0  0  0  0  0  0  0  0  0  0  0  0
  150.2428  140.8367  157.7928 N   0  0  0  0  0  0  0  0  0  0  0  0
  149.3670  139.8162  157.7463 C   0  0  0  0  0  0  0  0  0  0  0  0
  149.3226  138.9613  158.6287 O   0  0  0  0  0  0  0  0  0  0  0  0
  148.5622  139.8205  156.6707 N   0  0  0  0  0  0  0  0  0  0  0  0
  147.5635  138.8073  156.3317 C   0  0  1  0  0  0  0  0  0  0  0  0
  146.1810  139.4652  156.1409 C   0  0  0  0  0  0  0  0  0  0  0  0
  145.7348  139.1407  154.7111 C   0  0  0  0  0  0  0  0  0  0  0  0
  147.0241  138.8286  153.9570 C   0  0  0  0  0  0  0  0  0  0  0  0
  147.8852  138.1037  154.9922 C   0  0  1  0  0  0  0  0  0  0  0  0
  149.3711  138.0035  154.6023 C   0  0  0  0  0  0  0  0  0  0  0  0
  149.4549  144.1239  158.1295 H   0  0  0  0  0  0  0  0  0  0  0  0
  149.7534  145.8198  158.4882 H   0  0  0  0  0  0  0  0  0  0  0  0
  148.6016  144.9015  159.4549 H   0  0  0  0  0  0  0  0  0  0  0  0
  152.2520  144.2061  163.6580 H   0  0  0  0  0  0  0  0  0  0  0  0
  151.5588  145.7999  163.3066 H   0  0  0  0  0  0  0  0  0  0  0  0
  153.2470  145.4569  162.8831 H   0  0  0  0  0  0  0  0  0  0  0  0
  153.8994  142.0320  160.6030 H   0  0  0  0  0  0  0  0  0  0  0  0
  153.3598  142.2299  162.2664 H   0  0  0  0  0  0  0  0  0  0  0  0
  154.4316  143.4277  161.5369 H   0  0  0  0  0  0  0  0  0  0  0  0
  151.3673  142.9487  157.6712 H   0  0  0  0  0  0  0  0  0  0  0  0
  152.8962  142.4277  158.2913 H   0  0  0  0  0  0  0  0  0  0  0  0
  150.7696  141.1564  159.7963 H   0  0  0  0  0  0  0  0  0  0  0  0
  153.0480  140.1748  159.6246 H   0  0  0  0  0  0  0  0  0  0  0  0
  152.8592  139.9768  157.8845 H   0  0  0  0  0  0  0  0  0  0  0  0
  151.8714  139.0358  158.9979 H   0  0  0  0  0  0  0  0  0  0  0  0
  150.1755  141.5140  157.0468 H   0  0  0  0  0  0  0  0  0  0  0  0
  148.6733  140.5759  156.0104 H   0  0  0  0  0  0  0  0  0  0  0  0
  147.5037  138.0546  157.1197 H   0  0  0  0  0  0  0  0  0  0  0  0
  145.4571  139.1007  156.8705 H   0  0  0  0  0  0  0  0  0  0  0  0
  146.2409  140.5476  156.2682 H   0  0  0  0  0  0  0  0  0  0  0  0
  145.0959  138.2566  154.7194 H   0  0  0  0  0  0  0  0  0  0  0  0
  145.1689  139.9527  154.2542 H   0  0  0  0  0  0  0  0  0  0  0  0
  146.8506  138.2299  153.0623 H   0  0  0  0  0  0  0  0  0  0  0  0
  147.5056  139.7583  153.6505 H   0  0  0  0  0  0  0  0  0  0  0  0
  147.5006  137.0853  155.0689 H   0  0  0  0  0  0  0  0  0  0  0  0
  149.8156  138.9849  154.4343 H   0  0  0  0  0  0  0  0  0  0  0  0
  149.4913  137.4300  153.6830 H   0  0  0  0  0  0  0  0  0  0  0  0
  149.9461  137.5025  155.3814 H   0  0  0  0  0  0  0  0  0  0  0  0
  1  2  1  0  0  0  0
  1 22  1  0  0  0  0
  1 23  1  0  0  0  0
  1 24  1  0  0  0  0
  2  8  1  0  0  0  0
  2  3  2  0  0  0  0
  3  4  1  0  0  0  0
  4  5  1  0  0  0  0
  4  6  1  0  0  0  0
  5 25  1  0  0  0  0
  5 26  1  0  0  0  0
  5 27  1  0  0  0  0
  6  7  1  0  0  0  0
  6  8  2  0  0  0  0
  7 28  1  0  0  0  0
  7 29  1  0  0  0  0
  7 30  1  0  0  0  0
  8  9  1  0  0  0  0
  9 10  1  0  0  0  0
  9 31  1  0  0  0  0
  9 32  1  0  0  0  0
 10 11  1  0  0  0  0
 10 12  1  0  0  0  0
 10 33  1  0  0  0  0
 11 34  1  0  0  0  0
 11 35  1  0  0  0  0
 11 36  1  0  0  0  0
 12 13  1  0  0  0  0
 12 37  1  0  0  0  0
 13 14  2  0  0  0  0
 13 15  1  0  0  0  0
 15 16  1  0  0  0  0
 15 38  1  0  0  0  0
 16 20  1  0  0  0  0
 16 17  1  0  0  0  0
 16 39  1  0  0  0  0
 17 18  1  0  0  0  0
 17 40  1  0  0  0  0
 17 41  1  0  0  0  0
 18 19  1  0  0  0  0
 18 42  1  0  0  0  0
 18 43  1  0  0  0  0
 19 20  1  0  0  0  0
 19 44  1  0  0  0  0
 19 45  1  0  0  0  0
 20 21  1  0  0  0  0
 20 46  1  0  0  0  0
 21 47  1  0  0  0  0
 21 48  1  0  0  0  0
 21 49  1  0  0  0  0
M  END
> <s_m_source_file>
AV-unprocessed.smi

> <i_m_source_file_index>
671

> <i_lp_mmshare_version>
43012

> <i_f3d_flags>
0

> <s_epik_input>
W0NIM11jMW5uKFtDSDNdKWMoW0NIM10pYzFbQ0gyXVtDQEhdKFtDSDNdKVtOSF1DKD1PKVtOSF1bQ0BASF0yW0NIMl1bQ0gyXVtDSDJdW0NASF0yW0NIM10=

> <s_epik_cmdline>
J2VwaWtfcHl0aG9uJywgJy1waCcsICc3LjAnLCAnLXRuJywgJzgnLCAnLW1hJywgJzIwMCcsICctbWV0YWxfYmluZGluZycsICctaW1hZScsICc8aW5maWxlLm1hZT4nLCAnLW9tYWUnLCAnPG91dGZpbGUubWFlPic=

> <r_lp_tautomer_probability>
1

> <r_epik_Ionization_Penalty>
0.0126855

> <r_epik_Ionization_Penalty_Charging>
0

> <r_epik_Ionization_Penalty_Neutral>
0.0126855

> <r_epik_State_Penalty>
0.00977547

> <r_epik_Charging_Adjusted_Penalty>
0.00977547

> <i_epik_Tot_Q>
0

> <i_epik_Tot_abs_Q>
0

> <r_epik_Metal_State_Penalty>
0.00957132

> <b_epik_Metal_Only>
0

> <s_lp_Force_Field>
OPLS_2005

> <r_lp_Energy>
23.5654

> <b_lp_Chiralities_Consistent>
1

> <s_lp_Variant>
AV-unprocessed.smi:671-3

> <Gold.Version>
5.8.1

> <Gold.Id.Protein>
6NUR|6NUR_protein|mol2

> <Gold.PLP.Fitness>
51.6959

> <Gold.PLP.PLP>
-50.8733

> <Gold.PLP.part.hbond>
-1.1498

> <Gold.PLP.part.metal>
0.0000

> <Gold.PLP.part.buried>
-8.7953

> <Gold.PLP.part.nonpolar>
-41.8164

> <Gold.PLP.part.repulsive>
0.4651

> <Gold.PLP.ligand.clash>
0.0000

> <Gold.PLP.ligand.torsion>
1.1086

> <Gold.PLP.Chemscore.Hbond>
1.0000

> <Gold.PLP.Chemscore.CHOScore>
0.0000

> <Gold.PLP.Chemscore.Metal>
0.0000

> <Gold.PLP.Chemscore.Internal.Correction>
0.0399

> <Gold.Rescore>
     Score         DG    S(hbond)    S(metal)    S(lipo)     H(rot)  DE(clash)    DE(int)     intcor
     15.82     -18.03       0.88        0.00     113.83       1.45       0.67       1.54       ----

> <Gold.Chemscore.Fitness>
15.8218

> <Gold.Chemscore.DG>
-18.0319

> <Gold.Chemscore.ZeroCoef>
-5.4800

> <Gold.Chemscore.Hbond>
0.8819

> <Gold.Chemscore.Metal>
0.0000

> <Gold.Chemscore.Lipo>
113.8291

> <Gold.Chemscore.Internal_Hbond>
0.0000

> <Gold.Chemscore.DEClash>
0.6682

> <Gold.Chemscore.DEInternal>
1.5418

> <Gold.Chemscore.Rot>
1.4499

> <Gold.Chemscore.Internal.Correction>
   9.000000E+99

> <Gold.Chemscore.Hbond.Weighted>
-2.9457

> <Gold.Chemscore.Metal.Weighted>
-0.0000

> <Gold.Chemscore.Lipo.Weighted>
-13.3180

> <Gold.Chemscore.Internal_Hbond.Weighted>
0.0000

> <Gold.Chemscore.DEClash.Weighted>
0.6682

> <Gold.Chemscore.DEInternal.Weighted>
1.5418

> <Gold.Chemscore.Rot.Weighted>
3.7118

> <Gold.Chemscore.Internal.Correction.Weighted>
   9.000000E+99

> <Gold.Protein.RotatedTorsions>
[ 6907 6896 6895 6894 ] final   62.15 input  -60.11 | X-H torsion
[ 7974 7965 7964 7962 ] final -169.43 input  175.53 | X-H torsion
[ 8008 7997 7996 7995 ] final -168.79 input   59.86 | X-H torsion
[ 10167 10162 10161 10158 ] final   75.41 input  -65.29 | X-H torsion
[ 10718 10713 10712 10709 ] final  -73.78 input   66.30 | X-H torsion
[ 10763 10752 10751 10750 ] final   59.26 input  -60.55 | X-H torsion
[ 11005 11000 10999 10996 ] final  -72.28 input  -57.11 | X-H torsion

> <Gold.Protein.ActiveResidues>
 VAL166  LYS551  ARG553  GLY616  TRP617  ASP618  TYR619  PRO620  LYS621  CYS622 
 ASP623  PHE694  ASN695  SER759  ASP760  ASP761  ALA762  ILE779  LEU786  VAL792 
 PHE793  MET794  SER795  GLU796  ALA797  LYS798  CYS799  TRP800  GLU811  SER814 

> <Gold.Protein.RotatedAtoms>
  152.4148  134.6060  160.0012 H   0  0  0  0  0  0  0  0  0  0  0  0  # atno 6907 bound_to 6896
  151.6227  133.3332  159.3099 H   0  0  0  0  0  0  0  0  0  0  0  0  # atno 6908 bound_to 6896
  150.8038  134.7188  159.6691 H   0  0  0  0  0  0  0  0  0  0  0  0  # atno 6909 bound_to 6896
  144.7185  140.2222  143.6314 H   0  0  0  0  0  0  0  0  0  0  0  0  # atno 7974 bound_to 7965
  155.8962  140.1033  157.1383 H   0  0  0  0  0  0  0  0  0  0  0  0  # atno 8008 bound_to 7997
  154.4020  140.1301  156.4442 H   0  0  0  0  0  0  0  0  0  0  0  0  # atno 8009 bound_to 7997
  155.7476  140.3465  155.5137 H   0  0  0  0  0  0  0  0  0  0  0  0  # atno 8010 bound_to 7997
  140.0032  144.5670  150.7719 H   0  0  0  0  0  0  0  0  0  0  0  0  # atno 10167 bound_to 10162
  156.0267  130.4402  150.2794 H   0  0  0  0  0  0  0  0  0  0  0  0  # atno 10718 bound_to 10713
  152.9890  135.5578  154.5685 H   0  0  0  0  0  0  0  0  0  0  0  0  # atno 10763 bound_to 10752
  154.5090  135.2801  155.1360 H   0  0  0  0  0  0  0  0  0  0  0  0  # atno 10764 bound_to 10752
  154.2760  135.6354  153.5381 H   0  0  0  0  0  0  0  0  0  0  0  0  # atno 10765 bound_to 10752
  141.1606  133.6842  156.7035 H   0  0  0  0  0  0  0  0  0  0  0  0  # atno 11005 bound_to 11000
  145.8490  139.2166  143.1783 LP  0  0  0  0  0  0  0  0  0  0  0  0  # atno 17320 bound_to 7965
  146.0278  140.8287  142.9891 LP  0  0  0  0  0  0  0  0  0  0  0  0  # atno 17321 bound_to 7965
  140.7410  143.2813  151.3591 LP  0  0  0  0  0  0  0  0  0  0  0  0  # atno 17342 bound_to 10162
  139.6257  144.0819  152.2432 LP  0  0  0  0  0  0  0  0  0  0  0  0  # atno 17343 bound_to 10162
  157.0898  131.0166  151.3126 LP  0  0  0  0  0  0  0  0  0  0  0  0  # atno 17370 bound_to 10713
  157.4863  130.7795  149.7463 LP  0  0  0  0  0  0  0  0  0  0  0  0  # atno 17371 bound_to 10713
  140.2941  134.8217  157.4042 LP  0  0  0  0  0  0  0  0  0  0  0  0  # atno 17394 bound_to 11000
  140.1320  134.5082  155.8098 LP  0  0  0  0  0  0  0  0  0  0  0  0  # atno 17395 bound_to 11000

$$$$
