AV-unprocessed.smi:249|AV-procd|sdf|1912|dock2
  -GOLD-   2262021 03D 1   1.00000     0.00000
 Structure written by MMmdl.
 64 67  0  0  0  0  0  0  0  0  2 V2000
  146.4038  128.2412  152.3439 C   0  0  0  0  0  0  0  0  0  0  0  0
  145.7901  129.6228  152.0628 C   0  0  0  0  0  0  0  0  0  0  0  0
  146.7576  130.7464  152.2271 N   0  3  2  0  0  0  0  0  0  0  0  0
  147.5796  130.5899  153.4612 C   0  0  0  0  0  0  0  0  0  0  0  0
  148.6436  131.6903  153.5919 C   0  0  0  0  0  0  0  0  0  0  0  0
  148.0080  133.0960  153.6003 C   0  0  2  0  0  0  0  0  0  0  0  0
  147.1858  133.3714  154.7903 N   0  0  0  0  0  0  0  0  0  0  0  0
  146.1204  134.3607  154.6612 C   0  0  0  0  0  0  0  0  0  0  0  0
  147.8443  133.5380  155.9598 C   0  0  0  0  0  0  0  0  0  0  0  0
  149.1923  133.6664  155.8953 N   0  0  0  0  0  0  0  0  0  0  0  0
  149.8996  133.8424  157.0155 C   0  0  0  0  0  0  0  0  0  0  0  0
  149.4640  133.9144  158.2751 N   0  0  0  0  0  0  0  0  0  0  0  0
  148.1094  133.7694  158.3431 C   0  0  0  0  0  0  0  0  0  0  0  0
  147.2280  133.5788  157.2423 C   0  0  0  0  0  0  0  0  0  0  0  0
  145.9181  133.4780  157.6945 N   0  0  0  0  0  0  0  0  0  0  0  0
  146.0177  133.6117  158.9890 C   0  0  0  0  0  0  0  0  0  0  0  0
  147.2997  133.7711  159.4660 N   0  0  0  0  0  0  0  0  0  0  0  0
  147.6895  133.9516  160.8538 C   0  0  0  0  0  0  0  0  0  0  0  0
  146.9157  135.0634  161.6109 C   0  0  1  0  0  0  0  0  0  0  0  0
  147.3136  136.4417  161.0336 C   0  0  0  0  0  0  0  0  0  0  0  0
  147.2063  137.4635  162.0043 O   0  0  0  0  0  0  0  0  0  0  0  0
  145.3721  134.8660  161.6565 C   0  0  1  0  0  0  0  0  0  0  0  0
  144.8723  133.6745  162.4592 C   0  0  0  0  0  0  0  0  0  0  0  0
  143.4130  134.0313  162.7203 C   0  0  0  0  0  0  0  0  0  0  0  0
  143.3627  135.4510  162.7732 O   0  0  0  0  0  0  0  0  0  0  0  0
  144.6148  135.9927  162.3707 C   0  0  0  0  0  0  0  0  0  0  0  0
  147.2003  133.2149  152.2944 C   0  0  0  0  0  0  0  0  0  0  0  0
  146.1306  132.1069  152.1459 C   0  0  1  0  0  0  0  0  0  0  0  0
  145.3610  132.3418  150.8293 C   0  0  0  0  0  0  0  0  0  0  0  0
  145.7082  127.4518  152.0577 H   0  0  0  0  0  0  0  0  0  0  0  0
  146.6293  128.0924  153.3992 H   0  0  0  0  0  0  0  0  0  0  0  0
  147.3209  128.0919  151.7733 H   0  0  0  0  0  0  0  0  0  0  0  0
  145.4269  129.5804  151.0389 H   0  0  0  0  0  0  0  0  0  0  0  0
  144.9167  129.7879  152.6953 H   0  0  0  0  0  0  0  0  0  0  0  0
  146.9280  130.5863  154.3362 H   0  0  0  0  0  0  0  0  0  0  0  0
  148.0985  129.6331  153.4559 H   0  0  0  0  0  0  0  0  0  0  0  0
  149.2535  131.5178  154.4786 H   0  0  0  0  0  0  0  0  0  0  0  0
  149.3347  131.6153  152.7514 H   0  0  0  0  0  0  0  0  0  0  0  0
  148.8047  133.8398  153.5709 H   0  0  0  0  0  0  0  0  0  0  0  0
  145.7447  134.6915  155.6313 H   0  0  0  0  0  0  0  0  0  0  0  0
  145.2764  133.9380  154.1161 H   0  0  0  0  0  0  0  0  0  0  0  0
  146.4741  135.2385  154.1192 H   0  0  0  0  0  0  0  0  0  0  0  0
  150.9672  133.9404  156.8846 H   0  0  0  0  0  0  0  0  0  0  0  0
  145.1536  133.5852  159.6369 H   0  0  0  0  0  0  0  0  0  0  0  0
  147.5434  132.9923  161.3518 H   0  0  0  0  0  0  0  0  0  0  0  0
  148.7611  134.1523  160.8887 H   0  0  0  0  0  0  0  0  0  0  0  0
  147.2691  135.0672  162.6421 H   0  0  0  0  0  0  0  0  0  0  0  0
  148.3329  136.4286  160.6478 H   0  0  0  0  0  0  0  0  0  0  0  0
  146.6746  136.6975  160.1879 H   0  0  0  0  0  0  0  0  0  0  0  0
  146.3083  137.5091  162.2952 H   0  0  0  0  0  0  0  0  0  0  0  0
  144.9861  134.7831  160.6390 H   0  0  0  0  0  0  0  0  0  0  0  0
  144.9574  132.7253  161.9338 H   0  0  0  0  0  0  0  0  0  0  0  0
  145.4137  133.5946  163.4032 H   0  0  0  0  0  0  0  0  0  0  0  0
  142.7859  133.6949  161.8940 H   0  0  0  0  0  0  0  0  0  0  0  0
  143.0330  133.5829  163.6385 H   0  0  0  0  0  0  0  0  0  0  0  0
  145.1500  136.3090  163.2672 H   0  0  0  0  0  0  0  0  0  0  0  0
  144.4715  136.8684  161.7374 H   0  0  0  0  0  0  0  0  0  0  0  0
  146.7405  134.2006  152.2205 H   0  0  0  0  0  0  0  0  0  0  0  0
  147.8882  133.1580  151.4492 H   0  0  0  0  0  0  0  0  0  0  0  0
  145.4205  132.1999  152.9694 H   0  0  0  0  0  0  0  0  0  0  0  0
  145.0623  133.3863  150.7344 H   0  0  0  0  0  0  0  0  0  0  0  0
  144.4397  131.7629  150.7761 H   0  0  0  0  0  0  0  0  0  0  0  0
  145.9722  132.0966  149.9601 H   0  0  0  0  0  0  0  0  0  0  0  0
  147.3963  130.6877  151.4469 H   0  0  0  0  0  0  0  0  0  0  0  0
  1  2  1  0  0  0  0
  1 30  1  0  0  0  0
  1 31  1  0  0  0  0
  1 32  1  0  0  0  0
  2  3  1  0  0  0  0
  2 33  1  0  0  0  0
  2 34  1  0  0  0  0
  3 28  1  0  0  0  0
  3  4  1  0  0  0  0
  3 64  1  0  0  0  0
  4  5  1  0  0  0  0
  4 35  1  0  0  0  0
  4 36  1  0  0  0  0
  5  6  1  0  0  0  0
  5 37  1  0  0  0  0
  5 38  1  0  0  0  0
  6  7  1  0  0  0  0
  6 27  1  0  0  0  0
  6 39  1  0  0  0  0
  7  8  1  0  0  0  0
  7  9  1  0  0  0  0
  8 40  1  0  0  0  0
  8 41  1  0  0  0  0
  8 42  1  0  0  0  0
  9 14  1  0  0  0  0
  9 10  2  0  0  0  0
 10 11  1  0  0  0  0
 11 12  2  0  0  0  0
 11 43  1  0  0  0  0
 12 13  1  0  0  0  0
 13 17  1  0  0  0  0
 13 14  2  0  0  0  0
 14 15  1  0  0  0  0
 15 16  2  0  0  0  0
 16 17  1  0  0  0  0
 16 44  1  0  0  0  0
 17 18  1  0  0  0  0
 18 19  1  0  0  0  0
 18 45  1  0  0  0  0
 18 46  1  0  0  0  0
 19 20  1  0  0  0  0
 19 22  1  0  0  0  0
 19 47  1  0  0  0  0
 20 21  1  0  0  0  0
 20 48  1  0  0  0  0
 20 49  1  0  0  0  0
 21 50  1  0  0  0  0
 22 26  1  0  0  0  0
 22 23  1  0  0  0  0
 22 51  1  0  0  0  0
 23 24  1  0  0  0  0
 23 52  1  0  0  0  0
 23 53  1  0  0  0  0
 24 25  1  0  0  0  0
 24 54  1  0  0  0  0
 24 55  1  0  0  0  0
 25 26  1  0  0  0  0
 26 56  1  0  0  0  0
 26 57  1  0  0  0  0
 27 28  1  0  0  0  0
 27 58  1  0  0  0  0
 27 59  1  0  0  0  0
 28 29  1  0  0  0  0
 28 60  1  0  0  0  0
 29 61  1  0  0  0  0
 29 62  1  0  0  0  0
 29 63  1  0  0  0  0
M  CHG  1   3   1
M  END
> <s_m_source_file>
AV-unprocessed.smi

> <i_m_source_file_index>
249

> <i_lp_mmshare_version>
43012

> <i_f3d_flags>
0

> <s_epik_input>
W0NIM11bQ0gyXU4xW0NIMl1bQ0gyXVtDQEhdKFtDSDJdW0NASF0xW0NIM10pTihbQ0gzXSljKG5bY0hdbjIpYyhjMjMpbltjSF1uM1tDSDJdW0NASF0oW0NIMl1bT0hdKVtDQEBIXTRbQ0gyXVtDSDJdT1tDSDJdNA==

> <s_epik_cmdline>
J2VwaWtfcHl0aG9uJywgJy1waCcsICc3LjAnLCAnLXRuJywgJzgnLCAnLW1hJywgJzIwMCcsICctbWV0YWxfYmluZGluZycsICctaW1hZScsICc8aW5maWxlLm1hZT4nLCAnLW9tYWUnLCAnPG91dGZpbGUubWFlPic=

> <r_lp_tautomer_probability>
1

> <r_epik_Ionization_Penalty>
0.00294688

> <r_epik_Ionization_Penalty_Charging>
0.00169971

> <r_epik_Ionization_Penalty_Neutral>
0.00124717

> <r_epik_State_Penalty>
-0

> <r_epik_Charging_Adjusted_Penalty>
0.00169971

> <i_epik_Tot_Q>
1

> <i_epik_Tot_abs_Q>
1

> <r_epik_Metal_State_Penalty>
-0

> <b_epik_Metal_Only>
0

> <s_lp_Force_Field>
OPLS_2005

> <r_lp_Energy>
57.4157

> <b_lp_Chiralities_Consistent>
1

> <s_lp_Variant>
AV-unprocessed.smi:249-15

> <Gold.Version>
5.8.1

> <Gold.Id.Protein>
6NUR|6NUR_protein|mol2

> <Gold.PLP.Fitness>
50.3715

> <Gold.PLP.PLP>
-41.4748

> <Gold.PLP.part.hbond>
-4.0000

> <Gold.PLP.part.metal>
0.0000

> <Gold.PLP.part.buried>
-5.6795

> <Gold.PLP.part.nonpolar>
-32.8348

> <Gold.PLP.part.repulsive>
0.1480

> <Gold.PLP.ligand.clash>
0.0000

> <Gold.PLP.ligand.torsion>
1.0166

> <Gold.PLP.Chemscore.Hbond>
3.4240

> <Gold.PLP.Chemscore.CHOScore>
0.0000

> <Gold.PLP.Chemscore.Metal>
0.0000

> <Gold.Chemscore.Hbonds>
donor molecule, donor type, donor heavy atom, donor atom, acceptor molecule, acceptor atom, score
      L1  H     3    64       P1 10747  1.00
      P1  H  6896  6908       L1    12  1.00
      P1  H  6931  6943       L1    21  0.72
      P1  H  6934  6947       L1    21  0.58

> <Gold.PLP.Chemscore.Internal.Correction>
0.6578

> <Gold.Rescore>
     Score         DG    S(hbond)    S(metal)    S(lipo)     H(rot)  DE(clash)    DE(int)     intcor
     19.27     -20.41       2.89        0.00     108.44       2.90       0.05       1.09       ----

> <Gold.Chemscore.Fitness>
19.2696

> <Gold.Chemscore.DG>
-20.4079

> <Gold.Chemscore.ZeroCoef>
-5.4800

> <Gold.Chemscore.Hbond>
2.8940

> <Gold.Chemscore.Metal>
0.0000

> <Gold.Chemscore.Lipo>
108.4400

> <Gold.Chemscore.Internal_Hbond>
0.0000

> <Gold.Chemscore.DEClash>
0.0460

> <Gold.Chemscore.DEInternal>
1.0922

> <Gold.Chemscore.Rot>
2.9006

> <Gold.Chemscore.Internal.Correction>
   9.000000E+99

> <Gold.Chemscore.Hbonds>
donor molecule, donor type, donor heavy atom, donor atom, acceptor molecule, acceptor atom, score
      L1  H     3    64       P1 10747  0.98
      P1  H  6896  6908       L1    12  0.85
      P1  H  6931  6943       L1    21  0.24
      P1  H  6934  6947       L1    21  0.04

> <Gold.Chemscore.Hbond.Weighted>
-9.6661

> <Gold.Chemscore.Metal.Weighted>
-0.0000

> <Gold.Chemscore.Lipo.Weighted>
-12.6875

> <Gold.Chemscore.Internal_Hbond.Weighted>
0.0000

> <Gold.Chemscore.DEClash.Weighted>
0.0460

> <Gold.Chemscore.DEInternal.Weighted>
1.0922

> <Gold.Chemscore.Rot.Weighted>
7.4256

> <Gold.Chemscore.Internal.Correction.Weighted>
   9.000000E+99

> <Gold.Protein.RotatedTorsions>
[ 6907 6896 6895 6894 ] final  140.29 input  -60.11 | X-H torsion
[ 7974 7965 7964 7962 ] final  100.09 input  175.53 | X-H torsion
[ 8008 7997 7996 7995 ] final   32.31 input   59.86 | X-H torsion
[ 10167 10162 10161 10158 ] final  143.62 input  -65.29 | X-H torsion
[ 10718 10713 10712 10709 ] final  -32.74 input   66.30 | X-H torsion
[ 10763 10752 10751 10750 ] final -115.03 input  -60.55 | X-H torsion
[ 11005 11000 10999 10996 ] final  -14.92 input  -57.11 | X-H torsion

> <Gold.Protein.ActiveResidues>
 VAL166  LYS551  ARG553  GLY616  TRP617  ASP618  TYR619  PRO620  LYS621  CYS622 
 ASP623  PHE694  ASN695  SER759  ASP760  ASP761  ALA762  ILE779  LEU786  VAL792 
 PHE793  MET794  SER795  GLU796  ALA797  LYS798  CYS799  TRP800  GLU811  SER814 

> <Gold.Protein.RotatedAtoms>
  152.2448  133.5165  159.5290 H   0  0  0  0  0  0  0  0  0  0  0  0  # atno 6907 bound_to 6896
  150.7075  134.1040  159.3985 H   0  0  0  0  0  0  0  0  0  0  0  0  # atno 6908 bound_to 6896
  151.8960  135.0397  160.0553 H   0  0  0  0  0  0  0  0  0  0  0  0  # atno 6909 bound_to 6896
  145.3902  139.2364  143.3356 H   0  0  0  0  0  0  0  0  0  0  0  0  # atno 7974 bound_to 7965
  155.1205  140.3248  155.4498 H   0  0  0  0  0  0  0  0  0  0  0  0  # atno 8008 bound_to 7997
  156.2664  140.2028  156.6275 H   0  0  0  0  0  0  0  0  0  0  0  0  # atno 8009 bound_to 7997
  154.6687  140.0539  157.0129 H   0  0  0  0  0  0  0  0  0  0  0  0  # atno 8010 bound_to 7997
  139.4965  144.6028  151.6444 H   0  0  0  0  0  0  0  0  0  0  0  0  # atno 10167 bound_to 10162
  156.3712  130.4340  149.7544 H   0  0  0  0  0  0  0  0  0  0  0  0  # atno 10718 bound_to 10713
  154.8465  135.4396  154.1599 H   0  0  0  0  0  0  0  0  0  0  0  0  # atno 10763 bound_to 10752
  153.2738  135.6947  153.7459 H   0  0  0  0  0  0  0  0  0  0  0  0  # atno 10764 bound_to 10752
  153.6689  135.3422  155.3123 H   0  0  0  0  0  0  0  0  0  0  0  0  # atno 10765 bound_to 10752
  140.7914  133.8285  155.9383 H   0  0  0  0  0  0  0  0  0  0  0  0  # atno 11005 bound_to 11000
  146.2801  140.4583  142.8780 LP  0  0  0  0  0  0  0  0  0  0  0  0  # atno 17320 bound_to 7965
  144.8446  140.6909  143.6207 LP  0  0  0  0  0  0  0  0  0  0  0  0  # atno 17321 bound_to 7965
  140.5682  144.0154  150.6203 LP  0  0  0  0  0  0  0  0  0  0  0  0  # atno 17342 bound_to 10162
  140.3263  143.3106  152.0733 LP  0  0  0  0  0  0  0  0  0  0  0  0  # atno 17343 bound_to 10162
  156.4670  130.7979  151.2998 LP  0  0  0  0  0  0  0  0  0  0  0  0  # atno 17370 bound_to 10713
  157.7484  131.0048  150.3088 LP  0  0  0  0  0  0  0  0  0  0  0  0  # atno 17371 bound_to 10713
  140.9386  134.1930  157.4814 LP  0  0  0  0  0  0  0  0  0  0  0  0  # atno 17394 bound_to 11000
  139.8731  134.9862  156.5316 LP  0  0  0  0  0  0  0  0  0  0  0  0  # atno 17395 bound_to 11000

$$$$
