AV-unprocessed.smi:1128|AV-procd|sdf|4844|dock10
  -GOLD-   22720 3413D 1   1.00000     0.00000
 Structure written by MMmdl.
 37 38  0  0  0  0  0  0  0  0  2 V2000
  154.2165  140.1078  158.6679 O   0  0  0  0  0  0  0  0  0  0  0  0
  153.1951  139.4832  158.9520 C   0  0  0  0  0  0  0  0  0  0  0  0
  151.9720  139.8517  158.5438 N   0  0  0  0  0  0  0  0  0  0  0  0
  151.6606  141.0232  157.7292 C   0  0  0  0  0  0  0  0  0  0  0  0
  151.4685  142.2938  158.5823 C   0  0  2  0  0  0  0  0  0  0  0  0
  151.2618  143.5645  157.7236 C   0  0  0  0  0  0  0  0  0  0  0  0
  151.3579  144.8443  158.5347 C   0  0  0  0  0  0  0  0  0  0  0  0
  151.8698  144.8982  159.7754 C   0  0  0  0  0  0  0  0  0  0  0  0
  152.4182  143.6855  160.5035 C   0  0  0  0  0  0  0  0  0  0  0  0
  152.6453  142.4913  159.5577 C   0  0  0  0  0  0  0  0  0  0  0  0
  153.1279  138.3651  159.6980 N   0  0  0  0  0  0  0  0  0  0  0  0
  154.1489  137.6344  160.3320 C   0  0  0  0  0  0  0  0  0  0  0  0
  154.2972  137.4944  161.6792 C   0  0  0  0  0  0  0  0  0  0  0  0
  155.3813  136.7185  162.2690 C   0  0  0  0  0  0  0  0  0  0  0  0
  155.6216  136.6072  163.7643 C   0  0  0  0  0  0  0  0  0  0  0  0
  155.5862  135.3355  164.1632 F   0  0  0  0  0  0  0  0  0  0  0  0
  156.8067  137.1191  164.0973 F   0  0  0  0  0  0  0  0  0  0  0  0
  154.6786  137.2762  164.4262 F   0  0  0  0  0  0  0  0  0  0  0  0
  156.2251  136.1856  161.3143 C   0  0  0  0  0  0  0  0  0  0  0  0
  156.1443  136.2654  159.9684 N   0  5  0  0  0  0  0  0  0  0  0  0
  155.1215  136.9855  159.4273 C   0  0  0  0  0  0  0  0  0  0  0  0
  154.9940  137.1038  158.2080 O   0  0  0  0  0  0  0  0  0  0  0  0
  151.1908  139.2774  158.8253 H   0  0  0  0  0  0  0  0  0  0  0  0
  152.4942  141.1673  157.0413 H   0  0  0  0  0  0  0  0  0  0  0  0
  150.7826  140.8480  157.1049 H   0  0  0  0  0  0  0  0  0  0  0  0
  150.5713  142.1521  159.1874 H   0  0  0  0  0  0  0  0  0  0  0  0
  152.0087  143.6148  156.9306 H   0  0  0  0  0  0  0  0  0  0  0  0
  150.2862  143.5347  157.2379 H   0  0  0  0  0  0  0  0  0  0  0  0
  150.9972  145.7467  158.0633 H   0  0  0  0  0  0  0  0  0  0  0  0
  151.8943  145.8387  160.3064 H   0  0  0  0  0  0  0  0  0  0  0  0
  153.3543  143.9529  160.9943 H   0  0  0  0  0  0  0  0  0  0  0  0
  151.7129  143.4158  161.2899 H   0  0  0  0  0  0  0  0  0  0  0  0
  152.8087  141.5891  160.1481 H   0  0  0  0  0  0  0  0  0  0  0  0
  153.5605  142.6522  158.9861 H   0  0  0  0  0  0  0  0  0  0  0  0
  152.2036  137.9880  159.8491 H   0  0  0  0  0  0  0  0  0  0  0  0
  153.6129  137.9597  162.3676 H   0  0  0  0  0  0  0  0  0  0  0  0
  157.0998  135.6117  161.6884 H   0  0  0  0  0  0  0  0  0  0  0  0
  1  2  2  0  0  0  0
  2  3  1  0  0  0  0
  2 11  1  0  0  0  0
  3  4  1  0  0  0  0
  3 23  1  0  0  0  0
  4  5  1  0  0  0  0
  4 24  1  0  0  0  0
  4 25  1  0  0  0  0
  5 10  1  0  0  0  0
  5  6  1  0  0  0  0
  5 26  1  0  0  0  0
  6  7  1  0  0  0  0
  6 27  1  0  0  0  0
  6 28  1  0  0  0  0
  7  8  2  0  0  0  0
  7 29  1  0  0  0  0
  8  9  1  0  0  0  0
  8 30  1  0  0  0  0
  9 10  1  0  0  0  0
  9 31  1  0  0  0  0
  9 32  1  0  0  0  0
 10 33  1  0  0  0  0
 10 34  1  0  0  0  0
 11 12  1  0  0  0  0
 11 35  1  0  0  0  0
 12 21  1  0  0  0  0
 12 13  2  0  0  0  0
 13 14  1  0  0  0  0
 13 36  1  0  0  0  0
 14 15  1  0  0  0  0
 14 19  2  0  0  0  0
 15 16  1  0  0  0  0
 15 17  1  0  0  0  0
 15 18  1  0  0  0  0
 19 20  1  0  0  0  0
 19 37  1  0  0  0  0
 20 21  1  0  0  0  0
 21 22  2  0  0  0  0
M  CHG  1  20  -1
M  END
> <s_m_source_file>
AV-unprocessed.smi

> <i_m_source_file_index>
1128

> <i_lp_mmshare_version>
43012

> <i_f3d_flags>
0

> <s_epik_input>
Tz1jMVtuSF1bY0hdYyhDKEYpKEYpRilbY0hdYzFbTkhdQyg9TylbTkhdW0NIMl1bQ0BASF0yW0NIMl1bQ0hdPVtDSF1bQ0gyXVtDSDJdMg==

> <s_epik_cmdline>
J2VwaWtfcHl0aG9uJywgJy1waCcsICc3LjAnLCAnLXRuJywgJzgnLCAnLW1hJywgJzIwMCcsICctbWV0YWxfYmluZGluZycsICctaW1hZScsICc8aW5maWxlLm1hZT4nLCAnLW9tYWUnLCAnPG91dGZpbGUubWFlPic=

> <r_lp_tautomer_probability>
1

> <r_epik_Ionization_Penalty>
3.16664

> <r_epik_Ionization_Penalty_Charging>
0.172425

> <r_epik_Ionization_Penalty_Neutral>
2.99422

> <r_epik_State_Penalty>
2.99038

> <r_epik_Charging_Adjusted_Penalty>
3.16281

> <i_epik_Tot_Q>
-1

> <i_epik_Tot_abs_Q>
1

> <r_epik_Metal_State_Penalty>
0.453031

> <b_epik_Metal_Only>
1

> <s_lp_Force_Field>
OPLS_2005

> <r_lp_Energy>
22.3955

> <b_lp_Chiralities_Consistent>
1

> <s_lp_Variant>
AV-unprocessed.smi:1128-3

> <Gold.Version>
5.8.1

> <Gold.Id.Protein>
6NUR|6NUR_protein|mol2

> <Gold.PLP.Fitness>
46.8555

> <Gold.PLP.PLP>
-45.4971

> <Gold.PLP.part.hbond>
-1.0000

> <Gold.PLP.part.metal>
0.0000

> <Gold.PLP.part.buried>
-5.3656

> <Gold.PLP.part.nonpolar>
-39.6746

> <Gold.PLP.part.repulsive>
0.2136

> <Gold.PLP.ligand.clash>
0.0000

> <Gold.PLP.ligand.torsion>
0.8575

> <Gold.PLP.Chemscore.Hbond>
1.0000

> <Gold.PLP.Chemscore.CHOScore>
0.0000

> <Gold.PLP.Chemscore.Metal>
0.0000

> <Gold.Chemscore.Hbonds>
donor molecule, donor type, donor heavy atom, donor atom, acceptor molecule, acceptor atom, score
      P1  H  7997  8010       L1     1  0.96

> <Gold.PLP.Chemscore.Internal.Correction>
0.0733

> <Gold.Rescore>
     Score         DG    S(hbond)    S(metal)    S(lipo)     H(rot)  DE(clash)    DE(int)     intcor
     17.80     -18.83       1.00        0.00     113.88       1.29       0.18       0.85       ----

> <Gold.Chemscore.Fitness>
17.8015

> <Gold.Chemscore.DG>
-18.8303

> <Gold.Chemscore.ZeroCoef>
-5.4800

> <Gold.Chemscore.Hbond>
0.9998

> <Gold.Chemscore.Metal>
0.0000

> <Gold.Chemscore.Lipo>
113.8821

> <Gold.Chemscore.Internal_Hbond>
0.0000

> <Gold.Chemscore.DEClash>
0.1753

> <Gold.Chemscore.DEInternal>
0.8535

> <Gold.Chemscore.Rot>
1.2943

> <Gold.Chemscore.Internal.Correction>
   9.000000E+99

> <Gold.Chemscore.Hbonds>
donor molecule, donor type, donor heavy atom, donor atom, acceptor molecule, acceptor atom, score
      P1  H  7997  8010       L1     1  0.88

> <Gold.Chemscore.Hbond.Weighted>
-3.3394

> <Gold.Chemscore.Metal.Weighted>
-0.0000

> <Gold.Chemscore.Lipo.Weighted>
-13.3242

> <Gold.Chemscore.Internal_Hbond.Weighted>
0.0000

> <Gold.Chemscore.DEClash.Weighted>
0.1753

> <Gold.Chemscore.DEInternal.Weighted>
0.8535

> <Gold.Chemscore.Rot.Weighted>
3.3133

> <Gold.Chemscore.Internal.Correction.Weighted>
   9.000000E+99

> <Gold.Protein.RotatedTorsions>
[ 6907 6896 6895 6894 ] final   15.75 input  -60.11 | X-H torsion
[ 7974 7965 7964 7962 ] final    0.51 input  175.53 | X-H torsion
[ 8008 7997 7996 7995 ] final   15.43 input   59.86 | X-H torsion
[ 10167 10162 10161 10158 ] final  125.75 input  -65.29 | X-H torsion
[ 10718 10713 10712 10709 ] final   79.90 input   66.30 | X-H torsion
[ 10763 10752 10751 10750 ] final  117.20 input  -60.55 | X-H torsion
[ 11005 11000 10999 10996 ] final -139.60 input  -57.11 | X-H torsion

> <Gold.Protein.ActiveResidues>
 VAL166  LYS551  ARG553  GLY616  TRP617  ASP618  TYR619  PRO620  LYS621  CYS622 
 ASP623  PHE694  ASN695  SER759  ASP760  ASP761  ALA762  ILE779  LEU786  VAL792 
 PHE793  MET794  SER795  GLU796  ALA797  LYS798  CYS799  TRP800  GLU811  SER814 

> <Gold.Protein.RotatedAtoms>
  151.8230  135.0646  160.0427 H   0  0  0  0  0  0  0  0  0  0  0  0  # atno 6907 bound_to 6896
  152.2937  133.5582  159.5582 H   0  0  0  0  0  0  0  0  0  0  0  0  # atno 6908 bound_to 6896
  150.7241  134.0308  159.3775 H   0  0  0  0  0  0  0  0  0  0  0  0  # atno 6909 bound_to 6896
  146.2435  140.1127  142.8343 H   0  0  0  0  0  0  0  0  0  0  0  0  # atno 7974 bound_to 7965
  154.8626  140.2946  155.5530 H   0  0  0  0  0  0  0  0  0  0  0  0  # atno 8008 bound_to 7997
  156.3020  140.2475  156.3535 H   0  0  0  0  0  0  0  0  0  0  0  0  # atno 8009 bound_to 7997
  154.8902  140.0395  157.1823 H   0  0  0  0  0  0  0  0  0  0  0  0  # atno 8010 bound_to 7997
  139.5668  144.6916  151.3887 H   0  0  0  0  0  0  0  0  0  0  0  0  # atno 10167 bound_to 10162
  157.6790  130.9935  150.2000 H   0  0  0  0  0  0  0  0  0  0  0  0  # atno 10718 bound_to 10713
  153.5488  135.3544  155.2750 H   0  0  0  0  0  0  0  0  0  0  0  0  # atno 10763 bound_to 10752
  154.8709  135.4109  154.2960 H   0  0  0  0  0  0  0  0  0  0  0  0  # atno 10764 bound_to 10752
  153.3682  135.7063  153.6727 H   0  0  0  0  0  0  0  0  0  0  0  0  # atno 10765 bound_to 10752
  140.8504  134.2293  157.4763 H   0  0  0  0  0  0  0  0  0  0  0  0  # atno 11005 bound_to 11000
  145.0473  140.8991  143.5016 LP  0  0  0  0  0  0  0  0  0  0  0  0  # atno 17320 bound_to 7965
  145.1219  139.2688  143.5584 LP  0  0  0  0  0  0  0  0  0  0  0  0  # atno 17321 bound_to 7965
  140.6952  143.7766  150.7315 LP  0  0  0  0  0  0  0  0  0  0  0  0  # atno 17342 bound_to 10162
  140.1260  143.4568  152.2283 LP  0  0  0  0  0  0  0  0  0  0  0  0  # atno 17343 bound_to 10162
  156.2693  130.3720  149.8048 LP  0  0  0  0  0  0  0  0  0  0  0  0  # atno 17370 bound_to 10713
  156.5770  130.8449  151.3372 LP  0  0  0  0  0  0  0  0  0  0  0  0  # atno 17371 bound_to 10713
  139.8704  134.9680  156.4617 LP  0  0  0  0  0  0  0  0  0  0  0  0  # atno 17394 bound_to 11000
  140.8797  133.7927  155.9453 LP  0  0  0  0  0  0  0  0  0  0  0  0  # atno 17395 bound_to 11000

$$$$
