AV-unprocessed.smi:2775|AV-procd|sdf|10700|dock5
  -GOLD-   2272015143D 1   1.00000     0.00000
 Structure written by MMmdl.
 43 46  0  0  0  0  0  0  0  0  2 V2000
  150.6886  141.0830  155.7811 C   0  0  0  0  0  0  0  0  0  0  0  0
  149.4298  140.9017  154.9546 C   0  0  0  0  0  0  0  0  0  0  0  0
  148.6569  141.9894  154.7387 N   0  3  0  0  0  0  0  0  0  0  0  0
  147.5124  141.9493  154.0250 C   0  0  0  0  0  0  0  0  0  0  0  0
  147.0780  140.7336  153.4617 C   0  0  0  0  0  0  0  0  0  0  0  0
  147.8594  139.5652  153.6440 C   0  0  0  0  0  0  0  0  0  0  0  0
  147.4858  138.2963  153.1258 N   0  0  0  0  0  0  0  0  0  0  0  0
  146.3215  137.9334  152.5545 C   0  0  0  0  0  0  0  0  0  0  0  0
  145.3358  138.6603  152.4514 O   0  0  0  0  0  0  0  0  0  0  0  0
  146.3348  136.6907  152.0423 N   0  0  0  0  0  0  0  0  0  0  0  0
  145.2361  135.9997  151.3582 C   0  0  2  0  0  0  0  0  0  0  0  0
  143.9207  135.9272  152.1788 C   0  0  2  0  0  0  0  0  0  0  0  0
  143.6838  136.7031  153.4535 C   0  0  0  0  0  0  0  0  0  0  0  0
  143.9657  135.6655  154.5430 C   0  0  0  0  0  0  0  0  0  0  0  0
  144.7818  134.6848  153.9077 O   0  0  0  0  0  0  0  0  0  0  0  0
  144.2931  134.5055  152.5823 C   0  0  2  0  0  0  0  0  0  0  0  0
  145.3646  134.4722  151.4846 C   0  0  0  0  0  0  0  0  0  0  0  0
  146.7024  133.7436  151.6972 C   0  0  0  0  0  0  0  0  0  0  0  0
  146.1434  132.5830  150.8699 C   0  0  0  0  0  0  0  0  0  0  0  0
  145.1457  133.5714  150.2594 C   0  0  0  0  0  0  0  0  0  0  0  0
  149.0454  139.6521  154.4139 C   0  0  0  0  0  0  0  0  0  0  0  0
  150.0233  138.2476  154.6830 Cl  0  0  0  0  0  0  0  0  0  0  0  0
  151.5652  140.7732  155.2114 H   0  0  0  0  0  0  0  0  0  0  0  0
  150.6363  140.4803  156.6883 H   0  0  0  0  0  0  0  0  0  0  0  0
  150.8269  142.1245  156.0740 H   0  0  0  0  0  0  0  0  0  0  0  0
  146.9783  142.8839  153.9317 H   0  0  0  0  0  0  0  0  0  0  0  0
  146.1499  140.7153  152.9106 H   0  0  0  0  0  0  0  0  0  0  0  0
  148.2323  137.6192  153.0615 H   0  0  0  0  0  0  0  0  0  0  0  0
  147.2152  136.1962  152.0685 H   0  0  0  0  0  0  0  0  0  0  0  0
  145.0827  136.3152  150.3247 H   0  0  0  0  0  0  0  0  0  0  0  0
  143.0586  135.9220  151.5101 H   0  0  0  0  0  0  0  0  0  0  0  0
  144.3465  137.5607  153.5517 H   0  0  0  0  0  0  0  0  0  0  0  0
  142.6622  137.0774  153.5235 H   0  0  0  0  0  0  0  0  0  0  0  0
  144.4608  136.0943  155.4144 H   0  0  0  0  0  0  0  0  0  0  0  0
  143.0382  135.1950  154.8728 H   0  0  0  0  0  0  0  0  0  0  0  0
  143.4787  133.7848  152.4956 H   0  0  0  0  0  0  0  0  0  0  0  0
  147.5403  134.2398  151.2051 H   0  0  0  0  0  0  0  0  0  0  0  0
  146.9338  133.4943  152.7331 H   0  0  0  0  0  0  0  0  0  0  0  0
  146.8475  132.1464  150.1611 H   0  0  0  0  0  0  0  0  0  0  0  0
  145.6604  131.8213  151.4840 H   0  0  0  0  0  0  0  0  0  0  0  0
  144.1327  133.1847  150.1443 H   0  0  0  0  0  0  0  0  0  0  0  0
  145.5129  134.0191  149.3345 H   0  0  0  0  0  0  0  0  0  0  0  0
  148.9500  142.8815  155.1384 H   0  0  0  0  0  0  0  0  0  0  0  0
  1  2  1  0  0  0  0
  1 23  1  0  0  0  0
  1 24  1  0  0  0  0
  1 25  1  0  0  0  0
  2 21  1  0  0  0  0
  2  3  2  0  0  0  0
  3  4  1  0  0  0  0
  3 43  1  0  0  0  0
  4  5  2  0  0  0  0
  4 26  1  0  0  0  0
  5  6  1  0  0  0  0
  5 27  1  0  0  0  0
  6  7  1  0  0  0  0
  6 21  2  0  0  0  0
  7  8  1  0  0  0  0
  7 28  1  0  0  0  0
  8  9  2  0  0  0  0
  8 10  1  0  0  0  0
 10 11  1  0  0  0  0
 10 29  1  0  0  0  0
 11 17  1  0  0  0  0
 11 12  1  0  0  0  0
 11 30  1  0  0  0  0
 12 16  1  0  0  0  0
 12 13  1  0  0  0  0
 12 31  1  0  0  0  0
 13 14  1  0  0  0  0
 13 32  1  0  0  0  0
 13 33  1  0  0  0  0
 14 15  1  0  0  0  0
 14 34  1  0  0  0  0
 14 35  1  0  0  0  0
 15 16  1  0  0  0  0
 16 17  1  0  0  0  0
 16 36  1  0  0  0  0
 17 20  1  0  0  0  0
 17 18  1  0  0  0  0
 18 19  1  0  0  0  0
 18 37  1  0  0  0  0
 18 38  1  0  0  0  0
 19 20  1  0  0  0  0
 19 39  1  0  0  0  0
 19 40  1  0  0  0  0
 20 41  1  0  0  0  0
 20 42  1  0  0  0  0
 21 22  1  0  0  0  0
M  CHG  1   3   1
M  END
> <s_m_source_file>
AV-unprocessed.smi

> <i_m_source_file_index>
2775

> <i_lp_mmshare_version>
43012

> <i_f3d_flags>
0

> <s_epik_input>
W0NIM11jMW5bY0hdW2NIXWMoYzFDbClbTkhdQyg9TylbTkhdW0NAQEhdMltDQEhdKFtDSDJdW0NIMl1PMylbQ0BASF0zQzI0W0NIMl1bQ0gyXVtDSDJdNA==

> <s_epik_cmdline>
J2VwaWtfcHl0aG9uJywgJy1waCcsICc3LjAnLCAnLXRuJywgJzgnLCAnLW1hJywgJzIwMCcsICctbWV0YWxfYmluZGluZycsICctaW1hZScsICc8aW5maWxlLm1hZT4nLCAnLW9tYWUnLCAnPG91dGZpbGUubWFlPic=

> <r_epik_Ionization_Penalty>
2.4104

> <r_epik_Ionization_Penalty_Charging>
2.41038

> <r_epik_Ionization_Penalty_Neutral>
1.9872e-05

> <r_epik_State_Penalty>
2.56896

> <r_epik_Charging_Adjusted_Penalty>
4.97934

> <i_epik_Tot_Q>
1

> <i_epik_Tot_abs_Q>
1

> <r_epik_Metal_State_Penalty>
2.57906

> <b_epik_Metal_Only>
0

> <s_lp_Force_Field>
OPLS_2005

> <r_lp_Energy>
62.9708

> <b_lp_Chiralities_Consistent>
1

> <s_lp_Variant>
AV-unprocessed.smi:2775-13

> <Gold.Version>
5.8.1

> <Gold.Id.Protein>
6NUR|6NUR_protein|mol2

> <Gold.PLP.Fitness>
45.3879

> <Gold.PLP.PLP>
-34.2834

> <Gold.PLP.part.hbond>
-3.0000

> <Gold.PLP.part.metal>
0.0000

> <Gold.PLP.part.buried>
-4.1780

> <Gold.PLP.part.nonpolar>
-33.0017

> <Gold.PLP.part.repulsive>
5.7178

> <Gold.PLP.ligand.clash>
0.0000

> <Gold.PLP.ligand.torsion>
0.2152

> <Gold.PLP.Chemscore.Hbond>
3.7760

> <Gold.PLP.Chemscore.CHOScore>
0.0000

> <Gold.PLP.Chemscore.Metal>
0.0000

> <Gold.Chemscore.Hbonds>
donor molecule, donor type, donor heavy atom, donor atom, acceptor molecule, acceptor atom, score
      L1  H     3    43       P1  8028  2.00
      L1  H     7    28       P1  7948  0.83
      L1  H    10    29       P1  7948  0.98

> <Gold.PLP.Chemscore.Internal.Correction>
0.2069

> <Gold.Rescore>
     Score         DG    S(hbond)    S(metal)    S(lipo)     H(rot)  DE(clash)    DE(int)     intcor
     17.26     -23.45       2.86        0.00      93.71       1.00       2.62       3.57       ----

> <Gold.Chemscore.Fitness>
17.2641

> <Gold.Chemscore.DG>
-23.4513

> <Gold.Chemscore.ZeroCoef>
-5.4800

> <Gold.Chemscore.Hbond>
2.8645

> <Gold.Chemscore.Metal>
0.0000

> <Gold.Chemscore.Lipo>
93.7091

> <Gold.Chemscore.Internal_Hbond>
0.0000

> <Gold.Chemscore.DEClash>
2.6186

> <Gold.Chemscore.DEInternal>
3.5687

> <Gold.Chemscore.Rot>
1.0000

> <Gold.Chemscore.Internal.Correction>
   9.000000E+99

> <Gold.Chemscore.Hbonds>
donor molecule, donor type, donor heavy atom, donor atom, acceptor molecule, acceptor atom, score
      L1  H     3    43       P1  8028  0.99
      L1  H     7    28       P1  7948  0.80
      L1  H    10    29       P1  7948  0.93

> <Gold.Chemscore.Hbond.Weighted>
-9.5673

> <Gold.Chemscore.Metal.Weighted>
-0.0000

> <Gold.Chemscore.Lipo.Weighted>
-10.9640

> <Gold.Chemscore.Internal_Hbond.Weighted>
0.0000

> <Gold.Chemscore.DEClash.Weighted>
2.6186

> <Gold.Chemscore.DEInternal.Weighted>
3.5687

> <Gold.Chemscore.Rot.Weighted>
2.5600

> <Gold.Chemscore.Internal.Correction.Weighted>
   9.000000E+99

> <Gold.Protein.RotatedTorsions>
[ 6907 6896 6895 6894 ] final  -50.99 input  -60.11 | X-H torsion
[ 7974 7965 7964 7962 ] final  147.38 input  175.53 | X-H torsion
[ 8008 7997 7996 7995 ] final   61.39 input   59.86 | X-H torsion
[ 10167 10162 10161 10158 ] final -147.85 input  -65.29 | X-H torsion
[ 10718 10713 10712 10709 ] final   76.09 input   66.30 | X-H torsion
[ 10763 10752 10751 10750 ] final  -44.88 input  -60.55 | X-H torsion
[ 11005 11000 10999 10996 ] final   79.92 input  -57.11 | X-H torsion

> <Gold.Protein.ActiveResidues>
 VAL166  LYS551  ARG553  GLY616  TRP617  ASP618  TYR619  PRO620  LYS621  CYS622 
 ASP623  PHE694  ASN695  SER759  ASP760  ASP761  ALA762  ILE779  LEU786  VAL792 
 PHE793  MET794  SER795  GLU796  ALA797  LYS798  CYS799  TRP800  GLU811  SER814 

> <Gold.Protein.RotatedAtoms>
  150.8654  134.8016  159.7114 H   0  0  0  0  0  0  0  0  0  0  0  0  # atno 6907 bound_to 6896
  152.4677  134.5032  159.9741 H   0  0  0  0  0  0  0  0  0  0  0  0  # atno 6908 bound_to 6896
  151.5129  133.3443  159.2923 H   0  0  0  0  0  0  0  0  0  0  0  0  # atno 6909 bound_to 6896
  144.8596  139.6022  143.5936 H   0  0  0  0  0  0  0  0  0  0  0  0  # atno 7974 bound_to 7965
  155.5975  140.3493  155.4584 H   0  0  0  0  0  0  0  0  0  0  0  0  # atno 8008 bound_to 7997
  156.0254  140.1263  157.0339 H   0  0  0  0  0  0  0  0  0  0  0  0  # atno 8009 bound_to 7997
  154.4331  140.1054  156.6009 H   0  0  0  0  0  0  0  0  0  0  0  0  # atno 8010 bound_to 7997
  139.7585  143.8412  152.2602 H   0  0  0  0  0  0  0  0  0  0  0  0  # atno 10167 bound_to 10162
  157.6660  130.9758  150.1447 H   0  0  0  0  0  0  0  0  0  0  0  0  # atno 10718 bound_to 10713
  154.0194  135.6671  153.4771 H   0  0  0  0  0  0  0  0  0  0  0  0  # atno 10763 bound_to 10752
  153.0586  135.5041  154.8037 H   0  0  0  0  0  0  0  0  0  0  0  0  # atno 10764 bound_to 10752
  154.6946  135.3067  154.9394 H   0  0  0  0  0  0  0  0  0  0  0  0  # atno 10765 bound_to 10752
  139.9154  134.7880  156.1841 H   0  0  0  0  0  0  0  0  0  0  0  0  # atno 11005 bound_to 11000
  146.2850  139.6979  142.9202 LP  0  0  0  0  0  0  0  0  0  0  0  0  # atno 17320 bound_to 7965
  145.4338  141.0417  143.2895 LP  0  0  0  0  0  0  0  0  0  0  0  0  # atno 17321 bound_to 7965
  139.8412  144.7209  150.9329 LP  0  0  0  0  0  0  0  0  0  0  0  0  # atno 17342 bound_to 10162
  140.7805  143.3982  151.1193 LP  0  0  0  0  0  0  0  0  0  0  0  0  # atno 17343 bound_to 10162
  156.2261  130.3678  149.8499 LP  0  0  0  0  0  0  0  0  0  0  0  0  # atno 17370 bound_to 10713
  156.6338  130.8677  151.3500 LP  0  0  0  0  0  0  0  0  0  0  0  0  # atno 17371 bound_to 10713
  141.0624  133.6835  156.1978 LP  0  0  0  0  0  0  0  0  0  0  0  0  # atno 17394 bound_to 11000
  140.6640  134.4938  157.5584 LP  0  0  0  0  0  0  0  0  0  0  0  0  # atno 17395 bound_to 11000

$$$$
