AV-unprocessed.smi:653|AV-procd|sdf|3209|dock2
  -GOLD-   22720 0143D 1   1.00000     0.00000
 Structure written by MMmdl.
 45 46  0  0  0  0  0  0  0  0  2 V2000
  151.1918  143.0968  157.2917 C   0  0  0  0  0  0  0  0  0  0  0  0
  150.7308  141.9777  156.3819 C   0  0  0  0  0  0  0  0  0  0  0  0
  151.2991  140.6868  156.4321 C   0  0  0  0  0  0  0  0  0  0  0  0
  150.8198  139.6886  155.5587 C   0  0  0  0  0  0  0  0  0  0  0  0
  149.7810  139.9999  154.6535 C   0  0  0  0  0  0  0  0  0  0  0  0
  149.2445  138.9478  153.6995 C   0  0  0  0  0  0  0  0  0  0  0  0
  147.7460  138.7412  153.9237 C   0  0  0  0  0  0  0  0  0  0  0  0
  147.1135  139.5420  154.6122 O   0  0  0  0  0  0  0  0  0  0  0  0
  147.1944  137.6674  153.3370 N   0  0  0  0  0  0  0  0  0  0  0  0
  145.7858  137.2897  153.4070 C   0  0  0  0  0  0  0  0  0  0  0  0
  145.1245  137.2452  152.0072 C   0  0  1  0  0  0  0  0  0  0  0  0
  145.9356  136.4575  150.9876 C   0  0  0  0  0  0  0  0  0  0  0  0
  145.4973  135.0130  151.2343 C   0  0  0  0  0  0  0  0  0  0  0  0
  144.2519  135.0939  151.9229 O   0  0  0  0  0  0  0  0  0  0  0  0
  143.8100  136.4461  151.9508 C   0  0  1  0  0  0  0  0  0  0  0  0
  142.7780  136.6834  153.0772 C   0  0  0  0  0  0  0  0  0  0  0  0
  141.6363  135.6566  153.0030 C   0  0  0  0  0  0  0  0  0  0  0  0
  142.2012  138.1089  153.0319 C   0  0  0  0  0  0  0  0  0  0  0  0
  149.2501  141.3082  154.6498 C   0  0  0  0  0  0  0  0  0  0  0  0
  149.7374  142.2363  155.5019 N   0  3  0  0  0  0  0  0  0  0  0  0
  152.2202  142.9344  157.6157 H   0  0  0  0  0  0  0  0  0  0  0  0
  150.5577  143.1473  158.1771 H   0  0  0  0  0  0  0  0  0  0  0  0
  151.1466  144.0586  156.7797 H   0  0  0  0  0  0  0  0  0  0  0  0
  152.0923  140.4623  157.1305 H   0  0  0  0  0  0  0  0  0  0  0  0
  151.2468  138.6964  155.5835 H   0  0  0  0  0  0  0  0  0  0  0  0
  149.4440  139.2451  152.6687 H   0  0  0  0  0  0  0  0  0  0  0  0
  149.7648  138.0027  153.8602 H   0  0  0  0  0  0  0  0  0  0  0  0
  147.7960  137.0644  152.7948 H   0  0  0  0  0  0  0  0  0  0  0  0
  145.6536  136.3402  153.9287 H   0  0  0  0  0  0  0  0  0  0  0  0
  145.3002  138.0412  154.0280 H   0  0  0  0  0  0  0  0  0  0  0  0
  144.9646  138.2666  151.6594 H   0  0  0  0  0  0  0  0  0  0  0  0
  145.6417  136.7588  149.9811 H   0  0  0  0  0  0  0  0  0  0  0  0
  147.0139  136.5927  151.0605 H   0  0  0  0  0  0  0  0  0  0  0  0
  145.3939  134.4582  150.3014 H   0  0  0  0  0  0  0  0  0  0  0  0
  146.2144  134.4865  151.8650 H   0  0  0  0  0  0  0  0  0  0  0  0
  143.3273  136.6463  150.9919 H   0  0  0  0  0  0  0  0  0  0  0  0
  143.2689  136.5442  154.0406 H   0  0  0  0  0  0  0  0  0  0  0  0
  141.1015  135.7255  152.0551 H   0  0  0  0  0  0  0  0  0  0  0  0
  140.9136  135.8135  153.8043 H   0  0  0  0  0  0  0  0  0  0  0  0
  142.0115  134.6376  153.0997 H   0  0  0  0  0  0  0  0  0  0  0  0
  141.6880  138.2971  152.0885 H   0  0  0  0  0  0  0  0  0  0  0  0
  142.9784  138.8647  153.1412 H   0  0  0  0  0  0  0  0  0  0  0  0
  141.4827  138.2661  153.8369 H   0  0  0  0  0  0  0  0  0  0  0  0
  148.4586  141.6387  153.9931 H   0  0  0  0  0  0  0  0  0  0  0  0
  149.3380  143.1749  155.4796 H   0  0  0  0  0  0  0  0  0  0  0  0
  1  2  1  0  0  0  0
  1 21  1  0  0  0  0
  1 22  1  0  0  0  0
  1 23  1  0  0  0  0
  2 20  1  0  0  0  0
  2  3  2  0  0  0  0
  3  4  1  0  0  0  0
  3 24  1  0  0  0  0
  4  5  2  0  0  0  0
  4 25  1  0  0  0  0
  5  6  1  0  0  0  0
  5 19  1  0  0  0  0
  6  7  1  0  0  0  0
  6 26  1  0  0  0  0
  6 27  1  0  0  0  0
  7  8  2  0  0  0  0
  7  9  1  0  0  0  0
  9 10  1  0  0  0  0
  9 28  1  0  0  0  0
 10 11  1  0  0  0  0
 10 29  1  0  0  0  0
 10 30  1  0  0  0  0
 11 15  1  0  0  0  0
 11 12  1  0  0  0  0
 11 31  1  0  0  0  0
 12 13  1  0  0  0  0
 12 32  1  0  0  0  0
 12 33  1  0  0  0  0
 13 14  1  0  0  0  0
 13 34  1  0  0  0  0
 13 35  1  0  0  0  0
 14 15  1  0  0  0  0
 15 16  1  0  0  0  0
 15 36  1  0  0  0  0
 16 17  1  0  0  0  0
 16 18  1  0  0  0  0
 16 37  1  0  0  0  0
 17 38  1  0  0  0  0
 17 39  1  0  0  0  0
 17 40  1  0  0  0  0
 18 41  1  0  0  0  0
 18 42  1  0  0  0  0
 18 43  1  0  0  0  0
 19 20  2  0  0  0  0
 19 44  1  0  0  0  0
 20 45  1  0  0  0  0
M  CHG  1  20   1
M  END
> <s_m_source_file>
AV-unprocessed.smi

> <i_m_source_file_index>
653

> <i_lp_mmshare_version>
43012

> <i_f3d_flags>
0

> <s_epik_input>
W0NIM11jMVtjSF1bY0hdYyhbY0hdbjEpW0NIMl1DKD1PKVtOSF1bQ0gyXVtDQEBIXTJbQ0gyXVtDSDJdT1tDQEhdMltDSF0oW0NIM10pW0NIM10=

> <s_epik_cmdline>
J2VwaWtfcHl0aG9uJywgJy1waCcsICc3LjAnLCAnLXRuJywgJzgnLCAnLW1hJywgJzIwMCcsICctbWV0YWxfYmluZGluZycsICctaW1hZScsICc8aW5maWxlLm1hZT4nLCAnLW9tYWUnLCAnPG91dGZpbGUubWFlPic=

> <r_epik_Ionization_Penalty>
2.12486

> <r_epik_Ionization_Penalty_Charging>
2.12486

> <r_epik_Ionization_Penalty_Neutral>
9.0873e-08

> <r_epik_State_Penalty>
2.26279

> <r_epik_Charging_Adjusted_Penalty>
4.38765

> <i_epik_Tot_Q>
1

> <i_epik_Tot_abs_Q>
1

> <r_epik_Metal_State_Penalty>
2.27914

> <b_epik_Metal_Only>
0

> <s_lp_Force_Field>
OPLS_2005

> <r_lp_Energy>
28.2902

> <b_lp_Chiralities_Consistent>
1

> <s_lp_Variant>
AV-unprocessed.smi:653-6

> <Gold.Version>
5.8.1

> <Gold.Id.Protein>
6NUR|6NUR_protein|mol2

> <Gold.PLP.Fitness>
43.0161

> <Gold.PLP.PLP>
-34.5876

> <Gold.PLP.part.hbond>
-2.0000

> <Gold.PLP.part.metal>
0.0000

> <Gold.PLP.part.buried>
-0.6382

> <Gold.PLP.part.nonpolar>
-32.9239

> <Gold.PLP.part.repulsive>
0.3617

> <Gold.PLP.ligand.clash>
0.0000

> <Gold.PLP.ligand.torsion>
0.3078

> <Gold.PLP.Chemscore.Hbond>
3.0000

> <Gold.PLP.Chemscore.CHOScore>
0.0000

> <Gold.PLP.Chemscore.Metal>
0.0000

> <Gold.Chemscore.Hbonds>
donor molecule, donor type, donor heavy atom, donor atom, acceptor molecule, acceptor atom, score
      L1  H     9    28       P1  7948  1.00
      L1  H    20    45       P1  8028  2.00

> <Gold.PLP.Chemscore.Internal.Correction>
0.0441

> <Gold.Rescore>
     Score         DG    S(hbond)    S(metal)    S(lipo)     H(rot)  DE(clash)    DE(int)     intcor
     16.33     -18.16       2.00        0.00      85.66       1.57       0.14       1.68       ----

> <Gold.Chemscore.Fitness>
16.3314

> <Gold.Chemscore.DG>
-18.1588

> <Gold.Chemscore.ZeroCoef>
-5.4800

> <Gold.Chemscore.Hbond>
1.9988

> <Gold.Chemscore.Metal>
0.0000

> <Gold.Chemscore.Lipo>
85.6607

> <Gold.Chemscore.Internal_Hbond>
0.0000

> <Gold.Chemscore.DEClash>
0.1441

> <Gold.Chemscore.DEInternal>
1.6833

> <Gold.Chemscore.Rot>
1.5701

> <Gold.Chemscore.Internal.Correction>
   9.000000E+99

> <Gold.Chemscore.Hbonds>
donor molecule, donor type, donor heavy atom, donor atom, acceptor molecule, acceptor atom, score
      L1  H     9    28       P1  7948  1.00
      L1  H    20    45       P1  8028  0.99

> <Gold.Chemscore.Hbond.Weighted>
-6.6761

> <Gold.Chemscore.Metal.Weighted>
-0.0000

> <Gold.Chemscore.Lipo.Weighted>
-10.0223

> <Gold.Chemscore.Internal_Hbond.Weighted>
0.0000

> <Gold.Chemscore.DEClash.Weighted>
0.1441

> <Gold.Chemscore.DEInternal.Weighted>
1.6833

> <Gold.Chemscore.Rot.Weighted>
4.0196

> <Gold.Chemscore.Internal.Correction.Weighted>
   9.000000E+99

> <Gold.Protein.RotatedTorsions>
[ 6907 6896 6895 6894 ] final   27.26 input  -60.11 | X-H torsion
[ 7974 7965 7964 7962 ] final   20.64 input  175.53 | X-H torsion
[ 8008 7997 7996 7995 ] final   85.32 input   59.86 | X-H torsion
[ 10167 10162 10161 10158 ] final   28.75 input  -65.29 | X-H torsion
[ 10718 10713 10712 10709 ] final -160.41 input   66.30 | X-H torsion
[ 10763 10752 10751 10750 ] final   81.47 input  -60.55 | X-H torsion
[ 11005 11000 10999 10996 ] final  -59.66 input  -57.11 | X-H torsion

> <Gold.Protein.ActiveResidues>
 VAL166  LYS551  ARG553  GLY616  TRP617  ASP618  TYR619  PRO620  LYS621  CYS622 
 ASP623  PHE694  ASN695  SER759  ASP760  ASP761  ALA762  ILE779  LEU786  VAL792 
 PHE793  MET794  SER795  GLU796  ALA797  LYS798  CYS799  TRP800  GLU811  SER814 

> <Gold.Protein.RotatedAtoms>
  151.9996  134.9935  160.0564 H   0  0  0  0  0  0  0  0  0  0  0  0  # atno 6907 bound_to 6896
  152.1532  133.4530  159.4832 H   0  0  0  0  0  0  0  0  0  0  0  0  # atno 6908 bound_to 6896
  150.6878  134.2082  159.4392 H   0  0  0  0  0  0  0  0  0  0  0  0  # atno 6909 bound_to 6896
  146.2103  139.8141  142.8694 H   0  0  0  0  0  0  0  0  0  0  0  0  # atno 7974 bound_to 7965
  155.9484  140.3403  155.6387 H   0  0  0  0  0  0  0  0  0  0  0  0  # atno 8008 bound_to 7997
  155.6951  140.0753  157.2451 H   0  0  0  0  0  0  0  0  0  0  0  0  # atno 8009 bound_to 7997
  154.4117  140.1650  156.2116 H   0  0  0  0  0  0  0  0  0  0  0  0  # atno 8010 bound_to 7997
  140.4826  144.0592  150.6270 H   0  0  0  0  0  0  0  0  0  0  0  0  # atno 10167 bound_to 10162
  156.5817  130.8732  151.2866 H   0  0  0  0  0  0  0  0  0  0  0  0  # atno 10718 bound_to 10713
  153.1120  135.4764  154.9051 H   0  0  0  0  0  0  0  0  0  0  0  0  # atno 10763 bound_to 10752
  154.7490  135.3101  154.8594 H   0  0  0  0  0  0  0  0  0  0  0  0  # atno 10764 bound_to 10752
  153.9181  135.6858  153.4802 H   0  0  0  0  0  0  0  0  0  0  0  0  # atno 10765 bound_to 10752
  141.1257  133.6617  156.5105 H   0  0  0  0  0  0  0  0  0  0  0  0  # atno 11005 bound_to 11000
  145.3165  141.0233  143.3525 LP  0  0  0  0  0  0  0  0  0  0  0  0  # atno 17320 bound_to 7965
  144.8898  139.4790  143.6683 LP  0  0  0  0  0  0  0  0  0  0  0  0  # atno 17321 bound_to 7965
  140.3839  143.2788  152.0139 LP  0  0  0  0  0  0  0  0  0  0  0  0  # atno 17342 bound_to 10162
  139.4836  144.6133  151.7394 LP  0  0  0  0  0  0  0  0  0  0  0  0  # atno 17343 bound_to 10162
  157.7325  130.9716  150.1931 LP  0  0  0  0  0  0  0  0  0  0  0  0  # atno 17370 bound_to 10713
  156.2626  130.3712  149.8115 LP  0  0  0  0  0  0  0  0  0  0  0  0  # atno 17371 bound_to 10713
  140.4373  134.7048  157.4973 LP  0  0  0  0  0  0  0  0  0  0  0  0  # atno 17394 bound_to 11000
  140.0253  134.6486  155.9182 LP  0  0  0  0  0  0  0  0  0  0  0  0  # atno 17395 bound_to 11000

$$$$
