AV-unprocessed.smi:2229|AV-procd|sdf|9031|dock3
  -GOLD-   2272012233D 1   1.00000     0.00000
 Structure written by MMmdl.
 43 44  0  0  0  0  0  0  0  0  2 V2000
  149.3071  141.2264  154.5384 C   0  0  0  0  0  0  0  0  0  0  0  0
  150.2053  141.5648  155.7378 C   0  0  0  0  0  0  0  0  0  0  0  0
  151.3280  140.5207  155.8739 C   0  0  0  0  0  0  0  0  0  0  0  0
  149.3665  141.6964  157.0258 C   0  0  0  0  0  0  0  0  0  0  0  0
  150.1877  142.0735  158.2712 C   0  0  0  0  0  0  0  0  0  0  0  0
  150.5433  143.5704  158.3359 C   0  0  2  0  0  0  0  0  0  0  0  0
  152.0157  143.8987  158.0766 C   0  0  0  0  0  0  0  0  0  0  0  0
  152.1756  145.3109  158.6336 C   0  0  0  0  0  0  0  0  0  0  0  0
  151.2767  145.3504  159.8738 C   0  0  0  0  0  0  0  0  0  0  0  0
  150.2413  144.2221  159.7008 C   0  0  1  0  0  0  0  0  0  0  0  0
  148.8779  144.7434  159.7343 N   0  0  0  0  0  0  0  0  0  0  0  0
  148.0489  144.6660  160.7863 C   0  0  0  0  0  0  0  0  0  0  0  0
  148.3891  144.2354  161.8889 O   0  0  0  0  0  0  0  0  0  0  0  0
  146.6162  145.1590  160.5561 C   0  0  0  0  0  0  0  0  0  0  0  0
  145.6142  144.2200  161.0676 N   0  0  0  0  0  0  0  0  0  0  0  0
  144.6076  144.5932  161.9222 C   0  0  0  0  0  0  0  0  0  0  0  0
  143.8608  143.5891  162.2126 N   0  0  0  0  0  0  0  0  0  0  0  0
  144.3997  142.4655  161.5083 N   0  5  0  0  0  0  0  0  0  0  0  0
  145.4748  142.9149  160.8239 C   0  0  0  0  0  0  0  0  0  0  0  0
  146.2303  142.2815  160.0873 O   0  0  0  0  0  0  0  0  0  0  0  0
  148.8072  140.2671  154.6763 H   0  0  0  0  0  0  0  0  0  0  0  0
  149.8860  141.1703  153.6161 H   0  0  0  0  0  0  0  0  0  0  0  0
  148.5376  141.9855  154.3950 H   0  0  0  0  0  0  0  0  0  0  0  0
  150.6674  142.5315  155.5326 H   0  0  0  0  0  0  0  0  0  0  0  0
  150.9283  139.5399  156.1336 H   0  0  0  0  0  0  0  0  0  0  0  0
  152.0511  140.7971  156.6405 H   0  0  0  0  0  0  0  0  0  0  0  0
  151.8801  140.4150  154.9398 H   0  0  0  0  0  0  0  0  0  0  0  0
  148.6022  142.4597  156.8755 H   0  0  0  0  0  0  0  0  0  0  0  0
  148.8300  140.7638  157.2052 H   0  0  0  0  0  0  0  0  0  0  0  0
  149.6162  141.8233  159.1635 H   0  0  0  0  0  0  0  0  0  0  0  0
  151.0958  141.4712  158.3135 H   0  0  0  0  0  0  0  0  0  0  0  0
  149.9614  144.0920  157.5731 H   0  0  0  0  0  0  0  0  0  0  0  0
  152.6587  143.2092  158.6257 H   0  0  0  0  0  0  0  0  0  0  0  0
  152.2810  143.8378  157.0207 H   0  0  0  0  0  0  0  0  0  0  0  0
  153.2133  145.5576  158.8596 H   0  0  0  0  0  0  0  0  0  0  0  0
  151.8157  146.0331  157.8996 H   0  0  0  0  0  0  0  0  0  0  0  0
  151.8704  145.1652  160.7696 H   0  0  0  0  0  0  0  0  0  0  0  0
  150.8193  146.3337  159.9933 H   0  0  0  0  0  0  0  0  0  0  0  0
  150.3998  143.4970  160.5016 H   0  0  0  0  0  0  0  0  0  0  0  0
  148.5135  145.1225  158.8725 H   0  0  0  0  0  0  0  0  0  0  0  0
  146.5087  146.1386  161.0243 H   0  0  0  0  0  0  0  0  0  0  0  0
  146.4399  145.3061  159.4891 H   0  0  0  0  0  0  0  0  0  0  0  0
  144.5278  145.6275  162.2607 H   0  0  0  0  0  0  0  0  0  0  0  0
  1  2  1  0  0  0  0
  1 21  1  0  0  0  0
  1 22  1  0  0  0  0
  1 23  1  0  0  0  0
  2  3  1  0  0  0  0
  2  4  1  0  0  0  0
  2 24  1  0  0  0  0
  3 25  1  0  0  0  0
  3 26  1  0  0  0  0
  3 27  1  0  0  0  0
  4  5  1  0  0  0  0
  4 28  1  0  0  0  0
  4 29  1  0  0  0  0
  5  6  1  0  0  0  0
  5 30  1  0  0  0  0
  5 31  1  0  0  0  0
  6 10  1  0  0  0  0
  6  7  1  0  0  0  0
  6 32  1  0  0  0  0
  7  8  1  0  0  0  0
  7 33  1  0  0  0  0
  7 34  1  0  0  0  0
  8  9  1  0  0  0  0
  8 35  1  0  0  0  0
  8 36  1  0  0  0  0
  9 10  1  0  0  0  0
  9 37  1  0  0  0  0
  9 38  1  0  0  0  0
 10 11  1  0  0  0  0
 10 39  1  0  0  0  0
 11 12  1  0  0  0  0
 11 40  1  0  0  0  0
 12 13  2  0  0  0  0
 12 14  1  0  0  0  0
 14 15  1  0  0  0  0
 14 41  1  0  0  0  0
 14 42  1  0  0  0  0
 15 19  1  0  0  0  0
 15 16  1  0  0  0  0
 16 17  2  0  0  0  0
 16 43  1  0  0  0  0
 17 18  1  0  0  0  0
 18 19  1  0  0  0  0
 19 20  2  0  0  0  0
M  CHG  1  18  -1
M  END
> <s_m_source_file>
AV-unprocessed.smi

> <i_m_source_file_index>
2229

> <i_lp_mmshare_version>
43012

> <i_f3d_flags>
0

> <s_epik_input>
W0NIM11bQ0hdKFtDSDNdKVtDSDJdW0NIMl1bQ0BASF0xW0NIMl1bQ0gyXVtDSDJdW0NASF0xW05IXUMoPU8pW0NIMl1uMltjSF1uW25IXWMyPU8=

> <s_epik_cmdline>
J2VwaWtfcHl0aG9uJywgJy1waCcsICc3LjAnLCAnLXRuJywgJzgnLCAnLW1hJywgJzIwMCcsICctbWV0YWxfYmluZGluZycsICctaW1hZScsICc8aW5maWxlLm1hZT4nLCAnLW9tYWUnLCAnPG91dGZpbGUubWFlPic=

> <r_lp_tautomer_probability>
1

> <r_epik_Ionization_Penalty>
13.6733

> <r_epik_Ionization_Penalty_Charging>
13.6725

> <r_epik_Ionization_Penalty_Neutral>
0.000837689

> <r_epik_State_Penalty>
5.67062

> <r_epik_Charging_Adjusted_Penalty>
19.3431

> <i_epik_Tot_Q>
-1

> <i_epik_Tot_abs_Q>
1

> <r_epik_Metal_State_Penalty>
1.61781

> <b_epik_Metal_Only>
1

> <s_lp_Force_Field>
OPLS_2005

> <r_lp_Energy>
25.828

> <b_lp_Chiralities_Consistent>
1

> <s_lp_Variant>
AV-unprocessed.smi:2229-5

> <Gold.Version>
5.8.1

> <Gold.Id.Protein>
6NUR|6NUR_protein|mol2

> <Gold.PLP.Fitness>
48.6048

> <Gold.PLP.PLP>
-42.8517

> <Gold.PLP.part.hbond>
-3.1533

> <Gold.PLP.part.metal>
0.0000

> <Gold.PLP.part.buried>
-4.9715

> <Gold.PLP.part.nonpolar>
-35.9613

> <Gold.PLP.part.repulsive>
0.9915

> <Gold.PLP.ligand.clash>
0.0000

> <Gold.PLP.ligand.torsion>
1.2212

> <Gold.PLP.Chemscore.Hbond>
2.7200

> <Gold.PLP.Chemscore.CHOScore>
0.0000

> <Gold.PLP.Chemscore.Metal>
0.0000

> <Gold.Chemscore.Hbonds>
donor molecule, donor type, donor heavy atom, donor atom, acceptor molecule, acceptor atom, score
      L1  H    11    40       P1  8029  1.00
      P1  H  6933  6944       L1    13  0.72
      P1  H  6934  6946       L1    20  1.00

> <Gold.PLP.Chemscore.Internal.Correction>
0.0355

> <Gold.Rescore>
     Score         DG    S(hbond)    S(metal)    S(lipo)     H(rot)  DE(clash)    DE(int)     intcor
     15.36     -17.91       2.62        0.00      88.23       2.59       0.10       2.44       ----

> <Gold.Chemscore.Fitness>
15.3646

> <Gold.Chemscore.DG>
-17.9068

> <Gold.Chemscore.ZeroCoef>
-5.4800

> <Gold.Chemscore.Hbond>
2.6181

> <Gold.Chemscore.Metal>
0.0000

> <Gold.Chemscore.Lipo>
88.2283

> <Gold.Chemscore.Internal_Hbond>
0.0000

> <Gold.Chemscore.DEClash>
0.1007

> <Gold.Chemscore.DEInternal>
2.4415

> <Gold.Chemscore.Rot>
2.5939

> <Gold.Chemscore.Internal.Correction>
   9.000000E+99

> <Gold.Chemscore.Hbonds>
donor molecule, donor type, donor heavy atom, donor atom, acceptor molecule, acceptor atom, score
      L1  H    11    40       P1  8029  1.00
      P1  H  6933  6944       L1    13  0.18
      P1  H  6934  6946       L1    20  0.94

> <Gold.Chemscore.Hbond.Weighted>
-8.7445

> <Gold.Chemscore.Metal.Weighted>
-0.0000

> <Gold.Chemscore.Lipo.Weighted>
-10.3227

> <Gold.Chemscore.Internal_Hbond.Weighted>
0.0000

> <Gold.Chemscore.DEClash.Weighted>
0.1007

> <Gold.Chemscore.DEInternal.Weighted>
2.4415

> <Gold.Chemscore.Rot.Weighted>
6.6405

> <Gold.Chemscore.Internal.Correction.Weighted>
   9.000000E+99

> <Gold.Protein.RotatedTorsions>
[ 6907 6896 6895 6894 ] final  175.77 input  -60.11 | X-H torsion
[ 7974 7965 7964 7962 ] final -136.46 input  175.53 | X-H torsion
[ 8008 7997 7996 7995 ] final  -81.05 input   59.86 | X-H torsion
[ 10167 10162 10161 10158 ] final   48.36 input  -65.29 | X-H torsion
[ 10718 10713 10712 10709 ] final  105.13 input   66.30 | X-H torsion
[ 10763 10752 10751 10750 ] final  -16.02 input  -60.55 | X-H torsion
[ 11005 11000 10999 10996 ] final -125.73 input  -57.11 | X-H torsion

> <Gold.Protein.ActiveResidues>
 VAL166  LYS551  ARG553  GLY616  TRP617  ASP618  TYR619  PRO620  LYS621  CYS622 
 ASP623  PHE694  ASN695  SER759  ASP760  ASP761  ALA762  ILE779  LEU786  VAL792 
 PHE793  MET794  SER795  GLU796  ALA797  LYS798  CYS799  TRP800  GLU811  SER814 

> <Gold.Protein.RotatedAtoms>
  151.7308  133.3317  159.3339 H   0  0  0  0  0  0  0  0  0  0  0  0  # atno 6907 bound_to 6896
  150.7613  134.6365  159.6223 H   0  0  0  0  0  0  0  0  0  0  0  0  # atno 6908 bound_to 6896
  152.3593  134.6898  160.0264 H   0  0  0  0  0  0  0  0  0  0  0  0  # atno 6909 bound_to 6896
  144.8925  140.6662  143.5136 H   0  0  0  0  0  0  0  0  0  0  0  0  # atno 7974 bound_to 7965
  154.5944  140.0653  156.9284 H   0  0  0  0  0  0  0  0  0  0  0  0  # atno 8008 bound_to 7997
  155.2239  140.3332  155.4294 H   0  0  0  0  0  0  0  0  0  0  0  0  # atno 8009 bound_to 7997
  156.2278  140.1827  156.7304 H   0  0  0  0  0  0  0  0  0  0  0  0  # atno 8010 bound_to 7997
  140.2941  144.3011  150.6234 H   0  0  0  0  0  0  0  0  0  0  0  0  # atno 10167 bound_to 10162
  157.6716  131.0820  150.5811 H   0  0  0  0  0  0  0  0  0  0  0  0  # atno 10718 bound_to 10713
  153.5522  135.7011  153.5586 H   0  0  0  0  0  0  0  0  0  0  0  0  # atno 10763 bound_to 10752
  153.3505  135.3996  155.1642 H   0  0  0  0  0  0  0  0  0  0  0  0  # atno 10764 bound_to 10752
  154.8659  135.3764  154.5034 H   0  0  0  0  0  0  0  0  0  0  0  0  # atno 10765 bound_to 10752
  140.9739  134.0768  157.3840 H   0  0  0  0  0  0  0  0  0  0  0  0  # atno 11005 bound_to 11000
  145.3757  139.1648  143.4308 LP  0  0  0  0  0  0  0  0  0  0  0  0  # atno 17320 bound_to 7965
  146.3062  140.3833  142.8686 LP  0  0  0  0  0  0  0  0  0  0  0  0  # atno 17321 bound_to 7965
  140.5707  143.2181  151.7604 LP  0  0  0  0  0  0  0  0  0  0  0  0  # atno 17342 bound_to 10162
  139.4931  144.4220  151.9967 LP  0  0  0  0  0  0  0  0  0  0  0  0  # atno 17343 bound_to 10162
  156.6112  130.4380  149.5858 LP  0  0  0  0  0  0  0  0  0  0  0  0  # atno 17370 bound_to 10713
  156.2429  130.6862  151.1573 LP  0  0  0  0  0  0  0  0  0  0  0  0  # atno 17371 bound_to 10713
  139.8923  135.0123  156.6837 LP  0  0  0  0  0  0  0  0  0  0  0  0  # atno 17394 bound_to 11000
  140.7288  133.9077  155.8197 LP  0  0  0  0  0  0  0  0  0  0  0  0  # atno 17395 bound_to 11000

$$$$
