AV-unprocessed.smi:839|AV-procd|sdf|3910|dock7
  -GOLD-   22720 1373D 1   1.00000     0.00000
 Structure written by MMmdl.
 47 49  0  0  0  0  0  0  0  0  1 V2000
  146.5676  139.4670  153.8324 O   0  0  0  0  0  0  0  0  0  0  0  0
  147.3749  138.7136  153.2886 C   0  0  0  0  0  0  0  0  0  0  0  0
  147.0354  137.8310  152.3376 N   0  0  0  0  0  0  0  0  0  0  0  0
  145.6904  137.6553  151.7922 C   0  0  0  0  0  0  0  0  0  0  0  0
  144.8698  136.5732  152.5186 C   0  0  0  0  0  0  0  0  0  0  0  0
  144.3713  136.8126  153.6202 O   0  0  0  0  0  0  0  0  0  0  0  0
  144.7125  135.3804  151.9079 N   0  0  0  0  0  0  0  0  0  0  0  0
  143.9670  134.2401  152.4403 C   0  0  0  0  0  0  0  0  0  0  0  0
  143.9163  133.2121  151.3093 C   0  0  0  0  0  0  0  0  0  0  0  0
  145.1255  133.5430  150.4458 C   0  0  0  0  0  0  0  0  0  0  0  0
  145.3011  135.0526  150.6108 C   0  0  0  0  0  0  0  0  0  0  0  0
  148.6885  138.6472  153.5656 N   0  0  0  0  0  0  0  0  0  0  0  0
  149.4426  139.4200  154.4901 C   0  0  0  0  0  0  0  0  0  0  0  0
  150.8403  139.3089  154.6745 C   0  0  0  0  0  0  0  0  0  0  0  0
  151.4678  140.1206  155.6389 C   0  0  0  0  0  0  0  0  0  0  0  0
  150.6871  141.0177  156.4053 C   0  0  0  0  0  0  0  0  0  0  0  0
  151.2973  141.8378  157.3796 N   0  0  0  0  0  0  0  0  0  0  0  0
  150.9997  143.2690  157.3560 C   0  0  0  0  0  0  0  0  0  0  0  0
  151.9590  144.0326  158.2847 C   0  0  0  0  0  0  0  0  0  0  0  0
  151.8975  143.4806  159.5953 O   0  0  0  0  0  0  0  0  0  0  0  0
  152.3002  142.1153  159.6128 C   0  0  0  0  0  0  0  0  0  0  0  0
  151.3564  141.2813  158.7292 C   0  0  0  0  0  0  0  0  0  0  0  0
  149.3468  141.1171  156.2287 N   0  0  0  0  0  0  0  0  0  0  0  0
  148.7491  140.3369  155.3043 C   0  0  0  0  0  0  0  0  0  0  0  0
  147.7621  137.2501  151.9460 H   0  0  0  0  0  0  0  0  0  0  0  0
  145.1694  138.6093  151.8766 H   0  0  0  0  0  0  0  0  0  0  0  0
  145.7523  137.4219  150.7282 H   0  0  0  0  0  0  0  0  0  0  0  0
  144.5009  133.8344  153.3007 H   0  0  0  0  0  0  0  0  0  0  0  0
  142.9610  134.5139  152.7595 H   0  0  0  0  0  0  0  0  0  0  0  0
  143.9243  132.1840  151.6723 H   0  0  0  0  0  0  0  0  0  0  0  0
  143.0043  133.3534  150.7276 H   0  0  0  0  0  0  0  0  0  0  0  0
  146.0044  133.0281  150.8363 H   0  0  0  0  0  0  0  0  0  0  0  0
  144.9978  133.2435  149.4051 H   0  0  0  0  0  0  0  0  0  0  0  0
  144.7607  135.5900  149.8300 H   0  0  0  0  0  0  0  0  0  0  0  0
  146.3531  135.3364  150.5524 H   0  0  0  0  0  0  0  0  0  0  0  0
  149.2055  137.9242  153.0868 H   0  0  0  0  0  0  0  0  0  0  0  0
  151.4425  138.6157  154.1088 H   0  0  0  0  0  0  0  0  0  0  0  0
  152.5372  140.0519  155.7705 H   0  0  0  0  0  0  0  0  0  0  0  0
  151.0944  143.6578  156.3413 H   0  0  0  0  0  0  0  0  0  0  0  0
  149.9680  143.4289  157.6725 H   0  0  0  0  0  0  0  0  0  0  0  0
  152.9821  143.9902  157.9076 H   0  0  0  0  0  0  0  0  0  0  0  0
  151.6799  145.0854  158.3289 H   0  0  0  0  0  0  0  0  0  0  0  0
  153.3329  142.0251  159.2719 H   0  0  0  0  0  0  0  0  0  0  0  0
  152.2714  141.7504  160.6394 H   0  0  0  0  0  0  0  0  0  0  0  0
  150.3514  141.2816  159.1531 H   0  0  0  0  0  0  0  0  0  0  0  0
  151.6977  140.2471  158.7261 H   0  0  0  0  0  0  0  0  0  0  0  0
  147.6792  140.4536  155.2103 H   0  0  0  0  0  0  0  0  0  0  0  0
  1  2  2  0  0  0  0
  2  3  1  0  0  0  0
  2 12  1  0  0  0  0
  3  4  1  0  0  0  0
  3 25  1  0  0  0  0
  4  5  1  0  0  0  0
  4 26  1  0  0  0  0
  4 27  1  0  0  0  0
  5  6  2  0  0  0  0
  5  7  1  0  0  0  0
  7 11  1  0  0  0  0
  7  8  1  0  0  0  0
  8  9  1  0  0  0  0
  8 28  1  0  0  0  0
  8 29  1  0  0  0  0
  9 10  1  0  0  0  0
  9 30  1  0  0  0  0
  9 31  1  0  0  0  0
 10 11  1  0  0  0  0
 10 32  1  0  0  0  0
 10 33  1  0  0  0  0
 11 34  1  0  0  0  0
 11 35  1  0  0  0  0
 12 13  1  0  0  0  0
 12 36  1  0  0  0  0
 13 24  1  0  0  0  0
 13 14  2  0  0  0  0
 14 15  1  0  0  0  0
 14 37  1  0  0  0  0
 15 16  2  0  0  0  0
 15 38  1  0  0  0  0
 16 17  1  0  0  0  0
 16 23  1  0  0  0  0
 17 22  1  0  0  0  0
 17 18  1  0  0  0  0
 18 19  1  0  0  0  0
 18 39  1  0  0  0  0
 18 40  1  0  0  0  0
 19 20  1  0  0  0  0
 19 41  1  0  0  0  0
 19 42  1  0  0  0  0
 20 21  1  0  0  0  0
 21 22  1  0  0  0  0
 21 43  1  0  0  0  0
 21 44  1  0  0  0  0
 22 45  1  0  0  0  0
 22 46  1  0  0  0  0
 23 24  2  0  0  0  0
 24 47  1  0  0  0  0
M  END
> <s_m_source_file>
AV-unprocessed.smi

> <i_m_source_file_index>
839

> <i_lp_mmshare_version>
43012

> <i_f3d_flags>
0

> <s_epik_input>
W0NIMl0xW0NIMl1bQ0gyXVtDSDJdTjFDKD1PKVtDSDJdW05IXUMoPU8pW05IXWMyW2NIXVtjSF1jKG5bY0hdMilOM1tDSDJdW0NIMl1PW0NIMl1bQ0gyXTM=

> <s_epik_cmdline>
J2VwaWtfcHl0aG9uJywgJy1waCcsICc3LjAnLCAnLXRuJywgJzgnLCAnLW1hJywgJzIwMCcsICctbWV0YWxfYmluZGluZycsICctaW1hZScsICc8aW5maWxlLm1hZT4nLCAnLW9tYWUnLCAnPG91dGZpbGUubWFlPic=

> <r_lp_tautomer_probability>
1

> <r_epik_Ionization_Penalty>
0.00586185

> <r_epik_Ionization_Penalty_Charging>
0

> <r_epik_Ionization_Penalty_Neutral>
0.00586185

> <r_epik_State_Penalty>
0.00428328

> <r_epik_Charging_Adjusted_Penalty>
0.00428328

> <i_epik_Tot_Q>
0

> <i_epik_Tot_abs_Q>
0

> <r_epik_Metal_State_Penalty>
-0

> <b_epik_Metal_Only>
0

> <s_lp_Force_Field>
OPLS_2005

> <r_lp_Energy>
41.3163

> <b_lp_Chiralities_Consistent>
1

> <s_lp_Variant>
AV-unprocessed.smi:839-1

> <Gold.Version>
5.8.1

> <Gold.Id.Protein>
6NUR|6NUR_protein|mol2

> <Gold.PLP.Fitness>
47.1129

> <Gold.PLP.PLP>
-42.7303

> <Gold.PLP.part.hbond>
-3.0000

> <Gold.PLP.part.metal>
0.0000

> <Gold.PLP.part.buried>
-3.1508

> <Gold.PLP.part.nonpolar>
-38.4469

> <Gold.PLP.part.repulsive>
0.4820

> <Gold.PLP.ligand.clash>
0.0000

> <Gold.PLP.ligand.torsion>
0.8604

> <Gold.PLP.Chemscore.Hbond>
1.9204

> <Gold.PLP.Chemscore.CHOScore>
0.0000

> <Gold.PLP.Chemscore.Metal>
0.0000

> <Gold.Chemscore.Hbonds>
donor molecule, donor type, donor heavy atom, donor atom, acceptor molecule, acceptor atom, score
      L1  H     3    25       P1  7948  1.00
      L1  H    12    36       P1  7948  0.77

> <Gold.PLP.Chemscore.Internal.Correction>
0.3422

> <Gold.Rescore>
     Score         DG    S(hbond)    S(metal)    S(lipo)     H(rot)  DE(clash)    DE(int)     intcor
     16.22     -19.49       1.89        0.00      98.59       1.50       1.01       2.27       ----

> <Gold.Chemscore.Fitness>
16.2180

> <Gold.Chemscore.DG>
-19.4946

> <Gold.Chemscore.ZeroCoef>
-5.4800

> <Gold.Chemscore.Hbond>
1.8923

> <Gold.Chemscore.Metal>
0.0000

> <Gold.Chemscore.Lipo>
98.5852

> <Gold.Chemscore.Internal_Hbond>
0.0000

> <Gold.Chemscore.DEClash>
1.0103

> <Gold.Chemscore.DEInternal>
2.2663

> <Gold.Chemscore.Rot>
1.5001

> <Gold.Chemscore.Internal.Correction>
   9.000000E+99

> <Gold.Chemscore.Hbonds>
donor molecule, donor type, donor heavy atom, donor atom, acceptor molecule, acceptor atom, score
      L1  H     3    25       P1  7948  0.94
      L1  H    12    36       P1  7948  0.72

> <Gold.Chemscore.Hbond.Weighted>
-6.3203

> <Gold.Chemscore.Metal.Weighted>
-0.0000

> <Gold.Chemscore.Lipo.Weighted>
-11.5345

> <Gold.Chemscore.Internal_Hbond.Weighted>
0.0000

> <Gold.Chemscore.DEClash.Weighted>
1.0103

> <Gold.Chemscore.DEInternal.Weighted>
2.2663

> <Gold.Chemscore.Rot.Weighted>
3.8402

> <Gold.Chemscore.Internal.Correction.Weighted>
   9.000000E+99

> <Gold.Protein.RotatedTorsions>
[ 6907 6896 6895 6894 ] final -179.70 input  -60.11 | X-H torsion
[ 7974 7965 7964 7962 ] final  -22.73 input  175.53 | X-H torsion
[ 8008 7997 7996 7995 ] final  105.25 input   59.86 | X-H torsion
[ 10167 10162 10161 10158 ] final   19.12 input  -65.29 | X-H torsion
[ 10718 10713 10712 10709 ] final  -87.79 input   66.30 | X-H torsion
[ 10763 10752 10751 10750 ] final -172.76 input  -60.55 | X-H torsion
[ 11005 11000 10999 10996 ] final  170.75 input  -57.11 | X-H torsion

> <Gold.Protein.ActiveResidues>
 VAL166  LYS551  ARG553  GLY616  TRP617  ASP618  TYR619  PRO620  LYS621  CYS622 
 ASP623  PHE694  ASN695  SER759  ASP760  ASP761  ALA762  ILE779  LEU786  VAL792 
 PHE793  MET794  SER795  GLU796  ALA797  LYS798  CYS799  TRP800  GLU811  SER814 

> <Gold.Protein.RotatedAtoms>
  151.6577  133.3318  159.3166 H   0  0  0  0  0  0  0  0  0  0  0  0  # atno 6907 bound_to 6896
  150.7929  134.6970  159.6538 H   0  0  0  0  0  0  0  0  0  0  0  0  # atno 6908 bound_to 6896
  152.4011  134.6288  160.0121 H   0  0  0  0  0  0  0  0  0  0  0  0  # atno 6909 bound_to 6896
  146.1658  140.4519  142.8552 H   0  0  0  0  0  0  0  0  0  0  0  0  # atno 7974 bound_to 7965
  156.1643  140.3133  155.8861 H   0  0  0  0  0  0  0  0  0  0  0  0  # atno 8008 bound_to 7997
  155.3718  140.0482  157.3062 H   0  0  0  0  0  0  0  0  0  0  0  0  # atno 8009 bound_to 7997
  154.5177  140.2187  155.9045 H   0  0  0  0  0  0  0  0  0  0  0  0  # atno 8010 bound_to 7997
  140.5603  143.9350  150.6638 H   0  0  0  0  0  0  0  0  0  0  0  0  # atno 10167 bound_to 10162
  155.9984  130.4812  150.4920 H   0  0  0  0  0  0  0  0  0  0  0  0  # atno 10718 bound_to 10713
  154.6156  135.2869  155.0384 H   0  0  0  0  0  0  0  0  0  0  0  0  # atno 10763 bound_to 10752
  154.1598  135.6490  153.4987 H   0  0  0  0  0  0  0  0  0  0  0  0  # atno 10764 bound_to 10752
  153.0213  135.5375  154.6926 H   0  0  0  0  0  0  0  0  0  0  0  0  # atno 10765 bound_to 10752
  140.3117  134.7511  157.3996 H   0  0  0  0  0  0  0  0  0  0  0  0  # atno 11005 bound_to 11000
  144.8091  140.6353  143.6427 LP  0  0  0  0  0  0  0  0  0  0  0  0  # atno 17320 bound_to 7965
  145.4470  139.1528  143.3939 LP  0  0  0  0  0  0  0  0  0  0  0  0  # atno 17321 bound_to 7965
  140.2799  143.3397  152.1161 LP  0  0  0  0  0  0  0  0  0  0  0  0  # atno 17342 bound_to 10162
  139.5067  144.6818  151.5989 LP  0  0  0  0  0  0  0  0  0  0  0  0  # atno 17343 bound_to 10162
  157.2914  131.0627  151.2131 LP  0  0  0  0  0  0  0  0  0  0  0  0  # atno 17370 bound_to 10713
  157.3143  130.6905  149.6233 LP  0  0  0  0  0  0  0  0  0  0  0  0  # atno 17371 bound_to 10713
  140.1019  134.5461  155.8345 LP  0  0  0  0  0  0  0  0  0  0  0  0  # atno 17394 bound_to 11000
  141.2107  133.6697  156.6526 LP  0  0  0  0  0  0  0  0  0  0  0  0  # atno 17395 bound_to 11000

$$$$
