AV-unprocessed.smi:671|AV-procd|sdf|3278|dock7
  -GOLD-   22720 0233D 1   1.00000     0.00000
 Structure written by MMmdl.
 49 50  0  0  0  0  0  0  0  0  1 V2000
  148.3771  137.8195  157.1860 C   0  0  0  0  0  0  0  0  0  0  0  0
  147.9216  139.0466  156.4489 C   0  0  0  0  0  0  0  0  0  0  0  0
  146.7100  139.5188  156.6885 N   0  0  0  0  0  0  0  0  0  0  0  0
  146.5956  140.5985  155.8906 N   0  0  0  0  0  0  0  0  0  0  0  0
  145.3654  141.3660  155.9062 C   0  0  0  0  0  0  0  0  0  0  0  0
  147.7374  140.8091  155.1431 C   0  0  0  0  0  0  0  0  0  0  0  0
  147.8562  141.9457  154.1790 C   0  0  0  0  0  0  0  0  0  0  0  0
  148.6230  139.8187  155.4744 C   0  0  0  0  0  0  0  0  0  0  0  0
  150.0152  139.5976  154.9359 C   0  0  0  0  0  0  0  0  0  0  0  0
  151.0459  139.3261  156.0497 C   0  0  1  0  0  0  0  0  0  0  0  0
  152.3850  138.8472  155.4724 C   0  0  0  0  0  0  0  0  0  0  0  0
  151.2761  140.5393  156.8415 N   0  0  0  0  0  0  0  0  0  0  0  0
  152.2369  140.8055  157.7450 C   0  0  0  0  0  0  0  0  0  0  0  0
  153.1074  139.9816  158.0191 O   0  0  0  0  0  0  0  0  0  0  0  0
  152.1736  142.0247  158.3044 N   0  0  0  0  0  0  0  0  0  0  0  0
  153.0886  142.5281  159.3290 C   0  0  2  0  0  0  0  0  0  0  0  0
  153.0106  141.6662  160.6086 C   0  0  0  0  0  0  0  0  0  0  0  0
  152.5402  142.5913  161.7372 C   0  0  0  0  0  0  0  0  0  0  0  0
  151.8912  143.7811  161.0348 C   0  0  0  0  0  0  0  0  0  0  0  0
  152.7358  143.9641  159.7735 C   0  0  2  0  0  0  0  0  0  0  0  0
  152.0882  144.8699  158.7147 C   0  0  0  0  0  0  0  0  0  0  0  0
  147.9018  136.9251  156.7828 H   0  0  0  0  0  0  0  0  0  0  0  0
  148.1279  137.8799  158.2459 H   0  0  0  0  0  0  0  0  0  0  0  0
  149.4555  137.6824  157.1104 H   0  0  0  0  0  0  0  0  0  0  0  0
  145.0328  141.5516  154.8847 H   0  0  0  0  0  0  0  0  0  0  0  0
  145.5369  142.3200  156.4050 H   0  0  0  0  0  0  0  0  0  0  0  0
  144.5806  140.8234  156.4350 H   0  0  0  0  0  0  0  0  0  0  0  0
  148.8325  141.9566  153.6949 H   0  0  0  0  0  0  0  0  0  0  0  0
  147.7248  142.9004  154.6885 H   0  0  0  0  0  0  0  0  0  0  0  0
  147.1000  141.8732  153.3975 H   0  0  0  0  0  0  0  0  0  0  0  0
  150.0136  138.7557  154.2432 H   0  0  0  0  0  0  0  0  0  0  0  0
  150.3417  140.4483  154.3371 H   0  0  0  0  0  0  0  0  0  0  0  0
  150.6671  138.5104  156.6667 H   0  0  0  0  0  0  0  0  0  0  0  0
  152.2592  137.9294  154.8972 H   0  0  0  0  0  0  0  0  0  0  0  0
  153.1028  138.6396  156.2669 H   0  0  0  0  0  0  0  0  0  0  0  0
  152.8250  139.5960  154.8127 H   0  0  0  0  0  0  0  0  0  0  0  0
  150.6366  141.2975  156.6522 H   0  0  0  0  0  0  0  0  0  0  0  0
  151.4330  142.6444  158.0106 H   0  0  0  0  0  0  0  0  0  0  0  0
  154.1040  142.5236  158.9275 H   0  0  0  0  0  0  0  0  0  0  0  0
  152.3054  140.8422  160.4891 H   0  0  0  0  0  0  0  0  0  0  0  0
  153.9770  141.2215  160.8480 H   0  0  0  0  0  0  0  0  0  0  0  0
  151.8604  142.0939  162.4295 H   0  0  0  0  0  0  0  0  0  0  0  0
  153.4025  142.9340  162.3109 H   0  0  0  0  0  0  0  0  0  0  0  0
  150.8624  143.5358  160.7669 H   0  0  0  0  0  0  0  0  0  0  0  0
  151.8707  144.6743  161.6601 H   0  0  0  0  0  0  0  0  0  0  0  0
  153.6687  144.4398  160.0808 H   0  0  0  0  0  0  0  0  0  0  0  0
  151.1114  144.4967  158.4083 H   0  0  0  0  0  0  0  0  0  0  0  0
  152.7180  144.9396  157.8279 H   0  0  0  0  0  0  0  0  0  0  0  0
  151.9464  145.8799  159.0995 H   0  0  0  0  0  0  0  0  0  0  0  0
  1  2  1  0  0  0  0
  1 22  1  0  0  0  0
  1 23  1  0  0  0  0
  1 24  1  0  0  0  0
  2  8  1  0  0  0  0
  2  3  2  0  0  0  0
  3  4  1  0  0  0  0
  4  5  1  0  0  0  0
  4  6  1  0  0  0  0
  5 25  1  0  0  0  0
  5 26  1  0  0  0  0
  5 27  1  0  0  0  0
  6  7  1  0  0  0  0
  6  8  2  0  0  0  0
  7 28  1  0  0  0  0
  7 29  1  0  0  0  0
  7 30  1  0  0  0  0
  8  9  1  0  0  0  0
  9 10  1  0  0  0  0
  9 31  1  0  0  0  0
  9 32  1  0  0  0  0
 10 11  1  0  0  0  0
 10 12  1  0  0  0  0
 10 33  1  0  0  0  0
 11 34  1  0  0  0  0
 11 35  1  0  0  0  0
 11 36  1  0  0  0  0
 12 13  1  0  0  0  0
 12 37  1  0  0  0  0
 13 14  2  0  0  0  0
 13 15  1  0  0  0  0
 15 16  1  0  0  0  0
 15 38  1  0  0  0  0
 16 20  1  0  0  0  0
 16 17  1  0  0  0  0
 16 39  1  0  0  0  0
 17 18  1  0  0  0  0
 17 40  1  0  0  0  0
 17 41  1  0  0  0  0
 18 19  1  0  0  0  0
 18 42  1  0  0  0  0
 18 43  1  0  0  0  0
 19 20  1  0  0  0  0
 19 44  1  0  0  0  0
 19 45  1  0  0  0  0
 20 21  1  0  0  0  0
 20 46  1  0  0  0  0
 21 47  1  0  0  0  0
 21 48  1  0  0  0  0
 21 49  1  0  0  0  0
M  END
> <s_m_source_file>
AV-unprocessed.smi

> <i_m_source_file_index>
671

> <i_lp_mmshare_version>
43012

> <i_f3d_flags>
0

> <s_epik_input>
W0NIM11jMW5uKFtDSDNdKWMoW0NIM10pYzFbQ0gyXVtDQEhdKFtDSDNdKVtOSF1DKD1PKVtOSF1bQ0BASF0yW0NIMl1bQ0gyXVtDSDJdW0NASF0yW0NIM10=

> <s_epik_cmdline>
J2VwaWtfcHl0aG9uJywgJy1waCcsICc3LjAnLCAnLXRuJywgJzgnLCAnLW1hJywgJzIwMCcsICctbWV0YWxfYmluZGluZycsICctaW1hZScsICc8aW5maWxlLm1hZT4nLCAnLW9tYWUnLCAnPG91dGZpbGUubWFlPic=

> <r_lp_tautomer_probability>
1

> <r_epik_Ionization_Penalty>
0.0126855

> <r_epik_Ionization_Penalty_Charging>
0

> <r_epik_Ionization_Penalty_Neutral>
0.0126855

> <r_epik_State_Penalty>
0.00977547

> <r_epik_Charging_Adjusted_Penalty>
0.00977547

> <i_epik_Tot_Q>
0

> <i_epik_Tot_abs_Q>
0

> <r_epik_Metal_State_Penalty>
0.00957132

> <b_epik_Metal_Only>
0

> <s_lp_Force_Field>
OPLS_2005

> <r_lp_Energy>
22.0359

> <b_lp_Chiralities_Consistent>
1

> <s_lp_Variant>
AV-unprocessed.smi:671-6

> <Gold.Version>
5.8.1

> <Gold.Id.Protein>
6NUR|6NUR_protein|mol2

> <Gold.PLP.Fitness>
41.8953

> <Gold.PLP.PLP>
-39.6110

> <Gold.PLP.part.hbond>
-1.0000

> <Gold.PLP.part.metal>
0.0000

> <Gold.PLP.part.buried>
-3.2293

> <Gold.PLP.part.nonpolar>
-34.0114

> <Gold.PLP.part.repulsive>
0.1704

> <Gold.PLP.ligand.clash>
0.0000

> <Gold.PLP.ligand.torsion>
0.3684

> <Gold.PLP.Chemscore.Hbond>
1.0000

> <Gold.PLP.Chemscore.CHOScore>
0.0000

> <Gold.PLP.Chemscore.Metal>
0.0000

> <Gold.Chemscore.Hbonds>
donor molecule, donor type, donor heavy atom, donor atom, acceptor molecule, acceptor atom, score
      P1  H  7997  8008       L1    14  1.00

> <Gold.PLP.Chemscore.Internal.Correction>
0.0211

> <Gold.Rescore>
     Score         DG    S(hbond)    S(metal)    S(lipo)     H(rot)  DE(clash)    DE(int)     intcor
     16.22     -18.18       0.94        0.00     113.48       1.45       0.23       1.74       ----

> <Gold.Chemscore.Fitness>
16.2186

> <Gold.Chemscore.DG>
-18.1847

> <Gold.Chemscore.ZeroCoef>
-5.4800

> <Gold.Chemscore.Hbond>
0.9401

> <Gold.Chemscore.Metal>
0.0000

> <Gold.Chemscore.Lipo>
113.4761

> <Gold.Chemscore.Internal_Hbond>
0.0000

> <Gold.Chemscore.DEClash>
0.2286

> <Gold.Chemscore.DEInternal>
1.7375

> <Gold.Chemscore.Rot>
1.4499

> <Gold.Chemscore.Internal.Correction>
   9.000000E+99

> <Gold.Chemscore.Hbonds>
donor molecule, donor type, donor heavy atom, donor atom, acceptor molecule, acceptor atom, score
      P1  H  7997  8008       L1    14  0.84

> <Gold.Chemscore.Hbond.Weighted>
-3.1399

> <Gold.Chemscore.Metal.Weighted>
-0.0000

> <Gold.Chemscore.Lipo.Weighted>
-13.2767

> <Gold.Chemscore.Internal_Hbond.Weighted>
0.0000

> <Gold.Chemscore.DEClash.Weighted>
0.2286

> <Gold.Chemscore.DEInternal.Weighted>
1.7375

> <Gold.Chemscore.Rot.Weighted>
3.7118

> <Gold.Chemscore.Internal.Correction.Weighted>
   9.000000E+99

> <Gold.Protein.RotatedTorsions>
[ 6907 6896 6895 6894 ] final  114.05 input  -60.11 | X-H torsion
[ 7974 7965 7964 7962 ] final  158.36 input  175.53 | X-H torsion
[ 8008 7997 7996 7995 ] final  -78.32 input   59.86 | X-H torsion
[ 10167 10162 10161 10158 ] final  168.99 input  -65.29 | X-H torsion
[ 10718 10713 10712 10709 ] final  104.02 input   66.30 | X-H torsion
[ 10763 10752 10751 10750 ] final  103.52 input  -60.55 | X-H torsion
[ 11005 11000 10999 10996 ] final  171.92 input  -57.11 | X-H torsion

> <Gold.Protein.ActiveResidues>
 VAL166  LYS551  ARG553  GLY616  TRP617  ASP618  TYR619  PRO620  LYS621  CYS622 
 ASP623  PHE694  ASN695  SER759  ASP760  ASP761  ALA762  ILE779  LEU786  VAL792 
 PHE793  MET794  SER795  GLU796  ALA797  LYS798  CYS799  TRP800  GLU811  SER814 

> <Gold.Protein.RotatedAtoms>
  152.4825  133.8290  159.7093 H   0  0  0  0  0  0  0  0  0  0  0  0  # atno 6907 bound_to 6896
  150.8886  133.7264  159.2918 H   0  0  0  0  0  0  0  0  0  0  0  0  # atno 6908 bound_to 6896
  151.4745  135.1052  159.9813 H   0  0  0  0  0  0  0  0  0  0  0  0  # atno 6909 bound_to 6896
  144.7850  139.7468  143.6244 H   0  0  0  0  0  0  0  0  0  0  0  0  # atno 7974 bound_to 7965
  154.5678  140.0696  156.8918 H   0  0  0  0  0  0  0  0  0  0  0  0  # atno 8008 bound_to 7997
  155.2691  140.3364  155.4248 H   0  0  0  0  0  0  0  0  0  0  0  0  # atno 8009 bound_to 7997
  156.2094  140.1753  156.7713 H   0  0  0  0  0  0  0  0  0  0  0  0  # atno 8010 bound_to 7997
  139.4981  144.3755  151.9679 H   0  0  0  0  0  0  0  0  0  0  0  0  # atno 10167 bound_to 10162
  157.6754  131.0793  150.5644 H   0  0  0  0  0  0  0  0  0  0  0  0  # atno 10718 bound_to 10713
  153.3538  135.3974  155.1666 H   0  0  0  0  0  0  0  0  0  0  0  0  # atno 10763 bound_to 10752
  154.8667  135.3663  154.5188 H   0  0  0  0  0  0  0  0  0  0  0  0  # atno 10764 bound_to 10752
  153.5641  135.7080  153.5594 H   0  0  0  0  0  0  0  0  0  0  0  0  # atno 10765 bound_to 10752
  140.3242  134.7412  157.4086 H   0  0  0  0  0  0  0  0  0  0  0  0  # atno 11005 bound_to 11000
  146.2077  139.5413  142.9701 LP  0  0  0  0  0  0  0  0  0  0  0  0  # atno 17320 bound_to 7965
  145.5946  141.0364  143.2051 LP  0  0  0  0  0  0  0  0  0  0  0  0  # atno 17321 bound_to 7965
  140.3191  144.3449  150.6014 LP  0  0  0  0  0  0  0  0  0  0  0  0  # atno 17342 bound_to 10162
  140.5737  143.2178  151.7553 LP  0  0  0  0  0  0  0  0  0  0  0  0  # atno 17343 bound_to 10162
  156.5946  130.4338  149.5922 LP  0  0  0  0  0  0  0  0  0  0  0  0  # atno 17370 bound_to 10713
  156.2556  130.6932  151.1684 LP  0  0  0  0  0  0  0  0  0  0  0  0  # atno 17371 bound_to 10713
  140.0916  134.5593  155.8439 LP  0  0  0  0  0  0  0  0  0  0  0  0  # atno 17394 bound_to 11000
  141.2079  133.6669  156.6337 LP  0  0  0  0  0  0  0  0  0  0  0  0  # atno 17395 bound_to 11000

$$$$
