AV-unprocessed.smi:2886|AV-procd|sdf|11091|dock1
  -GOLD-   2272015563D 1   1.00000     0.00000
 Structure written by MMmdl.
 28 30  0  0  0  0  0  0  0  0  3 V2000
  151.9991  137.9682  154.5064 O   0  0  0  0  0  0  0  0  0  0  0  0
  151.5388  138.9933  155.0050 C   0  0  0  0  0  0  0  0  0  0  0  0
  150.5645  139.7436  154.4092 N   0  5  0  0  0  0  0  0  0  0  0  0
  150.0904  140.8359  154.9658 N   0  3  0  0  0  0  0  0  0  0  0  0
  150.5059  141.3047  156.1382 C   0  0  0  0  0  0  0  0  0  0  0  0
  151.5137  140.6136  156.8672 C   0  0  0  0  0  0  0  0  0  0  0  0
  151.9813  141.0667  158.0944 N   0  0  0  0  0  0  0  0  0  0  0  0
  151.5768  142.2495  158.8420 C   0  0  2  0  0  0  0  0  0  0  0  0
  151.6409  143.5281  158.0027 C   0  0  0  0  0  0  0  0  0  0  0  0
  152.5625  144.4128  158.8519 C   0  0  1  0  0  0  0  0  0  0  0  0
  151.9018  144.8492  160.1675 C   0  0  0  0  0  0  0  0  0  0  0  0
  151.9380  143.5553  160.9807 C   0  0  0  0  0  0  0  0  0  0  0  0
  152.5588  142.5713  159.9802 C   0  0  2  0  0  0  0  0  0  0  0  0
  153.4732  143.4366  159.3259 O   0  0  0  0  0  0  0  0  0  0  0  0
  152.0270  139.4796  156.3089 C   0  0  0  0  0  0  0  0  0  0  0  0
  153.2621  138.5725  157.1177 Cl  0  0  0  0  0  0  0  0  0  0  0  0
  149.3585  141.3900  154.4941 H   0  0  0  0  0  0  0  0  0  0  0  0
  150.0479  142.2195  156.4922 H   0  0  0  0  0  0  0  0  0  0  0  0
  152.5721  140.4305  158.6117 H   0  0  0  0  0  0  0  0  0  0  0  0
  150.5813  142.1013  159.2605 H   0  0  0  0  0  0  0  0  0  0  0  0
  152.0902  143.3436  157.0255 H   0  0  0  0  0  0  0  0  0  0  0  0
  150.6600  143.9773  157.8446 H   0  0  0  0  0  0  0  0  0  0  0  0
  153.0266  145.2283  158.2966 H   0  0  0  0  0  0  0  0  0  0  0  0
  152.4874  145.6267  160.6597 H   0  0  0  0  0  0  0  0  0  0  0  0
  150.8898  145.2264  160.0162 H   0  0  0  0  0  0  0  0  0  0  0  0
  152.5804  143.6717  161.8542 H   0  0  0  0  0  0  0  0  0  0  0  0
  150.9519  143.2394  161.3224 H   0  0  0  0  0  0  0  0  0  0  0  0
  153.0125  141.6973  160.4494 H   0  0  0  0  0  0  0  0  0  0  0  0
  1  2  2  0  0  0  0
  2  3  1  0  0  0  0
  2 15  1  0  0  0  0
  3  4  1  0  0  0  0
  4  5  2  0  0  0  0
  4 17  1  0  0  0  0
  5  6  1  0  0  0  0
  5 18  1  0  0  0  0
  6 15  2  0  0  0  0
  6  7  1  0  0  0  0
  7  8  1  0  0  0  0
  7 19  1  0  0  0  0
  8 13  1  0  0  0  0
  8  9  1  0  0  0  0
  8 20  1  0  0  0  0
  9 10  1  0  0  0  0
  9 21  1  0  0  0  0
  9 22  1  0  0  0  0
 10 14  1  0  0  0  0
 10 11  1  0  0  0  0
 10 23  1  0  0  0  0
 11 12  1  0  0  0  0
 11 24  1  0  0  0  0
 11 25  1  0  0  0  0
 12 13  1  0  0  0  0
 12 26  1  0  0  0  0
 12 27  1  0  0  0  0
 13 14  1  0  0  0  0
 13 28  1  0  0  0  0
 15 16  1  0  0  0  0
M  CHG  1   3  -1
M  CHG  1   4   1
M  END
> <s_m_source_file>
AV-unprocessed.smi

> <i_m_source_file_index>
2886

> <i_lp_mmshare_version>
43012

> <i_f3d_flags>
0

> <s_epik_input>
Tz1jMVtuSF1uW2NIXWMoYzFDbClbTkhdW0NASF0oW0NIMl1bQ0BASF0yMylbQ0BASF0oTzMpW0NIMl1bQ0gyXTI=

> <s_epik_cmdline>
J2VwaWtfcHl0aG9uJywgJy1waCcsICc3LjAnLCAnLXRuJywgJzgnLCAnLW1hJywgJzIwMCcsICctbWV0YWxfYmluZGluZycsICctaW1hZScsICc8aW5maWxlLm1hZT4nLCAnLW9tYWUnLCAnPG91dGZpbGUubWFlPic=

> <r_lp_tautomer_probability>
0.0138196

> <r_epik_Ionization_Penalty>
2.43027

> <r_epik_Ionization_Penalty_Charging>
2.43027

> <r_epik_Ionization_Penalty_Neutral>
1.33267e-06

> <r_epik_State_Penalty>
2.7044

> <r_epik_Charging_Adjusted_Penalty>
5.13467

> <i_epik_Tot_Q>
0

> <i_epik_Tot_abs_Q>
2

> <r_epik_Metal_State_Penalty>
2.98589

> <b_epik_Metal_Only>
0

> <s_lp_Force_Field>
OPLS_2005

> <r_lp_Energy>
57.4961

> <b_lp_Chiralities_Consistent>
1

> <s_lp_Variant>
AV-unprocessed.smi:2886-5

> <Gold.Version>
5.8.1

> <Gold.Id.Protein>
6NUR|6NUR_protein|mol2

> <Gold.PLP.Fitness>
34.4291

> <Gold.PLP.PLP>
-33.8767

> <Gold.PLP.part.hbond>
-1.0363

> <Gold.PLP.part.metal>
0.0000

> <Gold.PLP.part.buried>
-4.0753

> <Gold.PLP.part.nonpolar>
-30.2646

> <Gold.PLP.part.repulsive>
1.6879

> <Gold.PLP.ligand.clash>
0.0000

> <Gold.PLP.ligand.torsion>
0.1081

> <Gold.PLP.Chemscore.Hbond>
0.2500

> <Gold.PLP.Chemscore.CHOScore>
0.0000

> <Gold.PLP.Chemscore.Metal>
0.0000

> <Gold.Chemscore.Hbonds>
donor molecule, donor type, donor heavy atom, donor atom, acceptor molecule, acceptor atom, score
      P1  H  7989  7998       L1     3  0.23

> <Gold.PLP.Chemscore.Internal.Correction>
0.0187

> <Gold.Rescore>
     Score         DG    S(hbond)    S(metal)    S(lipo)     H(rot)  DE(clash)    DE(int)     intcor
     15.00     -15.10       0.39        0.00      93.09       1.00       0.03       0.08       ----

> <Gold.Chemscore.Fitness>
14.9965

> <Gold.Chemscore.DG>
-15.1034

> <Gold.Chemscore.ZeroCoef>
-5.4800

> <Gold.Chemscore.Hbond>
0.3869

> <Gold.Chemscore.Metal>
0.0000

> <Gold.Chemscore.Lipo>
93.0853

> <Gold.Chemscore.Internal_Hbond>
0.0000

> <Gold.Chemscore.DEClash>
0.0272

> <Gold.Chemscore.DEInternal>
0.0796

> <Gold.Chemscore.Rot>
1.0000

> <Gold.Chemscore.Internal.Correction>
   9.000000E+99

> <Gold.Chemscore.Hbond.Weighted>
-1.2924

> <Gold.Chemscore.Metal.Weighted>
-0.0000

> <Gold.Chemscore.Lipo.Weighted>
-10.8910

> <Gold.Chemscore.Internal_Hbond.Weighted>
0.0000

> <Gold.Chemscore.DEClash.Weighted>
0.0272

> <Gold.Chemscore.DEInternal.Weighted>
0.0796

> <Gold.Chemscore.Rot.Weighted>
2.5600

> <Gold.Chemscore.Internal.Correction.Weighted>
   9.000000E+99

> <Gold.Protein.RotatedTorsions>
[ 6907 6896 6895 6894 ] final -156.83 input  -60.11 | X-H torsion
[ 7974 7965 7964 7962 ] final  -32.07 input  175.53 | X-H torsion
[ 8008 7997 7996 7995 ] final   90.83 input   59.86 | X-H torsion
[ 10167 10162 10161 10158 ] final  106.39 input  -65.29 | X-H torsion
[ 10718 10713 10712 10709 ] final -146.34 input   66.30 | X-H torsion
[ 10763 10752 10751 10750 ] final  140.00 input  -60.55 | X-H torsion
[ 11005 11000 10999 10996 ] final   -2.29 input  -57.11 | X-H torsion

> <Gold.Protein.ActiveResidues>
 VAL166  LYS551  ARG553  GLY616  TRP617  ASP618  TYR619  PRO620  LYS621  CYS622 
 ASP623  PHE694  ASN695  SER759  ASP760  ASP761  ALA762  ILE779  LEU786  VAL792 
 PHE793  MET794  SER795  GLU796  ALA797  LYS798  CYS799  TRP800  GLU811  SER814 

> <Gold.Protein.RotatedAtoms>
  151.2936  133.4154  159.2634 H   0  0  0  0  0  0  0  0  0  0  0  0  # atno 6907 bound_to 6896
  151.0256  134.9502  159.8093 H   0  0  0  0  0  0  0  0  0  0  0  0  # atno 6908 bound_to 6896
  152.5334  134.2898  159.9091 H   0  0  0  0  0  0  0  0  0  0  0  0  # atno 6909 bound_to 6896
  146.1019  140.5746  142.8817 H   0  0  0  0  0  0  0  0  0  0  0  0  # atno 7974 bound_to 7965
  156.0166  140.3345  155.6995 H   0  0  0  0  0  0  0  0  0  0  0  0  # atno 8008 bound_to 7997
  155.6082  140.0662  157.2731 H   0  0  0  0  0  0  0  0  0  0  0  0  # atno 8009 bound_to 7997
  154.4300  140.1798  156.1232 H   0  0  0  0  0  0  0  0  0  0  0  0  # atno 8010 bound_to 7997
  139.7013  144.7093  151.1180 H   0  0  0  0  0  0  0  0  0  0  0  0  # atno 10167 bound_to 10162
  156.3937  130.7898  151.2103 H   0  0  0  0  0  0  0  0  0  0  0  0  # atno 10718 bound_to 10713
  153.9154  135.3006  155.3448 H   0  0  0  0  0  0  0  0  0  0  0  0  # atno 10763 bound_to 10752
  154.7602  135.4938  153.9453 H   0  0  0  0  0  0  0  0  0  0  0  0  # atno 10764 bound_to 10752
  153.1170  135.6773  153.9503 H   0  0  0  0  0  0  0  0  0  0  0  0  # atno 10765 bound_to 10752
  140.6567  133.9356  155.8412 H   0  0  0  0  0  0  0  0  0  0  0  0  # atno 11005 bound_to 11000
  144.7439  140.5016  143.6849 LP  0  0  0  0  0  0  0  0  0  0  0  0  # atno 17320 bound_to 7965
  145.5838  139.1490  143.3220 LP  0  0  0  0  0  0  0  0  0  0  0  0  # atno 17321 bound_to 7965
  140.7710  143.5419  150.9302 LP  0  0  0  0  0  0  0  0  0  0  0  0  # atno 17342 bound_to 10162
  139.9101  143.6730  152.3116 LP  0  0  0  0  0  0  0  0  0  0  0  0  # atno 17343 bound_to 10162
  157.7500  131.0308  150.4152 LP  0  0  0  0  0  0  0  0  0  0  0  0  # atno 17370 bound_to 10713
  156.4418  130.3993  149.6692 LP  0  0  0  0  0  0  0  0  0  0  0  0  # atno 17371 bound_to 10713
  141.0496  134.0504  157.3801 LP  0  0  0  0  0  0  0  0  0  0  0  0  # atno 17394 bound_to 11000
  139.9027  135.0170  156.7343 LP  0  0  0  0  0  0  0  0  0  0  0  0  # atno 17395 bound_to 11000

$$$$
