AV-unprocessed.smi:652|AV-procd|sdf|3198|dock4
  -GOLD-   22720 0133D 1   1.00000     0.00000
 Structure written by MMmdl.
 49 50  0  0  0  0  0  0  0  0  3 V2000
  146.1201  132.3637  150.2362 C   0  0  0  0  0  0  0  0  0  0  0  0
  144.6177  132.6864  150.2749 C   0  0  0  0  0  0  0  0  0  0  0  0
  143.9550  132.4575  148.9100 C   0  0  0  0  0  0  0  0  0  0  0  0
  144.4002  134.0686  150.6936 N   0  0  0  0  0  0  0  0  0  0  0  0
  143.8250  134.4523  151.8441 C   0  0  0  0  0  0  0  0  0  0  0  0
  143.4142  133.6576  152.6902 O   0  0  0  0  0  0  0  0  0  0  0  0
  143.7004  135.9647  152.0610 C   0  0  0  0  0  0  0  0  0  0  0  0
  145.0038  136.7361  151.7624 C   0  0  0  0  0  0  0  0  0  0  0  0
  145.2439  137.8460  152.7192 N   0  3  1  0  0  0  0  0  0  0  0  0
  144.8207  137.4975  154.0963 C   0  0  0  0  0  0  0  0  0  0  0  0
  145.0422  138.6847  155.0460 C   0  0  0  0  0  0  0  0  0  0  0  0
  146.4094  139.0737  155.0064 O   0  0  0  0  0  0  0  0  0  0  0  0
  146.8132  139.5101  153.7138 C   0  0  1  0  0  0  0  0  0  0  0  0
  148.2731  139.9877  153.8284 C   0  0  0  0  0  0  0  0  0  0  0  0
  149.2401  138.9400  153.5273 N   0  0  0  0  0  0  0  0  0  0  0  0
  150.5189  138.9224  154.1037 C   0  0  0  0  0  0  0  0  0  0  0  0
  150.9995  139.8894  155.0182 C   0  0  0  0  0  0  0  0  0  0  0  0
  152.3046  139.7437  155.5187 C   0  0  0  0  0  0  0  0  0  0  0  0
  153.0528  138.6389  155.0759 C   0  0  0  0  0  0  0  0  0  0  0  0
  152.5763  137.7262  154.2004 N   0  0  0  0  0  0  0  0  0  0  0  0
  151.3238  137.8925  153.7406 N   0  3  0  0  0  0  0  0  0  0  0  0
  146.6437  138.3411  152.7190 C   0  0  0  0  0  0  0  0  0  0  0  0
  146.2900  131.3319  149.9274 H   0  0  0  0  0  0  0  0  0  0  0  0
  146.5796  132.4898  151.2170 H   0  0  0  0  0  0  0  0  0  0  0  0
  146.6479  133.0111  149.5352 H   0  0  0  0  0  0  0  0  0  0  0  0
  144.1372  132.0189  150.9925 H   0  0  0  0  0  0  0  0  0  0  0  0
  144.0745  131.4236  148.5854 H   0  0  0  0  0  0  0  0  0  0  0  0
  144.3909  133.0991  148.1433 H   0  0  0  0  0  0  0  0  0  0  0  0
  142.8856  132.6664  148.9515 H   0  0  0  0  0  0  0  0  0  0  0  0
  144.7093  134.7870  150.0548 H   0  0  0  0  0  0  0  0  0  0  0  0
  142.8883  136.3312  151.4329 H   0  0  0  0  0  0  0  0  0  0  0  0
  143.4000  136.1324  153.0961 H   0  0  0  0  0  0  0  0  0  0  0  0
  145.8436  136.0422  151.8315 H   0  0  0  0  0  0  0  0  0  0  0  0
  145.0029  137.1205  150.7409 H   0  0  0  0  0  0  0  0  0  0  0  0
  143.7665  137.2176  154.1026 H   0  0  0  0  0  0  0  0  0  0  0  0
  145.3848  136.6308  154.4446 H   0  0  0  0  0  0  0  0  0  0  0  0
  144.4012  139.5260  154.7772 H   0  0  0  0  0  0  0  0  0  0  0  0
  144.7849  138.4021  156.0670 H   0  0  0  0  0  0  0  0  0  0  0  0
  146.1793  140.3468  153.4150 H   0  0  0  0  0  0  0  0  0  0  0  0
  148.4471  140.8413  153.1732 H   0  0  0  0  0  0  0  0  0  0  0  0
  148.4635  140.3486  154.8396 H   0  0  0  0  0  0  0  0  0  0  0  0
  148.9796  138.2178  152.8705 H   0  0  0  0  0  0  0  0  0  0  0  0
  150.3981  140.7265  155.3391 H   0  0  0  0  0  0  0  0  0  0  0  0
  152.7192  140.4527  156.2200 H   0  0  0  0  0  0  0  0  0  0  0  0
  154.0606  138.4815  155.4317 H   0  0  0  0  0  0  0  0  0  0  0  0
  147.3174  137.5238  152.9820 H   0  0  0  0  0  0  0  0  0  0  0  0
  146.9222  138.6749  151.7202 H   0  0  0  0  0  0  0  0  0  0  0  0
  144.6541  138.6123  152.4271 H   0  0  0  0  0  0  0  0  0  0  0  0
  150.9577  137.2040  153.0828 H   0  0  0  0  0  0  0  0  0  0  0  0
  1  2  1  0  0  0  0
  1 23  1  0  0  0  0
  1 24  1  0  0  0  0
  1 25  1  0  0  0  0
  2  3  1  0  0  0  0
  2  4  1  0  0  0  0
  2 26  1  0  0  0  0
  3 27  1  0  0  0  0
  3 28  1  0  0  0  0
  3 29  1  0  0  0  0
  4  5  1  0  0  0  0
  4 30  1  0  0  0  0
  5  6  2  0  0  0  0
  5  7  1  0  0  0  0
  7  8  1  0  0  0  0
  7 31  1  0  0  0  0
  7 32  1  0  0  0  0
  8  9  1  0  0  0  0
  8 33  1  0  0  0  0
  8 34  1  0  0  0  0
  9 22  1  0  0  0  0
  9 10  1  0  0  0  0
  9 48  1  0  0  0  0
 10 11  1  0  0  0  0
 10 35  1  0  0  0  0
 10 36  1  0  0  0  0
 11 12  1  0  0  0  0
 11 37  1  0  0  0  0
 11 38  1  0  0  0  0
 12 13  1  0  0  0  0
 13 14  1  0  0  0  0
 13 22  1  0  0  0  0
 13 39  1  0  0  0  0
 14 15  1  0  0  0  0
 14 40  1  0  0  0  0
 14 41  1  0  0  0  0
 15 16  1  0  0  0  0
 15 42  1  0  0  0  0
 16 21  1  0  0  0  0
 16 17  2  0  0  0  0
 17 18  1  0  0  0  0
 17 43  1  0  0  0  0
 18 19  2  0  0  0  0
 18 44  1  0  0  0  0
 19 20  1  0  0  0  0
 19 45  1  0  0  0  0
 20 21  2  0  0  0  0
 21 49  1  0  0  0  0
 22 46  1  0  0  0  0
 22 47  1  0  0  0  0
M  CHG  1   9   1
M  CHG  1  21   1
M  END
> <s_m_source_file>
AV-unprocessed.smi

> <i_m_source_file_index>
652

> <i_lp_mmshare_version>
43012

> <i_f3d_flags>
0

> <s_epik_input>
W0NIM11bQ0hdKFtDSDNdKVtOSF1DKD1PKVtDSDJdW0NIMl1OMVtDSDJdW0NIMl1PW0NASF0oW0NIMl0xKVtDSDJdW05IXWMyW2NIXVtjSF1bY0hdbm4y

> <s_epik_cmdline>
J2VwaWtfcHl0aG9uJywgJy1waCcsICc3LjAnLCAnLXRuJywgJzgnLCAnLW1hJywgJzIwMCcsICctbWV0YWxfYmluZGluZycsICctaW1hZScsICc8aW5maWxlLm1hZT4nLCAnLW9tYWUnLCAnPG91dGZpbGUubWFlPic=

> <r_lp_tautomer_probability>
0.966961

> <r_epik_Ionization_Penalty>
2.79885

> <r_epik_Ionization_Penalty_Charging>
2.79884

> <r_epik_Ionization_Penalty_Neutral>
3.2567e-06

> <r_epik_State_Penalty>
2.43203

> <r_epik_Charging_Adjusted_Penalty>
5.23087

> <i_epik_Tot_Q>
2

> <i_epik_Tot_abs_Q>
2

> <r_epik_Metal_State_Penalty>
2.43963

> <b_epik_Metal_Only>
0

> <s_lp_Force_Field>
OPLS_2005

> <r_lp_Energy>
31.8116

> <b_lp_Chiralities_Consistent>
1

> <s_lp_Variant>
AV-unprocessed.smi:652-7

> <Gold.Version>
5.8.1

> <Gold.Id.Protein>
6NUR|6NUR_protein|mol2

> <Gold.PLP.Fitness>
53.0950

> <Gold.PLP.PLP>
-37.5039

> <Gold.PLP.part.hbond>
-5.7680

> <Gold.PLP.part.metal>
0.0000

> <Gold.PLP.part.buried>
0.5117

> <Gold.PLP.part.nonpolar>
-32.8667

> <Gold.PLP.part.repulsive>
0.5933

> <Gold.PLP.ligand.clash>
0.0000

> <Gold.PLP.ligand.torsion>
1.2487

> <Gold.PLP.Chemscore.Hbond>
6.0047

> <Gold.PLP.Chemscore.CHOScore>
0.0000

> <Gold.PLP.Chemscore.Metal>
0.0000

> <Gold.Chemscore.Hbonds>
donor molecule, donor type, donor heavy atom, donor atom, acceptor molecule, acceptor atom, score
      L1  H     9    48       P1 10175  1.76
      L1  H    15    42       P1  7948  1.17
      L1  H    21    49       P1  7949  2.00
      P1  H 10752 10765       L1    20  0.57

> <Gold.PLP.Chemscore.Internal.Correction>
0.0744

> <Gold.Rescore>
     Score         DG    S(hbond)    S(metal)    S(lipo)     H(rot)  DE(clash)    DE(int)     intcor
     14.84     -18.19       2.58        0.00      85.91       2.33       2.10       1.25       ----

> <Gold.Chemscore.Fitness>
14.8424

> <Gold.Chemscore.DG>
-18.1872

> <Gold.Chemscore.ZeroCoef>
-5.4800

> <Gold.Chemscore.Hbond>
2.5829

> <Gold.Chemscore.Metal>
0.0000

> <Gold.Chemscore.Lipo>
85.9122

> <Gold.Chemscore.Internal_Hbond>
0.0000

> <Gold.Chemscore.DEClash>
2.0972

> <Gold.Chemscore.DEInternal>
1.2475

> <Gold.Chemscore.Rot>
2.3326

> <Gold.Chemscore.Internal.Correction>
   9.000000E+99

> <Gold.Chemscore.Hbonds>
donor molecule, donor type, donor heavy atom, donor atom, acceptor molecule, acceptor atom, score
      L1  H     9    48       P1 10175  0.85
      L1  H    15    42       P1  7948  0.58
      L1  H    21    49       P1  7949  0.23
      P1  H 10752 10765       L1    20  0.35

> <Gold.Chemscore.Hbond.Weighted>
-8.6268

> <Gold.Chemscore.Metal.Weighted>
-0.0000

> <Gold.Chemscore.Lipo.Weighted>
-10.0517

> <Gold.Chemscore.Internal_Hbond.Weighted>
0.0000

> <Gold.Chemscore.DEClash.Weighted>
2.0972

> <Gold.Chemscore.DEInternal.Weighted>
1.2475

> <Gold.Chemscore.Rot.Weighted>
5.9714

> <Gold.Chemscore.Internal.Correction.Weighted>
   9.000000E+99

> <Gold.Protein.RotatedTorsions>
[ 6907 6896 6895 6894 ] final   46.05 input  -60.11 | X-H torsion
[ 7974 7965 7964 7962 ] final  140.20 input  175.53 | X-H torsion
[ 8008 7997 7996 7995 ] final  114.75 input   59.86 | X-H torsion
[ 10167 10162 10161 10158 ] final  129.03 input  -65.29 | X-H torsion
[ 10718 10713 10712 10709 ] final   70.79 input   66.30 | X-H torsion
[ 10763 10752 10751 10750 ] final  150.37 input  -60.55 | X-H torsion
[ 11005 11000 10999 10996 ] final  151.84 input  -57.11 | X-H torsion

> <Gold.Protein.ActiveResidues>
 VAL166  LYS551  ARG553  GLY616  TRP617  ASP618  TYR619  PRO620  LYS621  CYS622 
 ASP623  PHE694  ASN695  SER759  ASP760  ASP761  ALA762  ILE779  LEU786  VAL792 
 PHE793  MET794  SER795  GLU796  ALA797  LYS798  CYS799  TRP800  GLU811  SER814 

> <Gold.Protein.RotatedAtoms>
  152.2519  134.8124  160.0444 H   0  0  0  0  0  0  0  0  0  0  0  0  # atno 6907 bound_to 6896
  151.8801  133.3488  159.3772 H   0  0  0  0  0  0  0  0  0  0  0  0  # atno 6908 bound_to 6896
  150.7087  134.4953  159.5579 H   0  0  0  0  0  0  0  0  0  0  0  0  # atno 6909 bound_to 6896
  144.9208  139.5170  143.5664 H   0  0  0  0  0  0  0  0  0  0  0  0  # atno 7974 bound_to 7965
  156.2340  140.2952  156.0263 H   0  0  0  0  0  0  0  0  0  0  0  0  # atno 8008 bound_to 7997
  155.2144  140.0413  157.2956 H   0  0  0  0  0  0  0  0  0  0  0  0  # atno 8009 bound_to 7997
  154.6046  140.2436  155.7755 H   0  0  0  0  0  0  0  0  0  0  0  0  # atno 8010 bound_to 7997
  139.5498  144.6803  151.4360 H   0  0  0  0  0  0  0  0  0  0  0  0  # atno 10167 bound_to 10162
  157.6418  130.9495  150.0699 H   0  0  0  0  0  0  0  0  0  0  0  0  # atno 10718 bound_to 10713
  154.0863  135.2855  155.3280 H   0  0  0  0  0  0  0  0  0  0  0  0  # atno 10763 bound_to 10752
  154.6650  135.5320  153.8068 H   0  0  0  0  0  0  0  0  0  0  0  0  # atno 10764 bound_to 10752
  153.0430  135.6543  154.1035 H   0  0  0  0  0  0  0  0  0  0  0  0  # atno 10765 bound_to 10752
  140.1255  134.8836  157.2131 H   0  0  0  0  0  0  0  0  0  0  0  0  # atno 11005 bound_to 11000
  146.3204  139.8087  142.8950 LP  0  0  0  0  0  0  0  0  0  0  0  0  # atno 17320 bound_to 7965
  145.3299  141.0264  143.3452 LP  0  0  0  0  0  0  0  0  0  0  0  0  # atno 17321 bound_to 7965
  140.6757  143.8195  150.7055 LP  0  0  0  0  0  0  0  0  0  0  0  0  # atno 17342 bound_to 10162
  140.1633  143.4257  152.2052 LP  0  0  0  0  0  0  0  0  0  0  0  0  # atno 17343 bound_to 10162
  156.1707  130.3646  149.9170 LP  0  0  0  0  0  0  0  0  0  0  0  0  # atno 17370 bound_to 10713
  156.7146  130.8983  151.3612 LP  0  0  0  0  0  0  0  0  0  0  0  0  # atno 17371 bound_to 10713
  140.2910  134.3241  155.7315 LP  0  0  0  0  0  0  0  0  0  0  0  0  # atno 17394 bound_to 11000
  141.2160  133.7534  156.9502 LP  0  0  0  0  0  0  0  0  0  0  0  0  # atno 17395 bound_to 11000

$$$$
