AV-unprocessed.smi:2807|AV-procd|sdf|10821|dock3
  -GOLD-   2272015253D 1   1.00000     0.00000
 Structure written by MMmdl.
 31 32  0  0  0  0  0  0  0  0  2 V2000
  150.1401  142.8953  158.1599 O   0  0  0  0  0  0  0  0  0  0  0  0
  150.8095  141.8683  158.3226 C   0  0  0  0  0  0  0  0  0  0  0  0
  151.7829  141.5984  159.2389 N   0  5  0  0  0  0  0  0  0  0  0  0
  152.9297  142.4718  159.5121 C   0  0  1  0  0  0  0  0  0  0  0  0
  152.4236  143.8704  159.8963 C   0  0  0  0  0  0  0  0  0  0  0  0
  152.1917  143.8562  161.4190 C   0  0  0  0  0  0  0  0  0  0  0  0
  152.8750  142.5904  161.9588 C   0  0  0  0  0  0  0  0  0  0  0  0
  153.6898  142.0391  160.7824 C   0  0  1  0  0  0  0  0  0  0  0  0
  153.9265  140.6480  160.8916 O   0  0  0  0  0  0  0  0  0  0  0  0
  150.5863  140.6826  157.3607 C   0  0  0  0  0  0  0  0  0  0  0  0
  151.7364  140.3798  156.7490 F   0  0  0  0  0  0  0  0  0  0  0  0
  150.2158  139.6133  158.0696 F   0  0  0  0  0  0  0  0  0  0  0  0
  149.4847  141.0040  156.3509 C   0  0  0  0  0  0  0  0  0  0  0  0
  148.1894  141.3592  156.7914 C   0  0  0  0  0  0  0  0  0  0  0  0
  147.2093  141.6699  155.8298 C   0  0  0  0  0  0  0  0  0  0  0  0
  147.5543  141.6125  154.4664 C   0  0  0  0  0  0  0  0  0  0  0  0
  148.8707  141.2455  154.1250 C   0  0  0  0  0  0  0  0  0  0  0  0
  149.8171  140.9441  155.0387 N   0  0  0  0  0  0  0  0  0  0  0  0
  153.6107  142.5376  158.6621 H   0  0  0  0  0  0  0  0  0  0  0  0
  153.1994  144.6014  159.6657 H   0  0  0  0  0  0  0  0  0  0  0  0
  151.5333  144.1722  159.3425 H   0  0  0  0  0  0  0  0  0  0  0  0
  152.6049  144.7553  161.8778 H   0  0  0  0  0  0  0  0  0  0  0  0
  151.1258  143.8366  161.6517 H   0  0  0  0  0  0  0  0  0  0  0  0
  153.5013  142.7958  162.8274 H   0  0  0  0  0  0  0  0  0  0  0  0
  152.1140  141.8718  162.2728 H   0  0  0  0  0  0  0  0  0  0  0  0
  154.6612  142.5355  160.7752 H   0  0  0  0  0  0  0  0  0  0  0  0
  153.7897  140.3994  161.7929 H   0  0  0  0  0  0  0  0  0  0  0  0
  147.9578  141.4032  157.8452 H   0  0  0  0  0  0  0  0  0  0  0  0
  146.2115  141.9495  156.1334 H   0  0  0  0  0  0  0  0  0  0  0  0
  146.8294  141.8458  153.7009 H   0  0  0  0  0  0  0  0  0  0  0  0
  149.1713  141.1911  153.0890 H   0  0  0  0  0  0  0  0  0  0  0  0
  1  2  2  0  0  0  0
  2  3  1  0  0  0  0
  2 10  1  0  0  0  0
  3  4  1  0  0  0  0
  4  8  1  0  0  0  0
  4  5  1  0  0  0  0
  4 19  1  0  0  0  0
  5  6  1  0  0  0  0
  5 20  1  0  0  0  0
  5 21  1  0  0  0  0
  6  7  1  0  0  0  0
  6 22  1  0  0  0  0
  6 23  1  0  0  0  0
  7  8  1  0  0  0  0
  7 24  1  0  0  0  0
  7 25  1  0  0  0  0
  8  9  1  0  0  0  0
  8 26  1  0  0  0  0
  9 27  1  0  0  0  0
 10 11  1  0  0  0  0
 10 12  1  0  0  0  0
 10 13  1  0  0  0  0
 13 18  1  0  0  0  0
 13 14  2  0  0  0  0
 14 15  1  0  0  0  0
 14 28  1  0  0  0  0
 15 16  2  0  0  0  0
 15 29  1  0  0  0  0
 16 17  1  0  0  0  0
 16 30  1  0  0  0  0
 17 18  2  0  0  0  0
 17 31  1  0  0  0  0
M  CHG  1   3  -1
M  END
> <s_m_source_file>
AV-unprocessed.smi

> <i_m_source_file_index>
2807

> <i_lp_mmshare_version>
43012

> <i_f3d_flags>
0

> <s_epik_input>
bjFbY0hdW2NIXVtjSF1bY0hdYzFDKEYpKEYpQyg9TylbTkhdW0NAQEhdMltDSDJdW0NIMl1bQ0gyXVtDQEhdMltPSF0=

> <s_epik_cmdline>
J2VwaWtfcHl0aG9uJywgJy1waCcsICc3LjAnLCAnLXRuJywgJzgnLCAnLW1hJywgJzIwMCcsICctbWV0YWxfYmluZGluZycsICctaW1hZScsICc8aW5maWxlLm1hZT4nLCAnLW9tYWUnLCAnPG91dGZpbGUubWFlPic=

> <r_lp_tautomer_probability>
1

> <r_epik_Ionization_Penalty>
5.72231

> <r_epik_Ionization_Penalty_Charging>
5.72231

> <r_epik_Ionization_Penalty_Neutral>
5.49816e-06

> <r_epik_State_Penalty>
5.72227

> <r_epik_Charging_Adjusted_Penalty>
11.4446

> <i_epik_Tot_Q>
-1

> <i_epik_Tot_abs_Q>
1

> <r_epik_Metal_State_Penalty>
1.70075

> <b_epik_Metal_Only>
1

> <s_lp_Force_Field>
OPLS_2005

> <r_lp_Energy>
37.2022

> <b_lp_Chiralities_Consistent>
1

> <s_lp_Variant>
AV-unprocessed.smi:2807-6

> <Gold.Version>
5.8.1

> <Gold.Id.Protein>
6NUR|6NUR_protein|mol2

> <Gold.PLP.Fitness>
40.6445

> <Gold.PLP.PLP>
-38.1286

> <Gold.PLP.part.hbond>
-0.8317

> <Gold.PLP.part.metal>
0.0000

> <Gold.PLP.part.buried>
-5.0392

> <Gold.PLP.part.nonpolar>
-32.2565

> <Gold.PLP.part.repulsive>
0.2607

> <Gold.PLP.ligand.clash>
0.0000

> <Gold.PLP.ligand.torsion>
0.5343

> <Gold.PLP.Chemscore.Hbond>
0.1722

> <Gold.PLP.Chemscore.CHOScore>
1.0000

> <Gold.PLP.Chemscore.Metal>
0.0000

> <Gold.Chemscore.Hbonds>
donor molecule, donor type, donor heavy atom, donor atom, acceptor molecule, acceptor atom, score
      P1  H  7989  7998       L1    18  0.08
      L1  C    17    31       P1  7957  1.00

> <Gold.PLP.Chemscore.Internal.Correction>
0.0681

> <Gold.Rescore>
     Score         DG    S(hbond)    S(metal)    S(lipo)     H(rot)  DE(clash)    DE(int)     intcor
      9.21     -11.11       0.09        0.00      89.20       2.00       0.10       1.80       ----

> <Gold.Chemscore.Fitness>
9.2101

> <Gold.Chemscore.DG>
-11.1105

> <Gold.Chemscore.ZeroCoef>
-5.4800

> <Gold.Chemscore.Hbond>
0.0914

> <Gold.Chemscore.Metal>
0.0000

> <Gold.Chemscore.Lipo>
89.1978

> <Gold.Chemscore.Internal_Hbond>
0.0000

> <Gold.Chemscore.DEClash>
0.0983

> <Gold.Chemscore.DEInternal>
1.8021

> <Gold.Chemscore.Rot>
1.9964

> <Gold.Chemscore.Internal.Correction>
   9.000000E+99

> <Gold.Chemscore.Hbonds>
donor molecule, donor type, donor heavy atom, donor atom, acceptor molecule, acceptor atom, score
      P1  H  7989  7998       L1    18  0.01

> <Gold.Chemscore.Hbond.Weighted>
-0.3052

> <Gold.Chemscore.Metal.Weighted>
-0.0000

> <Gold.Chemscore.Lipo.Weighted>
-10.4361

> <Gold.Chemscore.Internal_Hbond.Weighted>
0.0000

> <Gold.Chemscore.DEClash.Weighted>
0.0983

> <Gold.Chemscore.DEInternal.Weighted>
1.8021

> <Gold.Chemscore.Rot.Weighted>
5.1108

> <Gold.Chemscore.Internal.Correction.Weighted>
   9.000000E+99

> <Gold.Protein.RotatedTorsions>
[ 6907 6896 6895 6894 ] final  -47.20 input  -60.11 | X-H torsion
[ 7974 7965 7964 7962 ] final   -3.20 input  175.53 | X-H torsion
[ 8008 7997 7996 7995 ] final -100.25 input   59.86 | X-H torsion
[ 10167 10162 10161 10158 ] final -172.53 input  -65.29 | X-H torsion
[ 10718 10713 10712 10709 ] final   35.29 input   66.30 | X-H torsion
[ 10763 10752 10751 10750 ] final   15.36 input  -60.55 | X-H torsion
[ 11005 11000 10999 10996 ] final -162.07 input  -57.11 | X-H torsion

> <Gold.Protein.ActiveResidues>
 VAL166  LYS551  ARG553  GLY616  TRP617  ASP618  TYR619  PRO620  LYS621  CYS622 
 ASP623  PHE694  ASN695  SER759  ASP760  ASP761  ALA762  ILE779  LEU786  VAL792 
 PHE793  MET794  SER795  GLU796  ALA797  LYS798  CYS799  TRP800  GLU811  SER814 

> <Gold.Protein.RotatedAtoms>
  150.9032  134.8446  159.7374 H   0  0  0  0  0  0  0  0  0  0  0  0  # atno 6907 bound_to 6896
  152.4904  134.4470  159.9572 H   0  0  0  0  0  0  0  0  0  0  0  0  # atno 6908 bound_to 6896
  151.4520  133.3576  159.2832 H   0  0  0  0  0  0  0  0  0  0  0  0  # atno 6909 bound_to 6896
  146.2393  140.1685  142.8332 H   0  0  0  0  0  0  0  0  0  0  0  0  # atno 7974 bound_to 7965
  154.8261  140.0442  157.1444 H   0  0  0  0  0  0  0  0  0  0  0  0  # atno 8008 bound_to 7997
  154.9205  140.3026  155.5199 H   0  0  0  0  0  0  0  0  0  0  0  0  # atno 8009 bound_to 7997
  156.2984  140.2341  156.4254 H   0  0  0  0  0  0  0  0  0  0  0  0  # atno 8010 bound_to 7997
  139.5739  144.1576  152.1424 H   0  0  0  0  0  0  0  0  0  0  0  0  # atno 10167 bound_to 10162
  157.3208  130.7447  149.6784 H   0  0  0  0  0  0  0  0  0  0  0  0  # atno 10718 bound_to 10713
  153.1532  135.6782  153.8851 H   0  0  0  0  0  0  0  0  0  0  0  0  # atno 10763 bound_to 10752
  153.8270  135.3122  155.3416 H   0  0  0  0  0  0  0  0  0  0  0  0  # atno 10764 bound_to 10752
  154.7878  135.4852  154.0072 H   0  0  0  0  0  0  0  0  0  0  0  0  # atno 10765 bound_to 10752
  140.6133  134.4826  157.5217 H   0  0  0  0  0  0  0  0  0  0  0  0  # atno 11005 bound_to 11000
  145.0031  140.8649  143.5270 LP  0  0  0  0  0  0  0  0  0  0  0  0  # atno 17320 bound_to 7965
  145.1707  139.2406  143.5343 LP  0  0  0  0  0  0  0  0  0  0  0  0  # atno 17321 bound_to 7965
  140.1115  144.5453  150.6922 LP  0  0  0  0  0  0  0  0  0  0  0  0  # atno 17342 bound_to 10162
  140.7023  143.2443  151.4828 LP  0  0  0  0  0  0  0  0  0  0  0  0  # atno 17343 bound_to 10162
  155.9686  130.4223  150.4512 LP  0  0  0  0  0  0  0  0  0  0  0  0  # atno 17370 bound_to 10713
  157.2527  131.0550  151.2369 LP  0  0  0  0  0  0  0  0  0  0  0  0  # atno 17371 bound_to 10713
  139.9183  134.8201  156.1294 LP  0  0  0  0  0  0  0  0  0  0  0  0  # atno 17394 bound_to 11000
  141.0793  133.6761  156.2302 LP  0  0  0  0  0  0  0  0  0  0  0  0  # atno 17395 bound_to 11000

$$$$
