AV-unprocessed.smi:1554|AV-procd|sdf|6251|dock10
  -GOLD-   22720 6433D 1   1.00000     0.00000
 Structure written by MMmdl.
 48 50  0  0  0  0  0  0  0  0  2 V2000
  152.2090  143.9167  160.2925 C   0  0  0  0  0  0  0  0  0  0  0  0
  152.0471  142.8275  159.2468 C   0  0  0  0  0  0  0  0  0  0  0  0
  151.1647  143.0404  158.1637 C   0  0  0  0  0  0  0  0  0  0  0  0
  150.9839  142.0519  157.1717 C   0  0  0  0  0  0  0  0  0  0  0  0
  150.1841  142.0467  156.0416 N   0  0  0  0  0  0  0  0  0  0  0  0
  150.4500  140.8483  155.5301 C   0  0  0  0  0  0  0  0  0  0  0  0
  151.3271  140.0740  156.1979 N   0  0  0  0  0  0  0  0  0  0  0  0
  151.7683  138.7363  155.8458 C   0  0  0  0  0  0  0  0  0  0  0  0
  151.0065  138.1723  154.6312 C   0  0  1  0  0  0  0  0  0  0  0  0
  151.8673  137.3259  153.8927 O   0  0  0  0  0  0  0  0  0  0  0  0
  149.7590  137.3708  155.0516 C   0  0  0  0  0  0  0  0  0  0  0  0
  148.5874  137.6425  154.1793 N   0  3  2  0  0  0  0  0  0  0  0  0
  148.3568  139.0856  153.9212 C   0  0  0  0  0  0  0  0  0  0  0  0
  147.1612  139.2748  152.9735 C   0  0  0  0  0  0  0  0  0  0  0  0
  146.0082  138.6543  153.5287 O   0  0  0  0  0  0  0  0  0  0  0  0
  146.1792  137.2519  153.7025 C   0  0  2  0  0  0  0  0  0  0  0  0
  144.8587  136.6697  154.2192 C   0  0  0  0  0  0  0  0  0  0  0  0
  147.3463  137.0037  154.6782 C   0  0  0  0  0  0  0  0  0  0  0  0
  151.7145  140.8342  157.2956 C   0  0  0  0  0  0  0  0  0  0  0  0
  152.5970  140.6112  158.3673 C   0  0  0  0  0  0  0  0  0  0  0  0
  152.7673  141.6100  159.3485 C   0  0  0  0  0  0  0  0  0  0  0  0
  153.7238  141.3604  160.5012 C   0  0  0  0  0  0  0  0  0  0  0  0
  151.6101  144.7949  160.0493 H   0  0  0  0  0  0  0  0  0  0  0  0
  153.2504  144.2317  160.3599 H   0  0  0  0  0  0  0  0  0  0  0  0
  151.8922  143.5554  161.2712 H   0  0  0  0  0  0  0  0  0  0  0  0
  150.6173  143.9682  158.0854 H   0  0  0  0  0  0  0  0  0  0  0  0
  149.9761  140.5115  154.6195 H   0  0  0  0  0  0  0  0  0  0  0  0
  152.8418  138.7584  155.6521 H   0  0  0  0  0  0  0  0  0  0  0  0
  151.6205  138.0940  156.7149 H   0  0  0  0  0  0  0  0  0  0  0  0
  150.7185  139.0043  153.9899 H   0  0  0  0  0  0  0  0  0  0  0  0
  151.4975  137.1923  153.0331 H   0  0  0  0  0  0  0  0  0  0  0  0
  150.0030  136.3075  155.0209 H   0  0  0  0  0  0  0  0  0  0  0  0
  149.4925  137.5909  156.0865 H   0  0  0  0  0  0  0  0  0  0  0  0
  148.1685  139.6016  154.8641 H   0  0  0  0  0  0  0  0  0  0  0  0
  149.2393  139.5452  153.4779 H   0  0  0  0  0  0  0  0  0  0  0  0
  146.9575  140.3367  152.8353 H   0  0  0  0  0  0  0  0  0  0  0  0
  147.3753  138.8601  151.9870 H   0  0  0  0  0  0  0  0  0  0  0  0
  146.4045  136.7957  152.7366 H   0  0  0  0  0  0  0  0  0  0  0  0
  144.9342  135.5918  154.3642 H   0  0  0  0  0  0  0  0  0  0  0  0
  144.0493  136.8531  153.5121 H   0  0  0  0  0  0  0  0  0  0  0  0
  144.5747  137.1169  155.1722 H   0  0  0  0  0  0  0  0  0  0  0  0
  147.5056  135.9304  154.7915 H   0  0  0  0  0  0  0  0  0  0  0  0
  147.1056  137.3991  155.6666 H   0  0  0  0  0  0  0  0  0  0  0  0
  153.1383  139.6790  158.4329 H   0  0  0  0  0  0  0  0  0  0  0  0
  154.2148  140.3912  160.4082 H   0  0  0  0  0  0  0  0  0  0  0  0
  153.1894  141.3760  161.4511 H   0  0  0  0  0  0  0  0  0  0  0  0
  154.5001  142.1254  160.5274 H   0  0  0  0  0  0  0  0  0  0  0  0
  148.7898  137.2099  153.2886 H   0  0  0  0  0  0  0  0  0  0  0  0
  1  2  1  0  0  0  0
  1 23  1  0  0  0  0
  1 24  1  0  0  0  0
  1 25  1  0  0  0  0
  2 21  1  0  0  0  0
  2  3  2  0  0  0  0
  3  4  1  0  0  0  0
  3 26  1  0  0  0  0
  4 19  2  0  0  0  0
  4  5  1  0  0  0  0
  5  6  2  0  0  0  0
  6  7  1  0  0  0  0
  6 27  1  0  0  0  0
  7  8  1  0  0  0  0
  7 19  1  0  0  0  0
  8  9  1  0  0  0  0
  8 28  1  0  0  0  0
  8 29  1  0  0  0  0
  9 10  1  0  0  0  0
  9 11  1  0  0  0  0
  9 30  1  0  0  0  0
 10 31  1  0  0  0  0
 11 12  1  0  0  0  0
 11 32  1  0  0  0  0
 11 33  1  0  0  0  0
 12 18  1  0  0  0  0
 12 13  1  0  0  0  0
 12 48  1  0  0  0  0
 13 14  1  0  0  0  0
 13 34  1  0  0  0  0
 13 35  1  0  0  0  0
 14 15  1  0  0  0  0
 14 36  1  0  0  0  0
 14 37  1  0  0  0  0
 15 16  1  0  0  0  0
 16 17  1  0  0  0  0
 16 18  1  0  0  0  0
 16 38  1  0  0  0  0
 17 39  1  0  0  0  0
 17 40  1  0  0  0  0
 17 41  1  0  0  0  0
 18 42  1  0  0  0  0
 18 43  1  0  0  0  0
 19 20  1  0  0  0  0
 20 21  2  0  0  0  0
 20 44  1  0  0  0  0
 21 22  1  0  0  0  0
 22 45  1  0  0  0  0
 22 46  1  0  0  0  0
 22 47  1  0  0  0  0
M  CHG  1  12   1
M  END
> <s_m_source_file>
AV-unprocessed.smi

> <i_m_source_file_index>
1554

> <i_lp_mmshare_version>
43012

> <i_f3d_flags>
0

> <s_epik_input>
W0NIM11jKFtjSF0xKWMoW0NIM10pW2NIXWMoYzEyKW4oW2NIXW4yKVtDSDJdW0NASF0oW09IXSlbQ0gyXU4zW0NIMl1bQ0gyXU9bQ0BASF0oW0NIM10pW0NIMl0z

> <s_epik_cmdline>
J2VwaWtfcHl0aG9uJywgJy1waCcsICc3LjAnLCAnLXRuJywgJzgnLCAnLW1hJywgJzIwMCcsICctbWV0YWxfYmluZGluZycsICctaW1hZScsICc8aW5maWxlLm1hZT4nLCAnLW9tYWUnLCAnPG91dGZpbGUubWFlPic=

> <r_epik_Ionization_Penalty>
0.695251

> <r_epik_Ionization_Penalty_Charging>
0.608065

> <r_epik_Ionization_Penalty_Neutral>
0.0871863

> <r_epik_State_Penalty>
0.731955

> <r_epik_Charging_Adjusted_Penalty>
1.34002

> <i_epik_Tot_Q>
1

> <i_epik_Tot_abs_Q>
1

> <r_epik_Metal_State_Penalty>
0.652186

> <b_epik_Metal_Only>
0

> <s_lp_Force_Field>
OPLS_2005

> <r_lp_Energy>
20.6032

> <b_lp_Chiralities_Consistent>
1

> <s_lp_Variant>
AV-unprocessed.smi:1554-12

> <Gold.Version>
5.8.1

> <Gold.Id.Protein>
6NUR|6NUR_protein|mol2

> <Gold.PLP.Fitness>
49.8756

> <Gold.PLP.PLP>
-40.0166

> <Gold.PLP.part.hbond>
-3.0000

> <Gold.PLP.part.metal>
0.0000

> <Gold.PLP.part.buried>
-3.7243

> <Gold.PLP.part.nonpolar>
-34.0473

> <Gold.PLP.part.repulsive>
0.9317

> <Gold.PLP.ligand.clash>
0.0000

> <Gold.PLP.ligand.torsion>
1.0808

> <Gold.PLP.Chemscore.Hbond>
4.0000

> <Gold.PLP.Chemscore.CHOScore>
0.0000

> <Gold.PLP.Chemscore.Metal>
0.0000

> <Gold.Chemscore.Hbonds>
donor molecule, donor type, donor heavy atom, donor atom, acceptor molecule, acceptor atom, score
      L1  H    10    31       P1  7949  0.98
      L1  H    12    48       P1  7948  2.00
      P1  H 10752 10764       L1    10  1.00

> <Gold.PLP.Chemscore.Internal.Correction>
0.0206

> <Gold.Rescore>
     Score         DG    S(hbond)    S(metal)    S(lipo)     H(rot)  DE(clash)    DE(int)     intcor
     19.41     -20.77       2.41        0.00     106.91       2.05       0.17       1.19       ----

> <Gold.Chemscore.Fitness>
19.4074

> <Gold.Chemscore.DG>
-20.7669

> <Gold.Chemscore.ZeroCoef>
-5.4800

> <Gold.Chemscore.Hbond>
2.4065

> <Gold.Chemscore.Metal>
0.0000

> <Gold.Chemscore.Lipo>
106.9126

> <Gold.Chemscore.Internal_Hbond>
0.0000

> <Gold.Chemscore.DEClash>
0.1696

> <Gold.Chemscore.DEInternal>
1.1899

> <Gold.Chemscore.Rot>
2.0546

> <Gold.Chemscore.Internal.Correction>
   9.000000E+99

> <Gold.Chemscore.Hbonds>
donor molecule, donor type, donor heavy atom, donor atom, acceptor molecule, acceptor atom, score
      L1  H    10    31       P1  7949  0.82
      L1  H    12    48       P1  7948  1.00
      P1  H 10752 10764       L1    10  0.24

> <Gold.Chemscore.Hbond.Weighted>
-8.0378

> <Gold.Chemscore.Metal.Weighted>
-0.0000

> <Gold.Chemscore.Lipo.Weighted>
-12.5088

> <Gold.Chemscore.Internal_Hbond.Weighted>
0.0000

> <Gold.Chemscore.DEClash.Weighted>
0.1696

> <Gold.Chemscore.DEInternal.Weighted>
1.1899

> <Gold.Chemscore.Rot.Weighted>
5.2597

> <Gold.Chemscore.Internal.Correction.Weighted>
   9.000000E+99

> <Gold.Protein.RotatedTorsions>
[ 6907 6896 6895 6894 ] final  125.32 input  -60.11 | X-H torsion
[ 7974 7965 7964 7962 ] final   71.42 input  175.53 | X-H torsion
[ 8008 7997 7996 7995 ] final -103.77 input   59.86 | X-H torsion
[ 10167 10162 10161 10158 ] final   39.58 input  -65.29 | X-H torsion
[ 10718 10713 10712 10709 ] final -156.65 input   66.30 | X-H torsion
[ 10763 10752 10751 10750 ] final  -94.95 input  -60.55 | X-H torsion
[ 11005 11000 10999 10996 ] final -168.67 input  -57.11 | X-H torsion

> <Gold.Protein.ActiveResidues>
 VAL166  LYS551  ARG553  GLY616  TRP617  ASP618  TYR619  PRO620  LYS621  CYS622 
 ASP623  PHE694  ASN695  SER759  ASP760  ASP761  ALA762  ILE779  LEU786  VAL792 
 PHE793  MET794  SER795  GLU796  ALA797  LYS798  CYS799  TRP800  GLU811  SER814 

> <Gold.Protein.RotatedAtoms>
  152.4002  133.6807  159.6309 H   0  0  0  0  0  0  0  0  0  0  0  0  # atno 6907 bound_to 6896
  150.7895  133.8804  159.3293 H   0  0  0  0  0  0  0  0  0  0  0  0  # atno 6908 bound_to 6896
  151.6571  135.0996  160.0223 H   0  0  0  0  0  0  0  0  0  0  0  0  # atno 6909 bound_to 6896
  145.7660  139.2821  143.1349 H   0  0  0  0  0  0  0  0  0  0  0  0  # atno 7974 bound_to 7965
  154.8757  140.0421  157.1752 H   0  0  0  0  0  0  0  0  0  0  0  0  # atno 8008 bound_to 7997
  154.8692  140.2956  155.5471 H   0  0  0  0  0  0  0  0  0  0  0  0  # atno 8009 bound_to 7997
  156.2999  140.2432  156.3678 H   0  0  0  0  0  0  0  0  0  0  0  0  # atno 8010 bound_to 7997
  140.3825  144.1960  150.6130 H   0  0  0  0  0  0  0  0  0  0  0  0  # atno 10167 bound_to 10162
  156.5294  130.8514  151.2711 H   0  0  0  0  0  0  0  0  0  0  0  0  # atno 10718 bound_to 10713
  154.7103  135.5138  153.8656 H   0  0  0  0  0  0  0  0  0  0  0  0  # atno 10763 bound_to 10752
  153.0775  135.6621  154.0124 H   0  0  0  0  0  0  0  0  0  0  0  0  # atno 10764 bound_to 10752
  153.9967  135.3014  155.3386 H   0  0  0  0  0  0  0  0  0  0  0  0  # atno 10765 bound_to 10752
  140.5394  134.5538  157.5095 H   0  0  0  0  0  0  0  0  0  0  0  0  # atno 11005 bound_to 11000
  146.0217  140.8341  142.9920 LP  0  0  0  0  0  0  0  0  0  0  0  0  # atno 17320 bound_to 7965
  144.6821  140.2639  143.7315 LP  0  0  0  0  0  0  0  0  0  0  0  0  # atno 17321 bound_to 7965
  140.4922  143.2344  151.8801 LP  0  0  0  0  0  0  0  0  0  0  0  0  # atno 17342 bound_to 10162
  139.4794  144.5153  151.8877 LP  0  0  0  0  0  0  0  0  0  0  0  0  # atno 17343 bound_to 10162
  157.7424  130.9890  150.2515 LP  0  0  0  0  0  0  0  0  0  0  0  0  # atno 17370 bound_to 10713
  156.3074  130.3767  149.7693 LP  0  0  0  0  0  0  0  0  0  0  0  0  # atno 17371 bound_to 10713
  139.9512  134.7614  156.0444 LP  0  0  0  0  0  0  0  0  0  0  0  0  # atno 17394 bound_to 11000
  141.1236  133.6605  156.3278 LP  0  0  0  0  0  0  0  0  0  0  0  0  # atno 17395 bound_to 11000

$$$$
