AV-unprocessed.smi:2559|AV-procd|sdf|10037|dock9
  -GOLD-   2272014 83D 1   1.00000     0.00000
 Structure written by MMmdl.
 43 45  0  0  0  0  0  0  0  0  2 V2000
  153.5754  136.9082  159.2052 C   0  0  0  0  0  0  0  0  0  0  0  0
  152.8475  137.2568  157.9810 N   0  0  0  0  0  0  0  0  0  0  0  0
  152.6221  136.3644  156.9643 C   0  0  0  0  0  0  0  0  0  0  0  0
  153.0401  135.2126  157.0836 O   0  0  0  0  0  0  0  0  0  0  0  0
  151.9394  136.7702  155.8376 N   0  5  0  0  0  0  0  0  0  0  0  0
  151.4407  138.0250  155.6036 C   0  0  0  0  0  0  0  0  0  0  0  0
  150.8616  138.4043  154.5876 O   0  0  0  0  0  0  0  0  0  0  0  0
  151.6836  138.9435  156.7396 C   0  0  0  0  0  0  0  0  0  0  0  0
  152.3627  138.5856  157.8617 C   0  0  0  0  0  0  0  0  0  0  0  0
  152.4860  139.6500  158.7398 N   0  0  0  0  0  0  0  0  0  0  0  0
  151.8395  140.6323  158.1092 C   0  0  0  0  0  0  0  0  0  0  0  0
  151.7212  141.9211  158.6318 N   0  0  0  0  0  0  0  0  0  0  0  0
  152.5500  142.4235  159.7265 C   0  0  0  0  0  0  0  0  0  0  0  0
  153.1231  143.8162  159.4078 C   0  0  0  0  0  0  0  0  0  0  0  0
  151.9955  144.8137  159.1101 C   0  0  0  0  0  0  0  0  0  0  0  0
  151.0638  144.2427  158.0330 C   0  0  0  0  0  0  0  0  0  0  0  0
  150.5935  142.8295  158.4202 C   0  0  0  0  0  0  0  0  0  0  0  0
  151.3359  140.2917  156.8910 N   0  0  0  0  0  0  0  0  0  0  0  0
  150.6416  141.1519  155.9316 C   0  0  0  0  0  0  0  0  0  0  0  0
  149.1543  140.7757  155.7602 C   0  0  1  0  0  0  0  0  0  0  0  0
  148.4505  141.0268  156.9607 O   0  0  0  0  0  0  0  0  0  0  0  0
  148.4662  141.5688  154.6366 C   0  0  0  0  0  0  0  0  0  0  0  0
  149.1247  141.3691  153.4038 O   0  0  0  0  0  0  0  0  0  0  0  0
  153.8571  135.8574  159.2787 H   0  0  0  0  0  0  0  0  0  0  0  0
  152.9656  137.1390  160.0792 H   0  0  0  0  0  0  0  0  0  0  0  0
  154.4906  137.4974  159.2705 H   0  0  0  0  0  0  0  0  0  0  0  0
  151.9579  142.4564  160.6420 H   0  0  0  0  0  0  0  0  0  0  0  0
  153.3695  141.7279  159.9109 H   0  0  0  0  0  0  0  0  0  0  0  0
  153.7274  144.1726  160.2423 H   0  0  0  0  0  0  0  0  0  0  0  0
  153.7901  143.7481  158.5474 H   0  0  0  0  0  0  0  0  0  0  0  0
  151.4275  145.0051  160.0213 H   0  0  0  0  0  0  0  0  0  0  0  0
  152.4074  145.7708  158.7893 H   0  0  0  0  0  0  0  0  0  0  0  0
  150.2046  144.8994  157.8949 H   0  0  0  0  0  0  0  0  0  0  0  0
  151.5868  144.2103  157.0776 H   0  0  0  0  0  0  0  0  0  0  0  0
  149.9191  142.4277  157.6648 H   0  0  0  0  0  0  0  0  0  0  0  0
  150.0082  142.8769  159.3395 H   0  0  0  0  0  0  0  0  0  0  0  0
  150.7422  142.1921  156.2316 H   0  0  0  0  0  0  0  0  0  0  0  0
  151.1484  141.1061  154.9722 H   0  0  0  0  0  0  0  0  0  0  0  0
  149.0693  139.7083  155.5525 H   0  0  0  0  0  0  0  0  0  0  0  0
  148.2118  140.1973  157.3479 H   0  0  0  0  0  0  0  0  0  0  0  0
  147.4304  141.2469  154.5229 H   0  0  0  0  0  0  0  0  0  0  0  0
  148.4492  142.6347  154.8664 H   0  0  0  0  0  0  0  0  0  0  0  0
  148.5928  140.7992  152.8697 H   0  0  0  0  0  0  0  0  0  0  0  0
  1  2  1  0  0  0  0
  1 24  1  0  0  0  0
  1 25  1  0  0  0  0
  1 26  1  0  0  0  0
  2  9  1  0  0  0  0
  2  3  1  0  0  0  0
  3  4  2  0  0  0  0
  3  5  1  0  0  0  0
  5  6  1  0  0  0  0
  6  7  2  0  0  0  0
  6  8  1  0  0  0  0
  8 18  1  0  0  0  0
  8  9  2  0  0  0  0
  9 10  1  0  0  0  0
 10 11  2  0  0  0  0
 11 12  1  0  0  0  0
 11 18  1  0  0  0  0
 12 17  1  0  0  0  0
 12 13  1  0  0  0  0
 13 14  1  0  0  0  0
 13 27  1  0  0  0  0
 13 28  1  0  0  0  0
 14 15  1  0  0  0  0
 14 29  1  0  0  0  0
 14 30  1  0  0  0  0
 15 16  1  0  0  0  0
 15 31  1  0  0  0  0
 15 32  1  0  0  0  0
 16 17  1  0  0  0  0
 16 33  1  0  0  0  0
 16 34  1  0  0  0  0
 17 35  1  0  0  0  0
 17 36  1  0  0  0  0
 18 19  1  0  0  0  0
 19 20  1  0  0  0  0
 19 37  1  0  0  0  0
 19 38  1  0  0  0  0
 20 21  1  0  0  0  0
 20 22  1  0  0  0  0
 20 39  1  0  0  0  0
 21 40  1  0  0  0  0
 22 23  1  0  0  0  0
 22 41  1  0  0  0  0
 22 42  1  0  0  0  0
 23 43  1  0  0  0  0
M  CHG  1   5  -1
M  END
> <s_m_source_file>
AV-unprocessed.smi

> <i_m_source_file_index>
2559

> <i_lp_mmshare_version>
43012

> <i_f3d_flags>
0

> <s_epik_input>
Tz1jMVtuSF1jKD1PKW4oW0NIM10pYyhjMTIpbmMobjJbQ0gyXVtDQEhdKFtPSF0pW0NIMl1bT0hdKU4zW0NIMl1bQ0gyXVtDSDJdW0NIMl1bQ0gyXTM=

> <s_epik_cmdline>
J2VwaWtfcHl0aG9uJywgJy1waCcsICc3LjAnLCAnLXRuJywgJzgnLCAnLW1hJywgJzIwMCcsICctbWV0YWxfYmluZGluZycsICctaW1hZScsICc8aW5maWxlLm1hZT4nLCAnLW9tYWUnLCAnPG91dGZpbGUubWFlPic=

> <r_lp_tautomer_probability>
1

> <r_epik_Ionization_Penalty>
5.90509

> <r_epik_Ionization_Penalty_Charging>
0.0759636

> <r_epik_Ionization_Penalty_Neutral>
5.82913

> <r_epik_State_Penalty>
5.18635

> <r_epik_Charging_Adjusted_Penalty>
5.26231

> <i_epik_Tot_Q>
-1

> <i_epik_Tot_abs_Q>
1

> <r_epik_Metal_State_Penalty>
1.25614

> <b_epik_Metal_Only>
1

> <s_lp_Force_Field>
OPLS_2005

> <r_lp_Energy>
39.3002

> <b_lp_Chiralities_Consistent>
1

> <s_lp_Variant>
AV-unprocessed.smi:2559-4

> <Gold.Version>
5.8.1

> <Gold.Id.Protein>
6NUR|6NUR_protein|mol2

> <Gold.PLP.Fitness>
51.9027

> <Gold.PLP.PLP>
-40.0218

> <Gold.PLP.part.hbond>
-4.4272

> <Gold.PLP.part.metal>
0.0000

> <Gold.PLP.part.buried>
-5.7627

> <Gold.PLP.part.nonpolar>
-29.9495

> <Gold.PLP.part.repulsive>
0.0851

> <Gold.PLP.ligand.clash>
0.0000

> <Gold.PLP.ligand.torsion>
0.3790

> <Gold.PLP.Chemscore.Hbond>
4.0053

> <Gold.PLP.Chemscore.CHOScore>
0.0000

> <Gold.PLP.Chemscore.Metal>
0.0000

> <Gold.Chemscore.Hbonds>
donor molecule, donor type, donor heavy atom, donor atom, acceptor molecule, acceptor atom, score
      L1  H    23    43       P1  7957  0.21
      P1  H  8011  8017       L1    23  0.96
      P1  H 10752 10764       L1     4  0.25

> <Gold.PLP.Chemscore.Internal.Correction>
0.6230

> <Gold.Rescore>
     Score         DG    S(hbond)    S(metal)    S(lipo)     H(rot)  DE(clash)    DE(int)     intcor
     13.16     -14.55       2.07        0.00      82.61       2.93       0.01       1.38       ----

> <Gold.Chemscore.Fitness>
13.1599

> <Gold.Chemscore.DG>
-14.5492

> <Gold.Chemscore.ZeroCoef>
-5.4800

> <Gold.Chemscore.Hbond>
2.0694

> <Gold.Chemscore.Metal>
0.0000

> <Gold.Chemscore.Lipo>
82.6129

> <Gold.Chemscore.Internal_Hbond>
0.0000

> <Gold.Chemscore.DEClash>
0.0067

> <Gold.Chemscore.DEInternal>
1.3827

> <Gold.Chemscore.Rot>
2.9330

> <Gold.Chemscore.Internal.Correction>
   9.000000E+99

> <Gold.Chemscore.Hbonds>
donor molecule, donor type, donor heavy atom, donor atom, acceptor molecule, acceptor atom, score
      L1  H    23    43       P1  7957  0.22
      P1  H  8011  8017       L1    23  0.41

> <Gold.Chemscore.Hbond.Weighted>
-6.9119

> <Gold.Chemscore.Metal.Weighted>
-0.0000

> <Gold.Chemscore.Lipo.Weighted>
-9.6657

> <Gold.Chemscore.Internal_Hbond.Weighted>
0.0000

> <Gold.Chemscore.DEClash.Weighted>
0.0067

> <Gold.Chemscore.DEInternal.Weighted>
1.3827

> <Gold.Chemscore.Rot.Weighted>
7.5084

> <Gold.Chemscore.Internal.Correction.Weighted>
   9.000000E+99

> <Gold.Protein.RotatedTorsions>
[ 6907 6896 6895 6894 ] final -157.20 input  -60.11 | X-H torsion
[ 7974 7965 7964 7962 ] final   41.29 input  175.53 | X-H torsion
[ 8008 7997 7996 7995 ] final  -83.90 input   59.86 | X-H torsion
[ 10167 10162 10161 10158 ] final  -77.59 input  -65.29 | X-H torsion
[ 10718 10713 10712 10709 ] final   96.49 input   66.30 | X-H torsion
[ 10763 10752 10751 10750 ] final   -6.20 input  -60.55 | X-H torsion
[ 11005 11000 10999 10996 ] final  102.24 input  -57.11 | X-H torsion

> <Gold.Protein.ActiveResidues>
 VAL166  LYS551  ARG553  GLY616  TRP617  ASP618  TYR619  PRO620  LYS621  CYS622 
 ASP623  PHE694  ASN695  SER759  ASP760  ASP761  ALA762  ILE779  LEU786  VAL792 
 PHE793  MET794  SER795  GLU796  ALA797  LYS798  CYS799  TRP800  GLU811  SER814 

> <Gold.Protein.RotatedAtoms>
  151.2993  133.4129  159.2638 H   0  0  0  0  0  0  0  0  0  0  0  0  # atno 6907 bound_to 6896
  151.0209  134.9469  159.8069 H   0  0  0  0  0  0  0  0  0  0  0  0  # atno 6908 bound_to 6896
  152.5324  134.2956  159.9112 H   0  0  0  0  0  0  0  0  0  0  0  0  # atno 6909 bound_to 6896
  146.0835  139.5433  142.9521 H   0  0  0  0  0  0  0  0  0  0  0  0  # atno 7974 bound_to 7965
  154.6240  140.0612  156.9650 H   0  0  0  0  0  0  0  0  0  0  0  0  # atno 8008 bound_to 7997
  155.1772  140.3296  155.4363 H   0  0  0  0  0  0  0  0  0  0  0  0  # atno 8009 bound_to 7997
  156.2447  140.1904  156.6870 H   0  0  0  0  0  0  0  0  0  0  0  0  # atno 8010 bound_to 7997
  140.4756  143.2415  151.8137 H   0  0  0  0  0  0  0  0  0  0  0  0  # atno 10167 bound_to 10162
  157.6926  131.0579  150.4499 H   0  0  0  0  0  0  0  0  0  0  0  0  # atno 10718 bound_to 10713
  153.4091  135.7007  153.6372 H   0  0  0  0  0  0  0  0  0  0  0  0  # atno 10763 bound_to 10752
  153.4874  135.3680  155.2474 H   0  0  0  0  0  0  0  0  0  0  0  0  # atno 10764 bound_to 10752
  154.8716  135.4080  154.3439 H   0  0  0  0  0  0  0  0  0  0  0  0  # atno 10765 bound_to 10752
  139.8776  134.9216  156.5028 H   0  0  0  0  0  0  0  0  0  0  0  0  # atno 11005 bound_to 11000
  145.6173  141.0329  143.1934 LP  0  0  0  0  0  0  0  0  0  0  0  0  # atno 17320 bound_to 7965
  144.7310  139.7727  143.7347 LP  0  0  0  0  0  0  0  0  0  0  0  0  # atno 17321 bound_to 7965
  139.4825  144.4837  151.9274 LP  0  0  0  0  0  0  0  0  0  0  0  0  # atno 17342 bound_to 10162
  140.3922  144.2601  150.5899 LP  0  0  0  0  0  0  0  0  0  0  0  0  # atno 17343 bound_to 10162
  156.4851  130.4082  149.6439 LP  0  0  0  0  0  0  0  0  0  0  0  0  # atno 17370 bound_to 10713
  156.3470  130.7412  151.2366 LP  0  0  0  0  0  0  0  0  0  0  0  0  # atno 17371 bound_to 10713
  140.8577  133.8083  155.9233 LP  0  0  0  0  0  0  0  0  0  0  0  0  # atno 17394 bound_to 11000
  140.9081  134.2295  157.5002 LP  0  0  0  0  0  0  0  0  0  0  0  0  # atno 17395 bound_to 11000

$$$$
