AV-unprocessed.smi:3137|AV-procd|sdf|11953|dock9
  -GOLD-   2272017353D 1   1.00000     0.00000
 Structure written by MMmdl.
 40 40  0  0  0  0  0  0  0  0  2 V2000
  141.9872  137.9537  152.7073 C   0  0  0  0  0  0  0  0  0  0  0  0
  143.2669  137.1381  152.4990 C   0  0  0  0  0  0  0  0  0  0  0  0
  144.4085  138.0180  152.2909 N   0  0  0  0  0  0  0  0  0  0  0  0
  145.6227  137.6028  151.9023 C   0  0  0  0  0  0  0  0  0  0  0  0
  145.8923  136.4214  151.6846 O   0  0  0  0  0  0  0  0  0  0  0  0
  146.6920  138.6884  151.7429 C   0  0  0  0  0  0  0  0  0  0  0  0
  147.2961  139.1372  153.0843 C   0  0  0  0  0  0  0  0  0  0  0  0
  148.7186  138.7457  153.1794 N   0  3  0  0  0  0  0  0  0  0  0  0
  149.3806  139.0335  154.4737 C   0  0  1  0  0  0  0  0  0  0  0  0
  150.7639  138.3684  154.4831 C   0  0  0  0  0  0  0  0  0  0  0  0
  149.5154  140.5532  154.7285 C   0  0  0  0  0  0  0  0  0  0  0  0
  150.1748  140.8813  155.9794 N   0  0  0  0  0  0  0  0  0  0  0  0
  150.4931  142.1259  156.4812 C   0  0  0  0  0  0  0  0  0  0  0  0
  151.1133  141.9377  157.6838 C   0  0  0  0  0  0  0  0  0  0  0  0
  151.6472  142.9691  158.6354 C   0  0  0  0  0  0  0  0  0  0  0  0
  151.1420  140.5210  157.8239 C   0  0  0  0  0  0  0  0  0  0  0  0
  150.5849  139.8925  156.8017 N   0  0  0  0  0  0  0  0  0  0  0  0
  141.1314  137.2970  152.8638 H   0  0  0  0  0  0  0  0  0  0  0  0
  141.7712  138.5786  151.8402 H   0  0  0  0  0  0  0  0  0  0  0  0
  142.0703  138.6039  153.5788 H   0  0  0  0  0  0  0  0  0  0  0  0
  143.4478  136.5041  153.3681 H   0  0  0  0  0  0  0  0  0  0  0  0
  143.1517  136.4800  151.6367 H   0  0  0  0  0  0  0  0  0  0  0  0
  144.2644  139.0040  152.4542 H   0  0  0  0  0  0  0  0  0  0  0  0
  147.4842  138.3190  151.0898 H   0  0  0  0  0  0  0  0  0  0  0  0
  146.2378  139.5399  151.2356 H   0  0  0  0  0  0  0  0  0  0  0  0
  147.2042  140.2169  153.1862 H   0  0  0  0  0  0  0  0  0  0  0  0
  146.7442  138.6873  153.9109 H   0  0  0  0  0  0  0  0  0  0  0  0
  148.7527  137.7454  153.0441 H   0  0  0  0  0  0  0  0  0  0  0  0
  148.8053  138.5732  155.2784 H   0  0  0  0  0  0  0  0  0  0  0  0
  151.2677  138.5233  155.4377 H   0  0  0  0  0  0  0  0  0  0  0  0
  151.4061  138.7716  153.6994 H   0  0  0  0  0  0  0  0  0  0  0  0
  150.6836  137.2919  154.3283 H   0  0  0  0  0  0  0  0  0  0  0  0
  150.0955  141.0141  153.9277 H   0  0  0  0  0  0  0  0  0  0  0  0
  148.5349  141.0314  154.7112 H   0  0  0  0  0  0  0  0  0  0  0  0
  150.2498  143.0346  155.9506 H   0  0  0  0  0  0  0  0  0  0  0  0
  151.8215  142.5529  159.6280 H   0  0  0  0  0  0  0  0  0  0  0  0
  150.9564  143.8038  158.7550 H   0  0  0  0  0  0  0  0  0  0  0  0
  152.5949  143.3820  158.2894 H   0  0  0  0  0  0  0  0  0  0  0  0
  151.5501  139.9341  158.6337 H   0  0  0  0  0  0  0  0  0  0  0  0
  149.2427  139.1846  152.4360 H   0  0  0  0  0  0  0  0  0  0  0  0
  1  2  1  0  0  0  0
  1 18  1  0  0  0  0
  1 19  1  0  0  0  0
  1 20  1  0  0  0  0
  2  3  1  0  0  0  0
  2 21  1  0  0  0  0
  2 22  1  0  0  0  0
  3  4  1  0  0  0  0
  3 23  1  0  0  0  0
  4  5  2  0  0  0  0
  4  6  1  0  0  0  0
  6  7  1  0  0  0  0
  6 24  1  0  0  0  0
  6 25  1  0  0  0  0
  7  8  1  0  0  0  0
  7 26  1  0  0  0  0
  7 27  1  0  0  0  0
  8  9  1  0  0  0  0
  8 28  1  0  0  0  0
  8 40  1  0  0  0  0
  9 10  1  0  0  0  0
  9 11  1  0  0  0  0
  9 29  1  0  0  0  0
 10 30  1  0  0  0  0
 10 31  1  0  0  0  0
 10 32  1  0  0  0  0
 11 12  1  0  0  0  0
 11 33  1  0  0  0  0
 11 34  1  0  0  0  0
 12 17  1  0  0  0  0
 12 13  1  0  0  0  0
 13 14  2  0  0  0  0
 13 35  1  0  0  0  0
 14 15  1  0  0  0  0
 14 16  1  0  0  0  0
 15 36  1  0  0  0  0
 15 37  1  0  0  0  0
 15 38  1  0  0  0  0
 16 17  2  0  0  0  0
 16 39  1  0  0  0  0
M  CHG  1   8   1
M  END
> <s_m_source_file>
AV-unprocessed.smi

> <i_m_source_file_index>
3137

> <i_lp_mmshare_version>
43012

> <i_f3d_flags>
0

> <s_epik_input>
W0NIM11bQ0gyXVtOSF1DKD1PKVtDSDJdW0NIMl1bTkhdW0NASF0oW0NIM10pW0NIMl1uMVtjSF1jKFtDSDNdKVtjSF1uMQ==

> <s_epik_cmdline>
J2VwaWtfcHl0aG9uJywgJy1waCcsICc3LjAnLCAnLXRuJywgJzgnLCAnLW1hJywgJzIwMCcsICctbWV0YWxfYmluZGluZycsICctaW1hZScsICc8aW5maWxlLm1hZT4nLCAnLW9tYWUnLCAnPG91dGZpbGUubWFlPic=

> <r_lp_tautomer_probability>
1

> <r_epik_Ionization_Penalty>
0.00598586

> <r_epik_Ionization_Penalty_Charging>
0.00597743

> <r_epik_Ionization_Penalty_Neutral>
8.43172e-06

> <r_epik_State_Penalty>
0.00439883

> <r_epik_Charging_Adjusted_Penalty>
0.0103763

> <i_epik_Tot_Q>
1

> <i_epik_Tot_abs_Q>
1

> <r_epik_Metal_State_Penalty>
-0

> <b_epik_Metal_Only>
0

> <s_lp_Force_Field>
OPLS_2005

> <r_lp_Energy>
6.05872

> <b_lp_Chiralities_Consistent>
1

> <s_lp_Variant>
AV-unprocessed.smi:3137-2

> <Gold.Version>
5.8.1

> <Gold.Id.Protein>
6NUR|6NUR_protein|mol2

> <Gold.PLP.Fitness>
50.5849

> <Gold.PLP.PLP>
-36.9522

> <Gold.PLP.part.hbond>
-4.0000

> <Gold.PLP.part.metal>
0.0000

> <Gold.PLP.part.buried>
-2.0777

> <Gold.PLP.part.nonpolar>
-31.6104

> <Gold.PLP.part.repulsive>
0.8876

> <Gold.PLP.ligand.clash>
0.0000

> <Gold.PLP.ligand.torsion>
0.7133

> <Gold.PLP.Chemscore.Hbond>
4.0000

> <Gold.PLP.Chemscore.CHOScore>
1.0000

> <Gold.PLP.Chemscore.Metal>
0.0000

> <Gold.Chemscore.Hbonds>
donor molecule, donor type, donor heavy atom, donor atom, acceptor molecule, acceptor atom, score
      L1  H     3    23       P1 10175  1.00
      L1  H     8    28       P1  7948  1.95
      L1  H     8    40       P1  7957  1.00
      L1  C    13    35       P1  8028  1.00

> <Gold.PLP.Chemscore.Internal.Correction>
0.0592

> <Gold.Rescore>
     Score         DG    S(hbond)    S(metal)    S(lipo)     H(rot)  DE(clash)    DE(int)     intcor
     16.21     -18.65       2.92        0.00      79.48       2.30       0.14       2.30       ----

> <Gold.Chemscore.Fitness>
16.2084

> <Gold.Chemscore.DG>
-18.6518

> <Gold.Chemscore.ZeroCoef>
-5.4800

> <Gold.Chemscore.Hbond>
2.9196

> <Gold.Chemscore.Metal>
0.0000

> <Gold.Chemscore.Lipo>
79.4771

> <Gold.Chemscore.Internal_Hbond>
0.0000

> <Gold.Chemscore.DEClash>
0.1403

> <Gold.Chemscore.DEInternal>
2.3030

> <Gold.Chemscore.Rot>
2.2963

> <Gold.Chemscore.Internal.Correction>
   9.000000E+99

> <Gold.Chemscore.Hbonds>
donor molecule, donor type, donor heavy atom, donor atom, acceptor molecule, acceptor atom, score
      L1  H     3    23       P1 10175  0.96
      L1  H     8    28       P1  7948  0.92
      L1  H     8    40       P1  7957  0.96

> <Gold.Chemscore.Hbond.Weighted>
-9.7516

> <Gold.Chemscore.Metal.Weighted>
-0.0000

> <Gold.Chemscore.Lipo.Weighted>
-9.2988

> <Gold.Chemscore.Internal_Hbond.Weighted>
0.0000

> <Gold.Chemscore.DEClash.Weighted>
0.1403

> <Gold.Chemscore.DEInternal.Weighted>
2.3030

> <Gold.Chemscore.Rot.Weighted>
5.8786

> <Gold.Chemscore.Internal.Correction.Weighted>
   9.000000E+99

> <Gold.Protein.RotatedTorsions>
[ 6907 6896 6895 6894 ] final   39.72 input  -60.11 | X-H torsion
[ 7974 7965 7964 7962 ] final -156.84 input  175.53 | X-H torsion
[ 8008 7997 7996 7995 ] final -112.08 input   59.86 | X-H torsion
[ 10167 10162 10161 10158 ] final -100.31 input  -65.29 | X-H torsion
[ 10718 10713 10712 10709 ] final -134.45 input   66.30 | X-H torsion
[ 10763 10752 10751 10750 ] final   29.05 input  -60.55 | X-H torsion
[ 11005 11000 10999 10996 ] final  123.74 input  -57.11 | X-H torsion

> <Gold.Protein.ActiveResidues>
 VAL166  LYS551  ARG553  GLY616  TRP617  ASP618  TYR619  PRO620  LYS621  CYS622 
 ASP623  PHE694  ASN695  SER759  ASP760  ASP761  ALA762  ILE779  LEU786  VAL792 
 PHE793  MET794  SER795  GLU796  ALA797  LYS798  CYS799  TRP800  GLU811  SER814 

> <Gold.Protein.RotatedAtoms>
  152.1732  134.8817  160.0532 H   0  0  0  0  0  0  0  0  0  0  0  0  # atno 6907 bound_to 6896
  151.9769  133.3739  159.4100 H   0  0  0  0  0  0  0  0  0  0  0  0  # atno 6908 bound_to 6896
  150.6905  134.4004  159.5160 H   0  0  0  0  0  0  0  0  0  0  0  0  # atno 6909 bound_to 6896
  144.7575  140.4053  143.6001 H   0  0  0  0  0  0  0  0  0  0  0  0  # atno 7974 bound_to 7965
  154.9997  140.0394  157.2355 H   0  0  0  0  0  0  0  0  0  0  0  0  # atno 8008 bound_to 7997
  154.7554  140.2774  155.6235 H   0  0  0  0  0  0  0  0  0  0  0  0  # atno 8009 bound_to 7997
  156.2893  140.2639  156.2319 H   0  0  0  0  0  0  0  0  0  0  0  0  # atno 8010 bound_to 7997
  140.2533  143.3457  152.0694 H   0  0  0  0  0  0  0  0  0  0  0  0  # atno 10167 bound_to 10162
  156.2556  130.7179  151.1094 H   0  0  0  0  0  0  0  0  0  0  0  0  # atno 10718 bound_to 10713
  153.0454  135.6498  154.0831 H   0  0  0  0  0  0  0  0  0  0  0  0  # atno 10763 bound_to 10752
  154.0530  135.2894  155.3339 H   0  0  0  0  0  0  0  0  0  0  0  0  # atno 10764 bound_to 10752
  154.6707  135.5357  153.8201 H   0  0  0  0  0  0  0  0  0  0  0  0  # atno 10765 bound_to 10752
  139.9326  134.9641  156.8305 H   0  0  0  0  0  0  0  0  0  0  0  0  # atno 11005 bound_to 11000
  145.6731  139.1603  143.2743 LP  0  0  0  0  0  0  0  0  0  0  0  0  # atno 17320 bound_to 7965
  146.1601  140.6800  142.9281 LP  0  0  0  0  0  0  0  0  0  0  0  0  # atno 17321 bound_to 7965
  139.5039  144.6765  151.6114 LP  0  0  0  0  0  0  0  0  0  0  0  0  # atno 17342 bound_to 10162
  140.6024  143.9586  150.6395 LP  0  0  0  0  0  0  0  0  0  0  0  0  # atno 17343 bound_to 10162
  157.7231  131.0668  150.6050 LP  0  0  0  0  0  0  0  0  0  0  0  0  # atno 17370 bound_to 10713
  156.6134  130.4386  149.5850 LP  0  0  0  0  0  0  0  0  0  0  0  0  # atno 17371 bound_to 10713
  140.6160  134.0038  155.7597 LP  0  0  0  0  0  0  0  0  0  0  0  0  # atno 17394 bound_to 11000
  141.0923  133.9897  157.3216 LP  0  0  0  0  0  0  0  0  0  0  0  0  # atno 17395 bound_to 11000

$$$$
