AV-unprocessed.smi:1795|AV-procd|sdf|7240|dock8
  -GOLD-   22720 8493D 1   1.00000     0.00000
 Structure written by MMmdl.
 47 48  0  0  0  0  0  0  0  0  1 V2000
  142.7452  145.9048  155.7015 C   0  0  0  0  0  0  0  0  0  0  0  0
  142.8607  144.3879  155.5168 C   0  0  1  0  0  0  0  0  0  0  0  0
  144.3273  143.9171  155.5050 C   0  0  0  0  0  0  0  0  0  0  0  0
  144.4641  142.4589  155.4132 N   0  0  0  0  0  0  0  0  0  0  0  0
  145.8787  142.0185  155.4435 C   0  0  1  0  0  0  0  0  0  0  0  0
  146.7245  142.6315  154.2987 C   0  0  0  0  0  0  0  0  0  0  0  0
  146.5909  142.3107  156.7965 C   0  0  0  0  0  0  0  0  0  0  0  0
  148.0473  142.3278  156.6902 N   0  0  0  0  0  0  0  0  0  0  0  0
  148.8734  141.4788  157.3202 C   0  0  0  0  0  0  0  0  0  0  0  0
  148.4753  140.5718  158.0528 O   0  0  0  0  0  0  0  0  0  0  0  0
  150.3733  141.6804  157.0616 C   0  0  0  0  0  0  0  0  0  0  0  0
  151.0820  142.2946  158.1971 N   0  0  0  0  0  0  0  0  0  0  0  0
  150.6719  143.5850  158.5879 C   0  0  0  0  0  0  0  0  0  0  0  0
  151.2522  144.2354  159.6088 C   0  0  0  0  0  0  0  0  0  0  0  0
  152.3258  143.5776  160.3154 C   0  0  0  0  0  0  0  0  0  0  0  0
  152.7289  142.3452  159.9471 C   0  0  0  0  0  0  0  0  0  0  0  0
  152.0992  141.6317  158.8297 C   0  0  0  0  0  0  0  0  0  0  0  0
  152.4634  140.5072  158.4841 O   0  0  0  0  0  0  0  0  0  0  0  0
  143.6710  141.8645  156.4951 C   0  0  0  0  0  0  0  0  0  0  0  0
  142.2050  142.3375  156.4986 C   0  0  1  0  0  0  0  0  0  0  0  0
  141.4145  141.7648  157.6798 C   0  0  0  0  0  0  0  0  0  0  0  0
  142.1744  143.7559  156.5895 O   0  0  0  0  0  0  0  0  0  0  0  0
  143.2453  146.4380  154.8927 H   0  0  0  0  0  0  0  0  0  0  0  0
  143.1969  146.2226  156.6418 H   0  0  0  0  0  0  0  0  0  0  0  0
  141.7011  146.2182  155.7107 H   0  0  0  0  0  0  0  0  0  0  0  0
  142.3801  144.1121  154.5764 H   0  0  0  0  0  0  0  0  0  0  0  0
  144.8024  144.4024  154.6556 H   0  0  0  0  0  0  0  0  0  0  0  0
  144.8337  144.2779  156.4018 H   0  0  0  0  0  0  0  0  0  0  0  0
  145.8902  140.9368  155.3006 H   0  0  0  0  0  0  0  0  0  0  0  0
  147.7757  142.3533  154.3637 H   0  0  0  0  0  0  0  0  0  0  0  0
  146.6734  143.7207  154.3104 H   0  0  0  0  0  0  0  0  0  0  0  0
  146.4000  142.2882  153.3175 H   0  0  0  0  0  0  0  0  0  0  0  0
  146.2654  143.2761  157.1856 H   0  0  0  0  0  0  0  0  0  0  0  0
  146.3465  141.5761  157.5619 H   0  0  0  0  0  0  0  0  0  0  0  0
  148.4544  143.0401  156.1014 H   0  0  0  0  0  0  0  0  0  0  0  0
  150.8078  140.7099  156.8181 H   0  0  0  0  0  0  0  0  0  0  0  0
  150.5099  142.2871  156.1641 H   0  0  0  0  0  0  0  0  0  0  0  0
  149.8685  144.0100  158.0041 H   0  0  0  0  0  0  0  0  0  0  0  0
  150.9277  145.2262  159.8913 H   0  0  0  0  0  0  0  0  0  0  0  0
  152.8088  144.0766  161.1425 H   0  0  0  0  0  0  0  0  0  0  0  0
  153.5346  141.8694  160.4866 H   0  0  0  0  0  0  0  0  0  0  0  0
  143.6554  140.7797  156.4041 H   0  0  0  0  0  0  0  0  0  0  0  0
  144.1305  142.0953  157.4577 H   0  0  0  0  0  0  0  0  0  0  0  0
  141.7189  142.0297  155.5710 H   0  0  0  0  0  0  0  0  0  0  0  0
  141.3977  140.6753  157.6495 H   0  0  0  0  0  0  0  0  0  0  0  0
  140.3816  142.1134  157.6620 H   0  0  0  0  0  0  0  0  0  0  0  0
  141.8521  142.0673  158.6316 H   0  0  0  0  0  0  0  0  0  0  0  0
  1  2  1  0  0  0  0
  1 23  1  0  0  0  0
  1 24  1  0  0  0  0
  1 25  1  0  0  0  0
  2 22  1  0  0  0  0
  2  3  1  0  0  0  0
  2 26  1  0  0  0  0
  3  4  1  0  0  0  0
  3 27  1  0  0  0  0
  3 28  1  0  0  0  0
  4  5  1  0  0  0  0
  4 19  1  0  0  0  0
  5  6  1  0  0  0  0
  5  7  1  0  0  0  0
  5 29  1  0  0  0  0
  6 30  1  0  0  0  0
  6 31  1  0  0  0  0
  6 32  1  0  0  0  0
  7  8  1  0  0  0  0
  7 33  1  0  0  0  0
  7 34  1  0  0  0  0
  8  9  1  0  0  0  0
  8 35  1  0  0  0  0
  9 10  2  0  0  0  0
  9 11  1  0  0  0  0
 11 12  1  0  0  0  0
 11 36  1  0  0  0  0
 11 37  1  0  0  0  0
 12 17  1  0  0  0  0
 12 13  1  0  0  0  0
 13 14  2  0  0  0  0
 13 38  1  0  0  0  0
 14 15  1  0  0  0  0
 14 39  1  0  0  0  0
 15 16  2  0  0  0  0
 15 40  1  0  0  0  0
 16 17  1  0  0  0  0
 16 41  1  0  0  0  0
 17 18  2  0  0  0  0
 19 20  1  0  0  0  0
 19 42  1  0  0  0  0
 19 43  1  0  0  0  0
 20 21  1  0  0  0  0
 20 22  1  0  0  0  0
 20 44  1  0  0  0  0
 21 45  1  0  0  0  0
 21 46  1  0  0  0  0
 21 47  1  0  0  0  0
M  END
> <s_m_source_file>
AV-unprocessed.smi

> <i_m_source_file_index>
1795

> <i_lp_mmshare_version>
43012

> <i_f3d_flags>
0

> <s_epik_input>
W0NIM11bQ0BASF0xW0NIMl1OKFtDSDJdW0NASF0oTzEpW0NIM10pW0NASF0oW0NIM10pW0NIMl1bTkhdQyg9TylbQ0gyXW4yW2NIXVtjSF1bY0hdW2NIXWMyPU8=

> <s_epik_cmdline>
J2VwaWtfcHl0aG9uJywgJy1waCcsICc3LjAnLCAnLXRuJywgJzgnLCAnLW1hJywgJzIwMCcsICctbWV0YWxfYmluZGluZycsICctaW1hZScsICc8aW5maWxlLm1hZT4nLCAnLW9tYWUnLCAnPG91dGZpbGUubWFlPic=

> <r_lp_tautomer_probability>
1

> <r_epik_Ionization_Penalty>
0.237383

> <r_epik_Ionization_Penalty_Charging>
3.58805e-07

> <r_epik_Ionization_Penalty_Neutral>
0.237382

> <r_epik_State_Penalty>
0.228245

> <r_epik_Charging_Adjusted_Penalty>
0.228245

> <i_epik_Tot_Q>
0

> <i_epik_Tot_abs_Q>
0

> <r_epik_Metal_State_Penalty>
0.228221

> <b_epik_Metal_Only>
0

> <s_lp_Force_Field>
OPLS_2005

> <r_lp_Energy>
36.5227

> <b_lp_Chiralities_Consistent>
1

> <s_lp_Variant>
AV-unprocessed.smi:1795-4

> <Gold.Version>
5.8.1

> <Gold.Id.Protein>
6NUR|6NUR_protein|mol2

> <Gold.PLP.Fitness>
40.2098

> <Gold.PLP.PLP>
-35.2206

> <Gold.PLP.part.hbond>
-1.6793

> <Gold.PLP.part.metal>
0.0000

> <Gold.PLP.part.buried>
-5.1761

> <Gold.PLP.part.nonpolar>
-29.1731

> <Gold.PLP.part.repulsive>
0.2317

> <Gold.PLP.ligand.clash>
0.0110

> <Gold.PLP.ligand.torsion>
0.4566

> <Gold.PLP.Chemscore.Hbond>
0.8320

> <Gold.PLP.Chemscore.CHOScore>
1.1206

> <Gold.PLP.Chemscore.Metal>
0.0000

> <Gold.Chemscore.Hbonds>
donor molecule, donor type, donor heavy atom, donor atom, acceptor molecule, acceptor atom, score
      L1  H     8    35       P1  8028  1.00
      L1  C    13    38       P1  8028  0.79
      L1  C    13    38       P1  8029  0.09

> <Gold.PLP.Chemscore.Internal.Correction>
0.0557

> <Gold.Rescore>
     Score         DG    S(hbond)    S(metal)    S(lipo)     H(rot)  DE(clash)    DE(int)     intcor
     12.72     -13.14       0.86        0.00      80.77       1.83       0.01       0.40       ----

> <Gold.Chemscore.Fitness>
12.7208

> <Gold.Chemscore.DG>
-13.1377

> <Gold.Chemscore.ZeroCoef>
-5.4800

> <Gold.Chemscore.Hbond>
0.8624

> <Gold.Chemscore.Metal>
0.0000

> <Gold.Chemscore.Lipo>
80.7663

> <Gold.Chemscore.Internal_Hbond>
0.0000

> <Gold.Chemscore.DEClash>
0.0139

> <Gold.Chemscore.DEInternal>
0.4029

> <Gold.Chemscore.Rot>
1.8251

> <Gold.Chemscore.Internal.Correction>
   9.000000E+99

> <Gold.Chemscore.Hbonds>
donor molecule, donor type, donor heavy atom, donor atom, acceptor molecule, acceptor atom, score
      L1  H     8    35       P1  8028  0.90

> <Gold.Chemscore.Hbond.Weighted>
-2.8804

> <Gold.Chemscore.Metal.Weighted>
-0.0000

> <Gold.Chemscore.Lipo.Weighted>
-9.4497

> <Gold.Chemscore.Internal_Hbond.Weighted>
0.0000

> <Gold.Chemscore.DEClash.Weighted>
0.0139

> <Gold.Chemscore.DEInternal.Weighted>
0.4029

> <Gold.Chemscore.Rot.Weighted>
4.6724

> <Gold.Chemscore.Internal.Correction.Weighted>
   9.000000E+99

> <Gold.Protein.RotatedTorsions>
[ 6907 6896 6895 6894 ] final  153.39 input  -60.11 | X-H torsion
[ 7974 7965 7964 7962 ] final  -72.02 input  175.53 | X-H torsion
[ 8008 7997 7996 7995 ] final  -50.28 input   59.86 | X-H torsion
[ 10167 10162 10161 10158 ] final -177.59 input  -65.29 | X-H torsion
[ 10718 10713 10712 10709 ] final   25.18 input   66.30 | X-H torsion
[ 10763 10752 10751 10750 ] final   80.55 input  -60.55 | X-H torsion
[ 11005 11000 10999 10996 ] final   11.81 input  -57.11 | X-H torsion

> <Gold.Protein.ActiveResidues>
 VAL166  LYS551  ARG553  GLY616  TRP617  ASP618  TYR619  PRO620  LYS621  CYS622 
 ASP623  PHE694  ASN695  SER759  ASP760  ASP761  ALA762  ILE779  LEU786  VAL792 
 PHE793  MET794  SER795  GLU796  ALA797  LYS798  CYS799  TRP800  GLU811  SER814 

> <Gold.Protein.RotatedAtoms>
  152.0734  133.4117  159.4468 H   0  0  0  0  0  0  0  0  0  0  0  0  # atno 6907 bound_to 6896
  150.6863  134.3065  159.4737 H   0  0  0  0  0  0  0  0  0  0  0  0  # atno 6908 bound_to 6896
  152.0900  134.9413  160.0622 H   0  0  0  0  0  0  0  0  0  0  0  0  # atno 6909 bound_to 6896
  145.6706  140.9222  143.0885 H   0  0  0  0  0  0  0  0  0  0  0  0  # atno 7974 bound_to 7965
  154.4059  140.1276  156.4639 H   0  0  0  0  0  0  0  0  0  0  0  0  # atno 8008 bound_to 7997
  155.7245  140.3492  155.5011 H   0  0  0  0  0  0  0  0  0  0  0  0  # atno 8009 bound_to 7997
  155.9184  140.1048  157.1216 H   0  0  0  0  0  0  0  0  0  0  0  0  # atno 8010 bound_to 7997
  139.5473  144.2203  152.1011 H   0  0  0  0  0  0  0  0  0  0  0  0  # atno 10167 bound_to 10162
  157.1898  130.6841  149.6145 H   0  0  0  0  0  0  0  0  0  0  0  0  # atno 10718 bound_to 10713
  153.1043  135.4798  154.8923 H   0  0  0  0  0  0  0  0  0  0  0  0  # atno 10763 bound_to 10752
  154.7413  135.3083  154.8725 H   0  0  0  0  0  0  0  0  0  0  0  0  # atno 10764 bound_to 10752
  153.9333  135.6842  153.4798 H   0  0  0  0  0  0  0  0  0  0  0  0  # atno 10765 bound_to 10752
  140.4991  134.0764  155.7789 H   0  0  0  0  0  0  0  0  0  0  0  0  # atno 11005 bound_to 11000
  144.7058  139.8567  143.7430 LP  0  0  0  0  0  0  0  0  0  0  0  0  # atno 17320 bound_to 7965
  146.1049  139.4048  143.0324 LP  0  0  0  0  0  0  0  0  0  0  0  0  # atno 17321 bound_to 7965
  140.1691  144.4952  150.6589 LP  0  0  0  0  0  0  0  0  0  0  0  0  # atno 17342 bound_to 10162
  140.6725  143.2291  151.5590 LP  0  0  0  0  0  0  0  0  0  0  0  0  # atno 17343 bound_to 10162
  155.9713  130.4618  150.6124 LP  0  0  0  0  0  0  0  0  0  0  0  0  # atno 17370 bound_to 10713
  157.3871  131.0790  151.1426 LP  0  0  0  0  0  0  0  0  0  0  0  0  # atno 17371 bound_to 10713
  141.1445  133.9080  157.2248 LP  0  0  0  0  0  0  0  0  0  0  0  0  # atno 17394 bound_to 11000
  139.9724  135.0124  156.9545 LP  0  0  0  0  0  0  0  0  0  0  0  0  # atno 17395 bound_to 11000

$$$$
