AV-unprocessed.smi:1736|AV-procd|sdf|6992|dock1
  -GOLD-   22720 8203D 1   1.00000     0.00000
 Structure written by MMmdl.
 44 45  0  0  0  0  0  0  0  0  1 V2000
  151.9549  142.1604  159.1537 C   0  0  0  0  0  0  0  0  0  0  0  0
  151.6145  141.4179  157.9499 N   0  0  0  0  0  0  0  0  0  0  0  0
  150.9121  140.1773  158.2644 C   0  0  0  0  0  0  0  0  0  0  0  0
  150.5638  139.3866  156.9898 C   0  0  0  0  0  0  0  0  0  0  0  0
  149.7287  140.1742  156.0675 N   0  0  0  0  0  0  0  0  0  0  0  0
  149.2421  139.4293  154.8720 C   0  0  0  0  0  0  0  0  0  0  0  0
  148.4633  140.3233  153.8769 C   0  0  0  0  0  0  0  0  0  0  0  0
  150.4241  138.8008  154.0908 C   0  0  0  0  0  0  0  0  0  0  0  0
  148.2970  138.2566  155.2693 C   0  0  0  0  0  0  0  0  0  0  0  0
  147.8313  137.4848  154.1174 N   0  0  0  0  0  0  0  0  0  0  0  0
  146.5704  137.0866  153.8981 C   0  0  0  0  0  0  0  0  0  0  0  0
  145.6372  137.3167  154.6672 O   0  0  0  0  0  0  0  0  0  0  0  0
  146.4676  136.4194  152.7376 N   0  0  0  0  0  0  0  0  0  0  0  0
  145.2969  135.8538  152.1738 C   0  0  0  0  0  0  0  0  0  0  0  0
  144.0780  135.4792  152.8118 C   0  0  0  0  0  0  0  0  0  0  0  0
  143.2135  134.9809  151.9389 N   0  0  0  0  0  0  0  0  0  0  0  0
  143.8656  135.0336  150.7557 N   0  0  0  0  0  0  0  0  0  0  0  0
  145.1359  135.5570  150.8534 C   0  0  0  0  0  0  0  0  0  0  0  0
  150.4402  141.4275  155.7671 C   0  0  0  0  0  0  0  0  0  0  0  0
  150.7842  142.2097  157.0477 C   0  0  0  0  0  0  0  0  0  0  0  0
  143.4348  134.7122  149.9005 H   0  0  0  0  0  0  0  0  0  0  0  0
  152.5907  141.5637  159.8085 H   0  0  0  0  0  0  0  0  0  0  0  0
  151.0601  142.4403  159.7112 H   0  0  0  0  0  0  0  0  0  0  0  0
  152.4988  143.0720  158.9038 H   0  0  0  0  0  0  0  0  0  0  0  0
  151.5327  139.5579  158.9131 H   0  0  0  0  0  0  0  0  0  0  0  0
  149.9989  140.3941  158.8212 H   0  0  0  0  0  0  0  0  0  0  0  0
  151.4866  139.0766  156.4992 H   0  0  0  0  0  0  0  0  0  0  0  0
  150.0493  138.4785  157.2988 H   0  0  0  0  0  0  0  0  0  0  0  0
  148.1347  139.7484  153.0101 H   0  0  0  0  0  0  0  0  0  0  0  0
  149.0712  141.1433  153.4955 H   0  0  0  0  0  0  0  0  0  0  0  0
  147.5681  140.7546  154.3239 H   0  0  0  0  0  0  0  0  0  0  0  0
  150.0746  138.1032  153.3286 H   0  0  0  0  0  0  0  0  0  0  0  0
  151.0962  138.2505  154.7502 H   0  0  0  0  0  0  0  0  0  0  0  0
  151.0184  139.5494  153.5672 H   0  0  0  0  0  0  0  0  0  0  0  0
  148.7959  137.5662  155.9491 H   0  0  0  0  0  0  0  0  0  0  0  0
  147.4492  138.6332  155.8447 H   0  0  0  0  0  0  0  0  0  0  0  0
  148.5263  137.2566  153.4219 H   0  0  0  0  0  0  0  0  0  0  0  0
  147.3144  136.3074  152.1999 H   0  0  0  0  0  0  0  0  0  0  0  0
  143.7893  135.5465  153.8502 H   0  0  0  0  0  0  0  0  0  0  0  0
  145.7906  135.6679  150.0014 H   0  0  0  0  0  0  0  0  0  0  0  0
  151.3587  141.2222  155.2168 H   0  0  0  0  0  0  0  0  0  0  0  0
  149.8340  142.0772  155.1391 H   0  0  0  0  0  0  0  0  0  0  0  0
  149.8640  142.5102  157.5516 H   0  0  0  0  0  0  0  0  0  0  0  0
  151.3061  143.1286  156.7783 H   0  0  0  0  0  0  0  0  0  0  0  0
  1  2  1  0  0  0  0
  1 22  1  0  0  0  0
  1 23  1  0  0  0  0
  1 24  1  0  0  0  0
  2 20  1  0  0  0  0
  2  3  1  0  0  0  0
  3  4  1  0  0  0  0
  3 25  1  0  0  0  0
  3 26  1  0  0  0  0
  4  5  1  0  0  0  0
  4 27  1  0  0  0  0
  4 28  1  0  0  0  0
  5  6  1  0  0  0  0
  5 19  1  0  0  0  0
  6  7  1  0  0  0  0
  6  8  1  0  0  0  0
  6  9  1  0  0  0  0
  7 29  1  0  0  0  0
  7 30  1  0  0  0  0
  7 31  1  0  0  0  0
  8 32  1  0  0  0  0
  8 33  1  0  0  0  0
  8 34  1  0  0  0  0
  9 10  1  0  0  0  0
  9 35  1  0  0  0  0
  9 36  1  0  0  0  0
 10 11  1  0  0  0  0
 10 37  1  0  0  0  0
 11 12  2  0  0  0  0
 11 13  1  0  0  0  0
 13 14  1  0  0  0  0
 13 38  1  0  0  0  0
 14 18  2  0  0  0  0
 14 15  1  0  0  0  0
 15 16  2  0  0  0  0
 15 39  1  0  0  0  0
 16 17  1  0  0  0  0
 17 21  1  0  0  0  0
 17 18  1  0  0  0  0
 18 40  1  0  0  0  0
 19 20  1  0  0  0  0
 19 41  1  0  0  0  0
 19 42  1  0  0  0  0
 20 43  1  0  0  0  0
 20 44  1  0  0  0  0
M  END
> <s_m_source_file>
AV-unprocessed.smi

> <i_m_source_file_index>
1736

> <i_lp_mmshare_version>
43012

> <i_f3d_flags>
0

> <s_epik_input>
W0NIM11OMVtDSDJdW0NIMl1OKFtDSDJdW0NIMl0xKUMoW0NIM10pKFtDSDNdKVtDSDJdW05IXUMoPU8pW05IXWMyW2NIXW5bbkhdW2NIXTI=

> <s_epik_cmdline>
J2VwaWtfcHl0aG9uJywgJy1waCcsICc3LjAnLCAnLXRuJywgJzgnLCAnLW1hJywgJzIwMCcsICctbWV0YWxfYmluZGluZycsICctaW1hZScsICc8aW5maWxlLm1hZT4nLCAnLW9tYWUnLCAnPG91dGZpbGUubWFlPic=

> <r_lp_tautomer_probability>
0.5

> <r_epik_Ionization_Penalty>
3.08539

> <r_epik_Ionization_Penalty_Charging>
0

> <r_epik_Ionization_Penalty_Neutral>
3.08539

> <r_epik_State_Penalty>
2.1584

> <r_epik_Charging_Adjusted_Penalty>
2.1584

> <i_epik_Tot_Q>
0

> <i_epik_Tot_abs_Q>
0

> <r_epik_Metal_State_Penalty>
2.1584

> <b_epik_Metal_Only>
0

> <s_lp_Force_Field>
OPLS_2005

> <r_lp_Energy>
53.1153

> <b_lp_Chiralities_Consistent>
1

> <s_lp_Variant>
AV-unprocessed.smi:1736-3

> <Gold.Version>
5.8.1

> <Gold.Id.Protein>
6NUR|6NUR_protein|mol2

> <Gold.PLP.Fitness>
34.8073

> <Gold.PLP.PLP>
-26.3787

> <Gold.PLP.part.hbond>
-2.6419

> <Gold.PLP.part.metal>
0.0000

> <Gold.PLP.part.buried>
-3.3113

> <Gold.PLP.part.nonpolar>
-21.4378

> <Gold.PLP.part.repulsive>
0.3416

> <Gold.PLP.ligand.clash>
0.0000

> <Gold.PLP.ligand.torsion>
0.2923

> <Gold.PLP.Chemscore.Hbond>
1.9600

> <Gold.PLP.Chemscore.CHOScore>
1.0000

> <Gold.PLP.Chemscore.Metal>
0.0000

> <Gold.Chemscore.Hbonds>
donor molecule, donor type, donor heavy atom, donor atom, acceptor molecule, acceptor atom, score
      L1  H    10    37       P1  7948  0.96
      L1  H    13    38       P1  7948  1.00
      L1  C    18    40       P1  7921  1.00

> <Gold.PLP.Chemscore.Internal.Correction>
0.1332

> <Gold.Rescore>
     Score         DG    S(hbond)    S(metal)    S(lipo)     H(rot)  DE(clash)    DE(int)     intcor
     15.85     -17.10       2.48        0.00      63.31       1.59       0.21       1.05       ----

> <Gold.Chemscore.Fitness>
15.8511

> <Gold.Chemscore.DG>
-17.1049

> <Gold.Chemscore.ZeroCoef>
-5.4800

> <Gold.Chemscore.Hbond>
2.4814

> <Gold.Chemscore.Metal>
0.0000

> <Gold.Chemscore.Lipo>
63.3137

> <Gold.Chemscore.Internal_Hbond>
0.0000

> <Gold.Chemscore.DEClash>
0.2052

> <Gold.Chemscore.DEInternal>
1.0486

> <Gold.Chemscore.Rot>
1.5901

> <Gold.Chemscore.Internal.Correction>
   9.000000E+99

> <Gold.Chemscore.Hbonds>
donor molecule, donor type, donor heavy atom, donor atom, acceptor molecule, acceptor atom, score
      L1  H    10    37       P1  7948  0.92
      L1  H    13    38       P1  7948  0.99
      L1  H    17    21       P1 10186  0.02

> <Gold.Chemscore.Hbond.Weighted>
-8.2878

> <Gold.Chemscore.Metal.Weighted>
-0.0000

> <Gold.Chemscore.Lipo.Weighted>
-7.4077

> <Gold.Chemscore.Internal_Hbond.Weighted>
0.0000

> <Gold.Chemscore.DEClash.Weighted>
0.2052

> <Gold.Chemscore.DEInternal.Weighted>
1.0486

> <Gold.Chemscore.Rot.Weighted>
4.0706

> <Gold.Chemscore.Internal.Correction.Weighted>
   9.000000E+99

> <Gold.Protein.RotatedTorsions>
[ 6907 6896 6895 6894 ] final   -1.02 input  -60.11 | X-H torsion
[ 7974 7965 7964 7962 ] final   83.52 input  175.53 | X-H torsion
[ 8008 7997 7996 7995 ] final  -83.11 input   59.86 | X-H torsion
[ 10167 10162 10161 10158 ] final   81.91 input  -65.29 | X-H torsion
[ 10718 10713 10712 10709 ] final  111.49 input   66.30 | X-H torsion
[ 10763 10752 10751 10750 ] final  -52.76 input  -60.55 | X-H torsion
[ 11005 11000 10999 10996 ] final  157.41 input  -57.11 | X-H torsion

> <Gold.Protein.ActiveResidues>
 VAL166  LYS551  ARG553  GLY616  TRP617  ASP618  TYR619  PRO620  LYS621  CYS622 
 ASP623  PHE694  ASN695  SER759  ASP760  ASP761  ALA762  ILE779  LEU786  VAL792 
 PHE793  MET794  SER795  GLU796  ALA797  LYS798  CYS799  TRP800  GLU811  SER814 

> <Gold.Protein.RotatedAtoms>
  151.5528  135.1067  159.9953 H   0  0  0  0  0  0  0  0  0  0  0  0  # atno 6907 bound_to 6896
  152.4483  133.7576  159.6739 H   0  0  0  0  0  0  0  0  0  0  0  0  # atno 6908 bound_to 6896
  150.8405  133.7877  159.3087 H   0  0  0  0  0  0  0  0  0  0  0  0  # atno 6909 bound_to 6896
  145.6109  139.2368  143.2193 H   0  0  0  0  0  0  0  0  0  0  0  0  # atno 7974 bound_to 7965
  154.6156  140.0623  156.9550 H   0  0  0  0  0  0  0  0  0  0  0  0  # atno 8008 bound_to 7997
  155.1901  140.3306  155.4342 H   0  0  0  0  0  0  0  0  0  0  0  0  # atno 8009 bound_to 7997
  156.2402  140.1882  156.6991 H   0  0  0  0  0  0  0  0  0  0  0  0  # atno 8010 bound_to 7997
  139.9343  144.6132  150.8314 H   0  0  0  0  0  0  0  0  0  0  0  0  # atno 10167 bound_to 10162
  157.6442  131.0951  150.6756 H   0  0  0  0  0  0  0  0  0  0  0  0  # atno 10718 bound_to 10713
  154.1480  135.6494  153.4957 H   0  0  0  0  0  0  0  0  0  0  0  0  # atno 10763 bound_to 10752
  153.0146  135.5331  154.6837 H   0  0  0  0  0  0  0  0  0  0  0  0  # atno 10764 bound_to 10752
  154.6117  135.2954  155.0396 H   0  0  0  0  0  0  0  0  0  0  0  0  # atno 10765 bound_to 10752
  140.1767  134.8505  157.2755 H   0  0  0  0  0  0  0  0  0  0  0  0  # atno 11005 bound_to 11000
  146.1505  140.6932  142.9324 LP  0  0  0  0  0  0  0  0  0  0  0  0  # atno 17320 bound_to 7965
  144.7270  140.4556  143.6965 LP  0  0  0  0  0  0  0  0  0  0  0  0  # atno 17321 bound_to 7965
  140.7629  143.3209  151.2624 LP  0  0  0  0  0  0  0  0  0  0  0  0  # atno 17342 bound_to 10162
  139.6757  143.9943  152.2779 LP  0  0  0  0  0  0  0  0  0  0  0  0  # atno 17343 bound_to 10162
  156.7076  130.4642  149.5556 LP  0  0  0  0  0  0  0  0  0  0  0  0  # atno 17370 bound_to 10713
  156.1752  130.6463  151.0886 LP  0  0  0  0  0  0  0  0  0  0  0  0  # atno 17371 bound_to 10713
  140.2314  134.3904  155.7520 LP  0  0  0  0  0  0  0  0  0  0  0  0  # atno 17394 bound_to 11000
  141.2221  133.7217  156.8647 LP  0  0  0  0  0  0  0  0  0  0  0  0  # atno 17395 bound_to 11000

$$$$
