AV-unprocessed.smi:1208|AV-procd|sdf|5066|dock4
  -GOLD-   22720 4103D 1   1.00000     0.00000
 Structure written by MMmdl.
 36 37  0  0  0  0  0  0  0  0  1 V2000
  151.8518  138.0612  159.3362 C   0  0  0  0  0  0  0  0  0  0  0  0
  152.8626  138.8804  158.5207 C   0  0  1  0  0  0  0  0  0  0  0  0
  152.4280  138.9127  157.1256 N   0  0  0  0  0  0  0  0  0  0  0  0
  152.8121  138.0619  156.1610 C   0  0  0  0  0  0  0  0  0  0  0  0
  153.5687  137.1099  156.3568 O   0  0  0  0  0  0  0  0  0  0  0  0
  152.2413  138.3279  154.7612 C   0  0  0  0  0  0  0  0  0  0  0  0
  150.7719  138.3351  154.7346 N   0  0  0  0  0  0  0  0  0  0  0  0
  150.2146  139.5750  154.4609 N   0  0  0  0  0  0  0  0  0  0  0  0
  148.9323  139.7112  154.4239 C   0  0  0  0  0  0  0  0  0  0  0  0
  148.4228  140.9574  154.1541 O   0  0  0  0  0  0  0  0  0  0  0  0
  148.0527  138.5872  154.6583 C   0  0  0  0  0  0  0  0  0  0  0  0
  148.6049  137.3823  154.9203 C   0  0  0  0  0  0  0  0  0  0  0  0
  150.0556  137.1931  154.9729 C   0  0  0  0  0  0  0  0  0  0  0  0
  150.5859  136.1080  155.2112 O   0  0  0  0  0  0  0  0  0  0  0  0
  153.0128  140.3142  159.0697 C   0  0  2  0  0  0  0  0  0  0  0  0
  153.5408  140.4128  160.5016 C   0  0  0  0  0  0  0  0  0  0  0  0
  153.0478  141.7736  160.9626 C   0  0  0  0  0  0  0  0  0  0  0  0
  151.9038  142.0999  159.9978 C   0  0  0  0  0  0  0  0  0  0  0  0
  151.7462  140.9435  159.1857 O   0  0  0  0  0  0  0  0  0  0  0  0
  147.9300  141.1981  154.9235 H   0  0  0  0  0  0  0  0  0  0  0  0
  152.1568  137.9866  160.3803 H   0  0  0  0  0  0  0  0  0  0  0  0
  151.7650  137.0458  158.9481 H   0  0  0  0  0  0  0  0  0  0  0  0
  150.8601  138.5142  159.3113 H   0  0  0  0  0  0  0  0  0  0  0  0
  153.8288  138.3779  158.5958 H   0  0  0  0  0  0  0  0  0  0  0  0
  151.7998  139.6599  156.8677 H   0  0  0  0  0  0  0  0  0  0  0  0
  152.6331  139.2856  154.4143 H   0  0  0  0  0  0  0  0  0  0  0  0
  152.6196  137.5840  154.0572 H   0  0  0  0  0  0  0  0  0  0  0  0
  146.9813  138.7181  154.6222 H   0  0  0  0  0  0  0  0  0  0  0  0
  147.9598  136.5342  155.0972 H   0  0  0  0  0  0  0  0  0  0  0  0
  153.6420  140.9102  158.4055 H   0  0  0  0  0  0  0  0  0  0  0  0
  153.0940  139.6342  161.1214 H   0  0  0  0  0  0  0  0  0  0  0  0
  154.6249  140.3115  160.5627 H   0  0  0  0  0  0  0  0  0  0  0  0
  152.7147  141.7444  162.0005 H   0  0  0  0  0  0  0  0  0  0  0  0
  153.8360  142.5231  160.8833 H   0  0  0  0  0  0  0  0  0  0  0  0
  150.9746  142.3350  160.5176 H   0  0  0  0  0  0  0  0  0  0  0  0
  152.1652  142.9508  159.3673 H   0  0  0  0  0  0  0  0  0  0  0  0
  1  2  1  0  0  0  0
  1 21  1  0  0  0  0
  1 22  1  0  0  0  0
  1 23  1  0  0  0  0
  2  3  1  0  0  0  0
  2 15  1  0  0  0  0
  2 24  1  0  0  0  0
  3  4  1  0  0  0  0
  3 25  1  0  0  0  0
  4  5  2  0  0  0  0
  4  6  1  0  0  0  0
  6 26  1  0  0  0  0
  6 27  1  0  0  0  0
  6  7  1  0  0  0  0
  7  8  1  0  0  0  0
  7 13  1  0  0  0  0
  8  9  2  0  0  0  0
  9 10  1  0  0  0  0
  9 11  1  0  0  0  0
 10 20  1  0  0  0  0
 11 28  1  0  0  0  0
 11 12  2  0  0  0  0
 12 29  1  0  0  0  0
 12 13  1  0  0  0  0
 13 14  2  0  0  0  0
 15 19  1  0  0  0  0
 15 16  1  0  0  0  0
 15 30  1  0  0  0  0
 16 17  1  0  0  0  0
 16 31  1  0  0  0  0
 16 32  1  0  0  0  0
 17 18  1  0  0  0  0
 17 33  1  0  0  0  0
 17 34  1  0  0  0  0
 18 19  1  0  0  0  0
 18 35  1  0  0  0  0
 18 36  1  0  0  0  0
M  END
> <s_m_source_file>
AV-unprocessed.smi

> <i_m_source_file_index>
1208

> <i_lp_mmshare_version>
43012

> <i_f3d_flags>
0

> <s_epik_input>
TzFbQ0gyXVtDSDJdW0NIMl1bQ0BIXTFbQ0BIXShbQ0gzXSlbTkhdQyg9TylbQ0gyXW4yW25IXWMoPU8pW2NIXVtjSF1jMj1P

> <s_epik_cmdline>
J2VwaWtfcHl0aG9uJywgJy1waCcsICc3LjAnLCAnLXRuJywgJzgnLCAnLW1hJywgJzIwMCcsICctbWV0YWxfYmluZGluZycsICctaW1hZScsICc8aW5maWxlLm1hZT4nLCAnLW9tYWUnLCAnPG91dGZpbGUubWFlPic=

> <r_lp_tautomer_probability>
0.9996

> <r_epik_Ionization_Penalty>
2.12735

> <r_epik_Ionization_Penalty_Charging>
3.86665e-08

> <r_epik_Ionization_Penalty_Neutral>
2.12735

> <r_epik_State_Penalty>
1.70441

> <r_epik_Charging_Adjusted_Penalty>
1.70441

> <i_epik_Tot_Q>
0

> <i_epik_Tot_abs_Q>
0

> <r_epik_Metal_State_Penalty>
1.70441

> <b_epik_Metal_Only>
0

> <s_lp_Force_Field>
OPLS_2005

> <r_lp_Energy>
29.1408

> <b_lp_Chiralities_Consistent>
1

> <s_lp_Variant>
AV-unprocessed.smi:1208-6

> <Gold.Version>
5.8.1

> <Gold.Id.Protein>
6NUR|6NUR_protein|mol2

> <Gold.PLP.Fitness>
40.2310

> <Gold.PLP.PLP>
-33.8509

> <Gold.PLP.part.hbond>
-4.9791

> <Gold.PLP.part.metal>
0.0000

> <Gold.PLP.part.buried>
-2.1405

> <Gold.PLP.part.nonpolar>
-27.5355

> <Gold.PLP.part.repulsive>
0.8111

> <Gold.PLP.ligand.clash>
0.0000

> <Gold.PLP.ligand.torsion>
0.4419

> <Gold.PLP.Chemscore.Hbond>
2.4080

> <Gold.PLP.Chemscore.CHOScore>
0.0000

> <Gold.PLP.Chemscore.Metal>
0.0000

> <Gold.Chemscore.Hbonds>
donor molecule, donor type, donor heavy atom, donor atom, acceptor molecule, acceptor atom, score
      P1  H  7989  7998       L1     8  0.71
      P1  H 10752 10763       L1     5  0.59

> <Gold.PLP.Chemscore.Internal.Correction>
0.0399

> <Gold.Rescore>
     Score         DG    S(hbond)    S(metal)    S(lipo)     H(rot)  DE(clash)    DE(int)     intcor
     13.22     -14.08       2.42        0.00      61.93       2.63       0.40       0.45       ----

> <Gold.Chemscore.Fitness>
13.2242

> <Gold.Chemscore.DG>
-14.0757

> <Gold.Chemscore.ZeroCoef>
-5.4800

> <Gold.Chemscore.Hbond>
2.4172

> <Gold.Chemscore.Metal>
0.0000

> <Gold.Chemscore.Lipo>
61.9294

> <Gold.Chemscore.Internal_Hbond>
0.0000

> <Gold.Chemscore.DEClash>
0.3995

> <Gold.Chemscore.DEInternal>
0.4520

> <Gold.Chemscore.Rot>
2.6264

> <Gold.Chemscore.Internal.Correction>
   9.000000E+99

> <Gold.Chemscore.Hbonds>
donor molecule, donor type, donor heavy atom, donor atom, acceptor molecule, acceptor atom, score
      P1  H  7989  7998       L1     8  0.55
      P1  H 10752 10763       L1     5  0.58

> <Gold.Chemscore.Hbond.Weighted>
-8.0736

> <Gold.Chemscore.Metal.Weighted>
-0.0000

> <Gold.Chemscore.Lipo.Weighted>
-7.2457

> <Gold.Chemscore.Internal_Hbond.Weighted>
0.0000

> <Gold.Chemscore.DEClash.Weighted>
0.3995

> <Gold.Chemscore.DEInternal.Weighted>
0.4520

> <Gold.Chemscore.Rot.Weighted>
6.7237

> <Gold.Chemscore.Internal.Correction.Weighted>
   9.000000E+99

> <Gold.Protein.RotatedTorsions>
[ 6907 6896 6895 6894 ] final   83.61 input  -60.11 | X-H torsion
[ 7974 7965 7964 7962 ] final  -71.82 input  175.53 | X-H torsion
[ 8008 7997 7996 7995 ] final  -86.08 input   59.86 | X-H torsion
[ 10167 10162 10161 10158 ] final -159.89 input  -65.29 | X-H torsion
[ 10718 10713 10712 10709 ] final  156.76 input   66.30 | X-H torsion
[ 10763 10752 10751 10750 ] final  117.36 input  -60.55 | X-H torsion
[ 11005 11000 10999 10996 ] final -161.51 input  -57.11 | X-H torsion

> <Gold.Protein.ActiveResidues>
 VAL166  LYS551  ARG553  GLY616  TRP617  ASP618  TYR619  PRO620  LYS621  CYS622 
 ASP623  PHE694  ASN695  SER759  ASP760  ASP761  ALA762  ILE779  LEU786  VAL792 
 PHE793  MET794  SER795  GLU796  ALA797  LYS798  CYS799  TRP800  GLU811  SER814 

> <Gold.Protein.RotatedAtoms>
  152.5331  134.2869  159.9028 H   0  0  0  0  0  0  0  0  0  0  0  0  # atno 6907 bound_to 6896
  151.2822  133.4197  159.2635 H   0  0  0  0  0  0  0  0  0  0  0  0  # atno 6908 bound_to 6896
  151.0273  134.9529  159.8149 H   0  0  0  0  0  0  0  0  0  0  0  0  # atno 6909 bound_to 6896
  145.6731  140.9214  143.0872 H   0  0  0  0  0  0  0  0  0  0  0  0  # atno 7974 bound_to 7965
  154.6479  140.0583  156.9922 H   0  0  0  0  0  0  0  0  0  0  0  0  # atno 8008 bound_to 7997
  155.1416  140.3266  155.4432 H   0  0  0  0  0  0  0  0  0  0  0  0  # atno 8009 bound_to 7997
  156.2562  140.1963  156.6531 H   0  0  0  0  0  0  0  0  0  0  0  0  # atno 8010 bound_to 7997
  139.6581  143.9962  152.2207 H   0  0  0  0  0  0  0  0  0  0  0  0  # atno 10167 bound_to 10162
  157.2006  131.0675  151.2027 H   0  0  0  0  0  0  0  0  0  0  0  0  # atno 10718 bound_to 10713
  153.5512  135.3539  155.2760 H   0  0  0  0  0  0  0  0  0  0  0  0  # atno 10763 bound_to 10752
  154.8706  135.4114  154.2935 H   0  0  0  0  0  0  0  0  0  0  0  0  # atno 10764 bound_to 10752
  153.3661  135.7062  153.6742 H   0  0  0  0  0  0  0  0  0  0  0  0  # atno 10765 bound_to 10752
  140.6196  134.4764  157.5222 H   0  0  0  0  0  0  0  0  0  0  0  0  # atno 11005 bound_to 11000
  144.7050  139.8598  143.7432 LP  0  0  0  0  0  0  0  0  0  0  0  0  # atno 17320 bound_to 7965
  146.1028  139.4025  143.0336 LP  0  0  0  0  0  0  0  0  0  0  0  0  # atno 17321 bound_to 7965
  139.9694  144.6504  150.8003 LP  0  0  0  0  0  0  0  0  0  0  0  0  # atno 17342 bound_to 10162
  140.7568  143.3073  151.2930 LP  0  0  0  0  0  0  0  0  0  0  0  0  # atno 17343 bound_to 10162
  157.3771  130.7211  149.6604 LP  0  0  0  0  0  0  0  0  0  0  0  0  # atno 17370 bound_to 10713
  155.9701  130.4183  150.4319 LP  0  0  0  0  0  0  0  0  0  0  0  0  # atno 17371 bound_to 10713
  139.9158  134.8248  156.1370 LP  0  0  0  0  0  0  0  0  0  0  0  0  # atno 17394 bound_to 11000
  141.0751  133.6779  156.2220 LP  0  0  0  0  0  0  0  0  0  0  0  0  # atno 17395 bound_to 11000

$$$$
