AV-unprocessed.smi:243|AV-procd|sdf|1852|dock2
  -GOLD-   2262020473D 1   1.00000     0.00000
 Structure written by MMmdl.
 58 61  0  0  0  0  0  0  0  0  2 V2000
  146.6876  133.7903  151.7728 C   0  0  0  0  0  0  0  0  0  0  0  0
  146.5822  133.7508  153.3075 C   0  0  0  0  0  0  0  0  0  0  0  0
  147.6265  134.5370  154.0134 N   0  3  2  0  0  0  0  0  0  0  0  0
  148.9268  133.8342  154.1495 C   0  0  0  0  0  0  0  0  0  0  0  0
  150.0131  134.8081  154.6274 C   0  0  0  0  0  0  0  0  0  0  0  0
  149.5923  135.4829  155.9544 C   0  0  1  0  0  0  0  0  0  0  0  0
  150.6244  136.3120  156.5982 N   0  0  0  0  0  0  0  0  0  0  0  0
  151.0743  135.9772  157.9447 C   0  0  0  0  0  0  0  0  0  0  0  0
  151.0578  137.5020  156.1045 C   0  0  0  0  0  0  0  0  0  0  0  0
  151.8765  137.5275  155.0215 N   0  0  0  0  0  0  0  0  0  0  0  0
  152.3001  138.6894  154.5167 C   0  0  0  0  0  0  0  0  0  0  0  0
  152.0306  139.9267  154.9344 N   0  0  0  0  0  0  0  0  0  0  0  0
  151.2085  139.9125  156.0219 C   0  0  0  0  0  0  0  0  0  0  0  0
  150.6748  138.7566  156.6601 C   0  0  0  0  0  0  0  0  0  0  0  0
  149.8807  139.1382  157.7354 N   0  0  0  0  0  0  0  0  0  0  0  0
  149.9385  140.4417  157.7304 C   0  0  0  0  0  0  0  0  0  0  0  0
  150.7237  140.9902  156.7420 N   0  0  0  0  0  0  0  0  0  0  0  0
  150.9774  142.4043  156.5138 C   0  0  0  0  0  0  0  0  0  0  0  0
  151.4053  143.1646  157.7913 C   0  0  2  0  0  0  0  0  0  0  0  0
  151.9082  144.4379  157.4260 O   0  0  0  0  0  0  0  0  0  0  0  0
  152.4674  142.4460  158.6200 C   0  0  0  0  0  0  0  0  0  0  0  0
  152.1199  142.8521  160.0452 C   0  0  0  0  0  0  0  0  0  0  0  0
  150.7034  142.8240  160.0340 O   0  0  0  0  0  0  0  0  0  0  0  0
  150.2533  143.3651  158.7964 C   0  0  0  0  0  0  0  0  0  0  0  0
  148.1977  136.1577  155.8343 C   0  0  1  0  0  0  0  0  0  0  0  0
  148.1685  137.4585  155.0119 C   0  0  0  0  0  0  0  0  0  0  0  0
  147.1730  135.1362  155.2954 C   0  0  0  0  0  0  0  0  0  0  0  0
  145.8917  133.1958  151.3240 H   0  0  0  0  0  0  0  0  0  0  0  0
  147.6332  133.3803  151.4189 H   0  0  0  0  0  0  0  0  0  0  0  0
  146.5893  134.8035  151.3837 H   0  0  0  0  0  0  0  0  0  0  0  0
  145.6023  134.1190  153.6135 H   0  0  0  0  0  0  0  0  0  0  0  0
  146.6335  132.7162  153.6484 H   0  0  0  0  0  0  0  0  0  0  0  0
  148.8352  133.0063  154.8534 H   0  0  0  0  0  0  0  0  0  0  0  0
  149.2177  133.4074  153.1889 H   0  0  0  0  0  0  0  0  0  0  0  0
  150.9529  134.2710  154.7610 H   0  0  0  0  0  0  0  0  0  0  0  0
  150.1814  135.5392  153.8386 H   0  0  0  0  0  0  0  0  0  0  0  0
  149.4594  134.6590  156.6576 H   0  0  0  0  0  0  0  0  0  0  0  0
  151.0744  136.8589  158.5866 H   0  0  0  0  0  0  0  0  0  0  0  0
  152.0836  135.5672  157.9208 H   0  0  0  0  0  0  0  0  0  0  0  0
  150.4302  135.2292  158.4058 H   0  0  0  0  0  0  0  0  0  0  0  0
  152.9477  138.6179  153.6554 H   0  0  0  0  0  0  0  0  0  0  0  0
  149.4132  141.0420  158.4590 H   0  0  0  0  0  0  0  0  0  0  0  0
  151.7423  142.4993  155.7417 H   0  0  0  0  0  0  0  0  0  0  0  0
  150.0703  142.8474  156.1006 H   0  0  0  0  0  0  0  0  0  0  0  0
  151.2270  144.9117  156.9743 H   0  0  0  0  0  0  0  0  0  0  0  0
  152.3503  141.3654  158.5288 H   0  0  0  0  0  0  0  0  0  0  0  0
  153.4916  142.6940  158.3380 H   0  0  0  0  0  0  0  0  0  0  0  0
  152.5315  142.1726  160.7916 H   0  0  0  0  0  0  0  0  0  0  0  0
  152.4690  143.8626  160.2639 H   0  0  0  0  0  0  0  0  0  0  0  0
  150.0037  144.4192  158.9306 H   0  0  0  0  0  0  0  0  0  0  0  0
  149.3408  142.8514  158.4923 H   0  0  0  0  0  0  0  0  0  0  0  0
  147.8652  136.4265  156.8371 H   0  0  0  0  0  0  0  0  0  0  0  0
  148.5320  137.3077  153.9956 H   0  0  0  0  0  0  0  0  0  0  0  0
  148.7768  138.2327  155.4791 H   0  0  0  0  0  0  0  0  0  0  0  0
  147.1550  137.8542  154.9425 H   0  0  0  0  0  0  0  0  0  0  0  0
  146.2038  135.6178  155.1582 H   0  0  0  0  0  0  0  0  0  0  0  0
  147.0263  134.3466  156.0333 H   0  0  0  0  0  0  0  0  0  0  0  0
  147.8123  135.3224  153.4058 H   0  0  0  0  0  0  0  0  0  0  0  0
  1  2  1  0  0  0  0
  1 28  1  0  0  0  0
  1 29  1  0  0  0  0
  1 30  1  0  0  0  0
  2  3  1  0  0  0  0
  2 31  1  0  0  0  0
  2 32  1  0  0  0  0
  3 27  1  0  0  0  0
  3  4  1  0  0  0  0
  3 58  1  0  0  0  0
  4  5  1  0  0  0  0
  4 33  1  0  0  0  0
  4 34  1  0  0  0  0
  5  6  1  0  0  0  0
  5 35  1  0  0  0  0
  5 36  1  0  0  0  0
  6  7  1  0  0  0  0
  6 25  1  0  0  0  0
  6 37  1  0  0  0  0
  7  8  1  0  0  0  0
  7  9  1  0  0  0  0
  8 38  1  0  0  0  0
  8 39  1  0  0  0  0
  8 40  1  0  0  0  0
  9 14  1  0  0  0  0
  9 10  2  0  0  0  0
 10 11  1  0  0  0  0
 11 12  2  0  0  0  0
 11 41  1  0  0  0  0
 12 13  1  0  0  0  0
 13 17  1  0  0  0  0
 13 14  2  0  0  0  0
 14 15  1  0  0  0  0
 15 16  2  0  0  0  0
 16 17  1  0  0  0  0
 16 42  1  0  0  0  0
 17 18  1  0  0  0  0
 18 19  1  0  0  0  0
 18 43  1  0  0  0  0
 18 44  1  0  0  0  0
 19 24  1  0  0  0  0
 19 20  1  0  0  0  0
 19 21  1  0  0  0  0
 20 45  1  0  0  0  0
 21 22  1  0  0  0  0
 21 46  1  0  0  0  0
 21 47  1  0  0  0  0
 22 23  1  0  0  0  0
 22 48  1  0  0  0  0
 22 49  1  0  0  0  0
 23 24  1  0  0  0  0
 24 50  1  0  0  0  0
 24 51  1  0  0  0  0
 25 26  1  0  0  0  0
 25 27  1  0  0  0  0
 25 52  1  0  0  0  0
 26 53  1  0  0  0  0
 26 54  1  0  0  0  0
 26 55  1  0  0  0  0
 27 56  1  0  0  0  0
 27 57  1  0  0  0  0
M  CHG  1   3   1
M  END
> <s_m_source_file>
AV-unprocessed.smi

> <i_m_source_file_index>
243

> <i_lp_mmshare_version>
43012

> <i_f3d_flags>
0

> <s_epik_input>
W0NIM11bQ0gyXU4xW0NIMl1bQ0gyXVtDQEhdKFtDQEBIXShbQ0gzXSlbQ0gyXTEpTihbQ0gzXSljKG5bY0hdbjIpYyhjMjMpbltjSF1uM1tDSDJdW0NAQF00KFtPSF0pW0NIMl1bQ0gyXU9bQ0gyXTQ=

> <s_epik_cmdline>
J2VwaWtfcHl0aG9uJywgJy1waCcsICc3LjAnLCAnLXRuJywgJzgnLCAnLW1hJywgJzIwMCcsICctbWV0YWxfYmluZGluZycsICctaW1hZScsICc8aW5maWxlLm1hZT4nLCAnLW9tYWUnLCAnPG91dGZpbGUubWFlPic=

> <r_lp_tautomer_probability>
1

> <r_epik_Ionization_Penalty>
0.00253099

> <r_epik_Ionization_Penalty_Charging>
0.00137877

> <r_epik_Ionization_Penalty_Neutral>
0.00115221

> <r_epik_State_Penalty>
-0

> <r_epik_Charging_Adjusted_Penalty>
0.00137877

> <i_epik_Tot_Q>
1

> <i_epik_Tot_abs_Q>
1

> <r_epik_Metal_State_Penalty>
-0

> <b_epik_Metal_Only>
0

> <s_lp_Force_Field>
OPLS_2005

> <r_lp_Energy>
49.3868

> <b_lp_Chiralities_Consistent>
1

> <s_lp_Variant>
AV-unprocessed.smi:243-5

> <Gold.Version>
5.8.1

> <Gold.Id.Protein>
6NUR|6NUR_protein|mol2

> <Gold.PLP.Fitness>
41.9387

> <Gold.PLP.PLP>
-34.9734

> <Gold.PLP.part.hbond>
-4.0000

> <Gold.PLP.part.metal>
0.0000

> <Gold.PLP.part.buried>
-2.6136

> <Gold.PLP.part.nonpolar>
-27.8601

> <Gold.PLP.part.repulsive>
0.1443

> <Gold.PLP.ligand.clash>
0.0000

> <Gold.PLP.ligand.torsion>
1.9745

> <Gold.PLP.Chemscore.Hbond>
3.4570

> <Gold.PLP.Chemscore.CHOScore>
0.0000

> <Gold.PLP.Chemscore.Metal>
0.0000

> <Gold.Chemscore.Hbonds>
donor molecule, donor type, donor heavy atom, donor atom, acceptor molecule, acceptor atom, score
      L1  H     3    58       P1  7948  1.58
      P1  H  7989  7998       L1    12  0.85
      P1  H 10752 10765       L1    10  0.45

> <Gold.PLP.Chemscore.Internal.Correction>
0.5433

> <Gold.Rescore>
     Score         DG    S(hbond)    S(metal)    S(lipo)     H(rot)  DE(clash)    DE(int)     intcor
     11.01     -15.87       1.82        0.00      85.85       2.24       2.07       2.78       ----

> <Gold.Chemscore.Fitness>
11.0097

> <Gold.Chemscore.DG>
-15.8653

> <Gold.Chemscore.ZeroCoef>
-5.4800

> <Gold.Chemscore.Hbond>
1.8174

> <Gold.Chemscore.Metal>
0.0000

> <Gold.Chemscore.Lipo>
85.8492

> <Gold.Chemscore.Internal_Hbond>
0.0000

> <Gold.Chemscore.DEClash>
2.0719

> <Gold.Chemscore.DEInternal>
2.7838

> <Gold.Chemscore.Rot>
2.2379

> <Gold.Chemscore.Internal.Correction>
   9.000000E+99

> <Gold.Chemscore.Hbonds>
donor molecule, donor type, donor heavy atom, donor atom, acceptor molecule, acceptor atom, score
      L1  H     3    58       P1  7948  0.73
      P1  H  7989  7998       L1    12  0.45
      P1  H 10752 10765       L1    10  0.40

> <Gold.Chemscore.Hbond.Weighted>
-6.0701

> <Gold.Chemscore.Metal.Weighted>
-0.0000

> <Gold.Chemscore.Lipo.Weighted>
-10.0444

> <Gold.Chemscore.Internal_Hbond.Weighted>
0.0000

> <Gold.Chemscore.DEClash.Weighted>
2.0719

> <Gold.Chemscore.DEInternal.Weighted>
2.7838

> <Gold.Chemscore.Rot.Weighted>
5.7291

> <Gold.Chemscore.Internal.Correction.Weighted>
   9.000000E+99

> <Gold.Protein.RotatedTorsions>
[ 6907 6896 6895 6894 ] final  -97.76 input  -60.11 | X-H torsion
[ 7974 7965 7964 7962 ] final   57.60 input  175.53 | X-H torsion
[ 8008 7997 7996 7995 ] final   34.68 input   59.86 | X-H torsion
[ 10167 10162 10161 10158 ] final  157.95 input  -65.29 | X-H torsion
[ 10718 10713 10712 10709 ] final   69.82 input   66.30 | X-H torsion
[ 10763 10752 10751 10750 ] final  177.40 input  -60.55 | X-H torsion
[ 11005 11000 10999 10996 ] final  127.06 input  -57.11 | X-H torsion

> <Gold.Protein.ActiveResidues>
 VAL166  LYS551  ARG553  GLY616  TRP617  ASP618  TYR619  PRO620  LYS621  CYS622 
 ASP623  PHE694  ASN695  SER759  ASP760  ASP761  ALA762  ILE779  LEU786  VAL792 
 PHE793  MET794  SER795  GLU796  ALA797  LYS798  CYS799  TRP800  GLU811  SER814 

> <Gold.Protein.RotatedAtoms>
  150.7026  134.1299  159.4065 H   0  0  0  0  0  0  0  0  0  0  0  0  # atno 6907 bound_to 6896
  151.9285  135.0264  160.0537 H   0  0  0  0  0  0  0  0  0  0  0  0  # atno 6908 bound_to 6896
  152.2196  133.4938  159.5191 H   0  0  0  0  0  0  0  0  0  0  0  0  # atno 6909 bound_to 6896
  145.9273  139.3778  143.0442 H   0  0  0  0  0  0  0  0  0  0  0  0  # atno 7974 bound_to 7965
  155.1588  140.3281  155.4415 H   0  0  0  0  0  0  0  0  0  0  0  0  # atno 8008 bound_to 7997
  156.2549  140.1964  156.6647 H   0  0  0  0  0  0  0  0  0  0  0  0  # atno 8009 bound_to 7997
  154.6420  140.0569  156.9842 H   0  0  0  0  0  0  0  0  0  0  0  0  # atno 8010 bound_to 7997
  139.4825  144.4870  151.8363 H   0  0  0  0  0  0  0  0  0  0  0  0  # atno 10167 bound_to 10162
  157.6367  130.9446  150.0566 H   0  0  0  0  0  0  0  0  0  0  0  0  # atno 10718 bound_to 10713
  154.4940  135.2780  155.1474 H   0  0  0  0  0  0  0  0  0  0  0  0  # atno 10763 bound_to 10752
  154.3134  135.6224  153.5479 H   0  0  0  0  0  0  0  0  0  0  0  0  # atno 10764 bound_to 10752
  152.9892  135.5725  154.5368 H   0  0  0  0  0  0  0  0  0  0  0  0  # atno 10765 bound_to 10752
  139.9488  134.9625  156.8799 H   0  0  0  0  0  0  0  0  0  0  0  0  # atno 11005 bound_to 11000
  145.8472  140.9549  143.0768 LP  0  0  0  0  0  0  0  0  0  0  0  0  # atno 17320 bound_to 7965
  144.6760  140.0360  143.7482 LP  0  0  0  0  0  0  0  0  0  0  0  0  # atno 17321 bound_to 7965
  140.4351  144.2063  150.5889 LP  0  0  0  0  0  0  0  0  0  0  0  0  # atno 17342 bound_to 10162
  140.4740  143.2403  151.9049 LP  0  0  0  0  0  0  0  0  0  0  0  0  # atno 17343 bound_to 10162
  156.1612  130.3644  149.9297 LP  0  0  0  0  0  0  0  0  0  0  0  0  # atno 17370 bound_to 10713
  156.7295  130.9037  151.3624 LP  0  0  0  0  0  0  0  0  0  0  0  0  # atno 17371 bound_to 10713
  140.5770  134.0389  155.7450 LP  0  0  0  0  0  0  0  0  0  0  0  0  # atno 17394 bound_to 11000
  141.1145  133.9562  157.2848 LP  0  0  0  0  0  0  0  0  0  0  0  0  # atno 17395 bound_to 11000

$$$$
