AV-unprocessed.smi:2454|AV-procd|sdf|9698|dock4
  -GOLD-   2272013333D 1   1.00000     0.00000
 Structure written by MMmdl.
 42 43  0  0  0  0  0  0  0  0  1 V2000
  147.5901  135.7862  163.4055 C   0  0  0  0  0  0  0  0  0  0  0  0
  147.1877  134.4857  163.0131 O   0  0  0  0  0  0  0  0  0  0  0  0
  146.4825  134.4825  161.7834 C   0  0  0  0  0  0  0  0  0  0  0  0
  147.4207  134.6799  160.6109 C   0  0  0  0  0  0  0  0  0  0  0  0
  148.1602  135.8716  160.4565 C   0  0  0  0  0  0  0  0  0  0  0  0
  149.0017  135.9723  159.3255 C   0  0  0  0  0  0  0  0  0  0  0  0
  149.7209  137.1985  159.2114 N   0  0  0  0  0  0  0  0  0  0  0  0
  150.1002  137.9123  158.1297 C   0  0  0  0  0  0  0  0  0  0  0  0
  149.8321  137.5316  156.9914 O   0  0  0  0  0  0  0  0  0  0  0  0
  150.7781  139.0448  158.3764 N   0  0  0  0  0  0  0  0  0  0  0  0
  151.3166  139.9631  157.3760 C   0  0  1  0  0  0  0  0  0  0  0  0
  150.1663  140.6700  156.6350 C   0  0  0  0  0  0  0  0  0  0  0  0
  149.4293  141.6745  157.5365 C   0  0  0  0  0  0  0  0  0  0  0  0
  150.4027  142.6933  158.1492 C   0  0  0  0  0  0  0  0  0  0  0  0
  151.5384  142.0003  158.9314 C   0  0  2  0  0  0  0  0  0  0  0  0
  152.5094  143.0189  159.5631 C   0  0  0  0  0  0  0  0  0  0  0  0
  153.5803  142.4050  160.0675 F   0  0  0  0  0  0  0  0  0  0  0  0
  152.9099  143.8984  158.6450 F   0  0  0  0  0  0  0  0  0  0  0  0
  151.8967  143.6884  160.5393 F   0  0  0  0  0  0  0  0  0  0  0  0
  152.2729  140.9912  158.0189 C   0  0  0  0  0  0  0  0  0  0  0  0
  149.0662  134.9418  158.4434 N   0  0  0  0  0  0  0  0  0  0  0  0
  148.3232  133.8591  158.6834 C   0  0  0  0  0  0  0  0  0  0  0  0
  147.5043  133.6706  159.7184 N   0  0  0  0  0  0  0  0  0  0  0  0
  148.1222  135.7343  164.3553 H   0  0  0  0  0  0  0  0  0  0  0  0
  146.7293  136.4430  163.5374 H   0  0  0  0  0  0  0  0  0  0  0  0
  148.2603  136.2307  162.6688 H   0  0  0  0  0  0  0  0  0  0  0  0
  145.9532  133.5360  161.6607 H   0  0  0  0  0  0  0  0  0  0  0  0
  145.7295  135.2728  161.7801 H   0  0  0  0  0  0  0  0  0  0  0  0
  148.0794  136.6746  161.1752 H   0  0  0  0  0  0  0  0  0  0  0  0
  149.9580  137.6250  160.0952 H   0  0  0  0  0  0  0  0  0  0  0  0
  150.9515  139.2796  159.3441 H   0  0  0  0  0  0  0  0  0  0  0  0
  151.8753  139.3782  156.6432 H   0  0  0  0  0  0  0  0  0  0  0  0
  150.5695  141.1984  155.7702 H   0  0  0  0  0  0  0  0  0  0  0  0
  149.4627  139.9358  156.2403 H   0  0  0  0  0  0  0  0  0  0  0  0
  148.6638  142.1943  156.9600 H   0  0  0  0  0  0  0  0  0  0  0  0
  148.9052  141.1442  158.3327 H   0  0  0  0  0  0  0  0  0  0  0  0
  150.8247  143.3125  157.3567 H   0  0  0  0  0  0  0  0  0  0  0  0
  149.8521  143.3674  158.8059 H   0  0  0  0  0  0  0  0  0  0  0  0
  151.0824  141.4415  159.7504 H   0  0  0  0  0  0  0  0  0  0  0  0
  153.0512  140.4729  158.5800 H   0  0  0  0  0  0  0  0  0  0  0  0
  152.7887  141.5342  157.2263 H   0  0  0  0  0  0  0  0  0  0  0  0
  148.3934  133.0545  157.9666 H   0  0  0  0  0  0  0  0  0  0  0  0
  1  2  1  0  0  0  0
  1 24  1  0  0  0  0
  1 25  1  0  0  0  0
  1 26  1  0  0  0  0
  2  3  1  0  0  0  0
  3  4  1  0  0  0  0
  3 27  1  0  0  0  0
  3 28  1  0  0  0  0
  4 23  1  0  0  0  0
  4  5  2  0  0  0  0
  5  6  1  0  0  0  0
  5 29  1  0  0  0  0
  6  7  1  0  0  0  0
  6 21  2  0  0  0  0
  7  8  1  0  0  0  0
  7 30  1  0  0  0  0
  8  9  2  0  0  0  0
  8 10  1  0  0  0  0
 10 11  1  0  0  0  0
 10 31  1  0  0  0  0
 11 20  1  0  0  0  0
 11 12  1  0  0  0  0
 11 32  1  0  0  0  0
 12 13  1  0  0  0  0
 12 33  1  0  0  0  0
 12 34  1  0  0  0  0
 13 14  1  0  0  0  0
 13 35  1  0  0  0  0
 13 36  1  0  0  0  0
 14 15  1  0  0  0  0
 14 37  1  0  0  0  0
 14 38  1  0  0  0  0
 15 16  1  0  0  0  0
 15 20  1  0  0  0  0
 15 39  1  0  0  0  0
 16 17  1  0  0  0  0
 16 18  1  0  0  0  0
 16 19  1  0  0  0  0
 20 40  1  0  0  0  0
 20 41  1  0  0  0  0
 21 22  1  0  0  0  0
 22 23  2  0  0  0  0
 22 42  1  0  0  0  0
M  END
> <s_m_source_file>
AV-unprocessed.smi

> <i_m_source_file_index>
2454

> <i_lp_mmshare_version>
43012

> <i_f3d_flags>
0

> <s_epik_input>
W0NIM11PW0NIMl1jMVtjSF1jKG5bY0hdbjEpW05IXUMoPU8pW05IXVtDQEBIXTJbQ0gyXVtDSDJdW0NIMl1bQ0BASF0oQyhGKShGKUYpW0NIMl0y

> <s_epik_cmdline>
J2VwaWtfcHl0aG9uJywgJy1waCcsICc3LjAnLCAnLXRuJywgJzgnLCAnLW1hJywgJzIwMCcsICctbWV0YWxfYmluZGluZycsICctaW1hZScsICc8aW5maWxlLm1hZT4nLCAnLW9tYWUnLCAnPG91dGZpbGUubWFlPic=

> <r_lp_tautomer_probability>
1

> <r_epik_Ionization_Penalty>
3.01554e-05

> <r_epik_Ionization_Penalty_Charging>
0

> <r_epik_Ionization_Penalty_Neutral>
3.01554e-05

> <r_epik_State_Penalty>
-0

> <r_epik_Charging_Adjusted_Penalty>
0

> <i_epik_Tot_Q>
0

> <i_epik_Tot_abs_Q>
0

> <r_epik_Metal_State_Penalty>
-0

> <b_epik_Metal_Only>
0

> <s_lp_Force_Field>
OPLS_2005

> <r_lp_Energy>
13.7545

> <b_lp_Chiralities_Consistent>
1

> <s_lp_Variant>
AV-unprocessed.smi:2454-4

> <Gold.Version>
5.8.1

> <Gold.Id.Protein>
6NUR|6NUR_protein|mol2

> <Gold.PLP.Fitness>
40.8028

> <Gold.PLP.PLP>
-40.2229

> <Gold.PLP.part.hbond>
-1.5503

> <Gold.PLP.part.metal>
0.0000

> <Gold.PLP.part.buried>
-6.5299

> <Gold.PLP.part.nonpolar>
-33.4182

> <Gold.PLP.part.repulsive>
0.3707

> <Gold.PLP.ligand.clash>
0.0000

> <Gold.PLP.ligand.torsion>
0.5734

> <Gold.PLP.Chemscore.Hbond>
0.5600

> <Gold.PLP.Chemscore.CHOScore>
0.0000

> <Gold.PLP.Chemscore.Metal>
0.0000

> <Gold.Chemscore.Hbonds>
donor molecule, donor type, donor heavy atom, donor atom, acceptor molecule, acceptor atom, score
      P1  H  6896  6907       L1    21  0.26

> <Gold.PLP.Chemscore.Internal.Correction>
0.0467

> <Gold.Rescore>
     Score         DG    S(hbond)    S(metal)    S(lipo)     H(rot)  DE(clash)    DE(int)     intcor
      9.68     -10.52       0.01        0.00      77.94       1.60       0.05       0.78       ----

> <Gold.Chemscore.Fitness>
9.6841

> <Gold.Chemscore.DG>
-10.5162

> <Gold.Chemscore.ZeroCoef>
-5.4800

> <Gold.Chemscore.Hbond>
0.0066

> <Gold.Chemscore.Metal>
0.0000

> <Gold.Chemscore.Lipo>
77.9405

> <Gold.Chemscore.Internal_Hbond>
0.0000

> <Gold.Chemscore.DEClash>
0.0484

> <Gold.Chemscore.DEInternal>
0.7836

> <Gold.Chemscore.Rot>
1.6035

> <Gold.Chemscore.Internal.Correction>
   9.000000E+99

> <Gold.Chemscore.Hbond.Weighted>
-0.0222

> <Gold.Chemscore.Metal.Weighted>
-0.0000

> <Gold.Chemscore.Lipo.Weighted>
-9.1190

> <Gold.Chemscore.Internal_Hbond.Weighted>
0.0000

> <Gold.Chemscore.DEClash.Weighted>
0.0484

> <Gold.Chemscore.DEInternal.Weighted>
0.7836

> <Gold.Chemscore.Rot.Weighted>
4.1050

> <Gold.Chemscore.Internal.Correction.Weighted>
   9.000000E+99

> <Gold.Protein.RotatedTorsions>
[ 6907 6896 6895 6894 ] final  -87.47 input  -60.11 | X-H torsion
[ 7974 7965 7964 7962 ] final -114.89 input  175.53 | X-H torsion
[ 8008 7997 7996 7995 ] final  100.85 input   59.86 | X-H torsion
[ 10167 10162 10161 10158 ] final  -49.33 input  -65.29 | X-H torsion
[ 10718 10713 10712 10709 ] final  165.69 input   66.30 | X-H torsion
[ 10763 10752 10751 10750 ] final  154.77 input  -60.55 | X-H torsion
[ 11005 11000 10999 10996 ] final  105.11 input  -57.11 | X-H torsion

> <Gold.Protein.ActiveResidues>
 VAL166  LYS551  ARG553  GLY616  TRP617  ASP618  TYR619  PRO620  LYS621  CYS622 
 ASP623  PHE694  ASN695  SER759  ASP760  ASP761  ALA762  ILE779  LEU786  VAL792 
 PHE793  MET794  SER795  GLU796  ALA797  LYS798  CYS799  TRP800  GLU811  SER814 

> <Gold.Protein.RotatedAtoms>
  150.6866  134.2891  159.4658 H   0  0  0  0  0  0  0  0  0  0  0  0  # atno 6907 bound_to 6896
  152.0798  134.9476  160.0583 H   0  0  0  0  0  0  0  0  0  0  0  0  # atno 6908 bound_to 6896
  152.0833  133.4129  159.4548 H   0  0  0  0  0  0  0  0  0  0  0  0  # atno 6909 bound_to 6896
  145.1149  140.8634  143.3848 H   0  0  0  0  0  0  0  0  0  0  0  0  # atno 7974 bound_to 7965
  156.1243  140.3207  155.8254 H   0  0  0  0  0  0  0  0  0  0  0  0  # atno 8008 bound_to 7997
  155.4448  140.0528  157.3024 H   0  0  0  0  0  0  0  0  0  0  0  0  # atno 8009 bound_to 7997
  154.4851  140.2069  155.9688 H   0  0  0  0  0  0  0  0  0  0  0  0  # atno 8010 bound_to 7997
  140.6690  143.2702  151.4200 H   0  0  0  0  0  0  0  0  0  0  0  0  # atno 10167 bound_to 10162
  157.0765  131.0380  151.2591 H   0  0  0  0  0  0  0  0  0  0  0  0  # atno 10718 bound_to 10713
  154.1576  135.2811  155.3118 H   0  0  0  0  0  0  0  0  0  0  0  0  # atno 10763 bound_to 10752
  154.6171  135.5480  153.7538 H   0  0  0  0  0  0  0  0  0  0  0  0  # atno 10764 bound_to 10752
  153.0202  135.6429  154.1719 H   0  0  0  0  0  0  0  0  0  0  0  0  # atno 10765 bound_to 10752
  139.8798  134.9324  156.5464 H   0  0  0  0  0  0  0  0  0  0  0  0  # atno 11005 bound_to 11000
  145.0806  139.2963  143.5786 LP  0  0  0  0  0  0  0  0  0  0  0  0  # atno 17320 bound_to 7965
  146.3524  140.0311  142.8650 LP  0  0  0  0  0  0  0  0  0  0  0  0  # atno 17321 bound_to 7965
  139.5950  144.1417  152.2133 LP  0  0  0  0  0  0  0  0  0  0  0  0  # atno 17342 bound_to 10162
  140.0783  144.5721  150.7140 LP  0  0  0  0  0  0  0  0  0  0  0  0  # atno 17343 bound_to 10162
  157.4835  130.7779  149.7437 LP  0  0  0  0  0  0  0  0  0  0  0  0  # atno 17370 bound_to 10713
  155.9935  130.3924  150.2896 LP  0  0  0  0  0  0  0  0  0  0  0  0  # atno 17371 bound_to 10713
  140.8272  133.8307  155.8950 LP  0  0  0  0  0  0  0  0  0  0  0  0  # atno 17394 bound_to 11000
  140.9362  134.1958  157.4829 LP  0  0  0  0  0  0  0  0  0  0  0  0  # atno 17395 bound_to 11000

$$$$
