AV-unprocessed.smi:1958|AV-procd|sdf|7909|dock1
  -GOLD-   2272010 73D 1   1.00000     0.00000
 Structure written by MMmdl.
 48 49  0  0  0  0  0  0  0  0  2 V2000
  151.6615  144.3566  157.8783 C   0  0  0  0  0  0  0  0  0  0  0  0
  151.1494  143.0705  158.1791 O   0  0  0  0  0  0  0  0  0  0  0  0
  150.8475  142.3203  157.0151 C   0  0  0  0  0  0  0  0  0  0  0  0
  151.1644  140.8422  157.2852 C   0  0  0  0  0  0  0  0  0  0  0  0
  150.9520  140.0185  156.0911 N   0  0  0  0  0  0  0  0  0  0  0  0
  149.6563  140.0567  155.6044 N   0  0  0  0  0  0  0  0  0  0  0  0
  149.3377  139.3790  154.5493 C   0  0  0  0  0  0  0  0  0  0  0  0
  147.9567  139.4006  153.9923 C   0  0  0  0  0  0  0  0  0  0  0  0
  147.1575  140.2960  154.2700 O   0  0  0  0  0  0  0  0  0  0  0  0
  147.6505  138.3725  153.1794 N   0  0  0  0  0  0  0  0  0  0  0  0
  146.3626  138.1515  152.5265 C   0  0  0  0  0  0  0  0  0  0  0  0
  145.6588  136.8591  153.0179 C   0  0  1  0  0  0  0  0  0  0  0  0
  144.1415  136.9175  152.7108 C   0  0  0  0  0  0  0  0  0  0  0  0
  146.3304  135.6456  152.4437 N   0  3  0  0  0  0  0  0  0  0  0  0
  146.5928  134.5929  153.4639 C   0  0  0  0  0  0  0  0  0  0  0  0
  147.3535  133.4048  152.8535 C   0  0  0  0  0  0  0  0  0  0  0  0
  146.6016  132.8660  151.7771 O   0  0  0  0  0  0  0  0  0  0  0  0
  146.4284  133.8186  150.7395 C   0  0  0  0  0  0  0  0  0  0  0  0
  145.6484  135.0349  151.2681 C   0  0  0  0  0  0  0  0  0  0  0  0
  150.3258  138.5667  153.8600 C   0  0  0  0  0  0  0  0  0  0  0  0
  151.5831  138.5305  154.3534 C   0  0  0  0  0  0  0  0  0  0  0  0
  151.9691  139.2841  155.5477 C   0  0  0  0  0  0  0  0  0  0  0  0
  153.1040  139.2584  156.0225 O   0  0  0  0  0  0  0  0  0  0  0  0
  151.8802  144.8888  158.8040 H   0  0  0  0  0  0  0  0  0  0  0  0
  150.9384  144.9463  157.3135 H   0  0  0  0  0  0  0  0  0  0  0  0
  152.5850  144.2889  157.3022 H   0  0  0  0  0  0  0  0  0  0  0  0
  149.7950  142.4428  156.7550 H   0  0  0  0  0  0  0  0  0  0  0  0
  151.4403  142.6837  156.1741 H   0  0  0  0  0  0  0  0  0  0  0  0
  152.1996  140.7500  157.6191 H   0  0  0  0  0  0  0  0  0  0  0  0
  150.5593  140.4751  158.1159 H   0  0  0  0  0  0  0  0  0  0  0  0
  148.3708  137.6854  153.0071 H   0  0  0  0  0  0  0  0  0  0  0  0
  145.6980  139.0067  152.6590 H   0  0  0  0  0  0  0  0  0  0  0  0
  146.5810  138.1038  151.4616 H   0  0  0  0  0  0  0  0  0  0  0  0
  145.7561  136.8062  154.1035 H   0  0  0  0  0  0  0  0  0  0  0  0
  143.6779  137.8160  153.1166 H   0  0  0  0  0  0  0  0  0  0  0  0
  143.5986  136.0874  153.1624 H   0  0  0  0  0  0  0  0  0  0  0  0
  143.9516  136.9092  151.6370 H   0  0  0  0  0  0  0  0  0  0  0  0
  147.1821  134.9798  154.2924 H   0  0  0  0  0  0  0  0  0  0  0  0
  145.6463  134.2478  153.8829 H   0  0  0  0  0  0  0  0  0  0  0  0
  148.3446  133.7077  152.5114 H   0  0  0  0  0  0  0  0  0  0  0  0
  147.5001  132.6276  153.6037 H   0  0  0  0  0  0  0  0  0  0  0  0
  147.3981  134.1212  150.3408 H   0  0  0  0  0  0  0  0  0  0  0  0
  145.8817  133.3510  149.9203 H   0  0  0  0  0  0  0  0  0  0  0  0
  144.6350  134.7394  151.5447 H   0  0  0  0  0  0  0  0  0  0  0  0
  145.5706  135.7480  150.4482 H   0  0  0  0  0  0  0  0  0  0  0  0
  150.0689  137.9996  152.9771 H   0  0  0  0  0  0  0  0  0  0  0  0
  152.3276  137.9289  153.8528 H   0  0  0  0  0  0  0  0  0  0  0  0
  147.2304  135.9562  152.1059 H   0  0  0  0  0  0  0  0  0  0  0  0
  1  2  1  0  0  0  0
  1 24  1  0  0  0  0
  1 25  1  0  0  0  0
  1 26  1  0  0  0  0
  2  3  1  0  0  0  0
  3  4  1  0  0  0  0
  3 27  1  0  0  0  0
  3 28  1  0  0  0  0
  4  5  1  0  0  0  0
  4 29  1  0  0  0  0
  4 30  1  0  0  0  0
  5 22  1  0  0  0  0
  5  6  1  0  0  0  0
  6  7  2  0  0  0  0
  7  8  1  0  0  0  0
  7 20  1  0  0  0  0
  8  9  2  0  0  0  0
  8 10  1  0  0  0  0
 10 11  1  0  0  0  0
 10 31  1  0  0  0  0
 11 12  1  0  0  0  0
 11 32  1  0  0  0  0
 11 33  1  0  0  0  0
 12 13  1  0  0  0  0
 12 14  1  0  0  0  0
 12 34  1  0  0  0  0
 13 35  1  0  0  0  0
 13 36  1  0  0  0  0
 13 37  1  0  0  0  0
 14 19  1  0  0  0  0
 14 15  1  0  0  0  0
 14 48  1  0  0  0  0
 15 16  1  0  0  0  0
 15 38  1  0  0  0  0
 15 39  1  0  0  0  0
 16 17  1  0  0  0  0
 16 40  1  0  0  0  0
 16 41  1  0  0  0  0
 17 18  1  0  0  0  0
 18 19  1  0  0  0  0
 18 42  1  0  0  0  0
 18 43  1  0  0  0  0
 19 44  1  0  0  0  0
 19 45  1  0  0  0  0
 20 21  2  0  0  0  0
 20 46  1  0  0  0  0
 21 22  1  0  0  0  0
 21 47  1  0  0  0  0
 22 23  2  0  0  0  0
M  CHG  1  14   1
M  END
> <s_m_source_file>
AV-unprocessed.smi

> <i_m_source_file_index>
1958

> <i_lp_mmshare_version>
43012

> <i_f3d_flags>
0

> <s_epik_input>
W0NIM11PW0NIMl1bQ0gyXW4xbmMoW2NIXVtjSF1jMT1PKUMoPU8pW05IXVtDSDJdW0NASF0oW0NIM10pTjJbQ0gyXVtDSDJdT1tDSDJdW0NIMl0y

> <s_epik_cmdline>
J2VwaWtfcHl0aG9uJywgJy1waCcsICc3LjAnLCAnLXRuJywgJzgnLCAnLW1hJywgJzIwMCcsICctbWV0YWxfYmluZGluZycsICctaW1hZScsICc8aW5maWxlLm1hZT4nLCAnLW9tYWUnLCAnPG91dGZpbGUubWFlPic=

> <r_lp_tautomer_probability>
1

> <r_epik_Ionization_Penalty>
0.724355

> <r_epik_Ionization_Penalty_Charging>
0.724348

> <r_epik_Ionization_Penalty_Neutral>
6.31911e-06

> <r_epik_State_Penalty>
0.749058

> <r_epik_Charging_Adjusted_Penalty>
1.47341

> <i_epik_Tot_Q>
1

> <i_epik_Tot_abs_Q>
1

> <r_epik_Metal_State_Penalty>
0.750821

> <b_epik_Metal_Only>
0

> <s_lp_Force_Field>
OPLS_2005

> <r_lp_Energy>
42.169

> <b_lp_Chiralities_Consistent>
1

> <s_lp_Variant>
AV-unprocessed.smi:1958-4

> <Gold.Version>
5.8.1

> <Gold.Id.Protein>
6NUR|6NUR_protein|mol2

> <Gold.PLP.Fitness>
50.4942

> <Gold.PLP.PLP>
-41.6305

> <Gold.PLP.part.hbond>
-3.6624

> <Gold.PLP.part.metal>
0.0000

> <Gold.PLP.part.buried>
-4.9174

> <Gold.PLP.part.nonpolar>
-33.6740

> <Gold.PLP.part.repulsive>
0.4562

> <Gold.PLP.ligand.clash>
0.0000

> <Gold.PLP.ligand.torsion>
1.7267

> <Gold.PLP.Chemscore.Hbond>
3.9120

> <Gold.PLP.Chemscore.CHOScore>
0.0000

> <Gold.PLP.Chemscore.Metal>
0.0000

> <Gold.Chemscore.Hbonds>
donor molecule, donor type, donor heavy atom, donor atom, acceptor molecule, acceptor atom, score
      L1  H    10    31       P1  7948  0.91
      L1  H    14    48       P1  7948  2.00
      P1  H  7997  8010       L1    23  1.00

> <Gold.PLP.Chemscore.Internal.Correction>
0.5810

> <Gold.Rescore>
     Score         DG    S(hbond)    S(metal)    S(lipo)     H(rot)  DE(clash)    DE(int)     intcor
     18.34     -19.60       2.88        0.00      84.99       2.12       0.12       1.14       ----

> <Gold.Chemscore.Fitness>
18.3407

> <Gold.Chemscore.DG>
-19.5994

> <Gold.Chemscore.ZeroCoef>
-5.4800

> <Gold.Chemscore.Hbond>
2.8765

> <Gold.Chemscore.Metal>
0.0000

> <Gold.Chemscore.Lipo>
84.9942

> <Gold.Chemscore.Internal_Hbond>
0.0000

> <Gold.Chemscore.DEClash>
0.1216

> <Gold.Chemscore.DEInternal>
1.1371

> <Gold.Chemscore.Rot>
2.1221

> <Gold.Chemscore.Internal.Correction>
   9.000000E+99

> <Gold.Chemscore.Hbonds>
donor molecule, donor type, donor heavy atom, donor atom, acceptor molecule, acceptor atom, score
      L1  H    10    31       P1  7948  0.89
      L1  H    14    48       P1  7948  1.00
      P1  H  7997  8010       L1    23  0.95

> <Gold.Chemscore.Hbond.Weighted>
-9.6075

> <Gold.Chemscore.Metal.Weighted>
-0.0000

> <Gold.Chemscore.Lipo.Weighted>
-9.9443

> <Gold.Chemscore.Internal_Hbond.Weighted>
0.0000

> <Gold.Chemscore.DEClash.Weighted>
0.1216

> <Gold.Chemscore.DEInternal.Weighted>
1.1371

> <Gold.Chemscore.Rot.Weighted>
5.4325

> <Gold.Chemscore.Internal.Correction.Weighted>
   9.000000E+99

> <Gold.Protein.RotatedTorsions>
[ 6907 6896 6895 6894 ] final  -54.60 input  -60.11 | X-H torsion
[ 7974 7965 7964 7962 ] final  149.50 input  175.53 | X-H torsion
[ 8008 7997 7996 7995 ] final   93.75 input   59.86 | X-H torsion
[ 10167 10162 10161 10158 ] final  -98.28 input  -65.29 | X-H torsion
[ 10718 10713 10712 10709 ] final -105.37 input   66.30 | X-H torsion
[ 10763 10752 10751 10750 ] final  166.44 input  -60.55 | X-H torsion
[ 11005 11000 10999 10996 ] final -174.09 input  -57.11 | X-H torsion

> <Gold.Protein.ActiveResidues>
 VAL166  LYS551  ARG553  GLY616  TRP617  ASP618  TYR619  PRO620  LYS621  CYS622 
 ASP623  PHE694  ASN695  SER759  ASP760  ASP761  ALA762  ILE779  LEU786  VAL792 
 PHE793  MET794  SER795  GLU796  ALA797  LYS798  CYS799  TRP800  GLU811  SER814 

> <Gold.Protein.RotatedAtoms>
  150.8323  134.7582  159.6863 H   0  0  0  0  0  0  0  0  0  0  0  0  # atno 6907 bound_to 6896
  152.4426  134.5557  159.9889 H   0  0  0  0  0  0  0  0  0  0  0  0  # atno 6908 bound_to 6896
  151.5715  133.3351  159.3026 H   0  0  0  0  0  0  0  0  0  0  0  0  # atno 6909 bound_to 6896
  144.8433  139.6288  143.6006 H   0  0  0  0  0  0  0  0  0  0  0  0  # atno 7974 bound_to 7965
  156.0503  140.3309  155.7343 H   0  0  0  0  0  0  0  0  0  0  0  0  # atno 8008 bound_to 7997
  155.5612  140.0619  157.2846 H   0  0  0  0  0  0  0  0  0  0  0  0  # atno 8009 bound_to 7997
  154.4432  140.1877  156.0772 H   0  0  0  0  0  0  0  0  0  0  0  0  # atno 8010 bound_to 7997
  140.2746  143.3322  152.0501 H   0  0  0  0  0  0  0  0  0  0  0  0  # atno 10167 bound_to 10162
  156.0343  130.5560  150.7529 H   0  0  0  0  0  0  0  0  0  0  0  0  # atno 10718 bound_to 10713
  154.3390  135.2754  155.2433 H   0  0  0  0  0  0  0  0  0  0  0  0  # atno 10763 bound_to 10752
  154.4711  135.5882  153.6326 H   0  0  0  0  0  0  0  0  0  0  0  0  # atno 10764 bound_to 10752
  152.9859  135.6088  154.3589 H   0  0  0  0  0  0  0  0  0  0  0  0  # atno 10765 bound_to 10752
  140.4784  134.6098  157.4910 H   0  0  0  0  0  0  0  0  0  0  0  0  # atno 11005 bound_to 11000
  146.2722  139.6664  142.9288 LP  0  0  0  0  0  0  0  0  0  0  0  0  # atno 17320 bound_to 7965
  145.4648  141.0434  143.2731 LP  0  0  0  0  0  0  0  0  0  0  0  0  # atno 17321 bound_to 7965
  139.4979  144.6633  151.6414 LP  0  0  0  0  0  0  0  0  0  0  0  0  # atno 17342 bound_to 10162
  140.5862  143.9860  150.6297 LP  0  0  0  0  0  0  0  0  0  0  0  0  # atno 17343 bound_to 10162
  157.5069  131.0922  151.0246 LP  0  0  0  0  0  0  0  0  0  0  0  0  # atno 17370 bound_to 10713
  157.0612  130.5826  149.5386 LP  0  0  0  0  0  0  0  0  0  0  0  0  # atno 17371 bound_to 10713
  139.9841  134.7089  155.9805 LP  0  0  0  0  0  0  0  0  0  0  0  0  # atno 17394 bound_to 11000
  141.1543  133.6544  156.4111 LP  0  0  0  0  0  0  0  0  0  0  0  0  # atno 17395 bound_to 11000

$$$$
