AV-unprocessed.smi:21|AV-procd|sdf|138|dock6
  -GOLD-   2262015333D 1   1.00000     0.00000
 Structure written by MMmdl.
 62 65  0  0  0  0  0  0  0  0  2 V2000
  146.1894  137.3953  155.4947 C   0  0  0  0  0  0  0  0  0  0  0  0
  146.4027  136.5157  154.4017 O   0  0  0  0  0  0  0  0  0  0  0  0
  146.5459  135.1529  154.7812 C   0  0  2  0  0  0  0  0  0  0  0  0
  147.8412  134.9935  155.5664 C   0  0  0  0  0  0  0  0  0  0  0  0
  148.9285  134.9025  154.4868 C   0  0  1  0  0  0  0  0  0  0  0  0
  150.2170  134.1789  154.9519 C   0  0  0  0  0  0  0  0  0  0  0  0
  150.8145  134.8004  156.1353 N   0  0  0  0  0  0  0  0  0  0  0  0
  151.2911  133.9366  157.2078 C   0  0  0  0  0  0  0  0  0  0  0  0
  151.2583  136.0850  156.0618 C   0  0  0  0  0  0  0  0  0  0  0  0
  151.6880  136.5430  154.8565 N   0  0  0  0  0  0  0  0  0  0  0  0
  152.1343  137.7945  154.7216 C   0  0  0  0  0  0  0  0  0  0  0  0
  152.2434  138.7442  155.6505 N   0  0  0  0  0  0  0  0  0  0  0  0
  151.8238  138.2948  156.8670 C   0  0  0  0  0  0  0  0  0  0  0  0
  151.3192  136.9944  157.1613 C   0  0  0  0  0  0  0  0  0  0  0  0
  151.0111  136.9138  158.5158 N   0  0  0  0  0  0  0  0  0  0  0  0
  151.2999  138.0951  158.9878 C   0  0  0  0  0  0  0  0  0  0  0  0
  151.7913  138.9874  158.0646 N   0  0  0  0  0  0  0  0  0  0  0  0
  152.1925  140.3597  158.3180 C   0  0  0  0  0  0  0  0  0  0  0  0
  151.0028  141.3322  158.5324 C   0  0  2  0  0  0  0  0  0  0  0  0
  149.7821  140.9751  157.6456 C   0  0  0  0  0  0  0  0  0  0  0  0
  150.0643  141.1354  156.2705 O   0  0  0  0  0  0  0  0  0  0  0  0
  151.4506  142.7977  158.2929 C   0  0  2  0  0  0  0  0  0  0  0  0
  152.6062  143.2690  159.1612 C   0  0  0  0  0  0  0  0  0  0  0  0
  152.4875  144.7833  159.0541 C   0  0  0  0  0  0  0  0  0  0  0  0
  151.0904  145.0387  159.0160 O   0  0  0  0  0  0  0  0  0  0  0  0
  150.3918  143.8578  158.6317 C   0  0  0  0  0  0  0  0  0  0  0  0
  148.2540  134.3262  153.2866 N   0  3  1  0  0  0  0  0  0  0  0  0
  148.7961  133.0654  152.7274 C   0  0  0  0  0  0  0  0  0  0  0  0
  146.7990  134.2637  153.5598 C   0  0  0  0  0  0  0  0  0  0  0  0
  145.6887  134.8227  155.3710 H   0  0  0  0  0  0  0  0  0  0  0  0
  149.1938  135.9202  154.1967 H   0  0  0  0  0  0  0  0  0  0  0  0
  146.0857  138.4155  155.1254 H   0  0  0  0  0  0  0  0  0  0  0  0
  147.0330  137.3753  156.1858 H   0  0  0  0  0  0  0  0  0  0  0  0
  145.2821  137.1471  156.0454 H   0  0  0  0  0  0  0  0  0  0  0  0
  148.0102  135.8070  156.2730 H   0  0  0  0  0  0  0  0  0  0  0  0
  147.8038  134.0634  156.1354 H   0  0  0  0  0  0  0  0  0  0  0  0
  150.0228  133.1190  155.1160 H   0  0  0  0  0  0  0  0  0  0  0  0
  150.9669  134.2228  154.1618 H   0  0  0  0  0  0  0  0  0  0  0  0
  151.2958  134.4652  158.1617 H   0  0  0  0  0  0  0  0  0  0  0  0
  152.2996  133.5796  156.9982 H   0  0  0  0  0  0  0  0  0  0  0  0
  150.6426  133.0669  157.3165 H   0  0  0  0  0  0  0  0  0  0  0  0
  152.4483  138.0750  153.7269 H   0  0  0  0  0  0  0  0  0  0  0  0
  151.1598  138.3515  160.0279 H   0  0  0  0  0  0  0  0  0  0  0  0
  152.8403  140.3461  159.1943 H   0  0  0  0  0  0  0  0  0  0  0  0
  152.8102  140.7012  157.4867 H   0  0  0  0  0  0  0  0  0  0  0  0
  150.6924  141.2585  159.5760 H   0  0  0  0  0  0  0  0  0  0  0  0
  149.4863  139.9353  157.7766 H   0  0  0  0  0  0  0  0  0  0  0  0
  148.9167  141.5810  157.9155 H   0  0  0  0  0  0  0  0  0  0  0  0
  149.7453  141.9814  155.9951 H   0  0  0  0  0  0  0  0  0  0  0  0
  151.7400  142.9199  157.2478 H   0  0  0  0  0  0  0  0  0  0  0  0
  152.4624  142.9543  160.1958 H   0  0  0  0  0  0  0  0  0  0  0  0
  153.5776  142.9069  158.8233 H   0  0  0  0  0  0  0  0  0  0  0  0
  152.9687  145.3039  159.8823 H   0  0  0  0  0  0  0  0  0  0  0  0
  152.9346  145.1354  158.1234 H   0  0  0  0  0  0  0  0  0  0  0  0
  149.7295  144.0624  157.7902 H   0  0  0  0  0  0  0  0  0  0  0  0
  149.7756  143.5404  159.4738 H   0  0  0  0  0  0  0  0  0  0  0  0
  148.7518  132.2535  153.4546 H   0  0  0  0  0  0  0  0  0  0  0  0
  149.8279  133.1900  152.3992 H   0  0  0  0  0  0  0  0  0  0  0  0
  148.2153  132.7658  151.8543 H   0  0  0  0  0  0  0  0  0  0  0  0
  146.5219  133.2389  153.8140 H   0  0  0  0  0  0  0  0  0  0  0  0
  146.2179  134.5475  152.6828 H   0  0  0  0  0  0  0  0  0  0  0  0
  148.3700  135.0217  152.5630 H   0  0  0  0  0  0  0  0  0  0  0  0
  1  2  1  0  0  0  0
  1 32  1  0  0  0  0
  1 33  1  0  0  0  0
  1 34  1  0  0  0  0
  2  3  1  0  0  0  0
  3 30  1  0  0  0  0
  3 29  1  0  0  0  0
  3  4  1  0  0  0  0
  4  5  1  0  0  0  0
  4 35  1  0  0  0  0
  4 36  1  0  0  0  0
  5 31  1  0  0  0  0
  5  6  1  0  0  0  0
  5 27  1  0  0  0  0
  6  7  1  0  0  0  0
  6 37  1  0  0  0  0
  6 38  1  0  0  0  0
  7  8  1  0  0  0  0
  7  9  1  0  0  0  0
  8 39  1  0  0  0  0
  8 40  1  0  0  0  0
  8 41  1  0  0  0  0
  9 14  1  0  0  0  0
  9 10  2  0  0  0  0
 10 11  1  0  0  0  0
 11 12  2  0  0  0  0
 11 42  1  0  0  0  0
 12 13  1  0  0  0  0
 13 17  1  0  0  0  0
 13 14  2  0  0  0  0
 14 15  1  0  0  0  0
 15 16  2  0  0  0  0
 16 17  1  0  0  0  0
 16 43  1  0  0  0  0
 17 18  1  0  0  0  0
 18 19  1  0  0  0  0
 18 44  1  0  0  0  0
 18 45  1  0  0  0  0
 19 20  1  0  0  0  0
 19 22  1  0  0  0  0
 19 46  1  0  0  0  0
 20 21  1  0  0  0  0
 20 47  1  0  0  0  0
 20 48  1  0  0  0  0
 21 49  1  0  0  0  0
 22 26  1  0  0  0  0
 22 23  1  0  0  0  0
 22 50  1  0  0  0  0
 23 24  1  0  0  0  0
 23 51  1  0  0  0  0
 23 52  1  0  0  0  0
 24 25  1  0  0  0  0
 24 53  1  0  0  0  0
 24 54  1  0  0  0  0
 25 26  1  0  0  0  0
 26 55  1  0  0  0  0
 26 56  1  0  0  0  0
 27 28  1  0  0  0  0
 27 29  1  0  0  0  0
 27 62  1  0  0  0  0
 28 57  1  0  0  0  0
 28 58  1  0  0  0  0
 28 59  1  0  0  0  0
 29 60  1  0  0  0  0
 29 61  1  0  0  0  0
M  CHG  1  27   1
M  END
> <s_m_source_file>
AV-unprocessed.smi

> <i_m_source_file_index>
21

> <i_lp_mmshare_version>
43012

> <i_f3d_flags>
0

> <s_epik_input>
W0NIM11PW0NASF0xW0NIMl1bQ0BIXShOKFtDSDNdKVtDSDJdMSlbQ0gyXU4oW0NIM10pYyhuW2NIXW4yKWMoYzIzKW5bY0hdbjNbQ0gyXVtDQEhdKFtDSDJdW09IXSlbQ0BASF00W0NIMl1bQ0gyXU9bQ0gyXTQ=

> <s_epik_cmdline>
J2VwaWtfcHl0aG9uJywgJy1waCcsICc3LjAnLCAnLXRuJywgJzgnLCAnLW1hJywgJzIwMCcsICctbWV0YWxfYmluZGluZycsICctaW1hZScsICc8aW5maWxlLm1hZT4nLCAnLW9tYWUnLCAnPG91dGZpbGUubWFlPic=

> <r_lp_tautomer_probability>
1

> <r_epik_Ionization_Penalty>
0.0157465

> <r_epik_Ionization_Penalty_Charging>
0.015354

> <r_epik_Ionization_Penalty_Neutral>
0.000392529

> <r_epik_State_Penalty>
0.0120612

> <r_epik_Charging_Adjusted_Penalty>
0.0274152

> <i_epik_Tot_Q>
1

> <i_epik_Tot_abs_Q>
1

> <r_epik_Metal_State_Penalty>
0.0121253

> <b_epik_Metal_Only>
0

> <s_lp_Force_Field>
OPLS_2005

> <r_lp_Energy>
61.8504

> <b_lp_Chiralities_Consistent>
1

> <s_lp_Variant>
AV-unprocessed.smi:21-18

> <Gold.Version>
5.8.1

> <Gold.Id.Protein>
6NUR|6NUR_protein|mol2

> <Gold.PLP.Fitness>
44.5592

> <Gold.PLP.PLP>
-36.4768

> <Gold.PLP.part.hbond>
-2.5792

> <Gold.PLP.part.metal>
0.0000

> <Gold.PLP.part.buried>
-2.7930

> <Gold.PLP.part.nonpolar>
-31.8908

> <Gold.PLP.part.repulsive>
0.3419

> <Gold.PLP.ligand.clash>
0.0000

> <Gold.PLP.ligand.torsion>
1.1208

> <Gold.PLP.Chemscore.Hbond>
3.2704

> <Gold.PLP.Chemscore.CHOScore>
0.0000

> <Gold.PLP.Chemscore.Metal>
0.0000

> <Gold.Chemscore.Hbonds>
donor molecule, donor type, donor heavy atom, donor atom, acceptor molecule, acceptor atom, score
      L1  H    27    62       P1  7948  1.72
      P1  H  6896  6908       L1    15  0.32
      P1  H 10752 10765       L1    10  1.00

> <Gold.PLP.Chemscore.Internal.Correction>
0.5128

> <Gold.Rescore>
     Score         DG    S(hbond)    S(metal)    S(lipo)     H(rot)  DE(clash)    DE(int)     intcor
     10.89     -13.69       1.82        0.00      85.64       3.08       1.61       1.19       ----

> <Gold.Chemscore.Fitness>
10.8928

> <Gold.Chemscore.DG>
-13.6938

> <Gold.Chemscore.ZeroCoef>
-5.4800

> <Gold.Chemscore.Hbond>
1.8167

> <Gold.Chemscore.Metal>
0.0000

> <Gold.Chemscore.Lipo>
85.6423

> <Gold.Chemscore.Internal_Hbond>
0.0000

> <Gold.Chemscore.DEClash>
1.6115

> <Gold.Chemscore.DEInternal>
1.1894

> <Gold.Chemscore.Rot>
3.0758

> <Gold.Chemscore.Internal.Correction>
   9.000000E+99

> <Gold.Chemscore.Hbonds>
donor molecule, donor type, donor heavy atom, donor atom, acceptor molecule, acceptor atom, score
      L1  H    27    62       P1  7948  0.50
      P1  H  6896  6908       L1    15  0.31
      P1  H 10752 10765       L1    10  0.19

> <Gold.Chemscore.Hbond.Weighted>
-6.0678

> <Gold.Chemscore.Metal.Weighted>
-0.0000

> <Gold.Chemscore.Lipo.Weighted>
-10.0202

> <Gold.Chemscore.Internal_Hbond.Weighted>
0.0000

> <Gold.Chemscore.DEClash.Weighted>
1.6115

> <Gold.Chemscore.DEInternal.Weighted>
1.1894

> <Gold.Chemscore.Rot.Weighted>
7.8741

> <Gold.Chemscore.Internal.Correction.Weighted>
   9.000000E+99

> <Gold.Protein.RotatedTorsions>
[ 6907 6896 6895 6894 ] final -156.21 input  -60.11 | X-H torsion
[ 7974 7965 7964 7962 ] final  -66.20 input  175.53 | X-H torsion
[ 8008 7997 7996 7995 ] final   26.31 input   59.86 | X-H torsion
[ 10167 10162 10161 10158 ] final  101.15 input  -65.29 | X-H torsion
[ 10718 10713 10712 10709 ] final  114.45 input   66.30 | X-H torsion
[ 10763 10752 10751 10750 ] final  177.19 input  -60.55 | X-H torsion
[ 11005 11000 10999 10996 ] final  152.33 input  -57.11 | X-H torsion

> <Gold.Protein.ActiveResidues>
 VAL166  LYS551  ARG553  GLY616  TRP617  ASP618  TYR619  PRO620  LYS621  CYS622 
 ASP623  PHE694  ASN695  SER759  ASP760  ASP761  ALA762  ILE779  LEU786  VAL792 
 PHE793  MET794  SER795  GLU796  ALA797  LYS798  CYS799  TRP800  GLU811  SER814 

> <Gold.Protein.RotatedAtoms>
  151.2841  133.4195  159.2628 H   0  0  0  0  0  0  0  0  0  0  0  0  # atno 6907 bound_to 6896
  151.0334  134.9556  159.8133 H   0  0  0  0  0  0  0  0  0  0  0  0  # atno 6908 bound_to 6896
  152.5350  134.2802  159.9057 H   0  0  0  0  0  0  0  0  0  0  0  0  # atno 6909 bound_to 6896
  145.7448  140.8937  143.0511 H   0  0  0  0  0  0  0  0  0  0  0  0  # atno 7974 bound_to 7965
  155.0253  140.3152  155.4778 H   0  0  0  0  0  0  0  0  0  0  0  0  # atno 8008 bound_to 7997
  156.2884  140.2190  156.5315 H   0  0  0  0  0  0  0  0  0  0  0  0  # atno 8009 bound_to 7997
  154.7416  140.0473  157.0804 H   0  0  0  0  0  0  0  0  0  0  0  0  # atno 8010 bound_to 7997
  139.7463  144.6997  151.0499 H   0  0  0  0  0  0  0  0  0  0  0  0  # atno 10167 bound_to 10162
  157.6280  131.0999  150.7187 H   0  0  0  0  0  0  0  0  0  0  0  0  # atno 10718 bound_to 10713
  154.4911  135.2779  155.1495 H   0  0  0  0  0  0  0  0  0  0  0  0  # atno 10763 bound_to 10752
  154.3167  135.6218  153.5493 H   0  0  0  0  0  0  0  0  0  0  0  0  # atno 10764 bound_to 10752
  152.9888  135.5732  154.5333 H   0  0  0  0  0  0  0  0  0  0  0  0  # atno 10765 bound_to 10752
  140.1298  134.8809  157.2188 H   0  0  0  0  0  0  0  0  0  0  0  0  # atno 11005 bound_to 11000
  144.6862  139.9510  143.7478 LP  0  0  0  0  0  0  0  0  0  0  0  0  # atno 17320 bound_to 7965
  146.0414  139.3425  143.0695 LP  0  0  0  0  0  0  0  0  0  0  0  0  # atno 17321 bound_to 7965
  140.7792  143.4863  150.9952 LP  0  0  0  0  0  0  0  0  0  0  0  0  # atno 17342 bound_to 10162
  139.8551  143.7388  152.3176 LP  0  0  0  0  0  0  0  0  0  0  0  0  # atno 17343 bound_to 10162
  156.7532  130.4775  149.5452 LP  0  0  0  0  0  0  0  0  0  0  0  0  # atno 17370 bound_to 10713
  156.1465  130.6280  151.0538 LP  0  0  0  0  0  0  0  0  0  0  0  0  # atno 17371 bound_to 10713
  140.2857  134.3299  155.7330 LP  0  0  0  0  0  0  0  0  0  0  0  0  # atno 17394 bound_to 11000
  141.2168  133.7504  156.9429 LP  0  0  0  0  0  0  0  0  0  0  0  0  # atno 17395 bound_to 11000

$$$$
