AV-unprocessed.smi:134|AV-procd|sdf|1168|dock2
  -GOLD-   2262018313D 1   1.00000     0.00000
 Structure written by MMmdl.
 51 54  0  0  0  0  0  0  0  0  1 V2000
  151.7356  137.0218  159.9793 O   0  0  0  0  0  0  0  0  0  0  0  0
  152.6982  137.7535  159.7538 C   0  0  0  0  0  0  0  0  0  0  0  0
  152.8320  138.3826  158.3540 C   0  0  0  0  0  0  0  0  0  0  0  0
  152.0209  139.6035  158.1314 N   0  0  0  0  0  0  0  0  0  0  0  0
  151.0409  139.5895  157.1073 C   0  0  0  0  0  0  0  0  0  0  0  0
  150.8552  138.5867  156.4169 O   0  0  0  0  0  0  0  0  0  0  0  0
  150.2979  140.8314  156.9279 C   0  0  0  0  0  0  0  0  0  0  0  0
  149.3543  140.9105  155.9745 F   0  0  0  0  0  0  0  0  0  0  0  0
  150.5470  141.9076  157.7015 C   0  0  0  0  0  0  0  0  0  0  0  0
  151.5033  141.9068  158.7011 N   0  0  0  0  0  0  0  0  0  0  0  0
  151.7554  143.1291  159.5597 C   0  0  1  0  0  0  0  0  0  0  0  0
  153.1439  143.7060  159.2700 C   0  0  0  0  0  0  0  0  0  0  0  0
  152.8432  144.6876  158.1600 C   0  0  0  0  0  0  0  0  0  0  0  0
  151.4714  145.2090  158.5751 C   0  0  0  0  0  0  0  0  0  0  0  0
  150.8248  144.1222  159.2367 O   0  0  0  0  0  0  0  0  0  0  0  0
  152.2722  140.7449  158.9299 C   0  0  0  0  0  0  0  0  0  0  0  0
  153.1467  140.7322  159.7986 O   0  0  0  0  0  0  0  0  0  0  0  0
  153.6393  138.0620  160.6667 N   0  0  0  0  0  0  0  0  0  0  0  0
  153.7654  137.6182  162.0116 C   0  0  0  0  0  0  0  0  0  0  0  0
  153.2323  136.3852  162.4599 C   0  0  0  0  0  0  0  0  0  0  0  0
  153.4140  135.9737  163.7943 C   0  0  0  0  0  0  0  0  0  0  0  0
  154.1376  136.7813  164.6908 C   0  0  0  0  0  0  0  0  0  0  0  0
  154.6857  138.0003  164.2511 C   0  0  0  0  0  0  0  0  0  0  0  0
  154.5044  138.4177  162.9172 C   0  0  0  0  0  0  0  0  0  0  0  0
  155.2016  139.9596  162.4022 S   0  0  0  0  0  0  0  0  0  0  0  0
  155.5911  140.6614  163.9708 C   0  0  0  0  0  0  0  0  0  0  0  0
  156.7057  140.1947  164.6958 C   0  0  0  0  0  0  0  0  0  0  0  0
  157.0042  140.7457  165.9567 C   0  0  0  0  0  0  0  0  0  0  0  0
  156.1915  141.7658  166.4899 C   0  0  0  0  0  0  0  0  0  0  0  0
  156.5548  142.4382  168.0365 Cl  0  0  0  0  0  0  0  0  0  0  0  0
  155.0813  142.2366  165.7605 C   0  0  0  0  0  0  0  0  0  0  0  0
  154.7807  141.6850  164.4998 C   0  0  0  0  0  0  0  0  0  0  0  0
  153.8888  138.5910  158.1800 H   0  0  0  0  0  0  0  0  0  0  0  0
  152.5962  137.6151  157.6154 H   0  0  0  0  0  0  0  0  0  0  0  0
  149.9688  142.8002  157.5157 H   0  0  0  0  0  0  0  0  0  0  0  0
  151.6120  142.8035  160.5914 H   0  0  0  0  0  0  0  0  0  0  0  0
  153.4992  144.2273  160.1596 H   0  0  0  0  0  0  0  0  0  0  0  0
  153.8645  142.9374  158.9981 H   0  0  0  0  0  0  0  0  0  0  0  0
  153.5911  145.4756  158.0702 H   0  0  0  0  0  0  0  0  0  0  0  0
  152.7795  144.1665  157.2040 H   0  0  0  0  0  0  0  0  0  0  0  0
  151.5781  146.0310  159.2839 H   0  0  0  0  0  0  0  0  0  0  0  0
  150.8860  145.5663  157.7277 H   0  0  0  0  0  0  0  0  0  0  0  0
  154.3129  138.7581  160.3814 H   0  0  0  0  0  0  0  0  0  0  0  0
  152.6947  135.7307  161.7912 H   0  0  0  0  0  0  0  0  0  0  0  0
  153.0035  135.0320  164.1276 H   0  0  0  0  0  0  0  0  0  0  0  0
  154.2773  136.4630  165.7135 H   0  0  0  0  0  0  0  0  0  0  0  0
  155.2439  138.6162  164.9410 H   0  0  0  0  0  0  0  0  0  0  0  0
  157.3314  139.4141  164.2906 H   0  0  0  0  0  0  0  0  0  0  0  0
  157.8564  140.3844  166.5133 H   0  0  0  0  0  0  0  0  0  0  0  0
  154.4581  143.0192  166.1676 H   0  0  0  0  0  0  0  0  0  0  0  0
  153.9273  142.0452  163.9441 H   0  0  0  0  0  0  0  0  0  0  0  0
  1  2  2  0  0  0  0
  2  3  1  0  0  0  0
  2 18  1  0  0  0  0
  3  4  1  0  0  0  0
  3 33  1  0  0  0  0
  3 34  1  0  0  0  0
  4 16  1  0  0  0  0
  4  5  1  0  0  0  0
  5  6  2  0  0  0  0
  5  7  1  0  0  0  0
  7  8  1  0  0  0  0
  7  9  2  0  0  0  0
  9 10  1  0  0  0  0
  9 35  1  0  0  0  0
 10 11  1  0  0  0  0
 10 16  1  0  0  0  0
 11 15  1  0  0  0  0
 11 12  1  0  0  0  0
 11 36  1  0  0  0  0
 12 13  1  0  0  0  0
 12 37  1  0  0  0  0
 12 38  1  0  0  0  0
 13 14  1  0  0  0  0
 13 39  1  0  0  0  0
 13 40  1  0  0  0  0
 14 15  1  0  0  0  0
 14 41  1  0  0  0  0
 14 42  1  0  0  0  0
 16 17  2  0  0  0  0
 18 19  1  0  0  0  0
 18 43  1  0  0  0  0
 19 24  1  0  0  0  0
 19 20  2  0  0  0  0
 20 21  1  0  0  0  0
 20 44  1  0  0  0  0
 21 22  2  0  0  0  0
 21 45  1  0  0  0  0
 22 23  1  0  0  0  0
 22 46  1  0  0  0  0
 23 24  2  0  0  0  0
 23 47  1  0  0  0  0
 24 25  1  0  0  0  0
 25 26  1  0  0  0  0
 26 32  1  0  0  0  0
 26 27  2  0  0  0  0
 27 28  1  0  0  0  0
 27 48  1  0  0  0  0
 28 29  2  0  0  0  0
 28 49  1  0  0  0  0
 29 30  1  0  0  0  0
 29 31  1  0  0  0  0
 31 32  2  0  0  0  0
 31 50  1  0  0  0  0
 32 51  1  0  0  0  0
M  END
> <s_m_source_file>
AV-unprocessed.smi

> <i_m_source_file_index>
134

> <i_lp_mmshare_version>
43012

> <i_f3d_flags>
0

> <s_epik_input>
TzFbQ0gyXVtDSDJdW0NIMl1bQ0BIXTFuKGMyPU8pW2NIXWMoRiljKD1PKW4yW0NIMl1DKD1PKVtOSF1jM1tjSF1bY0hdW2NIXVtjSF1jM1NjNFtjSF1bY0hdYyhDbClbY0hdW2NIXTQ=

> <s_epik_cmdline>
J2VwaWtfcHl0aG9uJywgJy1waCcsICc3LjAnLCAnLXRuJywgJzgnLCAnLW1hJywgJzIwMCcsICctbWV0YWxfYmluZGluZycsICctaW1hZScsICc8aW5maWxlLm1hZT4nLCAnLW9tYWUnLCAnPG91dGZpbGUubWFlPic=

> <r_lp_tautomer_probability>
1

> <r_epik_Ionization_Penalty>
2.01717e-06

> <r_epik_Ionization_Penalty_Charging>
3.88729e-08

> <r_epik_Ionization_Penalty_Neutral>
1.9783e-06

> <r_epik_State_Penalty>
-0

> <r_epik_Charging_Adjusted_Penalty>
3.88729e-08

> <i_epik_Tot_Q>
0

> <i_epik_Tot_abs_Q>
0

> <r_epik_Metal_State_Penalty>
-0

> <b_epik_Metal_Only>
0

> <s_epik_Chemistry_Notes>
This compound contains an acetal/aminal-like group ( X-CH(R)-Y where X, Y are N, S, or O) that may be acid/base labile, releasing an aldehyde.

> <s_lp_Force_Field>
OPLS_2005

> <r_lp_Energy>
34.7756

> <b_lp_Chiralities_Consistent>
1

> <s_lp_Variant>
AV-unprocessed.smi:134-2

> <Gold.Version>
5.8.1

> <Gold.Id.Protein>
6NUR|6NUR_protein|mol2

> <Gold.PLP.Fitness>
55.7238

> <Gold.PLP.PLP>
-54.4036

> <Gold.PLP.part.hbond>
-1.0000

> <Gold.PLP.part.metal>
0.0000

> <Gold.PLP.part.buried>
-4.4473

> <Gold.PLP.part.nonpolar>
-49.1074

> <Gold.PLP.part.repulsive>
0.1186

> <Gold.PLP.ligand.clash>
0.0000

> <Gold.PLP.ligand.torsion>
0.8855

> <Gold.PLP.Chemscore.Hbond>
1.0000

> <Gold.PLP.Chemscore.CHOScore>
0.0000

> <Gold.PLP.Chemscore.Metal>
0.0000

> <Gold.Chemscore.Hbonds>
donor molecule, donor type, donor heavy atom, donor atom, acceptor molecule, acceptor atom, score
      P1  H  6896  6908       L1     1  1.00
      L1  C     9    35       P1  8028  0.14

> <Gold.PLP.Chemscore.Internal.Correction>
0.0912

> <Gold.Rescore>
     Score         DG    S(hbond)    S(metal)    S(lipo)     H(rot)  DE(clash)    DE(int)     intcor
     17.72     -21.15       1.00        0.00     148.23       1.95       0.17       3.26       ----

> <Gold.Chemscore.Fitness>
17.7171

> <Gold.Chemscore.DG>
-21.1463

> <Gold.Chemscore.ZeroCoef>
-5.4800

> <Gold.Chemscore.Hbond>
0.9966

> <Gold.Chemscore.Metal>
0.0000

> <Gold.Chemscore.Lipo>
148.2256

> <Gold.Chemscore.Internal_Hbond>
0.0000

> <Gold.Chemscore.DEClash>
0.1682

> <Gold.Chemscore.DEInternal>
3.2610

> <Gold.Chemscore.Rot>
1.9549

> <Gold.Chemscore.Internal.Correction>
   9.000000E+99

> <Gold.Chemscore.Hbonds>
donor molecule, donor type, donor heavy atom, donor atom, acceptor molecule, acceptor atom, score
      P1  H  6896  6908       L1     1  1.00

> <Gold.Chemscore.Hbond.Weighted>
-3.3286

> <Gold.Chemscore.Metal.Weighted>
-0.0000

> <Gold.Chemscore.Lipo.Weighted>
-17.3424

> <Gold.Chemscore.Internal_Hbond.Weighted>
0.0000

> <Gold.Chemscore.DEClash.Weighted>
0.1682

> <Gold.Chemscore.DEInternal.Weighted>
3.2610

> <Gold.Chemscore.Rot.Weighted>
5.0046

> <Gold.Chemscore.Internal.Correction.Weighted>
   9.000000E+99

> <Gold.Protein.RotatedTorsions>
[ 6907 6896 6895 6894 ] final -116.03 input  -60.11 | X-H torsion
[ 7974 7965 7964 7962 ] final   44.56 input  175.53 | X-H torsion
[ 8008 7997 7996 7995 ] final   41.89 input   59.86 | X-H torsion
[ 10167 10162 10161 10158 ] final  -71.36 input  -65.29 | X-H torsion
[ 10718 10713 10712 10709 ] final  -43.28 input   66.30 | X-H torsion
[ 10763 10752 10751 10750 ] final   -7.30 input  -60.55 | X-H torsion
[ 11005 11000 10999 10996 ] final  124.84 input  -57.11 | X-H torsion

> <Gold.Protein.ActiveResidues>
 VAL166  LYS551  ARG553  GLY616  TRP617  ASP618  TYR619  PRO620  LYS621  CYS622 
 ASP623  PHE694  ASN695  SER759  ASP760  ASP761  ALA762  ILE779  LEU786  VAL792 
 PHE793  MET794  SER795  GLU796  ALA797  LYS798  CYS799  TRP800  GLU811  SER814 

> <Gold.Protein.RotatedAtoms>
  150.8024  133.8575  159.3222 H   0  0  0  0  0  0  0  0  0  0  0  0  # atno 6907 bound_to 6896
  151.6383  135.1014  160.0145 H   0  0  0  0  0  0  0  0  0  0  0  0  # atno 6908 bound_to 6896
  152.4112  133.6926  159.6434 H   0  0  0  0  0  0  0  0  0  0  0  0  # atno 6909 bound_to 6896
  146.0558  139.5061  142.9689 H   0  0  0  0  0  0  0  0  0  0  0  0  # atno 7974 bound_to 7965
  155.2771  140.3370  155.4261 H   0  0  0  0  0  0  0  0  0  0  0  0  # atno 8008 bound_to 7997
  156.2107  140.1768  156.7743 H   0  0  0  0  0  0  0  0  0  0  0  0  # atno 8009 bound_to 7997
  154.5682  140.0675  156.8908 H   0  0  0  0  0  0  0  0  0  0  0  0  # atno 8010 bound_to 7997
  140.5279  143.2324  151.7314 H   0  0  0  0  0  0  0  0  0  0  0  0  # atno 10167 bound_to 10162
  156.2507  130.4188  149.8653 H   0  0  0  0  0  0  0  0  0  0  0  0  # atno 10718 bound_to 10713
  153.4244  135.7010  153.6272 H   0  0  0  0  0  0  0  0  0  0  0  0  # atno 10763 bound_to 10752
  153.4713  135.3714  155.2392 H   0  0  0  0  0  0  0  0  0  0  0  0  # atno 10764 bound_to 10752
  154.8723  135.4043  154.3618 H   0  0  0  0  0  0  0  0  0  0  0  0  # atno 10765 bound_to 10752
  139.9378  134.9638  156.8469 H   0  0  0  0  0  0  0  0  0  0  0  0  # atno 11005 bound_to 11000
  145.6646  141.0232  143.1690 LP  0  0  0  0  0  0  0  0  0  0  0  0  # atno 17320 bound_to 7965
  144.7147  139.8240  143.7403 LP  0  0  0  0  0  0  0  0  0  0  0  0  # atno 17321 bound_to 7965
  139.4944  144.4157  152.0032 LP  0  0  0  0  0  0  0  0  0  0  0  0  # atno 17342 bound_to 10162
  140.3258  144.3375  150.5999 LP  0  0  0  0  0  0  0  0  0  0  0  0  # atno 17343 bound_to 10162
  156.6203  130.8623  151.3474 LP  0  0  0  0  0  0  0  0  0  0  0  0  # atno 17370 bound_to 10713
  157.7213  130.9562  150.1450 LP  0  0  0  0  0  0  0  0  0  0  0  0  # atno 17371 bound_to 10713
  140.6031  134.0153  155.7545 LP  0  0  0  0  0  0  0  0  0  0  0  0  # atno 17394 bound_to 11000
  141.0999  133.9785  157.3097 LP  0  0  0  0  0  0  0  0  0  0  0  0  # atno 17395 bound_to 11000

$$$$
