AV-unprocessed.smi:972|AV-procd|sdf|4298|dock1
  -GOLD-   22720 2203D 1   1.00000     0.00000
 Structure written by MMmdl.
 50 52  0  0  0  0  0  0  0  0  1 V2000
  136.0672  142.3087  153.2534 C   0  0  0  0  0  0  0  0  0  0  0  0
  136.3534  141.2887  154.3808 C   0  0  0  0  0  0  0  0  0  0  0  0
  136.3060  142.0900  155.7030 C   0  0  0  0  0  0  0  0  0  0  0  0
  135.2540  140.2106  154.3890 C   0  0  0  0  0  0  0  0  0  0  0  0
  137.7255  140.6194  154.1897 C   0  0  0  0  0  0  0  0  0  0  0  0
  138.7854  141.4272  154.0533 N   0  0  0  0  0  0  0  0  0  0  0  0
  139.9718  140.8585  153.7542 C   0  0  0  0  0  0  0  0  0  0  0  0
  140.1041  139.4713  153.5457 C   0  0  0  0  0  0  0  0  0  0  0  0
  141.3879  138.9432  153.2428 N   0  0  0  0  0  0  0  0  0  0  0  0
  141.8125  137.6708  153.3246 C   0  0  0  0  0  0  0  0  0  0  0  0
  141.1258  136.7125  153.6771 O   0  0  0  0  0  0  0  0  0  0  0  0
  143.0961  137.5695  152.9514 N   0  0  0  0  0  0  0  0  0  0  0  0
  143.8778  136.3370  152.8990 C   0  0  0  0  0  0  0  0  0  0  0  0
  145.0935  136.5215  151.9769 C   0  0  0  0  0  0  0  0  0  0  0  0
  145.8395  135.1909  151.7731 C   0  0  0  0  0  0  0  0  0  0  0  0
  144.9359  134.1857  151.2127 N   0  0  0  0  0  0  0  0  0  0  0  0
  145.6792  132.9563  150.9906 C   0  0  0  0  0  0  0  0  0  0  0  0
  145.5722  132.3103  149.6280 C   0  0  0  0  0  0  0  0  0  0  0  0
  144.8853  131.6817  150.8164 C   0  0  0  0  0  0  0  0  0  0  0  0
  143.8480  133.9157  152.1528 C   0  0  0  0  0  0  0  0  0  0  0  0
  143.0079  135.1860  152.3703 C   0  0  0  0  0  0  0  0  0  0  0  0
  138.9165  138.7135  153.6831 C   0  0  0  0  0  0  0  0  0  0  0  0
  137.7365  139.2957  153.9853 N   0  0  0  0  0  0  0  0  0  0  0  0
  135.1169  142.8195  153.4121 H   0  0  0  0  0  0  0  0  0  0  0  0
  136.0067  141.8306  152.2749 H   0  0  0  0  0  0  0  0  0  0  0  0
  136.8445  143.0721  153.2014 H   0  0  0  0  0  0  0  0  0  0  0  0
  137.0931  142.8444  155.7382 H   0  0  0  0  0  0  0  0  0  0  0  0
  136.4251  141.4474  156.5761 H   0  0  0  0  0  0  0  0  0  0  0  0
  135.3527  142.6063  155.8212 H   0  0  0  0  0  0  0  0  0  0  0  0
  134.2657  140.6504  154.5255 H   0  0  0  0  0  0  0  0  0  0  0  0
  135.4093  139.4926  155.1951 H   0  0  0  0  0  0  0  0  0  0  0  0
  135.2398  139.6534  153.4514 H   0  0  0  0  0  0  0  0  0  0  0  0
  140.8205  141.5214  153.6711 H   0  0  0  0  0  0  0  0  0  0  0  0
  142.0530  139.6093  152.8778 H   0  0  0  0  0  0  0  0  0  0  0  0
  143.5735  138.4151  152.6758 H   0  0  0  0  0  0  0  0  0  0  0  0
  144.2385  136.0637  153.8923 H   0  0  0  0  0  0  0  0  0  0  0  0
  144.7735  136.9077  151.0077 H   0  0  0  0  0  0  0  0  0  0  0  0
  145.7718  137.2646  152.3975 H   0  0  0  0  0  0  0  0  0  0  0  0
  146.6783  135.3457  151.0936 H   0  0  0  0  0  0  0  0  0  0  0  0
  146.2545  134.8400  152.7195 H   0  0  0  0  0  0  0  0  0  0  0  0
  146.6420  132.8368  151.4851 H   0  0  0  0  0  0  0  0  0  0  0  0
  144.9422  132.7919  148.8822 H   0  0  0  0  0  0  0  0  0  0  0  0
  146.4583  131.8135  149.2383 H   0  0  0  0  0  0  0  0  0  0  0  0
  145.3136  130.7663  151.2199 H   0  0  0  0  0  0  0  0  0  0  0  0
  143.7996  131.7462  150.8594 H   0  0  0  0  0  0  0  0  0  0  0  0
  143.2119  133.1235  151.7560 H   0  0  0  0  0  0  0  0  0  0  0  0
  144.2493  133.5585  153.1027 H   0  0  0  0  0  0  0  0  0  0  0  0
  142.1981  134.9775  153.0704 H   0  0  0  0  0  0  0  0  0  0  0  0
  142.5370  135.4731  151.4286 H   0  0  0  0  0  0  0  0  0  0  0  0
  138.8870  137.6416  153.5673 H   0  0  0  0  0  0  0  0  0  0  0  0
  1  2  1  0  0  0  0
  1 24  1  0  0  0  0
  1 25  1  0  0  0  0
  1 26  1  0  0  0  0
  2  3  1  0  0  0  0
  2  4  1  0  0  0  0
  2  5  1  0  0  0  0
  3 27  1  0  0  0  0
  3 28  1  0  0  0  0
  3 29  1  0  0  0  0
  4 30  1  0  0  0  0
  4 31  1  0  0  0  0
  4 32  1  0  0  0  0
  5 23  1  0  0  0  0
  5  6  2  0  0  0  0
  6  7  1  0  0  0  0
  7  8  2  0  0  0  0
  7 33  1  0  0  0  0
  8  9  1  0  0  0  0
  8 22  1  0  0  0  0
  9 10  1  0  0  0  0
  9 34  1  0  0  0  0
 10 11  2  0  0  0  0
 10 12  1  0  0  0  0
 12 13  1  0  0  0  0
 12 35  1  0  0  0  0
 13 21  1  0  0  0  0
 13 14  1  0  0  0  0
 13 36  1  0  0  0  0
 14 15  1  0  0  0  0
 14 37  1  0  0  0  0
 14 38  1  0  0  0  0
 15 16  1  0  0  0  0
 15 39  1  0  0  0  0
 15 40  1  0  0  0  0
 16 17  1  0  0  0  0
 16 20  1  0  0  0  0
 17 19  1  0  0  0  0
 17 18  1  0  0  0  0
 17 41  1  0  0  0  0
 18 19  1  0  0  0  0
 18 42  1  0  0  0  0
 18 43  1  0  0  0  0
 19 44  1  0  0  0  0
 19 45  1  0  0  0  0
 20 21  1  0  0  0  0
 20 46  1  0  0  0  0
 20 47  1  0  0  0  0
 21 48  1  0  0  0  0
 21 49  1  0  0  0  0
 22 23  2  0  0  0  0
 22 50  1  0  0  0  0
M  END
> <s_m_source_file>
AV-unprocessed.smi

> <i_m_source_file_index>
972

> <i_lp_mmshare_version>
43012

> <i_f3d_flags>
0

> <s_epik_input>
W0NIM11DKFtDSDNdKShbQ0gzXSljMW5bY0hdYyhbY0hdbjEpW05IXUMoPU8pW05IXVtDSF0yW0NIMl1bQ0gyXU4oW0NIMl1bQ0gyXTIpW0NIXTNbQ0gyXVtDSDJdMw==

> <s_epik_cmdline>
J2VwaWtfcHl0aG9uJywgJy1waCcsICc3LjAnLCAnLXRuJywgJzgnLCAnLW1hJywgJzIwMCcsICctbWV0YWxfYmluZGluZycsICctaW1hZScsICc8aW5maWxlLm1hZT4nLCAnLW9tYWUnLCAnPG91dGZpbGUubWFlPic=

> <r_lp_tautomer_probability>
1

> <r_epik_Ionization_Penalty>
0.990889

> <r_epik_Ionization_Penalty_Charging>
0

> <r_epik_Ionization_Penalty_Neutral>
0.990889

> <r_epik_State_Penalty>
1.03856

> <r_epik_Charging_Adjusted_Penalty>
1.03856

> <i_epik_Tot_Q>
0

> <i_epik_Tot_abs_Q>
0

> <r_epik_Metal_State_Penalty>
1.03856

> <b_epik_Metal_Only>
0

> <s_lp_Force_Field>
OPLS_2005

> <r_lp_Energy>
19.7386

> <b_lp_Chiralities_Consistent>
1

> <s_lp_Variant>
AV-unprocessed.smi:972-3

> <Gold.Version>
5.8.1

> <Gold.Id.Protein>
6NUR|6NUR_protein|mol2

> <Gold.PLP.Fitness>
42.9570

> <Gold.PLP.PLP>
-35.1581

> <Gold.PLP.part.hbond>
-3.0000

> <Gold.PLP.part.metal>
0.0000

> <Gold.PLP.part.buried>
-0.7309

> <Gold.PLP.part.nonpolar>
-31.0661

> <Gold.PLP.part.repulsive>
0.4709

> <Gold.PLP.ligand.clash>
0.0000

> <Gold.PLP.ligand.torsion>
1.2817

> <Gold.PLP.Chemscore.Hbond>
2.0000

> <Gold.PLP.Chemscore.CHOScore>
1.0000

> <Gold.PLP.Chemscore.Metal>
0.0000

> <Gold.Chemscore.Hbonds>
donor molecule, donor type, donor heavy atom, donor atom, acceptor molecule, acceptor atom, score
      L1  H     9    34       P1 10175  1.00
      L1  H    12    35       P1 10175  1.00
      L1  C     7    33       P1 10174  0.99

> <Gold.PLP.Chemscore.Internal.Correction>
1.3623

> <Gold.Rescore>
     Score         DG    S(hbond)    S(metal)    S(lipo)     H(rot)  DE(clash)    DE(int)     intcor
     13.97     -17.96       1.70        0.00      86.48       1.30       0.07       3.91       ----

> <Gold.Chemscore.Fitness>
13.9732

> <Gold.Chemscore.DG>
-17.9582

> <Gold.Chemscore.ZeroCoef>
-5.4800

> <Gold.Chemscore.Hbond>
1.6991

> <Gold.Chemscore.Metal>
0.0000

> <Gold.Chemscore.Lipo>
86.4828

> <Gold.Chemscore.Internal_Hbond>
0.0000

> <Gold.Chemscore.DEClash>
0.0744

> <Gold.Chemscore.DEInternal>
3.9107

> <Gold.Chemscore.Rot>
1.2951

> <Gold.Chemscore.Internal.Correction>
   9.000000E+99

> <Gold.Chemscore.Hbonds>
donor molecule, donor type, donor heavy atom, donor atom, acceptor molecule, acceptor atom, score
      L1  H     9    34       P1 10175  0.65
      L1  H    12    35       P1 10175  0.89

> <Gold.Chemscore.Hbond.Weighted>
-5.6751

> <Gold.Chemscore.Metal.Weighted>
-0.0000

> <Gold.Chemscore.Lipo.Weighted>
-10.1185

> <Gold.Chemscore.Internal_Hbond.Weighted>
0.0000

> <Gold.Chemscore.DEClash.Weighted>
0.0744

> <Gold.Chemscore.DEInternal.Weighted>
3.9107

> <Gold.Chemscore.Rot.Weighted>
3.3154

> <Gold.Chemscore.Internal.Correction.Weighted>
   9.000000E+99

> <Gold.Protein.RotatedTorsions>
[ 6907 6896 6895 6894 ] final -168.41 input  -60.11 | X-H torsion
[ 7974 7965 7964 7962 ] final  -16.97 input  175.53 | X-H torsion
[ 8008 7997 7996 7995 ] final -129.11 input   59.86 | X-H torsion
[ 10167 10162 10161 10158 ] final   14.78 input  -65.29 | X-H torsion
[ 10718 10713 10712 10709 ] final  141.32 input   66.30 | X-H torsion
[ 10763 10752 10751 10750 ] final  -15.60 input  -60.55 | X-H torsion
[ 11005 11000 10999 10996 ] final   14.21 input  -57.11 | X-H torsion

> <Gold.Protein.ActiveResidues>
 VAL166  LYS551  ARG553  GLY616  TRP617  ASP618  TYR619  PRO620  LYS621  CYS622 
 ASP623  PHE694  ASN695  SER759  ASP760  ASP761  ALA762  ILE779  LEU786  VAL792 
 PHE793  MET794  SER795  GLU796  ALA797  LYS798  CYS799  TRP800  GLU811  SER814 

> <Gold.Protein.RotatedAtoms>
  151.4752  133.3559  159.2829 H   0  0  0  0  0  0  0  0  0  0  0  0  # atno 6907 bound_to 6896
  150.8934  134.8342  159.7320 H   0  0  0  0  0  0  0  0  0  0  0  0  # atno 6908 bound_to 6896
  152.4837  134.4664  159.9673 H   0  0  0  0  0  0  0  0  0  0  0  0  # atno 6909 bound_to 6896
  146.1963  140.3713  142.8439 H   0  0  0  0  0  0  0  0  0  0  0  0  # atno 7974 bound_to 7965
  155.2738  140.0441  157.3009 H   0  0  0  0  0  0  0  0  0  0  0  0  # atno 8008 bound_to 7997
  154.5638  140.2354  155.8264 H   0  0  0  0  0  0  0  0  0  0  0  0  # atno 8009 bound_to 7997
  156.2068  140.3010  155.9652 H   0  0  0  0  0  0  0  0  0  0  0  0  # atno 8010 bound_to 7997
  140.5912  143.8792  150.6875 H   0  0  0  0  0  0  0  0  0  0  0  0  # atno 10167 bound_to 10162
  157.3934  131.1007  151.0624 H   0  0  0  0  0  0  0  0  0  0  0  0  # atno 10718 bound_to 10713
  153.5458  135.7012  153.5615 H   0  0  0  0  0  0  0  0  0  0  0  0  # atno 10763 bound_to 10752
  153.3561  135.3982  155.1683 H   0  0  0  0  0  0  0  0  0  0  0  0  # atno 10764 bound_to 10752
  154.8668  135.3777  154.4965 H   0  0  0  0  0  0  0  0  0  0  0  0  # atno 10765 bound_to 10752
  140.4721  134.1021  155.7734 H   0  0  0  0  0  0  0  0  0  0  0  0  # atno 11005 bound_to 11000
  144.8587  140.7108  143.6121 LP  0  0  0  0  0  0  0  0  0  0  0  0  # atno 17320 bound_to 7965
  145.3633  139.1676  143.4371 LP  0  0  0  0  0  0  0  0  0  0  0  0  # atno 17321 bound_to 7965
  140.2315  143.3732  152.1562 LP  0  0  0  0  0  0  0  0  0  0  0  0  # atno 17342 bound_to 10162
  139.5229  144.7064  151.5341 LP  0  0  0  0  0  0  0  0  0  0  0  0  # atno 17343 bound_to 10162
  157.1649  130.6242  149.5622 LP  0  0  0  0  0  0  0  0  0  0  0  0  # atno 17370 bound_to 10713
  155.9804  130.4804  150.6770 LP  0  0  0  0  0  0  0  0  0  0  0  0  # atno 17371 bound_to 10713
  141.1572  133.8860  157.1945 LP  0  0  0  0  0  0  0  0  0  0  0  0  # atno 17394 bound_to 11000
  139.9879  135.0075  156.9905 LP  0  0  0  0  0  0  0  0  0  0  0  0  # atno 17395 bound_to 11000

$$$$
