AV-unprocessed.smi:3111|AV-procd|sdf|11835|dock2
  -GOLD-   2272017213D 1   1.00000     0.00000
 Structure written by MMmdl.
 30 30  0  0  0  0  0  0  0  0  2 V2000
  139.3087  140.9078  153.5474 C   0  0  0  0  0  0  0  0  0  0  0  0
  139.5930  139.5172  153.2275 N   0  0  0  0  0  0  0  0  0  0  0  0
  139.2759  138.4812  154.0165 C   0  0  0  0  0  0  0  0  0  0  0  0
  138.6988  138.6111  155.0979 O   0  0  0  0  0  0  0  0  0  0  0  0
  139.6634  137.0929  153.4885 C   0  0  0  0  0  0  0  0  0  0  0  0
  141.1053  136.8590  153.5080 N   0  0  0  0  0  0  0  0  0  0  0  0
  141.6930  135.6522  153.5443 C   0  0  0  0  0  0  0  0  0  0  0  0
  141.0621  134.5976  153.6250 O   0  0  0  0  0  0  0  0  0  0  0  0
  143.2261  135.6418  153.4435 C   0  0  1  0  0  0  0  0  0  0  0  0
  143.9126  135.2088  154.7532 C   0  0  0  0  0  0  0  0  0  0  0  0
  143.6596  134.8158  152.3039 N   0  0  0  0  0  0  0  0  0  0  0  0
  143.5062  133.4593  152.1644 C   0  0  0  0  0  0  0  0  0  0  0  0
  144.0700  133.1206  150.9614 C   0  0  0  0  0  0  0  0  0  0  0  0
  144.5453  134.2821  150.4150 N   0  3  0  0  0  0  0  0  0  0  0  0
  144.2955  135.3111  151.2307 C   0  0  0  0  0  0  0  0  0  0  0  0
  139.6594  141.5537  152.7425 H   0  0  0  0  0  0  0  0  0  0  0  0
  139.8127  141.2054  154.4678 H   0  0  0  0  0  0  0  0  0  0  0  0
  138.2367  141.0675  153.6697 H   0  0  0  0  0  0  0  0  0  0  0  0
  140.0614  139.3309  152.3525 H   0  0  0  0  0  0  0  0  0  0  0  0
  139.1864  136.3377  154.1137 H   0  0  0  0  0  0  0  0  0  0  0  0
  139.2722  136.9578  152.4785 H   0  0  0  0  0  0  0  0  0  0  0  0
  141.6967  137.6745  153.4405 H   0  0  0  0  0  0  0  0  0  0  0  0
  143.5454  136.6634  153.2299 H   0  0  0  0  0  0  0  0  0  0  0  0
  143.6100  135.8460  155.5851 H   0  0  0  0  0  0  0  0  0  0  0  0
  144.9969  135.2819  154.6650 H   0  0  0  0  0  0  0  0  0  0  0  0
  143.6726  134.1790  155.0207 H   0  0  0  0  0  0  0  0  0  0  0  0
  143.0216  132.8494  152.9130 H   0  0  0  0  0  0  0  0  0  0  0  0
  144.1675  132.1651  150.4669 H   0  0  0  0  0  0  0  0  0  0  0  0
  144.5616  136.3392  151.0598 H   0  0  0  0  0  0  0  0  0  0  0  0
  145.0209  134.3547  149.5243 H   0  0  0  0  0  0  0  0  0  0  0  0
  1  2  1  0  0  0  0
  1 16  1  0  0  0  0
  1 17  1  0  0  0  0
  1 18  1  0  0  0  0
  2  3  1  0  0  0  0
  2 19  1  0  0  0  0
  3  4  2  0  0  0  0
  3  5  1  0  0  0  0
  5  6  1  0  0  0  0
  5 20  1  0  0  0  0
  5 21  1  0  0  0  0
  6  7  1  0  0  0  0
  6 22  1  0  0  0  0
  7  8  2  0  0  0  0
  7  9  1  0  0  0  0
  9 10  1  0  0  0  0
  9 11  1  0  0  0  0
  9 23  1  0  0  0  0
 10 24  1  0  0  0  0
 10 25  1  0  0  0  0
 10 26  1  0  0  0  0
 11 15  1  0  0  0  0
 11 12  1  0  0  0  0
 12 13  2  0  0  0  0
 12 27  1  0  0  0  0
 13 14  1  0  0  0  0
 13 28  1  0  0  0  0
 14 15  2  0  0  0  0
 14 30  1  0  0  0  0
 15 29  1  0  0  0  0
M  CHG  1  14   1
M  END
> <s_m_source_file>
AV-unprocessed.smi

> <i_m_source_file_index>
3111

> <i_lp_mmshare_version>
43012

> <i_f3d_flags>
0

> <s_epik_input>
W0NIM11bTkhdQyg9TylbQ0gyXVtOSF1DKD1PKVtDQEhdKFtDSDNdKW4xW2NIXVtjSF1uW2NIXTE=

> <s_epik_cmdline>
J2VwaWtfcHl0aG9uJywgJy1waCcsICc3LjAnLCAnLXRuJywgJzgnLCAnLW1hJywgJzIwMCcsICctbWV0YWxfYmluZGluZycsICctaW1hZScsICc8aW5maWxlLm1hZT4nLCAnLW9tYWUnLCAnPG91dGZpbGUubWFlPic=

> <r_lp_tautomer_probability>
1

> <r_epik_Ionization_Penalty>
0.581414

> <r_epik_Ionization_Penalty_Charging>
0

> <r_epik_Ionization_Penalty_Neutral>
0.581414

> <r_epik_State_Penalty>
0.594207

> <r_epik_Charging_Adjusted_Penalty>
0.594207

> <i_epik_Tot_Q>
1

> <i_epik_Tot_abs_Q>
1

> <r_epik_Metal_State_Penalty>
0.784638

> <b_epik_Metal_Only>
0

> <s_lp_Force_Field>
OPLS_2005

> <r_lp_Energy>
5.66591

> <b_lp_Chiralities_Consistent>
1

> <s_lp_Variant>
AV-unprocessed.smi:3111-4

> <Gold.Version>
5.8.1

> <Gold.Id.Protein>
6NUR|6NUR_protein|mol2

> <Gold.PLP.Fitness>
36.1903

> <Gold.PLP.PLP>
-25.6023

> <Gold.PLP.part.hbond>
-2.2953

> <Gold.PLP.part.metal>
0.0000

> <Gold.PLP.part.buried>
-6.0516

> <Gold.PLP.part.nonpolar>
-16.9956

> <Gold.PLP.part.repulsive>
0.2660

> <Gold.PLP.ligand.clash>
0.0000

> <Gold.PLP.ligand.torsion>
0.4049

> <Gold.PLP.Chemscore.Hbond>
1.7644

> <Gold.PLP.Chemscore.CHOScore>
1.9947

> <Gold.PLP.Chemscore.Metal>
0.0000

> <Gold.Chemscore.Hbonds>
donor molecule, donor type, donor heavy atom, donor atom, acceptor molecule, acceptor atom, score
      L1  H     2    19       P1 10160  0.62
      L1  H    14    30       P1  7921  0.47
      L1  C    12    27       P1 10957  1.00
      L1  C    15    29       P1 10171  0.69

> <Gold.PLP.Chemscore.Internal.Correction>
0.1205

> <Gold.Rescore>
     Score         DG    S(hbond)    S(metal)    S(lipo)     H(rot)  DE(clash)    DE(int)     intcor
      8.91      -9.63       1.91        0.00      32.12       2.33       0.07       0.66       ----

> <Gold.Chemscore.Fitness>
8.9113

> <Gold.Chemscore.DG>
-9.6342

> <Gold.Chemscore.ZeroCoef>
-5.4800

> <Gold.Chemscore.Hbond>
1.9053

> <Gold.Chemscore.Metal>
0.0000

> <Gold.Chemscore.Lipo>
32.1219

> <Gold.Chemscore.Internal_Hbond>
0.0000

> <Gold.Chemscore.DEClash>
0.0659

> <Gold.Chemscore.DEInternal>
0.6571

> <Gold.Chemscore.Rot>
2.3311

> <Gold.Chemscore.Internal.Correction>
   9.000000E+99

> <Gold.Chemscore.Hbonds>
donor molecule, donor type, donor heavy atom, donor atom, acceptor molecule, acceptor atom, score
      L1  H     2    19       P1 10160  0.61
      L1  H    14    30       P1  7921  0.48

> <Gold.Chemscore.Hbond.Weighted>
-6.3636

> <Gold.Chemscore.Metal.Weighted>
-0.0000

> <Gold.Chemscore.Lipo.Weighted>
-3.7583

> <Gold.Chemscore.Internal_Hbond.Weighted>
0.0000

> <Gold.Chemscore.DEClash.Weighted>
0.0659

> <Gold.Chemscore.DEInternal.Weighted>
0.6571

> <Gold.Chemscore.Rot.Weighted>
5.9676

> <Gold.Chemscore.Internal.Correction.Weighted>
   9.000000E+99

> <Gold.Protein.RotatedTorsions>
[ 6907 6896 6895 6894 ] final   -4.92 input  -60.11 | X-H torsion
[ 7974 7965 7964 7962 ] final -161.25 input  175.53 | X-H torsion
[ 8008 7997 7996 7995 ] final  -90.13 input   59.86 | X-H torsion
[ 10167 10162 10161 10158 ] final   40.00 input  -65.29 | X-H torsion
[ 10718 10713 10712 10709 ] final    3.31 input   66.30 | X-H torsion
[ 10763 10752 10751 10750 ] final   19.71 input  -60.55 | X-H torsion
[ 11005 11000 10999 10996 ] final -108.59 input  -57.11 | X-H torsion

> <Gold.Protein.ActiveResidues>
 VAL166  LYS551  ARG553  GLY616  TRP617  ASP618  TYR619  PRO620  LYS621  CYS622 
 ASP623  PHE694  ASN695  SER759  ASP760  ASP761  ALA762  ILE779  LEU786  VAL792 
 PHE793  MET794  SER795  GLU796  ALA797  LYS798  CYS799  TRP800  GLU811  SER814 

> <Gold.Protein.RotatedAtoms>
  151.4899  135.1057  159.9800 H   0  0  0  0  0  0  0  0  0  0  0  0  # atno 6907 bound_to 6896
  152.4745  133.8103  159.7010 H   0  0  0  0  0  0  0  0  0  0  0  0  # atno 6908 bound_to 6896
  150.8775  133.7357  159.2968 H   0  0  0  0  0  0  0  0  0  0  0  0  # atno 6909 bound_to 6896
  144.7398  140.3424  143.6132 H   0  0  0  0  0  0  0  0  0  0  0  0  # atno 7974 bound_to 7965
  154.6949  140.0534  157.0400 H   0  0  0  0  0  0  0  0  0  0  0  0  # atno 8008 bound_to 7997
  155.0765  140.3205  155.4595 H   0  0  0  0  0  0  0  0  0  0  0  0  # atno 8009 bound_to 7997
  156.2741  140.2072  156.5893 H   0  0  0  0  0  0  0  0  0  0  0  0  # atno 8010 bound_to 7997
  140.3785  144.2011  150.6131 H   0  0  0  0  0  0  0  0  0  0  0  0  # atno 10167 bound_to 10162
  156.8759  130.5636  149.5655 H   0  0  0  0  0  0  0  0  0  0  0  0  # atno 10718 bound_to 10713
  153.1139  135.6703  153.9452 H   0  0  0  0  0  0  0  0  0  0  0  0  # atno 10763 bound_to 10752
  153.8988  135.3038  155.3449 H   0  0  0  0  0  0  0  0  0  0  0  0  # atno 10764 bound_to 10752
  154.7557  135.5013  153.9447 H   0  0  0  0  0  0  0  0  0  0  0  0  # atno 10765 bound_to 10752
  141.0893  133.9083  157.2112 H   0  0  0  0  0  0  0  0  0  0  0  0  # atno 11005 bound_to 11000
  145.7360  139.1750  143.2403 LP  0  0  0  0  0  0  0  0  0  0  0  0  # atno 17320 bound_to 7965
  146.1170  140.7357  142.9476 LP  0  0  0  0  0  0  0  0  0  0  0  0  # atno 17321 bound_to 7965
  140.4962  143.2332  151.8746 LP  0  0  0  0  0  0  0  0  0  0  0  0  # atno 17342 bound_to 10162
  139.4797  144.5111  151.8931 LP  0  0  0  0  0  0  0  0  0  0  0  0  # atno 17343 bound_to 10162
  156.0702  130.5737  150.9368 LP  0  0  0  0  0  0  0  0  0  0  0  0  # atno 17370 bound_to 10713
  157.6169  131.0932  150.8694 LP  0  0  0  0  0  0  0  0  0  0  0  0  # atno 17371 bound_to 10713
  139.9716  135.0126  156.9527 LP  0  0  0  0  0  0  0  0  0  0  0  0  # atno 17394 bound_to 11000
  140.5289  134.0833  155.7310 LP  0  0  0  0  0  0  0  0  0  0  0  0  # atno 17395 bound_to 11000

$$$$
