AV-unprocessed.smi:3111|AV-procd|sdf|11834|dock9
  -GOLD-   2272017213D 1   1.00000     0.00000
 Structure written by MMmdl.
 30 30  0  0  0  0  0  0  0  0  2 V2000
  147.1999  127.6026  151.3934 C   0  0  0  0  0  0  0  0  0  0  0  0
  147.8255  128.7925  151.9496 N   0  0  0  0  0  0  0  0  0  0  0  0
  147.8594  129.0852  153.2570 C   0  0  0  0  0  0  0  0  0  0  0  0
  147.3667  128.3595  154.1223 O   0  0  0  0  0  0  0  0  0  0  0  0
  148.5781  130.3853  153.6395 C   0  0  0  0  0  0  0  0  0  0  0  0
  148.1376  131.5311  152.8470 N   0  0  0  0  0  0  0  0  0  0  0  0
  146.9668  132.1708  152.9991 C   0  0  0  0  0  0  0  0  0  0  0  0
  146.1146  131.8289  153.8197 O   0  0  0  0  0  0  0  0  0  0  0  0
  146.7206  133.3751  152.0773 C   0  0  2  0  0  0  0  0  0  0  0  0
  146.4659  134.6765  152.8615 C   0  0  0  0  0  0  0  0  0  0  0  0
  145.6338  133.0895  151.1259 N   0  0  0  0  0  0  0  0  0  0  0  0
  145.6120  132.1016  150.1736 C   0  0  0  0  0  0  0  0  0  0  0  0
  144.4058  132.2016  149.5293 C   0  0  0  0  0  0  0  0  0  0  0  0
  143.7384  133.2429  150.1157 N   0  3  0  0  0  0  0  0  0  0  0  0
  144.4841  133.7806  151.0861 C   0  0  0  0  0  0  0  0  0  0  0  0
  147.2588  127.6252  150.3050 H   0  0  0  0  0  0  0  0  0  0  0  0
  146.1478  127.5462  151.6762 H   0  0  0  0  0  0  0  0  0  0  0  0
  147.7042  126.7011  151.7438 H   0  0  0  0  0  0  0  0  0  0  0  0
  148.2565  129.4346  151.3003 H   0  0  0  0  0  0  0  0  0  0  0  0
  148.3747  130.5963  154.6894 H   0  0  0  0  0  0  0  0  0  0  0  0
  149.6585  130.2579  153.5491 H   0  0  0  0  0  0  0  0  0  0  0  0
  148.7848  131.8787  152.1544 H   0  0  0  0  0  0  0  0  0  0  0  0
  147.6239  133.5260  151.4835 H   0  0  0  0  0  0  0  0  0  0  0  0
  147.2936  134.8957  153.5372 H   0  0  0  0  0  0  0  0  0  0  0  0
  145.5563  134.6241  153.4609 H   0  0  0  0  0  0  0  0  0  0  0  0
  146.3656  135.5250  152.1840 H   0  0  0  0  0  0  0  0  0  0  0  0
  146.4356  131.4177  150.0273 H   0  0  0  0  0  0  0  0  0  0  0  0
  143.9832  131.6240  148.7200 H   0  0  0  0  0  0  0  0  0  0  0  0
  144.2102  134.6087  151.7159 H   0  0  0  0  0  0  0  0  0  0  0  0
  142.8132  133.5614  149.8559 H   0  0  0  0  0  0  0  0  0  0  0  0
  1  2  1  0  0  0  0
  1 16  1  0  0  0  0
  1 17  1  0  0  0  0
  1 18  1  0  0  0  0
  2  3  1  0  0  0  0
  2 19  1  0  0  0  0
  3  4  2  0  0  0  0
  3  5  1  0  0  0  0
  5  6  1  0  0  0  0
  5 20  1  0  0  0  0
  5 21  1  0  0  0  0
  6  7  1  0  0  0  0
  6 22  1  0  0  0  0
  7  8  2  0  0  0  0
  7  9  1  0  0  0  0
  9 10  1  0  0  0  0
  9 11  1  0  0  0  0
  9 23  1  0  0  0  0
 10 24  1  0  0  0  0
 10 25  1  0  0  0  0
 10 26  1  0  0  0  0
 11 15  1  0  0  0  0
 11 12  1  0  0  0  0
 12 13  2  0  0  0  0
 12 27  1  0  0  0  0
 13 14  1  0  0  0  0
 13 28  1  0  0  0  0
 14 15  2  0  0  0  0
 14 30  1  0  0  0  0
 15 29  1  0  0  0  0
M  CHG  1  14   1
M  END
> <s_m_source_file>
AV-unprocessed.smi

> <i_m_source_file_index>
3111

> <i_lp_mmshare_version>
43012

> <i_f3d_flags>
0

> <s_epik_input>
W0NIM11bTkhdQyg9TylbQ0gyXVtOSF1DKD1PKVtDQEhdKFtDSDNdKW4xW2NIXVtjSF1uW2NIXTE=

> <s_epik_cmdline>
J2VwaWtfcHl0aG9uJywgJy1waCcsICc3LjAnLCAnLXRuJywgJzgnLCAnLW1hJywgJzIwMCcsICctbWV0YWxfYmluZGluZycsICctaW1hZScsICc8aW5maWxlLm1hZT4nLCAnLW9tYWUnLCAnPG91dGZpbGUubWFlPic=

> <r_lp_tautomer_probability>
1

> <r_epik_Ionization_Penalty>
0.581414

> <r_epik_Ionization_Penalty_Charging>
0

> <r_epik_Ionization_Penalty_Neutral>
0.581414

> <r_epik_State_Penalty>
0.594207

> <r_epik_Charging_Adjusted_Penalty>
0.594207

> <i_epik_Tot_Q>
1

> <i_epik_Tot_abs_Q>
1

> <r_epik_Metal_State_Penalty>
0.784638

> <b_epik_Metal_Only>
0

> <s_lp_Force_Field>
OPLS_2005

> <r_lp_Energy>
6.41512

> <b_lp_Chiralities_Consistent>
1

> <s_lp_Variant>
AV-unprocessed.smi:3111-3

> <Gold.Version>
5.8.1

> <Gold.Id.Protein>
6NUR|6NUR_protein|mol2

> <Gold.PLP.Fitness>
39.0587

> <Gold.PLP.PLP>
-27.1927

> <Gold.PLP.part.hbond>
-2.9960

> <Gold.PLP.part.metal>
0.0000

> <Gold.PLP.part.buried>
-3.0536

> <Gold.PLP.part.nonpolar>
-20.7707

> <Gold.PLP.part.repulsive>
0.3412

> <Gold.PLP.ligand.clash>
0.0000

> <Gold.PLP.ligand.torsion>
0.3224

> <Gold.PLP.Chemscore.Hbond>
3.2618

> <Gold.PLP.Chemscore.CHOScore>
0.8806

> <Gold.PLP.Chemscore.Metal>
0.0000

> <Gold.Chemscore.Hbonds>
donor molecule, donor type, donor heavy atom, donor atom, acceptor molecule, acceptor atom, score
      L1  H     2    19       P1 10747  1.00
      L1  H     6    22       P1 10747  0.31
      L1  H    14    30       P1 10186  2.00
      L1  C    12    27       P1 10747  0.82

> <Gold.PLP.Chemscore.Internal.Correction>
0.0835

> <Gold.Rescore>
     Score         DG    S(hbond)    S(metal)    S(lipo)     H(rot)  DE(clash)    DE(int)     intcor
     12.15     -12.65       2.29        0.00      46.90       2.33       0.09       0.41       ----

> <Gold.Chemscore.Fitness>
12.1485

> <Gold.Chemscore.DG>
-12.6472

> <Gold.Chemscore.ZeroCoef>
-5.4800

> <Gold.Chemscore.Hbond>
2.2898

> <Gold.Chemscore.Metal>
0.0000

> <Gold.Chemscore.Lipo>
46.8964

> <Gold.Chemscore.Internal_Hbond>
0.0000

> <Gold.Chemscore.DEClash>
0.0888

> <Gold.Chemscore.DEInternal>
0.4100

> <Gold.Chemscore.Rot>
2.3311

> <Gold.Chemscore.Internal.Correction>
   9.000000E+99

> <Gold.Chemscore.Hbonds>
donor molecule, donor type, donor heavy atom, donor atom, acceptor molecule, acceptor atom, score
      L1  H     2    19       P1 10747  0.35
      L1  H     6    22       P1 10747  0.28
      L1  H    14    30       P1 10186  0.93

> <Gold.Chemscore.Hbond.Weighted>
-7.6480

> <Gold.Chemscore.Metal.Weighted>
-0.0000

> <Gold.Chemscore.Lipo.Weighted>
-5.4869

> <Gold.Chemscore.Internal_Hbond.Weighted>
0.0000

> <Gold.Chemscore.DEClash.Weighted>
0.0888

> <Gold.Chemscore.DEInternal.Weighted>
0.4100

> <Gold.Chemscore.Rot.Weighted>
5.9676

> <Gold.Chemscore.Internal.Correction.Weighted>
   9.000000E+99

> <Gold.Protein.RotatedTorsions>
[ 6907 6896 6895 6894 ] final  -99.86 input  -60.11 | X-H torsion
[ 7974 7965 7964 7962 ] final -136.66 input  175.53 | X-H torsion
[ 8008 7997 7996 7995 ] final  -62.67 input   59.86 | X-H torsion
[ 10167 10162 10161 10158 ] final  166.73 input  -65.29 | X-H torsion
[ 10718 10713 10712 10709 ] final -162.02 input   66.30 | X-H torsion
[ 10763 10752 10751 10750 ] final   -7.30 input  -60.55 | X-H torsion
[ 11005 11000 10999 10996 ] final -122.08 input  -57.11 | X-H torsion

> <Gold.Protein.ActiveResidues>
 VAL166  LYS551  ARG553  GLY616  TRP617  ASP618  TYR619  PRO620  LYS621  CYS622 
 ASP623  PHE694  ASN695  SER759  ASP760  ASP761  ALA762  ILE779  LEU786  VAL792 
 PHE793  MET794  SER795  GLU796  ALA797  LYS798  CYS799  TRP800  GLU811  SER814 

> <Gold.Protein.RotatedAtoms>
  150.7095  134.0975  159.3953 H   0  0  0  0  0  0  0  0  0  0  0  0  # atno 6907 bound_to 6896
  151.8961  135.0395  160.0511 H   0  0  0  0  0  0  0  0  0  0  0  0  # atno 6908 bound_to 6896
  152.2452  133.5133  159.5330 H   0  0  0  0  0  0  0  0  0  0  0  0  # atno 6909 bound_to 6896
  144.8908  140.6639  143.5146 H   0  0  0  0  0  0  0  0  0  0  0  0  # atno 7974 bound_to 7965
  154.4512  140.0991  156.6623 H   0  0  0  0  0  0  0  0  0  0  0  0  # atno 8008 bound_to 7997
  155.5279  140.3480  155.4401 H   0  0  0  0  0  0  0  0  0  0  0  0  # atno 8009 bound_to 7997
  156.0685  140.1343  156.9846 H   0  0  0  0  0  0  0  0  0  0  0  0  # atno 8010 bound_to 7997
  139.4930  144.3997  151.9424 H   0  0  0  0  0  0  0  0  0  0  0  0  # atno 10167 bound_to 10162
  156.6045  130.8824  151.2922 H   0  0  0  0  0  0  0  0  0  0  0  0  # atno 10718 bound_to 10713
  153.4244  135.7010  153.6272 H   0  0  0  0  0  0  0  0  0  0  0  0  # atno 10763 bound_to 10752
  153.4713  135.3714  155.2392 H   0  0  0  0  0  0  0  0  0  0  0  0  # atno 10764 bound_to 10752
  154.8723  135.4043  154.3618 H   0  0  0  0  0  0  0  0  0  0  0  0  # atno 10765 bound_to 10752
  141.0022  134.0386  157.3523 H   0  0  0  0  0  0  0  0  0  0  0  0  # atno 11005 bound_to 11000
  145.3786  139.1642  143.4293 LP  0  0  0  0  0  0  0  0  0  0  0  0  # atno 17320 bound_to 7965
  146.3052  140.3865  142.8689 LP  0  0  0  0  0  0  0  0  0  0  0  0  # atno 17321 bound_to 7965
  140.3436  144.3174  150.5962 LP  0  0  0  0  0  0  0  0  0  0  0  0  # atno 17342 bound_to 10162
  140.5545  143.2201  151.7871 LP  0  0  0  0  0  0  0  0  0  0  0  0  # atno 17343 bound_to 10162
  157.7271  130.9638  150.1683 LP  0  0  0  0  0  0  0  0  0  0  0  0  # atno 17370 bound_to 10713
  156.2441  130.3694  149.8304 LP  0  0  0  0  0  0  0  0  0  0  0  0  # atno 17371 bound_to 10713
  139.9045  135.0175  156.7421 LP  0  0  0  0  0  0  0  0  0  0  0  0  # atno 17394 bound_to 11000
  140.6870  133.9424  155.7944 LP  0  0  0  0  0  0  0  0  0  0  0  0  # atno 17395 bound_to 11000

$$$$
