AV-unprocessed.smi:1102|AV-procd|sdf|4768|dock3
  -GOLD-   22720 3303D 1   1.00000     0.00000
 Structure written by MMmdl.
 40 41  0  0  0  0  0  0  0  0  2 V2000
  145.5926  131.2842  152.5751 C   0  0  0  0  0  0  0  0  0  0  0  0
  145.3229  132.2286  151.4966 N   0  0  0  0  0  0  0  0  0  0  0  0
  145.5852  131.8590  150.1119 C   0  0  0  0  0  0  0  0  0  0  0  0
  144.8190  133.5123  151.7982 C   0  0  0  0  0  0  0  0  0  0  0  0
  145.2351  134.6874  151.1257 C   0  0  0  0  0  0  0  0  0  0  0  0
  144.6837  135.9342  151.4854 C   0  0  0  0  0  0  0  0  0  0  0  0
  143.7141  136.0063  152.5072 C   0  0  0  0  0  0  0  0  0  0  0  0
  143.1984  137.2882  152.8422 N   0  0  0  0  0  0  0  0  0  0  0  0
  142.2384  137.6023  153.7293 C   0  0  0  0  0  0  0  0  0  0  0  0
  141.6040  136.7946  154.4069 O   0  0  0  0  0  0  0  0  0  0  0  0
  142.0364  138.9267  153.7737 N   0  0  0  0  0  0  0  0  0  0  0  0
  141.0571  139.6064  154.6163 C   0  0  0  0  0  0  0  0  0  0  0  0
  139.6484  139.0113  154.4514 C   0  0  1  0  0  0  0  0  0  0  0  0
  139.3388  138.4458  153.0648 C   0  0  0  0  0  0  0  0  0  0  0  0
  138.2412  137.4564  153.3804 C   0  0  0  0  0  0  0  0  0  0  0  0
  138.7155  136.8804  154.7116 C   0  0  0  0  0  0  0  0  0  0  0  0
  139.4717  137.9123  155.3415 O   0  0  0  0  0  0  0  0  0  0  0  0
  143.3385  134.8061  153.1564 C   0  0  0  0  0  0  0  0  0  0  0  0
  143.8935  133.6334  152.7809 N   0  3  0  0  0  0  0  0  0  0  0  0
  146.3259  131.6957  153.2695 H   0  0  0  0  0  0  0  0  0  0  0  0
  145.9887  130.3441  152.1908 H   0  0  0  0  0  0  0  0  0  0  0  0
  144.6787  131.0607  153.1266 H   0  0  0  0  0  0  0  0  0  0  0  0
  146.3421  132.5127  149.6772 H   0  0  0  0  0  0  0  0  0  0  0  0
  144.6752  131.9328  149.5158 H   0  0  0  0  0  0  0  0  0  0  0  0
  145.9479  130.8336  150.0375 H   0  0  0  0  0  0  0  0  0  0  0  0
  145.9728  134.6547  150.3379 H   0  0  0  0  0  0  0  0  0  0  0  0
  145.0046  136.8294  150.9727 H   0  0  0  0  0  0  0  0  0  0  0  0
  143.5781  138.0597  152.3130 H   0  0  0  0  0  0  0  0  0  0  0  0
  142.6014  139.5139  153.1776 H   0  0  0  0  0  0  0  0  0  0  0  0
  141.3596  139.5906  155.6647 H   0  0  0  0  0  0  0  0  0  0  0  0
  141.0418  140.6558  154.3216 H   0  0  0  0  0  0  0  0  0  0  0  0
  138.8964  139.7592  154.7086 H   0  0  0  0  0  0  0  0  0  0  0  0
  139.0345  139.2102  152.3493 H   0  0  0  0  0  0  0  0  0  0  0  0
  140.2058  137.9223  152.6594 H   0  0  0  0  0  0  0  0  0  0  0  0
  137.2929  137.9791  153.5123 H   0  0  0  0  0  0  0  0  0  0  0  0
  138.1100  136.6971  152.6089 H   0  0  0  0  0  0  0  0  0  0  0  0
  137.8867  136.5535  155.3401 H   0  0  0  0  0  0  0  0  0  0  0  0
  139.3712  136.0250  154.5446 H   0  0  0  0  0  0  0  0  0  0  0  0
  142.6291  134.7295  153.9661 H   0  0  0  0  0  0  0  0  0  0  0  0
  143.5984  132.7879  153.2696 H   0  0  0  0  0  0  0  0  0  0  0  0
  1  2  1  0  0  0  0
  1 20  1  0  0  0  0
  1 21  1  0  0  0  0
  1 22  1  0  0  0  0
  2  3  1  0  0  0  0
  2  4  1  0  0  0  0
  3 23  1  0  0  0  0
  3 24  1  0  0  0  0
  3 25  1  0  0  0  0
  4 19  1  0  0  0  0
  4  5  2  0  0  0  0
  5  6  1  0  0  0  0
  5 26  1  0  0  0  0
  6  7  2  0  0  0  0
  6 27  1  0  0  0  0
  7  8  1  0  0  0  0
  7 18  1  0  0  0  0
  8  9  1  0  0  0  0
  8 28  1  0  0  0  0
  9 10  2  0  0  0  0
  9 11  1  0  0  0  0
 11 12  1  0  0  0  0
 11 29  1  0  0  0  0
 12 13  1  0  0  0  0
 12 30  1  0  0  0  0
 12 31  1  0  0  0  0
 13 17  1  0  0  0  0
 13 14  1  0  0  0  0
 13 32  1  0  0  0  0
 14 15  1  0  0  0  0
 14 33  1  0  0  0  0
 14 34  1  0  0  0  0
 15 16  1  0  0  0  0
 15 35  1  0  0  0  0
 15 36  1  0  0  0  0
 16 17  1  0  0  0  0
 16 37  1  0  0  0  0
 16 38  1  0  0  0  0
 18 19  2  0  0  0  0
 18 39  1  0  0  0  0
 19 40  1  0  0  0  0
M  CHG  1  19   1
M  END
> <s_m_source_file>
AV-unprocessed.smi

> <i_m_source_file_index>
1102

> <i_lp_mmshare_version>
43012

> <i_f3d_flags>
0

> <s_epik_input>
W0NIM11OKFtDSDNdKWMxW2NIXVtjSF1jKFtjSF1uMSlbTkhdQyg9TylbTkhdW0NIMl1bQ0BASF0yW0NIMl1bQ0gyXVtDSDJdTzI=

> <s_epik_cmdline>
J2VwaWtfcHl0aG9uJywgJy1waCcsICc3LjAnLCAnLXRuJywgJzgnLCAnLW1hJywgJzIwMCcsICctbWV0YWxfYmluZGluZycsICctaW1hZScsICc8aW5maWxlLm1hZT4nLCAnLW9tYWUnLCAnPG91dGZpbGUubWFlPic=

> <r_lp_tautomer_probability>
0.999994

> <r_epik_Ionization_Penalty>
0.265123

> <r_epik_Ionization_Penalty_Charging>
0.265104

> <r_epik_Ionization_Penalty_Neutral>
1.89079e-05

> <r_epik_State_Penalty>
0.257001

> <r_epik_Charging_Adjusted_Penalty>
0.522106

> <i_epik_Tot_Q>
1

> <i_epik_Tot_abs_Q>
1

> <r_epik_Metal_State_Penalty>
0.543599

> <b_epik_Metal_Only>
0

> <s_lp_Force_Field>
OPLS_2005

> <r_lp_Energy>
27.717

> <b_lp_Chiralities_Consistent>
1

> <s_lp_Variant>
AV-unprocessed.smi:1102-2

> <Gold.Version>
5.8.1

> <Gold.Id.Protein>
6NUR|6NUR_protein|mol2

> <Gold.PLP.Fitness>
39.4655

> <Gold.PLP.PLP>
-32.1162

> <Gold.PLP.part.hbond>
-2.4438

> <Gold.PLP.part.metal>
0.0000

> <Gold.PLP.part.buried>
-6.5528

> <Gold.PLP.part.nonpolar>
-24.7253

> <Gold.PLP.part.repulsive>
0.0566

> <Gold.PLP.ligand.clash>
0.0000

> <Gold.PLP.ligand.torsion>
0.9556

> <Gold.PLP.Chemscore.Hbond>
3.0837

> <Gold.PLP.Chemscore.CHOScore>
0.0000

> <Gold.PLP.Chemscore.Metal>
0.0000

> <Gold.Chemscore.Hbonds>
donor molecule, donor type, donor heavy atom, donor atom, acceptor molecule, acceptor atom, score
      L1  H     8    28       P1 10175  0.10
      L1  H    11    29       P1 10175  1.00
      L1  H    19    40       P1 10957  1.95

> <Gold.PLP.Chemscore.Internal.Correction>
0.0092

> <Gold.Rescore>
     Score         DG    S(hbond)    S(metal)    S(lipo)     H(rot)  DE(clash)    DE(int)     intcor
     14.98     -18.71       2.84        0.00      58.76       1.23       0.11       3.62       ----

> <Gold.Chemscore.Fitness>
14.9801

> <Gold.Chemscore.DG>
-18.7139

> <Gold.Chemscore.ZeroCoef>
-5.4800

> <Gold.Chemscore.Hbond>
2.8441

> <Gold.Chemscore.Metal>
0.0000

> <Gold.Chemscore.Lipo>
58.7629

> <Gold.Chemscore.Internal_Hbond>
0.0000

> <Gold.Chemscore.DEClash>
0.1113

> <Gold.Chemscore.DEInternal>
3.6225

> <Gold.Chemscore.Rot>
1.2268

> <Gold.Chemscore.Internal.Correction>
   9.000000E+99

> <Gold.Chemscore.Hbonds>
donor molecule, donor type, donor heavy atom, donor atom, acceptor molecule, acceptor atom, score
      L1  H     8    28       P1 10175  0.12
      L1  H    11    29       P1 10175  0.93
      L1  H    19    40       P1 10957  0.45

> <Gold.Chemscore.Hbond.Weighted>
-9.4992

> <Gold.Chemscore.Metal.Weighted>
-0.0000

> <Gold.Chemscore.Lipo.Weighted>
-6.8753

> <Gold.Chemscore.Internal_Hbond.Weighted>
0.0000

> <Gold.Chemscore.DEClash.Weighted>
0.1113

> <Gold.Chemscore.DEInternal.Weighted>
3.6225

> <Gold.Chemscore.Rot.Weighted>
3.1406

> <Gold.Chemscore.Internal.Correction.Weighted>
   9.000000E+99

> <Gold.Protein.RotatedTorsions>
[ 6907 6896 6895 6894 ] final -125.51 input  -60.11 | X-H torsion
[ 7974 7965 7964 7962 ] final  104.91 input  175.53 | X-H torsion
[ 8008 7997 7996 7995 ] final    1.00 input   59.86 | X-H torsion
[ 10167 10162 10161 10158 ] final   71.80 input  -65.29 | X-H torsion
[ 10718 10713 10712 10709 ] final  -21.76 input   66.30 | X-H torsion
[ 10763 10752 10751 10750 ] final  -71.12 input  -60.55 | X-H torsion
[ 11005 11000 10999 10996 ] final   71.52 input  -57.11 | X-H torsion

> <Gold.Protein.ActiveResidues>
 VAL166  LYS551  ARG553  GLY616  TRP617  ASP618  TYR619  PRO620  LYS621  CYS622 
 ASP623  PHE694  ASN695  SER759  ASP760  ASP761  ALA762  ILE779  LEU786  VAL792 
 PHE793  MET794  SER795  GLU796  ALA797  LYS798  CYS799  TRP800  GLU811  SER814 

> <Gold.Protein.RotatedAtoms>
  150.8875  133.7287  159.2913 H   0  0  0  0  0  0  0  0  0  0  0  0  # atno 6907 bound_to 6896
  151.4848  135.1053  159.9797 H   0  0  0  0  0  0  0  0  0  0  0  0  # atno 6908 bound_to 6896
  152.4799  133.8183  159.7095 H   0  0  0  0  0  0  0  0  0  0  0  0  # atno 6909 bound_to 6896
  145.3266  139.2498  143.3683 H   0  0  0  0  0  0  0  0  0  0  0  0  # atno 7974 bound_to 7965
  154.6746  140.2619  155.6971 H   0  0  0  0  0  0  0  0  0  0  0  0  # atno 8008 bound_to 7997
  156.2672  140.2822  156.1190 H   0  0  0  0  0  0  0  0  0  0  0  0  # atno 8009 bound_to 7997
  155.1119  140.0376  157.2716 H   0  0  0  0  0  0  0  0  0  0  0  0  # atno 8010 bound_to 7997
  140.0422  144.5380  150.7426 H   0  0  0  0  0  0  0  0  0  0  0  0  # atno 10167 bound_to 10162
  156.5138  130.4616  149.6633 H   0  0  0  0  0  0  0  0  0  0  0  0  # atno 10718 bound_to 10713
  154.4272  135.5972  153.6046 H   0  0  0  0  0  0  0  0  0  0  0  0  # atno 10763 bound_to 10752
  152.9797  135.5966  154.3883 H   0  0  0  0  0  0  0  0  0  0  0  0  # atno 10764 bound_to 10752
  154.3716  135.2841  155.2241 H   0  0  0  0  0  0  0  0  0  0  0  0  # atno 10765 bound_to 10752
  139.9539  134.7178  156.0797 H   0  0  0  0  0  0  0  0  0  0  0  0  # atno 11005 bound_to 11000
  146.3062  140.3835  142.8686 LP  0  0  0  0  0  0  0  0  0  0  0  0  # atno 17320 bound_to 7965
  144.8897  140.7508  143.5934 LP  0  0  0  0  0  0  0  0  0  0  0  0  # atno 17321 bound_to 7965
  140.7255  143.2632  151.4135 LP  0  0  0  0  0  0  0  0  0  0  0  0  # atno 17342 bound_to 10162
  139.6006  144.1303  152.2194 LP  0  0  0  0  0  0  0  0  0  0  0  0  # atno 17343 bound_to 10162
  156.3215  130.7283  151.2195 LP  0  0  0  0  0  0  0  0  0  0  0  0  # atno 17370 bound_to 10713
  157.7447  131.0454  150.4843 LP  0  0  0  0  0  0  0  0  0  0  0  0  # atno 17371 bound_to 10713
  141.1207  133.6613  156.3208 LP  0  0  0  0  0  0  0  0  0  0  0  0  # atno 17394 bound_to 11000
  140.5654  134.5893  157.5444 LP  0  0  0  0  0  0  0  0  0  0  0  0  # atno 17395 bound_to 11000

$$$$
