AV-unprocessed.smi:1414|AV-procd|sdf|5760|dock2
  -GOLD-   22720 5393D 1   1.00000     0.00000
 Structure written by MMmdl.
 45 46  0  0  0  0  0  0  0  0  1 V2000
  149.0776  138.9677  154.0378 C   0  0  0  0  0  0  0  0  0  0  0  0
  150.5958  138.7226  154.0741 C   0  0  2  0  0  0  0  0  0  0  0  0
  151.0049  137.2529  154.3332 C   0  0  0  0  0  0  0  0  0  0  0  0
  151.1249  136.9209  155.7650 N   0  0  0  0  0  0  0  0  0  0  0  0
  150.2939  135.5568  156.4503 S   0  0  0  0  0  0  0  0  0  0  0  0
  151.3079  134.5384  156.7642 O   0  0  0  0  0  0  0  0  0  0  0  0
  149.4071  136.0606  157.5106 O   0  0  0  0  0  0  0  0  0  0  0  0
  149.2610  134.9271  155.0565 C   0  0  0  0  0  0  0  0  0  0  0  0
  149.7164  133.5371  154.5831 C   0  0  0  0  0  0  0  0  0  0  0  0
  149.0622  133.1551  153.3376 N   0  0  0  0  0  0  0  0  0  0  0  0
  147.7379  133.1604  153.1319 C   0  0  0  0  0  0  0  0  0  0  0  0
  146.9187  133.4873  153.9898 O   0  0  0  0  0  0  0  0  0  0  0  0
  147.4366  132.7456  151.8898 N   0  0  0  0  0  0  0  0  0  0  0  0
  146.1577  132.6608  151.2777 C   0  0  0  0  0  0  0  0  0  0  0  0
  145.0911  133.3707  151.8663 C   0  0  0  0  0  0  0  0  0  0  0  0
  143.8092  133.2835  151.2914 C   0  0  0  0  0  0  0  0  0  0  0  0
  143.6413  132.4778  150.1489 C   0  0  0  0  0  0  0  0  0  0  0  0
  144.6475  131.7798  149.5814 N   0  0  0  0  0  0  0  0  0  0  0  0
  145.8752  131.8693  150.1368 C   0  0  0  0  0  0  0  0  0  0  0  0
  151.7202  137.9559  156.6209 C   0  0  0  0  0  0  0  0  0  0  0  0
  151.0899  139.3262  156.3363 C   0  0  1  0  0  0  0  0  0  0  0  0
  151.7517  140.4432  157.1499 C   0  0  0  0  0  0  0  0  0  0  0  0
  151.2529  139.6284  154.9567 O   0  0  0  0  0  0  0  0  0  0  0  0
  148.5955  138.3199  153.3053 H   0  0  0  0  0  0  0  0  0  0  0  0
  148.8624  139.9984  153.7554 H   0  0  0  0  0  0  0  0  0  0  0  0
  148.5991  138.7895  154.9966 H   0  0  0  0  0  0  0  0  0  0  0  0
  150.9564  138.9757  153.0766 H   0  0  0  0  0  0  0  0  0  0  0  0
  150.3136  136.5723  153.8368 H   0  0  0  0  0  0  0  0  0  0  0  0
  151.9809  137.0764  153.8802 H   0  0  0  0  0  0  0  0  0  0  0  0
  148.2176  134.9435  155.3610 H   0  0  0  0  0  0  0  0  0  0  0  0
  149.3626  135.6375  154.2360 H   0  0  0  0  0  0  0  0  0  0  0  0
  150.7925  133.5363  154.4094 H   0  0  0  0  0  0  0  0  0  0  0  0
  149.5270  132.7842  155.3480 H   0  0  0  0  0  0  0  0  0  0  0  0
  149.6612  132.8619  152.5796 H   0  0  0  0  0  0  0  0  0  0  0  0
  148.2087  132.4137  151.3308 H   0  0  0  0  0  0  0  0  0  0  0  0
  145.2507  133.9784  152.7452 H   0  0  0  0  0  0  0  0  0  0  0  0
  142.9742  133.8201  151.7169 H   0  0  0  0  0  0  0  0  0  0  0  0
  142.6718  132.3872  149.6819 H   0  0  0  0  0  0  0  0  0  0  0  0
  146.6319  131.2680  149.6573 H   0  0  0  0  0  0  0  0  0  0  0  0
  151.6026  137.6942  157.6719 H   0  0  0  0  0  0  0  0  0  0  0  0
  152.7924  137.9892  156.4252 H   0  0  0  0  0  0  0  0  0  0  0  0
  150.0329  139.3074  156.5959 H   0  0  0  0  0  0  0  0  0  0  0  0
  151.6482  140.2621  158.2201 H   0  0  0  0  0  0  0  0  0  0  0  0
  151.2931  141.4078  156.9311 H   0  0  0  0  0  0  0  0  0  0  0  0
  152.8156  140.5207  156.9240 H   0  0  0  0  0  0  0  0  0  0  0  0
  1  2  1  0  0  0  0
  1 24  1  0  0  0  0
  1 25  1  0  0  0  0
  1 26  1  0  0  0  0
  2 23  1  0  0  0  0
  2  3  1  0  0  0  0
  2 27  1  0  0  0  0
  3  4  1  0  0  0  0
  3 28  1  0  0  0  0
  3 29  1  0  0  0  0
  4  5  1  0  0  0  0
  4 20  1  0  0  0  0
  5  6  2  0  0  0  0
  5  7  2  0  0  0  0
  5  8  1  0  0  0  0
  8  9  1  0  0  0  0
  8 30  1  0  0  0  0
  8 31  1  0  0  0  0
  9 10  1  0  0  0  0
  9 32  1  0  0  0  0
  9 33  1  0  0  0  0
 10 11  1  0  0  0  0
 10 34  1  0  0  0  0
 11 12  2  0  0  0  0
 11 13  1  0  0  0  0
 13 14  1  0  0  0  0
 13 35  1  0  0  0  0
 14 19  1  0  0  0  0
 14 15  2  0  0  0  0
 15 16  1  0  0  0  0
 15 36  1  0  0  0  0
 16 17  2  0  0  0  0
 16 37  1  0  0  0  0
 17 18  1  0  0  0  0
 17 38  1  0  0  0  0
 18 19  2  0  0  0  0
 19 39  1  0  0  0  0
 20 21  1  0  0  0  0
 20 40  1  0  0  0  0
 20 41  1  0  0  0  0
 21 22  1  0  0  0  0
 21 23  1  0  0  0  0
 21 42  1  0  0  0  0
 22 43  1  0  0  0  0
 22 44  1  0  0  0  0
 22 45  1  0  0  0  0
M  END
> <s_m_source_file>
AV-unprocessed.smi

> <i_m_source_file_index>
1414

> <i_lp_mmshare_version>
43012

> <i_f3d_flags>
0

> <s_epik_input>
W0NIM11bQ0BASF0xW0NIMl1OKFtDSDJdW0NASF0oTzEpW0NIM10pUyg9TykoPU8pW0NIMl1bQ0gyXVtOSF1DKD1PKVtOSF1jMltjSF1bY0hdW2NIXW5bY0hdMg==

> <s_epik_cmdline>
J2VwaWtfcHl0aG9uJywgJy1waCcsICc3LjAnLCAnLXRuJywgJzgnLCAnLW1hJywgJzIwMCcsICctbWV0YWxfYmluZGluZycsICctaW1hZScsICc8aW5maWxlLm1hZT4nLCAnLW9tYWUnLCAnPG91dGZpbGUubWFlPic=

> <r_epik_Ionization_Penalty>
0.00437531

> <r_epik_Ionization_Penalty_Charging>
0

> <r_epik_Ionization_Penalty_Neutral>
0.00437531

> <r_epik_State_Penalty>
0.00312896

> <r_epik_Charging_Adjusted_Penalty>
0.00312896

> <i_epik_Tot_Q>
0

> <i_epik_Tot_abs_Q>
0

> <r_epik_Metal_State_Penalty>
-0

> <b_epik_Metal_Only>
0

> <s_lp_Force_Field>
OPLS_2005

> <r_lp_Energy>
6.94025

> <b_lp_Chiralities_Consistent>
1

> <s_lp_Variant>
AV-unprocessed.smi:1414-1

> <Gold.Version>
5.8.1

> <Gold.Id.Protein>
6NUR|6NUR_protein|mol2

> <Gold.PLP.Fitness>
49.1778

> <Gold.PLP.PLP>
-37.4446

> <Gold.PLP.part.hbond>
-3.5701

> <Gold.PLP.part.metal>
0.0000

> <Gold.PLP.part.buried>
-6.4084

> <Gold.PLP.part.nonpolar>
-29.2804

> <Gold.PLP.part.repulsive>
0.2782

> <Gold.PLP.ligand.clash>
0.0000

> <Gold.PLP.ligand.torsion>
1.4301

> <Gold.PLP.Chemscore.Hbond>
1.7593

> <Gold.PLP.Chemscore.CHOScore>
2.4008

> <Gold.PLP.Chemscore.Metal>
0.0000

> <Gold.Chemscore.Hbonds>
donor molecule, donor type, donor heavy atom, donor atom, acceptor molecule, acceptor atom, score
      L1  H    13    35       P1 10747  0.94
      P1  H  7989  7998       L1    23  0.60
      P1  H 10785 10796       L1    18  0.08
      L1  C    17    38       P1 10186  0.65
      L1  C    17    38       P1 10952  0.45
      L1  C    19    39       P1 10747  1.00

> <Gold.PLP.Chemscore.Internal.Correction>
2.1129

> <Gold.Rescore>
     Score         DG    S(hbond)    S(metal)    S(lipo)     H(rot)  DE(clash)    DE(int)     intcor
     11.80     -15.78       1.17        0.00      89.07       1.57       0.09       3.89       ----

> <Gold.Chemscore.Fitness>
11.8041

> <Gold.Chemscore.DG>
-15.7820

> <Gold.Chemscore.ZeroCoef>
-5.4800

> <Gold.Chemscore.Hbond>
1.1668

> <Gold.Chemscore.Metal>
0.0000

> <Gold.Chemscore.Lipo>
89.0668

> <Gold.Chemscore.Internal_Hbond>
0.0000

> <Gold.Chemscore.DEClash>
0.0894

> <Gold.Chemscore.DEInternal>
3.8885

> <Gold.Chemscore.Rot>
1.5687

> <Gold.Chemscore.Internal.Correction>
   9.000000E+99

> <Gold.Chemscore.Hbonds>
donor molecule, donor type, donor heavy atom, donor atom, acceptor molecule, acceptor atom, score
      L1  H    13    35       P1 10747  0.86
      P1  H  7989  7998       L1    23  0.04
      P1  H 10785 10796       L1    18  0.01

> <Gold.Chemscore.Hbond.Weighted>
-3.8971

> <Gold.Chemscore.Metal.Weighted>
-0.0000

> <Gold.Chemscore.Lipo.Weighted>
-10.4208

> <Gold.Chemscore.Internal_Hbond.Weighted>
0.0000

> <Gold.Chemscore.DEClash.Weighted>
0.0894

> <Gold.Chemscore.DEInternal.Weighted>
3.8885

> <Gold.Chemscore.Rot.Weighted>
4.0160

> <Gold.Chemscore.Internal.Correction.Weighted>
   9.000000E+99

> <Gold.Protein.RotatedTorsions>
[ 6907 6896 6895 6894 ] final -124.23 input  -60.11 | X-H torsion
[ 7974 7965 7964 7962 ] final  -35.19 input  175.53 | X-H torsion
[ 8008 7997 7996 7995 ] final  -33.95 input   59.86 | X-H torsion
[ 10167 10162 10161 10158 ] final   89.73 input  -65.29 | X-H torsion
[ 10718 10713 10712 10709 ] final  102.00 input   66.30 | X-H torsion
[ 10763 10752 10751 10750 ] final -165.85 input  -60.55 | X-H torsion
[ 11005 11000 10999 10996 ] final  -59.39 input  -57.11 | X-H torsion

> <Gold.Protein.ActiveResidues>
 VAL166  LYS551  ARG553  GLY616  TRP617  ASP618  TYR619  PRO620  LYS621  CYS622 
 ASP623  PHE694  ASN695  SER759  ASP760  ASP761  ALA762  ILE779  LEU786  VAL792 
 PHE793  MET794  SER795  GLU796  ALA797  LYS798  CYS799  TRP800  GLU811  SER814 

> <Gold.Protein.RotatedAtoms>
  150.8748  133.7455  159.2949 H   0  0  0  0  0  0  0  0  0  0  0  0  # atno 6907 bound_to 6896
  151.5055  135.1062  159.9850 H   0  0  0  0  0  0  0  0  0  0  0  0  # atno 6908 bound_to 6896
  152.4720  133.8006  159.7006 H   0  0  0  0  0  0  0  0  0  0  0  0  # atno 6909 bound_to 6896
  146.0767  140.6130  142.8927 H   0  0  0  0  0  0  0  0  0  0  0  0  # atno 7974 bound_to 7965
  154.4134  140.1697  156.1970 H   0  0  0  0  0  0  0  0  0  0  0  0  # atno 8008 bound_to 7997
  155.9556  140.3397  155.6422 H   0  0  0  0  0  0  0  0  0  0  0  0  # atno 8009 bound_to 7997
  155.6814  140.0723  157.2474 H   0  0  0  0  0  0  0  0  0  0  0  0  # atno 8010 bound_to 7997
  139.8543  144.6577  150.9133 H   0  0  0  0  0  0  0  0  0  0  0  0  # atno 10167 bound_to 10162
  157.6814  131.0741  150.5337 H   0  0  0  0  0  0  0  0  0  0  0  0  # atno 10718 bound_to 10713
  154.6891  135.2967  154.9505 H   0  0  0  0  0  0  0  0  0  0  0  0  # atno 10763 bound_to 10752
  154.0475  135.6649  153.4800 H   0  0  0  0  0  0  0  0  0  0  0  0  # atno 10764 bound_to 10752
  153.0599  135.5122  154.7973 H   0  0  0  0  0  0  0  0  0  0  0  0  # atno 10765 bound_to 10752
  141.1246  133.6616  156.5064 H   0  0  0  0  0  0  0  0  0  0  0  0  # atno 11005 bound_to 11000
  144.7266  140.4543  143.6968 LP  0  0  0  0  0  0  0  0  0  0  0  0  # atno 17320 bound_to 7965
  145.6293  139.1534  143.2978 LP  0  0  0  0  0  0  0  0  0  0  0  0  # atno 17321 bound_to 7965
  140.7783  143.3800  151.1494 LP  0  0  0  0  0  0  0  0  0  0  0  0  # atno 17342 bound_to 10162
  139.7435  143.8888  152.3057 LP  0  0  0  0  0  0  0  0  0  0  0  0  # atno 17343 bound_to 10162
  156.5646  130.4264  149.6047 LP  0  0  0  0  0  0  0  0  0  0  0  0  # atno 17370 bound_to 10713
  156.2792  130.7061  151.1880 LP  0  0  0  0  0  0  0  0  0  0  0  0  # atno 17371 bound_to 10713
  140.4404  134.7021  157.4989 LP  0  0  0  0  0  0  0  0  0  0  0  0  # atno 17394 bound_to 11000
  140.0233  134.6515  155.9209 LP  0  0  0  0  0  0  0  0  0  0  0  0  # atno 17395 bound_to 11000

$$$$
