AV-unprocessed.smi:3253|AV-procd|sdf|12451|dock1
  -GOLD-   2272018343D 1   1.00000     0.00000
 Structure written by MMmdl.
 36 37  0  0  0  0  0  0  0  0  1 V2000
  154.2674  140.5659  161.3385 C   0  0  0  0  0  0  0  0  0  0  0  0
  153.6001  141.5566  160.3704 C   0  0  2  0  0  0  0  0  0  0  0  0
  152.9448  142.7576  161.0872 C   0  0  0  0  0  0  0  0  0  0  0  0
  152.5503  143.8108  160.1710 N   0  0  0  0  0  0  0  0  0  0  0  0
  152.7555  143.8517  158.7981 C   0  0  0  0  0  0  0  0  0  0  0  0
  152.2166  145.0386  158.3556 C   0  0  0  0  0  0  0  0  0  0  0  0
  151.6832  145.7419  159.4330 N   0  0  0  0  0  0  0  0  0  0  0  0
  151.9209  144.9543  160.4740 C   0  0  0  0  0  0  0  0  0  0  0  0
  152.6089  140.8464  159.5673 N   0  0  0  0  0  0  0  0  0  0  0  0
  152.8730  139.8412  158.7180 C   0  0  0  0  0  0  0  0  0  0  0  0
  154.0077  139.4059  158.5188 O   0  0  0  0  0  0  0  0  0  0  0  0
  151.6701  139.2344  157.9790 C   0  0  1  0  0  0  0  0  0  0  0  0
  150.8756  140.3121  157.2132 C   0  0  0  0  0  0  0  0  0  0  0  0
  151.0946  139.9625  155.7508 C   0  0  0  0  0  0  0  0  0  0  0  0
  150.6799  140.6615  154.8275 O   0  0  0  0  0  0  0  0  0  0  0  0
  151.7868  138.8267  155.6291 N   0  0  0  0  0  0  0  0  0  0  0  0
  152.1787  138.1992  154.3744 C   0  0  0  0  0  0  0  0  0  0  0  0
  152.0954  138.2074  156.9064 C   0  0  0  0  0  0  0  0  0  0  0  0
  155.0804  141.0342  161.8937 H   0  0  0  0  0  0  0  0  0  0  0  0
  154.6920  139.7179  160.8002 H   0  0  0  0  0  0  0  0  0  0  0  0
  153.5510  140.1761  162.0625 H   0  0  0  0  0  0  0  0  0  0  0  0
  154.3787  141.9320  159.7032 H   0  0  0  0  0  0  0  0  0  0  0  0
  152.0566  142.4392  161.6350 H   0  0  0  0  0  0  0  0  0  0  0  0
  153.6305  143.1790  161.8237 H   0  0  0  0  0  0  0  0  0  0  0  0
  153.2509  143.0545  158.2639 H   0  0  0  0  0  0  0  0  0  0  0  0
  152.1735  145.4380  157.3532 H   0  0  0  0  0  0  0  0  0  0  0  0
  151.6278  145.2136  161.4807 H   0  0  0  0  0  0  0  0  0  0  0  0
  151.6480  141.1401  159.6675 H   0  0  0  0  0  0  0  0  0  0  0  0
  151.0168  138.7470  158.7050 H   0  0  0  0  0  0  0  0  0  0  0  0
  149.8115  140.2554  157.4447 H   0  0  0  0  0  0  0  0  0  0  0  0
  151.2097  141.3312  157.4153 H   0  0  0  0  0  0  0  0  0  0  0  0
  151.2973  137.9176  153.7971 H   0  0  0  0  0  0  0  0  0  0  0  0
  152.7691  137.2999  154.5520 H   0  0  0  0  0  0  0  0  0  0  0  0
  152.7786  138.8844  153.7745 H   0  0  0  0  0  0  0  0  0  0  0  0
  153.1540  137.9465  156.9585 H   0  0  0  0  0  0  0  0  0  0  0  0
  151.5241  137.2836  157.0070 H   0  0  0  0  0  0  0  0  0  0  0  0
  1  2  1  0  0  0  0
  1 19  1  0  0  0  0
  1 20  1  0  0  0  0
  1 21  1  0  0  0  0
  2  3  1  0  0  0  0
  2  9  1  0  0  0  0
  2 22  1  0  0  0  0
  3  4  1  0  0  0  0
  3 23  1  0  0  0  0
  3 24  1  0  0  0  0
  4  8  1  0  0  0  0
  4  5  1  0  0  0  0
  5  6  2  0  0  0  0
  5 25  1  0  0  0  0
  6  7  1  0  0  0  0
  6 26  1  0  0  0  0
  7  8  2  0  0  0  0
  8 27  1  0  0  0  0
  9 10  1  0  0  0  0
  9 28  1  0  0  0  0
 10 11  2  0  0  0  0
 10 12  1  0  0  0  0
 12 18  1  0  0  0  0
 12 13  1  0  0  0  0
 12 29  1  0  0  0  0
 13 14  1  0  0  0  0
 13 30  1  0  0  0  0
 13 31  1  0  0  0  0
 14 15  2  0  0  0  0
 14 16  1  0  0  0  0
 16 17  1  0  0  0  0
 16 18  1  0  0  0  0
 17 32  1  0  0  0  0
 17 33  1  0  0  0  0
 17 34  1  0  0  0  0
 18 35  1  0  0  0  0
 18 36  1  0  0  0  0
M  END
> <s_m_source_file>
AV-unprocessed.smi

> <i_m_source_file_index>
3253

> <i_lp_mmshare_version>
43012

> <i_f3d_flags>
0

> <s_epik_input>
W2NIXTFuW2NIXVtjSF1uMVtDSDJdW0NAQEhdKFtDSDNdKVtOSF1DKD1PKVtDQEBIXTJbQ0gyXUMoPU8pTihbQ0gzXSlbQ0gyXTI=

> <s_epik_cmdline>
J2VwaWtfcHl0aG9uJywgJy1waCcsICc3LjAnLCAnLXRuJywgJzgnLCAnLW1hJywgJzIwMCcsICctbWV0YWxfYmluZGluZycsICctaW1hZScsICc8aW5maWxlLm1hZT4nLCAnLW9tYWUnLCAnPG91dGZpbGUubWFlPic=

> <r_lp_tautomer_probability>
1

> <r_epik_Ionization_Penalty>
0.628884

> <r_epik_Ionization_Penalty_Charging>
0.628884

> <r_epik_Ionization_Penalty_Neutral>
2.35084e-08

> <r_epik_State_Penalty>
0.64556

> <r_epik_Charging_Adjusted_Penalty>
1.27444

> <i_epik_Tot_Q>
0

> <i_epik_Tot_abs_Q>
0

> <r_epik_Metal_State_Penalty>
0.308736

> <b_epik_Metal_Only>
0

> <s_lp_Force_Field>
OPLS_2005

> <r_lp_Energy>
12.6609

> <b_lp_Chiralities_Consistent>
1

> <s_lp_Variant>
AV-unprocessed.smi:3253-7

> <Gold.Version>
5.8.1

> <Gold.Id.Protein>
6NUR|6NUR_protein|mol2

> <Gold.PLP.Fitness>
50.2940

> <Gold.PLP.PLP>
-44.5573

> <Gold.PLP.part.hbond>
-3.0000

> <Gold.PLP.part.metal>
0.0000

> <Gold.PLP.part.buried>
-5.8911

> <Gold.PLP.part.nonpolar>
-36.2930

> <Gold.PLP.part.repulsive>
0.3646

> <Gold.PLP.ligand.clash>
0.0000

> <Gold.PLP.ligand.torsion>
0.1568

> <Gold.PLP.Chemscore.Hbond>
2.0000

> <Gold.PLP.Chemscore.CHOScore>
0.0000

> <Gold.PLP.Chemscore.Metal>
0.0000

> <Gold.Chemscore.Hbonds>
donor molecule, donor type, donor heavy atom, donor atom, acceptor molecule, acceptor atom, score
      P1  H  7989  7998       L1    15  0.94
      P1  H  7997  8010       L1    11  1.00

> <Gold.PLP.Chemscore.Internal.Correction>
0.0503

> <Gold.Rescore>
     Score         DG    S(hbond)    S(metal)    S(lipo)     H(rot)  DE(clash)    DE(int)     intcor
     16.31     -16.53       1.95        0.00      81.75       1.97       0.07       0.15       ----

> <Gold.Chemscore.Fitness>
16.3141

> <Gold.Chemscore.DG>
-16.5316

> <Gold.Chemscore.ZeroCoef>
-5.4800

> <Gold.Chemscore.Hbond>
1.9527

> <Gold.Chemscore.Metal>
0.0000

> <Gold.Chemscore.Lipo>
81.7495

> <Gold.Chemscore.Internal_Hbond>
0.0000

> <Gold.Chemscore.DEClash>
0.0659

> <Gold.Chemscore.DEInternal>
0.1517

> <Gold.Chemscore.Rot>
1.9669

> <Gold.Chemscore.Internal.Correction>
   9.000000E+99

> <Gold.Chemscore.Hbonds>
donor molecule, donor type, donor heavy atom, donor atom, acceptor molecule, acceptor atom, score
      P1  H  7989  7998       L1    15  0.88
      P1  H  7997  8010       L1    11  0.96

> <Gold.Chemscore.Hbond.Weighted>
-6.5221

> <Gold.Chemscore.Metal.Weighted>
-0.0000

> <Gold.Chemscore.Lipo.Weighted>
-9.5647

> <Gold.Chemscore.Internal_Hbond.Weighted>
0.0000

> <Gold.Chemscore.DEClash.Weighted>
0.0659

> <Gold.Chemscore.DEInternal.Weighted>
0.1517

> <Gold.Chemscore.Rot.Weighted>
5.0352

> <Gold.Chemscore.Internal.Correction.Weighted>
   9.000000E+99

> <Gold.Protein.RotatedTorsions>
[ 6907 6896 6895 6894 ] final  116.91 input  -60.11 | X-H torsion
[ 7974 7965 7964 7962 ] final  -18.93 input  175.53 | X-H torsion
[ 8008 7997 7996 7995 ] final   14.43 input   59.86 | X-H torsion
[ 10167 10162 10161 10158 ] final  163.70 input  -65.29 | X-H torsion
[ 10718 10713 10712 10709 ] final -148.25 input   66.30 | X-H torsion
[ 10763 10752 10751 10750 ] final  127.20 input  -60.55 | X-H torsion
[ 11005 11000 10999 10996 ] final    6.43 input  -57.11 | X-H torsion

> <Gold.Protein.ActiveResidues>
 VAL166  LYS551  ARG553  GLY616  TRP617  ASP618  TYR619  PRO620  LYS621  CYS622 
 ASP623  PHE694  ASN695  SER759  ASP760  ASP761  ALA762  ILE779  LEU786  VAL792 
 PHE793  MET794  SER795  GLU796  ALA797  LYS798  CYS799  TRP800  GLU811  SER814 

> <Gold.Protein.RotatedAtoms>
  152.4647  133.7897  159.6895 H   0  0  0  0  0  0  0  0  0  0  0  0  # atno 6907 bound_to 6896
  150.8606  133.7639  159.3000 H   0  0  0  0  0  0  0  0  0  0  0  0  # atno 6908 bound_to 6896
  151.5205  135.1070  159.9929 H   0  0  0  0  0  0  0  0  0  0  0  0  # atno 6909 bound_to 6896
  146.1867  140.3991  142.8473 H   0  0  0  0  0  0  0  0  0  0  0  0  # atno 7974 bound_to 7965
  154.8484  140.2925  155.5614 H   0  0  0  0  0  0  0  0  0  0  0  0  # atno 8008 bound_to 7997
  156.3015  140.2500  156.3370 H   0  0  0  0  0  0  0  0  0  0  0  0  # atno 8009 bound_to 7997
  154.9048  140.0390  157.1903 H   0  0  0  0  0  0  0  0  0  0  0  0  # atno 8010 bound_to 7997
  139.4877  144.4311  151.9070 H   0  0  0  0  0  0  0  0  0  0  0  0  # atno 10167 bound_to 10162
  156.4178  130.8014  151.2235 H   0  0  0  0  0  0  0  0  0  0  0  0  # atno 10718 bound_to 10713
  153.7056  135.3276  155.3234 H   0  0  0  0  0  0  0  0  0  0  0  0  # atno 10763 bound_to 10752
  154.8400  135.4464  154.1366 H   0  0  0  0  0  0  0  0  0  0  0  0  # atno 10764 bound_to 10752
  153.2446  135.6975  153.7824 H   0  0  0  0  0  0  0  0  0  0  0  0  # atno 10765 bound_to 10752
  140.5595  134.0206  155.7966 H   0  0  0  0  0  0  0  0  0  0  0  0  # atno 11005 bound_to 11000
  144.8410  140.6857  143.6229 LP  0  0  0  0  0  0  0  0  0  0  0  0  # atno 17320 bound_to 7965
  145.3917  139.1615  143.4225 LP  0  0  0  0  0  0  0  0  0  0  0  0  # atno 17321 bound_to 7965
  140.3758  144.2798  150.5914 LP  0  0  0  0  0  0  0  0  0  0  0  0  # atno 17342 bound_to 10162
  140.5278  143.2250  151.8287 LP  0  0  0  0  0  0  0  0  0  0  0  0  # atno 17343 bound_to 10162
  157.7508  131.0237  150.3847 LP  0  0  0  0  0  0  0  0  0  0  0  0  # atno 17370 bound_to 10713
  156.4158  130.3943  149.6859 LP  0  0  0  0  0  0  0  0  0  0  0  0  # atno 17371 bound_to 10713
  141.1123  133.9597  157.2887 LP  0  0  0  0  0  0  0  0  0  0  0  0  # atno 17394 bound_to 11000
  139.9415  135.0190  156.8721 LP  0  0  0  0  0  0  0  0  0  0  0  0  # atno 17395 bound_to 11000

$$$$
