AV-unprocessed.smi:754|AV-procd|sdf|3608|dock3
  -GOLD-   22720 1 03D 1   1.00000     0.00000
 Structure written by MMmdl.
 37 38  0  0  0  0  0  0  0  0  1 V2000
  153.3631  142.7346  162.5674 C   0  0  0  0  0  0  0  0  0  0  0  0
  152.4888  143.5537  161.6157 C   0  0  0  0  0  0  0  0  0  0  0  0
  151.7626  142.6642  160.7849 O   0  0  0  0  0  0  0  0  0  0  0  0
  152.2459  142.6328  159.4514 C   0  0  1  0  0  0  0  0  0  0  0  0
  151.6399  141.5298  158.5781 C   0  0  0  0  0  0  0  0  0  0  0  0
  151.6454  142.5676  157.4547 C   0  0  1  0  0  0  0  0  0  0  0  0
  150.4747  142.4637  156.5899 N   0  0  0  0  0  0  0  0  0  0  0  0
  150.2452  141.4511  155.7410 C   0  0  0  0  0  0  0  0  0  0  0  0
  151.0147  140.5000  155.6015 O   0  0  0  0  0  0  0  0  0  0  0  0
  148.9559  141.5289  154.9194 C   0  0  0  0  0  0  0  0  0  0  0  0
  148.1579  140.3257  155.0666 N   0  0  0  0  0  0  0  0  0  0  0  0
  147.9224  139.3202  154.2213 C   0  0  0  0  0  0  0  0  0  0  0  0
  147.1353  138.4020  154.7608 N   0  0  0  0  0  0  0  0  0  0  0  0
  146.8872  138.9052  156.0273 N   0  0  0  0  0  0  0  0  0  0  0  0
  147.4919  140.0464  156.2146 N   0  0  0  0  0  0  0  0  0  0  0  0
  151.5677  143.6810  158.5349 C   0  0  0  0  0  0  0  0  0  0  0  0
  150.1668  144.1481  158.9680 C   0  0  0  0  0  0  0  0  0  0  0  0
  152.3880  144.9398  158.2538 C   0  0  0  0  0  0  0  0  0  0  0  0
  153.9369  143.3854  163.2274 H   0  0  0  0  0  0  0  0  0  0  0  0
  154.0675  142.1137  162.0134 H   0  0  0  0  0  0  0  0  0  0  0  0
  152.7545  142.0784  163.1899 H   0  0  0  0  0  0  0  0  0  0  0  0
  151.8021  144.1801  162.1868 H   0  0  0  0  0  0  0  0  0  0  0  0
  153.1137  144.2131  161.0118 H   0  0  0  0  0  0  0  0  0  0  0  0
  153.3362  142.6699  159.3877 H   0  0  0  0  0  0  0  0  0  0  0  0
  152.2917  140.6718  158.4112 H   0  0  0  0  0  0  0  0  0  0  0  0
  150.6419  141.2253  158.8985 H   0  0  0  0  0  0  0  0  0  0  0  0
  152.5954  142.5679  156.9149 H   0  0  0  0  0  0  0  0  0  0  0  0
  149.7954  143.2089  156.6435 H   0  0  0  0  0  0  0  0  0  0  0  0
  148.3561  142.3914  155.2153 H   0  0  0  0  0  0  0  0  0  0  0  0
  149.2075  141.6563  153.8661 H   0  0  0  0  0  0  0  0  0  0  0  0
  148.3268  139.2607  153.2216 H   0  0  0  0  0  0  0  0  0  0  0  0
  149.6838  144.7437  158.1928 H   0  0  0  0  0  0  0  0  0  0  0  0
  150.2133  144.7643  159.8664 H   0  0  0  0  0  0  0  0  0  0  0  0
  149.5047  143.3112  159.1910 H   0  0  0  0  0  0  0  0  0  0  0  0
  151.9378  145.5438  157.4655 H   0  0  0  0  0  0  0  0  0  0  0  0
  153.4003  144.6945  157.9315 H   0  0  0  0  0  0  0  0  0  0  0  0
  152.4752  145.5667  159.1416 H   0  0  0  0  0  0  0  0  0  0  0  0
  1  2  1  0  0  0  0
  1 19  1  0  0  0  0
  1 20  1  0  0  0  0
  1 21  1  0  0  0  0
  2  3  1  0  0  0  0
  2 22  1  0  0  0  0
  2 23  1  0  0  0  0
  3  4  1  0  0  0  0
  4 16  1  0  0  0  0
  4  5  1  0  0  0  0
  4 24  1  0  0  0  0
  5  6  1  0  0  0  0
  5 25  1  0  0  0  0
  5 26  1  0  0  0  0
  6  7  1  0  0  0  0
  6 16  1  0  0  0  0
  6 27  1  0  0  0  0
  7  8  1  0  0  0  0
  7 28  1  0  0  0  0
  8  9  2  0  0  0  0
  8 10  1  0  0  0  0
 10 11  1  0  0  0  0
 10 29  1  0  0  0  0
 10 30  1  0  0  0  0
 11 15  1  0  0  0  0
 11 12  1  0  0  0  0
 12 13  2  0  0  0  0
 12 31  1  0  0  0  0
 13 14  1  0  0  0  0
 14 15  2  0  0  0  0
 16 17  1  0  0  0  0
 16 18  1  0  0  0  0
 17 32  1  0  0  0  0
 17 33  1  0  0  0  0
 17 34  1  0  0  0  0
 18 35  1  0  0  0  0
 18 36  1  0  0  0  0
 18 37  1  0  0  0  0
M  END
> <s_m_source_file>
AV-unprocessed.smi

> <i_m_source_file_index>
754

> <i_lp_mmshare_version>
43012

> <i_f3d_flags>
0

> <s_epik_input>
W0NIM11bQ0gyXU9bQ0BASF0oQzEoW0NIM10pW0NIM10pW0NIMl1bQ0BIXTFbTkhdQyg9TylbQ0gyXW4yW2NIXW5ubjI=

> <s_epik_cmdline>
J2VwaWtfcHl0aG9uJywgJy1waCcsICc3LjAnLCAnLXRuJywgJzgnLCAnLW1hJywgJzIwMCcsICctbWV0YWxfYmluZGluZycsICctaW1hZScsICc8aW5maWxlLm1hZT4nLCAnLW9tYWUnLCAnPG91dGZpbGUubWFlPic=

> <r_lp_tautomer_probability>
1

> <r_epik_Ionization_Penalty>
8.28422e-07

> <r_epik_Ionization_Penalty_Charging>
0

> <r_epik_Ionization_Penalty_Neutral>
8.28422e-07

> <r_epik_State_Penalty>
-0

> <r_epik_Charging_Adjusted_Penalty>
0

> <i_epik_Tot_Q>
0

> <i_epik_Tot_abs_Q>
0

> <r_epik_Metal_State_Penalty>
-0

> <b_epik_Metal_Only>
0

> <s_lp_Force_Field>
OPLS_2005

> <r_lp_Energy>
20.8169

> <b_lp_Chiralities_Consistent>
1

> <s_lp_Variant>
AV-unprocessed.smi:754-2

> <Gold.Version>
5.8.1

> <Gold.Id.Protein>
6NUR|6NUR_protein|mol2

> <Gold.PLP.Fitness>
44.6188

> <Gold.PLP.PLP>
-37.2470

> <Gold.PLP.part.hbond>
-3.0000

> <Gold.PLP.part.metal>
0.0000

> <Gold.PLP.part.buried>
-3.9733

> <Gold.PLP.part.nonpolar>
-28.7488

> <Gold.PLP.part.repulsive>
0.2952

> <Gold.PLP.ligand.clash>
0.0000

> <Gold.PLP.ligand.torsion>
0.8059

> <Gold.PLP.Chemscore.Hbond>
1.8709

> <Gold.PLP.Chemscore.CHOScore>
1.0000

> <Gold.PLP.Chemscore.Metal>
0.0000

> <Gold.Chemscore.Hbonds>
donor molecule, donor type, donor heavy atom, donor atom, acceptor molecule, acceptor atom, score
      L1  H     7    28       P1  8028  0.93
      P1  H  6933  6945       L1     3  0.01
      P1  H  7989  7998       L1     9  0.44
      L1  C    12    31       P1  7957  0.97

> <Gold.PLP.Chemscore.Internal.Correction>
0.3707

> <Gold.Rescore>
     Score         DG    S(hbond)    S(metal)    S(lipo)     H(rot)  DE(clash)    DE(int)     intcor
     12.29     -14.07       1.13        0.00      95.00       2.46       0.85       0.94       ----

> <Gold.Chemscore.Fitness>
12.2916

> <Gold.Chemscore.DG>
-14.0724

> <Gold.Chemscore.ZeroCoef>
-5.4800

> <Gold.Chemscore.Hbond>
1.1313

> <Gold.Chemscore.Metal>
0.0000

> <Gold.Chemscore.Lipo>
95.0047

> <Gold.Chemscore.Internal_Hbond>
0.0000

> <Gold.Chemscore.DEClash>
0.8452

> <Gold.Chemscore.DEInternal>
0.9357

> <Gold.Chemscore.Rot>
2.4616

> <Gold.Chemscore.Internal.Correction>
   9.000000E+99

> <Gold.Chemscore.Hbonds>
donor molecule, donor type, donor heavy atom, donor atom, acceptor molecule, acceptor atom, score
      L1  H     7    28       P1  8028  0.85
      P1  H  6933  6945       L1     3  0.01
      P1  H  7989  7998       L1     9  0.09

> <Gold.Chemscore.Hbond.Weighted>
-3.7785

> <Gold.Chemscore.Metal.Weighted>
-0.0000

> <Gold.Chemscore.Lipo.Weighted>
-11.1155

> <Gold.Chemscore.Internal_Hbond.Weighted>
0.0000

> <Gold.Chemscore.DEClash.Weighted>
0.8452

> <Gold.Chemscore.DEInternal.Weighted>
0.9357

> <Gold.Chemscore.Rot.Weighted>
6.3016

> <Gold.Chemscore.Internal.Correction.Weighted>
   9.000000E+99

> <Gold.Protein.RotatedTorsions>
[ 6907 6896 6895 6894 ] final -115.35 input  -60.11 | X-H torsion
[ 7974 7965 7964 7962 ] final  -27.08 input  175.53 | X-H torsion
[ 8008 7997 7996 7995 ] final  -76.80 input   59.86 | X-H torsion
[ 10167 10162 10161 10158 ] final   76.93 input  -65.29 | X-H torsion
[ 10718 10713 10712 10709 ] final  -59.26 input   66.30 | X-H torsion
[ 10763 10752 10751 10750 ] final  -75.03 input  -60.55 | X-H torsion
[ 11005 11000 10999 10996 ] final   15.81 input  -57.11 | X-H torsion

> <Gold.Protein.ActiveResidues>
 VAL166  LYS551  ARG553  GLY616  TRP617  ASP618  TYR619  PRO620  LYS621  CYS622 
 ASP623  PHE694  ASN695  SER759  ASP760  ASP761  ALA762  ILE779  LEU786  VAL792 
 PHE793  MET794  SER795  GLU796  ALA797  LYS798  CYS799  TRP800  GLU811  SER814 

> <Gold.Protein.RotatedAtoms>
  150.7971  133.8671  159.3247 H   0  0  0  0  0  0  0  0  0  0  0  0  # atno 6907 bound_to 6896
  151.6493  135.1001  160.0167 H   0  0  0  0  0  0  0  0  0  0  0  0  # atno 6908 bound_to 6896
  152.4054  133.6842  159.6387 H   0  0  0  0  0  0  0  0  0  0  0  0  # atno 6909 bound_to 6896
  146.1382  140.5105  142.8663 H   0  0  0  0  0  0  0  0  0  0  0  0  # atno 7974 bound_to 7965
  154.5538  140.0721  156.8710 H   0  0  0  0  0  0  0  0  0  0  0  0  # atno 8008 bound_to 7997
  155.2942  140.3380  155.4232 H   0  0  0  0  0  0  0  0  0  0  0  0  # atno 8009 bound_to 7997
  156.1984  140.1712  156.7936 H   0  0  0  0  0  0  0  0  0  0  0  0  # atno 8010 bound_to 7997
  139.9870  144.5785  150.7851 H   0  0  0  0  0  0  0  0  0  0  0  0  # atno 10167 bound_to 10162
  156.1074  130.4179  150.0691 H   0  0  0  0  0  0  0  0  0  0  0  0  # atno 10718 bound_to 10713
  154.4811  135.5844  153.6390 H   0  0  0  0  0  0  0  0  0  0  0  0  # atno 10763 bound_to 10752
  152.9848  135.6090  154.3245 H   0  0  0  0  0  0  0  0  0  0  0  0  # atno 10764 bound_to 10752
  154.3136  135.2844  155.2533 H   0  0  0  0  0  0  0  0  0  0  0  0  # atno 10765 bound_to 10752
  140.4541  134.1194  155.7706 H   0  0  0  0  0  0  0  0  0  0  0  0  # atno 11005 bound_to 11000
  144.7763  140.5746  143.6636 LP  0  0  0  0  0  0  0  0  0  0  0  0  # atno 17320 bound_to 7965
  145.5108  139.1479  143.3606 LP  0  0  0  0  0  0  0  0  0  0  0  0  # atno 17321 bound_to 7965
  140.7468  143.2897  151.3364 LP  0  0  0  0  0  0  0  0  0  0  0  0  # atno 17342 bound_to 10162
  139.6368  144.0616  152.2522 LP  0  0  0  0  0  0  0  0  0  0  0  0  # atno 17343 bound_to 10162
  156.8663  130.9509  151.3613 LP  0  0  0  0  0  0  0  0  0  0  0  0  # atno 17370 bound_to 10713
  157.6253  130.8686  149.9178 LP  0  0  0  0  0  0  0  0  0  0  0  0  # atno 17371 bound_to 10713
  141.1651  133.8718  157.1738 LP  0  0  0  0  0  0  0  0  0  0  0  0  # atno 17394 bound_to 11000
  139.9988  135.0036  157.0142 LP  0  0  0  0  0  0  0  0  0  0  0  0  # atno 17395 bound_to 11000

$$$$
