AV-unprocessed.smi:221|AV-procd|sdf|1691|dock1
  -GOLD-   2262020133D 1   1.00000     0.00000
 Structure written by MMmdl.
 50 53  0  0  0  0  0  0  0  0  1 V2000
  145.6817  136.7169  162.4440 N   0  0  0  0  0  0  0  0  0  0  0  0
  146.9218  136.3654  162.0904 C   0  0  0  0  0  0  0  0  0  0  0  0
  147.7743  137.2041  161.8060 O   0  0  0  0  0  0  0  0  0  0  0  0
  147.2579  134.8608  162.0384 C   0  0  1  0  0  0  0  0  0  0  0  0
  146.0860  133.9019  162.2961 C   0  0  0  0  0  0  0  0  0  0  0  0
  146.5978  132.5580  161.7604 C   0  0  1  0  0  0  0  0  0  0  0  0
  145.6968  132.0138  160.9418 F   0  0  0  0  0  0  0  0  0  0  0  0
  147.8964  132.8895  161.0052 C   0  0  0  0  0  0  0  0  0  0  0  0
  147.9146  134.3385  160.8317 N   0  0  0  0  0  0  0  0  0  0  0  0
  147.5056  134.6920  159.5833 C   0  0  0  0  0  0  0  0  0  0  0  0
  146.3682  134.1821  159.0391 N   0  0  0  0  0  0  0  0  0  0  0  0
  145.9970  134.5308  157.8040 C   0  0  0  0  0  0  0  0  0  0  0  0
  146.6097  135.3525  156.9495 N   0  0  0  0  0  0  0  0  0  0  0  0
  147.7581  135.8557  157.4856 C   0  0  0  0  0  0  0  0  0  0  0  0
  148.2742  135.5783  158.7820 C   0  0  0  0  0  0  0  0  0  0  0  0
  149.4638  136.2680  158.9802 N   0  0  0  0  0  0  0  0  0  0  0  0
  149.6434  136.9158  157.8612 C   0  0  0  0  0  0  0  0  0  0  0  0
  148.6702  136.7212  156.9073 N   0  0  0  0  0  0  0  0  0  0  0  0
  148.6282  137.3136  155.5817 C   0  0  0  0  0  0  0  0  0  0  0  0
  149.4969  138.5900  155.4586 C   0  0  1  0  0  0  0  0  0  0  0  0
  150.6411  138.4357  154.4266 C   0  0  0  0  0  0  0  0  0  0  0  0
  150.1387  138.1439  153.1385 O   0  0  0  0  0  0  0  0  0  0  0  0
  148.6280  139.8459  155.1934 C   0  0  2  0  0  0  0  0  0  0  0  0
  147.7437  139.7658  153.9615 C   0  0  0  0  0  0  0  0  0  0  0  0
  147.4096  141.2316  153.7097 C   0  0  0  0  0  0  0  0  0  0  0  0
  148.5561  141.9623  154.1294 O   0  0  0  0  0  0  0  0  0  0  0  0
  149.4227  141.1193  154.8825 C   0  0  0  0  0  0  0  0  0  0  0  0
  147.9795  134.7156  162.8447 H   0  0  0  0  0  0  0  0  0  0  0  0
  146.7804  131.8403  162.5609 H   0  0  0  0  0  0  0  0  0  0  0  0
  145.4324  137.6940  162.4924 H   0  0  0  0  0  0  0  0  0  0  0  0
  145.0008  136.0052  162.6662 H   0  0  0  0  0  0  0  0  0  0  0  0
  145.8247  133.8488  163.3536 H   0  0  0  0  0  0  0  0  0  0  0  0
  145.1940  134.2168  161.7523 H   0  0  0  0  0  0  0  0  0  0  0  0
  148.7628  132.6125  161.6073 H   0  0  0  0  0  0  0  0  0  0  0  0
  147.9743  132.3318  160.0693 H   0  0  0  0  0  0  0  0  0  0  0  0
  145.0792  134.0855  157.4488 H   0  0  0  0  0  0  0  0  0  0  0  0
  150.4988  137.5549  157.6964 H   0  0  0  0  0  0  0  0  0  0  0  0
  148.9470  136.5668  154.8535 H   0  0  0  0  0  0  0  0  0  0  0  0
  147.5849  137.5351  155.3556 H   0  0  0  0  0  0  0  0  0  0  0  0
  149.9791  138.7348  156.4267 H   0  0  0  0  0  0  0  0  0  0  0  0
  151.2390  139.3449  154.3705 H   0  0  0  0  0  0  0  0  0  0  0  0
  151.3310  137.6443  154.7197 H   0  0  0  0  0  0  0  0  0  0  0  0
  149.9797  138.9578  152.6855 H   0  0  0  0  0  0  0  0  0  0  0  0
  147.9937  140.0412  156.0597 H   0  0  0  0  0  0  0  0  0  0  0  0
  148.3006  139.3586  153.1164 H   0  0  0  0  0  0  0  0  0  0  0  0
  146.8516  139.1564  154.1097 H   0  0  0  0  0  0  0  0  0  0  0  0
  147.1675  141.4318  152.6657 H   0  0  0  0  0  0  0  0  0  0  0  0
  146.5592  141.5379  154.3200 H   0  0  0  0  0  0  0  0  0  0  0  0
  149.7697  141.6239  155.7845 H   0  0  0  0  0  0  0  0  0  0  0  0
  150.2946  140.8921  154.2675 H   0  0  0  0  0  0  0  0  0  0  0  0
  1  2  1  0  0  0  0
  1 30  1  0  0  0  0
  1 31  1  0  0  0  0
  2  3  2  0  0  0  0
  2  4  1  0  0  0  0
  4 28  1  0  0  0  0
  4  9  1  0  0  0  0
  4  5  1  0  0  0  0
  5  6  1  0  0  0  0
  5 32  1  0  0  0  0
  5 33  1  0  0  0  0
  6 29  1  0  0  0  0
  6  7  1  0  0  0  0
  6  8  1  0  0  0  0
  8  9  1  0  0  0  0
  8 34  1  0  0  0  0
  8 35  1  0  0  0  0
  9 10  1  0  0  0  0
 10 15  1  0  0  0  0
 10 11  2  0  0  0  0
 11 12  1  0  0  0  0
 12 13  2  0  0  0  0
 12 36  1  0  0  0  0
 13 14  1  0  0  0  0
 14 18  1  0  0  0  0
 14 15  2  0  0  0  0
 15 16  1  0  0  0  0
 16 17  2  0  0  0  0
 17 18  1  0  0  0  0
 17 37  1  0  0  0  0
 18 19  1  0  0  0  0
 19 20  1  0  0  0  0
 19 38  1  0  0  0  0
 19 39  1  0  0  0  0
 20 21  1  0  0  0  0
 20 23  1  0  0  0  0
 20 40  1  0  0  0  0
 21 22  1  0  0  0  0
 21 41  1  0  0  0  0
 21 42  1  0  0  0  0
 22 43  1  0  0  0  0
 23 27  1  0  0  0  0
 23 24  1  0  0  0  0
 23 44  1  0  0  0  0
 24 25  1  0  0  0  0
 24 45  1  0  0  0  0
 24 46  1  0  0  0  0
 25 26  1  0  0  0  0
 25 47  1  0  0  0  0
 25 48  1  0  0  0  0
 26 27  1  0  0  0  0
 27 49  1  0  0  0  0
 27 50  1  0  0  0  0
M  END
> <s_m_source_file>
AV-unprocessed.smi

> <i_m_source_file_index>
221

> <i_lp_mmshare_version>
43012

> <i_f3d_flags>
0

> <s_epik_input>
W05IMl1DKD1PKVtDQEBIXTFbQ0gyXVtDQEBIXShGKVtDSDJdTjFjKG5bY0hdbjIpYyhjMjMpbltjSF1uM1tDSDJdW0NASF0oW0NIMl1bT0hdKVtDQEBIXTRbQ0gyXVtDSDJdT1tDSDJdNA==

> <s_epik_cmdline>
J2VwaWtfcHl0aG9uJywgJy1waCcsICc3LjAnLCAnLXRuJywgJzgnLCAnLW1hJywgJzIwMCcsICctbWV0YWxfYmluZGluZycsICctaW1hZScsICc8aW5maWxlLm1hZT4nLCAnLW9tYWUnLCAnPG91dGZpbGUubWFlPic=

> <r_lp_tautomer_probability>
1

> <r_epik_Ionization_Penalty>
0.000818822

> <r_epik_Ionization_Penalty_Charging>
0

> <r_epik_Ionization_Penalty_Neutral>
0.000818822

> <r_epik_State_Penalty>
0.000440551

> <r_epik_Charging_Adjusted_Penalty>
0.000440551

> <i_epik_Tot_Q>
0

> <i_epik_Tot_abs_Q>
0

> <r_epik_Metal_State_Penalty>
-0

> <b_epik_Metal_Only>
0

> <s_lp_Force_Field>
OPLS_2005

> <r_lp_Energy>
55.0143

> <b_lp_Chiralities_Consistent>
1

> <s_lp_Variant>
AV-unprocessed.smi:221-6

> <Gold.Version>
5.8.1

> <Gold.Id.Protein>
6NUR|6NUR_protein|mol2

> <Gold.PLP.Fitness>
44.4907

> <Gold.PLP.PLP>
-35.3036

> <Gold.PLP.part.hbond>
-6.9728

> <Gold.PLP.part.metal>
0.0000

> <Gold.PLP.part.buried>
-1.9242

> <Gold.PLP.part.nonpolar>
-25.6568

> <Gold.PLP.part.repulsive>
0.3329

> <Gold.PLP.ligand.clash>
0.0000

> <Gold.PLP.ligand.torsion>
1.5458

> <Gold.PLP.Chemscore.Hbond>
4.0125

> <Gold.PLP.Chemscore.CHOScore>
0.0000

> <Gold.PLP.Chemscore.Metal>
0.0000

> <Gold.Chemscore.Hbonds>
donor molecule, donor type, donor heavy atom, donor atom, acceptor molecule, acceptor atom, score
      L1  H    22    43       P1  7957  1.00
      P1  H  6896  6908       L1    16  0.86
      P1  H  6931  6943       L1     3  1.00
      P1  H  6934  6947       L1     3  0.55
      P1  H  8011  8017       L1    26  0.22

> <Gold.PLP.Chemscore.Internal.Correction>
0.2411

> <Gold.Rescore>
     Score         DG    S(hbond)    S(metal)    S(lipo)     H(rot)  DE(clash)    DE(int)     intcor
     10.70     -14.16       3.21        0.00      64.03       3.72       0.46       3.01       ----

> <Gold.Chemscore.Fitness>
10.6993

> <Gold.Chemscore.DG>
-14.1649

> <Gold.Chemscore.ZeroCoef>
-5.4800

> <Gold.Chemscore.Hbond>
3.2089

> <Gold.Chemscore.Metal>
0.0000

> <Gold.Chemscore.Lipo>
64.0260

> <Gold.Chemscore.Internal_Hbond>
0.0000

> <Gold.Chemscore.DEClash>
0.4557

> <Gold.Chemscore.DEInternal>
3.0098

> <Gold.Chemscore.Rot>
3.7202

> <Gold.Chemscore.Internal.Correction>
   9.000000E+99

> <Gold.Chemscore.Hbonds>
donor molecule, donor type, donor heavy atom, donor atom, acceptor molecule, acceptor atom, score
      L1  H    22    43       P1  7957  0.68
      P1  H  6896  6908       L1    16  0.37
      P1  H  6931  6943       L1     3  0.96
      P1  H  6934  6947       L1     3  0.51
      P1  H  8011  8017       L1    26  0.06

> <Gold.Chemscore.Hbond.Weighted>
-10.7176

> <Gold.Chemscore.Metal.Weighted>
-0.0000

> <Gold.Chemscore.Lipo.Weighted>
-7.4910

> <Gold.Chemscore.Internal_Hbond.Weighted>
0.0000

> <Gold.Chemscore.DEClash.Weighted>
0.4557

> <Gold.Chemscore.DEInternal.Weighted>
3.0098

> <Gold.Chemscore.Rot.Weighted>
9.5237

> <Gold.Chemscore.Internal.Correction.Weighted>
   9.000000E+99

> <Gold.Protein.RotatedTorsions>
[ 6907 6896 6895 6894 ] final -176.08 input  -60.11 | X-H torsion
[ 7974 7965 7964 7962 ] final -114.45 input  175.53 | X-H torsion
[ 8008 7997 7996 7995 ] final  -27.61 input   59.86 | X-H torsion
[ 10167 10162 10161 10158 ] final  157.08 input  -65.29 | X-H torsion
[ 10718 10713 10712 10709 ] final  143.29 input   66.30 | X-H torsion
[ 10763 10752 10751 10750 ] final   34.37 input  -60.55 | X-H torsion
[ 11005 11000 10999 10996 ] final    8.42 input  -57.11 | X-H torsion

> <Gold.Protein.ActiveResidues>
 VAL166  LYS551  ARG553  GLY616  TRP617  ASP618  TYR619  PRO620  LYS621  CYS622 
 ASP623  PHE694  ASN695  SER759  ASP760  ASP761  ALA762  ILE779  LEU786  VAL792 
 PHE793  MET794  SER795  GLU796  ALA797  LYS798  CYS799  TRP800  GLU811  SER814 

> <Gold.Protein.RotatedAtoms>
  151.5989  133.3358  159.3042 H   0  0  0  0  0  0  0  0  0  0  0  0  # atno 6907 bound_to 6896
  150.8219  134.7434  159.6791 H   0  0  0  0  0  0  0  0  0  0  0  0  # atno 6908 bound_to 6896
  152.4311  134.5781  159.9991 H   0  0  0  0  0  0  0  0  0  0  0  0  # atno 6909 bound_to 6896
  145.1200  140.8663  143.3819 H   0  0  0  0  0  0  0  0  0  0  0  0  # atno 7974 bound_to 7965
  154.4369  140.1867  156.0960 H   0  0  0  0  0  0  0  0  0  0  0  0  # atno 8008 bound_to 7997
  156.0329  140.3328  155.7133 H   0  0  0  0  0  0  0  0  0  0  0  0  # atno 8009 bound_to 7997
  155.5813  140.0622  157.2773 H   0  0  0  0  0  0  0  0  0  0  0  0  # atno 8010 bound_to 7997
  139.4822  144.4950  151.8253 H   0  0  0  0  0  0  0  0  0  0  0  0  # atno 10167 bound_to 10162
  157.3706  131.0978  151.0831 H   0  0  0  0  0  0  0  0  0  0  0  0  # atno 10718 bound_to 10713
  153.0167  135.6362  154.1659 H   0  0  0  0  0  0  0  0  0  0  0  0  # atno 10763 bound_to 10752
  154.1397  135.2835  155.3165 H   0  0  0  0  0  0  0  0  0  0  0  0  # atno 10764 bound_to 10752
  154.6133  135.5549  153.7558 H   0  0  0  0  0  0  0  0  0  0  0  0  # atno 10765 bound_to 10752
  140.5371  134.0410  155.7892 H   0  0  0  0  0  0  0  0  0  0  0  0  # atno 11005 bound_to 11000
  145.0750  139.3002  143.5812 LP  0  0  0  0  0  0  0  0  0  0  0  0  # atno 17320 bound_to 7965
  146.3521  140.0238  142.8656 LP  0  0  0  0  0  0  0  0  0  0  0  0  # atno 17321 bound_to 7965
  140.4438  144.1950  150.5893 LP  0  0  0  0  0  0  0  0  0  0  0  0  # atno 17342 bound_to 10162
  140.4656  143.2432  151.9160 LP  0  0  0  0  0  0  0  0  0  0  0  0  # atno 17343 bound_to 10162
  157.1937  130.6363  149.5713 LP  0  0  0  0  0  0  0  0  0  0  0  0  # atno 17370 bound_to 10713
  155.9755  130.4714  150.6462 LP  0  0  0  0  0  0  0  0  0  0  0  0  # atno 17371 bound_to 10713
  141.1248  133.9401  157.2657 LP  0  0  0  0  0  0  0  0  0  0  0  0  # atno 17394 bound_to 11000
  139.9523  135.0173  156.9030 LP  0  0  0  0  0  0  0  0  0  0  0  0  # atno 17395 bound_to 11000

$$$$
