AV-unprocessed.smi:1654|AV-procd|sdf|6643|dock9
  -GOLD-   22720 7343D 1   1.00000     0.00000
 Structure written by MMmdl.
 39 40  0  0  0  0  0  0  0  0  2 V2000
  153.7389  136.4018  157.0908 O   0  0  0  0  0  0  0  0  0  0  0  0
  152.9620  137.2718  157.9889 S   0  0  0  0  0  0  0  0  0  0  0  0
  152.1647  136.6306  159.0478 O   0  0  0  0  0  0  0  0  0  0  0  0
  153.7878  138.5581  158.5311 N   0  5  0  0  0  0  0  0  0  0  0  0
  153.1499  139.4526  159.4802 C   0  0  0  0  0  0  0  0  0  0  0  0
  154.1301  140.5734  159.8817 C   0  0  0  0  0  0  0  0  0  0  0  0
  153.4548  141.7826  160.5164 C   0  0  0  0  0  0  0  0  0  0  0  0
  153.5529  142.0261  161.9039 C   0  0  0  0  0  0  0  0  0  0  0  0
  152.8996  143.1496  162.4463 C   0  0  0  0  0  0  0  0  0  0  0  0
  152.1688  143.9840  161.5775 C   0  0  0  0  0  0  0  0  0  0  0  0
  152.0605  143.7605  160.2503 N   0  0  0  0  0  0  0  0  0  0  0  0
  152.6911  142.6814  159.7379 C   0  0  0  0  0  0  0  0  0  0  0  0
  151.8447  138.1312  156.9645 N   0  0  0  0  0  0  0  0  0  0  0  0
  150.8580  139.0363  157.5842 C   0  0  0  0  0  0  0  0  0  0  0  0
  150.9081  140.4205  156.9199 C   0  0  0  0  0  0  0  0  0  0  0  0
  150.0048  140.5830  155.6840 C   0  0  0  0  0  0  0  0  0  0  0  0
  149.8702  139.3500  154.7719 C   0  0  0  0  0  0  0  0  0  0  0  0
  151.1605  138.5368  154.5817 C   0  0  0  0  0  0  0  0  0  0  0  0
  151.4092  137.5062  155.6998 C   0  0  0  0  0  0  0  0  0  0  0  0
  152.2489  139.9028  159.0622 H   0  0  0  0  0  0  0  0  0  0  0  0
  152.8315  138.9210  160.3777 H   0  0  0  0  0  0  0  0  0  0  0  0
  154.8706  140.1840  160.5821 H   0  0  0  0  0  0  0  0  0  0  0  0
  154.6882  140.9085  159.0062 H   0  0  0  0  0  0  0  0  0  0  0  0
  154.1206  141.3646  162.5417 H   0  0  0  0  0  0  0  0  0  0  0  0
  152.9571  143.3662  163.5026 H   0  0  0  0  0  0  0  0  0  0  0  0
  151.6552  144.8539  161.9596 H   0  0  0  0  0  0  0  0  0  0  0  0
  152.5829  142.5306  158.6738 H   0  0  0  0  0  0  0  0  0  0  0  0
  149.8593  138.5998  157.5454 H   0  0  0  0  0  0  0  0  0  0  0  0
  151.0835  139.1552  158.6425 H   0  0  0  0  0  0  0  0  0  0  0  0
  150.6195  141.1771  157.6501 H   0  0  0  0  0  0  0  0  0  0  0  0
  151.9405  140.6563  156.6564 H   0  0  0  0  0  0  0  0  0  0  0  0
  149.0049  140.8738  156.0082 H   0  0  0  0  0  0  0  0  0  0  0  0
  150.3783  141.4244  155.0992 H   0  0  0  0  0  0  0  0  0  0  0  0
  149.0849  138.6950  155.1513 H   0  0  0  0  0  0  0  0  0  0  0  0
  149.5159  139.6892  153.7978 H   0  0  0  0  0  0  0  0  0  0  0  0
  151.0703  137.9849  153.6456 H   0  0  0  0  0  0  0  0  0  0  0  0
  152.0227  139.1932  154.4558 H   0  0  0  0  0  0  0  0  0  0  0  0
  152.1698  136.8066  155.3551 H   0  0  0  0  0  0  0  0  0  0  0  0
  150.5190  136.9034  155.8827 H   0  0  0  0  0  0  0  0  0  0  0  0
  1  2  2  0  0  0  0
  2  3  2  0  0  0  0
  2  4  1  0  0  0  0
  2 13  1  0  0  0  0
  4  5  1  0  0  0  0
  5  6  1  0  0  0  0
  5 20  1  0  0  0  0
  5 21  1  0  0  0  0
  6  7  1  0  0  0  0
  6 22  1  0  0  0  0
  6 23  1  0  0  0  0
  7 12  1  0  0  0  0
  7  8  2  0  0  0  0
  8  9  1  0  0  0  0
  8 24  1  0  0  0  0
  9 10  2  0  0  0  0
  9 25  1  0  0  0  0
 10 11  1  0  0  0  0
 10 26  1  0  0  0  0
 11 12  2  0  0  0  0
 12 27  1  0  0  0  0
 13 19  1  0  0  0  0
 13 14  1  0  0  0  0
 14 15  1  0  0  0  0
 14 28  1  0  0  0  0
 14 29  1  0  0  0  0
 15 16  1  0  0  0  0
 15 30  1  0  0  0  0
 15 31  1  0  0  0  0
 16 17  1  0  0  0  0
 16 32  1  0  0  0  0
 16 33  1  0  0  0  0
 17 18  1  0  0  0  0
 17 34  1  0  0  0  0
 17 35  1  0  0  0  0
 18 19  1  0  0  0  0
 18 36  1  0  0  0  0
 18 37  1  0  0  0  0
 19 38  1  0  0  0  0
 19 39  1  0  0  0  0
M  CHG  1   4  -1
M  END
> <s_m_source_file>
AV-unprocessed.smi

> <i_m_source_file_index>
1654

> <i_lp_mmshare_version>
43012

> <i_f3d_flags>
0

> <s_epik_input>
W0NIMl0xW0NIMl1bQ0gyXVtDSDJdW0NIMl1bQ0gyXU4xUyg9TykoPU8pW05IXVtDSDJdW0NIMl1jMltjSF1bY0hdW2NIXW5bY0hdMg==

> <s_epik_cmdline>
J2VwaWtfcHl0aG9uJywgJy1waCcsICc3LjAnLCAnLXRuJywgJzgnLCAnLW1hJywgJzIwMCcsICctbWV0YWxfYmluZGluZycsICctaW1hZScsICc8aW5maWxlLm1hZT4nLCAnLW9tYWUnLCAnPG91dGZpbGUubWFlPic=

> <r_lp_tautomer_probability>
1

> <r_epik_Ionization_Penalty>
3.13138

> <r_epik_Ionization_Penalty_Charging>
3.10426

> <r_epik_Ionization_Penalty_Neutral>
0.027117

> <r_epik_State_Penalty>
3.10111

> <r_epik_Charging_Adjusted_Penalty>
6.20538

> <i_epik_Tot_Q>
-1

> <i_epik_Tot_abs_Q>
1

> <r_epik_Metal_State_Penalty>
0.464106

> <b_epik_Metal_Only>
1

> <s_lp_Force_Field>
OPLS_2005

> <r_lp_Energy>
12.7892

> <b_lp_Chiralities_Consistent>
1

> <s_lp_Variant>
AV-unprocessed.smi:1654-2

> <Gold.Version>
5.8.1

> <Gold.Id.Protein>
6NUR|6NUR_protein|mol2

> <Gold.PLP.Fitness>
53.2024

> <Gold.PLP.PLP>
-42.2799

> <Gold.PLP.part.hbond>
-3.0000

> <Gold.PLP.part.metal>
0.0000

> <Gold.PLP.part.buried>
-4.5263

> <Gold.PLP.part.nonpolar>
-34.5550

> <Gold.PLP.part.repulsive>
0.0480

> <Gold.PLP.ligand.clash>
0.0000

> <Gold.PLP.ligand.torsion>
1.8320

> <Gold.PLP.Chemscore.Hbond>
3.8320

> <Gold.PLP.Chemscore.CHOScore>
0.0000

> <Gold.PLP.Chemscore.Metal>
0.0000

> <Gold.Chemscore.Hbonds>
donor molecule, donor type, donor heavy atom, donor atom, acceptor molecule, acceptor atom, score
      P1  H  6896  6908       L1     3  0.88
      P1  H  7997  8008       L1     4  1.07
      P1  H 10752 10764       L1     1  0.97

> <Gold.PLP.Chemscore.Internal.Correction>
3.0905

> <Gold.Rescore>
     Score         DG    S(hbond)    S(metal)    S(lipo)     H(rot)  DE(clash)    DE(int)     intcor
     20.85     -22.63       2.34        0.00     107.55       1.27       0.02       1.77       ----

> <Gold.Chemscore.Fitness>
20.8491

> <Gold.Chemscore.DG>
-22.6314

> <Gold.Chemscore.ZeroCoef>
-5.4800

> <Gold.Chemscore.Hbond>
2.3441

> <Gold.Chemscore.Metal>
0.0000

> <Gold.Chemscore.Lipo>
107.5488

> <Gold.Chemscore.Internal_Hbond>
0.0000

> <Gold.Chemscore.DEClash>
0.0158

> <Gold.Chemscore.DEInternal>
1.7665

> <Gold.Chemscore.Rot>
1.2738

> <Gold.Chemscore.Internal.Correction>
   9.000000E+99

> <Gold.Chemscore.Hbonds>
donor molecule, donor type, donor heavy atom, donor atom, acceptor molecule, acceptor atom, score
      P1  H  6896  6908       L1     3  0.87
      P1  H  7997  8008       L1     4  0.16
      P1  H 10752 10764       L1     1  0.86

> <Gold.Chemscore.Hbond.Weighted>
-7.8292

> <Gold.Chemscore.Metal.Weighted>
-0.0000

> <Gold.Chemscore.Lipo.Weighted>
-12.5832

> <Gold.Chemscore.Internal_Hbond.Weighted>
0.0000

> <Gold.Chemscore.DEClash.Weighted>
0.0158

> <Gold.Chemscore.DEInternal.Weighted>
1.7665

> <Gold.Chemscore.Rot.Weighted>
3.2610

> <Gold.Chemscore.Internal.Correction.Weighted>
   9.000000E+99

> <Gold.Protein.RotatedTorsions>
[ 6907 6896 6895 6894 ] final -104.69 input  -60.11 | X-H torsion
[ 7974 7965 7964 7962 ] final   15.28 input  175.53 | X-H torsion
[ 8008 7997 7996 7995 ] final  -98.18 input   59.86 | X-H torsion
[ 10167 10162 10161 10158 ] final    3.36 input  -65.29 | X-H torsion
[ 10718 10713 10712 10709 ] final  143.63 input   66.30 | X-H torsion
[ 10763 10752 10751 10750 ] final   29.58 input  -60.55 | X-H torsion
[ 11005 11000 10999 10996 ] final   63.49 input  -57.11 | X-H torsion

> <Gold.Protein.ActiveResidues>
 VAL166  LYS551  ARG553  GLY616  TRP617  ASP618  TYR619  PRO620  LYS621  CYS622 
 ASP623  PHE694  ASN695  SER759  ASP760  ASP761  ALA762  ILE779  LEU786  VAL792 
 PHE793  MET794  SER795  GLU796  ALA797  LYS798  CYS799  TRP800  GLU811  SER814 

> <Gold.Protein.RotatedAtoms>
  150.7299  134.0240  159.3710 H   0  0  0  0  0  0  0  0  0  0  0  0  # atno 6907 bound_to 6896
  151.8206  135.0651  160.0434 H   0  0  0  0  0  0  0  0  0  0  0  0  # atno 6908 bound_to 6896
  152.3006  133.5616  159.5653 H   0  0  0  0  0  0  0  0  0  0  0  0  # atno 6909 bound_to 6896
  146.2282  139.8917  142.8553 H   0  0  0  0  0  0  0  0  0  0  0  0  # atno 7974 bound_to 7965
  154.7977  140.0457  157.1249 H   0  0  0  0  0  0  0  0  0  0  0  0  # atno 8008 bound_to 7997
  154.9515  140.3066  155.5053 H   0  0  0  0  0  0  0  0  0  0  0  0  # atno 8009 bound_to 7997
  156.2958  140.2287  156.4593 H   0  0  0  0  0  0  0  0  0  0  0  0  # atno 8010 bound_to 7997
  140.6589  143.7354  150.7703 H   0  0  0  0  0  0  0  0  0  0  0  0  # atno 10167 bound_to 10162
  157.3667  131.0973  151.0866 H   0  0  0  0  0  0  0  0  0  0  0  0  # atno 10718 bound_to 10713
  153.0422  135.6485  154.0912 H   0  0  0  0  0  0  0  0  0  0  0  0  # atno 10763 bound_to 10752
  154.0616  135.2887  155.3325 H   0  0  0  0  0  0  0  0  0  0  0  0  # atno 10764 bound_to 10752
  154.6653  135.5376  153.8135 H   0  0  0  0  0  0  0  0  0  0  0  0  # atno 10765 bound_to 10752
  140.0021  134.6426  155.9914 H   0  0  0  0  0  0  0  0  0  0  0  0  # atno 11005 bound_to 11000
  145.2411  141.0009  143.3935 LP  0  0  0  0  0  0  0  0  0  0  0  0  # atno 17320 bound_to 7965
  144.9451  139.4145  143.6430 LP  0  0  0  0  0  0  0  0  0  0  0  0  # atno 17321 bound_to 7965
  140.1019  143.4779  152.2420 LP  0  0  0  0  0  0  0  0  0  0  0  0  # atno 17342 bound_to 10162
  139.5818  144.7514  151.3620 LP  0  0  0  0  0  0  0  0  0  0  0  0  # atno 17343 bound_to 10162
  157.1986  130.6384  149.5730 LP  0  0  0  0  0  0  0  0  0  0  0  0  # atno 17370 bound_to 10713
  155.9747  130.4698  150.6409 LP  0  0  0  0  0  0  0  0  0  0  0  0  # atno 17371 bound_to 10713
  141.1649  133.6537  156.4447 LP  0  0  0  0  0  0  0  0  0  0  0  0  # atno 17394 bound_to 11000
  140.4709  134.6754  157.5128 LP  0  0  0  0  0  0  0  0  0  0  0  0  # atno 17395 bound_to 11000

$$$$
