AV-unprocessed.smi:786|AV-procd|sdf|3722|dock4
  -GOLD-   22720 1143D 1   1.00000     0.00000
 Structure written by MMmdl.
 40 41  0  0  0  0  0  0  0  0  2 V2000
  150.9520  139.3784  154.1708 O   0  0  0  0  0  0  0  0  0  0  0  0
  151.4648  139.2926  155.5462 S   0  0  0  0  0  0  0  0  0  0  0  0
  152.9140  139.3077  155.7977 O   0  0  0  0  0  0  0  0  0  0  0  0
  150.6280  140.5823  156.5764 C   0  0  0  0  0  0  0  0  0  0  0  0
  151.6142  141.5302  157.2886 C   0  0  0  0  0  0  0  0  0  0  0  0
  151.8792  141.0791  158.7345 C   0  0  0  0  0  0  0  0  0  0  0  0
  152.8215  142.0601  159.4514 C   0  0  0  0  0  0  0  0  0  0  0  0
  152.2717  143.3723  159.4224 O   0  0  0  0  0  0  0  0  0  0  0  0
  152.1127  143.8772  158.1013 C   0  0  0  0  0  0  0  0  0  0  0  0
  151.1310  142.9931  157.3152 C   0  0  0  0  0  0  0  0  0  0  0  0
  150.8344  137.8310  156.2170 N   0  0  0  0  0  0  0  0  0  0  0  0
  150.0269  136.9592  155.3632 C   0  0  0  0  0  0  0  0  0  0  0  0
  149.3066  135.8874  156.1965 C   0  0  0  0  0  0  0  0  0  0  0  0
  149.3577  134.5215  155.5399 C   0  0  0  0  0  0  0  0  0  0  0  0
  149.5894  133.3425  156.2810 C   0  0  0  0  0  0  0  0  0  0  0  0
  149.6321  132.1031  155.6091 C   0  0  0  0  0  0  0  0  0  0  0  0
  149.4430  132.0687  154.2119 C   0  0  0  0  0  0  0  0  0  0  0  0
  149.2170  133.2767  153.5209 C   0  0  0  0  0  0  0  0  0  0  0  0
  149.1832  134.4442  154.2005 N   0  3  0  0  0  0  0  0  0  0  0  0
  149.9630  141.1530  155.9277 H   0  0  0  0  0  0  0  0  0  0  0  0
  149.9920  140.0625  157.2932 H   0  0  0  0  0  0  0  0  0  0  0  0
  152.5667  141.4876  156.7583 H   0  0  0  0  0  0  0  0  0  0  0  0
  150.9378  141.0173  159.2820 H   0  0  0  0  0  0  0  0  0  0  0  0
  152.3129  140.0787  158.7454 H   0  0  0  0  0  0  0  0  0  0  0  0
  152.9559  141.7582  160.4902 H   0  0  0  0  0  0  0  0  0  0  0  0
  153.8100  142.0584  158.9894 H   0  0  0  0  0  0  0  0  0  0  0  0
  151.7336  144.8977  158.1590 H   0  0  0  0  0  0  0  0  0  0  0  0
  153.0806  143.9253  157.5999 H   0  0  0  0  0  0  0  0  0  0  0  0
  151.0135  143.3898  156.3081 H   0  0  0  0  0  0  0  0  0  0  0  0
  150.1471  143.0486  157.7826 H   0  0  0  0  0  0  0  0  0  0  0  0
  150.3586  138.0165  157.0999 H   0  0  0  0  0  0  0  0  0  0  0  0
  149.2968  137.5728  154.8348 H   0  0  0  0  0  0  0  0  0  0  0  0
  150.6649  136.5020  154.6056 H   0  0  0  0  0  0  0  0  0  0  0  0
  149.7456  135.8130  157.1913 H   0  0  0  0  0  0  0  0  0  0  0  0
  148.2633  136.1695  156.3453 H   0  0  0  0  0  0  0  0  0  0  0  0
  149.7347  133.3857  157.3510 H   0  0  0  0  0  0  0  0  0  0  0  0
  149.8084  131.1904  156.1593 H   0  0  0  0  0  0  0  0  0  0  0  0
  149.4715  131.1296  153.6783 H   0  0  0  0  0  0  0  0  0  0  0  0
  149.0637  133.3437  152.4538 H   0  0  0  0  0  0  0  0  0  0  0  0
  149.0185  135.3061  153.6799 H   0  0  0  0  0  0  0  0  0  0  0  0
  1  2  2  0  0  0  0
  2  3  2  0  0  0  0
  2  4  1  0  0  0  0
  2 11  1  0  0  0  0
  4  5  1  0  0  0  0
  4 20  1  0  0  0  0
  4 21  1  0  0  0  0
  5 10  1  0  0  0  0
  5  6  1  0  0  0  0
  5 22  1  0  0  0  0
  6  7  1  0  0  0  0
  6 23  1  0  0  0  0
  6 24  1  0  0  0  0
  7  8  1  0  0  0  0
  7 25  1  0  0  0  0
  7 26  1  0  0  0  0
  8  9  1  0  0  0  0
  9 10  1  0  0  0  0
  9 27  1  0  0  0  0
  9 28  1  0  0  0  0
 10 29  1  0  0  0  0
 10 30  1  0  0  0  0
 11 12  1  0  0  0  0
 11 31  1  0  0  0  0
 12 13  1  0  0  0  0
 12 32  1  0  0  0  0
 12 33  1  0  0  0  0
 13 14  1  0  0  0  0
 13 34  1  0  0  0  0
 13 35  1  0  0  0  0
 14 19  1  0  0  0  0
 14 15  2  0  0  0  0
 15 16  1  0  0  0  0
 15 36  1  0  0  0  0
 16 17  2  0  0  0  0
 16 37  1  0  0  0  0
 17 18  1  0  0  0  0
 17 38  1  0  0  0  0
 18 19  2  0  0  0  0
 18 39  1  0  0  0  0
 19 40  1  0  0  0  0
M  CHG  1  19   1
M  END
> <s_m_source_file>
AV-unprocessed.smi

> <i_m_source_file_index>
786

> <i_lp_mmshare_version>
43012

> <i_f3d_flags>
0

> <s_epik_input>
W0NIMl0xW0NIMl1PW0NIMl1bQ0gyXVtDSF0xW0NIMl1TKD1PKSg9TylbTkhdW0NIMl1bQ0gyXWMyW2NIXVtjSF1bY0hdW2NIXW4y

> <s_epik_cmdline>
J2VwaWtfcHl0aG9uJywgJy1waCcsICc3LjAnLCAnLXRuJywgJzgnLCAnLW1hJywgJzIwMCcsICctbWV0YWxfYmluZGluZycsICctaW1hZScsICc8aW5maWxlLm1hZT4nLCAnLW9tYWUnLCAnPG91dGZpbGUubWFlPic=

> <r_epik_Ionization_Penalty>
1.99786

> <r_epik_Ionization_Penalty_Charging>
1.99784

> <r_epik_Ionization_Penalty_Neutral>
1.9654e-05

> <r_epik_State_Penalty>
2.12638

> <r_epik_Charging_Adjusted_Penalty>
4.12422

> <i_epik_Tot_Q>
1

> <i_epik_Tot_abs_Q>
1

> <r_epik_Metal_State_Penalty>
2.17464

> <b_epik_Metal_Only>
0

> <s_lp_Force_Field>
OPLS_2005

> <r_lp_Energy>
11.1046

> <b_lp_Chiralities_Consistent>
1

> <s_lp_Variant>
AV-unprocessed.smi:786-2

> <Gold.Version>
5.8.1

> <Gold.Id.Protein>
6NUR|6NUR_protein|mol2

> <Gold.PLP.Fitness>
43.7102

> <Gold.PLP.PLP>
-34.7969

> <Gold.PLP.part.hbond>
-3.0000

> <Gold.PLP.part.metal>
0.0000

> <Gold.PLP.part.buried>
-5.1022

> <Gold.PLP.part.nonpolar>
-26.7834

> <Gold.PLP.part.repulsive>
0.1813

> <Gold.PLP.ligand.clash>
0.0000

> <Gold.PLP.ligand.torsion>
1.2144

> <Gold.PLP.Chemscore.Hbond>
3.6960

> <Gold.PLP.Chemscore.CHOScore>
0.0000

> <Gold.PLP.Chemscore.Metal>
0.0000

> <Gold.Chemscore.Hbonds>
donor molecule, donor type, donor heavy atom, donor atom, acceptor molecule, acceptor atom, score
      L1  H    19    40       P1  7948  1.86
      P1  H  7989  7998       L1     1  1.00
      P1  H  7997  8008       L1     3  1.00

> <Gold.PLP.Chemscore.Internal.Correction>
0.2541

> <Gold.Rescore>
     Score         DG    S(hbond)    S(metal)    S(lipo)     H(rot)  DE(clash)    DE(int)     intcor
     17.73     -18.98       2.68        0.00      81.47       1.94       0.01       1.25       ----

> <Gold.Chemscore.Fitness>
17.7253

> <Gold.Chemscore.DG>
-18.9808

> <Gold.Chemscore.ZeroCoef>
-5.4800

> <Gold.Chemscore.Hbond>
2.6773

> <Gold.Chemscore.Metal>
0.0000

> <Gold.Chemscore.Lipo>
81.4683

> <Gold.Chemscore.Internal_Hbond>
0.0000

> <Gold.Chemscore.DEClash>
0.0069

> <Gold.Chemscore.DEInternal>
1.2486

> <Gold.Chemscore.Rot>
1.9426

> <Gold.Chemscore.Internal.Correction>
   9.000000E+99

> <Gold.Chemscore.Hbonds>
donor molecule, donor type, donor heavy atom, donor atom, acceptor molecule, acceptor atom, score
      L1  H    19    40       P1  7948  0.51
      P1  H  7989  7998       L1     1  0.55
      P1  H  7997  8008       L1     3  1.00

> <Gold.Chemscore.Hbond.Weighted>
-8.9421

> <Gold.Chemscore.Metal.Weighted>
-0.0000

> <Gold.Chemscore.Lipo.Weighted>
-9.5318

> <Gold.Chemscore.Internal_Hbond.Weighted>
0.0000

> <Gold.Chemscore.DEClash.Weighted>
0.0069

> <Gold.Chemscore.DEInternal.Weighted>
1.2486

> <Gold.Chemscore.Rot.Weighted>
4.9731

> <Gold.Chemscore.Internal.Correction.Weighted>
   9.000000E+99

> <Gold.Protein.RotatedTorsions>
[ 6907 6896 6895 6894 ] final  148.85 input  -60.11 | X-H torsion
[ 7974 7965 7964 7962 ] final  -48.26 input  175.53 | X-H torsion
[ 8008 7997 7996 7995 ] final  -41.83 input   59.86 | X-H torsion
[ 10167 10162 10161 10158 ] final  -44.91 input  -65.29 | X-H torsion
[ 10718 10713 10712 10709 ] final  -11.78 input   66.30 | X-H torsion
[ 10763 10752 10751 10750 ] final   56.11 input  -60.55 | X-H torsion
[ 11005 11000 10999 10996 ] final  129.85 input  -57.11 | X-H torsion

> <Gold.Protein.ActiveResidues>
 VAL166  LYS551  ARG553  GLY616  TRP617  ASP618  TYR619  PRO620  LYS621  CYS622 
 ASP623  PHE694  ASN695  SER759  ASP760  ASP761  ALA762  ILE779  LEU786  VAL792 
 PHE793  MET794  SER795  GLU796  ALA797  LYS798  CYS799  TRP800  GLU811  SER814 

> <Gold.Protein.RotatedAtoms>
  152.1360  133.4435  159.4743 H   0  0  0  0  0  0  0  0  0  0  0  0  # atno 6907 bound_to 6896
  150.6882  134.2364  159.4464 H   0  0  0  0  0  0  0  0  0  0  0  0  # atno 6908 bound_to 6896
  152.0251  134.9800  160.0622 H   0  0  0  0  0  0  0  0  0  0  0  0  # atno 6909 bound_to 6896
  145.9530  140.7553  142.9495 H   0  0  0  0  0  0  0  0  0  0  0  0  # atno 7974 bound_to 7965
  154.4002  140.1489  156.3255 H   0  0  0  0  0  0  0  0  0  0  0  0  # atno 8008 bound_to 7997
  155.8491  140.3458  155.5660 H   0  0  0  0  0  0  0  0  0  0  0  0  # atno 8009 bound_to 7997
  155.8004  140.0869  157.1951 H   0  0  0  0  0  0  0  0  0  0  0  0  # atno 8010 bound_to 7997
  140.6879  143.2906  151.3563 H   0  0  0  0  0  0  0  0  0  0  0  0  # atno 10167 bound_to 10162
  156.6541  130.4963  149.6052 H   0  0  0  0  0  0  0  0  0  0  0  0  # atno 10718 bound_to 10713
  152.9827  135.5687  154.5176 H   0  0  0  0  0  0  0  0  0  0  0  0  # atno 10763 bound_to 10752
  154.4670  135.2783  155.1673 H   0  0  0  0  0  0  0  0  0  0  0  0  # atno 10764 bound_to 10752
  154.3237  135.6263  153.5573 H   0  0  0  0  0  0  0  0  0  0  0  0  # atno 10765 bound_to 10752
  139.9639  134.9595  156.9208 H   0  0  0  0  0  0  0  0  0  0  0  0  # atno 11005 bound_to 11000
  144.6799  140.2466  143.7337 LP  0  0  0  0  0  0  0  0  0  0  0  0  # atno 17320 bound_to 7965
  145.8144  139.2017  143.1974 LP  0  0  0  0  0  0  0  0  0  0  0  0  # atno 17321 bound_to 7965
  139.6253  144.0826  152.2428 LP  0  0  0  0  0  0  0  0  0  0  0  0  # atno 17342 bound_to 10162
  140.0283  144.6100  150.7509 LP  0  0  0  0  0  0  0  0  0  0  0  0  # atno 17343 bound_to 10162
  156.2061  130.6650  151.1220 LP  0  0  0  0  0  0  0  0  0  0  0  0  # atno 17370 bound_to 10713
  157.7131  131.0724  150.6427 LP  0  0  0  0  0  0  0  0  0  0  0  0  # atno 17371 bound_to 10713
  140.5440  134.0692  155.7349 LP  0  0  0  0  0  0  0  0  0  0  0  0  # atno 17394 bound_to 11000
  141.1317  133.9290  157.2520 LP  0  0  0  0  0  0  0  0  0  0  0  0  # atno 17395 bound_to 11000

$$$$
