AV-unprocessed.smi:1875|AV-procd|sdf|7619|dock10
  -GOLD-   22720 9343D 1   1.00000     0.00000
 Structure written by MMmdl.
 48 50  0  0  0  0  0  0  0  0  2 V2000
  156.9255  135.0681  151.9111 C   0  0  0  0  0  0  0  0  0  0  0  0
  157.0527  136.3275  152.7428 C   0  0  0  0  0  0  0  0  0  0  0  0
  158.2782  136.6445  153.1725 N   0  0  0  0  0  0  0  0  0  0  0  0
  158.3924  137.7637  153.9206 C   0  0  0  0  0  0  0  0  0  0  0  0
  157.2752  138.5626  154.2374 C   0  0  0  0  0  0  0  0  0  0  0  0
  156.0344  138.1262  153.7275 C   0  0  0  0  0  0  0  0  0  0  0  0
  154.7573  138.8894  154.0089 C   0  0  0  0  0  0  0  0  0  0  0  0
  153.8670  138.1500  154.8968 N   0  0  0  0  0  0  0  0  0  0  0  0
  152.5089  138.0319  154.3769 C   0  0  0  0  0  0  0  0  0  0  0  0
  151.5894  139.1231  154.9578 C   0  0  1  0  0  0  0  0  0  0  0  0
  150.2867  138.5912  155.0812 O   0  0  0  0  0  0  0  0  0  0  0  0
  152.0124  139.6112  156.3576 C   0  0  0  0  0  0  0  0  0  0  0  0
  151.4381  140.9181  156.7082 N   0  0  0  0  0  0  0  0  0  0  0  0
  150.5304  141.6714  156.0297 C   0  0  0  0  0  0  0  0  0  0  0  0
  150.3033  142.7982  156.7590 N   0  3  0  0  0  0  0  0  0  0  0  0
  151.0765  142.7646  157.9212 C   0  0  0  0  0  0  0  0  0  0  0  0
  151.1885  143.6758  158.9647 C   0  0  0  0  0  0  0  0  0  0  0  0
  152.0782  143.3502  160.0129 C   0  0  0  0  0  0  0  0  0  0  0  0
  152.2273  144.3268  161.1673 C   0  0  0  0  0  0  0  0  0  0  0  0
  152.8204  142.1411  159.9908 C   0  0  0  0  0  0  0  0  0  0  0  0
  153.7810  141.8047  161.1188 C   0  0  0  0  0  0  0  0  0  0  0  0
  152.6874  141.2243  158.9235 C   0  0  0  0  0  0  0  0  0  0  0  0
  151.8072  141.5604  157.8968 C   0  0  0  0  0  0  0  0  0  0  0  0
  155.9254  137.0048  152.9810 N   0  0  0  0  0  0  0  0  0  0  0  0
  157.8598  134.8406  151.3964 H   0  0  0  0  0  0  0  0  0  0  0  0
  156.1442  135.1766  151.1578 H   0  0  0  0  0  0  0  0  0  0  0  0
  156.6710  134.2218  152.5496 H   0  0  0  0  0  0  0  0  0  0  0  0
  159.3807  138.0224  154.2704 H   0  0  0  0  0  0  0  0  0  0  0  0
  157.3666  139.4561  154.8373 H   0  0  0  0  0  0  0  0  0  0  0  0
  155.0185  139.8510  154.4526 H   0  0  0  0  0  0  0  0  0  0  0  0
  154.2542  139.1067  153.0655 H   0  0  0  0  0  0  0  0  0  0  0  0
  153.8408  138.6114  155.8002 H   0  0  0  0  0  0  0  0  0  0  0  0
  152.5045  138.0751  153.2868 H   0  0  0  0  0  0  0  0  0  0  0  0
  152.1273  137.0479  154.6462 H   0  0  0  0  0  0  0  0  0  0  0  0
  151.5526  139.9802  154.2835 H   0  0  0  0  0  0  0  0  0  0  0  0
  150.2221  137.8240  154.5333 H   0  0  0  0  0  0  0  0  0  0  0  0
  151.6670  138.9051  157.1144 H   0  0  0  0  0  0  0  0  0  0  0  0
  153.0974  139.6498  156.4538 H   0  0  0  0  0  0  0  0  0  0  0  0
  150.0723  141.4193  155.0840 H   0  0  0  0  0  0  0  0  0  0  0  0
  150.6221  144.5956  158.9730 H   0  0  0  0  0  0  0  0  0  0  0  0
  151.9979  143.8397  162.1155 H   0  0  0  0  0  0  0  0  0  0  0  0
  151.5536  145.1775  161.0594 H   0  0  0  0  0  0  0  0  0  0  0  0
  153.2464  144.7119  161.2124 H   0  0  0  0  0  0  0  0  0  0  0  0
  154.3079  140.8692  160.9287 H   0  0  0  0  0  0  0  0  0  0  0  0
  153.2430  141.7001  162.0612 H   0  0  0  0  0  0  0  0  0  0  0  0
  154.5295  142.5891  161.2318 H   0  0  0  0  0  0  0  0  0  0  0  0
  153.2558  140.3063  158.9092 H   0  0  0  0  0  0  0  0  0  0  0  0
  149.6672  143.5348  156.4813 H   0  0  0  0  0  0  0  0  0  0  0  0
  1  2  1  0  0  0  0
  1 25  1  0  0  0  0
  1 26  1  0  0  0  0
  1 27  1  0  0  0  0
  2 24  1  0  0  0  0
  2  3  2  0  0  0  0
  3  4  1  0  0  0  0
  4  5  2  0  0  0  0
  4 28  1  0  0  0  0
  5  6  1  0  0  0  0
  5 29  1  0  0  0  0
  6  7  1  0  0  0  0
  6 24  2  0  0  0  0
  7  8  1  0  0  0  0
  7 30  1  0  0  0  0
  7 31  1  0  0  0  0
  8  9  1  0  0  0  0
  8 32  1  0  0  0  0
  9 10  1  0  0  0  0
  9 33  1  0  0  0  0
  9 34  1  0  0  0  0
 10 11  1  0  0  0  0
 10 12  1  0  0  0  0
 10 35  1  0  0  0  0
 11 36  1  0  0  0  0
 12 13  1  0  0  0  0
 12 37  1  0  0  0  0
 12 38  1  0  0  0  0
 13 23  1  0  0  0  0
 13 14  1  0  0  0  0
 14 15  2  0  0  0  0
 14 39  1  0  0  0  0
 15 16  1  0  0  0  0
 15 48  1  0  0  0  0
 16 23  2  0  0  0  0
 16 17  1  0  0  0  0
 17 18  2  0  0  0  0
 17 40  1  0  0  0  0
 18 19  1  0  0  0  0
 18 20  1  0  0  0  0
 19 41  1  0  0  0  0
 19 42  1  0  0  0  0
 19 43  1  0  0  0  0
 20 21  1  0  0  0  0
 20 22  2  0  0  0  0
 21 44  1  0  0  0  0
 21 45  1  0  0  0  0
 21 46  1  0  0  0  0
 22 23  1  0  0  0  0
 22 47  1  0  0  0  0
M  CHG  1  15   1
M  END
> <s_m_source_file>
AV-unprocessed.smi

> <i_m_source_file_index>
1875

> <i_lp_mmshare_version>
43012

> <i_f3d_flags>
0

> <s_epik_input>
W0NIM11jMW5bY0hdW2NIXWMobjEpW0NIMl1bTkhdW0NIMl1bQ0BIXShbT0hdKVtDSDJdbihbY0hdbjIpYyhjMjMpW2NIXWMoW0NIM10pYyhbY0hdMylbQ0gzXQ==

> <s_epik_cmdline>
J2VwaWtfcHl0aG9uJywgJy1waCcsICc3LjAnLCAnLXRuJywgJzgnLCAnLW1hJywgJzIwMCcsICctbWV0YWxfYmluZGluZycsICctaW1hZScsICc8aW5maWxlLm1hZT4nLCAnLW9tYWUnLCAnPG91dGZpbGUubWFlPic=

> <r_epik_Ionization_Penalty>
2.02862

> <r_epik_Ionization_Penalty_Charging>
1.0004

> <r_epik_Ionization_Penalty_Neutral>
1.02823

> <r_epik_State_Penalty>
2.23022

> <r_epik_Charging_Adjusted_Penalty>
3.23062

> <i_epik_Tot_Q>
1

> <i_epik_Tot_abs_Q>
1

> <r_epik_Metal_State_Penalty>
2.31249

> <b_epik_Metal_Only>
0

> <s_epik_Chemistry_Notes>
This compound contains an electron-poor aromatic ring that is susceptible to covalent hydrolysis at low pH, typically resulting in measured values for nitrogen ring protonation that are around two units higher than predicted values.

> <s_lp_Force_Field>
OPLS_2005

> <r_lp_Energy>
17.8623

> <b_lp_Chiralities_Consistent>
1

> <s_lp_Variant>
AV-unprocessed.smi:1875-8

> <Gold.Version>
5.8.1

> <Gold.Id.Protein>
6NUR|6NUR_protein|mol2

> <Gold.PLP.Fitness>
59.5152

> <Gold.PLP.PLP>
-53.1009

> <Gold.PLP.part.hbond>
-3.7400

> <Gold.PLP.part.metal>
0.0000

> <Gold.PLP.part.buried>
-4.1087

> <Gold.PLP.part.nonpolar>
-46.2832

> <Gold.PLP.part.repulsive>
0.1909

> <Gold.PLP.ligand.clash>
0.0000

> <Gold.PLP.ligand.torsion>
1.3071

> <Gold.PLP.Chemscore.Hbond>
2.9833

> <Gold.PLP.Chemscore.CHOScore>
0.0000

> <Gold.PLP.Chemscore.Metal>
0.0000

> <Gold.Chemscore.Hbonds>
donor molecule, donor type, donor heavy atom, donor atom, acceptor molecule, acceptor atom, score
      L1  H    15    48       P1  8028  2.00
      P1  H 10752 10763       L1    24  0.80

> <Gold.PLP.Chemscore.Internal.Correction>
0.0785

> <Gold.Rescore>
     Score         DG    S(hbond)    S(metal)    S(lipo)     H(rot)  DE(clash)    DE(int)     intcor
     19.36     -22.37       1.81        0.00     153.95       2.80       1.81       1.20       ----

> <Gold.Chemscore.Fitness>
19.3593

> <Gold.Chemscore.DG>
-22.3703

> <Gold.Chemscore.ZeroCoef>
-5.4800

> <Gold.Chemscore.Hbond>
1.8126

> <Gold.Chemscore.Metal>
0.0000

> <Gold.Chemscore.Lipo>
153.9502

> <Gold.Chemscore.Internal_Hbond>
0.0000

> <Gold.Chemscore.DEClash>
1.8136

> <Gold.Chemscore.DEInternal>
1.1973

> <Gold.Chemscore.Rot>
2.8032

> <Gold.Chemscore.Internal.Correction>
   9.000000E+99

> <Gold.Chemscore.Hbonds>
donor molecule, donor type, donor heavy atom, donor atom, acceptor molecule, acceptor atom, score
      L1  H    15    48       P1  8028  0.99
      P1  H 10752 10763       L1    24  0.15

> <Gold.Chemscore.Hbond.Weighted>
-6.0542

> <Gold.Chemscore.Metal.Weighted>
-0.0000

> <Gold.Chemscore.Lipo.Weighted>
-18.0122

> <Gold.Chemscore.Internal_Hbond.Weighted>
0.0000

> <Gold.Chemscore.DEClash.Weighted>
1.8136

> <Gold.Chemscore.DEInternal.Weighted>
1.1973

> <Gold.Chemscore.Rot.Weighted>
7.1761

> <Gold.Chemscore.Internal.Correction.Weighted>
   9.000000E+99

> <Gold.Protein.RotatedTorsions>
[ 6907 6896 6895 6894 ] final   44.26 input  -60.11 | X-H torsion
[ 7974 7965 7964 7962 ] final   78.96 input  175.53 | X-H torsion
[ 8008 7997 7996 7995 ] final -147.66 input   59.86 | X-H torsion
[ 10167 10162 10161 10158 ] final   -8.34 input  -65.29 | X-H torsion
[ 10718 10713 10712 10709 ] final  -25.49 input   66.30 | X-H torsion
[ 10763 10752 10751 10750 ] final -105.49 input  -60.55 | X-H torsion
[ 11005 11000 10999 10996 ] final  -80.68 input  -57.11 | X-H torsion

> <Gold.Protein.ActiveResidues>
 VAL166  LYS551  ARG553  GLY616  TRP617  ASP618  TYR619  PRO620  LYS621  CYS622 
 ASP623  PHE694  ASN695  SER759  ASP760  ASP761  ALA762  ILE779  LEU786  VAL792 
 PHE793  MET794  SER795  GLU796  ALA797  LYS798  CYS799  TRP800  GLU811  SER814 

> <Gold.Protein.RotatedAtoms>
  152.2303  134.8328  160.0474 H   0  0  0  0  0  0  0  0  0  0  0  0  # atno 6907 bound_to 6896
  151.9079  133.3549  159.3861 H   0  0  0  0  0  0  0  0  0  0  0  0  # atno 6908 bound_to 6896
  150.7024  134.4687  159.5459 H   0  0  0  0  0  0  0  0  0  0  0  0  # atno 6909 bound_to 6896
  145.6704  139.2495  143.1871 H   0  0  0  0  0  0  0  0  0  0  0  0  # atno 7974 bound_to 7965
  155.5791  140.0641  157.2787 H   0  0  0  0  0  0  0  0  0  0  0  0  # atno 8008 bound_to 7997
  154.4338  140.1855  156.1004 H   0  0  0  0  0  0  0  0  0  0  0  0  # atno 8009 bound_to 7997
  156.0318  140.3305  155.7152 H   0  0  0  0  0  0  0  0  0  0  0  0  # atno 8010 bound_to 7997
  140.7056  143.5980  150.8826 H   0  0  0  0  0  0  0  0  0  0  0  0  # atno 10167 bound_to 10162
  156.4637  130.4509  149.6913 H   0  0  0  0  0  0  0  0  0  0  0  0  # atno 10718 bound_to 10713
  154.7950  135.4747  154.0140 H   0  0  0  0  0  0  0  0  0  0  0  0  # atno 10763 bound_to 10752
  153.1689  135.6821  153.8642 H   0  0  0  0  0  0  0  0  0  0  0  0  # atno 10764 bound_to 10752
  153.8231  135.3201  155.3390 H   0  0  0  0  0  0  0  0  0  0  0  0  # atno 10765 bound_to 10752
  141.1667  133.7161  156.8309 H   0  0  0  0  0  0  0  0  0  0  0  0  # atno 11005 bound_to 11000
  146.1050  140.7498  142.9531 LP  0  0  0  0  0  0  0  0  0  0  0  0  # atno 17320 bound_to 7965
  144.7059  140.3847  143.7119 LP  0  0  0  0  0  0  0  0  0  0  0  0  # atno 17321 bound_to 7965
  139.9705  143.6062  152.2975 LP  0  0  0  0  0  0  0  0  0  0  0  0  # atno 17342 bound_to 10162
  139.6647  144.7662  151.1895 LP  0  0  0  0  0  0  0  0  0  0  0  0  # atno 17343 bound_to 10162
  156.3690  130.7521  151.2502 LP  0  0  0  0  0  0  0  0  0  0  0  0  # atno 17370 bound_to 10713
  157.7496  131.0328  150.4245 LP  0  0  0  0  0  0  0  0  0  0  0  0  # atno 17371 bound_to 10713
  140.2052  134.8868  157.3213 LP  0  0  0  0  0  0  0  0  0  0  0  0  # atno 17394 bound_to 11000
  140.2145  134.4098  155.7596 LP  0  0  0  0  0  0  0  0  0  0  0  0  # atno 17395 bound_to 11000

$$$$
