AV-unprocessed.smi:1126|AV-procd|sdf|4838|dock7
  -GOLD-   22720 3403D 1   1.00000     0.00000
 Structure written by MMmdl.
 48 49  0  0  0  0  0  0  0  0  2 V2000
  145.0164  135.6256  151.3326 C   0  0  0  0  0  0  0  0  0  0  0  0
  146.0653  136.5642  151.4954 O   0  0  0  0  0  0  0  0  0  0  0  0
  145.7569  137.5659  152.4509 C   0  0  0  0  0  0  0  0  0  0  0  0
  146.6799  138.7721  152.2194 C   0  0  0  0  0  0  0  0  0  0  0  0
  146.5958  139.7680  153.3179 N   0  3  2  0  0  0  0  0  0  0  0  0
  147.4793  140.9389  153.0848 C   0  0  0  0  0  0  0  0  0  0  0  0
  147.2705  142.0194  154.1615 C   0  0  0  0  0  0  0  0  0  0  0  0
  147.4764  141.4715  155.5862 C   0  0  2  0  0  0  0  0  0  0  0  0
  148.9707  141.2322  155.9046 C   0  0  0  0  0  0  0  0  0  0  0  0
  149.6494  142.4501  156.3352 N   0  0  0  0  0  0  0  0  0  0  0  0
  150.8278  142.5069  156.9762 C   0  0  0  0  0  0  0  0  0  0  0  0
  151.4671  141.5104  157.3127 O   0  0  0  0  0  0  0  0  0  0  0  0
  151.3630  143.9037  157.2965 C   0  0  0  0  0  0  0  0  0  0  0  0
  151.6808  144.0360  158.7075 N   0  0  0  0  0  0  0  0  0  0  0  0
  152.2347  143.0974  159.5525 C   0  0  0  0  0  0  0  0  0  0  0  0
  152.3599  143.6754  160.7840 C   0  0  0  0  0  0  0  0  0  0  0  0
  152.9088  143.0803  162.0486 C   0  0  0  0  0  0  0  0  0  0  0  0
  151.8454  144.9885  160.5871 C   0  0  0  0  0  0  0  0  0  0  0  0
  151.4405  145.2020  159.3457 N   0  0  0  0  0  0  0  0  0  0  0  0
  146.5787  140.2297  155.7688 C   0  0  0  0  0  0  0  0  0  0  0  0
  146.8090  139.1803  154.6669 C   0  0  0  0  0  0  0  0  0  0  0  0
  145.3032  134.8811  150.5897 H   0  0  0  0  0  0  0  0  0  0  0  0
  144.1030  136.1112  150.9867 H   0  0  0  0  0  0  0  0  0  0  0  0
  144.8044  135.1045  152.2669 H   0  0  0  0  0  0  0  0  0  0  0  0
  144.7057  137.8476  152.3901 H   0  0  0  0  0  0  0  0  0  0  0  0
  145.9222  137.1715  153.4547 H   0  0  0  0  0  0  0  0  0  0  0  0
  147.7138  138.4460  152.0975 H   0  0  0  0  0  0  0  0  0  0  0  0
  146.3926  139.2379  151.2755 H   0  0  0  0  0  0  0  0  0  0  0  0
  148.5203  140.6145  153.0602 H   0  0  0  0  0  0  0  0  0  0  0  0
  147.2631  141.3706  152.1067 H   0  0  0  0  0  0  0  0  0  0  0  0
  147.9374  142.8629  153.9800 H   0  0  0  0  0  0  0  0  0  0  0  0
  146.2572  142.4141  154.0736 H   0  0  0  0  0  0  0  0  0  0  0  0
  147.1265  142.2359  156.2817 H   0  0  0  0  0  0  0  0  0  0  0  0
  149.0979  140.4371  156.6400 H   0  0  0  0  0  0  0  0  0  0  0  0
  149.4810  140.8868  155.0050 H   0  0  0  0  0  0  0  0  0  0  0  0
  149.2016  143.3255  156.1028 H   0  0  0  0  0  0  0  0  0  0  0  0
  152.2536  144.1067  156.6995 H   0  0  0  0  0  0  0  0  0  0  0  0
  150.6211  144.6590  157.0339 H   0  0  0  0  0  0  0  0  0  0  0  0
  152.4936  142.1065  159.2086 H   0  0  0  0  0  0  0  0  0  0  0  0
  152.4976  143.5637  162.9349 H   0  0  0  0  0  0  0  0  0  0  0  0
  153.9929  143.1800  162.1011 H   0  0  0  0  0  0  0  0  0  0  0  0
  152.6790  142.0175  162.1277 H   0  0  0  0  0  0  0  0  0  0  0  0
  151.7562  145.7894  161.3065 H   0  0  0  0  0  0  0  0  0  0  0  0
  146.7235  139.7813  156.7511 H   0  0  0  0  0  0  0  0  0  0  0  0
  145.5337  140.5415  155.7416 H   0  0  0  0  0  0  0  0  0  0  0  0
  146.1234  138.3496  154.8300 H   0  0  0  0  0  0  0  0  0  0  0  0
  147.8167  138.7687  154.7343 H   0  0  0  0  0  0  0  0  0  0  0  0
  145.6509  140.1254  153.3000 H   0  0  0  0  0  0  0  0  0  0  0  0
  1  2  1  0  0  0  0
  1 22  1  0  0  0  0
  1 23  1  0  0  0  0
  1 24  1  0  0  0  0
  2  3  1  0  0  0  0
  3  4  1  0  0  0  0
  3 25  1  0  0  0  0
  3 26  1  0  0  0  0
  4  5  1  0  0  0  0
  4 27  1  0  0  0  0
  4 28  1  0  0  0  0
  5 21  1  0  0  0  0
  5  6  1  0  0  0  0
  5 48  1  0  0  0  0
  6  7  1  0  0  0  0
  6 29  1  0  0  0  0
  6 30  1  0  0  0  0
  7  8  1  0  0  0  0
  7 31  1  0  0  0  0
  7 32  1  0  0  0  0
  8  9  1  0  0  0  0
  8 20  1  0  0  0  0
  8 33  1  0  0  0  0
  9 10  1  0  0  0  0
  9 34  1  0  0  0  0
  9 35  1  0  0  0  0
 10 11  1  0  0  0  0
 10 36  1  0  0  0  0
 11 12  2  0  0  0  0
 11 13  1  0  0  0  0
 13 14  1  0  0  0  0
 13 37  1  0  0  0  0
 13 38  1  0  0  0  0
 14 19  1  0  0  0  0
 14 15  1  0  0  0  0
 15 16  2  0  0  0  0
 15 39  1  0  0  0  0
 16 17  1  0  0  0  0
 16 18  1  0  0  0  0
 17 40  1  0  0  0  0
 17 41  1  0  0  0  0
 17 42  1  0  0  0  0
 18 19  2  0  0  0  0
 18 43  1  0  0  0  0
 20 21  1  0  0  0  0
 20 44  1  0  0  0  0
 20 45  1  0  0  0  0
 21 46  1  0  0  0  0
 21 47  1  0  0  0  0
M  CHG  1   5   1
M  END
> <s_m_source_file>
AV-unprocessed.smi

> <i_m_source_file_index>
1126

> <i_lp_mmshare_version>
43012

> <i_f3d_flags>
0

> <s_epik_input>
W0NIM11PW0NIMl1bQ0gyXU4xW0NIMl1bQ0gyXVtDSF0oW0NIMl1bQ0gyXTEpW0NIMl1bTkhdQyg9TylbQ0gyXW4yW2NIXWMoW0NIM10pW2NIXW4y

> <s_epik_cmdline>
J2VwaWtfcHl0aG9uJywgJy1waCcsICc3LjAnLCAnLXRuJywgJzgnLCAnLW1hJywgJzIwMCcsICctbWV0YWxfYmluZGluZycsICctaW1hZScsICc8aW5maWxlLm1hZT4nLCAnLW9tYWUnLCAnPG91dGZpbGUubWFlPic=

> <r_lp_tautomer_probability>
1

> <r_epik_Ionization_Penalty>
0.00992859

> <r_epik_Ionization_Penalty_Charging>
0.00990284

> <r_epik_Ionization_Penalty_Neutral>
2.57527e-05

> <r_epik_State_Penalty>
0.00754525

> <r_epik_Charging_Adjusted_Penalty>
0.0174481

> <i_epik_Tot_Q>
1

> <i_epik_Tot_abs_Q>
1

> <r_epik_Metal_State_Penalty>
0.00754529

> <b_epik_Metal_Only>
0

> <s_lp_Force_Field>
OPLS_2005

> <r_lp_Energy>
20.6922

> <b_lp_Chiralities_Consistent>
1

> <s_lp_Variant>
AV-unprocessed.smi:1126-2

> <Gold.Version>
5.8.1

> <Gold.Id.Protein>
6NUR|6NUR_protein|mol2

> <Gold.PLP.Fitness>
51.3074

> <Gold.PLP.PLP>
-44.0437

> <Gold.PLP.part.hbond>
-2.0000

> <Gold.PLP.part.metal>
0.0000

> <Gold.PLP.part.buried>
-5.2205

> <Gold.PLP.part.nonpolar>
-38.7443

> <Gold.PLP.part.repulsive>
0.5177

> <Gold.PLP.ligand.clash>
0.0000

> <Gold.PLP.ligand.torsion>
0.8920

> <Gold.PLP.Chemscore.Hbond>
2.9825

> <Gold.PLP.Chemscore.CHOScore>
0.0000

> <Gold.PLP.Chemscore.Metal>
0.0000

> <Gold.Chemscore.Hbonds>
donor molecule, donor type, donor heavy atom, donor atom, acceptor molecule, acceptor atom, score
      L1  H     5    48       P1 10175  1.33
      L1  H    10    36       P1  8028  0.91

> <Gold.PLP.Chemscore.Internal.Correction>
0.1001

> <Gold.Rescore>
     Score         DG    S(hbond)    S(metal)    S(lipo)     H(rot)  DE(clash)    DE(int)     intcor
     18.01     -19.02       1.97        0.00     105.59       2.10       0.29       0.72       ----

> <Gold.Chemscore.Fitness>
18.0124

> <Gold.Chemscore.DG>
-19.0221

> <Gold.Chemscore.ZeroCoef>
-5.4800

> <Gold.Chemscore.Hbond>
1.9659

> <Gold.Chemscore.Metal>
0.0000

> <Gold.Chemscore.Lipo>
105.5868

> <Gold.Chemscore.Internal_Hbond>
0.0000

> <Gold.Chemscore.DEClash>
0.2853

> <Gold.Chemscore.DEInternal>
0.7245

> <Gold.Chemscore.Rot>
2.1006

> <Gold.Chemscore.Internal.Correction>
   9.000000E+99

> <Gold.Chemscore.Hbonds>
donor molecule, donor type, donor heavy atom, donor atom, acceptor molecule, acceptor atom, score
      L1  H     5    48       P1 10175  0.66
      L1  H    10    36       P1  8028  0.89

> <Gold.Chemscore.Hbond.Weighted>
-6.5660

> <Gold.Chemscore.Metal.Weighted>
-0.0000

> <Gold.Chemscore.Lipo.Weighted>
-12.3537

> <Gold.Chemscore.Internal_Hbond.Weighted>
0.0000

> <Gold.Chemscore.DEClash.Weighted>
0.2853

> <Gold.Chemscore.DEInternal.Weighted>
0.7245

> <Gold.Chemscore.Rot.Weighted>
5.3775

> <Gold.Chemscore.Internal.Correction.Weighted>
   9.000000E+99

> <Gold.Protein.RotatedTorsions>
[ 6907 6896 6895 6894 ] final  115.31 input  -60.11 | X-H torsion
[ 7974 7965 7964 7962 ] final    0.19 input  175.53 | X-H torsion
[ 8008 7997 7996 7995 ] final  -26.51 input   59.86 | X-H torsion
[ 10167 10162 10161 10158 ] final -153.65 input  -65.29 | X-H torsion
[ 10718 10713 10712 10709 ] final  -73.21 input   66.30 | X-H torsion
[ 10763 10752 10751 10750 ] final  -29.71 input  -60.55 | X-H torsion
[ 11005 11000 10999 10996 ] final  -13.71 input  -57.11 | X-H torsion

> <Gold.Protein.ActiveResidues>
 VAL166  LYS551  ARG553  GLY616  TRP617  ASP618  TYR619  PRO620  LYS621  CYS622 
 ASP623  PHE694  ASN695  SER759  ASP760  ASP761  ALA762  ILE779  LEU786  VAL792 
 PHE793  MET794  SER795  GLU796  ALA797  LYS798  CYS799  TRP800  GLU811  SER814 

> <Gold.Protein.RotatedAtoms>
  152.4749  133.8115  159.7005 H   0  0  0  0  0  0  0  0  0  0  0  0  # atno 6907 bound_to 6896
  150.8760  133.7428  159.2953 H   0  0  0  0  0  0  0  0  0  0  0  0  # atno 6908 bound_to 6896
  151.4948  135.1062  159.9865 H   0  0  0  0  0  0  0  0  0  0  0  0  # atno 6909 bound_to 6896
  146.2432  140.1176  142.8341 H   0  0  0  0  0  0  0  0  0  0  0  0  # atno 7974 bound_to 7965
  154.4422  140.1897  156.0786 H   0  0  0  0  0  0  0  0  0  0  0  0  # atno 8008 bound_to 7997
  156.0456  140.3314  155.7266 H   0  0  0  0  0  0  0  0  0  0  0  0  # atno 8009 bound_to 7997
  155.5634  140.0606  157.2814 H   0  0  0  0  0  0  0  0  0  0  0  0  # atno 8010 bound_to 7997
  139.7079  143.9157  152.2456 H   0  0  0  0  0  0  0  0  0  0  0  0  # atno 10167 bound_to 10162
  156.0289  130.4389  150.2709 H   0  0  0  0  0  0  0  0  0  0  0  0  # atno 10718 bound_to 10713
  153.7691  135.6913  153.4910 H   0  0  0  0  0  0  0  0  0  0  0  0  # atno 10763 bound_to 10752
  153.1886  135.4479  155.0120 H   0  0  0  0  0  0  0  0  0  0  0  0  # atno 10764 bound_to 10752
  154.8124  135.3383  154.7202 H   0  0  0  0  0  0  0  0  0  0  0  0  # atno 10765 bound_to 10752
  140.7789  133.8379  155.9274 H   0  0  0  0  0  0  0  0  0  0  0  0  # atno 11005 bound_to 11000
  145.0434  140.8963  143.5039 LP  0  0  0  0  0  0  0  0  0  0  0  0  # atno 17320 bound_to 7965
  145.1260  139.2662  143.5564 LP  0  0  0  0  0  0  0  0  0  0  0  0  # atno 17321 bound_to 7965
  139.9017  144.6907  150.8657 LP  0  0  0  0  0  0  0  0  0  0  0  0  # atno 17342 bound_to 10162
  140.7726  143.3508  151.2017 LP  0  0  0  0  0  0  0  0  0  0  0  0  # atno 17343 bound_to 10162
  157.0812  131.0144  151.3156 LP  0  0  0  0  0  0  0  0  0  0  0  0  # atno 17370 bound_to 10713
  157.4926  130.7831  149.7523 LP  0  0  0  0  0  0  0  0  0  0  0  0  # atno 17371 bound_to 10713
  140.9502  134.1788  157.4733 LP  0  0  0  0  0  0  0  0  0  0  0  0  # atno 17394 bound_to 11000
  139.8745  134.9906  156.5510 LP  0  0  0  0  0  0  0  0  0  0  0  0  # atno 17395 bound_to 11000

$$$$
