AV-unprocessed.smi:99|AV-procd|sdf|873|dock5
  -GOLD-   2262017333D 1   1.00000     0.00000
 Structure written by MMmdl.
 53 56  0  0  0  0  0  0  0  0  1 V2000
  146.7242  134.4918  153.4260 O   0  0  0  0  0  0  0  0  0  0  0  0
  146.8985  133.5968  152.5965 C   0  0  0  0  0  0  0  0  0  0  0  0
  147.9743  132.7879  152.5864 O   0  0  0  0  0  0  0  0  0  0  0  0
  148.6905  132.5367  153.7847 C   0  0  0  0  0  0  0  0  0  0  0  0
  149.2465  131.1062  153.7465 C   0  0  2  0  0  0  0  0  0  0  0  0
  148.1975  130.1526  153.8563 O   0  0  0  0  0  0  0  0  0  0  0  0
  148.7056  128.9377  154.3250 C   0  0  1  0  0  0  0  0  0  0  0  0
  148.7611  127.9271  153.1930 N   0  0  0  0  0  0  0  0  0  0  0  0
  148.4611  128.2567  151.8765 C   0  0  0  0  0  0  0  0  0  0  0  0
  148.5163  127.3633  150.8603 C   0  0  0  0  0  0  0  0  0  0  0  0
  148.9010  125.9782  151.1101 C   0  0  0  0  0  0  0  0  0  0  0  0
  148.9812  125.0994  150.2545 O   0  0  0  0  0  0  0  0  0  0  0  0
  149.1887  125.6887  152.4465 N   0  0  0  0  0  0  0  0  0  0  0  0
  149.1358  126.6003  153.5017 C   0  0  0  0  0  0  0  0  0  0  0  0
  149.4165  126.2385  154.6439 O   0  0  0  0  0  0  0  0  0  0  0  0
  150.0908  129.2237  154.9592 C   0  0  1  0  0  0  0  0  0  0  0  0
  151.1920  128.6467  154.2797 O   0  0  0  0  0  0  0  0  0  0  0  0
  150.1966  130.7412  154.8892 C   0  0  2  0  0  0  0  0  0  0  0  0
  149.7631  131.3347  156.1086 O   0  0  0  0  0  0  0  0  0  0  0  0
  150.2221  130.8912  157.2973 C   0  0  0  0  0  0  0  0  0  0  0  0
  151.2232  130.1834  157.4229 O   0  0  0  0  0  0  0  0  0  0  0  0
  149.3867  131.3482  158.4439 C   0  0  0  0  0  0  0  0  0  0  0  0
  149.4451  130.6433  159.6685 C   0  0  0  0  0  0  0  0  0  0  0  0
  148.6676  131.0526  160.7693 C   0  0  0  0  0  0  0  0  0  0  0  0
  147.8238  132.1731  160.6591 C   0  0  0  0  0  0  0  0  0  0  0  0
  147.7590  132.8846  159.4469 C   0  0  0  0  0  0  0  0  0  0  0  0
  148.5349  132.4763  158.3446 C   0  0  0  0  0  0  0  0  0  0  0  0
  145.9379  133.2926  151.4977 C   0  0  0  0  0  0  0  0  0  0  0  0
  144.5485  133.3843  151.7460 C   0  0  0  0  0  0  0  0  0  0  0  0
  143.6180  133.1048  150.7263 C   0  0  0  0  0  0  0  0  0  0  0  0
  144.0657  132.7331  149.4451 C   0  0  0  0  0  0  0  0  0  0  0  0
  145.4453  132.6412  149.1847 C   0  0  0  0  0  0  0  0  0  0  0  0
  146.3776  132.9184  150.2036 C   0  0  0  0  0  0  0  0  0  0  0  0
  149.4602  124.7415  152.6664 H   0  0  0  0  0  0  0  0  0  0  0  0
  149.5083  133.2511  153.8919 H   0  0  0  0  0  0  0  0  0  0  0  0
  148.0308  132.6662  154.6433 H   0  0  0  0  0  0  0  0  0  0  0  0
  149.7679  130.9469  152.8023 H   0  0  0  0  0  0  0  0  0  0  0  0
  147.9806  128.5404  155.0380 H   0  0  0  0  0  0  0  0  0  0  0  0
  148.1642  129.2620  151.6229 H   0  0  0  0  0  0  0  0  0  0  0  0
  148.2726  127.6753  149.8550 H   0  0  0  0  0  0  0  0  0  0  0  0
  150.0991  128.8596  155.9873 H   0  0  0  0  0  0  0  0  0  0  0  0
  150.9473  128.5051  153.3779 H   0  0  0  0  0  0  0  0  0  0  0  0
  151.2081  131.0748  154.6507 H   0  0  0  0  0  0  0  0  0  0  0  0
  150.0859  129.7800  159.7770 H   0  0  0  0  0  0  0  0  0  0  0  0
  148.7189  130.5052  161.6991 H   0  0  0  0  0  0  0  0  0  0  0  0
  147.2277  132.4866  161.5034 H   0  0  0  0  0  0  0  0  0  0  0  0
  147.1129  133.7457  159.3613 H   0  0  0  0  0  0  0  0  0  0  0  0
  148.4627  133.0464  157.4297 H   0  0  0  0  0  0  0  0  0  0  0  0
  144.1811  133.6674  152.7219 H   0  0  0  0  0  0  0  0  0  0  0  0
  142.5592  133.1764  150.9281 H   0  0  0  0  0  0  0  0  0  0  0  0
  143.3516  132.5203  148.6632 H   0  0  0  0  0  0  0  0  0  0  0  0
  145.7901  132.3587  148.2009 H   0  0  0  0  0  0  0  0  0  0  0  0
  147.4295  132.8420  149.9692 H   0  0  0  0  0  0  0  0  0  0  0  0
  1  2  2  0  0  0  0
  2  3  1  0  0  0  0
  2 28  1  0  0  0  0
  3  4  1  0  0  0  0
  4  5  1  0  0  0  0
  4 35  1  0  0  0  0
  4 36  1  0  0  0  0
  5 18  1  0  0  0  0
  5  6  1  0  0  0  0
  5 37  1  0  0  0  0
  6  7  1  0  0  0  0
  7  8  1  0  0  0  0
  7 16  1  0  0  0  0
  7 38  1  0  0  0  0
  8 14  1  0  0  0  0
  8  9  1  0  0  0  0
  9 10  2  0  0  0  0
  9 39  1  0  0  0  0
 10 11  1  0  0  0  0
 10 40  1  0  0  0  0
 11 12  2  0  0  0  0
 11 13  1  0  0  0  0
 13 34  1  0  0  0  0
 13 14  1  0  0  0  0
 14 15  2  0  0  0  0
 16 17  1  0  0  0  0
 16 18  1  0  0  0  0
 16 41  1  0  0  0  0
 17 42  1  0  0  0  0
 18 19  1  0  0  0  0
 18 43  1  0  0  0  0
 19 20  1  0  0  0  0
 20 21  2  0  0  0  0
 20 22  1  0  0  0  0
 22 27  1  0  0  0  0
 22 23  2  0  0  0  0
 23 24  1  0  0  0  0
 23 44  1  0  0  0  0
 24 25  2  0  0  0  0
 24 45  1  0  0  0  0
 25 26  1  0  0  0  0
 25 46  1  0  0  0  0
 26 27  2  0  0  0  0
 26 47  1  0  0  0  0
 27 48  1  0  0  0  0
 28 33  1  0  0  0  0
 28 29  2  0  0  0  0
 29 30  1  0  0  0  0
 29 49  1  0  0  0  0
 30 31  2  0  0  0  0
 30 50  1  0  0  0  0
 31 32  1  0  0  0  0
 31 51  1  0  0  0  0
 32 33  2  0  0  0  0
 32 52  1  0  0  0  0
 33 53  1  0  0  0  0
M  END
> <s_m_source_file>
AV-unprocessed.smi

> <i_m_source_file_index>
99

> <i_lp_mmshare_version>
43012

> <i_f3d_flags>
0

> <s_epik_input>
W2NIXTFbY0hdW2NIXVtjSF1bY0hdYzFDKD1PKU9bQ0gyXVtDQEBIXTJPW0NAQEhdKG4zW2NIXVtjSF1jKD1PKVtuSF1jMz1PKVtDQEBIXShbT0hdKVtDQEhdMk9DKD1PKWM0W2NIXVtjSF1bY0hdW2NIXVtjSF00

> <s_epik_cmdline>
J2VwaWtfcHl0aG9uJywgJy1waCcsICc3LjAnLCAnLXRuJywgJzgnLCAnLW1hJywgJzIwMCcsICctbWV0YWxfYmluZGluZycsICctaW1hZScsICc8aW5maWxlLm1hZT4nLCAnLW9tYWUnLCAnPG91dGZpbGUubWFlPic=

> <r_lp_tautomer_probability>
1

> <r_epik_Ionization_Penalty>
0.00454555

> <r_epik_Ionization_Penalty_Charging>
0.0045191

> <r_epik_Ionization_Penalty_Neutral>
2.64449e-05

> <r_epik_State_Penalty>
-0

> <r_epik_Charging_Adjusted_Penalty>
0.0045191

> <i_epik_Tot_Q>
0

> <i_epik_Tot_abs_Q>
0

> <r_epik_Metal_State_Penalty>
1.27877

> <b_epik_Metal_Only>
0

> <s_epik_Chemistry_Notes>
This compound has an ester and may undergo hydrolysis at high or low pH. This compound contains an acetal/aminal-like group ( X-CH(R)-Y where X, Y are N, S, or O) that may be acid/base labile, releasing an aldehyde.

> <s_lp_Force_Field>
OPLS_2005

> <r_lp_Energy>
38.1357

> <b_lp_Chiralities_Consistent>
1

> <s_lp_Variant>
AV-unprocessed.smi:99-9

> <Gold.Version>
5.8.1

> <Gold.Id.Protein>
6NUR|6NUR_protein|mol2

> <Gold.PLP.Fitness>
51.4796

> <Gold.PLP.PLP>
-49.5531

> <Gold.PLP.part.hbond>
-1.0000

> <Gold.PLP.part.metal>
0.0000

> <Gold.PLP.part.buried>
-6.9993

> <Gold.PLP.part.nonpolar>
-41.5741

> <Gold.PLP.part.repulsive>
0.5313

> <Gold.PLP.ligand.clash>
0.0000

> <Gold.PLP.ligand.torsion>
1.7444

> <Gold.PLP.Chemscore.Hbond>
0.6240

> <Gold.PLP.Chemscore.CHOScore>
1.0000

> <Gold.PLP.Chemscore.Metal>
0.0000

> <Gold.Chemscore.Hbonds>
donor molecule, donor type, donor heavy atom, donor atom, acceptor molecule, acceptor atom, score
      L1  H    17    42       P1 10737  0.47
      L1  C     9    39       P1 10747  1.00

> <Gold.PLP.Chemscore.Internal.Correction>
0.5434

> <Gold.Rescore>
     Score         DG    S(hbond)    S(metal)    S(lipo)     H(rot)  DE(clash)    DE(int)     intcor
      9.95     -13.03       0.70        0.00     114.26       3.19       0.18       2.91       ----

> <Gold.Chemscore.Fitness>
9.9469

> <Gold.Chemscore.DG>
-13.0341

> <Gold.Chemscore.ZeroCoef>
-5.4800

> <Gold.Chemscore.Hbond>
0.7043

> <Gold.Chemscore.Metal>
0.0000

> <Gold.Chemscore.Lipo>
114.2637

> <Gold.Chemscore.Internal_Hbond>
0.0000

> <Gold.Chemscore.DEClash>
0.1814

> <Gold.Chemscore.DEInternal>
2.9058

> <Gold.Chemscore.Rot>
3.1903

> <Gold.Chemscore.Internal.Correction>
   9.000000E+99

> <Gold.Chemscore.Hbonds>
donor molecule, donor type, donor heavy atom, donor atom, acceptor molecule, acceptor atom, score
      L1  H    17    42       P1 10737  0.46

> <Gold.Chemscore.Hbond.Weighted>
-2.3523

> <Gold.Chemscore.Metal.Weighted>
-0.0000

> <Gold.Chemscore.Lipo.Weighted>
-13.3688

> <Gold.Chemscore.Internal_Hbond.Weighted>
0.0000

> <Gold.Chemscore.DEClash.Weighted>
0.1814

> <Gold.Chemscore.DEInternal.Weighted>
2.9058

> <Gold.Chemscore.Rot.Weighted>
8.1671

> <Gold.Chemscore.Internal.Correction.Weighted>
   9.000000E+99

> <Gold.Protein.RotatedTorsions>
[ 6907 6896 6895 6894 ] final   48.17 input  -60.11 | X-H torsion
[ 7974 7965 7964 7962 ] final   99.18 input  175.53 | X-H torsion
[ 8008 7997 7996 7995 ] final -145.91 input   59.86 | X-H torsion
[ 10167 10162 10161 10158 ] final  162.07 input  -65.29 | X-H torsion
[ 10718 10713 10712 10709 ] final  -94.44 input   66.30 | X-H torsion
[ 10763 10752 10751 10750 ] final -143.85 input  -60.55 | X-H torsion
[ 11005 11000 10999 10996 ] final   15.51 input  -57.11 | X-H torsion

> <Gold.Protein.ActiveResidues>
 VAL166  LYS551  ARG553  GLY616  TRP617  ASP618  TYR619  PRO620  LYS621  CYS622 
 ASP623  PHE694  ASN695  SER759  ASP760  ASP761  ALA762  ILE779  LEU786  VAL792 
 PHE793  MET794  SER795  GLU796  ALA797  LYS798  CYS799  TRP800  GLU811  SER814 

> <Gold.Protein.RotatedAtoms>
  152.2765  134.7876  160.0404 H   0  0  0  0  0  0  0  0  0  0  0  0  # atno 6907 bound_to 6896
  151.8471  133.3428  159.3669 H   0  0  0  0  0  0  0  0  0  0  0  0  # atno 6908 bound_to 6896
  150.7172  134.5264  159.5723 H   0  0  0  0  0  0  0  0  0  0  0  0  # atno 6909 bound_to 6896
  145.4023  139.2346  143.3293 H   0  0  0  0  0  0  0  0  0  0  0  0  # atno 7974 bound_to 7965
  155.5508  140.0616  157.2850 H   0  0  0  0  0  0  0  0  0  0  0  0  # atno 8008 bound_to 7997
  154.4421  140.1903  156.0729 H   0  0  0  0  0  0  0  0  0  0  0  0  # atno 8009 bound_to 7997
  156.0517  140.3283  155.7363 H   0  0  0  0  0  0  0  0  0  0  0  0  # atno 8010 bound_to 7997
  139.4856  144.4474  151.8874 H   0  0  0  0  0  0  0  0  0  0  0  0  # atno 10167 bound_to 10162
  156.0027  130.5067  150.5926 H   0  0  0  0  0  0  0  0  0  0  0  0  # atno 10718 bound_to 10713
  154.8453  135.3456  154.6253 H   0  0  0  0  0  0  0  0  0  0  0  0  # atno 10763 bound_to 10752
  153.6862  135.6977  153.5108 H   0  0  0  0  0  0  0  0  0  0  0  0  # atno 10764 bound_to 10752
  153.2630  135.4317  155.0868 H   0  0  0  0  0  0  0  0  0  0  0  0  # atno 10765 bound_to 10752
  140.4575  134.1161  155.7711 H   0  0  0  0  0  0  0  0  0  0  0  0  # atno 11005 bound_to 11000
  146.2746  140.4722  142.8801 LP  0  0  0  0  0  0  0  0  0  0  0  0  # atno 17320 bound_to 7965
  144.8365  140.6791  143.6257 LP  0  0  0  0  0  0  0  0  0  0  0  0  # atno 17321 bound_to 7965
  140.3929  144.2592  150.5898 LP  0  0  0  0  0  0  0  0  0  0  0  0  # atno 17342 bound_to 10162
  140.5129  143.2286  151.8507 LP  0  0  0  0  0  0  0  0  0  0  0  0  # atno 17343 bound_to 10162
  157.3788  131.0777  151.1494 LP  0  0  0  0  0  0  0  0  0  0  0  0  # atno 17370 bound_to 10713
  157.2223  130.6487  149.5816 LP  0  0  0  0  0  0  0  0  0  0  0  0  # atno 17371 bound_to 10713
  141.1636  133.8745  157.1777 LP  0  0  0  0  0  0  0  0  0  0  0  0  # atno 17394 bound_to 11000
  139.9967  135.0044  157.0098 LP  0  0  0  0  0  0  0  0  0  0  0  0  # atno 17395 bound_to 11000

$$$$
