AV-unprocessed.smi:3245|AV-procd|sdf|12407|dock1
  -GOLD-   2272018283D 1   1.00000     0.00000
 Structure written by MMmdl.
 35 36  0  0  0  0  0  0  0  0  3 V2000
  149.4827  142.4254  158.4199 C   0  0  0  0  0  0  0  0  0  0  0  0
  150.8286  142.9795  157.9340 C   0  0  1  0  0  0  0  0  0  0  0  0
  152.0010  142.2399  158.6146 C   0  0  0  0  0  0  0  0  0  0  0  0
  152.2762  142.7278  159.9540 N   0  0  0  0  0  0  0  0  0  0  0  0
  152.9294  142.0857  160.9847 C   0  0  0  0  0  0  0  0  0  0  0  0
  152.9200  142.9294  162.0583 C   0  0  0  0  0  0  0  0  0  0  0  0
  152.2322  144.0794  161.5798 C   0  0  0  0  0  0  0  0  0  0  0  0
  151.8509  143.9570  160.3185 N   0  0  0  0  0  0  0  0  0  0  0  0
  150.9057  142.8637  156.4597 N   0  3  0  0  0  0  0  0  0  0  0  0
  150.6214  141.5158  155.9275 C   0  0  0  0  0  0  0  0  0  0  0  0
  151.8295  140.5872  156.1100 C   0  0  0  0  0  0  0  0  0  0  0  0
  151.6200  139.3142  155.4166 N   0  0  0  0  0  0  0  0  0  0  0  0
  150.4355  138.7087  155.2914 C   0  0  0  0  0  0  0  0  0  0  0  0
  149.3463  139.0830  155.7261 O   0  0  0  0  0  0  0  0  0  0  0  0
  150.6517  137.4499  154.4845 C   0  0  0  0  0  0  0  0  0  0  0  0
  152.0696  137.5016  154.2065 N   0  5  0  0  0  0  0  0  0  0  0  0
  152.5788  138.6177  154.7769 C   0  0  0  0  0  0  0  0  0  0  0  0
  153.7489  138.9971  154.7382 O   0  0  0  0  0  0  0  0  0  0  0  0
  149.3840  142.5275  159.5011 H   0  0  0  0  0  0  0  0  0  0  0  0
  149.3755  141.3679  158.1754 H   0  0  0  0  0  0  0  0  0  0  0  0
  148.6490  142.9597  157.9628 H   0  0  0  0  0  0  0  0  0  0  0  0
  150.8636  144.0344  158.2126 H   0  0  0  0  0  0  0  0  0  0  0  0
  151.7784  141.1746  158.6877 H   0  0  0  0  0  0  0  0  0  0  0  0
  152.9079  142.3245  158.0133 H   0  0  0  0  0  0  0  0  0  0  0  0
  153.3353  141.0912  160.8725 H   0  0  0  0  0  0  0  0  0  0  0  0
  153.3375  142.7519  163.0383 H   0  0  0  0  0  0  0  0  0  0  0  0
  151.9977  144.9916  162.1085 H   0  0  0  0  0  0  0  0  0  0  0  0
  150.2496  143.5181  156.0574 H   0  0  0  0  0  0  0  0  0  0  0  0
  149.7475  141.1093  156.4383 H   0  0  0  0  0  0  0  0  0  0  0  0
  150.3680  141.5804  154.8697 H   0  0  0  0  0  0  0  0  0  0  0  0
  152.7319  141.0678  155.7278 H   0  0  0  0  0  0  0  0  0  0  0  0
  152.0124  140.4143  157.1719 H   0  0  0  0  0  0  0  0  0  0  0  0
  150.3589  136.5781  155.0708 H   0  0  0  0  0  0  0  0  0  0  0  0
  150.0350  137.4749  153.5856 H   0  0  0  0  0  0  0  0  0  0  0  0
  151.8372  143.1182  156.1641 H   0  0  0  0  0  0  0  0  0  0  0  0
  1  2  1  0  0  0  0
  1 19  1  0  0  0  0
  1 20  1  0  0  0  0
  1 21  1  0  0  0  0
  2  3  1  0  0  0  0
  2  9  1  0  0  0  0
  2 22  1  0  0  0  0
  3  4  1  0  0  0  0
  3 23  1  0  0  0  0
  3 24  1  0  0  0  0
  4  8  1  0  0  0  0
  4  5  1  0  0  0  0
  5  6  2  0  0  0  0
  5 25  1  0  0  0  0
  6  7  1  0  0  0  0
  6 26  1  0  0  0  0
  7  8  2  0  0  0  0
  7 27  1  0  0  0  0
  9 10  1  0  0  0  0
  9 28  1  0  0  0  0
  9 35  1  0  0  0  0
 10 11  1  0  0  0  0
 10 29  1  0  0  0  0
 10 30  1  0  0  0  0
 11 12  1  0  0  0  0
 11 31  1  0  0  0  0
 11 32  1  0  0  0  0
 12 17  1  0  0  0  0
 12 13  1  0  0  0  0
 13 14  2  0  0  0  0
 13 15  1  0  0  0  0
 15 16  1  0  0  0  0
 15 33  1  0  0  0  0
 15 34  1  0  0  0  0
 16 17  1  0  0  0  0
 17 18  2  0  0  0  0
M  CHG  1   9   1
M  CHG  1  16  -1
M  END
> <s_m_source_file>
AV-unprocessed.smi

> <i_m_source_file_index>
3245

> <i_lp_mmshare_version>
43012

> <i_f3d_flags>
0

> <s_epik_input>
bjFbY0hdW2NIXVtjSF1uMVtDSDJdW0NAQEhdKFtDSDNdKVtOSF1bQ0gyXVtDSDJdTjJDKD1PKVtDSDJdW05IXUMyPU8=

> <s_epik_cmdline>
J2VwaWtfcHl0aG9uJywgJy1waCcsICc3LjAnLCAnLXRuJywgJzgnLCAnLW1hJywgJzIwMCcsICctbWV0YWxfYmluZGluZycsICctaW1hZScsICc8aW5maWxlLm1hZT4nLCAnLW9tYWUnLCAnPG91dGZpbGUubWFlPic=

> <r_lp_tautomer_probability>
1

> <r_epik_Ionization_Penalty>
5.1873

> <r_epik_Ionization_Penalty_Charging>
5.18729

> <r_epik_Ionization_Penalty_Neutral>
3.83745e-06

> <r_epik_State_Penalty>
5.18822

> <r_epik_Charging_Adjusted_Penalty>
10.3755

> <i_epik_Tot_Q>
0

> <i_epik_Tot_abs_Q>
2

> <r_epik_Metal_State_Penalty>
1.25934

> <b_epik_Metal_Only>
1

> <s_lp_Force_Field>
OPLS_2005

> <r_lp_Energy>
10.2516

> <b_lp_Chiralities_Consistent>
1

> <s_lp_Variant>
AV-unprocessed.smi:3245-6

> <Gold.Version>
5.8.1

> <Gold.Id.Protein>
6NUR|6NUR_protein|mol2

> <Gold.PLP.Fitness>
54.8899

> <Gold.PLP.PLP>
-42.7533

> <Gold.PLP.part.hbond>
-3.0000

> <Gold.PLP.part.metal>
0.0000

> <Gold.PLP.part.buried>
-7.0535

> <Gold.PLP.part.nonpolar>
-33.0465

> <Gold.PLP.part.repulsive>
0.3461

> <Gold.PLP.ligand.clash>
0.0000

> <Gold.PLP.ligand.torsion>
0.9906

> <Gold.PLP.Chemscore.Hbond>
4.6640

> <Gold.PLP.Chemscore.CHOScore>
0.0000

> <Gold.PLP.Chemscore.Metal>
0.0000

> <Gold.Chemscore.Hbonds>
donor molecule, donor type, donor heavy atom, donor atom, acceptor molecule, acceptor atom, score
      L1  H     9    28       P1  8028  2.00
      P1  H  7997  8009       L1    18  1.00
      P1  H 10752 10765       L1    16  1.76

> <Gold.PLP.Chemscore.Internal.Correction>
0.1259

> <Gold.Rescore>
     Score         DG    S(hbond)    S(metal)    S(lipo)     H(rot)  DE(clash)    DE(int)     intcor
     14.98     -17.44       2.82        0.00      80.04       2.66       0.22       2.24       ----

> <Gold.Chemscore.Fitness>
14.9798

> <Gold.Chemscore.DG>
-17.4390

> <Gold.Chemscore.ZeroCoef>
-5.4800

> <Gold.Chemscore.Hbond>
2.8158

> <Gold.Chemscore.Metal>
0.0000

> <Gold.Chemscore.Lipo>
80.0356

> <Gold.Chemscore.Internal_Hbond>
0.0000

> <Gold.Chemscore.DEClash>
0.2183

> <Gold.Chemscore.DEInternal>
2.2409

> <Gold.Chemscore.Rot>
2.6601

> <Gold.Chemscore.Internal.Correction>
   9.000000E+99

> <Gold.Chemscore.Hbonds>
donor molecule, donor type, donor heavy atom, donor atom, acceptor molecule, acceptor atom, score
      L1  H     9    28       P1  8028  1.00
      P1  H  7997  8009       L1    18  0.96
      P1  H 10752 10765       L1    16  0.76

> <Gold.Chemscore.Hbond.Weighted>
-9.4046

> <Gold.Chemscore.Metal.Weighted>
-0.0000

> <Gold.Chemscore.Lipo.Weighted>
-9.3642

> <Gold.Chemscore.Internal_Hbond.Weighted>
0.0000

> <Gold.Chemscore.DEClash.Weighted>
0.2183

> <Gold.Chemscore.DEInternal.Weighted>
2.2409

> <Gold.Chemscore.Rot.Weighted>
6.8098

> <Gold.Chemscore.Internal.Correction.Weighted>
   9.000000E+99

> <Gold.Protein.RotatedTorsions>
[ 6907 6896 6895 6894 ] final -145.26 input  -60.11 | X-H torsion
[ 7974 7965 7964 7962 ] final  177.04 input  175.53 | X-H torsion
[ 8008 7997 7996 7995 ] final -126.95 input   59.86 | X-H torsion
[ 10167 10162 10161 10158 ] final   -8.66 input  -65.29 | X-H torsion
[ 10718 10713 10712 10709 ] final   29.97 input   66.30 | X-H torsion
[ 10763 10752 10751 10750 ] final  150.06 input  -60.55 | X-H torsion
[ 11005 11000 10999 10996 ] final  105.01 input  -57.11 | X-H torsion

> <Gold.Protein.ActiveResidues>
 VAL166  LYS551  ARG553  GLY616  TRP617  ASP618  TYR619  PRO620  LYS621  CYS622 
 ASP623  PHE694  ASN695  SER759  ASP760  ASP761  ALA762  ILE779  LEU786  VAL792 
 PHE793  MET794  SER795  GLU796  ALA797  LYS798  CYS799  TRP800  GLU811  SER814 

> <Gold.Protein.RotatedAtoms>
  151.1254  133.5074  159.2600 H   0  0  0  0  0  0  0  0  0  0  0  0  # atno 6907 bound_to 6896
  151.1816  135.0363  159.8804 H   0  0  0  0  0  0  0  0  0  0  0  0  # atno 6908 bound_to 6896
  152.5457  134.1105  159.8410 H   0  0  0  0  0  0  0  0  0  0  0  0  # atno 6909 bound_to 6896
  144.7175  140.0188  143.6440 H   0  0  0  0  0  0  0  0  0  0  0  0  # atno 7974 bound_to 7965
  155.2381  140.0427  157.2971 H   0  0  0  0  0  0  0  0  0  0  0  0  # atno 8008 bound_to 7997
  154.5845  140.2410  155.7976 H   0  0  0  0  0  0  0  0  0  0  0  0  # atno 8009 bound_to 7997
  156.2217  140.2968  155.9976 H   0  0  0  0  0  0  0  0  0  0  0  0  # atno 8010 bound_to 7997
  140.7065  143.5944  150.8860 H   0  0  0  0  0  0  0  0  0  0  0  0  # atno 10167 bound_to 10162
  157.2535  130.7126  149.6417 H   0  0  0  0  0  0  0  0  0  0  0  0  # atno 10718 bound_to 10713
  154.0813  135.2859  155.3290 H   0  0  0  0  0  0  0  0  0  0  0  0  # atno 10763 bound_to 10752
  154.6682  135.5309  153.8107 H   0  0  0  0  0  0  0  0  0  0  0  0  # atno 10764 bound_to 10752
  153.0448  135.6551  154.0988 H   0  0  0  0  0  0  0  0  0  0  0  0  # atno 10765 bound_to 10752
  139.8797  134.9321  156.5449 H   0  0  0  0  0  0  0  0  0  0  0  0  # atno 11005 bound_to 11000
  146.0198  139.3241  143.0820 LP  0  0  0  0  0  0  0  0  0  0  0  0  # atno 17320 bound_to 7965
  145.8582  140.9490  143.0714 LP  0  0  0  0  0  0  0  0  0  0  0  0  # atno 17321 bound_to 7965
  139.9670  143.6100  152.2985 LP  0  0  0  0  0  0  0  0  0  0  0  0  # atno 17342 bound_to 10162
  139.6673  144.7662  151.1849 LP  0  0  0  0  0  0  0  0  0  0  0  0  # atno 17343 bound_to 10162
  155.9665  130.4420  150.5363 LP  0  0  0  0  0  0  0  0  0  0  0  0  # atno 17370 bound_to 10713
  157.3253  131.0689  151.1902 LP  0  0  0  0  0  0  0  0  0  0  0  0  # atno 17371 bound_to 10713
  140.8283  133.8299  155.8960 LP  0  0  0  0  0  0  0  0  0  0  0  0  # atno 17394 bound_to 11000
  140.9353  134.1970  157.4835 LP  0  0  0  0  0  0  0  0  0  0  0  0  # atno 17395 bound_to 11000

$$$$
