AV-unprocessed.smi:3335|AV-procd|sdf|12849|dock3
  -GOLD-   2272019243D 1   1.00000     0.00000
 Structure written by MMmdl.
 46 47  0  0  0  0  0  0  0  0  1 V2000
  151.1746  142.6727  158.3559 C   0  0  0  0  0  0  0  0  0  0  0  0
  150.9143  141.7867  157.1718 C   0  0  0  0  0  0  0  0  0  0  0  0
  151.8659  141.0669  156.3954 C   0  0  0  0  0  0  0  0  0  0  0  0
  151.3112  140.3746  155.4144 N   0  0  0  0  0  0  0  0  0  0  0  0
  149.9876  140.6270  155.5261 N   0  0  0  0  0  0  0  0  0  0  0  0
  149.0421  140.0279  154.5921 C   0  0  2  0  0  0  0  0  0  0  0  0
  149.7652  139.0037  153.6961 C   0  0  0  0  0  0  0  0  0  0  0  0
  148.2683  141.1023  153.7795 C   0  0  2  0  0  0  0  0  0  0  0  0
  147.2633  141.9059  154.6269 C   0  0  0  0  0  0  0  0  0  0  0  0
  147.5059  140.4445  152.7176 N   0  0  0  0  0  0  0  0  0  0  0  0
  146.8247  139.2022  153.1272 C   0  0  1  0  0  0  0  0  0  0  0  0
  145.5446  139.5476  153.9026 C   0  0  0  0  0  0  0  0  0  0  0  0
  146.4840  138.2788  151.9357 C   0  0  0  0  0  0  0  0  0  0  0  0
  146.7802  138.6478  150.7980 O   0  0  0  0  0  0  0  0  0  0  0  0
  145.8744  137.0947  152.1624 N   0  0  0  0  0  0  0  0  0  0  0  0
  145.5428  136.1508  151.0959 C   0  0  0  0  0  0  0  0  0  0  0  0
  145.0946  134.8688  151.7976 C   0  0  0  0  0  0  0  0  0  0  0  0
  144.5836  135.3462  153.1489 C   0  0  0  0  0  0  0  0  0  0  0  0
  145.4392  136.5745  153.4584 C   0  0  0  0  0  0  0  0  0  0  0  0
  149.7225  141.4753  156.5811 C   0  0  0  0  0  0  0  0  0  0  0  0
  151.6420  142.1230  159.1730 H   0  0  0  0  0  0  0  0  0  0  0  0
  150.2553  143.1091  158.7472 H   0  0  0  0  0  0  0  0  0  0  0  0
  151.8391  143.4985  158.1012 H   0  0  0  0  0  0  0  0  0  0  0  0
  152.9386  141.0275  156.5156 H   0  0  0  0  0  0  0  0  0  0  0  0
  148.3195  139.4787  155.1984 H   0  0  0  0  0  0  0  0  0  0  0  0
  149.0577  138.4239  153.1038 H   0  0  0  0  0  0  0  0  0  0  0  0
  150.3381  138.2950  154.2948 H   0  0  0  0  0  0  0  0  0  0  0  0
  150.4555  139.4911  153.0065 H   0  0  0  0  0  0  0  0  0  0  0  0
  148.9909  141.8087  153.3676 H   0  0  0  0  0  0  0  0  0  0  0  0
  147.7649  142.4947  155.3948 H   0  0  0  0  0  0  0  0  0  0  0  0
  146.5483  141.2503  155.1253 H   0  0  0  0  0  0  0  0  0  0  0  0
  146.6987  142.6073  154.0120 H   0  0  0  0  0  0  0  0  0  0  0  0
  148.0982  140.2915  151.9137 H   0  0  0  0  0  0  0  0  0  0  0  0
  147.4931  138.6904  153.8174 H   0  0  0  0  0  0  0  0  0  0  0  0
  145.0380  138.6475  154.2528 H   0  0  0  0  0  0  0  0  0  0  0  0
  144.8401  140.1076  153.2858 H   0  0  0  0  0  0  0  0  0  0  0  0
  145.7719  140.1548  154.7795 H   0  0  0  0  0  0  0  0  0  0  0  0
  144.7300  136.5635  150.4966 H   0  0  0  0  0  0  0  0  0  0  0  0
  146.3906  135.9638  150.4348 H   0  0  0  0  0  0  0  0  0  0  0  0
  144.3441  134.3164  151.2313 H   0  0  0  0  0  0  0  0  0  0  0  0
  145.9534  134.2126  151.9443 H   0  0  0  0  0  0  0  0  0  0  0  0
  143.5376  135.6423  153.0590 H   0  0  0  0  0  0  0  0  0  0  0  0
  144.6488  134.5795  153.9217 H   0  0  0  0  0  0  0  0  0  0  0  0
  146.3170  136.2887  154.0401 H   0  0  0  0  0  0  0  0  0  0  0  0
  144.8715  137.3099  154.0303 H   0  0  0  0  0  0  0  0  0  0  0  0
  148.7163  141.7864  156.8211 H   0  0  0  0  0  0  0  0  0  0  0  0
  1  2  1  0  0  0  0
  1 21  1  0  0  0  0
  1 22  1  0  0  0  0
  1 23  1  0  0  0  0
  2 20  2  0  0  0  0
  2  3  1  0  0  0  0
  3  4  2  0  0  0  0
  3 24  1  0  0  0  0
  4  5  1  0  0  0  0
  5  6  1  0  0  0  0
  5 20  1  0  0  0  0
  6  7  1  0  0  0  0
  6  8  1  0  0  0  0
  6 25  1  0  0  0  0
  7 26  1  0  0  0  0
  7 27  1  0  0  0  0
  7 28  1  0  0  0  0
  8  9  1  0  0  0  0
  8 10  1  0  0  0  0
  8 29  1  0  0  0  0
  9 30  1  0  0  0  0
  9 31  1  0  0  0  0
  9 32  1  0  0  0  0
 10 11  1  0  0  0  0
 10 33  1  0  0  0  0
 11 12  1  0  0  0  0
 11 13  1  0  0  0  0
 11 34  1  0  0  0  0
 12 35  1  0  0  0  0
 12 36  1  0  0  0  0
 12 37  1  0  0  0  0
 13 14  2  0  0  0  0
 13 15  1  0  0  0  0
 15 19  1  0  0  0  0
 15 16  1  0  0  0  0
 16 17  1  0  0  0  0
 16 38  1  0  0  0  0
 16 39  1  0  0  0  0
 17 18  1  0  0  0  0
 17 40  1  0  0  0  0
 17 41  1  0  0  0  0
 18 19  1  0  0  0  0
 18 42  1  0  0  0  0
 18 43  1  0  0  0  0
 19 44  1  0  0  0  0
 19 45  1  0  0  0  0
 20 46  1  0  0  0  0
M  END
> <s_m_source_file>
AV-unprocessed.smi

> <i_m_source_file_index>
3335

> <i_lp_mmshare_version>
43012

> <i_f3d_flags>
0

> <s_epik_input>
W0NIM11jMVtjSF1ubihbY0hdMSlbQ0BIXShbQ0gzXSlbQ0BIXShbQ0gzXSlbTkhdW0NASF0oW0NIM10pQyg9TylOMltDSDJdW0NIMl1bQ0gyXVtDSDJdMg==

> <s_epik_cmdline>
J2VwaWtfcHl0aG9uJywgJy1waCcsICc3LjAnLCAnLXRuJywgJzgnLCAnLW1hJywgJzIwMCcsICctbWV0YWxfYmluZGluZycsICctaW1hZScsICc8aW5maWxlLm1hZT4nLCAnLW9tYWUnLCAnPG91dGZpbGUubWFlPic=

> <r_lp_tautomer_probability>
1

> <r_epik_Ionization_Penalty>
0.918803

> <r_epik_Ionization_Penalty_Charging>
0

> <r_epik_Ionization_Penalty_Neutral>
0.918803

> <r_epik_State_Penalty>
0.958258

> <r_epik_Charging_Adjusted_Penalty>
0.958258

> <i_epik_Tot_Q>
0

> <i_epik_Tot_abs_Q>
0

> <r_epik_Metal_State_Penalty>
0.956786

> <b_epik_Metal_Only>
0

> <s_lp_Force_Field>
OPLS_2005

> <r_lp_Energy>
37.1763

> <b_lp_Chiralities_Consistent>
1

> <s_lp_Variant>
AV-unprocessed.smi:3335-13

> <Gold.Version>
5.8.1

> <Gold.Id.Protein>
6NUR|6NUR_protein|mol2

> <Gold.PLP.Fitness>
36.9819

> <Gold.PLP.PLP>
-29.4221

> <Gold.PLP.part.hbond>
-3.0000

> <Gold.PLP.part.metal>
0.0000

> <Gold.PLP.part.buried>
3.9159

> <Gold.PLP.part.nonpolar>
-31.1628

> <Gold.PLP.part.repulsive>
0.8340

> <Gold.PLP.ligand.clash>
0.0000

> <Gold.PLP.ligand.torsion>
0.5659

> <Gold.PLP.Chemscore.Hbond>
2.8720

> <Gold.PLP.Chemscore.CHOScore>
0.0000

> <Gold.PLP.Chemscore.Metal>
0.0000

> <Gold.Chemscore.Hbonds>
donor molecule, donor type, donor heavy atom, donor atom, acceptor molecule, acceptor atom, score
      L1  H    10    33       P1  7957  1.00
      P1  H  7954  7966       L1    14  0.90
      P1  H  7989  7998       L1     4  0.94

> <Gold.PLP.Chemscore.Internal.Correction>
0.0756

> <Gold.Rescore>
     Score         DG    S(hbond)    S(metal)    S(lipo)     H(rot)  DE(clash)    DE(int)     intcor
     11.46     -17.16       2.15        0.00      73.75       1.62       2.33       3.37       ----

> <Gold.Chemscore.Fitness>
11.4573

> <Gold.Chemscore.DG>
-17.1577

> <Gold.Chemscore.ZeroCoef>
-5.4800

> <Gold.Chemscore.Hbond>
2.1548

> <Gold.Chemscore.Metal>
0.0000

> <Gold.Chemscore.Lipo>
73.7520

> <Gold.Chemscore.Internal_Hbond>
0.0000

> <Gold.Chemscore.DEClash>
2.3324

> <Gold.Chemscore.DEInternal>
3.3680

> <Gold.Chemscore.Rot>
1.6204

> <Gold.Chemscore.Internal.Correction>
   9.000000E+99

> <Gold.Chemscore.Hbonds>
donor molecule, donor type, donor heavy atom, donor atom, acceptor molecule, acceptor atom, score
      L1  H    10    33       P1  7957  0.98
      P1  H  7954  7966       L1    14  0.87
      P1  H  7989  7998       L1     4  0.26

> <Gold.Chemscore.Hbond.Weighted>
-7.1969

> <Gold.Chemscore.Metal.Weighted>
-0.0000

> <Gold.Chemscore.Lipo.Weighted>
-8.6290

> <Gold.Chemscore.Internal_Hbond.Weighted>
0.0000

> <Gold.Chemscore.DEClash.Weighted>
2.3324

> <Gold.Chemscore.DEInternal.Weighted>
3.3680

> <Gold.Chemscore.Rot.Weighted>
4.1482

> <Gold.Chemscore.Internal.Correction.Weighted>
   9.000000E+99

> <Gold.Protein.RotatedTorsions>
[ 6907 6896 6895 6894 ] final  -75.26 input  -60.11 | X-H torsion
[ 7974 7965 7964 7962 ] final    1.84 input  175.53 | X-H torsion
[ 8008 7997 7996 7995 ] final  108.98 input   59.86 | X-H torsion
[ 10167 10162 10161 10158 ] final    9.18 input  -65.29 | X-H torsion
[ 10718 10713 10712 10709 ] final   10.33 input   66.30 | X-H torsion
[ 10763 10752 10751 10750 ] final  -58.13 input  -60.55 | X-H torsion
[ 11005 11000 10999 10996 ] final  169.64 input  -57.11 | X-H torsion

> <Gold.Protein.ActiveResidues>
 VAL166  LYS551  ARG553  GLY616  TRP617  ASP618  TYR619  PRO620  LYS621  CYS622 
 ASP623  PHE694  ASN695  SER759  ASP760  ASP761  ALA762  ILE779  LEU786  VAL792 
 PHE793  MET794  SER795  GLU796  ALA797  LYS798  CYS799  TRP800  GLU811  SER814 

> <Gold.Protein.RotatedAtoms>
  150.7065  134.4747  159.5441 H   0  0  0  0  0  0  0  0  0  0  0  0  # atno 6907 bound_to 6896
  152.2396  134.8238  160.0471 H   0  0  0  0  0  0  0  0  0  0  0  0  # atno 6908 bound_to 6896
  151.9025  133.3506  159.3872 H   0  0  0  0  0  0  0  0  0  0  0  0  # atno 6909 bound_to 6896
  146.2442  140.0927  142.8351 H   0  0  0  0  0  0  0  0  0  0  0  0  # atno 7974 bound_to 7965
  156.1945  140.3066  155.9399 H   0  0  0  0  0  0  0  0  0  0  0  0  # atno 8008 bound_to 7997
  155.3098  140.0450  157.3051 H   0  0  0  0  0  0  0  0  0  0  0  0  # atno 8009 bound_to 7997
  154.5492  140.2286  155.8522 H   0  0  0  0  0  0  0  0  0  0  0  0  # atno 8010 bound_to 7997
  140.6270  143.8079  150.7246 H   0  0  0  0  0  0  0  0  0  0  0  0  # atno 10167 bound_to 10162
  156.9793  130.5999  149.5675 H   0  0  0  0  0  0  0  0  0  0  0  0  # atno 10718 bound_to 10713
  154.2333  135.6356  153.5182 H   0  0  0  0  0  0  0  0  0  0  0  0  # atno 10763 bound_to 10752
  152.9944  135.5524  154.5989 H   0  0  0  0  0  0  0  0  0  0  0  0  # atno 10764 bound_to 10752
  154.5477  135.2899  155.1012 H   0  0  0  0  0  0  0  0  0  0  0  0  # atno 10765 bound_to 10752
  140.2999  134.7604  157.3907 H   0  0  0  0  0  0  0  0  0  0  0  0  # atno 11005 bound_to 11000
  145.0637  140.9106  143.4923 LP  0  0  0  0  0  0  0  0  0  0  0  0  # atno 17320 bound_to 7965
  145.1047  139.2798  143.5668 LP  0  0  0  0  0  0  0  0  0  0  0  0  # atno 17321 bound_to 7965
  140.1682  143.4217  152.2020 LP  0  0  0  0  0  0  0  0  0  0  0  0  # atno 17342 bound_to 10162
  139.5489  144.7321  151.4497 LP  0  0  0  0  0  0  0  0  0  0  0  0  # atno 17343 bound_to 10162
  156.0251  130.5345  150.8383 LP  0  0  0  0  0  0  0  0  0  0  0  0  # atno 17370 bound_to 10713
  157.5537  131.0944  150.9659 LP  0  0  0  0  0  0  0  0  0  0  0  0  # atno 17371 bound_to 10713
  140.1119  134.5334  155.8259 LP  0  0  0  0  0  0  0  0  0  0  0  0  # atno 17394 bound_to 11000
  141.2130  133.6727  156.6705 LP  0  0  0  0  0  0  0  0  0  0  0  0  # atno 17395 bound_to 11000

$$$$
