AV-unprocessed.smi:770|AV-procd|sdf|3679|dock4
  -GOLD-   22720 1 93D 1   1.00000     0.00000
 Structure written by MMmdl.
 37 38  0  0  0  0  0  0  0  0  1 V2000
  147.4541  145.2236  161.0629 C   0  0  0  0  0  0  0  0  0  0  0  0
  146.9966  144.3035  160.4031 C   0  0  0  0  0  0  0  0  0  0  0  0
  146.4482  143.2085  159.5837 C   0  0  0  0  0  0  0  0  0  0  0  0
  146.9407  143.2364  158.2112 N   0  0  0  0  0  0  0  0  0  0  0  0
  146.6503  142.3256  157.2712 C   0  0  0  0  0  0  0  0  0  0  0  0
  145.8744  141.3848  157.4404 O   0  0  0  0  0  0  0  0  0  0  0  0
  147.3418  142.5386  156.1419 N   0  0  0  0  0  0  0  0  0  0  0  0
  147.3567  141.6507  154.9810 C   0  0  0  0  0  0  0  0  0  0  0  0
  148.7686  141.4998  154.3780 C   0  0  0  0  0  0  0  0  0  0  0  0
  149.8257  141.1908  155.3983 C   0  0  0  0  0  0  0  0  0  0  0  0
  150.6434  140.0876  155.4301 C   0  0  0  0  0  0  0  0  0  0  0  0
  151.7885  140.1639  156.7404 S   0  0  0  0  0  0  0  0  0  0  0  0
  151.0875  141.7074  157.2167 C   0  0  0  0  0  0  0  0  0  0  0  0
  151.5627  142.4302  158.3065 N   0  0  0  0  0  0  0  0  0  0  0  0
  152.1707  141.8739  159.5111 C   0  0  0  0  0  0  0  0  0  0  0  0
  152.7963  143.0276  160.2908 C   0  0  0  0  0  0  0  0  0  0  0  0
  151.8904  144.1876  159.9270 C   0  0  0  0  0  0  0  0  0  0  0  0
  151.5375  143.8800  158.4735 C   0  0  0  0  0  0  0  0  0  0  0  0
  150.0786  142.0962  156.4331 N   0  0  0  0  0  0  0  0  0  0  0  0
  147.8547  146.0315  161.6326 H   0  0  0  0  0  0  0  0  0  0  0  0
  146.6815  142.2586  160.0672 H   0  0  0  0  0  0  0  0  0  0  0  0
  145.3627  143.3069  159.5732 H   0  0  0  0  0  0  0  0  0  0  0  0
  147.5899  143.9728  157.9762 H   0  0  0  0  0  0  0  0  0  0  0  0
  147.9500  143.3435  156.1041 H   0  0  0  0  0  0  0  0  0  0  0  0
  146.9559  140.6703  155.2439 H   0  0  0  0  0  0  0  0  0  0  0  0
  146.6815  142.0622  154.2306 H   0  0  0  0  0  0  0  0  0  0  0  0
  148.7484  140.7173  153.6187 H   0  0  0  0  0  0  0  0  0  0  0  0
  149.0275  142.4163  153.8467 H   0  0  0  0  0  0  0  0  0  0  0  0
  150.6584  139.2504  154.7485 H   0  0  0  0  0  0  0  0  0  0  0  0
  151.3895  141.3937  160.1012 H   0  0  0  0  0  0  0  0  0  0  0  0
  152.9134  141.1153  159.2626 H   0  0  0  0  0  0  0  0  0  0  0  0
  152.8453  142.8396  161.3636 H   0  0  0  0  0  0  0  0  0  0  0  0
  153.8080  143.2180  159.9301 H   0  0  0  0  0  0  0  0  0  0  0  0
  150.9906  144.1632  160.5435 H   0  0  0  0  0  0  0  0  0  0  0  0
  152.3654  145.1607  160.0541 H   0  0  0  0  0  0  0  0  0  0  0  0
  152.2758  144.3179  157.8008 H   0  0  0  0  0  0  0  0  0  0  0  0
  150.5618  144.2902  158.2108 H   0  0  0  0  0  0  0  0  0  0  0  0
  1  2  3  0  0  0  0
  1 20  1  0  0  0  0
  2  3  1  0  0  0  0
  3  4  1  0  0  0  0
  3 21  1  0  0  0  0
  3 22  1  0  0  0  0
  4  5  1  0  0  0  0
  4 23  1  0  0  0  0
  5  6  2  0  0  0  0
  5  7  1  0  0  0  0
  7  8  1  0  0  0  0
  7 24  1  0  0  0  0
  8  9  1  0  0  0  0
  8 25  1  0  0  0  0
  8 26  1  0  0  0  0
  9 10  1  0  0  0  0
  9 27  1  0  0  0  0
  9 28  1  0  0  0  0
 10 19  1  0  0  0  0
 10 11  2  0  0  0  0
 11 12  1  0  0  0  0
 11 29  1  0  0  0  0
 12 13  1  0  0  0  0
 13 14  1  0  0  0  0
 13 19  2  0  0  0  0
 14 18  1  0  0  0  0
 14 15  1  0  0  0  0
 15 16  1  0  0  0  0
 15 30  1  0  0  0  0
 15 31  1  0  0  0  0
 16 17  1  0  0  0  0
 16 32  1  0  0  0  0
 16 33  1  0  0  0  0
 17 18  1  0  0  0  0
 17 34  1  0  0  0  0
 17 35  1  0  0  0  0
 18 36  1  0  0  0  0
 18 37  1  0  0  0  0
M  END
> <s_m_source_file>
AV-unprocessed.smi

> <i_m_source_file_index>
770

> <i_lp_mmshare_version>
43012

> <i_f3d_flags>
0

> <s_epik_input>
W0NIXSNDW0NIMl1bTkhdQyg9TylbTkhdW0NIMl1bQ0gyXWMxW2NIXXNjKG4xKU4yW0NIMl1bQ0gyXVtDSDJdW0NIMl0y

> <s_epik_cmdline>
J2VwaWtfcHl0aG9uJywgJy1waCcsICc3LjAnLCAnLXRuJywgJzgnLCAnLW1hJywgJzIwMCcsICctbWV0YWxfYmluZGluZycsICctaW1hZScsICc8aW5maWxlLm1hZT4nLCAnLW9tYWUnLCAnPG91dGZpbGUubWFlPic=

> <r_epik_Ionization_Penalty>
0.174338

> <r_epik_Ionization_Penalty_Charging>
0

> <r_epik_Ionization_Penalty_Neutral>
0.174338

> <r_epik_State_Penalty>
0.163676

> <r_epik_Charging_Adjusted_Penalty>
0.163676

> <i_epik_Tot_Q>
0

> <i_epik_Tot_abs_Q>
0

> <r_epik_Metal_State_Penalty>
0.126089

> <b_epik_Metal_Only>
0

> <s_lp_Force_Field>
OPLS_2005

> <r_lp_Energy>
12.0865

> <b_lp_Chiralities_Consistent>
1

> <s_lp_Variant>
AV-unprocessed.smi:770-1

> <Gold.Version>
5.8.1

> <Gold.Id.Protein>
6NUR|6NUR_protein|mol2

> <Gold.PLP.Fitness>
45.3279

> <Gold.PLP.PLP>
-41.0995

> <Gold.PLP.part.hbond>
-2.0000

> <Gold.PLP.part.metal>
0.0000

> <Gold.PLP.part.buried>
-4.9302

> <Gold.PLP.part.nonpolar>
-35.5185

> <Gold.PLP.part.repulsive>
1.3348

> <Gold.PLP.ligand.clash>
0.0000

> <Gold.PLP.ligand.torsion>
0.5350

> <Gold.PLP.Chemscore.Hbond>
1.7616

> <Gold.PLP.Chemscore.CHOScore>
0.0000

> <Gold.PLP.Chemscore.Metal>
0.0000

> <Gold.Chemscore.Hbonds>
donor molecule, donor type, donor heavy atom, donor atom, acceptor molecule, acceptor atom, score
      L1  H     4    23       P1  8029  0.63
      L1  H     7    24       P1  8028  0.95

> <Gold.PLP.Chemscore.Internal.Correction>
0.0135

> <Gold.Rescore>
     Score         DG    S(hbond)    S(metal)    S(lipo)     H(rot)  DE(clash)    DE(int)     intcor
     13.00     -14.92       0.91        0.00      92.39       1.73       0.09       1.82       ----

> <Gold.Chemscore.Fitness>
13.0044

> <Gold.Chemscore.DG>
-14.9223

> <Gold.Chemscore.ZeroCoef>
-5.4800

> <Gold.Chemscore.Hbond>
0.9139

> <Gold.Chemscore.Metal>
0.0000

> <Gold.Chemscore.Lipo>
92.3946

> <Gold.Chemscore.Internal_Hbond>
0.0000

> <Gold.Chemscore.DEClash>
0.0936

> <Gold.Chemscore.DEInternal>
1.8243

> <Gold.Chemscore.Rot>
1.7267

> <Gold.Chemscore.Internal.Correction>
   9.000000E+99

> <Gold.Chemscore.Hbonds>
donor molecule, donor type, donor heavy atom, donor atom, acceptor molecule, acceptor atom, score
      L1  H     4    23       P1  8029  0.09
      L1  H     7    24       P1  8028  0.22

> <Gold.Chemscore.Hbond.Weighted>
-3.0525

> <Gold.Chemscore.Metal.Weighted>
-0.0000

> <Gold.Chemscore.Lipo.Weighted>
-10.8102

> <Gold.Chemscore.Internal_Hbond.Weighted>
0.0000

> <Gold.Chemscore.DEClash.Weighted>
0.0936

> <Gold.Chemscore.DEInternal.Weighted>
1.8243

> <Gold.Chemscore.Rot.Weighted>
4.4204

> <Gold.Chemscore.Internal.Correction.Weighted>
   9.000000E+99

> <Gold.Protein.RotatedTorsions>
[ 6907 6896 6895 6894 ] final   96.20 input  -60.11 | X-H torsion
[ 7974 7965 7964 7962 ] final -179.37 input  175.53 | X-H torsion
[ 8008 7997 7996 7995 ] final   10.41 input   59.86 | X-H torsion
[ 10167 10162 10161 10158 ] final  102.76 input  -65.29 | X-H torsion
[ 10718 10713 10712 10709 ] final -154.50 input   66.30 | X-H torsion
[ 10763 10752 10751 10750 ] final   95.30 input  -60.55 | X-H torsion
[ 11005 11000 10999 10996 ] final -139.68 input  -57.11 | X-H torsion

> <Gold.Protein.ActiveResidues>
 VAL166  LYS551  ARG553  GLY616  TRP617  ASP618  TYR619  PRO620  LYS621  CYS622 
 ASP623  PHE694  ASN695  SER759  ASP760  ASP761  ALA762  ILE779  LEU786  VAL792 
 PHE793  MET794  SER795  GLU796  ALA797  LYS798  CYS799  TRP800  GLU811  SER814 

> <Gold.Protein.RotatedAtoms>
  152.5437  134.0923  159.8281 H   0  0  0  0  0  0  0  0  0  0  0  0  # atno 6907 bound_to 6896
  151.1011  133.5235  159.2617 H   0  0  0  0  0  0  0  0  0  0  0  0  # atno 6908 bound_to 6896
  151.1990  135.0443  159.8918 H   0  0  0  0  0  0  0  0  0  0  0  0  # atno 6909 bound_to 6896
  144.7136  140.0728  143.6428 H   0  0  0  0  0  0  0  0  0  0  0  0  # atno 7974 bound_to 7965
  154.7930  140.2839  155.5977 H   0  0  0  0  0  0  0  0  0  0  0  0  # atno 8008 bound_to 7997
  156.2967  140.2601  156.2710 H   0  0  0  0  0  0  0  0  0  0  0  0  # atno 8009 bound_to 7997
  154.9648  140.0377  157.2196 H   0  0  0  0  0  0  0  0  0  0  0  0  # atno 8010 bound_to 7997
  139.7322  144.7033  151.0705 H   0  0  0  0  0  0  0  0  0  0  0  0  # atno 10167 bound_to 10162
  156.5001  130.8387  151.2606 H   0  0  0  0  0  0  0  0  0  0  0  0  # atno 10718 bound_to 10713
  153.2516  135.4259  155.0803 H   0  0  0  0  0  0  0  0  0  0  0  0  # atno 10763 bound_to 10752
  154.8384  135.3427  154.6505 H   0  0  0  0  0  0  0  0  0  0  0  0  # atno 10764 bound_to 10752
  153.6926  135.7033  153.5142 H   0  0  0  0  0  0  0  0  0  0  0  0  # atno 10765 bound_to 10752
  140.8496  134.2302  157.4767 H   0  0  0  0  0  0  0  0  0  0  0  0  # atno 11005 bound_to 11000
  145.9769  139.2911  143.1065 LP  0  0  0  0  0  0  0  0  0  0  0  0  # atno 17320 bound_to 7965
  145.9054  140.9215  143.0481 LP  0  0  0  0  0  0  0  0  0  0  0  0  # atno 17321 bound_to 7965
  140.7773  143.5029  150.9748 LP  0  0  0  0  0  0  0  0  0  0  0  0  # atno 17342 bound_to 10162
  139.8717  143.7183  152.3165 LP  0  0  0  0  0  0  0  0  0  0  0  0  # atno 17343 bound_to 10162
  157.7464  130.9984  150.2853 LP  0  0  0  0  0  0  0  0  0  0  0  0  # atno 17370 bound_to 10713
  156.3341  130.3805  149.7465 LP  0  0  0  0  0  0  0  0  0  0  0  0  # atno 17371 bound_to 10713
  139.8704  134.9677  156.4604 LP  0  0  0  0  0  0  0  0  0  0  0  0  # atno 17394 bound_to 11000
  140.8805  133.7922  155.9461 LP  0  0  0  0  0  0  0  0  0  0  0  0  # atno 17395 bound_to 11000

$$$$
