AV-unprocessed.smi:1815|AV-procd|sdf|7362|dock9
  -GOLD-   22720 9 23D 1   1.00000     0.00000
 Structure written by MMmdl.
 39 40  0  0  0  0  0  0  0  0  3 V2000
  153.9924  141.1181  160.7649 C   0  0  0  0  0  0  0  0  0  0  0  0
  152.6508  141.5581  160.1684 C   0  0  2  0  0  0  0  0  0  0  0  0
  152.1634  140.5992  159.0659 C   0  0  0  0  0  0  0  0  0  0  0  0
  150.9074  141.0973  158.4564 N   0  3  2  0  0  0  0  0  0  0  0  0
  150.3752  140.1687  157.4284 C   0  0  0  0  0  0  0  0  0  0  0  0
  150.4462  138.6982  157.8684 C   0  0  0  0  0  0  0  0  0  0  0  0
  149.3955  138.4112  158.8345 N   0  0  0  0  0  0  0  0  0  0  0  0
  149.1673  137.2174  159.3968 C   0  0  0  0  0  0  0  0  0  0  0  0
  149.8764  136.2533  159.0999 O   0  0  0  0  0  0  0  0  0  0  0  0
  148.1326  137.2184  160.2668 N   0  5  0  0  0  0  0  0  0  0  0  0
  147.7743  136.0836  160.8892 C   0  0  0  0  0  0  0  0  0  0  0  0
  147.7994  134.8872  160.2911 N   0  0  0  0  0  0  0  0  0  0  0  0
  147.3981  133.8411  161.1243 C   0  0  0  0  0  0  0  0  0  0  0  0
  147.0687  134.2497  162.3895 C   0  0  0  0  0  0  0  0  0  0  0  0
  147.2509  135.9712  162.5723 S   0  0  0  0  0  0  0  0  0  0  0  0
  151.0875  142.4871  157.9691 C   0  0  0  0  0  0  0  0  0  0  0  0
  151.6018  143.3943  159.1029 C   0  0  2  0  0  0  0  0  0  0  0  0
  151.8741  144.8236  158.6207 C   0  0  0  0  0  0  0  0  0  0  0  0
  152.8174  142.8582  159.6136 O   0  0  0  0  0  0  0  0  0  0  0  0
  153.9174  140.1285  161.2160 H   0  0  0  0  0  0  0  0  0  0  0  0
  154.3203  141.8113  161.5402 H   0  0  0  0  0  0  0  0  0  0  0  0
  154.7712  141.0801  160.0026 H   0  0  0  0  0  0  0  0  0  0  0  0
  151.9126  141.6018  160.9711 H   0  0  0  0  0  0  0  0  0  0  0  0
  152.9255  140.4944  158.2913 H   0  0  0  0  0  0  0  0  0  0  0  0
  151.9986  139.6079  159.4902 H   0  0  0  0  0  0  0  0  0  0  0  0
  149.3513  140.4470  157.1735 H   0  0  0  0  0  0  0  0  0  0  0  0
  150.9623  140.2778  156.5150 H   0  0  0  0  0  0  0  0  0  0  0  0
  150.3312  138.0381  157.0074 H   0  0  0  0  0  0  0  0  0  0  0  0
  151.4112  138.4756  158.3242 H   0  0  0  0  0  0  0  0  0  0  0  0
  148.7921  139.1744  159.1042 H   0  0  0  0  0  0  0  0  0  0  0  0
  147.3796  132.8348  160.7331 H   0  0  0  0  0  0  0  0  0  0  0  0
  146.7332  133.6477  163.2203 H   0  0  0  0  0  0  0  0  0  0  0  0
  151.7897  142.4921  157.1337 H   0  0  0  0  0  0  0  0  0  0  0  0
  150.1444  142.8841  157.5952 H   0  0  0  0  0  0  0  0  0  0  0  0
  150.8626  143.4353  159.9049 H   0  0  0  0  0  0  0  0  0  0  0  0
  150.9685  145.2833  158.2240 H   0  0  0  0  0  0  0  0  0  0  0  0
  152.6292  144.8383  157.8343 H   0  0  0  0  0  0  0  0  0  0  0  0
  152.2329  145.4491  159.4385 H   0  0  0  0  0  0  0  0  0  0  0  0
  150.2224  141.1280  159.1982 H   0  0  0  0  0  0  0  0  0  0  0  0
  1  2  1  0  0  0  0
  1 20  1  0  0  0  0
  1 21  1  0  0  0  0
  1 22  1  0  0  0  0
  2 19  1  0  0  0  0
  2  3  1  0  0  0  0
  2 23  1  0  0  0  0
  3  4  1  0  0  0  0
  3 24  1  0  0  0  0
  3 25  1  0  0  0  0
  4  5  1  0  0  0  0
  4 16  1  0  0  0  0
  4 39  1  0  0  0  0
  5  6  1  0  0  0  0
  5 26  1  0  0  0  0
  5 27  1  0  0  0  0
  6  7  1  0  0  0  0
  6 28  1  0  0  0  0
  6 29  1  0  0  0  0
  7  8  1  0  0  0  0
  7 30  1  0  0  0  0
  8  9  2  0  0  0  0
  8 10  1  0  0  0  0
 10 11  1  0  0  0  0
 11 15  1  0  0  0  0
 11 12  2  0  0  0  0
 12 13  1  0  0  0  0
 13 14  2  0  0  0  0
 13 31  1  0  0  0  0
 14 15  1  0  0  0  0
 14 32  1  0  0  0  0
 16 17  1  0  0  0  0
 16 33  1  0  0  0  0
 16 34  1  0  0  0  0
 17 18  1  0  0  0  0
 17 19  1  0  0  0  0
 17 35  1  0  0  0  0
 18 36  1  0  0  0  0
 18 37  1  0  0  0  0
 18 38  1  0  0  0  0
M  CHG  1   4   1
M  CHG  1  10  -1
M  END
> <s_m_source_file>
AV-unprocessed.smi

> <i_m_source_file_index>
1815

> <i_lp_mmshare_version>
43012

> <i_f3d_flags>
0

> <s_epik_input>
W0NIM11bQ0BASF0xW0NIMl1OKFtDSDJdW0NASF0oTzEpW0NIM10pW0NIMl1bQ0gyXVtOSF1DKD1PKVtOSF1jMm5bY0hdW2NIXXMy

> <s_epik_cmdline>
J2VwaWtfcHl0aG9uJywgJy1waCcsICc3LjAnLCAnLXRuJywgJzgnLCAnLW1hJywgJzIwMCcsICctbWV0YWxfYmluZGluZycsICctaW1hZScsICc8aW5maWxlLm1hZT4nLCAnLW9tYWUnLCAnPG91dGZpbGUubWFlPic=

> <r_lp_tautomer_probability>
0.999

> <r_epik_Ionization_Penalty>
6.71699

> <r_epik_Ionization_Penalty_Charging>
5.88592

> <r_epik_Ionization_Penalty_Neutral>
0.831074

> <r_epik_State_Penalty>
6.08365

> <r_epik_Charging_Adjusted_Penalty>
11.9696

> <i_epik_Tot_Q>
0

> <i_epik_Tot_abs_Q>
2

> <r_epik_Metal_State_Penalty>
2.0947

> <b_epik_Metal_Only>
1

> <s_lp_Force_Field>
OPLS_2005

> <r_lp_Energy>
4.96906

> <b_lp_Chiralities_Consistent>
1

> <s_lp_Variant>
AV-unprocessed.smi:1815-13

> <Gold.Version>
5.8.1

> <Gold.Id.Protein>
6NUR|6NUR_protein|mol2

> <Gold.PLP.Fitness>
48.7450

> <Gold.PLP.PLP>
-39.6775

> <Gold.PLP.part.hbond>
-3.0000

> <Gold.PLP.part.metal>
0.0000

> <Gold.PLP.part.buried>
-5.4183

> <Gold.PLP.part.nonpolar>
-32.9244

> <Gold.PLP.part.repulsive>
0.3767

> <Gold.PLP.ligand.clash>
0.0000

> <Gold.PLP.ligand.torsion>
0.4478

> <Gold.PLP.Chemscore.Hbond>
3.3008

> <Gold.PLP.Chemscore.CHOScore>
0.0000

> <Gold.PLP.Chemscore.Metal>
0.0000

> <Gold.Chemscore.Hbonds>
donor molecule, donor type, donor heavy atom, donor atom, acceptor molecule, acceptor atom, score
      P1  H  6896  6909       L1     9  1.00
      P1  H  6931  6943       L1    10  0.98
      P1  H  6934  6947       L1    10  1.03

> <Gold.PLP.Chemscore.Internal.Correction>
0.0608

> <Gold.Rescore>
     Score         DG    S(hbond)    S(metal)    S(lipo)     H(rot)  DE(clash)    DE(int)     intcor
     15.76     -17.77       1.67        0.00      92.62       1.61       0.13       1.88       ----

> <Gold.Chemscore.Fitness>
15.7630

> <Gold.Chemscore.DG>
-17.7746

> <Gold.Chemscore.ZeroCoef>
-5.4800

> <Gold.Chemscore.Hbond>
1.6673

> <Gold.Chemscore.Metal>
0.0000

> <Gold.Chemscore.Lipo>
92.6236

> <Gold.Chemscore.Internal_Hbond>
0.0000

> <Gold.Chemscore.DEClash>
0.1274

> <Gold.Chemscore.DEInternal>
1.8842

> <Gold.Chemscore.Rot>
1.6060

> <Gold.Chemscore.Internal.Correction>
   9.000000E+99

> <Gold.Chemscore.Hbonds>
donor molecule, donor type, donor heavy atom, donor atom, acceptor molecule, acceptor atom, score
      P1  H  6896  6909       L1     9  0.99
      P1  H  6931  6943       L1    10  0.03
      P1  H  6934  6947       L1    10  0.47

> <Gold.Chemscore.Hbond.Weighted>
-5.5689

> <Gold.Chemscore.Metal.Weighted>
-0.0000

> <Gold.Chemscore.Lipo.Weighted>
-10.8370

> <Gold.Chemscore.Internal_Hbond.Weighted>
0.0000

> <Gold.Chemscore.DEClash.Weighted>
0.1274

> <Gold.Chemscore.DEInternal.Weighted>
1.8842

> <Gold.Chemscore.Rot.Weighted>
4.1112

> <Gold.Chemscore.Internal.Correction.Weighted>
   9.000000E+99

> <Gold.Protein.RotatedTorsions>
[ 6907 6896 6895 6894 ] final   58.10 input  -60.11 | X-H torsion
[ 7974 7965 7964 7962 ] final  152.47 input  175.53 | X-H torsion
[ 8008 7997 7996 7995 ] final   81.50 input   59.86 | X-H torsion
[ 10167 10162 10161 10158 ] final  169.46 input  -65.29 | X-H torsion
[ 10718 10713 10712 10709 ] final  132.53 input   66.30 | X-H torsion
[ 10763 10752 10751 10750 ] final    7.39 input  -60.55 | X-H torsion
[ 11005 11000 10999 10996 ] final   70.72 input  -57.11 | X-H torsion

> <Gold.Protein.ActiveResidues>
 VAL166  LYS551  ARG553  GLY616  TRP617  ASP618  TYR619  PRO620  LYS621  CYS622 
 ASP623  PHE694  ASN695  SER759  ASP760  ASP761  ALA762  ILE779  LEU786  VAL792 
 PHE793  MET794  SER795  GLU796  ALA797  LYS798  CYS799  TRP800  GLU811  SER814 

> <Gold.Protein.RotatedAtoms>
  152.3793  134.6616  160.0148 H   0  0  0  0  0  0  0  0  0  0  0  0  # atno 6907 bound_to 6896
  151.6884  133.3306  159.3244 H   0  0  0  0  0  0  0  0  0  0  0  0  # atno 6908 bound_to 6896
  150.7734  134.6656  159.6408 H   0  0  0  0  0  0  0  0  0  0  0  0  # atno 6909 bound_to 6896
  144.8220  139.6672  143.6096 H   0  0  0  0  0  0  0  0  0  0  0  0  # atno 7974 bound_to 7965
  155.8979  140.3435  155.6005 H   0  0  0  0  0  0  0  0  0  0  0  0  # atno 8008 bound_to 7997
  155.7534  140.0823  157.2209 H   0  0  0  0  0  0  0  0  0  0  0  0  # atno 8009 bound_to 7997
  154.4040  140.1549  156.2737 H   0  0  0  0  0  0  0  0  0  0  0  0  # atno 8010 bound_to 7997
  139.4993  144.3703  151.9731 H   0  0  0  0  0  0  0  0  0  0  0  0  # atno 10167 bound_to 10162
  157.4862  131.1088  150.9616 H   0  0  0  0  0  0  0  0  0  0  0  0  # atno 10718 bound_to 10713
  153.2368  135.6899  153.7828 H   0  0  0  0  0  0  0  0  0  0  0  0  # atno 10763 bound_to 10752
  153.6972  135.3303  155.3217 H   0  0  0  0  0  0  0  0  0  0  0  0  # atno 10764 bound_to 10752
  154.8338  135.4559  154.1274 H   0  0  0  0  0  0  0  0  0  0  0  0  # atno 10765 bound_to 10752
  139.9582  134.7106  156.0704 H   0  0  0  0  0  0  0  0  0  0  0  0  # atno 11005 bound_to 11000
  146.2526  139.6232  142.9417 LP  0  0  0  0  0  0  0  0  0  0  0  0  # atno 17320 bound_to 7965
  145.5083  141.0436  143.2502 LP  0  0  0  0  0  0  0  0  0  0  0  0  # atno 17321 bound_to 7965
  140.3140  144.3505  150.6026 LP  0  0  0  0  0  0  0  0  0  0  0  0  # atno 17342 bound_to 10162
  140.5776  143.2175  151.7486 LP  0  0  0  0  0  0  0  0  0  0  0  0  # atno 17343 bound_to 10162
  157.0333  130.5720  149.5346 LP  0  0  0  0  0  0  0  0  0  0  0  0  # atno 17370 bound_to 10713
  156.0148  130.5242  150.8101 LP  0  0  0  0  0  0  0  0  0  0  0  0  # atno 17371 bound_to 10713
  141.1257  133.6600  156.3329 LP  0  0  0  0  0  0  0  0  0  0  0  0  # atno 17394 bound_to 11000
  140.5560  134.5981  157.5421 LP  0  0  0  0  0  0  0  0  0  0  0  0  # atno 17395 bound_to 11000

$$$$
