AV-unprocessed.smi:2481|AV-procd|sdf|9774|dock7
  -GOLD-   2272013413D 1   1.00000     0.00000
 Structure written by MMmdl.
 37 38  0  0  0  0  0  0  0  0  1 V2000
  147.5295  132.9227  152.2279 C   0  0  0  0  0  0  0  0  0  0  0  0
  148.4416  132.4204  153.2372 N   0  0  0  0  0  0  0  0  0  0  0  0
  148.5324  131.0949  153.4968 N   0  0  0  0  0  0  0  0  0  0  0  0
  149.4566  131.0465  154.4565 C   0  0  0  0  0  0  0  0  0  0  0  0
  149.9798  132.2469  154.8455 N   0  0  0  0  0  0  0  0  0  0  0  0
  149.2992  133.0567  154.0404 C   0  0  0  0  0  0  0  0  0  0  0  0
  149.4156  134.4713  153.9811 N   0  0  0  0  0  0  0  0  0  0  0  0
  149.8880  135.2999  154.9274 C   0  0  0  0  0  0  0  0  0  0  0  0
  150.3183  134.9510  156.0269 O   0  0  0  0  0  0  0  0  0  0  0  0
  149.8353  136.5767  154.5217 N   0  0  0  0  0  0  0  0  0  0  0  0
  150.2662  137.7349  155.3029 C   0  0  1  0  0  0  0  0  0  0  0  0
  151.7133  137.5081  155.7897 C   0  0  0  0  0  0  0  0  0  0  0  0
  152.2536  138.7204  156.5596 C   0  0  0  0  0  0  0  0  0  0  0  0
  152.1568  139.9934  155.7103 C   0  0  0  0  0  0  0  0  0  0  0  0
  150.7130  140.2360  155.2476 C   0  0  0  0  0  0  0  0  0  0  0  0
  150.1429  139.0328  154.4617 C   0  0  2  0  0  0  0  0  0  0  0  0
  148.6881  139.3015  154.0150 C   0  0  0  0  0  0  0  0  0  0  0  0
  148.3506  138.5098  152.8949 O   0  0  0  0  0  0  0  0  0  0  0  0
  146.8988  133.7018  152.6571 H   0  0  0  0  0  0  0  0  0  0  0  0
  146.8924  132.1203  151.8532 H   0  0  0  0  0  0  0  0  0  0  0  0
  148.0987  133.3411  151.3975 H   0  0  0  0  0  0  0  0  0  0  0  0
  149.7664  130.1086  154.8936 H   0  0  0  0  0  0  0  0  0  0  0  0
  149.1022  134.8984  153.1222 H   0  0  0  0  0  0  0  0  0  0  0  0
  149.4682  136.7665  153.6006 H   0  0  0  0  0  0  0  0  0  0  0  0
  149.6198  137.8402  156.1766 H   0  0  0  0  0  0  0  0  0  0  0  0
  151.7606  136.6244  156.4271 H   0  0  0  0  0  0  0  0  0  0  0  0
  152.3622  137.3065  154.9362 H   0  0  0  0  0  0  0  0  0  0  0  0
  151.6887  138.8506  157.4836 H   0  0  0  0  0  0  0  0  0  0  0  0
  153.2896  138.5449  156.8510 H   0  0  0  0  0  0  0  0  0  0  0  0
  152.5125  140.8503  156.2832 H   0  0  0  0  0  0  0  0  0  0  0  0
  152.8114  139.9078  154.8419 H   0  0  0  0  0  0  0  0  0  0  0  0
  150.0849  140.4382  156.1163 H   0  0  0  0  0  0  0  0  0  0  0  0
  150.6846  141.1366  154.6335 H   0  0  0  0  0  0  0  0  0  0  0  0
  150.7498  138.9030  153.5636 H   0  0  0  0  0  0  0  0  0  0  0  0
  147.9790  139.0618  154.8071 H   0  0  0  0  0  0  0  0  0  0  0  0
  148.5466  140.3546  153.7693 H   0  0  0  0  0  0  0  0  0  0  0  0
  148.7481  138.8906  152.1267 H   0  0  0  0  0  0  0  0  0  0  0  0
  1  2  1  0  0  0  0
  1 19  1  0  0  0  0
  1 20  1  0  0  0  0
  1 21  1  0  0  0  0
  2  6  1  0  0  0  0
  2  3  1  0  0  0  0
  3  4  2  0  0  0  0
  4  5  1  0  0  0  0
  4 22  1  0  0  0  0
  5  6  2  0  0  0  0
  6  7  1  0  0  0  0
  7  8  1  0  0  0  0
  7 23  1  0  0  0  0
  8  9  2  0  0  0  0
  8 10  1  0  0  0  0
 10 11  1  0  0  0  0
 10 24  1  0  0  0  0
 11 16  1  0  0  0  0
 11 12  1  0  0  0  0
 11 25  1  0  0  0  0
 12 13  1  0  0  0  0
 12 26  1  0  0  0  0
 12 27  1  0  0  0  0
 13 14  1  0  0  0  0
 13 28  1  0  0  0  0
 13 29  1  0  0  0  0
 14 15  1  0  0  0  0
 14 30  1  0  0  0  0
 14 31  1  0  0  0  0
 15 16  1  0  0  0  0
 15 32  1  0  0  0  0
 15 33  1  0  0  0  0
 16 17  1  0  0  0  0
 16 34  1  0  0  0  0
 17 18  1  0  0  0  0
 17 35  1  0  0  0  0
 17 36  1  0  0  0  0
 18 37  1  0  0  0  0
M  END
> <s_m_source_file>
AV-unprocessed.smi

> <i_m_source_file_index>
2481

> <i_lp_mmshare_version>
43012

> <i_f3d_flags>
0

> <s_epik_input>
W0NIM11uMW5bY0hdbmMxW05IXUMoPU8pW05IXVtDQEBIXTJbQ0gyXVtDSDJdW0NIMl1bQ0gyXVtDQEhdMltDSDJdW09IXQ==

> <s_epik_cmdline>
J2VwaWtfcHl0aG9uJywgJy1waCcsICc3LjAnLCAnLXRuJywgJzgnLCAnLW1hJywgJzIwMCcsICctbWV0YWxfYmluZGluZycsICctaW1hZScsICc8aW5maWxlLm1hZT4nLCAnLW9tYWUnLCAnPG91dGZpbGUubWFlPic=

> <r_lp_tautomer_probability>
1

> <r_epik_Ionization_Penalty>
2.32704e-05

> <r_epik_Ionization_Penalty_Charging>
0

> <r_epik_Ionization_Penalty_Neutral>
2.32704e-05

> <r_epik_State_Penalty>
-0

> <r_epik_Charging_Adjusted_Penalty>
0

> <i_epik_Tot_Q>
0

> <i_epik_Tot_abs_Q>
0

> <r_epik_Metal_State_Penalty>
-0

> <b_epik_Metal_Only>
0

> <s_lp_Force_Field>
OPLS_2005

> <r_lp_Energy>
12.9645

> <b_lp_Chiralities_Consistent>
1

> <s_lp_Variant>
AV-unprocessed.smi:2481-4

> <Gold.Version>
5.8.1

> <Gold.Id.Protein>
6NUR|6NUR_protein|mol2

> <Gold.PLP.Fitness>
39.0153

> <Gold.PLP.PLP>
-31.0287

> <Gold.PLP.part.hbond>
-4.0000

> <Gold.PLP.part.metal>
0.0000

> <Gold.PLP.part.buried>
-1.7844

> <Gold.PLP.part.nonpolar>
-24.8175

> <Gold.PLP.part.repulsive>
0.1845

> <Gold.PLP.ligand.clash>
0.0000

> <Gold.PLP.ligand.torsion>
0.3506

> <Gold.PLP.Chemscore.Hbond>
2.8920

> <Gold.PLP.Chemscore.CHOScore>
0.0000

> <Gold.PLP.Chemscore.Metal>
0.0000

> <Gold.Chemscore.Hbonds>
donor molecule, donor type, donor heavy atom, donor atom, acceptor molecule, acceptor atom, score
      L1  H     7    23       P1  7948  0.70
      L1  H    10    24       P1  7948  1.00
      L1  H    18    37       P1  7957  1.00

> <Gold.PLP.Chemscore.Internal.Correction>
0.0119

> <Gold.Rescore>
     Score         DG    S(hbond)    S(metal)    S(lipo)     H(rot)  DE(clash)    DE(int)     intcor
     11.77     -14.55       2.63        0.00      45.87       1.99       0.08       2.70       ----

> <Gold.Chemscore.Fitness>
11.7712

> <Gold.Chemscore.DG>
-14.5510

> <Gold.Chemscore.ZeroCoef>
-5.4800

> <Gold.Chemscore.Hbond>
2.6325

> <Gold.Chemscore.Metal>
0.0000

> <Gold.Chemscore.Lipo>
45.8703

> <Gold.Chemscore.Internal_Hbond>
0.0000

> <Gold.Chemscore.DEClash>
0.0811

> <Gold.Chemscore.DEInternal>
2.6987

> <Gold.Chemscore.Rot>
1.9877

> <Gold.Chemscore.Internal.Correction>
   9.000000E+99

> <Gold.Chemscore.Hbonds>
donor molecule, donor type, donor heavy atom, donor atom, acceptor molecule, acceptor atom, score
      L1  H     7    23       P1  7948  0.07
      L1  H    10    24       P1  7948  0.82
      L1  H    18    37       P1  7957  0.92

> <Gold.Chemscore.Hbond.Weighted>
-8.7926

> <Gold.Chemscore.Metal.Weighted>
-0.0000

> <Gold.Chemscore.Lipo.Weighted>
-5.3668

> <Gold.Chemscore.Internal_Hbond.Weighted>
0.0000

> <Gold.Chemscore.DEClash.Weighted>
0.0811

> <Gold.Chemscore.DEInternal.Weighted>
2.6987

> <Gold.Chemscore.Rot.Weighted>
5.0885

> <Gold.Chemscore.Internal.Correction.Weighted>
   9.000000E+99

> <Gold.Protein.RotatedTorsions>
[ 6907 6896 6895 6894 ] final   78.54 input  -60.11 | X-H torsion
[ 7974 7965 7964 7962 ] final  -99.61 input  175.53 | X-H torsion
[ 8008 7997 7996 7995 ] final  -78.70 input   59.86 | X-H torsion
[ 10167 10162 10161 10158 ] final  -65.57 input  -65.29 | X-H torsion
[ 10718 10713 10712 10709 ] final   17.17 input   66.30 | X-H torsion
[ 10763 10752 10751 10750 ] final   95.96 input  -60.55 | X-H torsion
[ 11005 11000 10999 10996 ] final -163.54 input  -57.11 | X-H torsion

> <Gold.Protein.ActiveResidues>
 VAL166  LYS551  ARG553  GLY616  TRP617  ASP618  TYR619  PRO620  LYS621  CYS622 
 ASP623  PHE694  ASN695  SER759  ASP760  ASP761  ALA762  ILE779  LEU786  VAL792 
 PHE793  MET794  SER795  GLU796  ALA797  LYS798  CYS799  TRP800  GLU811  SER814 

> <Gold.Protein.RotatedAtoms>
  152.5163  134.3648  159.9297 H   0  0  0  0  0  0  0  0  0  0  0  0  # atno 6907 bound_to 6896
  151.3601  133.3886  159.2696 H   0  0  0  0  0  0  0  0  0  0  0  0  # atno 6908 bound_to 6896
  150.9659  134.9059  159.7817 H   0  0  0  0  0  0  0  0  0  0  0  0  # atno 6909 bound_to 6896
  145.3053  140.9387  143.2800 H   0  0  0  0  0  0  0  0  0  0  0  0  # atno 7974 bound_to 7965
  154.5714  140.0690  156.8970 H   0  0  0  0  0  0  0  0  0  0  0  0  # atno 8008 bound_to 7997
  155.2628  140.3359  155.4253 H   0  0  0  0  0  0  0  0  0  0  0  0  # atno 8009 bound_to 7997
  156.2121  140.1763  156.7657 H   0  0  0  0  0  0  0  0  0  0  0  0  # atno 8010 bound_to 7997
  140.5720  143.2318  151.6520 H   0  0  0  0  0  0  0  0  0  0  0  0  # atno 10167 bound_to 10162
  157.0783  130.6377  149.5820 H   0  0  0  0  0  0  0  0  0  0  0  0  # atno 10718 bound_to 10713
  153.2594  135.4235  155.0878 H   0  0  0  0  0  0  0  0  0  0  0  0  # atno 10763 bound_to 10752
  154.8414  135.3445  154.6400 H   0  0  0  0  0  0  0  0  0  0  0  0  # atno 10764 bound_to 10752
  153.6820  135.7038  153.5172 H   0  0  0  0  0  0  0  0  0  0  0  0  # atno 10765 bound_to 10752
  140.5969  134.4987  157.5200 H   0  0  0  0  0  0  0  0  0  0  0  0  # atno 11005 bound_to 11000
  144.9060  139.4588  143.6610 LP  0  0  0  0  0  0  0  0  0  0  0  0  # atno 17320 bound_to 7965
  146.3137  139.7841  142.9000 LP  0  0  0  0  0  0  0  0  0  0  0  0  # atno 17321 bound_to 7965
  139.5122  144.3483  152.0676 LP  0  0  0  0  0  0  0  0  0  0  0  0  # atno 17342 bound_to 10162
  140.2622  144.4055  150.6181 LP  0  0  0  0  0  0  0  0  0  0  0  0  # atno 17343 bound_to 10162
  155.9931  130.4991  150.7366 LP  0  0  0  0  0  0  0  0  0  0  0  0  # atno 17370 bound_to 10713
  157.4821  131.0903  151.0524 LP  0  0  0  0  0  0  0  0  0  0  0  0  # atno 17371 bound_to 10713
  139.9249  134.8075  156.1098 LP  0  0  0  0  0  0  0  0  0  0  0  0  # atno 17394 bound_to 11000
  141.0898  133.6719  156.2515 LP  0  0  0  0  0  0  0  0  0  0  0  0  # atno 17395 bound_to 11000

$$$$
