AV-unprocessed.smi:2866|AV-procd|sdf|11019|dock1
  -GOLD-   2272015483D 1   1.00000     0.00000
 Structure written by MMmdl.
 41 43  0  0  0  0  0  0  0  0  1 V2000
  151.5975  144.7218  158.4686 C   0  0  0  0  0  0  0  0  0  0  0  0
  151.5603  143.2330  158.1716 C   0  0  0  0  0  0  0  0  0  0  0  0
  151.2031  142.8000  156.8746 C   0  0  0  0  0  0  0  0  0  0  0  0
  151.1568  141.4247  156.5576 C   0  0  0  0  0  0  0  0  0  0  0  0
  150.8374  140.7853  155.3718 N   0  0  0  0  0  0  0  0  0  0  0  0
  150.9773  139.5067  155.7103 C   0  0  0  0  0  0  0  0  0  0  0  0
  151.3542  139.2423  156.9763 N   0  0  0  0  0  0  0  0  0  0  0  0
  151.5727  137.9369  157.5736 C   0  0  0  0  0  0  0  0  0  0  0  0
  150.5608  137.6250  158.6923 C   0  0  2  0  0  0  0  0  0  0  0  0
  150.6474  136.2561  159.0426 O   0  0  0  0  0  0  0  0  0  0  0  0
  149.1186  137.9726  158.2772 C   0  0  0  0  0  0  0  0  0  0  0  0
  148.1345  137.1128  158.9117 N   0  0  0  0  0  0  0  0  0  0  0  0
  147.2166  136.2780  158.3124 C   0  0  0  0  0  0  0  0  0  0  0  0
  146.5043  135.6764  159.3096 C   0  0  0  0  0  0  0  0  0  0  0  0
  147.0651  136.2092  160.5069 C   0  0  0  0  0  0  0  0  0  0  0  0
  146.6796  135.9120  161.9322 C   0  0  0  0  0  0  0  0  0  0  0  0
  146.8966  134.6267  162.2109 F   0  0  0  0  0  0  0  0  0  0  0  0
  147.4035  136.6593  162.7655 F   0  0  0  0  0  0  0  0  0  0  0  0
  145.3873  136.1790  162.1198 F   0  0  0  0  0  0  0  0  0  0  0  0
  148.0459  137.0668  160.2580 N   0  0  0  0  0  0  0  0  0  0  0  0
  151.4811  140.4875  157.5815 C   0  0  0  0  0  0  0  0  0  0  0  0
  151.8362  140.9056  158.8759 C   0  0  0  0  0  0  0  0  0  0  0  0
  151.8765  142.2833  159.1761 C   0  0  0  0  0  0  0  0  0  0  0  0
  152.2601  142.7251  160.5772 C   0  0  0  0  0  0  0  0  0  0  0  0
  151.3578  145.3109  157.5829 H   0  0  0  0  0  0  0  0  0  0  0  0
  152.5892  145.0200  158.8090 H   0  0  0  0  0  0  0  0  0  0  0  0
  150.8739  144.9736  159.2443 H   0  0  0  0  0  0  0  0  0  0  0  0
  150.9610  143.5230  156.1096 H   0  0  0  0  0  0  0  0  0  0  0  0
  150.8001  138.7162  154.9957 H   0  0  0  0  0  0  0  0  0  0  0  0
  151.5041  137.1879  156.7839 H   0  0  0  0  0  0  0  0  0  0  0  0
  152.5926  137.8933  157.9587 H   0  0  0  0  0  0  0  0  0  0  0  0
  150.8210  138.2072  159.5772 H   0  0  0  0  0  0  0  0  0  0  0  0
  149.8689  135.8181  158.7340 H   0  0  0  0  0  0  0  0  0  0  0  0
  148.8890  139.0027  158.5521 H   0  0  0  0  0  0  0  0  0  0  0  0
  149.0059  137.9075  157.1936 H   0  0  0  0  0  0  0  0  0  0  0  0
  147.1454  136.1853  157.2387 H   0  0  0  0  0  0  0  0  0  0  0  0
  145.7011  134.9627  159.2012 H   0  0  0  0  0  0  0  0  0  0  0  0
  152.0757  140.1714  159.6307 H   0  0  0  0  0  0  0  0  0  0  0  0
  152.4613  141.8699  161.2230 H   0  0  0  0  0  0  0  0  0  0  0  0
  151.4543  143.3033  161.0296 H   0  0  0  0  0  0  0  0  0  0  0  0
  153.1582  143.3427  160.5508 H   0  0  0  0  0  0  0  0  0  0  0  0
  1  2  1  0  0  0  0
  1 25  1  0  0  0  0
  1 26  1  0  0  0  0
  1 27  1  0  0  0  0
  2 23  1  0  0  0  0
  2  3  2  0  0  0  0
  3  4  1  0  0  0  0
  3 28  1  0  0  0  0
  4 21  2  0  0  0  0
  4  5  1  0  0  0  0
  5  6  2  0  0  0  0
  6  7  1  0  0  0  0
  6 29  1  0  0  0  0
  7  8  1  0  0  0  0
  7 21  1  0  0  0  0
  8  9  1  0  0  0  0
  8 30  1  0  0  0  0
  8 31  1  0  0  0  0
  9 10  1  0  0  0  0
  9 11  1  0  0  0  0
  9 32  1  0  0  0  0
 10 33  1  0  0  0  0
 11 12  1  0  0  0  0
 11 34  1  0  0  0  0
 11 35  1  0  0  0  0
 12 20  1  0  0  0  0
 12 13  1  0  0  0  0
 13 14  2  0  0  0  0
 13 36  1  0  0  0  0
 14 15  1  0  0  0  0
 14 37  1  0  0  0  0
 15 16  1  0  0  0  0
 15 20  2  0  0  0  0
 16 17  1  0  0  0  0
 16 18  1  0  0  0  0
 16 19  1  0  0  0  0
 21 22  1  0  0  0  0
 22 23  2  0  0  0  0
 22 38  1  0  0  0  0
 23 24  1  0  0  0  0
 24 39  1  0  0  0  0
 24 40  1  0  0  0  0
 24 41  1  0  0  0  0
M  END
> <s_m_source_file>
AV-unprocessed.smi

> <i_m_source_file_index>
2866

> <i_lp_mmshare_version>
43012

> <i_f3d_flags>
0

> <s_epik_input>
W0NIM11jKFtjSF0xKWMoW0NIM10pW2NIXWMoYzEyKW4oW2NIXW4yKVtDSDJdW0NASF0oW09IXSlbQ0gyXW4zW2NIXVtjSF1jKG4zKUMoRikoRilG

> <s_epik_cmdline>
J2VwaWtfcHl0aG9uJywgJy1waCcsICc3LjAnLCAnLXRuJywgJzgnLCAnLW1hJywgJzIwMCcsICctbWV0YWxfYmluZGluZycsICctaW1hZScsICc8aW5maWxlLm1hZT4nLCAnLW9tYWUnLCAnPG91dGZpbGUubWFlPic=

> <r_lp_tautomer_probability>
1

> <r_epik_Ionization_Penalty>
0.1021

> <r_epik_Ionization_Penalty_Charging>
0

> <r_epik_Ionization_Penalty_Neutral>
0.1021

> <r_epik_State_Penalty>
0.0920694

> <r_epik_Charging_Adjusted_Penalty>
0.0920694

> <i_epik_Tot_Q>
0

> <i_epik_Tot_abs_Q>
0

> <r_epik_Metal_State_Penalty>
0.0784291

> <b_epik_Metal_Only>
0

> <s_lp_Force_Field>
OPLS_2005

> <r_lp_Energy>
11.3604

> <b_lp_Chiralities_Consistent>
1

> <s_lp_Variant>
AV-unprocessed.smi:2866-1

> <Gold.Version>
5.8.1

> <Gold.Id.Protein>
6NUR|6NUR_protein|mol2

> <Gold.PLP.Fitness>
56.4795

> <Gold.PLP.PLP>
-48.6986

> <Gold.PLP.part.hbond>
-3.7039

> <Gold.PLP.part.metal>
0.0000

> <Gold.PLP.part.buried>
-5.7195

> <Gold.PLP.part.nonpolar>
-39.1780

> <Gold.PLP.part.repulsive>
0.0581

> <Gold.PLP.ligand.clash>
0.0000

> <Gold.PLP.ligand.torsion>
0.5405

> <Gold.PLP.Chemscore.Hbond>
2.9087

> <Gold.PLP.Chemscore.CHOScore>
0.0000

> <Gold.PLP.Chemscore.Metal>
0.0000

> <Gold.Chemscore.Hbonds>
donor molecule, donor type, donor heavy atom, donor atom, acceptor molecule, acceptor atom, score
      P1  H  6896  6907       L1    10  0.85
      P1  H  6931  6943       L1    20  0.33
      P1  H  6934  6947       L1    20  0.37
      P1  H  7989  7998       L1     5  0.82

> <Gold.PLP.Chemscore.Internal.Correction>
0.1358

> <Gold.Rescore>
     Score         DG    S(hbond)    S(metal)    S(lipo)     H(rot)  DE(clash)    DE(int)     intcor
     16.52     -18.57       2.37        0.00      97.25       2.42       0.15       1.90       ----

> <Gold.Chemscore.Fitness>
16.5190

> <Gold.Chemscore.DG>
-18.5724

> <Gold.Chemscore.ZeroCoef>
-5.4800

> <Gold.Chemscore.Hbond>
2.3715

> <Gold.Chemscore.Metal>
0.0000

> <Gold.Chemscore.Lipo>
97.2480

> <Gold.Chemscore.Internal_Hbond>
0.0000

> <Gold.Chemscore.DEClash>
0.1550

> <Gold.Chemscore.DEInternal>
1.8984

> <Gold.Chemscore.Rot>
2.4243

> <Gold.Chemscore.Internal.Correction>
   9.000000E+99

> <Gold.Chemscore.Hbonds>
donor molecule, donor type, donor heavy atom, donor atom, acceptor molecule, acceptor atom, score
      P1  H  6896  6907       L1    10  0.28
      P1  H  6931  6943       L1    20  0.33
      P1  H  6934  6947       L1    20  0.10
      P1  H  7989  7998       L1     5  0.34

> <Gold.Chemscore.Hbond.Weighted>
-7.9207

> <Gold.Chemscore.Metal.Weighted>
-0.0000

> <Gold.Chemscore.Lipo.Weighted>
-11.3780

> <Gold.Chemscore.Internal_Hbond.Weighted>
0.0000

> <Gold.Chemscore.DEClash.Weighted>
0.1550

> <Gold.Chemscore.DEInternal.Weighted>
1.8984

> <Gold.Chemscore.Rot.Weighted>
6.2063

> <Gold.Chemscore.Internal.Correction.Weighted>
   9.000000E+99

> <Gold.Protein.RotatedTorsions>
[ 6907 6896 6895 6894 ] final  -12.90 input  -60.11 | X-H torsion
[ 7974 7965 7964 7962 ] final  -87.91 input  175.53 | X-H torsion
[ 8008 7997 7996 7995 ] final -179.39 input   59.86 | X-H torsion
[ 10167 10162 10161 10158 ] final  -35.83 input  -65.29 | X-H torsion
[ 10718 10713 10712 10709 ] final  -36.21 input   66.30 | X-H torsion
[ 10763 10752 10751 10750 ] final   75.64 input  -60.55 | X-H torsion
[ 11005 11000 10999 10996 ] final  -54.54 input  -57.11 | X-H torsion

> <Gold.Protein.ActiveResidues>
 VAL166  LYS551  ARG553  GLY616  TRP617  ASP618  TYR619  PRO620  LYS621  CYS622 
 ASP623  PHE694  ASN695  SER759  ASP760  ASP761  ALA762  ILE779  LEU786  VAL792 
 PHE793  MET794  SER795  GLU796  ALA797  LYS798  CYS799  TRP800  GLU811  SER814 

> <Gold.Protein.RotatedAtoms>
  151.3634  135.0908  159.9441 H   0  0  0  0  0  0  0  0  0  0  0  0  # atno 6907 bound_to 6896
  152.5156  133.9236  159.7557 H   0  0  0  0  0  0  0  0  0  0  0  0  # atno 6908 bound_to 6896
  150.9635  133.6365  159.2779 H   0  0  0  0  0  0  0  0  0  0  0  0  # atno 6909 bound_to 6896
  145.4602  140.9561  143.1974 H   0  0  0  0  0  0  0  0  0  0  0  0  # atno 7974 bound_to 7965
  156.0300  140.1280  157.0268 H   0  0  0  0  0  0  0  0  0  0  0  0  # atno 8008 bound_to 7997
  154.4346  140.1051  156.6155 H   0  0  0  0  0  0  0  0  0  0  0  0  # atno 8009 bound_to 7997
  155.5821  140.3468  155.4545 H   0  0  0  0  0  0  0  0  0  0  0  0  # atno 8010 bound_to 7997
  140.7156  143.3450  151.2276 H   0  0  0  0  0  0  0  0  0  0  0  0  # atno 10167 bound_to 10162
  156.3295  130.4277  149.7885 H   0  0  0  0  0  0  0  0  0  0  0  0  # atno 10718 bound_to 10713
  153.0669  135.4981  154.8219 H   0  0  0  0  0  0  0  0  0  0  0  0  # atno 10763 bound_to 10752
  154.6966  135.2994  154.9404 H   0  0  0  0  0  0  0  0  0  0  0  0  # atno 10764 bound_to 10752
  154.0142  135.6750  153.4820 H   0  0  0  0  0  0  0  0  0  0  0  0  # atno 10765 bound_to 10752
  141.1030  133.6616  156.4335 H   0  0  0  0  0  0  0  0  0  0  0  0  # atno 11005 bound_to 11000
  144.8007  139.6146  143.7073 LP  0  0  0  0  0  0  0  0  0  0  0  0  # atno 17320 bound_to 7965
  146.2455  139.6090  142.9462 LP  0  0  0  0  0  0  0  0  0  0  0  0  # atno 17321 bound_to 7965
  139.6967  143.9601  152.2886 LP  0  0  0  0  0  0  0  0  0  0  0  0  # atno 17342 bound_to 10162
  139.9281  144.6758  150.8392 LP  0  0  0  0  0  0  0  0  0  0  0  0  # atno 17343 bound_to 10162
  156.5163  130.8195  151.3187 LP  0  0  0  0  0  0  0  0  0  0  0  0  # atno 17370 bound_to 10713
  157.7427  130.9897  150.2541 LP  0  0  0  0  0  0  0  0  0  0  0  0  # atno 17371 bound_to 10713
  140.4973  134.6519  157.5234 LP  0  0  0  0  0  0  0  0  0  0  0  0  # atno 17394 bound_to 11000
  139.9889  134.7017  155.9724 LP  0  0  0  0  0  0  0  0  0  0  0  0  # atno 17395 bound_to 11000

$$$$
