AV-unprocessed.smi:155|AV-procd|sdf|1283|dock3
  -GOLD-   2262018553D 1   1.00000     0.00000
 Structure written by MMmdl.
 64 67  0  0  0  0  0  0  0  0  3 V2000
  146.0092  132.0198  149.4451 C   0  0  0  0  0  0  0  0  0  0  0  0
  145.4140  133.3196  149.8346 N   0  3  0  0  0  0  0  0  0  0  0  0
  144.0070  133.1598  150.2664 C   0  0  0  0  0  0  0  0  0  0  0  0
  146.2266  134.0645  150.8313 C   0  0  0  0  0  0  0  0  0  0  0  0
  145.9503  135.5835  150.8065 C   0  0  0  0  0  0  0  0  0  0  0  0
  146.1290  136.2319  152.1339 N   0  3  2  0  0  0  0  0  0  0  0  0
  145.3801  135.5449  153.2275 C   0  0  0  0  0  0  0  0  0  0  0  0
  145.2432  136.3670  154.5253 C   0  0  0  0  0  0  0  0  0  0  0  0
  146.5783  136.8675  155.1001 C   0  0  0  0  0  0  0  0  0  0  0  0
  147.3755  137.6379  154.1443 N   0  0  0  0  0  0  0  0  0  0  0  0
  148.5445  138.0889  154.6629 C   0  0  0  0  0  0  0  0  0  0  0  0
  149.5971  137.2394  154.7998 N   0  0  0  0  0  0  0  0  0  0  0  0
  150.7590  137.6810  155.2921 C   0  0  0  0  0  0  0  0  0  0  0  0
  151.0781  138.9101  155.7030 N   0  0  0  0  0  0  0  0  0  0  0  0
  150.0236  139.7645  155.5714 C   0  0  0  0  0  0  0  0  0  0  0  0
  148.7336  139.4404  155.0651 C   0  0  0  0  0  0  0  0  0  0  0  0
  147.9161  140.5646  155.0937 N   0  0  0  0  0  0  0  0  0  0  0  0
  148.6838  141.5032  155.5783 C   0  0  0  0  0  0  0  0  0  0  0  0
  149.9631  141.1071  155.8969 N   0  0  0  0  0  0  0  0  0  0  0  0
  151.0173  141.9350  156.4550 C   0  0  0  0  0  0  0  0  0  0  0  0
  151.2061  141.7021  157.9693 C   0  0  2  0  0  0  0  0  0  0  0  0
  149.9534  141.6207  158.6206 O   0  0  0  0  0  0  0  0  0  0  0  0
  152.0667  142.7710  158.6742 C   0  0  1  0  0  0  0  0  0  0  0  0
  151.5845  144.2064  158.4557 C   0  0  0  0  0  0  0  0  0  0  0  0
  152.1745  144.9129  159.6547 C   0  0  0  0  0  0  0  0  0  0  0  0
  152.0024  143.8629  160.7475 C   0  0  0  0  0  0  0  0  0  0  0  0
  152.0692  142.5996  160.0912 O   0  0  0  0  0  0  0  0  0  0  0  0
  146.7060  138.4886  153.1534 C   0  0  0  0  0  0  0  0  0  0  0  0
  145.9018  137.7042  152.0849 C   0  0  0  0  0  0  0  0  0  0  0  0
  146.0923  131.3538  150.3050 H   0  0  0  0  0  0  0  0  0  0  0  0
  147.0012  132.1447  149.0128 H   0  0  0  0  0  0  0  0  0  0  0  0
  145.3910  131.5255  148.6946 H   0  0  0  0  0  0  0  0  0  0  0  0
  143.9424  132.5670  151.1799 H   0  0  0  0  0  0  0  0  0  0  0  0
  143.4196  132.6620  149.4940 H   0  0  0  0  0  0  0  0  0  0  0  0
  143.5442  134.1296  150.4531 H   0  0  0  0  0  0  0  0  0  0  0  0
  145.9836  133.6814  151.8226 H   0  0  0  0  0  0  0  0  0  0  0  0
  147.2864  133.8595  150.6711 H   0  0  0  0  0  0  0  0  0  0  0  0
  146.6379  136.0532  150.1040 H   0  0  0  0  0  0  0  0  0  0  0  0
  144.9436  135.7817  150.4351 H   0  0  0  0  0  0  0  0  0  0  0  0
  144.3796  135.2903  152.8753 H   0  0  0  0  0  0  0  0  0  0  0  0
  145.8809  134.6050  153.4599 H   0  0  0  0  0  0  0  0  0  0  0  0
  144.5662  137.2082  154.3745 H   0  0  0  0  0  0  0  0  0  0  0  0
  144.7533  135.7487  155.2781 H   0  0  0  0  0  0  0  0  0  0  0  0
  146.3875  137.4807  155.9823 H   0  0  0  0  0  0  0  0  0  0  0  0
  147.1520  136.0058  155.4404 H   0  0  0  0  0  0  0  0  0  0  0  0
  151.5457  136.9446  155.3666 H   0  0  0  0  0  0  0  0  0  0  0  0
  148.3347  142.5154  155.7246 H   0  0  0  0  0  0  0  0  0  0  0  0
  151.9389  141.7193  155.9143 H   0  0  0  0  0  0  0  0  0  0  0  0
  150.7761  142.9796  156.2543 H   0  0  0  0  0  0  0  0  0  0  0  0
  151.6826  140.7326  158.1207 H   0  0  0  0  0  0  0  0  0  0  0  0
  149.3064  141.3456  157.9896 H   0  0  0  0  0  0  0  0  0  0  0  0
  153.1003  142.7111  158.3277 H   0  0  0  0  0  0  0  0  0  0  0  0
  151.9186  144.6258  157.5063 H   0  0  0  0  0  0  0  0  0  0  0  0
  150.4963  144.2662  158.4895 H   0  0  0  0  0  0  0  0  0  0  0  0
  153.2337  145.1128  159.4878 H   0  0  0  0  0  0  0  0  0  0  0  0
  151.6792  145.8561  159.8867 H   0  0  0  0  0  0  0  0  0  0  0  0
  152.7591  143.9474  161.5276 H   0  0  0  0  0  0  0  0  0  0  0  0
  151.0214  143.9567  161.2150 H   0  0  0  0  0  0  0  0  0  0  0  0
  146.0549  139.1976  153.6665 H   0  0  0  0  0  0  0  0  0  0  0  0
  147.4536  139.0875  152.6307 H   0  0  0  0  0  0  0  0  0  0  0  0
  146.1926  138.0981  151.1105 H   0  0  0  0  0  0  0  0  0  0  0  0
  144.8343  137.9136  152.1693 H   0  0  0  0  0  0  0  0  0  0  0  0
  145.3819  133.8895  149.0011 H   0  0  0  0  0  0  0  0  0  0  0  0
  147.1090  136.1345  152.3604 H   0  0  0  0  0  0  0  0  0  0  0  0
  1  2  1  0  0  0  0
  1 30  1  0  0  0  0
  1 31  1  0  0  0  0
  1 32  1  0  0  0  0
  2  3  1  0  0  0  0
  2  4  1  0  0  0  0
  2 63  1  0  0  0  0
  3 33  1  0  0  0  0
  3 34  1  0  0  0  0
  3 35  1  0  0  0  0
  4  5  1  0  0  0  0
  4 36  1  0  0  0  0
  4 37  1  0  0  0  0
  5  6  1  0  0  0  0
  5 38  1  0  0  0  0
  5 39  1  0  0  0  0
  6 29  1  0  0  0  0
  6  7  1  0  0  0  0
  6 64  1  0  0  0  0
  7  8  1  0  0  0  0
  7 40  1  0  0  0  0
  7 41  1  0  0  0  0
  8  9  1  0  0  0  0
  8 42  1  0  0  0  0
  8 43  1  0  0  0  0
  9 10  1  0  0  0  0
  9 44  1  0  0  0  0
  9 45  1  0  0  0  0
 10 11  1  0  0  0  0
 10 28  1  0  0  0  0
 11 16  1  0  0  0  0
 11 12  2  0  0  0  0
 12 13  1  0  0  0  0
 13 14  2  0  0  0  0
 13 46  1  0  0  0  0
 14 15  1  0  0  0  0
 15 19  1  0  0  0  0
 15 16  2  0  0  0  0
 16 17  1  0  0  0  0
 17 18  2  0  0  0  0
 18 19  1  0  0  0  0
 18 47  1  0  0  0  0
 19 20  1  0  0  0  0
 20 21  1  0  0  0  0
 20 48  1  0  0  0  0
 20 49  1  0  0  0  0
 21 22  1  0  0  0  0
 21 23  1  0  0  0  0
 21 50  1  0  0  0  0
 22 51  1  0  0  0  0
 23 27  1  0  0  0  0
 23 24  1  0  0  0  0
 23 52  1  0  0  0  0
 24 25  1  0  0  0  0
 24 53  1  0  0  0  0
 24 54  1  0  0  0  0
 25 26  1  0  0  0  0
 25 55  1  0  0  0  0
 25 56  1  0  0  0  0
 26 27  1  0  0  0  0
 26 57  1  0  0  0  0
 26 58  1  0  0  0  0
 28 29  1  0  0  0  0
 28 59  1  0  0  0  0
 28 60  1  0  0  0  0
 29 61  1  0  0  0  0
 29 62  1  0  0  0  0
M  CHG  1   2   1
M  CHG  1   6   1
M  END
> <s_m_source_file>
AV-unprocessed.smi

> <i_m_source_file_index>
155

> <i_lp_mmshare_version>
43012

> <i_f3d_flags>
0

> <s_epik_input>
W0NIM11OKFtDSDNdKVtDSDJdW0NIMl1OMVtDSDJdW0NIMl1bQ0gyXU4oW0NIMl1bQ0gyXTEpYyhuW2NIXW4yKWMoYzIzKW5bY0hdbjNbQ0gyXVtDQEhdKFtPSF0pW0NAQEhdNFtDSDJdW0NIMl1bQ0gyXU80

> <s_epik_cmdline>
J2VwaWtfcHl0aG9uJywgJy1waCcsICc3LjAnLCAnLXRuJywgJzgnLCAnLW1hJywgJzIwMCcsICctbWV0YWxfYmluZGluZycsICctaW1hZScsICc8aW5maWxlLm1hZT4nLCAnLW9tYWUnLCAnPG91dGZpbGUubWFlPic=

> <r_lp_tautomer_probability>
1

> <r_epik_Ionization_Penalty>
3.0333

> <r_epik_Ionization_Penalty_Charging>
3.03317

> <r_epik_Ionization_Penalty_Neutral>
0.000131872

> <r_epik_State_Penalty>
1.99939

> <r_epik_Charging_Adjusted_Penalty>
5.03256

> <i_epik_Tot_Q>
2

> <i_epik_Tot_abs_Q>
2

> <r_epik_Metal_State_Penalty>
2.00021

> <b_epik_Metal_Only>
0

> <s_lp_Force_Field>
OPLS_2005

> <r_lp_Energy>
67.9245

> <b_lp_Chiralities_Consistent>
1

> <s_lp_Variant>
AV-unprocessed.smi:155-17

> <Gold.Version>
5.8.1

> <Gold.Id.Protein>
6NUR|6NUR_protein|mol2

> <Gold.PLP.Fitness>
56.3462

> <Gold.PLP.PLP>
-47.5907

> <Gold.PLP.part.hbond>
-2.0000

> <Gold.PLP.part.metal>
0.0000

> <Gold.PLP.part.buried>
-5.9397

> <Gold.PLP.part.nonpolar>
-39.5874

> <Gold.PLP.part.repulsive>
0.4390

> <Gold.PLP.ligand.clash>
0.0000

> <Gold.PLP.ligand.torsion>
1.9108

> <Gold.PLP.Chemscore.Hbond>
3.0000

> <Gold.PLP.Chemscore.CHOScore>
1.0000

> <Gold.PLP.Chemscore.Metal>
0.0000

> <Gold.Chemscore.Hbonds>
donor molecule, donor type, donor heavy atom, donor atom, acceptor molecule, acceptor atom, score
      L1  H     2    63       P1  7921  1.00
      L1  H     6    64       P1  7948  1.98
      L1  C    18    47       P1  8028  1.00

> <Gold.PLP.Chemscore.Internal.Correction>
0.5772

> <Gold.Rescore>
     Score         DG    S(hbond)    S(metal)    S(lipo)     H(rot)  DE(clash)    DE(int)     intcor
     15.69     -18.15       1.83        0.00     116.06       2.75       0.21       2.25       ----

> <Gold.Chemscore.Fitness>
15.6856

> <Gold.Chemscore.DG>
-18.1451

> <Gold.Chemscore.ZeroCoef>
-5.4800

> <Gold.Chemscore.Hbond>
1.8338

> <Gold.Chemscore.Metal>
0.0000

> <Gold.Chemscore.Lipo>
116.0551

> <Gold.Chemscore.Internal_Hbond>
0.0000

> <Gold.Chemscore.DEClash>
0.2072

> <Gold.Chemscore.DEInternal>
2.2523

> <Gold.Chemscore.Rot>
2.7493

> <Gold.Chemscore.Internal.Correction>
   9.000000E+99

> <Gold.Chemscore.Hbonds>
donor molecule, donor type, donor heavy atom, donor atom, acceptor molecule, acceptor atom, score
      L1  H     2    63       P1  7921  0.76
      L1  H     6    64       P1  7948  0.94

> <Gold.Chemscore.Hbond.Weighted>
-6.1249

> <Gold.Chemscore.Metal.Weighted>
-0.0000

> <Gold.Chemscore.Lipo.Weighted>
-13.5785

> <Gold.Chemscore.Internal_Hbond.Weighted>
0.0000

> <Gold.Chemscore.DEClash.Weighted>
0.2072

> <Gold.Chemscore.DEInternal.Weighted>
2.2523

> <Gold.Chemscore.Rot.Weighted>
7.0383

> <Gold.Chemscore.Internal.Correction.Weighted>
   9.000000E+99

> <Gold.Protein.RotatedTorsions>
[ 6907 6896 6895 6894 ] final   19.63 input  -60.11 | X-H torsion
[ 7974 7965 7964 7962 ] final  -10.89 input  175.53 | X-H torsion
[ 8008 7997 7996 7995 ] final -146.20 input   59.86 | X-H torsion
[ 10167 10162 10161 10158 ] final  104.04 input  -65.29 | X-H torsion
[ 10718 10713 10712 10709 ] final   61.37 input   66.30 | X-H torsion
[ 10763 10752 10751 10750 ] final -179.08 input  -60.55 | X-H torsion
[ 11005 11000 10999 10996 ] final    3.55 input  -57.11 | X-H torsion

> <Gold.Protein.ActiveResidues>
 VAL166  LYS551  ARG553  GLY616  TRP617  ASP618  TYR619  PRO620  LYS621  CYS622 
 ASP623  PHE694  ASN695  SER759  ASP760  ASP761  ALA762  ILE779  LEU786  VAL792 
 PHE793  MET794  SER795  GLU796  ALA797  LYS798  CYS799  TRP800  GLU811  SER814 

> <Gold.Protein.RotatedAtoms>
  151.8839  135.0443  160.0491 H   0  0  0  0  0  0  0  0  0  0  0  0  # atno 6907 bound_to 6896
  152.2490  133.5195  159.5323 H   0  0  0  0  0  0  0  0  0  0  0  0  # atno 6908 bound_to 6896
  150.7078  134.0902  159.3971 H   0  0  0  0  0  0  0  0  0  0  0  0  # atno 6909 bound_to 6896
  146.2206  140.2831  142.8363 H   0  0  0  0  0  0  0  0  0  0  0  0  # atno 7974 bound_to 7965
  155.5555  140.0620  157.2840 H   0  0  0  0  0  0  0  0  0  0  0  0  # atno 8008 bound_to 7997
  154.4407  140.1895  156.0774 H   0  0  0  0  0  0  0  0  0  0  0  0  # atno 8009 bound_to 7997
  156.0485  140.3287  155.7328 H   0  0  0  0  0  0  0  0  0  0  0  0  # atno 8010 bound_to 7997
  139.7211  144.7058  151.0871 H   0  0  0  0  0  0  0  0  0  0  0  0  # atno 10167 bound_to 10162
  157.5823  130.8991  149.9453 H   0  0  0  0  0  0  0  0  0  0  0  0  # atno 10718 bound_to 10713
  154.5396  135.2805  155.1107 H   0  0  0  0  0  0  0  0  0  0  0  0  # atno 10763 bound_to 10752
  154.2595  135.6324  153.5273 H   0  0  0  0  0  0  0  0  0  0  0  0  # atno 10764 bound_to 10752
  152.9976  135.5602  154.5932 H   0  0  0  0  0  0  0  0  0  0  0  0  # atno 10765 bound_to 10752
  140.5918  133.9917  155.8092 H   0  0  0  0  0  0  0  0  0  0  0  0  # atno 11005 bound_to 11000
  144.9182  140.7837  143.5765 LP  0  0  0  0  0  0  0  0  0  0  0  0  # atno 17320 bound_to 7965
  145.2766  139.1934  143.4813 LP  0  0  0  0  0  0  0  0  0  0  0  0  # atno 17321 bound_to 7965
  140.7754  143.5165  150.9588 LP  0  0  0  0  0  0  0  0  0  0  0  0  # atno 17342 bound_to 10162
  139.8852  143.7022  152.3152 LP  0  0  0  0  0  0  0  0  0  0  0  0  # atno 17343 bound_to 10162
  156.0870  130.3667  150.0469 LP  0  0  0  0  0  0  0  0  0  0  0  0  # atno 17370 bound_to 10713
  156.8606  130.9490  151.3618 LP  0  0  0  0  0  0  0  0  0  0  0  0  # atno 17371 bound_to 10713
  141.0930  133.9887  157.3206 LP  0  0  0  0  0  0  0  0  0  0  0  0  # atno 17394 bound_to 11000
  139.9271  135.0201  156.8271 LP  0  0  0  0  0  0  0  0  0  0  0  0  # atno 17395 bound_to 11000

$$$$
