AV-unprocessed.smi:2504|AV-procd|sdf|9852|dock8
  -GOLD-   2272013483D 1   1.00000     0.00000
 Structure written by MMmdl.
 46 48  0  0  0  0  0  0  0  0  3 V2000
  149.7629  143.1928  159.1603 O   0  0  0  0  0  0  0  0  0  0  0  0
  150.8796  142.9000  158.7317 C   0  0  0  0  0  0  0  0  0  0  0  0
  152.1193  143.7271  159.1319 C   0  0  0  0  0  0  0  0  0  0  0  0
  153.0260  142.9661  160.1101 C   0  0  0  0  0  0  0  0  0  0  0  0
  152.4805  143.2902  161.5021 C   0  0  0  0  0  0  0  0  0  0  0  0
  151.9012  144.7055  161.3970 C   0  0  0  0  0  0  0  0  0  0  0  0
  151.7519  145.0121  159.8978 C   0  0  0  0  0  0  0  0  0  0  0  0
  151.0794  141.7673  157.9386 N   0  0  0  0  0  0  0  0  0  0  0  0
  150.1559  140.6403  157.9594 C   0  0  0  0  0  0  0  0  0  0  0  0
  151.3811  139.7621  157.6647 C   0  0  0  0  0  0  0  0  0  0  0  0
  151.5460  139.1619  155.9114 S   0  0  0  0  0  0  0  0  0  0  0  0
  151.0173  140.2538  155.0768 O   0  0  0  0  0  0  0  0  0  0  0  0
  152.9626  138.8054  155.7356 O   0  0  0  0  0  0  0  0  0  0  0  0
  150.5881  137.8535  155.8987 N   0  5  0  0  0  0  0  0  0  0  0  0
  151.0409  136.6178  155.2870 C   0  0  0  0  0  0  0  0  0  0  0  0
  150.6530  135.4247  156.1879 C   0  0  0  0  0  0  0  0  0  0  0  0
  150.2066  134.1800  155.4249 C   0  0  0  0  0  0  0  0  0  0  0  0
  149.2454  134.2771  154.3910 C   0  0  0  0  0  0  0  0  0  0  0  0
  148.8581  133.1164  153.6910 C   0  0  0  0  0  0  0  0  0  0  0  0
  149.4383  131.8802  154.0388 C   0  0  0  0  0  0  0  0  0  0  0  0
  150.3477  131.8213  155.0361 N   0  3  0  0  0  0  0  0  0  0  0  0
  150.7428  132.9090  155.7331 C   0  0  0  0  0  0  0  0  0  0  0  0
  152.2854  140.9534  158.0078 C   0  0  0  0  0  0  0  0  0  0  0  0
  152.6709  143.9927  158.2293 H   0  0  0  0  0  0  0  0  0  0  0  0
  153.0547  141.8908  159.9282 H   0  0  0  0  0  0  0  0  0  0  0  0
  154.0480  143.3364  160.0197 H   0  0  0  0  0  0  0  0  0  0  0  0
  151.6851  142.5882  161.7554 H   0  0  0  0  0  0  0  0  0  0  0  0
  153.2444  143.2088  162.2758 H   0  0  0  0  0  0  0  0  0  0  0  0
  150.9439  144.7707  161.9148 H   0  0  0  0  0  0  0  0  0  0  0  0
  152.5711  145.4299  161.8616 H   0  0  0  0  0  0  0  0  0  0  0  0
  152.4417  145.8100  159.6199 H   0  0  0  0  0  0  0  0  0  0  0  0
  150.7493  145.3728  159.6623 H   0  0  0  0  0  0  0  0  0  0  0  0
  149.7261  140.4499  158.9444 H   0  0  0  0  0  0  0  0  0  0  0  0
  149.3983  140.6708  157.1760 H   0  0  0  0  0  0  0  0  0  0  0  0
  151.4952  138.9285  158.3578 H   0  0  0  0  0  0  0  0  0  0  0  0
  150.5977  136.4657  154.3024 H   0  0  0  0  0  0  0  0  0  0  0  0
  152.1202  136.6156  155.1349 H   0  0  0  0  0  0  0  0  0  0  0  0
  151.5034  135.1577  156.8160 H   0  0  0  0  0  0  0  0  0  0  0  0
  149.8595  135.7242  156.8743 H   0  0  0  0  0  0  0  0  0  0  0  0
  148.8196  135.2347  154.1273 H   0  0  0  0  0  0  0  0  0  0  0  0
  148.1294  133.1760  152.8966 H   0  0  0  0  0  0  0  0  0  0  0  0
  149.2039  130.9442  153.5532 H   0  0  0  0  0  0  0  0  0  0  0  0
  151.4806  132.7346  156.5026 H   0  0  0  0  0  0  0  0  0  0  0  0
  153.0272  141.2059  157.2493 H   0  0  0  0  0  0  0  0  0  0  0  0
  152.7146  140.8827  159.0080 H   0  0  0  0  0  0  0  0  0  0  0  0
  150.7565  130.9169  155.2717 H   0  0  0  0  0  0  0  0  0  0  0  0
  1  2  2  0  0  0  0
  2  3  1  0  0  0  0
  2  8  1  0  0  0  0
  3  7  1  0  0  0  0
  3  4  1  0  0  0  0
  3 24  1  0  0  0  0
  4  5  1  0  0  0  0
  4 25  1  0  0  0  0
  4 26  1  0  0  0  0
  5  6  1  0  0  0  0
  5 27  1  0  0  0  0
  5 28  1  0  0  0  0
  6  7  1  0  0  0  0
  6 29  1  0  0  0  0
  6 30  1  0  0  0  0
  7 31  1  0  0  0  0
  7 32  1  0  0  0  0
  8 23  1  0  0  0  0
  8  9  1  0  0  0  0
  9 10  1  0  0  0  0
  9 33  1  0  0  0  0
  9 34  1  0  0  0  0
 10 11  1  0  0  0  0
 10 23  1  0  0  0  0
 10 35  1  0  0  0  0
 11 12  2  0  0  0  0
 11 13  2  0  0  0  0
 11 14  1  0  0  0  0
 14 15  1  0  0  0  0
 15 16  1  0  0  0  0
 15 36  1  0  0  0  0
 15 37  1  0  0  0  0
 16 17  1  0  0  0  0
 16 38  1  0  0  0  0
 16 39  1  0  0  0  0
 17 22  1  0  0  0  0
 17 18  2  0  0  0  0
 18 19  1  0  0  0  0
 18 40  1  0  0  0  0
 19 20  2  0  0  0  0
 19 41  1  0  0  0  0
 20 21  1  0  0  0  0
 20 42  1  0  0  0  0
 21 22  2  0  0  0  0
 21 46  1  0  0  0  0
 22 43  1  0  0  0  0
 23 44  1  0  0  0  0
 23 45  1  0  0  0  0
M  CHG  1  14  -1
M  CHG  1  21   1
M  END
> <s_m_source_file>
AV-unprocessed.smi

> <i_m_source_file_index>
2504

> <i_lp_mmshare_version>
43012

> <i_f3d_flags>
0

> <s_epik_input>
W0NIMl0xW0NIMl1bQ0gyXVtDSDJdW0NIXTFDKD1PKU4yW0NIMl1bQ0hdKFtDSDJdMilTKD1PKSg9TylbTkhdW0NIMl1bQ0gyXWMzW2NIXVtjSF1bY0hdbltjSF0z

> <s_epik_cmdline>
J2VwaWtfcHl0aG9uJywgJy1waCcsICc3LjAnLCAnLXRuJywgJzgnLCAnLW1hJywgJzIwMCcsICctbWV0YWxfYmluZGluZycsICctaW1hZScsICc8aW5maWxlLm1hZT4nLCAnLW9tYWUnLCAnPG91dGZpbGUubWFlPic=

> <r_epik_Ionization_Penalty>
7.23206

> <r_epik_Ionization_Penalty_Charging>
7.23206

> <r_epik_Ionization_Penalty_Neutral>
2.37876e-07

> <r_epik_State_Penalty>
7.91796

> <r_epik_Charging_Adjusted_Penalty>
15.15

> <i_epik_Tot_Q>
0

> <i_epik_Tot_abs_Q>
2

> <r_epik_Metal_State_Penalty>
3.92928

> <b_epik_Metal_Only>
1

> <s_lp_Force_Field>
OPLS_2005

> <r_lp_Energy>
37.1942

> <b_lp_Chiralities_Consistent>
1

> <s_lp_Variant>
AV-unprocessed.smi:2504-4

> <Gold.Version>
5.8.1

> <Gold.Id.Protein>
6NUR|6NUR_protein|mol2

> <Gold.PLP.Fitness>
51.6591

> <Gold.PLP.PLP>
-47.5543

> <Gold.PLP.part.hbond>
-2.6844

> <Gold.PLP.part.metal>
0.0000

> <Gold.PLP.part.buried>
-4.5014

> <Gold.PLP.part.nonpolar>
-40.6413

> <Gold.PLP.part.repulsive>
0.1901

> <Gold.PLP.ligand.clash>
0.0000

> <Gold.PLP.ligand.torsion>
2.0940

> <Gold.PLP.Chemscore.Hbond>
2.0000

> <Gold.PLP.Chemscore.CHOScore>
0.0000

> <Gold.PLP.Chemscore.Metal>
0.0000

> <Gold.Chemscore.Hbonds>
donor molecule, donor type, donor heavy atom, donor atom, acceptor molecule, acceptor atom, score
      P1  H  7989  7998       L1    12  1.00
      P1  H  7997  8008       L1    13  1.00

> <Gold.PLP.Chemscore.Internal.Correction>
2.2930

> <Gold.Rescore>
     Score         DG    S(hbond)    S(metal)    S(lipo)     H(rot)  DE(clash)    DE(int)     intcor
     17.51     -20.92       1.96        0.00     113.56       1.72       0.16       3.24       ----

> <Gold.Chemscore.Fitness>
17.5135

> <Gold.Chemscore.DG>
-20.9193

> <Gold.Chemscore.ZeroCoef>
-5.4800

> <Gold.Chemscore.Hbond>
1.9596

> <Gold.Chemscore.Metal>
0.0000

> <Gold.Chemscore.Lipo>
113.5618

> <Gold.Chemscore.Internal_Hbond>
0.0000

> <Gold.Chemscore.DEClash>
0.1648

> <Gold.Chemscore.DEInternal>
3.2410

> <Gold.Chemscore.Rot>
1.7158

> <Gold.Chemscore.Internal.Correction>
   9.000000E+99

> <Gold.Chemscore.Hbonds>
donor molecule, donor type, donor heavy atom, donor atom, acceptor molecule, acceptor atom, score
      P1  H  7989  7998       L1    12  0.99
      P1  H  7997  8008       L1    13  0.95

> <Gold.Chemscore.Hbond.Weighted>
-6.5449

> <Gold.Chemscore.Metal.Weighted>
-0.0000

> <Gold.Chemscore.Lipo.Weighted>
-13.2867

> <Gold.Chemscore.Internal_Hbond.Weighted>
0.0000

> <Gold.Chemscore.DEClash.Weighted>
0.1648

> <Gold.Chemscore.DEInternal.Weighted>
3.2410

> <Gold.Chemscore.Rot.Weighted>
4.3924

> <Gold.Chemscore.Internal.Correction.Weighted>
   9.000000E+99

> <Gold.Protein.RotatedTorsions>
[ 6907 6896 6895 6894 ] final  126.67 input  -60.11 | X-H torsion
[ 7974 7965 7964 7962 ] final  -83.87 input  175.53 | X-H torsion
[ 8008 7997 7996 7995 ] final  -32.84 input   59.86 | X-H torsion
[ 10167 10162 10161 10158 ] final  -33.10 input  -65.29 | X-H torsion
[ 10718 10713 10712 10709 ] final  156.25 input   66.30 | X-H torsion
[ 10763 10752 10751 10750 ] final  168.93 input  -60.55 | X-H torsion
[ 11005 11000 10999 10996 ] final -107.78 input  -57.11 | X-H torsion

> <Gold.Protein.ActiveResidues>
 VAL166  LYS551  ARG553  GLY616  TRP617  ASP618  TYR619  PRO620  LYS621  CYS622 
 ASP623  PHE694  ASN695  SER759  ASP760  ASP761  ALA762  ILE779  LEU786  VAL792 
 PHE793  MET794  SER795  GLU796  ALA797  LYS798  CYS799  TRP800  GLU811  SER814 

> <Gold.Protein.RotatedAtoms>
  152.3882  133.6641  159.6215 H   0  0  0  0  0  0  0  0  0  0  0  0  # atno 6907 bound_to 6896
  150.7796  133.8999  159.3347 H   0  0  0  0  0  0  0  0  0  0  0  0  # atno 6908 bound_to 6896
  151.6791  135.0966  160.0264 H   0  0  0  0  0  0  0  0  0  0  0  0  # atno 6909 bound_to 6896
  145.5142  140.9537  143.1690 H   0  0  0  0  0  0  0  0  0  0  0  0  # atno 7974 bound_to 7965
  154.4167  140.1726  156.1792 H   0  0  0  0  0  0  0  0  0  0  0  0  # atno 8008 bound_to 7997
  155.9696  140.3387  155.6540 H   0  0  0  0  0  0  0  0  0  0  0  0  # atno 8009 bound_to 7997
  155.6643  140.0704  157.2534 H   0  0  0  0  0  0  0  0  0  0  0  0  # atno 8010 bound_to 7997
  140.7210  143.3645  151.1897 H   0  0  0  0  0  0  0  0  0  0  0  0  # atno 10167 bound_to 10162
  157.2075  131.0690  151.1989 H   0  0  0  0  0  0  0  0  0  0  0  0  # atno 10718 bound_to 10713
  154.3758  135.2753  155.2240 H   0  0  0  0  0  0  0  0  0  0  0  0  # atno 10763 bound_to 10752
  154.4368  135.5964  153.6107 H   0  0  0  0  0  0  0  0  0  0  0  0  # atno 10764 bound_to 10752
  152.9836  135.6009  154.3995 H   0  0  0  0  0  0  0  0  0  0  0  0  # atno 10765 bound_to 10752
  141.0936  133.9011  157.2017 H   0  0  0  0  0  0  0  0  0  0  0  0  # atno 11005 bound_to 11000
  144.7711  139.6734  143.7194 LP  0  0  0  0  0  0  0  0  0  0  0  0  # atno 17320 bound_to 7965
  146.2147  139.5528  142.9658 LP  0  0  0  0  0  0  0  0  0  0  0  0  # atno 17321 bound_to 7965
  139.7204  143.9232  152.2983 LP  0  0  0  0  0  0  0  0  0  0  0  0  # atno 17342 bound_to 10162
  139.8987  144.6924  150.8689 LP  0  0  0  0  0  0  0  0  0  0  0  0  # atno 17343 bound_to 10162
  157.3706  130.7179  149.6562 LP  0  0  0  0  0  0  0  0  0  0  0  0  # atno 17370 bound_to 10713
  155.9694  130.4200  150.4401 LP  0  0  0  0  0  0  0  0  0  0  0  0  # atno 17371 bound_to 10713
  139.9767  135.0111  156.9649 LP  0  0  0  0  0  0  0  0  0  0  0  0  # atno 17394 bound_to 11000
  140.5194  134.0923  155.7288 LP  0  0  0  0  0  0  0  0  0  0  0  0  # atno 17395 bound_to 11000

$$$$
