AV-unprocessed.smi:1203|AV-procd|sdf|5034|dock6
  -GOLD-   22720 4 53D 1   1.00000     0.00000
 Structure written by MMmdl.
 39 40  0  0  0  0  0  0  0  0  1 V2000
  156.2111  136.0483  158.6191 C   0  0  0  0  0  0  0  0  0  0  0  0
  155.6495  135.3409  160.2199 S   0  0  0  0  0  0  0  0  0  0  0  0
  154.5588  134.3859  159.9723 O   0  0  0  0  0  0  0  0  0  0  0  0
  156.8391  134.9180  160.9745 O   0  0  0  0  0  0  0  0  0  0  0  0
  154.9771  136.7148  161.0297 N   0  0  0  0  0  0  0  0  0  0  0  0
  154.1614  136.4987  162.2338 C   0  0  0  0  0  0  0  0  0  0  0  0
  154.3155  137.7666  163.0710 C   0  0  0  0  0  0  0  0  0  0  0  0
  155.7057  138.2556  162.6905 C   0  0  0  0  0  0  0  0  0  0  0  0
  155.8068  137.9242  161.1902 C   0  0  2  0  0  0  0  0  0  0  0  0
  155.3663  139.0710  160.2627 C   0  0  0  0  0  0  0  0  0  0  0  0
  155.5661  139.0251  159.0486 O   0  0  0  0  0  0  0  0  0  0  0  0
  154.7782  140.1172  160.8627 N   0  0  0  0  0  0  0  0  0  0  0  0
  154.4096  141.3687  160.2114 C   0  0  0  0  0  0  0  0  0  0  0  0
  153.2275  142.0705  160.9101 C   0  0  0  0  0  0  0  0  0  0  0  0
  152.4995  143.0649  160.0201 C   0  0  0  0  0  0  0  0  0  0  0  0
  152.2677  144.3884  160.4497 C   0  0  0  0  0  0  0  0  0  0  0  0
  151.5811  145.2698  159.5930 C   0  0  0  0  0  0  0  0  0  0  0  0
  151.1558  144.7896  158.3387 C   0  0  0  0  0  0  0  0  0  0  0  0
  151.3679  143.5238  157.9186 N   0  0  0  0  0  0  0  0  0  0  0  0
  152.0278  142.6849  158.7460 C   0  0  0  0  0  0  0  0  0  0  0  0
  156.6660  135.2629  158.0162 H   0  0  0  0  0  0  0  0  0  0  0  0
  156.9471  136.8288  158.8081 H   0  0  0  0  0  0  0  0  0  0  0  0
  155.3616  136.4695  158.0825 H   0  0  0  0  0  0  0  0  0  0  0  0
  153.1235  136.2979  161.9687 H   0  0  0  0  0  0  0  0  0  0  0  0
  154.5445  135.6393  162.7850 H   0  0  0  0  0  0  0  0  0  0  0  0
  153.5667  138.5032  162.7761 H   0  0  0  0  0  0  0  0  0  0  0  0
  154.2080  137.5832  164.1402 H   0  0  0  0  0  0  0  0  0  0  0  0
  155.8600  139.3061  162.9385 H   0  0  0  0  0  0  0  0  0  0  0  0
  156.4581  137.6869  163.2390 H   0  0  0  0  0  0  0  0  0  0  0  0
  156.8452  137.6939  160.9485 H   0  0  0  0  0  0  0  0  0  0  0  0
  154.6402  140.0671  161.8623 H   0  0  0  0  0  0  0  0  0  0  0  0
  155.2706  142.0355  160.1471 H   0  0  0  0  0  0  0  0  0  0  0  0
  154.1300  141.1251  159.1861 H   0  0  0  0  0  0  0  0  0  0  0  0
  152.5137  141.3235  161.2597 H   0  0  0  0  0  0  0  0  0  0  0  0
  153.5818  142.5869  161.8028 H   0  0  0  0  0  0  0  0  0  0  0  0
  152.6022  144.7225  161.4209 H   0  0  0  0  0  0  0  0  0  0  0  0
  151.3842  146.2889  159.8910 H   0  0  0  0  0  0  0  0  0  0  0  0
  150.6250  145.4379  157.6573 H   0  0  0  0  0  0  0  0  0  0  0  0
  152.1803  141.6794  158.3823 H   0  0  0  0  0  0  0  0  0  0  0  0
  1  2  1  0  0  0  0
  1 21  1  0  0  0  0
  1 22  1  0  0  0  0
  1 23  1  0  0  0  0
  2  3  2  0  0  0  0
  2  4  2  0  0  0  0
  2  5  1  0  0  0  0
  5  9  1  0  0  0  0
  5  6  1  0  0  0  0
  6  7  1  0  0  0  0
  6 24  1  0  0  0  0
  6 25  1  0  0  0  0
  7  8  1  0  0  0  0
  7 26  1  0  0  0  0
  7 27  1  0  0  0  0
  8  9  1  0  0  0  0
  8 28  1  0  0  0  0
  8 29  1  0  0  0  0
  9 10  1  0  0  0  0
  9 30  1  0  0  0  0
 10 11  2  0  0  0  0
 10 12  1  0  0  0  0
 12 13  1  0  0  0  0
 12 31  1  0  0  0  0
 13 14  1  0  0  0  0
 13 32  1  0  0  0  0
 13 33  1  0  0  0  0
 14 15  1  0  0  0  0
 14 34  1  0  0  0  0
 14 35  1  0  0  0  0
 15 20  1  0  0  0  0
 15 16  2  0  0  0  0
 16 17  1  0  0  0  0
 16 36  1  0  0  0  0
 17 18  2  0  0  0  0
 17 37  1  0  0  0  0
 18 19  1  0  0  0  0
 18 38  1  0  0  0  0
 19 20  2  0  0  0  0
 20 39  1  0  0  0  0
M  END
> <s_m_source_file>
AV-unprocessed.smi

> <i_m_source_file_index>
1203

> <i_lp_mmshare_version>
43012

> <i_f3d_flags>
0

> <s_epik_input>
W0NIM11TKD1PKSg9TylOMVtDSDJdW0NIMl1bQ0gyXVtDQEhdMUMoPU8pW05IXVtDSDJdW0NIMl1jMltjSF1bY0hdW2NIXW5bY0hdMg==

> <s_epik_cmdline>
J2VwaWtfcHl0aG9uJywgJy1waCcsICc3LjAnLCAnLXRuJywgJzgnLCAnLW1hJywgJzIwMCcsICctbWV0YWxfYmluZGluZycsICctaW1hZScsICc8aW5maWxlLm1hZT4nLCAnLW9tYWUnLCAnPG91dGZpbGUubWFlPic=

> <r_epik_Ionization_Penalty>
0.0126915

> <r_epik_Ionization_Penalty_Charging>
0

> <r_epik_Ionization_Penalty_Neutral>
0.0126915

> <r_epik_State_Penalty>
0.0098379

> <r_epik_Charging_Adjusted_Penalty>
0.0098379

> <i_epik_Tot_Q>
0

> <i_epik_Tot_abs_Q>
0

> <r_epik_Metal_State_Penalty>
0.00962905

> <b_epik_Metal_Only>
0

> <s_lp_Force_Field>
OPLS_2005

> <r_lp_Energy>
4.44391

> <b_lp_Chiralities_Consistent>
1

> <s_lp_Variant>
AV-unprocessed.smi:1203-2

> <Gold.Version>
5.8.1

> <Gold.Id.Protein>
6NUR|6NUR_protein|mol2

> <Gold.PLP.Fitness>
42.2232

> <Gold.PLP.PLP>
-35.0747

> <Gold.PLP.part.hbond>
-2.0000

> <Gold.PLP.part.metal>
0.0000

> <Gold.PLP.part.buried>
-5.2624

> <Gold.PLP.part.nonpolar>
-28.9198

> <Gold.PLP.part.repulsive>
0.1623

> <Gold.PLP.ligand.clash>
0.0000

> <Gold.PLP.ligand.torsion>
0.8534

> <Gold.PLP.Chemscore.Hbond>
2.0000

> <Gold.PLP.Chemscore.CHOScore>
0.7524

> <Gold.PLP.Chemscore.Metal>
0.0000

> <Gold.Chemscore.Hbonds>
donor molecule, donor type, donor heavy atom, donor atom, acceptor molecule, acceptor atom, score
      P1  H  6896  6908       L1     3  1.00
      P1  H  7997  8010       L1    11  1.00
      L1  C    18    38       P1  8028  0.33
      L1  C    18    38       P1  8029  0.15

> <Gold.PLP.Chemscore.Internal.Correction>
0.5980

> <Gold.Rescore>
     Score         DG    S(hbond)    S(metal)    S(lipo)     H(rot)  DE(clash)    DE(int)     intcor
     18.58     -19.51       1.99        0.00     104.67       1.90       0.02       0.90       ----

> <Gold.Chemscore.Fitness>
18.5846

> <Gold.Chemscore.DG>
-19.5127

> <Gold.Chemscore.ZeroCoef>
-5.4800

> <Gold.Chemscore.Hbond>
1.9904

> <Gold.Chemscore.Metal>
0.0000

> <Gold.Chemscore.Lipo>
104.6683

> <Gold.Chemscore.Internal_Hbond>
0.0000

> <Gold.Chemscore.DEClash>
0.0234

> <Gold.Chemscore.DEInternal>
0.9047

> <Gold.Chemscore.Rot>
1.8990

> <Gold.Chemscore.Internal.Correction>
   9.000000E+99

> <Gold.Chemscore.Hbonds>
donor molecule, donor type, donor heavy atom, donor atom, acceptor molecule, acceptor atom, score
      P1  H  6896  6908       L1     3  0.98
      P1  H  7997  8010       L1    11  0.99

> <Gold.Chemscore.Hbond.Weighted>
-6.6479

> <Gold.Chemscore.Metal.Weighted>
-0.0000

> <Gold.Chemscore.Lipo.Weighted>
-12.2462

> <Gold.Chemscore.Internal_Hbond.Weighted>
0.0000

> <Gold.Chemscore.DEClash.Weighted>
0.0234

> <Gold.Chemscore.DEInternal.Weighted>
0.9047

> <Gold.Chemscore.Rot.Weighted>
4.8613

> <Gold.Chemscore.Internal.Correction.Weighted>
   9.000000E+99

> <Gold.Protein.RotatedTorsions>
[ 6907 6896 6895 6894 ] final  -43.24 input  -60.11 | X-H torsion
[ 7974 7965 7964 7962 ] final   85.90 input  175.53 | X-H torsion
[ 8008 7997 7996 7995 ] final  -17.31 input   59.86 | X-H torsion
[ 10167 10162 10161 10158 ] final  123.02 input  -65.29 | X-H torsion
[ 10718 10713 10712 10709 ] final  139.90 input   66.30 | X-H torsion
[ 10763 10752 10751 10750 ] final   14.43 input  -60.55 | X-H torsion
[ 11005 11000 10999 10996 ] final  -26.21 input  -57.11 | X-H torsion

> <Gold.Protein.ActiveResidues>
 VAL166  LYS551  ARG553  GLY616  TRP617  ASP618  TYR619  PRO620  LYS621  CYS622 
 ASP623  PHE694  ASN695  SER759  ASP760  ASP761  ALA762  ILE779  LEU786  VAL792 
 PHE793  MET794  SER795  GLU796  ALA797  LYS798  CYS799  TRP800  GLU811  SER814 

> <Gold.Protein.RotatedAtoms>
  150.9461  134.8866  159.7642 H   0  0  0  0  0  0  0  0  0  0  0  0  # atno 6907 bound_to 6896
  152.5100  134.3872  159.9381 H   0  0  0  0  0  0  0  0  0  0  0  0  # atno 6908 bound_to 6896
  151.3890  133.3755  159.2753 H   0  0  0  0  0  0  0  0  0  0  0  0  # atno 6909 bound_to 6896
  145.5794  139.2323  143.2361 H   0  0  0  0  0  0  0  0  0  0  0  0  # atno 7974 bound_to 7965
  154.4988  140.2146  155.9391 H   0  0  0  0  0  0  0  0  0  0  0  0  # atno 8008 bound_to 7997
  156.1406  140.3180  155.8457 H   0  0  0  0  0  0  0  0  0  0  0  0  # atno 8009 bound_to 7997
  155.4127  140.0491  157.3021 H   0  0  0  0  0  0  0  0  0  0  0  0  # atno 8010 bound_to 7997
  139.5824  144.6992  151.3495 H   0  0  0  0  0  0  0  0  0  0  0  0  # atno 10167 bound_to 10162
  157.4093  131.1026  151.0471 H   0  0  0  0  0  0  0  0  0  0  0  0  # atno 10718 bound_to 10713
  153.1623  135.6798  153.8725 H   0  0  0  0  0  0  0  0  0  0  0  0  # atno 10763 bound_to 10752
  153.8117  135.3142  155.3402 H   0  0  0  0  0  0  0  0  0  0  0  0  # atno 10764 bound_to 10752
  154.7941  135.4817  154.0209 H   0  0  0  0  0  0  0  0  0  0  0  0  # atno 10765 bound_to 10752
  140.9009  133.7525  156.0542 H   0  0  0  0  0  0  0  0  0  0  0  0  # atno 11005 bound_to 11000
  146.1727  140.6620  142.9225 LP  0  0  0  0  0  0  0  0  0  0  0  0  # atno 17320 bound_to 7965
  144.7401  140.4918  143.6875 LP  0  0  0  0  0  0  0  0  0  0  0  0  # atno 17321 bound_to 7965
  140.7100  143.7414  150.7550 LP  0  0  0  0  0  0  0  0  0  0  0  0  # atno 17342 bound_to 10162
  140.0950  143.4842  152.2457 LP  0  0  0  0  0  0  0  0  0  0  0  0  # atno 17343 bound_to 10162
  157.1441  130.6156  149.5563 LP  0  0  0  0  0  0  0  0  0  0  0  0  # atno 17370 bound_to 10713
  155.9846  130.4871  150.6990 LP  0  0  0  0  0  0  0  0  0  0  0  0  # atno 17371 bound_to 10713
  140.8231  134.3266  157.5375 LP  0  0  0  0  0  0  0  0  0  0  0  0  # atno 17394 bound_to 11000
  139.8742  134.9321  156.3545 LP  0  0  0  0  0  0  0  0  0  0  0  0  # atno 17395 bound_to 11000

$$$$
