AV-unprocessed.smi:37|AV-procd|sdf|320|dock4
  -GOLD-   2262016143D 1   1.00000     0.00000
 Structure written by MMmdl.
 43 44  0  0  0  0  0  0  0  0  2 V2000
  143.4116  141.8082  150.5544 C   0  0  0  0  0  0  0  0  0  0  0  0
  143.3115  143.2573  151.0534 C   0  0  0  0  0  0  0  0  0  0  0  0
  144.1728  143.5421  152.2856 C   0  0  0  0  0  0  0  0  0  0  0  0
  144.3313  144.6787  152.7349 O   0  0  0  0  0  0  0  0  0  0  0  0
  144.7103  142.4220  152.7858 O   0  0  0  0  0  0  0  0  0  0  0  0
  145.6467  142.4961  153.8485 C   0  0  0  0  0  0  0  0  0  0  0  0
  146.7364  141.4206  153.6933 C   0  0  1  0  0  0  0  0  0  0  0  0
  148.0012  142.0336  153.4551 O   0  0  0  0  0  0  0  0  0  0  0  0
  148.9752  141.1510  153.9143 C   0  0  1  0  0  0  0  0  0  0  0  0
  150.3330  141.8338  153.9383 N   0  0  0  0  0  0  0  0  0  0  0  0
  150.4980  143.1343  153.4865 C   0  0  0  0  0  0  0  0  0  0  0  0
  151.6915  143.7587  153.5515 C   0  0  0  0  0  0  0  0  0  0  0  0
  151.8133  145.0187  153.0995 F   0  0  0  0  0  0  0  0  0  0  0  0
  152.8385  143.0651  154.1308 C   0  0  0  0  0  0  0  0  0  0  0  0
  153.9338  143.6246  154.1554 O   0  0  0  0  0  0  0  0  0  0  0  0
  152.6351  141.8144  154.6346 N   0  5  0  0  0  0  0  0  0  0  0  0
  151.4226  141.1878  154.5902 C   0  0  0  0  0  0  0  0  0  0  0  0
  151.2249  140.0871  155.1046 O   0  0  0  0  0  0  0  0  0  0  0  0
  148.4087  140.7315  155.2786 C   0  0  1  0  0  0  0  0  0  0  0  0
  148.4579  142.2330  156.6073 Br  0  0  0  0  0  0  0  0  0  0  0  0
  146.9604  140.4533  154.8775 C   0  0  1  0  0  0  0  0  0  0  0  0
  146.0329  140.6094  155.9472 O   0  0  0  0  0  0  0  0  0  0  0  0
  145.6818  139.5554  156.7035 C   0  0  0  0  0  0  0  0  0  0  0  0
  145.6994  138.3765  156.3450 O   0  0  0  0  0  0  0  0  0  0  0  0
  145.2511  139.9804  158.1085 C   0  0  0  0  0  0  0  0  0  0  0  0
  144.9603  138.7987  159.0460 C   0  0  0  0  0  0  0  0  0  0  0  0
  142.7897  141.6633  149.6711 H   0  0  0  0  0  0  0  0  0  0  0  0
  143.0752  141.1013  151.3137 H   0  0  0  0  0  0  0  0  0  0  0  0
  144.4360  141.5513  150.2814 H   0  0  0  0  0  0  0  0  0  0  0  0
  143.6120  143.9402  150.2583 H   0  0  0  0  0  0  0  0  0  0  0  0
  142.2747  143.4931  151.2943 H   0  0  0  0  0  0  0  0  0  0  0  0
  146.1090  143.4840  153.8697 H   0  0  0  0  0  0  0  0  0  0  0  0
  145.1250  142.3628  154.7968 H   0  0  0  0  0  0  0  0  0  0  0  0
  146.4946  140.8220  152.8141 H   0  0  0  0  0  0  0  0  0  0  0  0
  149.0973  140.3119  153.2260 H   0  0  0  0  0  0  0  0  0  0  0  0
  149.6624  143.6826  153.0812 H   0  0  0  0  0  0  0  0  0  0  0  0
  148.9241  139.8638  155.6911 H   0  0  0  0  0  0  0  0  0  0  0  0
  146.8932  139.4392  154.4792 H   0  0  0  0  0  0  0  0  0  0  0  0
  146.0377  140.6029  158.5360 H   0  0  0  0  0  0  0  0  0  0  0  0
  144.3640  140.6081  158.0226 H   0  0  0  0  0  0  0  0  0  0  0  0
  144.6737  139.1548  160.0355 H   0  0  0  0  0  0  0  0  0  0  0  0
  145.8373  138.1615  159.1675 H   0  0  0  0  0  0  0  0  0  0  0  0
  144.1433  138.1829  158.6683 H   0  0  0  0  0  0  0  0  0  0  0  0
  1  2  1  0  0  0  0
  1 27  1  0  0  0  0
  1 28  1  0  0  0  0
  1 29  1  0  0  0  0
  2  3  1  0  0  0  0
  2 30  1  0  0  0  0
  2 31  1  0  0  0  0
  3  4  2  0  0  0  0
  3  5  1  0  0  0  0
  5  6  1  0  0  0  0
  6  7  1  0  0  0  0
  6 32  1  0  0  0  0
  6 33  1  0  0  0  0
  7 21  1  0  0  0  0
  7  8  1  0  0  0  0
  7 34  1  0  0  0  0
  8  9  1  0  0  0  0
  9 10  1  0  0  0  0
  9 19  1  0  0  0  0
  9 35  1  0  0  0  0
 10 17  1  0  0  0  0
 10 11  1  0  0  0  0
 11 12  2  0  0  0  0
 11 36  1  0  0  0  0
 12 13  1  0  0  0  0
 12 14  1  0  0  0  0
 14 15  2  0  0  0  0
 14 16  1  0  0  0  0
 16 17  1  0  0  0  0
 17 18  2  0  0  0  0
 19 20  1  0  0  0  0
 19 21  1  0  0  0  0
 19 37  1  0  0  0  0
 21 22  1  0  0  0  0
 21 38  1  0  0  0  0
 22 23  1  0  0  0  0
 23 24  2  0  0  0  0
 23 25  1  0  0  0  0
 25 26  1  0  0  0  0
 25 39  1  0  0  0  0
 25 40  1  0  0  0  0
 26 41  1  0  0  0  0
 26 42  1  0  0  0  0
 26 43  1  0  0  0  0
M  CHG  1  16  -1
M  END
> <s_m_source_file>
AV-unprocessed.smi

> <i_m_source_file_index>
37

> <i_lp_mmshare_version>
43012

> <i_f3d_flags>
0

> <s_epik_input>
W0NIM11bQ0gyXUMoPU8pT1tDSDJdW0NAQEhdMU9bQ0BASF0objJbY0hdYyhGKWMoPU8pW25IXWMyPU8pW0NAQEhdKEJyKVtDQEhdMU9DKD1PKVtDSDJdW0NIM10=

> <s_epik_cmdline>
J2VwaWtfcHl0aG9uJywgJy1waCcsICc3LjAnLCAnLXRuJywgJzgnLCAnLW1hJywgJzIwMCcsICctbWV0YWxfYmluZGluZycsICctaW1hZScsICc8aW5maWxlLm1hZT4nLCAnLW9tYWUnLCAnPG91dGZpbGUubWFlPic=

> <r_epik_Ionization_Penalty>
1.08158

> <r_epik_Ionization_Penalty_Charging>
9.05154e-09

> <r_epik_Ionization_Penalty_Neutral>
1.08158

> <r_epik_State_Penalty>
1.13706

> <r_epik_Charging_Adjusted_Penalty>
1.13706

> <i_epik_Tot_Q>
-1

> <i_epik_Tot_abs_Q>
1

> <r_epik_Metal_State_Penalty>
0.00343535

> <b_epik_Metal_Only>
0

> <s_epik_Chemistry_Notes>
This compound has an ester and may undergo hydrolysis at high or low pH. This compound contains an acetal/aminal-like group ( X-CH(R)-Y where X, Y are N, S, or O) that may be acid/base labile, releasing an aldehyde.

> <s_lp_Force_Field>
OPLS_2005

> <r_lp_Energy>
41.8028

> <b_lp_Chiralities_Consistent>
1

> <s_lp_Variant>
AV-unprocessed.smi:37-18

> <Gold.Version>
5.8.1

> <Gold.Id.Protein>
6NUR|6NUR_protein|mol2

> <Gold.PLP.Fitness>
53.2624

> <Gold.PLP.PLP>
-43.2277

> <Gold.PLP.part.hbond>
-3.2980

> <Gold.PLP.part.metal>
0.0000

> <Gold.PLP.part.buried>
-1.7642

> <Gold.PLP.part.nonpolar>
-42.0892

> <Gold.PLP.part.repulsive>
3.8133

> <Gold.PLP.ligand.clash>
0.0000

> <Gold.PLP.ligand.torsion>
1.9591

> <Gold.PLP.Chemscore.Hbond>
3.6000

> <Gold.PLP.Chemscore.CHOScore>
0.9794

> <Gold.PLP.Chemscore.Metal>
0.0000

> <Gold.Chemscore.Hbonds>
donor molecule, donor type, donor heavy atom, donor atom, acceptor molecule, acceptor atom, score
      L1  C    11    36       P1  8028  0.07

> <Gold.PLP.Chemscore.Internal.Correction>
0.2145

> <Gold.Rescore>
     Score         DG    S(hbond)    S(metal)    S(lipo)     H(rot)  DE(clash)    DE(int)     intcor
      4.08      -8.07       1.15        0.00      60.79       3.27       0.93       3.06       ----

> <Gold.Chemscore.Fitness>
4.0774

> <Gold.Chemscore.DG>
-8.0687

> <Gold.Chemscore.ZeroCoef>
-5.4800

> <Gold.Chemscore.Hbond>
1.1495

> <Gold.Chemscore.Metal>
0.0000

> <Gold.Chemscore.Lipo>
60.7932

> <Gold.Chemscore.Internal_Hbond>
0.0000

> <Gold.Chemscore.DEClash>
0.9340

> <Gold.Chemscore.DEInternal>
3.0573

> <Gold.Chemscore.Rot>
3.2669

> <Gold.Chemscore.Internal.Correction>
   9.000000E+99

> <Gold.Chemscore.Hbond.Weighted>
-3.8392

> <Gold.Chemscore.Metal.Weighted>
-0.0000

> <Gold.Chemscore.Lipo.Weighted>
-7.1128

> <Gold.Chemscore.Internal_Hbond.Weighted>
0.0000

> <Gold.Chemscore.DEClash.Weighted>
0.9340

> <Gold.Chemscore.DEInternal.Weighted>
3.0573

> <Gold.Chemscore.Rot.Weighted>
8.3634

> <Gold.Chemscore.Internal.Correction.Weighted>
   9.000000E+99

> <Gold.Protein.RotatedTorsions>
[ 6907 6896 6895 6894 ] final  147.93 input  -60.11 | X-H torsion
[ 7974 7965 7964 7962 ] final   57.96 input  175.53 | X-H torsion
[ 8008 7997 7996 7995 ] final  -52.87 input   59.86 | X-H torsion
[ 10167 10162 10161 10158 ] final   82.61 input  -65.29 | X-H torsion
[ 10718 10713 10712 10709 ] final   26.03 input   66.30 | X-H torsion
[ 10763 10752 10751 10750 ] final -111.13 input  -60.55 | X-H torsion
[ 11005 11000 10999 10996 ] final -176.33 input  -57.11 | X-H torsion

> <Gold.Protein.ActiveResidues>
 VAL166  LYS551  ARG553  GLY616  TRP617  ASP618  TYR619  PRO620  LYS621  CYS622 
 ASP623  PHE694  ASN695  SER759  ASP760  ASP761  ALA762  ILE779  LEU786  VAL792 
 PHE793  MET794  SER795  GLU796  ALA797  LYS798  CYS799  TRP800  GLU811  SER814 

> <Gold.Protein.RotatedAtoms>
  152.1483  133.4506  159.4800 H   0  0  0  0  0  0  0  0  0  0  0  0  # atno 6907 bound_to 6896
  150.6893  134.2221  159.4410 H   0  0  0  0  0  0  0  0  0  0  0  0  # atno 6908 bound_to 6896
  152.0116  134.9872  160.0619 H   0  0  0  0  0  0  0  0  0  0  0  0  # atno 6909 bound_to 6896
  145.9234  139.3748  143.0464 H   0  0  0  0  0  0  0  0  0  0  0  0  # atno 7974 bound_to 7965
  154.4118  140.1213  156.5062 H   0  0  0  0  0  0  0  0  0  0  0  0  # atno 8008 bound_to 7997
  155.6845  140.3496  155.4849 H   0  0  0  0  0  0  0  0  0  0  0  0  # atno 8009 bound_to 7997
  155.9523  140.1107  157.0956 H   0  0  0  0  0  0  0  0  0  0  0  0  # atno 8010 bound_to 7997
  139.9270  144.6176  150.8383 H   0  0  0  0  0  0  0  0  0  0  0  0  # atno 10167 bound_to 10162
  157.2013  130.6891  149.6190 H   0  0  0  0  0  0  0  0  0  0  0  0  # atno 10718 bound_to 10713
  154.8284  135.4539  154.0991 H   0  0  0  0  0  0  0  0  0  0  0  0  # atno 10763 bound_to 10752
  153.2285  135.6903  153.7923 H   0  0  0  0  0  0  0  0  0  0  0  0  # atno 10764 bound_to 10752
  153.7314  135.3326  155.3263 H   0  0  0  0  0  0  0  0  0  0  0  0  # atno 10765 bound_to 10752
  140.4533  134.6323  157.4811 H   0  0  0  0  0  0  0  0  0  0  0  0  # atno 11005 bound_to 11000
  145.8520  140.9523  143.0745 LP  0  0  0  0  0  0  0  0  0  0  0  0  # atno 17320 bound_to 7965
  144.6755  140.0419  143.7480 LP  0  0  0  0  0  0  0  0  0  0  0  0  # atno 17321 bound_to 7965
  140.7647  143.3257  151.2522 LP  0  0  0  0  0  0  0  0  0  0  0  0  # atno 17342 bound_to 10162
  139.6814  143.9848  152.2810 LP  0  0  0  0  0  0  0  0  0  0  0  0  # atno 17343 bound_to 10162
  155.9700  130.4581  150.5989 LP  0  0  0  0  0  0  0  0  0  0  0  0  # atno 17370 bound_to 10713
  157.3764  131.0774  151.1514 LP  0  0  0  0  0  0  0  0  0  0  0  0  # atno 17371 bound_to 10713
  139.9992  134.6862  155.9558 LP  0  0  0  0  0  0  0  0  0  0  0  0  # atno 17394 bound_to 11000
  141.1654  133.6537  156.4462 LP  0  0  0  0  0  0  0  0  0  0  0  0  # atno 17395 bound_to 11000

$$$$
