AV-unprocessed.smi:182|AV-procd|sdf|1455|dock6
  -GOLD-   2262019253D 1   1.00000     0.00000
 Structure written by MMmdl.
 56 59  0  0  0  0  0  0  0  0  1 V2000
  154.9535  141.7345  163.2167 N   0  0  0  0  0  0  0  0  0  0  0  0
  153.9680  142.6346  163.2458 C   0  0  0  0  0  0  0  0  0  0  0  0
  153.7048  143.2814  164.2580 O   0  0  0  0  0  0  0  0  0  0  0  0
  153.1677  142.8212  161.9529 C   0  0  0  0  0  0  0  0  0  0  0  0
  153.4788  141.7526  160.8856 C   0  0  0  0  0  0  0  0  0  0  0  0
  152.9293  142.0902  159.4853 C   0  0  2  0  0  0  0  0  0  0  0  0
  151.9051  143.2397  159.5599 C   0  0  0  0  0  0  0  0  0  0  0  0
  151.3368  143.5558  158.1688 C   0  0  0  0  0  0  0  0  0  0  0  0
  150.7376  142.2977  157.5240 C   0  0  0  0  0  0  0  0  0  0  0  0
  151.7185  141.2140  157.4948 N   0  0  0  0  0  0  0  0  0  0  0  0
  151.4146  140.1981  156.6463 C   0  0  0  0  0  0  0  0  0  0  0  0
  151.0955  140.4674  155.3514 N   0  0  0  0  0  0  0  0  0  0  0  0
  150.8005  139.4757  154.5065 C   0  0  0  0  0  0  0  0  0  0  0  0
  150.7680  138.1629  154.7404 N   0  0  0  0  0  0  0  0  0  0  0  0
  151.0845  137.8834  156.0372 C   0  0  0  0  0  0  0  0  0  0  0  0
  151.4094  138.8319  157.0485 C   0  0  0  0  0  0  0  0  0  0  0  0
  151.6393  138.1761  158.2525 N   0  0  0  0  0  0  0  0  0  0  0  0
  151.4690  136.9142  157.9672 C   0  0  0  0  0  0  0  0  0  0  0  0
  151.1651  136.6458  156.6517 N   0  0  0  0  0  0  0  0  0  0  0  0
  150.8918  135.3603  156.0792 C   0  0  0  0  0  0  0  0  0  0  0  0
  150.3764  135.2262  154.6442 C   0  0  0  0  0  0  0  0  0  0  0  0
  149.5657  133.9771  155.0591 C   0  0  0  0  0  0  0  0  0  0  0  0
  148.1454  133.8844  154.4771 C   0  0  0  0  0  0  0  0  0  0  0  0
  148.1724  133.8482  153.0648 O   0  0  0  0  0  0  0  0  0  0  0  0
  150.2849  132.6282  154.8581 C   0  0  0  0  0  0  0  0  0  0  0  0
  149.5526  131.5627  155.4289 O   0  0  0  0  0  0  0  0  0  0  0  0
  149.6525  134.5601  156.4866 C   0  0  0  0  0  0  0  0  0  0  0  0
  152.2931  140.8632  158.7958 C   0  0  0  0  0  0  0  0  0  0  0  0
  155.5078  141.5740  164.0453 H   0  0  0  0  0  0  0  0  0  0  0  0
  155.1407  141.2160  162.3707 H   0  0  0  0  0  0  0  0  0  0  0  0
  152.1029  142.7993  162.1898 H   0  0  0  0  0  0  0  0  0  0  0  0
  153.3846  143.8178  161.5686 H   0  0  0  0  0  0  0  0  0  0  0  0
  154.5566  141.5941  160.8212 H   0  0  0  0  0  0  0  0  0  0  0  0
  153.0526  140.8017  161.2097 H   0  0  0  0  0  0  0  0  0  0  0  0
  153.7627  142.4311  158.8690 H   0  0  0  0  0  0  0  0  0  0  0  0
  151.0909  142.9673  160.2331 H   0  0  0  0  0  0  0  0  0  0  0  0
  152.3689  144.1337  159.9781 H   0  0  0  0  0  0  0  0  0  0  0  0
  150.5769  144.3340  158.2421 H   0  0  0  0  0  0  0  0  0  0  0  0
  152.1270  143.9522  157.5300 H   0  0  0  0  0  0  0  0  0  0  0  0
  149.8689  141.9665  158.0947 H   0  0  0  0  0  0  0  0  0  0  0  0
  150.3779  142.5430  156.5256 H   0  0  0  0  0  0  0  0  0  0  0  0
  150.5583  139.7771  153.4980 H   0  0  0  0  0  0  0  0  0  0  0  0
  151.5667  136.1395  158.7141 H   0  0  0  0  0  0  0  0  0  0  0  0
  151.7975  134.7685  156.2216 H   0  0  0  0  0  0  0  0  0  0  0  0
  149.7431  136.0650  154.3490 H   0  0  0  0  0  0  0  0  0  0  0  0
  151.1561  135.0495  153.9029 H   0  0  0  0  0  0  0  0  0  0  0  0
  147.6444  132.9792  154.8216 H   0  0  0  0  0  0  0  0  0  0  0  0
  147.5224  134.7189  154.7992 H   0  0  0  0  0  0  0  0  0  0  0  0
  148.6041  134.6287  152.7528 H   0  0  0  0  0  0  0  0  0  0  0  0
  150.4208  132.4074  153.7992 H   0  0  0  0  0  0  0  0  0  0  0  0
  151.2844  132.6396  155.2937 H   0  0  0  0  0  0  0  0  0  0  0  0
  148.9060  131.9235  156.0160 H   0  0  0  0  0  0  0  0  0  0  0  0
  149.8283  133.8242  157.2720 H   0  0  0  0  0  0  0  0  0  0  0  0
  148.8057  135.2022  156.7371 H   0  0  0  0  0  0  0  0  0  0  0  0
  153.0488  140.0897  158.6557 H   0  0  0  0  0  0  0  0  0  0  0  0
  151.5118  140.4408  159.4296 H   0  0  0  0  0  0  0  0  0  0  0  0
  1  2  1  0  0  0  0
  1 29  1  0  0  0  0
  1 30  1  0  0  0  0
  2  3  2  0  0  0  0
  2  4  1  0  0  0  0
  4  5  1  0  0  0  0
  4 31  1  0  0  0  0
  4 32  1  0  0  0  0
  5  6  1  0  0  0  0
  5 33  1  0  0  0  0
  5 34  1  0  0  0  0
  6 28  1  0  0  0  0
  6  7  1  0  0  0  0
  6 35  1  0  0  0  0
  7  8  1  0  0  0  0
  7 36  1  0  0  0  0
  7 37  1  0  0  0  0
  8  9  1  0  0  0  0
  8 38  1  0  0  0  0
  8 39  1  0  0  0  0
  9 10  1  0  0  0  0
  9 40  1  0  0  0  0
  9 41  1  0  0  0  0
 10 11  1  0  0  0  0
 10 28  1  0  0  0  0
 11 16  1  0  0  0  0
 11 12  2  0  0  0  0
 12 13  1  0  0  0  0
 13 14  2  0  0  0  0
 13 42  1  0  0  0  0
 14 15  1  0  0  0  0
 15 19  1  0  0  0  0
 15 16  2  0  0  0  0
 16 17  1  0  0  0  0
 17 18  2  0  0  0  0
 18 19  1  0  0  0  0
 18 43  1  0  0  0  0
 19 20  1  0  0  0  0
 20 27  1  0  0  0  0
 20 21  1  0  0  0  0
 20 44  1  0  0  0  0
 21 22  1  0  0  0  0
 21 45  1  0  0  0  0
 21 46  1  0  0  0  0
 22 23  1  0  0  0  0
 22 25  1  0  0  0  0
 22 27  1  0  0  0  0
 23 24  1  0  0  0  0
 23 47  1  0  0  0  0
 23 48  1  0  0  0  0
 24 49  1  0  0  0  0
 25 26  1  0  0  0  0
 25 50  1  0  0  0  0
 25 51  1  0  0  0  0
 26 52  1  0  0  0  0
 27 53  1  0  0  0  0
 27 54  1  0  0  0  0
 28 55  1  0  0  0  0
 28 56  1  0  0  0  0
M  END
> <s_m_source_file>
AV-unprocessed.smi

> <i_m_source_file_index>
182

> <i_lp_mmshare_version>
43012

> <i_f3d_flags>
0

> <s_epik_input>
W05IMl1DKD1PKVtDSDJdW0NIMl1bQ0BASF0xW0NIMl1bQ0gyXVtDSDJdTihbQ0gyXTEpYyhuW2NIXW4yKWMoYzIzKW5bY0hdbjNbQ0hdKFtDSDJdNClbQ0gyXUM0KFtDSDJdW09IXSlbQ0gyXVtPSF0=

> <s_epik_cmdline>
J2VwaWtfcHl0aG9uJywgJy1waCcsICc3LjAnLCAnLXRuJywgJzgnLCAnLW1hJywgJzIwMCcsICctbWV0YWxfYmluZGluZycsICctaW1hZScsICc8aW5maWxlLm1hZT4nLCAnLW9tYWUnLCAnPG91dGZpbGUubWFlPic=

> <r_lp_tautomer_probability>
1

> <r_epik_Ionization_Penalty>
0.00186057

> <r_epik_Ionization_Penalty_Charging>
0

> <r_epik_Ionization_Penalty_Neutral>
0.00186057

> <r_epik_State_Penalty>
0.00110736

> <r_epik_Charging_Adjusted_Penalty>
0.00110736

> <i_epik_Tot_Q>
0

> <i_epik_Tot_abs_Q>
0

> <r_epik_Metal_State_Penalty>
-0

> <b_epik_Metal_Only>
0

> <s_lp_Force_Field>
OPLS_2005

> <r_lp_Energy>
36.2346

> <b_lp_Chiralities_Consistent>
1

> <s_lp_Variant>
AV-unprocessed.smi:182-1

> <Gold.Version>
5.8.1

> <Gold.Id.Protein>
6NUR|6NUR_protein|mol2

> <Gold.PLP.Fitness>
51.0734

> <Gold.PLP.PLP>
-47.1203

> <Gold.PLP.part.hbond>
-4.0000

> <Gold.PLP.part.metal>
0.0000

> <Gold.PLP.part.buried>
-4.9643

> <Gold.PLP.part.nonpolar>
-38.1168

> <Gold.PLP.part.repulsive>
0.3218

> <Gold.PLP.ligand.clash>
0.4395

> <Gold.PLP.ligand.torsion>
1.2930

> <Gold.PLP.Chemscore.Hbond>
1.0000

> <Gold.PLP.Chemscore.CHOScore>
1.0000

> <Gold.PLP.Chemscore.Metal>
0.0000

> <Gold.Chemscore.Hbonds>
donor molecule, donor type, donor heavy atom, donor atom, acceptor molecule, acceptor atom, score
      L1  H    24    49       P1  7948  0.85
      L1  C    13    42       P1  7957  1.00

> <Gold.PLP.Chemscore.Internal.Correction>
0.9785

> <Gold.Rescore>
     Score         DG    S(hbond)    S(metal)    S(lipo)     H(rot)  DE(clash)    DE(int)     intcor
      2.08      -7.86       0.93        0.00      98.72       4.79       2.19       3.59       ----

> <Gold.Chemscore.Fitness>
2.0824

> <Gold.Chemscore.DG>
-7.8563

> <Gold.Chemscore.ZeroCoef>
-5.4800

> <Gold.Chemscore.Hbond>
0.9265

> <Gold.Chemscore.Metal>
0.0000

> <Gold.Chemscore.Lipo>
98.7155

> <Gold.Chemscore.Internal_Hbond>
0.0000

> <Gold.Chemscore.DEClash>
2.1856

> <Gold.Chemscore.DEInternal>
3.5883

> <Gold.Chemscore.Rot>
4.7922

> <Gold.Chemscore.Internal.Correction>
   9.000000E+99

> <Gold.Chemscore.Hbonds>
donor molecule, donor type, donor heavy atom, donor atom, acceptor molecule, acceptor atom, score
      L1  H    24    49       P1  7948  0.15

> <Gold.Chemscore.Hbond.Weighted>
-3.0946

> <Gold.Chemscore.Metal.Weighted>
-0.0000

> <Gold.Chemscore.Lipo.Weighted>
-11.5497

> <Gold.Chemscore.Internal_Hbond.Weighted>
0.0000

> <Gold.Chemscore.DEClash.Weighted>
2.1856

> <Gold.Chemscore.DEInternal.Weighted>
3.5883

> <Gold.Chemscore.Rot.Weighted>
12.2680

> <Gold.Chemscore.Internal.Correction.Weighted>
   9.000000E+99

> <Gold.Protein.RotatedTorsions>
[ 6907 6896 6895 6894 ] final  108.51 input  -60.11 | X-H torsion
[ 7974 7965 7964 7962 ] final   25.35 input  175.53 | X-H torsion
[ 8008 7997 7996 7995 ] final  154.79 input   59.86 | X-H torsion
[ 10167 10162 10161 10158 ] final   70.75 input  -65.29 | X-H torsion
[ 10718 10713 10712 10709 ] final  147.66 input   66.30 | X-H torsion
[ 10763 10752 10751 10750 ] final   89.21 input  -60.55 | X-H torsion
[ 11005 11000 10999 10996 ] final  -86.82 input  -57.11 | X-H torsion

> <Gold.Protein.ActiveResidues>
 VAL166  LYS551  ARG553  GLY616  TRP617  ASP618  TYR619  PRO620  LYS621  CYS622 
 ASP623  PHE694  ASN695  SER759  ASP760  ASP761  ALA762  ILE779  LEU786  VAL792 
 PHE793  MET794  SER795  GLU796  ALA797  LYS798  CYS799  TRP800  GLU811  SER814 

> <Gold.Protein.RotatedAtoms>
  152.5109  133.9078  159.7472 H   0  0  0  0  0  0  0  0  0  0  0  0  # atno 6907 bound_to 6896
  150.9478  133.6574  159.2784 H   0  0  0  0  0  0  0  0  0  0  0  0  # atno 6908 bound_to 6896
  151.3863  135.0953  159.9565 H   0  0  0  0  0  0  0  0  0  0  0  0  # atno 6909 bound_to 6896
  146.1893  139.7478  142.8844 H   0  0  0  0  0  0  0  0  0  0  0  0  # atno 7974 bound_to 7965
  156.2512  140.1957  156.6701 H   0  0  0  0  0  0  0  0  0  0  0  0  # atno 8008 bound_to 7997
  154.6399  140.0585  156.9859 H   0  0  0  0  0  0  0  0  0  0  0  0  # atno 8009 bound_to 7997
  155.1579  140.3257  155.4420 H   0  0  0  0  0  0  0  0  0  0  0  0  # atno 8010 bound_to 7997
  140.0535  144.5292  150.7346 H   0  0  0  0  0  0  0  0  0  0  0  0  # atno 10167 bound_to 10162
  157.3182  131.0899  151.1262 H   0  0  0  0  0  0  0  0  0  0  0  0  # atno 10718 bound_to 10713
  153.1847  135.4479  155.0073 H   0  0  0  0  0  0  0  0  0  0  0  0  # atno 10763 bound_to 10752
  154.8053  135.3272  154.7450 H   0  0  0  0  0  0  0  0  0  0  0  0  # atno 10764 bound_to 10752
  153.7911  135.6970  153.4926 H   0  0  0  0  0  0  0  0  0  0  0  0  # atno 10765 bound_to 10752
  141.1625  133.7476  156.9217 H   0  0  0  0  0  0  0  0  0  0  0  0  # atno 11005 bound_to 11000
  145.3842  141.0363  143.3160 LP  0  0  0  0  0  0  0  0  0  0  0  0  # atno 17320 bound_to 7965
  144.8456  139.5403  143.6880 LP  0  0  0  0  0  0  0  0  0  0  0  0  # atno 17321 bound_to 7965
  140.7205  143.2584  151.4293 LP  0  0  0  0  0  0  0  0  0  0  0  0  # atno 17342 bound_to 10162
  139.5938  144.1442  152.2119 LP  0  0  0  0  0  0  0  0  0  0  0  0  # atno 17343 bound_to 10162
  157.2557  130.6635  149.5951 LP  0  0  0  0  0  0  0  0  0  0  0  0  # atno 17370 bound_to 10713
  155.9683  130.4524  150.5773 LP  0  0  0  0  0  0  0  0  0  0  0  0  # atno 17371 bound_to 10713
  140.1447  134.9270  157.2513 LP  0  0  0  0  0  0  0  0  0  0  0  0  # atno 17394 bound_to 11000
  140.2795  134.3367  155.7347 LP  0  0  0  0  0  0  0  0  0  0  0  0  # atno 17395 bound_to 11000

$$$$
