AV-unprocessed.smi:3258|AV-procd|sdf|12469|dock8
  -GOLD-   2272018363D 1   1.00000     0.00000
 Structure written by MMmdl.
 38 39  0  0  0  0  0  0  0  0  1 V2000
  144.0295  137.1805  152.9804 C   0  0  0  0  0  0  0  0  0  0  0  0
  144.9573  136.0145  152.6043 C   0  0  1  0  0  0  0  0  0  0  0  0
  144.8221  135.6457  151.1143 C   0  0  0  0  0  0  0  0  0  0  0  0
  144.9991  134.2232  150.8793 N   0  0  0  0  0  0  0  0  0  0  0  0
  144.0933  133.3231  150.3587 C   0  0  0  0  0  0  0  0  0  0  0  0
  144.7022  132.1013  150.3356 C   0  0  0  0  0  0  0  0  0  0  0  0
  145.9970  132.3590  150.8671 C   0  0  0  0  0  0  0  0  0  0  0  0
  146.1721  133.6299  151.1912 N   0  0  0  0  0  0  0  0  0  0  0  0
  146.3434  136.3614  152.9122 N   0  0  0  0  0  0  0  0  0  0  0  0
  146.7901  136.7886  154.1011 C   0  0  0  0  0  0  0  0  0  0  0  0
  146.0724  136.9655  155.0856 O   0  0  0  0  0  0  0  0  0  0  0  0
  148.1129  137.0039  154.0844 N   0  0  0  0  0  0  0  0  0  0  0  0
  148.9057  137.4846  155.2115 C   0  0  0  0  0  0  0  0  0  0  0  0
  150.1868  138.2016  154.7457 C   0  0  2  0  0  0  0  0  0  0  0  0
  151.3877  137.9484  155.6335 C   0  0  0  0  0  0  0  0  0  0  0  0
  152.3231  139.0846  155.2312 C   0  0  0  0  0  0  0  0  0  0  0  0
  151.4788  140.1704  154.8601 O   0  0  0  0  0  0  0  0  0  0  0  0
  150.1267  139.7306  154.7738 C   0  0  0  0  0  0  0  0  0  0  0  0
  142.9878  136.9348  152.7726 H   0  0  0  0  0  0  0  0  0  0  0  0
  144.2773  138.0817  152.4185 H   0  0  0  0  0  0  0  0  0  0  0  0
  144.1032  137.4184  154.0420 H   0  0  0  0  0  0  0  0  0  0  0  0
  144.6650  135.1443  153.1951 H   0  0  0  0  0  0  0  0  0  0  0  0
  143.8320  135.9221  150.7496 H   0  0  0  0  0  0  0  0  0  0  0  0
  145.5415  136.2025  150.5112 H   0  0  0  0  0  0  0  0  0  0  0  0
  143.1014  133.6237  150.0547 H   0  0  0  0  0  0  0  0  0  0  0  0
  144.2863  131.1658  149.9921 H   0  0  0  0  0  0  0  0  0  0  0  0
  146.8088  131.6649  151.0264 H   0  0  0  0  0  0  0  0  0  0  0  0
  147.0146  136.2451  152.1670 H   0  0  0  0  0  0  0  0  0  0  0  0
  148.6106  136.8247  153.2245 H   0  0  0  0  0  0  0  0  0  0  0  0
  148.3118  138.1348  155.8564 H   0  0  0  0  0  0  0  0  0  0  0  0
  149.1741  136.6193  155.8178 H   0  0  0  0  0  0  0  0  0  0  0  0
  150.4343  137.8787  153.7329 H   0  0  0  0  0  0  0  0  0  0  0  0
  151.1121  138.0465  156.6846 H   0  0  0  0  0  0  0  0  0  0  0  0
  151.8304  136.9628  155.4869 H   0  0  0  0  0  0  0  0  0  0  0  0
  153.0061  139.3655  156.0332 H   0  0  0  0  0  0  0  0  0  0  0  0
  152.9190  138.7980  154.3638 H   0  0  0  0  0  0  0  0  0  0  0  0
  149.6294  140.1462  153.8972 H   0  0  0  0  0  0  0  0  0  0  0  0
  149.5961  140.0803  155.6604 H   0  0  0  0  0  0  0  0  0  0  0  0
  1  2  1  0  0  0  0
  1 19  1  0  0  0  0
  1 20  1  0  0  0  0
  1 21  1  0  0  0  0
  2  3  1  0  0  0  0
  2  9  1  0  0  0  0
  2 22  1  0  0  0  0
  3  4  1  0  0  0  0
  3 23  1  0  0  0  0
  3 24  1  0  0  0  0
  4  8  1  0  0  0  0
  4  5  1  0  0  0  0
  5  6  2  0  0  0  0
  5 25  1  0  0  0  0
  6  7  1  0  0  0  0
  6 26  1  0  0  0  0
  7  8  2  0  0  0  0
  7 27  1  0  0  0  0
  9 10  1  0  0  0  0
  9 28  1  0  0  0  0
 10 11  2  0  0  0  0
 10 12  1  0  0  0  0
 12 13  1  0  0  0  0
 12 29  1  0  0  0  0
 13 14  1  0  0  0  0
 13 30  1  0  0  0  0
 13 31  1  0  0  0  0
 14 18  1  0  0  0  0
 14 15  1  0  0  0  0
 14 32  1  0  0  0  0
 15 16  1  0  0  0  0
 15 33  1  0  0  0  0
 15 34  1  0  0  0  0
 16 17  1  0  0  0  0
 16 35  1  0  0  0  0
 16 36  1  0  0  0  0
 17 18  1  0  0  0  0
 18 37  1  0  0  0  0
 18 38  1  0  0  0  0
M  END
> <s_m_source_file>
AV-unprocessed.smi

> <i_m_source_file_index>
3258

> <i_lp_mmshare_version>
43012

> <i_f3d_flags>
0

> <s_epik_input>
bjFbY0hdW2NIXVtjSF1uMVtDSDJdW0NAQEhdKFtDSDNdKVtOSF1DKD1PKVtOSF1bQ0gyXVtDQEBIXTJbQ0gyXVtDSDJdT1tDSDJdMg==

> <s_epik_cmdline>
J2VwaWtfcHl0aG9uJywgJy1waCcsICc3LjAnLCAnLXRuJywgJzgnLCAnLW1hJywgJzIwMCcsICctbWV0YWxfYmluZGluZycsICctaW1hZScsICc8aW5maWxlLm1hZT4nLCAnLW9tYWUnLCAnPG91dGZpbGUubWFlPic=

> <r_lp_tautomer_probability>
1

> <r_epik_Ionization_Penalty>
6.85079e-05

> <r_epik_Ionization_Penalty_Charging>
0

> <r_epik_Ionization_Penalty_Neutral>
6.85079e-05

> <r_epik_State_Penalty>
-0

> <r_epik_Charging_Adjusted_Penalty>
0

> <i_epik_Tot_Q>
0

> <i_epik_Tot_abs_Q>
0

> <r_epik_Metal_State_Penalty>
-0

> <b_epik_Metal_Only>
0

> <s_lp_Force_Field>
OPLS_2005

> <r_lp_Energy>
17.05

> <b_lp_Chiralities_Consistent>
1

> <s_lp_Variant>
AV-unprocessed.smi:3258-2

> <Gold.Version>
5.8.1

> <Gold.Id.Protein>
6NUR|6NUR_protein|mol2

> <Gold.PLP.Fitness>
43.0999

> <Gold.PLP.PLP>
-30.8456

> <Gold.PLP.part.hbond>
-2.9004

> <Gold.PLP.part.metal>
0.0000

> <Gold.PLP.part.buried>
-4.7193

> <Gold.PLP.part.nonpolar>
-23.8354

> <Gold.PLP.part.repulsive>
0.2790

> <Gold.PLP.ligand.clash>
0.0000

> <Gold.PLP.ligand.torsion>
1.1716

> <Gold.PLP.Chemscore.Hbond>
2.8480

> <Gold.PLP.Chemscore.CHOScore>
2.0000

> <Gold.PLP.Chemscore.Metal>
0.0000

> <Gold.Chemscore.Hbonds>
donor molecule, donor type, donor heavy atom, donor atom, acceptor molecule, acceptor atom, score
      L1  H     9    28       P1  7948  0.83
      L1  H    12    29       P1  7948  0.98
      P1  H  7989  7998       L1    17  1.00
      L1  C     5    25       P1 10186  1.00
      L1  C     7    27       P1 10747  1.00

> <Gold.PLP.Chemscore.Internal.Correction>
0.0534

> <Gold.Rescore>
     Score         DG    S(hbond)    S(metal)    S(lipo)     H(rot)  DE(clash)    DE(int)     intcor
     14.35     -16.78       2.41        0.00      68.73       1.87       0.01       2.43       ----

> <Gold.Chemscore.Fitness>
14.3462

> <Gold.Chemscore.DG>
-16.7802

> <Gold.Chemscore.ZeroCoef>
-5.4800

> <Gold.Chemscore.Hbond>
2.4109

> <Gold.Chemscore.Metal>
0.0000

> <Gold.Chemscore.Lipo>
68.7257

> <Gold.Chemscore.Internal_Hbond>
0.0000

> <Gold.Chemscore.DEClash>
0.0075

> <Gold.Chemscore.DEInternal>
2.4266

> <Gold.Chemscore.Rot>
1.8724

> <Gold.Chemscore.Internal.Correction>
   9.000000E+99

> <Gold.Chemscore.Hbonds>
donor molecule, donor type, donor heavy atom, donor atom, acceptor molecule, acceptor atom, score
      L1  H     9    28       P1  7948  0.82
      L1  H    12    29       P1  7948  0.91
      P1  H  7989  7998       L1    17  0.27

> <Gold.Chemscore.Hbond.Weighted>
-8.0526

> <Gold.Chemscore.Metal.Weighted>
-0.0000

> <Gold.Chemscore.Lipo.Weighted>
-8.0409

> <Gold.Chemscore.Internal_Hbond.Weighted>
0.0000

> <Gold.Chemscore.DEClash.Weighted>
0.0075

> <Gold.Chemscore.DEInternal.Weighted>
2.4266

> <Gold.Chemscore.Rot.Weighted>
4.7933

> <Gold.Chemscore.Internal.Correction.Weighted>
   9.000000E+99

> <Gold.Protein.RotatedTorsions>
[ 6907 6896 6895 6894 ] final  -51.53 input  -60.11 | X-H torsion
[ 7974 7965 7964 7962 ] final   77.87 input  175.53 | X-H torsion
[ 8008 7997 7996 7995 ] final   32.43 input   59.86 | X-H torsion
[ 10167 10162 10161 10158 ] final   63.55 input  -65.29 | X-H torsion
[ 10718 10713 10712 10709 ] final  -38.23 input   66.30 | X-H torsion
[ 10763 10752 10751 10750 ] final -140.88 input  -60.55 | X-H torsion
[ 11005 11000 10999 10996 ] final -135.39 input  -57.11 | X-H torsion

> <Gold.Protein.ActiveResidues>
 VAL166  LYS551  ARG553  GLY616  TRP617  ASP618  TYR619  PRO620  LYS621  CYS622 
 ASP623  PHE694  ASN695  SER759  ASP760  ASP761  ALA762  ILE779  LEU786  VAL792 
 PHE793  MET794  SER795  GLU796  ALA797  LYS798  CYS799  TRP800  GLU811  SER814 

> <Gold.Protein.RotatedAtoms>
  150.8602  134.7952  159.7076 H   0  0  0  0  0  0  0  0  0  0  0  0  # atno 6907 bound_to 6896
  152.4641  134.5112  159.9764 H   0  0  0  0  0  0  0  0  0  0  0  0  # atno 6908 bound_to 6896
  151.5217  133.3427  159.2938 H   0  0  0  0  0  0  0  0  0  0  0  0  # atno 6909 bound_to 6896
  145.6844  139.2533  143.1795 H   0  0  0  0  0  0  0  0  0  0  0  0  # atno 7974 bound_to 7965
  155.1224  140.3249  155.4494 H   0  0  0  0  0  0  0  0  0  0  0  0  # atno 8008 bound_to 7997
  156.2659  140.2025  156.6294 H   0  0  0  0  0  0  0  0  0  0  0  0  # atno 8009 bound_to 7997
  154.6674  140.0540  157.0115 H   0  0  0  0  0  0  0  0  0  0  0  0  # atno 8010 bound_to 7997
  140.1318  144.4635  150.6860 H   0  0  0  0  0  0  0  0  0  0  0  0  # atno 10167 bound_to 10162
  156.3061  130.4246  149.8095 H   0  0  0  0  0  0  0  0  0  0  0  0  # atno 10718 bound_to 10713
  154.8564  135.3540  154.5779 H   0  0  0  0  0  0  0  0  0  0  0  0  # atno 10763 bound_to 10752
  153.6390  135.6999  153.5253 H   0  0  0  0  0  0  0  0  0  0  0  0  # atno 10764 bound_to 10752
  153.2986  135.4213  155.1191 H   0  0  0  0  0  0  0  0  0  0  0  0  # atno 10765 bound_to 10752
  140.8902  134.1821  157.4533 H   0  0  0  0  0  0  0  0  0  0  0  0  # atno 11005 bound_to 11000
  146.0936  140.7627  142.9583 LP  0  0  0  0  0  0  0  0  0  0  0  0  # atno 17320 bound_to 7965
  144.7016  140.3676  143.7151 LP  0  0  0  0  0  0  0  0  0  0  0  0  # atno 17321 bound_to 7965
  140.6812  143.2328  151.5379 LP  0  0  0  0  0  0  0  0  0  0  0  0  # atno 17342 bound_to 10162
  139.5515  144.2382  152.1539 LP  0  0  0  0  0  0  0  0  0  0  0  0  # atno 17343 bound_to 10162
  156.5455  130.8319  151.3283 LP  0  0  0  0  0  0  0  0  0  0  0  0  # atno 17370 bound_to 10713
  157.7380  130.9805  150.2226 LP  0  0  0  0  0  0  0  0  0  0  0  0  # atno 17371 bound_to 10713
  139.8729  134.9855  156.5285 LP  0  0  0  0  0  0  0  0  0  0  0  0  # atno 17394 bound_to 11000
  140.8356  133.8245  155.9025 LP  0  0  0  0  0  0  0  0  0  0  0  0  # atno 17395 bound_to 11000

$$$$
