AV-unprocessed.smi:298|AV-procd|sdf|2264|dock3
  -GOLD-   2262022153D 1   1.00000     0.00000
 Structure written by MMmdl.
 39 41  0  0  0  0  0  0  0  0  2 V2000
  151.9976  144.8504  160.8356 C   0  0  0  0  0  0  0  0  0  0  0  0
  151.9285  143.7426  159.7983 C   0  0  0  0  0  0  0  0  0  0  0  0
  151.1258  143.9407  158.6521 C   0  0  0  0  0  0  0  0  0  0  0  0
  151.0845  142.9102  157.7204 C   0  0  0  0  0  0  0  0  0  0  0  0
  150.4033  142.8007  156.5058 N   0  3  0  0  0  0  0  0  0  0  0  0
  150.6753  141.5928  155.9385 C   0  0  0  0  0  0  0  0  0  0  0  0
  151.5202  140.9291  156.7734 N   0  0  0  0  0  0  0  0  0  0  0  0
  152.1149  139.5915  156.6445 C   0  0  0  0  0  0  0  0  0  0  0  0
  152.0710  139.0458  155.1995 C   0  0  1  0  0  0  0  0  0  0  0  0
  153.3628  139.0747  154.6229 O   0  0  0  0  0  0  0  0  0  0  0  0
  151.4928  137.6161  155.1015 C   0  0  0  0  0  0  0  0  0  0  0  0
  150.2871  137.4152  155.8901 N   0  0  0  0  0  0  0  0  0  0  0  0
  149.0641  137.0231  155.5172 C   0  0  0  0  0  0  0  0  0  0  0  0
  148.1889  136.9625  156.5132 N   0  0  0  0  0  0  0  0  0  0  0  0
  149.0060  137.3479  157.5360 C   0  0  0  0  0  0  0  0  0  0  0  0
  148.5152  137.4654  158.8984 C   0  0  0  0  0  0  0  0  0  0  0  0
  148.1246  137.5602  159.9835 N   0  0  0  0  0  0  0  0  0  0  0  0
  150.2711  137.6244  157.2292 N   0  0  0  0  0  0  0  0  0  0  0  0
  151.8043  141.7132  157.8982 C   0  0  0  0  0  0  0  0  0  0  0  0
  152.6020  141.5026  159.0209 C   0  0  0  0  0  0  0  0  0  0  0  0
  152.6577  142.5387  159.9799 C   0  0  0  0  0  0  0  0  0  0  0  0
  153.5212  142.3362  161.2133 C   0  0  0  0  0  0  0  0  0  0  0  0
  151.3974  145.7115  160.5405 H   0  0  0  0  0  0  0  0  0  0  0  0
  153.0253  145.1902  160.9662 H   0  0  0  0  0  0  0  0  0  0  0  0
  151.6236  144.4979  161.7974 H   0  0  0  0  0  0  0  0  0  0  0  0
  150.5696  144.8553  158.5064 H   0  0  0  0  0  0  0  0  0  0  0  0
  150.2891  141.2275  154.9976 H   0  0  0  0  0  0  0  0  0  0  0  0
  153.1318  139.6256  157.0349 H   0  0  0  0  0  0  0  0  0  0  0  0
  151.5613  138.9250  157.3069 H   0  0  0  0  0  0  0  0  0  0  0  0
  151.4486  139.7074  154.5961 H   0  0  0  0  0  0  0  0  0  0  0  0
  153.3000  138.7736  153.7295 H   0  0  0  0  0  0  0  0  0  0  0  0
  151.2511  137.3951  154.0610 H   0  0  0  0  0  0  0  0  0  0  0  0
  152.2368  136.8783  155.4058 H   0  0  0  0  0  0  0  0  0  0  0  0
  148.8063  136.7879  154.4948 H   0  0  0  0  0  0  0  0  0  0  0  0
  153.1644  140.5903  159.1570 H   0  0  0  0  0  0  0  0  0  0  0  0
  153.9808  141.3473  161.2203 H   0  0  0  0  0  0  0  0  0  0  0  0
  152.9242  142.4308  162.1207 H   0  0  0  0  0  0  0  0  0  0  0  0
  154.3215  143.0759  161.2450 H   0  0  0  0  0  0  0  0  0  0  0  0
  149.7966  143.4974  156.0925 H   0  0  0  0  0  0  0  0  0  0  0  0
  1  2  1  0  0  0  0
  1 23  1  0  0  0  0
  1 24  1  0  0  0  0
  1 25  1  0  0  0  0
  2 21  1  0  0  0  0
  2  3  2  0  0  0  0
  3  4  1  0  0  0  0
  3 26  1  0  0  0  0
  4 19  2  0  0  0  0
  4  5  1  0  0  0  0
  5  6  2  0  0  0  0
  5 39  1  0  0  0  0
  6  7  1  0  0  0  0
  6 27  1  0  0  0  0
  7  8  1  0  0  0  0
  7 19  1  0  0  0  0
  8  9  1  0  0  0  0
  8 28  1  0  0  0  0
  8 29  1  0  0  0  0
  9 10  1  0  0  0  0
  9 11  1  0  0  0  0
  9 30  1  0  0  0  0
 10 31  1  0  0  0  0
 11 12  1  0  0  0  0
 11 32  1  0  0  0  0
 11 33  1  0  0  0  0
 12 18  1  0  0  0  0
 12 13  1  0  0  0  0
 13 14  2  0  0  0  0
 13 34  1  0  0  0  0
 14 15  1  0  0  0  0
 15 16  1  0  0  0  0
 15 18  2  0  0  0  0
 16 17  3  0  0  0  0
 19 20  1  0  0  0  0
 20 21  2  0  0  0  0
 20 35  1  0  0  0  0
 21 22  1  0  0  0  0
 22 36  1  0  0  0  0
 22 37  1  0  0  0  0
 22 38  1  0  0  0  0
M  CHG  1   5   1
M  END
> <s_m_source_file>
AV-unprocessed.smi

> <i_m_source_file_index>
298

> <i_lp_mmshare_version>
43012

> <i_f3d_flags>
0

> <s_epik_input>
W0NIM11jKFtjSF0xKWMoW0NIM10pW2NIXWMoYzEyKW4oW2NIXW4yKVtDSDJdW0NASF0oW09IXSlbQ0gyXW4zW2NIXW5jKG4zKUMjTg==

> <s_epik_cmdline>
J2VwaWtfcHl0aG9uJywgJy1waCcsICc3LjAnLCAnLXRuJywgJzgnLCAnLW1hJywgJzIwMCcsICctbWV0YWxfYmluZGluZycsICctaW1hZScsICc8aW5maWxlLm1hZT4nLCAnLW9tYWUnLCAnPG91dGZpbGUubWFlPic=

> <r_epik_Ionization_Penalty>
1.12076

> <r_epik_Ionization_Penalty_Charging>
1.12075

> <r_epik_Ionization_Penalty_Neutral>
1.54565e-06

> <r_epik_State_Penalty>
1.17957

> <r_epik_Charging_Adjusted_Penalty>
2.30033

> <i_epik_Tot_Q>
1

> <i_epik_Tot_abs_Q>
1

> <r_epik_Metal_State_Penalty>
1.26402

> <b_epik_Metal_Only>
0

> <s_lp_Force_Field>
OPLS_2005

> <r_lp_Energy>
17.1818

> <b_lp_Chiralities_Consistent>
1

> <s_lp_Variant>
AV-unprocessed.smi:298-4

> <Gold.Version>
5.8.1

> <Gold.Id.Protein>
6NUR|6NUR_protein|mol2

> <Gold.PLP.Fitness>
55.2374

> <Gold.PLP.PLP>
-43.5203

> <Gold.PLP.part.hbond>
-4.1282

> <Gold.PLP.part.metal>
0.0000

> <Gold.PLP.part.buried>
-6.0130

> <Gold.PLP.part.nonpolar>
-34.0692

> <Gold.PLP.part.repulsive>
0.0951

> <Gold.PLP.ligand.clash>
0.0000

> <Gold.PLP.ligand.torsion>
1.0215

> <Gold.PLP.Chemscore.Hbond>
3.5847

> <Gold.PLP.Chemscore.CHOScore>
0.9931

> <Gold.PLP.Chemscore.Metal>
0.0000

> <Gold.Chemscore.Hbonds>
donor molecule, donor type, donor heavy atom, donor atom, acceptor molecule, acceptor atom, score
      L1  H     5    39       P1  8028  2.00
      P1  H  6931  6943       L1    17  0.24
      P1  H  6934  6947       L1    17  0.56
      P1  H  7997  8010       L1    10  0.93
      L1  C    13    34       P1  7948  0.62

> <Gold.PLP.Chemscore.Internal.Correction>
0.0266

> <Gold.Rescore>
     Score         DG    S(hbond)    S(metal)    S(lipo)     H(rot)  DE(clash)    DE(int)     intcor
     17.22     -19.74       3.00        0.00     103.77       3.09       0.04       2.49       ----

> <Gold.Chemscore.Fitness>
17.2202

> <Gold.Chemscore.DG>
-19.7436

> <Gold.Chemscore.ZeroCoef>
-5.4800

> <Gold.Chemscore.Hbond>
3.0033

> <Gold.Chemscore.Metal>
0.0000

> <Gold.Chemscore.Lipo>
103.7701

> <Gold.Chemscore.Internal_Hbond>
0.0000

> <Gold.Chemscore.DEClash>
0.0376

> <Gold.Chemscore.DEInternal>
2.4858

> <Gold.Chemscore.Rot>
3.0892

> <Gold.Chemscore.Internal.Correction>
   9.000000E+99

> <Gold.Chemscore.Hbonds>
donor molecule, donor type, donor heavy atom, donor atom, acceptor molecule, acceptor atom, score
      L1  H     5    39       P1  8028  0.98
      P1  H  6931  6943       L1    17  0.24
      P1  H  6934  6947       L1    17  0.55
      P1  H  7997  8010       L1    10  0.79

> <Gold.Chemscore.Hbond.Weighted>
-10.0309

> <Gold.Chemscore.Metal.Weighted>
-0.0000

> <Gold.Chemscore.Lipo.Weighted>
-12.1411

> <Gold.Chemscore.Internal_Hbond.Weighted>
0.0000

> <Gold.Chemscore.DEClash.Weighted>
0.0376

> <Gold.Chemscore.DEInternal.Weighted>
2.4858

> <Gold.Chemscore.Rot.Weighted>
7.9084

> <Gold.Chemscore.Internal.Correction.Weighted>
   9.000000E+99

> <Gold.Protein.RotatedTorsions>
[ 6907 6896 6895 6894 ] final   99.27 input  -60.11 | X-H torsion
[ 7974 7965 7964 7962 ] final  -93.34 input  175.53 | X-H torsion
[ 8008 7997 7996 7995 ] final  132.22 input   59.86 | X-H torsion
[ 10167 10162 10161 10158 ] final -168.34 input  -65.29 | X-H torsion
[ 10718 10713 10712 10709 ] final  -84.36 input   66.30 | X-H torsion
[ 10763 10752 10751 10750 ] final  -48.35 input  -60.55 | X-H torsion
[ 11005 11000 10999 10996 ] final   18.65 input  -57.11 | X-H torsion

> <Gold.Protein.ActiveResidues>
 VAL166  LYS551  ARG553  GLY616  TRP617  ASP618  TYR619  PRO620  LYS621  CYS622 
 ASP623  PHE694  ASN695  SER759  ASP760  ASP761  ALA762  ILE779  LEU786  VAL792 
 PHE793  MET794  SER795  GLU796  ALA797  LYS798  CYS799  TRP800  GLU811  SER814 

> <Gold.Protein.RotatedAtoms>
  152.5395  134.0454  159.8085 H   0  0  0  0  0  0  0  0  0  0  0  0  # atno 6907 bound_to 6896
  151.0604  133.5541  159.2642 H   0  0  0  0  0  0  0  0  0  0  0  0  # atno 6908 bound_to 6896
  151.2442  135.0607  159.9091 H   0  0  0  0  0  0  0  0  0  0  0  0  # atno 6909 bound_to 6896
  145.3878  140.9525  143.2357 H   0  0  0  0  0  0  0  0  0  0  0  0  # atno 7974 bound_to 7965
  156.2980  140.2552  156.3054 H   0  0  0  0  0  0  0  0  0  0  0  0  # atno 8008 bound_to 7997
  154.9377  140.0397  157.2099 H   0  0  0  0  0  0  0  0  0  0  0  0  # atno 8009 bound_to 7997
  154.8157  140.2851  155.5826 H   0  0  0  0  0  0  0  0  0  0  0  0  # atno 8010 bound_to 7997
  139.5991  144.1048  152.1723 H   0  0  0  0  0  0  0  0  0  0  0  0  # atno 10167 bound_to 10162
  156.0007  130.4695  150.4398 H   0  0  0  0  0  0  0  0  0  0  0  0  # atno 10718 bound_to 10713
  154.0763  135.6597  153.4831 H   0  0  0  0  0  0  0  0  0  0  0  0  # atno 10763 bound_to 10752
  153.0372  135.5169  154.7518 H   0  0  0  0  0  0  0  0  0  0  0  0  # atno 10764 bound_to 10752
  154.6599  135.3013  154.9848 H   0  0  0  0  0  0  0  0  0  0  0  0  # atno 10765 bound_to 10752
  140.4225  134.1504  155.7674 H   0  0  0  0  0  0  0  0  0  0  0  0  # atno 11005 bound_to 11000
  144.8461  139.5394  143.6878 LP  0  0  0  0  0  0  0  0  0  0  0  0  # atno 17320 bound_to 7965
  146.2812  139.6881  142.9228 LP  0  0  0  0  0  0  0  0  0  0  0  0  # atno 17321 bound_to 7965
  140.0640  144.5833  150.7241 LP  0  0  0  0  0  0  0  0  0  0  0  0  # atno 17342 bound_to 10162
  140.7236  143.2613  151.4197 LP  0  0  0  0  0  0  0  0  0  0  0  0  # atno 17343 bound_to 10162
  157.2440  131.0532  151.2419 LP  0  0  0  0  0  0  0  0  0  0  0  0  # atno 17370 bound_to 10713
  157.3593  130.7123  149.6491 LP  0  0  0  0  0  0  0  0  0  0  0  0  # atno 17371 bound_to 10713
  141.1778  133.8477  157.1361 LP  0  0  0  0  0  0  0  0  0  0  0  0  # atno 17394 bound_to 11000
  140.0190  134.9954  157.0553 LP  0  0  0  0  0  0  0  0  0  0  0  0  # atno 17395 bound_to 11000

$$$$
