AV-unprocessed.smi:2941|AV-procd|sdf|11265|dock4
  -GOLD-   2272016153D 1   1.00000     0.00000
 Structure written by MMmdl.
 35 36  0  0  0  0  0  0  0  0  2 V2000
  145.4100  137.7276  151.9172 C   0  0  0  0  0  0  0  0  0  0  0  0
  145.9498  139.0377  151.9138 O   0  0  0  0  0  0  0  0  0  0  0  0
  146.5669  139.3738  153.1447 C   0  0  0  0  0  0  0  0  0  0  0  0
  146.8891  140.8754  153.1445 C   0  0  0  0  0  0  0  0  0  0  0  0
  147.3802  141.3184  154.4559 N   0  0  0  0  0  0  0  0  0  0  0  0
  148.6965  140.9531  154.7975 C   0  0  0  0  0  0  0  0  0  0  0  0
  149.2573  141.3018  155.9708 C   0  0  0  0  0  0  0  0  0  0  0  0
  150.6441  140.8854  156.2935 C   0  0  0  0  0  0  0  0  0  0  0  0
  151.1937  139.9735  155.6736 O   0  0  0  0  0  0  0  0  0  0  0  0
  151.3629  141.6235  157.3757 C   0  0  0  0  0  0  0  0  0  0  0  0
  151.2643  143.0343  157.4235 C   0  0  0  0  0  0  0  0  0  0  0  0
  151.9359  143.7697  158.4176 C   0  0  0  0  0  0  0  0  0  0  0  0
  151.8330  145.1197  158.4466 F   0  0  0  0  0  0  0  0  0  0  0  0
  152.7159  143.1031  159.3788 C   0  0  0  0  0  0  0  0  0  0  0  0
  152.8208  141.7007  159.3453 C   0  0  0  0  0  0  0  0  0  0  0  0
  152.1505  140.9562  158.3530 C   0  0  0  0  0  0  0  0  0  0  0  0
  152.2708  139.5938  158.3846 O   0  5  0  0  0  0  0  0  0  0  0  0
  148.4492  142.0671  156.9008 C   0  0  0  0  0  0  0  0  0  0  0  0
  147.1846  142.4094  156.5846 C   0  0  0  0  0  0  0  0  0  0  0  0
  146.3699  143.1529  157.4875 C   0  0  0  0  0  0  0  0  0  0  0  0
  145.7235  143.7544  158.2359 N   0  0  0  0  0  0  0  0  0  0  0  0
  146.5758  142.0310  155.3015 C   0  0  0  0  0  0  0  0  0  0  0  0
  145.4182  142.3283  155.0012 O   0  0  0  0  0  0  0  0  0  0  0  0
  144.9503  137.5182  150.9515 H   0  0  0  0  0  0  0  0  0  0  0  0
  144.6433  137.6189  152.6854 H   0  0  0  0  0  0  0  0  0  0  0  0
  146.1866  136.9813  152.0893 H   0  0  0  0  0  0  0  0  0  0  0  0
  145.9008  139.1285  153.9734 H   0  0  0  0  0  0  0  0  0  0  0  0
  147.4820  138.7934  153.2732 H   0  0  0  0  0  0  0  0  0  0  0  0
  147.6322  141.0880  152.3743 H   0  0  0  0  0  0  0  0  0  0  0  0
  146.0068  141.4456  152.8489 H   0  0  0  0  0  0  0  0  0  0  0  0
  149.2114  140.3729  154.0441 H   0  0  0  0  0  0  0  0  0  0  0  0
  150.6774  143.5663  156.6888 H   0  0  0  0  0  0  0  0  0  0  0  0
  153.2322  143.6656  160.1423 H   0  0  0  0  0  0  0  0  0  0  0  0
  153.4178  141.1943  160.0900 H   0  0  0  0  0  0  0  0  0  0  0  0
  148.8476  142.3582  157.8622 H   0  0  0  0  0  0  0  0  0  0  0  0
  1  2  1  0  0  0  0
  1 24  1  0  0  0  0
  1 25  1  0  0  0  0
  1 26  1  0  0  0  0
  2  3  1  0  0  0  0
  3  4  1  0  0  0  0
  3 27  1  0  0  0  0
  3 28  1  0  0  0  0
  4  5  1  0  0  0  0
  4 29  1  0  0  0  0
  4 30  1  0  0  0  0
  5 22  1  0  0  0  0
  5  6  1  0  0  0  0
  6  7  2  0  0  0  0
  6 31  1  0  0  0  0
  7  8  1  0  0  0  0
  7 18  1  0  0  0  0
  8  9  2  0  0  0  0
  8 10  1  0  0  0  0
 10 16  1  0  0  0  0
 10 11  2  0  0  0  0
 11 12  1  0  0  0  0
 11 32  1  0  0  0  0
 12 13  1  0  0  0  0
 12 14  2  0  0  0  0
 14 15  1  0  0  0  0
 14 33  1  0  0  0  0
 15 16  2  0  0  0  0
 15 34  1  0  0  0  0
 16 17  1  0  0  0  0
 18 19  2  0  0  0  0
 18 35  1  0  0  0  0
 19 20  1  0  0  0  0
 19 22  1  0  0  0  0
 20 21  3  0  0  0  0
 22 23  2  0  0  0  0
M  CHG  1  17  -1
M  END
> <s_m_source_file>
AV-unprocessed.smi

> <i_m_source_file_index>
2941

> <i_lp_mmshare_version>
43012

> <i_f3d_flags>
0

> <s_epik_input>
W0NIM11PW0NIMl1bQ0gyXW4xW2NIXWMoW2NIXWMoQyNOKWMxPU8pQyg9TyljMltjSF1jKEYpW2NIXVtjSF1jMltPSF0=

> <s_epik_cmdline>
J2VwaWtfcHl0aG9uJywgJy1waCcsICc3LjAnLCAnLXRuJywgJzgnLCAnLW1hJywgJzIwMCcsICctbWV0YWxfYmluZGluZycsICctaW1hZScsICc8aW5maWxlLm1hZT4nLCAnLW9tYWUnLCAnPG91dGZpbGUubWFlPic=

> <r_epik_Ionization_Penalty>
0.585622

> <r_epik_Ionization_Penalty_Charging>
0.585622

> <r_epik_Ionization_Penalty_Neutral>
1.08437e-11

> <r_epik_State_Penalty>
0.598756

> <r_epik_Charging_Adjusted_Penalty>
1.18438

> <i_epik_Tot_Q>
-1

> <i_epik_Tot_abs_Q>
1

> <r_epik_Metal_State_Penalty>
0.598756

> <b_epik_Metal_Only>
0

> <s_lp_Force_Field>
OPLS_2005

> <r_lp_Energy>
22.2584

> <b_lp_Chiralities_Consistent>
1

> <s_lp_Variant>
AV-unprocessed.smi:2941-2

> <Gold.Version>
5.8.1

> <Gold.Id.Protein>
6NUR|6NUR_protein|mol2

> <Gold.PLP.Fitness>
52.5146

> <Gold.PLP.PLP>
-42.4469

> <Gold.PLP.part.hbond>
-2.0000

> <Gold.PLP.part.metal>
0.0000

> <Gold.PLP.part.buried>
-1.8568

> <Gold.PLP.part.nonpolar>
-37.7768

> <Gold.PLP.part.repulsive>
0.6685

> <Gold.PLP.ligand.clash>
0.0000

> <Gold.PLP.ligand.torsion>
1.0943

> <Gold.PLP.Chemscore.Hbond>
2.8640

> <Gold.PLP.Chemscore.CHOScore>
0.6448

> <Gold.PLP.Chemscore.Metal>
0.0000

> <Gold.Chemscore.Hbonds>
donor molecule, donor type, donor heavy atom, donor atom, acceptor molecule, acceptor atom, score
      P1  H  7989  7998       L1     9  0.10

> <Gold.PLP.Chemscore.Internal.Correction>
1.7299

> <Gold.Rescore>
     Score         DG    S(hbond)    S(metal)    S(lipo)     H(rot)  DE(clash)    DE(int)     intcor
     14.72     -18.63       1.62        0.00      98.32       1.47       0.18       3.73       ----

> <Gold.Chemscore.Fitness>
14.7221

> <Gold.Chemscore.DG>
-18.6262

> <Gold.Chemscore.ZeroCoef>
-5.4800

> <Gold.Chemscore.Hbond>
1.6222

> <Gold.Chemscore.Metal>
0.0000

> <Gold.Chemscore.Lipo>
98.3191

> <Gold.Chemscore.Internal_Hbond>
0.0000

> <Gold.Chemscore.DEClash>
0.1769

> <Gold.Chemscore.DEInternal>
3.7272

> <Gold.Chemscore.Rot>
1.4747

> <Gold.Chemscore.Internal.Correction>
   9.000000E+99

> <Gold.Chemscore.Hbonds>
donor molecule, donor type, donor heavy atom, donor atom, acceptor molecule, acceptor atom, score
      P1  H  7989  7998       L1     9  0.06

> <Gold.Chemscore.Hbond.Weighted>
-5.4182

> <Gold.Chemscore.Metal.Weighted>
-0.0000

> <Gold.Chemscore.Lipo.Weighted>
-11.5033

> <Gold.Chemscore.Internal_Hbond.Weighted>
0.0000

> <Gold.Chemscore.DEClash.Weighted>
0.1769

> <Gold.Chemscore.DEInternal.Weighted>
3.7272

> <Gold.Chemscore.Rot.Weighted>
3.7754

> <Gold.Chemscore.Internal.Correction.Weighted>
   9.000000E+99

> <Gold.Protein.RotatedTorsions>
[ 6907 6896 6895 6894 ] final   40.81 input  -60.11 | X-H torsion
[ 7974 7965 7964 7962 ] final -104.36 input  175.53 | X-H torsion
[ 8008 7997 7996 7995 ] final   42.93 input   59.86 | X-H torsion
[ 10167 10162 10161 10158 ] final  -54.03 input  -65.29 | X-H torsion
[ 10718 10713 10712 10709 ] final  -24.77 input   66.30 | X-H torsion
[ 10763 10752 10751 10750 ] final -141.24 input  -60.55 | X-H torsion
[ 11005 11000 10999 10996 ] final   69.41 input  -57.11 | X-H torsion

> <Gold.Protein.ActiveResidues>
 VAL166  LYS551  ARG553  GLY616  TRP617  ASP618  TYR619  PRO620  LYS621  CYS622 
 ASP623  PHE694  ASN695  SER759  ASP760  ASP761  ALA762  ILE779  LEU786  VAL792 
 PHE793  MET794  SER795  GLU796  ALA797  LYS798  CYS799  TRP800  GLU811  SER814 

> <Gold.Protein.RotatedAtoms>
  152.1873  134.8703  160.0520 H   0  0  0  0  0  0  0  0  0  0  0  0  # atno 6907 bound_to 6896
  151.9605  133.3689  159.4041 H   0  0  0  0  0  0  0  0  0  0  0  0  # atno 6908 bound_to 6896
  150.6928  134.4169  159.5231 H   0  0  0  0  0  0  0  0  0  0  0  0  # atno 6909 bound_to 6896
  145.2442  140.9216  143.3132 H   0  0  0  0  0  0  0  0  0  0  0  0  # atno 7974 bound_to 7965
  155.2943  140.3381  155.4251 H   0  0  0  0  0  0  0  0  0  0  0  0  # atno 8008 bound_to 7997
  156.2031  140.1740  156.7897 H   0  0  0  0  0  0  0  0  0  0  0  0  # atno 8009 bound_to 7997
  154.5585  140.0692  156.8766 H   0  0  0  0  0  0  0  0  0  0  0  0  # atno 8010 bound_to 7997
  140.6453  143.2531  151.4877 H   0  0  0  0  0  0  0  0  0  0  0  0  # atno 10167 bound_to 10162
  156.4732  130.4529  149.6856 H   0  0  0  0  0  0  0  0  0  0  0  0  # atno 10718 bound_to 10713
  154.8552  135.3530  154.5836 H   0  0  0  0  0  0  0  0  0  0  0  0  # atno 10763 bound_to 10752
  153.6446  135.6997  153.5234 H   0  0  0  0  0  0  0  0  0  0  0  0  # atno 10764 bound_to 10752
  153.2943  135.4225  155.1154 H   0  0  0  0  0  0  0  0  0  0  0  0  # atno 10765 bound_to 10752
  139.9655  134.6987  156.0554 H   0  0  0  0  0  0  0  0  0  0  0  0  # atno 11005 bound_to 11000
  144.9561  139.4029  143.6378 LP  0  0  0  0  0  0  0  0  0  0  0  0  # atno 17320 bound_to 7965
  146.3320  139.8592  142.8859 LP  0  0  0  0  0  0  0  0  0  0  0  0  # atno 17321 bound_to 7965
  139.5663  144.2034  152.1770 LP  0  0  0  0  0  0  0  0  0  0  0  0  # atno 17342 bound_to 10162
  140.1317  144.5282  150.6798 LP  0  0  0  0  0  0  0  0  0  0  0  0  # atno 17343 bound_to 10162
  156.3597  130.7475  151.2445 LP  0  0  0  0  0  0  0  0  0  0  0  0  # atno 17370 bound_to 10713
  157.7489  131.0354  150.4360 LP  0  0  0  0  0  0  0  0  0  0  0  0  # atno 17371 bound_to 10713
  141.1335  133.6580  156.3529 LP  0  0  0  0  0  0  0  0  0  0  0  0  # atno 17394 bound_to 11000
  140.5405  134.6125  157.5378 LP  0  0  0  0  0  0  0  0  0  0  0  0  # atno 17395 bound_to 11000

$$$$
