AV-unprocessed.smi:1833|AV-procd|sdf|7468|dock2
  -GOLD-   22720 9163D 1   1.00000     0.00000
 Structure written by MMmdl.
 42 43  0  0  0  0  0  0  0  0  2 V2000
  145.6016  129.1738  151.9862 C   0  0  0  0  0  0  0  0  0  0  0  0
  146.3690  130.4654  152.3039 C   0  0  0  0  0  0  0  0  0  0  0  0
  145.5761  131.6878  152.0165 N   0  3  2  0  0  0  0  0  0  0  0  0
  144.8626  131.5958  150.7156 C   0  0  0  0  0  0  0  0  0  0  0  0
  143.9445  132.8090  150.4932 C   0  0  0  0  0  0  0  0  0  0  0  0
  144.7310  134.1219  150.5922 C   0  0  0  0  0  0  0  0  0  0  0  0
  145.4804  134.1842  151.9318 C   0  0  2  0  0  0  0  0  0  0  0  0
  146.2917  135.3976  151.9924 N   0  0  0  0  0  0  0  0  0  0  0  0
  145.8239  136.6441  152.1518 C   0  0  0  0  0  0  0  0  0  0  0  0
  144.6336  136.9253  152.2922 O   0  0  0  0  0  0  0  0  0  0  0  0
  146.8106  137.5507  152.1295 N   0  0  0  0  0  0  0  0  0  0  0  0
  146.6224  138.9931  152.2335 C   0  0  0  0  0  0  0  0  0  0  0  0
  146.8144  139.4825  153.6780 C   0  0  0  0  0  0  0  0  0  0  0  0
  148.2445  139.4661  154.1024 C   0  0  0  0  0  0  0  0  0  0  0  0
  148.9776  138.3517  154.1781 N   0  0  0  0  0  0  0  0  0  0  0  0
  150.2781  138.5970  154.6255 C   0  0  0  0  0  0  0  0  0  0  0  0
  150.5206  139.9180  154.9043 C   0  0  0  0  0  0  0  0  0  0  0  0
  149.1152  140.9072  154.6161 S   0  0  0  0  0  0  0  0  0  0  0  0
  146.3724  132.9410  152.1141 C   0  0  0  0  0  0  0  0  0  0  0  0
  146.2461  128.3045  152.1191 H   0  0  0  0  0  0  0  0  0  0  0  0
  145.2495  129.1672  150.9543 H   0  0  0  0  0  0  0  0  0  0  0  0
  144.7400  129.0365  152.6387 H   0  0  0  0  0  0  0  0  0  0  0  0
  146.7026  130.4697  153.3427 H   0  0  0  0  0  0  0  0  0  0  0  0
  147.2716  130.4714  151.6913 H   0  0  0  0  0  0  0  0  0  0  0  0
  145.5894  131.5203  149.9050 H   0  0  0  0  0  0  0  0  0  0  0  0
  144.2616  130.6860  150.6882 H   0  0  0  0  0  0  0  0  0  0  0  0
  143.4615  132.7372  149.5181 H   0  0  0  0  0  0  0  0  0  0  0  0
  143.1446  132.8042  151.2349 H   0  0  0  0  0  0  0  0  0  0  0  0
  145.4371  134.1884  149.7630 H   0  0  0  0  0  0  0  0  0  0  0  0
  144.0530  134.9710  150.4963 H   0  0  0  0  0  0  0  0  0  0  0  0
  144.7382  134.1875  152.7326 H   0  0  0  0  0  0  0  0  0  0  0  0
  147.2888  135.2814  151.8841 H   0  0  0  0  0  0  0  0  0  0  0  0
  147.7588  137.2245  152.0117 H   0  0  0  0  0  0  0  0  0  0  0  0
  147.3049  139.5123  151.5585 H   0  0  0  0  0  0  0  0  0  0  0  0
  145.6128  139.2264  151.8942 H   0  0  0  0  0  0  0  0  0  0  0  0
  146.4299  140.4977  153.7855 H   0  0  0  0  0  0  0  0  0  0  0  0
  146.2447  138.8594  154.3682 H   0  0  0  0  0  0  0  0  0  0  0  0
  150.9668  137.7704  154.7183 H   0  0  0  0  0  0  0  0  0  0  0  0
  151.4349  140.3666  155.2632 H   0  0  0  0  0  0  0  0  0  0  0  0
  146.8620  132.9991  153.0859 H   0  0  0  0  0  0  0  0  0  0  0  0
  147.1636  132.9265  151.3623 H   0  0  0  0  0  0  0  0  0  0  0  0
  144.8598  131.7374  152.7272 H   0  0  0  0  0  0  0  0  0  0  0  0
  1  2  1  0  0  0  0
  1 20  1  0  0  0  0
  1 21  1  0  0  0  0
  1 22  1  0  0  0  0
  2  3  1  0  0  0  0
  2 23  1  0  0  0  0
  2 24  1  0  0  0  0
  3 19  1  0  0  0  0
  3  4  1  0  0  0  0
  3 42  1  0  0  0  0
  4  5  1  0  0  0  0
  4 25  1  0  0  0  0
  4 26  1  0  0  0  0
  5  6  1  0  0  0  0
  5 27  1  0  0  0  0
  5 28  1  0  0  0  0
  6  7  1  0  0  0  0
  6 29  1  0  0  0  0
  6 30  1  0  0  0  0
  7  8  1  0  0  0  0
  7 19  1  0  0  0  0
  7 31  1  0  0  0  0
  8  9  1  0  0  0  0
  8 32  1  0  0  0  0
  9 10  2  0  0  0  0
  9 11  1  0  0  0  0
 11 12  1  0  0  0  0
 11 33  1  0  0  0  0
 12 13  1  0  0  0  0
 12 34  1  0  0  0  0
 12 35  1  0  0  0  0
 13 14  1  0  0  0  0
 13 36  1  0  0  0  0
 13 37  1  0  0  0  0
 14 18  1  0  0  0  0
 14 15  2  0  0  0  0
 15 16  1  0  0  0  0
 16 17  2  0  0  0  0
 16 38  1  0  0  0  0
 17 18  1  0  0  0  0
 17 39  1  0  0  0  0
 19 40  1  0  0  0  0
 19 41  1  0  0  0  0
M  CHG  1   3   1
M  END
> <s_m_source_file>
AV-unprocessed.smi

> <i_m_source_file_index>
1833

> <i_lp_mmshare_version>
43012

> <i_f3d_flags>
0

> <s_epik_input>
W0NIM11bQ0gyXU4xW0NIMl1bQ0gyXVtDSDJdW0NASF0oW0NIMl0xKVtOSF1DKD1PKVtOSF1bQ0gyXVtDSDJdYzJuW2NIXVtjSF1zMg==

> <s_epik_cmdline>
J2VwaWtfcHl0aG9uJywgJy1waCcsICc3LjAnLCAnLXRuJywgJzgnLCAnLW1hJywgJzIwMCcsICctbWV0YWxfYmluZGluZycsICctaW1hZScsICc8aW5maWxlLm1hZT4nLCAnLW9tYWUnLCAnPG91dGZpbGUubWFlPic=

> <r_lp_tautomer_probability>
1

> <r_epik_Ionization_Penalty>
0.00269629

> <r_epik_Ionization_Penalty_Charging>
0.00233899

> <r_epik_Ionization_Penalty_Neutral>
0.000357304

> <r_epik_State_Penalty>
-0

> <r_epik_Charging_Adjusted_Penalty>
0.00233899

> <i_epik_Tot_Q>
1

> <i_epik_Tot_abs_Q>
1

> <r_epik_Metal_State_Penalty>
-0

> <b_epik_Metal_Only>
0

> <s_lp_Force_Field>
OPLS_2005

> <r_lp_Energy>
7.34013

> <b_lp_Chiralities_Consistent>
1

> <s_lp_Variant>
AV-unprocessed.smi:1833-4

> <Gold.Version>
5.8.1

> <Gold.Id.Protein>
6NUR|6NUR_protein|mol2

> <Gold.PLP.Fitness>
41.4085

> <Gold.PLP.PLP>
-36.5629

> <Gold.PLP.part.hbond>
-1.9368

> <Gold.PLP.part.metal>
0.0000

> <Gold.PLP.part.buried>
-3.6834

> <Gold.PLP.part.nonpolar>
-32.7021

> <Gold.PLP.part.repulsive>
1.4328

> <Gold.PLP.ligand.clash>
0.0000

> <Gold.PLP.ligand.torsion>
0.4597

> <Gold.PLP.Chemscore.Hbond>
1.8960

> <Gold.PLP.Chemscore.CHOScore>
0.0000

> <Gold.PLP.Chemscore.Metal>
0.0000

> <Gold.Chemscore.Hbonds>
donor molecule, donor type, donor heavy atom, donor atom, acceptor molecule, acceptor atom, score
      L1  H     8    32       P1  7948  0.90
      L1  H    11    33       P1  7948  1.00

> <Gold.PLP.Chemscore.Internal.Correction>
0.0770

> <Gold.Rescore>
     Score         DG    S(hbond)    S(metal)    S(lipo)     H(rot)  DE(clash)    DE(int)     intcor
     17.54     -18.33       1.93        0.00      92.21       1.71       0.36       0.43       ----

> <Gold.Chemscore.Fitness>
17.5442

> <Gold.Chemscore.DG>
-18.3320

> <Gold.Chemscore.ZeroCoef>
-5.4800

> <Gold.Chemscore.Hbond>
1.9321

> <Gold.Chemscore.Metal>
0.0000

> <Gold.Chemscore.Lipo>
92.2071

> <Gold.Chemscore.Internal_Hbond>
0.0000

> <Gold.Chemscore.DEClash>
0.3555

> <Gold.Chemscore.DEInternal>
0.4323

> <Gold.Chemscore.Rot>
1.7147

> <Gold.Chemscore.Internal.Correction>
   9.000000E+99

> <Gold.Chemscore.Hbonds>
donor molecule, donor type, donor heavy atom, donor atom, acceptor molecule, acceptor atom, score
      L1  H     8    32       P1  7948  0.87
      L1  H    11    33       P1  7948  0.94

> <Gold.Chemscore.Hbond.Weighted>
-6.4534

> <Gold.Chemscore.Metal.Weighted>
-0.0000

> <Gold.Chemscore.Lipo.Weighted>
-10.7882

> <Gold.Chemscore.Internal_Hbond.Weighted>
0.0000

> <Gold.Chemscore.DEClash.Weighted>
0.3555

> <Gold.Chemscore.DEInternal.Weighted>
0.4323

> <Gold.Chemscore.Rot.Weighted>
4.3896

> <Gold.Chemscore.Internal.Correction.Weighted>
   9.000000E+99

> <Gold.Protein.RotatedTorsions>
[ 6907 6896 6895 6894 ] final -142.66 input  -60.11 | X-H torsion
[ 7974 7965 7964 7962 ] final  102.41 input  175.53 | X-H torsion
[ 8008 7997 7996 7995 ] final  -21.76 input   59.86 | X-H torsion
[ 10167 10162 10161 10158 ] final  175.54 input  -65.29 | X-H torsion
[ 10718 10713 10712 10709 ] final  139.57 input   66.30 | X-H torsion
[ 10763 10752 10751 10750 ] final  132.51 input  -60.55 | X-H torsion
[ 11005 11000 10999 10996 ] final -117.31 input  -57.11 | X-H torsion

> <Gold.Protein.ActiveResidues>
 VAL166  LYS551  ARG553  GLY616  TRP617  ASP618  TYR619  PRO620  LYS621  CYS622 
 ASP623  PHE694  ASN695  SER759  ASP760  ASP761  ALA762  ILE779  LEU786  VAL792 
 PHE793  MET794  SER795  GLU796  ALA797  LYS798  CYS799  TRP800  GLU811  SER814 

> <Gold.Protein.RotatedAtoms>
  151.0900  133.5323  159.2615 H   0  0  0  0  0  0  0  0  0  0  0  0  # atno 6907 bound_to 6896
  151.2194  135.0512  159.8953 H   0  0  0  0  0  0  0  0  0  0  0  0  # atno 6908 bound_to 6896
  152.5433  134.0704  159.8245 H   0  0  0  0  0  0  0  0  0  0  0  0  # atno 6909 bound_to 6896
  145.3595  139.2421  143.3514 H   0  0  0  0  0  0  0  0  0  0  0  0  # atno 7974 bound_to 7965
  154.4685  140.2026  156.0054 H   0  0  0  0  0  0  0  0  0  0  0  0  # atno 8008 bound_to 7997
  156.0970  140.3249  155.7862 H   0  0  0  0  0  0  0  0  0  0  0  0  # atno 8009 bound_to 7997
  155.4861  140.0542  157.2951 H   0  0  0  0  0  0  0  0  0  0  0  0  # atno 8010 bound_to 7997
  139.5181  144.3019  152.0371 H   0  0  0  0  0  0  0  0  0  0  0  0  # atno 10167 bound_to 10162
  157.4130  131.1030  151.0434 H   0  0  0  0  0  0  0  0  0  0  0  0  # atno 10718 bound_to 10713
  153.7918  135.3154  155.3379 H   0  0  0  0  0  0  0  0  0  0  0  0  # atno 10763 bound_to 10752
  154.8122  135.4659  154.0551 H   0  0  0  0  0  0  0  0  0  0  0  0  # atno 10764 bound_to 10752
  153.1872  135.6903  153.8487 H   0  0  0  0  0  0  0  0  0  0  0  0  # atno 10765 bound_to 10752
  141.0364  133.9904  157.3064 H   0  0  0  0  0  0  0  0  0  0  0  0  # atno 11005 bound_to 11000
  146.2933  140.4226  142.8731 LP  0  0  0  0  0  0  0  0  0  0  0  0  # atno 17320 bound_to 7965
  144.8657  140.7203  143.6079 LP  0  0  0  0  0  0  0  0  0  0  0  0  # atno 17321 bound_to 7965
  140.2466  144.4213  150.6238 LP  0  0  0  0  0  0  0  0  0  0  0  0  # atno 17342 bound_to 10162
  140.6253  143.2180  151.6608 LP  0  0  0  0  0  0  0  0  0  0  0  0  # atno 17343 bound_to 10162
  157.1392  130.6136  149.5550 LP  0  0  0  0  0  0  0  0  0  0  0  0  # atno 17370 bound_to 10713
  155.9856  130.4887  150.7041 LP  0  0  0  0  0  0  0  0  0  0  0  0  # atno 17371 bound_to 10713
  139.9243  135.0201  156.8179 LP  0  0  0  0  0  0  0  0  0  0  0  0  # atno 17394 bound_to 11000
  140.6315  133.9901  155.7664 LP  0  0  0  0  0  0  0  0  0  0  0  0  # atno 17395 bound_to 11000

$$$$
