AV-unprocessed.smi:2969|AV-procd|sdf|11329|dock6
  -GOLD-   2272016233D 1   1.00000     0.00000
 Structure written by MMmdl.
 40 40  0  0  0  0  0  0  0  0  1 V2000
  153.1294  142.5264  161.9678 C   0  0  0  0  0  0  0  0  0  0  0  0
  152.4473  143.0408  160.6936 C   0  0  0  0  0  0  0  0  0  0  0  0
  152.8844  142.3238  159.4001 C   0  0  0  0  0  0  0  0  0  0  0  0
  151.8073  141.6303  158.7161 N   0  0  0  0  0  0  0  0  0  0  0  0
  151.8398  140.2611  158.4355 C   0  0  0  0  0  0  0  0  0  0  0  0
  152.9652  139.5476  158.8225 N   0  0  0  0  0  0  0  0  0  0  0  0
  150.8180  139.6358  157.7770 C   0  0  0  0  0  0  0  0  0  0  0  0
  150.8360  138.2494  157.5344 N   0  0  0  0  0  0  0  0  0  0  0  0
  150.5047  137.3730  158.6713 C   0  0  0  0  0  0  0  0  0  0  0  0
  149.0301  137.4947  159.0882 C   0  0  0  0  0  0  0  0  0  0  0  0
  148.8698  136.9646  160.3932 O   0  0  0  0  0  0  0  0  0  0  0  0
  147.5938  136.3843  160.5933 C   0  0  0  0  0  0  0  0  0  0  0  0
  151.1694  137.7184  156.3262 C   0  0  0  0  0  0  0  0  0  0  0  0
  151.0686  136.5100  156.1035 O   0  0  0  0  0  0  0  0  0  0  0  0
  151.7376  138.6143  155.2043 C   0  0  0  0  0  0  0  0  0  0  0  0
  152.8061  139.2854  155.6361 F   0  0  0  0  0  0  0  0  0  0  0  0
  152.1102  137.8553  154.1727 F   0  0  0  0  0  0  0  0  0  0  0  0
  150.8061  139.4675  154.7819 F   0  0  0  0  0  0  0  0  0  0  0  0
  149.6189  140.3871  157.3797 C   0  0  0  0  0  0  0  0  0  0  0  0
  148.6257  139.9165  156.8267 O   0  0  0  0  0  0  0  0  0  0  0  0
  149.6525  141.7462  157.6784 N   0  0  0  0  0  0  0  0  0  0  0  0
  150.6933  142.4096  158.3175 C   0  0  0  0  0  0  0  0  0  0  0  0
  150.6050  143.6235  158.5047 O   0  0  0  0  0  0  0  0  0  0  0  0
  148.8520  142.2982  157.4069 H   0  0  0  0  0  0  0  0  0  0  0  0
  152.8290  143.1181  162.8324 H   0  0  0  0  0  0  0  0  0  0  0  0
  154.2150  142.5863  161.8847 H   0  0  0  0  0  0  0  0  0  0  0  0
  152.8626  141.4893  162.1719 H   0  0  0  0  0  0  0  0  0  0  0  0
  151.3662  142.9666  160.8125 H   0  0  0  0  0  0  0  0  0  0  0  0
  152.6633  144.1043  160.5886 H   0  0  0  0  0  0  0  0  0  0  0  0
  153.2845  143.0367  158.6789 H   0  0  0  0  0  0  0  0  0  0  0  0
  153.7031  141.6264  159.5815 H   0  0  0  0  0  0  0  0  0  0  0  0
  153.7422  139.9903  159.2920 H   0  0  0  0  0  0  0  0  0  0  0  0
  153.0370  138.5504  158.6800 H   0  0  0  0  0  0  0  0  0  0  0  0
  150.7291  136.3354  158.4183 H   0  0  0  0  0  0  0  0  0  0  0  0
  151.1369  137.5996  159.5308 H   0  0  0  0  0  0  0  0  0  0  0  0
  148.6990  138.5335  159.0472 H   0  0  0  0  0  0  0  0  0  0  0  0
  148.4068  136.9286  158.3947 H   0  0  0  0  0  0  0  0  0  0  0  0
  147.5266  135.9897  161.6070 H   0  0  0  0  0  0  0  0  0  0  0  0
  147.4205  135.5618  159.8983 H   0  0  0  0  0  0  0  0  0  0  0  0
  146.8016  137.1234  160.4677 H   0  0  0  0  0  0  0  0  0  0  0  0
  1  2  1  0  0  0  0
  1 25  1  0  0  0  0
  1 26  1  0  0  0  0
  1 27  1  0  0  0  0
  2  3  1  0  0  0  0
  2 28  1  0  0  0  0
  2 29  1  0  0  0  0
  3  4  1  0  0  0  0
  3 30  1  0  0  0  0
  3 31  1  0  0  0  0
  4 22  1  0  0  0  0
  4  5  1  0  0  0  0
  5  6  1  0  0  0  0
  5  7  2  0  0  0  0
  6 32  1  0  0  0  0
  6 33  1  0  0  0  0
  7  8  1  0  0  0  0
  7 19  1  0  0  0  0
  8  9  1  0  0  0  0
  8 13  1  0  0  0  0
  9 10  1  0  0  0  0
  9 34  1  0  0  0  0
  9 35  1  0  0  0  0
 10 11  1  0  0  0  0
 10 36  1  0  0  0  0
 10 37  1  0  0  0  0
 11 12  1  0  0  0  0
 12 38  1  0  0  0  0
 12 39  1  0  0  0  0
 12 40  1  0  0  0  0
 13 14  2  0  0  0  0
 13 15  1  0  0  0  0
 15 16  1  0  0  0  0
 15 17  1  0  0  0  0
 15 18  1  0  0  0  0
 19 20  2  0  0  0  0
 19 21  1  0  0  0  0
 21 24  1  0  0  0  0
 21 22  1  0  0  0  0
 22 23  2  0  0  0  0
M  END
> <s_m_source_file>
AV-unprocessed.smi

> <i_m_source_file_index>
2969

> <i_lp_mmshare_version>
43012

> <i_f3d_flags>
0

> <s_epik_input>
W0NIM11bQ0gyXVtDSDJdbjFjKFtOSDJdKWMoYyg9TylbbkhdYzE9TylOKEMoPU8pQyhGKShGKUYpW0NIMl1bQ0gyXU9bQ0gzXQ==

> <s_epik_cmdline>
J2VwaWtfcHl0aG9uJywgJy1waCcsICc3LjAnLCAnLXRuJywgJzgnLCAnLW1hJywgJzIwMCcsICctbWV0YWxfYmluZGluZycsICctaW1hZScsICc8aW5maWxlLm1hZT4nLCAnLW9tYWUnLCAnPG91dGZpbGUubWFlPic=

> <r_lp_tautomer_probability>
1

> <r_epik_Ionization_Penalty>
0.000513649

> <r_epik_Ionization_Penalty_Charging>
0.000443136

> <r_epik_Ionization_Penalty_Neutral>
7.05129e-05

> <r_epik_State_Penalty>
-0

> <r_epik_Charging_Adjusted_Penalty>
0.000443136

> <i_epik_Tot_Q>
0

> <i_epik_Tot_abs_Q>
0

> <r_epik_Metal_State_Penalty>
0.330936

> <b_epik_Metal_Only>
0

> <s_epik_Chemistry_Notes>
This compound has an imine and may undergo hydrolysis.

> <s_lp_Force_Field>
OPLS_2005

> <r_lp_Energy>
31.7287

> <b_lp_Chiralities_Consistent>
1

> <s_lp_Variant>
AV-unprocessed.smi:2969-1

> <Gold.Version>
5.8.1

> <Gold.Id.Protein>
6NUR|6NUR_protein|mol2

> <Gold.PLP.Fitness>
39.2829

> <Gold.PLP.PLP>
-38.3565

> <Gold.PLP.part.hbond>
-1.0000

> <Gold.PLP.part.metal>
0.0000

> <Gold.PLP.part.buried>
-5.4416

> <Gold.PLP.part.nonpolar>
-32.1353

> <Gold.PLP.part.repulsive>
0.3932

> <Gold.PLP.ligand.clash>
1.8997

> <Gold.PLP.ligand.torsion>
2.2736

> <Gold.PLP.Chemscore.Hbond>
0.7680

> <Gold.PLP.Chemscore.CHOScore>
0.0000

> <Gold.PLP.Chemscore.Metal>
0.0000

> <Gold.Chemscore.Hbonds>
donor molecule, donor type, donor heavy atom, donor atom, acceptor molecule, acceptor atom, score
      P1  H  6931  6943       L1    11  0.70

> <Gold.PLP.Chemscore.Internal.Correction>
5.0693

> <Gold.Rescore>
     Score         DG    S(hbond)    S(metal)    S(lipo)     H(rot)  DE(clash)    DE(int)     intcor
      1.71      -8.81       0.67        0.00      58.90       2.27       0.64       6.46       ----

> <Gold.Chemscore.Fitness>
1.7053

> <Gold.Chemscore.DG>
-8.8074

> <Gold.Chemscore.ZeroCoef>
-5.4800

> <Gold.Chemscore.Hbond>
0.6697

> <Gold.Chemscore.Metal>
0.0000

> <Gold.Chemscore.Lipo>
58.8994

> <Gold.Chemscore.Internal_Hbond>
0.0000

> <Gold.Chemscore.DEClash>
0.6385

> <Gold.Chemscore.DEInternal>
6.4637

> <Gold.Chemscore.Rot>
2.2658

> <Gold.Chemscore.Internal.Correction>
   9.000000E+99

> <Gold.Chemscore.Hbonds>
donor molecule, donor type, donor heavy atom, donor atom, acceptor molecule, acceptor atom, score
      P1  H  6931  6943       L1    11  0.32

> <Gold.Chemscore.Hbond.Weighted>
-2.2367

> <Gold.Chemscore.Metal.Weighted>
-0.0000

> <Gold.Chemscore.Lipo.Weighted>
-6.8912

> <Gold.Chemscore.Internal_Hbond.Weighted>
0.0000

> <Gold.Chemscore.DEClash.Weighted>
0.6385

> <Gold.Chemscore.DEInternal.Weighted>
6.4637

> <Gold.Chemscore.Rot.Weighted>
5.8005

> <Gold.Chemscore.Internal.Correction.Weighted>
   9.000000E+99

> <Gold.Protein.RotatedTorsions>
[ 6907 6896 6895 6894 ] final -141.26 input  -60.11 | X-H torsion
[ 7974 7965 7964 7962 ] final  -17.51 input  175.53 | X-H torsion
[ 8008 7997 7996 7995 ] final   53.80 input   59.86 | X-H torsion
[ 10167 10162 10161 10158 ] final    3.53 input  -65.29 | X-H torsion
[ 10718 10713 10712 10709 ] final -139.38 input   66.30 | X-H torsion
[ 10763 10752 10751 10750 ] final  -60.05 input  -60.55 | X-H torsion
[ 11005 11000 10999 10996 ] final   31.11 input  -57.11 | X-H torsion

> <Gold.Protein.ActiveResidues>
 VAL166  LYS551  ARG553  GLY616  TRP617  ASP618  TYR619  PRO620  LYS621  CYS622 
 ASP623  PHE694  ASN695  SER759  ASP760  ASP761  ALA762  ILE779  LEU786  VAL792 
 PHE793  MET794  SER795  GLU796  ALA797  LYS798  CYS799  TRP800  GLU811  SER814 

> <Gold.Protein.RotatedAtoms>
  151.0714  133.5463  159.2626 H   0  0  0  0  0  0  0  0  0  0  0  0  # atno 6907 bound_to 6896
  151.2401  135.0585  159.9031 H   0  0  0  0  0  0  0  0  0  0  0  0  # atno 6908 bound_to 6896
  152.5412  134.0490  159.8155 H   0  0  0  0  0  0  0  0  0  0  0  0  # atno 6909 bound_to 6896
  146.1937  140.3789  142.8448 H   0  0  0  0  0  0  0  0  0  0  0  0  # atno 7974 bound_to 7965
  155.4743  140.3466  155.4330 H   0  0  0  0  0  0  0  0  0  0  0  0  # atno 8008 bound_to 7997
  156.1080  140.1453  156.9406 H   0  0  0  0  0  0  0  0  0  0  0  0  # atno 8009 bound_to 7997
  154.4737  140.0892  156.7188 H   0  0  0  0  0  0  0  0  0  0  0  0  # atno 8010 bound_to 7997
  140.6581  143.7376  150.7689 H   0  0  0  0  0  0  0  0  0  0  0  0  # atno 10167 bound_to 10162
  156.3101  130.7477  151.1551 H   0  0  0  0  0  0  0  0  0  0  0  0  # atno 10718 bound_to 10713
  154.2632  135.6304  153.5282 H   0  0  0  0  0  0  0  0  0  0  0  0  # atno 10763 bound_to 10752
  152.9892  135.5592  154.5682 H   0  0  0  0  0  0  0  0  0  0  0  0  # atno 10764 bound_to 10752
  154.5235  135.2884  155.1217 H   0  0  0  0  0  0  0  0  0  0  0  0  # atno 10765 bound_to 10752
  140.2873  134.2904  155.7785 H   0  0  0  0  0  0  0  0  0  0  0  0  # atno 11005 bound_to 11000
  144.8538  140.7040  143.6151 LP  0  0  0  0  0  0  0  0  0  0  0  0  # atno 17320 bound_to 7965
  145.3711  139.1658  143.4331 LP  0  0  0  0  0  0  0  0  0  0  0  0  # atno 17321 bound_to 7965
  140.1039  143.4762  152.2409 LP  0  0  0  0  0  0  0  0  0  0  0  0  # atno 17342 bound_to 10162
  139.5808  144.7509  151.3646 LP  0  0  0  0  0  0  0  0  0  0  0  0  # atno 17343 bound_to 10162
  157.7389  131.0535  150.5266 LP  0  0  0  0  0  0  0  0  0  0  0  0  # atno 17370 bound_to 10713
  156.5405  130.4207  149.6156 LP  0  0  0  0  0  0  0  0  0  0  0  0  # atno 17371 bound_to 10713
  141.2152  133.7563  156.9572 LP  0  0  0  0  0  0  0  0  0  0  0  0  # atno 17394 bound_to 11000
  140.1228  134.9406  157.2227 LP  0  0  0  0  0  0  0  0  0  0  0  0  # atno 17395 bound_to 11000

$$$$
