AV-unprocessed.smi:1962|AV-procd|sdf|7924|dock10
  -GOLD-   2272010 93D 1   1.00000     0.00000
 Structure written by MMmdl.
 35 36  0  0  0  0  0  0  0  0  2 V2000
  154.1147  139.8635  161.7189 C   0  0  0  0  0  0  0  0  0  0  0  0
  153.6498  141.0384  160.8472 C   0  0  2  0  0  0  0  0  0  0  0  0
  153.1214  142.2079  161.7197 C   0  0  0  0  0  0  0  0  0  0  0  0
  152.2950  143.1749  161.0008 N   0  0  0  0  0  0  0  0  0  0  0  0
  152.5578  143.8215  159.8073 C   0  0  0  0  0  0  0  0  0  0  0  0
  151.4981  144.6403  159.5412 C   0  0  0  0  0  0  0  0  0  0  0  0
  150.6286  144.4365  160.6483 C   0  0  0  0  0  0  0  0  0  0  0  0
  151.1117  143.5725  161.5253 N   0  0  0  0  0  0  0  0  0  0  0  0
  152.5968  140.5609  159.9434 N   0  5  0  0  0  0  0  0  0  0  0  0
  152.6345  139.3975  159.2242 C   0  0  0  0  0  0  0  0  0  0  0  0
  153.0593  138.3065  159.6239 O   0  0  0  0  0  0  0  0  0  0  0  0
  152.1418  139.4093  157.8150 C   0  0  0  0  0  0  0  0  0  0  0  0
  151.2674  140.2940  157.4489 N   0  0  0  0  0  0  0  0  0  0  0  0
  150.7960  140.3727  156.1549 N   0  0  0  0  0  0  0  0  0  0  0  0
  150.0439  141.5880  155.8507 C   0  0  0  0  0  0  0  0  0  0  0  0
  150.9727  139.4159  155.2110 C   0  0  0  0  0  0  0  0  0  0  0  0
  150.5620  139.5106  154.0541 O   0  0  0  0  0  0  0  0  0  0  0  0
  151.7037  138.1466  155.6559 C   0  0  0  0  0  0  0  0  0  0  0  0
  152.6934  138.4171  156.8064 C   0  0  0  0  0  0  0  0  0  0  0  0
  154.9113  140.1712  162.3964 H   0  0  0  0  0  0  0  0  0  0  0  0
  154.5024  139.0479  161.1073 H   0  0  0  0  0  0  0  0  0  0  0  0
  153.2985  139.4678  162.3247 H   0  0  0  0  0  0  0  0  0  0  0  0
  154.5254  141.3933  160.3011 H   0  0  0  0  0  0  0  0  0  0  0  0
  152.5572  141.8205  162.5702 H   0  0  0  0  0  0  0  0  0  0  0  0
  153.9645  142.7556  162.1418 H   0  0  0  0  0  0  0  0  0  0  0  0
  153.4650  143.6384  159.2505 H   0  0  0  0  0  0  0  0  0  0  0  0
  151.3651  145.2862  158.6864 H   0  0  0  0  0  0  0  0  0  0  0  0
  149.6688  144.8920  160.8425 H   0  0  0  0  0  0  0  0  0  0  0  0
  149.0396  141.3440  155.5009 H   0  0  0  0  0  0  0  0  0  0  0  0
  150.5479  142.1637  155.0730 H   0  0  0  0  0  0  0  0  0  0  0  0
  149.9400  142.2340  156.7245 H   0  0  0  0  0  0  0  0  0  0  0  0
  150.9480  137.4317  155.9834 H   0  0  0  0  0  0  0  0  0  0  0  0
  152.2203  137.6931  154.8093 H   0  0  0  0  0  0  0  0  0  0  0  0
  153.6345  138.7973  156.4073 H   0  0  0  0  0  0  0  0  0  0  0  0
  152.9236  137.4646  157.2848 H   0  0  0  0  0  0  0  0  0  0  0  0
  1  2  1  0  0  0  0
  1 20  1  0  0  0  0
  1 21  1  0  0  0  0
  1 22  1  0  0  0  0
  2  3  1  0  0  0  0
  2  9  1  0  0  0  0
  2 23  1  0  0  0  0
  3  4  1  0  0  0  0
  3 24  1  0  0  0  0
  3 25  1  0  0  0  0
  4  8  1  0  0  0  0
  4  5  1  0  0  0  0
  5  6  2  0  0  0  0
  5 26  1  0  0  0  0
  6  7  1  0  0  0  0
  6 27  1  0  0  0  0
  7  8  2  0  0  0  0
  7 28  1  0  0  0  0
  9 10  1  0  0  0  0
 10 11  2  0  0  0  0
 10 12  1  0  0  0  0
 12 19  1  0  0  0  0
 12 13  2  0  0  0  0
 13 14  1  0  0  0  0
 14 15  1  0  0  0  0
 14 16  1  0  0  0  0
 15 29  1  0  0  0  0
 15 30  1  0  0  0  0
 15 31  1  0  0  0  0
 16 17  2  0  0  0  0
 16 18  1  0  0  0  0
 18 19  1  0  0  0  0
 18 32  1  0  0  0  0
 18 33  1  0  0  0  0
 19 34  1  0  0  0  0
 19 35  1  0  0  0  0
M  CHG  1   9  -1
M  END
> <s_m_source_file>
AV-unprocessed.smi

> <i_m_source_file_index>
1962

> <i_lp_mmshare_version>
43012

> <i_f3d_flags>
0

> <s_epik_input>
bjFbY0hdW2NIXVtjSF1uMVtDSDJdW0NAQEhdKFtDSDNdKVtOSF1DKD1PKUMyPU5OKFtDSDNdKUMoPU8pW0NIMl1bQ0gyXTI=

> <s_epik_cmdline>
J2VwaWtfcHl0aG9uJywgJy1waCcsICc3LjAnLCAnLXRuJywgJzgnLCAnLW1hJywgJzIwMCcsICctbWV0YWxfYmluZGluZycsICctaW1hZScsICc8aW5maWxlLm1hZT4nLCAnLW9tYWUnLCAnPG91dGZpbGUubWFlPic=

> <r_lp_tautomer_probability>
1

> <r_epik_Ionization_Penalty>
5.21086

> <r_epik_Ionization_Penalty_Charging>
5.21084

> <r_epik_Ionization_Penalty_Neutral>
2.41961e-05

> <r_epik_State_Penalty>
5.21075

> <r_epik_Charging_Adjusted_Penalty>
10.4216

> <i_epik_Tot_Q>
-1

> <i_epik_Tot_abs_Q>
1

> <r_epik_Metal_State_Penalty>
1.27477

> <b_epik_Metal_Only>
1

> <s_epik_Chemistry_Notes>
This compound has an imine and may undergo hydrolysis.

> <s_lp_Force_Field>
OPLS_2005

> <r_lp_Energy>
24.8429

> <b_lp_Chiralities_Consistent>
1

> <s_lp_Variant>
AV-unprocessed.smi:1962-3

> <Gold.Version>
5.8.1

> <Gold.Id.Protein>
6NUR|6NUR_protein|mol2

> <Gold.PLP.Fitness>
40.7742

> <Gold.PLP.PLP>
-39.9815

> <Gold.PLP.part.hbond>
-1.4922

> <Gold.PLP.part.metal>
0.0000

> <Gold.PLP.part.buried>
-5.5152

> <Gold.PLP.part.nonpolar>
-33.8233

> <Gold.PLP.part.repulsive>
0.4042

> <Gold.PLP.ligand.clash>
0.0000

> <Gold.PLP.ligand.torsion>
1.0492

> <Gold.PLP.Chemscore.Hbond>
0.9500

> <Gold.PLP.Chemscore.CHOScore>
0.0000

> <Gold.PLP.Chemscore.Metal>
0.0000

> <Gold.Chemscore.Hbonds>
donor molecule, donor type, donor heavy atom, donor atom, acceptor molecule, acceptor atom, score
      P1  H  6933  6945       L1     8  0.19
      P1  H  7989  7998       L1    17  1.00

> <Gold.PLP.Chemscore.Internal.Correction>
0.0410

> <Gold.Rescore>
     Score         DG    S(hbond)    S(metal)    S(lipo)     H(rot)  DE(clash)    DE(int)     intcor
     12.54     -15.36       0.96        0.00      89.91       1.50       0.25       2.58       ----

> <Gold.Chemscore.Fitness>
12.5367

> <Gold.Chemscore.DG>
-15.3646

> <Gold.Chemscore.ZeroCoef>
-5.4800

> <Gold.Chemscore.Hbond>
0.9569

> <Gold.Chemscore.Metal>
0.0000

> <Gold.Chemscore.Lipo>
89.9096

> <Gold.Chemscore.Internal_Hbond>
0.0000

> <Gold.Chemscore.DEClash>
0.2523

> <Gold.Chemscore.DEInternal>
2.5755

> <Gold.Chemscore.Rot>
1.4964

> <Gold.Chemscore.Internal.Correction>
   9.000000E+99

> <Gold.Chemscore.Hbonds>
donor molecule, donor type, donor heavy atom, donor atom, acceptor molecule, acceptor atom, score
      P1  H  6933  6945       L1     8  0.13
      P1  H  7989  7998       L1    17  0.25

> <Gold.Chemscore.Hbond.Weighted>
-3.1960

> <Gold.Chemscore.Metal.Weighted>
-0.0000

> <Gold.Chemscore.Lipo.Weighted>
-10.5194

> <Gold.Chemscore.Internal_Hbond.Weighted>
0.0000

> <Gold.Chemscore.DEClash.Weighted>
0.2523

> <Gold.Chemscore.DEInternal.Weighted>
2.5755

> <Gold.Chemscore.Rot.Weighted>
3.8309

> <Gold.Chemscore.Internal.Correction.Weighted>
   9.000000E+99

> <Gold.Protein.RotatedTorsions>
[ 6907 6896 6895 6894 ] final  136.90 input  -60.11 | X-H torsion
[ 7974 7965 7964 7962 ] final   24.83 input  175.53 | X-H torsion
[ 8008 7997 7996 7995 ] final  105.72 input   59.86 | X-H torsion
[ 10167 10162 10161 10158 ] final  -64.81 input  -65.29 | X-H torsion
[ 10718 10713 10712 10709 ] final -146.64 input   66.30 | X-H torsion
[ 10763 10752 10751 10750 ] final -176.76 input  -60.55 | X-H torsion
[ 11005 11000 10999 10996 ] final -130.82 input  -57.11 | X-H torsion

> <Gold.Protein.ActiveResidues>
 VAL166  LYS551  ARG553  GLY616  TRP617  ASP618  TYR619  PRO620  LYS621  CYS622 
 ASP623  PHE694  ASN695  SER759  ASP760  ASP761  ALA762  ILE779  LEU786  VAL792 
 PHE793  MET794  SER795  GLU796  ALA797  LYS798  CYS799  TRP800  GLU811  SER814 

> <Gold.Protein.RotatedAtoms>
  152.2842  133.5499  159.5516 H   0  0  0  0  0  0  0  0  0  0  0  0  # atno 6907 bound_to 6896
  150.7208  134.0521  159.3811 H   0  0  0  0  0  0  0  0  0  0  0  0  # atno 6908 bound_to 6896
  151.8430  135.0584  160.0501 H   0  0  0  0  0  0  0  0  0  0  0  0  # atno 6909 bound_to 6896
  146.1918  139.7550  142.8826 H   0  0  0  0  0  0  0  0  0  0  0  0  # atno 7974 bound_to 7965
  156.1683  140.3125  155.8928 H   0  0  0  0  0  0  0  0  0  0  0  0  # atno 8008 bound_to 7997
  155.3640  140.0478  157.3063 H   0  0  0  0  0  0  0  0  0  0  0  0  # atno 8009 bound_to 7997
  154.5215  140.2199  155.8979 H   0  0  0  0  0  0  0  0  0  0  0  0  # atno 8010 bound_to 7997
  140.5774  143.2323  151.6413 H   0  0  0  0  0  0  0  0  0  0  0  0  # atno 10167 bound_to 10162
  156.3975  130.7917  151.2124 H   0  0  0  0  0  0  0  0  0  0  0  0  # atno 10718 bound_to 10713
  154.5684  135.2826  155.0851 H   0  0  0  0  0  0  0  0  0  0  0  0  # atno 10763 bound_to 10752
  154.2233  135.6387  153.5155 H   0  0  0  0  0  0  0  0  0  0  0  0  # atno 10764 bound_to 10752
  153.0050  135.5519  154.6300 H   0  0  0  0  0  0  0  0  0  0  0  0  # atno 10765 bound_to 10752
  140.9313  134.1316  157.4232 H   0  0  0  0  0  0  0  0  0  0  0  0  # atno 11005 bound_to 11000
  145.3768  141.0352  143.3200 LP  0  0  0  0  0  0  0  0  0  0  0  0  # atno 17320 bound_to 7965
  144.8502  139.5334  143.6860 LP  0  0  0  0  0  0  0  0  0  0  0  0  # atno 17321 bound_to 7965
  139.5150  144.3391  152.0756 LP  0  0  0  0  0  0  0  0  0  0  0  0  # atno 17342 bound_to 10162
  140.2536  144.4142  150.6212 LP  0  0  0  0  0  0  0  0  0  0  0  0  # atno 17343 bound_to 10162
  157.7502  131.0297  150.4104 LP  0  0  0  0  0  0  0  0  0  0  0  0  # atno 17370 bound_to 10713
  156.4377  130.3985  149.6718 LP  0  0  0  0  0  0  0  0  0  0  0  0  # atno 17371 bound_to 10713
  139.8797  135.0006  156.6019 LP  0  0  0  0  0  0  0  0  0  0  0  0  # atno 17394 bound_to 11000
  140.7859  133.8622  155.8605 LP  0  0  0  0  0  0  0  0  0  0  0  0  # atno 17395 bound_to 11000

$$$$
