AV-unprocessed.smi:2958|AV-procd|sdf|11307|dock7
  -GOLD-   2272016203D 1   1.00000     0.00000
 Structure written by MMmdl.
 39 41  0  0  0  0  0  0  0  0  1 V2000
  152.7668  143.3343  161.9927 C   0  0  0  0  0  0  0  0  0  0  0  0
  152.3491  143.4594  160.5418 C   0  0  0  0  0  0  0  0  0  0  0  0
  152.3696  144.7142  159.9006 C   0  0  0  0  0  0  0  0  0  0  0  0
  151.9791  144.8207  158.5533 C   0  0  0  0  0  0  0  0  0  0  0  0
  151.5684  143.6749  157.8461 C   0  0  0  0  0  0  0  0  0  0  0  0
  151.5438  142.4114  158.4711 C   0  0  0  0  0  0  0  0  0  0  0  0
  151.1310  141.3435  157.7037 O   0  0  0  0  0  0  0  0  0  0  0  0
  150.7770  140.1382  158.3661 C   0  0  0  0  0  0  0  0  0  0  0  0
  150.7933  138.9962  157.3436 C   0  0  0  0  0  0  0  0  0  0  0  0
  150.3183  139.4386  156.0425 N   0  0  0  0  0  0  0  0  0  0  0  0
  150.7740  139.0810  154.8158 C   0  0  0  0  0  0  0  0  0  0  0  0
  151.9054  138.1163  154.6339 C   0  0  0  0  0  0  0  0  0  0  0  0
  151.4818  136.8703  154.1237 O   0  0  0  0  0  0  0  0  0  0  0  0
  150.1499  139.6416  153.7790 N   0  0  0  0  0  0  0  0  0  0  0  0
  149.1962  140.4323  154.3904 C   0  0  0  0  0  0  0  0  0  0  0  0
  148.2120  141.2802  153.8339 C   0  0  0  0  0  0  0  0  0  0  0  0
  147.3301  141.9957  154.6704 C   0  0  0  0  0  0  0  0  0  0  0  0
  147.4191  141.8738  156.0723 C   0  0  0  0  0  0  0  0  0  0  0  0
  148.3940  141.0361  156.6477 C   0  0  0  0  0  0  0  0  0  0  0  0
  149.2725  140.3253  155.8082 C   0  0  0  0  0  0  0  0  0  0  0  0
  151.9380  142.3133  159.8300 C   0  0  0  0  0  0  0  0  0  0  0  0
  153.0459  144.3015  162.4119 H   0  0  0  0  0  0  0  0  0  0  0  0
  153.6224  142.6646  162.0833 H   0  0  0  0  0  0  0  0  0  0  0  0
  151.9482  142.9293  162.5882 H   0  0  0  0  0  0  0  0  0  0  0  0
  152.6834  145.5976  160.4374 H   0  0  0  0  0  0  0  0  0  0  0  0
  151.9944  145.7820  158.0611 H   0  0  0  0  0  0  0  0  0  0  0  0
  151.2705  143.7663  156.8119 H   0  0  0  0  0  0  0  0  0  0  0  0
  151.4864  139.9268  159.1677 H   0  0  0  0  0  0  0  0  0  0  0  0
  149.7816  140.2266  158.8046 H   0  0  0  0  0  0  0  0  0  0  0  0
  151.8058  138.6071  157.2308 H   0  0  0  0  0  0  0  0  0  0  0  0
  150.1826  138.1626  157.6903 H   0  0  0  0  0  0  0  0  0  0  0  0
  152.6548  138.5451  153.9685 H   0  0  0  0  0  0  0  0  0  0  0  0
  152.3963  137.9521  155.5936 H   0  0  0  0  0  0  0  0  0  0  0  0
  151.4187  136.9374  153.1833 H   0  0  0  0  0  0  0  0  0  0  0  0
  148.1349  141.3800  152.7613 H   0  0  0  0  0  0  0  0  0  0  0  0
  146.5814  142.6405  154.2341 H   0  0  0  0  0  0  0  0  0  0  0  0
  146.7389  142.4245  156.7056 H   0  0  0  0  0  0  0  0  0  0  0  0
  148.4651  140.9408  157.7211 H   0  0  0  0  0  0  0  0  0  0  0  0
  151.9327  141.3669  160.3494 H   0  0  0  0  0  0  0  0  0  0  0  0
  1  2  1  0  0  0  0
  1 22  1  0  0  0  0
  1 23  1  0  0  0  0
  1 24  1  0  0  0  0
  2 21  1  0  0  0  0
  2  3  2  0  0  0  0
  3  4  1  0  0  0  0
  3 25  1  0  0  0  0
  4  5  2  0  0  0  0
  4 26  1  0  0  0  0
  5  6  1  0  0  0  0
  5 27  1  0  0  0  0
  6  7  1  0  0  0  0
  6 21  2  0  0  0  0
  7  8  1  0  0  0  0
  8  9  1  0  0  0  0
  8 28  1  0  0  0  0
  8 29  1  0  0  0  0
  9 10  1  0  0  0  0
  9 30  1  0  0  0  0
  9 31  1  0  0  0  0
 10 20  1  0  0  0  0
 10 11  1  0  0  0  0
 11 12  1  0  0  0  0
 11 14  2  0  0  0  0
 12 13  1  0  0  0  0
 12 32  1  0  0  0  0
 12 33  1  0  0  0  0
 13 34  1  0  0  0  0
 14 15  1  0  0  0  0
 15 20  2  0  0  0  0
 15 16  1  0  0  0  0
 16 17  2  0  0  0  0
 16 35  1  0  0  0  0
 17 18  1  0  0  0  0
 17 36  1  0  0  0  0
 18 19  2  0  0  0  0
 18 37  1  0  0  0  0
 19 20  1  0  0  0  0
 19 38  1  0  0  0  0
 21 39  1  0  0  0  0
M  END
> <s_m_source_file>
AV-unprocessed.smi

> <i_m_source_file_index>
2958

> <i_lp_mmshare_version>
43012

> <i_f3d_flags>
0

> <s_epik_input>
W0NIM11jMVtjSF1bY0hdW2NIXWMoW2NIXTEpT1tDSDJdW0NIMl1uKGMobjIpW0NIMl1bT0hdKWMoYzIzKVtjSF1bY0hdW2NIXVtjSF0z

> <s_epik_cmdline>
J2VwaWtfcHl0aG9uJywgJy1waCcsICc3LjAnLCAnLXRuJywgJzgnLCAnLW1hJywgJzIwMCcsICctbWV0YWxfYmluZGluZycsICctaW1hZScsICc8aW5maWxlLm1hZT4nLCAnLW9tYWUnLCAnPG91dGZpbGUubWFlPic=

> <r_lp_tautomer_probability>
1

> <r_epik_Ionization_Penalty>
0.0482759

> <r_epik_Ionization_Penalty_Charging>
0

> <r_epik_Ionization_Penalty_Neutral>
0.0482759

> <r_epik_State_Penalty>
0.0410957

> <r_epik_Charging_Adjusted_Penalty>
0.0410957

> <i_epik_Tot_Q>
0

> <i_epik_Tot_abs_Q>
0

> <r_epik_Metal_State_Penalty>
4.25529e-05

> <b_epik_Metal_Only>
0

> <s_lp_Force_Field>
OPLS_2005

> <r_lp_Energy>
16.0806

> <b_lp_Chiralities_Consistent>
1

> <s_lp_Variant>
AV-unprocessed.smi:2958-1

> <Gold.Version>
5.8.1

> <Gold.Id.Protein>
6NUR|6NUR_protein|mol2

> <Gold.PLP.Fitness>
51.7826

> <Gold.PLP.PLP>
-45.7735

> <Gold.PLP.part.hbond>
-3.0000

> <Gold.PLP.part.metal>
0.0000

> <Gold.PLP.part.buried>
-5.3534

> <Gold.PLP.part.nonpolar>
-39.4636

> <Gold.PLP.part.repulsive>
2.8716

> <Gold.PLP.ligand.clash>
0.0000

> <Gold.PLP.ligand.torsion>
0.8197

> <Gold.PLP.Chemscore.Hbond>
2.5312

> <Gold.PLP.Chemscore.CHOScore>
0.0000

> <Gold.PLP.Chemscore.Metal>
0.0000

> <Gold.Chemscore.Hbonds>
donor molecule, donor type, donor heavy atom, donor atom, acceptor molecule, acceptor atom, score
      L1  H    13    34       P1  7949  0.93
      P1  H  7989  7998       L1    14  0.56
      P1  H 10752 10764       L1    13  1.00

> <Gold.PLP.Chemscore.Internal.Correction>
0.0549

> <Gold.Rescore>
     Score         DG    S(hbond)    S(metal)    S(lipo)     H(rot)  DE(clash)    DE(int)     intcor
     16.43     -19.26       1.33        0.00     126.82       2.15       1.45       1.38       ----

> <Gold.Chemscore.Fitness>
16.4335

> <Gold.Chemscore.DG>
-19.2612

> <Gold.Chemscore.ZeroCoef>
-5.4800

> <Gold.Chemscore.Hbond>
1.3316

> <Gold.Chemscore.Metal>
0.0000

> <Gold.Chemscore.Lipo>
126.8163

> <Gold.Chemscore.Internal_Hbond>
0.0000

> <Gold.Chemscore.DEClash>
1.4508

> <Gold.Chemscore.DEInternal>
1.3769

> <Gold.Chemscore.Rot>
2.1499

> <Gold.Chemscore.Internal.Correction>
   9.000000E+99

> <Gold.Chemscore.Hbonds>
donor molecule, donor type, donor heavy atom, donor atom, acceptor molecule, acceptor atom, score
      L1  H    13    34       P1  7949  0.74
      P1  H  7989  7998       L1    14  0.02
      P1  H 10752 10764       L1    13  0.17

> <Gold.Chemscore.Hbond.Weighted>
-4.4475

> <Gold.Chemscore.Metal.Weighted>
-0.0000

> <Gold.Chemscore.Lipo.Weighted>
-14.8375

> <Gold.Chemscore.Internal_Hbond.Weighted>
0.0000

> <Gold.Chemscore.DEClash.Weighted>
1.4508

> <Gold.Chemscore.DEInternal.Weighted>
1.3769

> <Gold.Chemscore.Rot.Weighted>
5.5038

> <Gold.Chemscore.Internal.Correction.Weighted>
   9.000000E+99

> <Gold.Protein.RotatedTorsions>
[ 6907 6896 6895 6894 ] final  -42.44 input  -60.11 | X-H torsion
[ 7974 7965 7964 7962 ] final  -65.82 input  175.53 | X-H torsion
[ 8008 7997 7996 7995 ] final -165.92 input   59.86 | X-H torsion
[ 10167 10162 10161 10158 ] final   54.68 input  -65.29 | X-H torsion
[ 10718 10713 10712 10709 ] final  -38.74 input   66.30 | X-H torsion
[ 10763 10752 10751 10750 ] final  -77.54 input  -60.55 | X-H torsion
[ 11005 11000 10999 10996 ] final  105.71 input  -57.11 | X-H torsion

> <Gold.Protein.ActiveResidues>
 VAL166  LYS551  ARG553  GLY616  TRP617  ASP618  TYR619  PRO620  LYS621  CYS622 
 ASP623  PHE694  ASN695  SER759  ASP760  ASP761  ALA762  ILE779  LEU786  VAL792 
 PHE793  MET794  SER795  GLU796  ALA797  LYS798  CYS799  TRP800  GLU811  SER814 

> <Gold.Protein.RotatedAtoms>
  150.9552  134.8947  159.7696 H   0  0  0  0  0  0  0  0  0  0  0  0  # atno 6907 bound_to 6896
  152.5135  134.3750  159.9341 H   0  0  0  0  0  0  0  0  0  0  0  0  # atno 6908 bound_to 6896
  151.3764  133.3796  159.2740 H   0  0  0  0  0  0  0  0  0  0  0  0  # atno 6909 bound_to 6896
  145.7496  140.8915  143.0487 H   0  0  0  0  0  0  0  0  0  0  0  0  # atno 7974 bound_to 7965
  155.8566  140.0971  157.1641 H   0  0  0  0  0  0  0  0  0  0  0  0  # atno 8008 bound_to 7997
  154.3988  140.1373  156.3971 H   0  0  0  0  0  0  0  0  0  0  0  0  # atno 8009 bound_to 7997
  155.7903  140.3456  155.5348 H   0  0  0  0  0  0  0  0  0  0  0  0  # atno 8010 bound_to 7997
  140.2276  144.3722  150.6427 H   0  0  0  0  0  0  0  0  0  0  0  0  # atno 10167 bound_to 10162
  156.3003  130.4239  149.8149 H   0  0  0  0  0  0  0  0  0  0  0  0  # atno 10718 bound_to 10713
  154.5143  135.5760  153.6629 H   0  0  0  0  0  0  0  0  0  0  0  0  # atno 10763 bound_to 10752
  152.9903  135.6166  154.2838 H   0  0  0  0  0  0  0  0  0  0  0  0  # atno 10764 bound_to 10752
  154.2755  135.2852  155.2699 H   0  0  0  0  0  0  0  0  0  0  0  0  # atno 10765 bound_to 10752
  139.8805  134.9345  156.5555 H   0  0  0  0  0  0  0  0  0  0  0  0  # atno 11005 bound_to 11000
  144.6853  139.9572  143.7479 LP  0  0  0  0  0  0  0  0  0  0  0  0  # atno 17320 bound_to 7965
  146.0370  139.3386  143.0720 LP  0  0  0  0  0  0  0  0  0  0  0  0  # atno 17321 bound_to 7965
  140.6209  143.2176  151.6695 LP  0  0  0  0  0  0  0  0  0  0  0  0  # atno 17342 bound_to 10162
  139.5121  144.3485  152.0674 LP  0  0  0  0  0  0  0  0  0  0  0  0  # atno 17343 bound_to 10162
  156.5530  130.8350  151.3305 LP  0  0  0  0  0  0  0  0  0  0  0  0  # atno 17370 bound_to 10713
  157.7366  130.9782  150.2146 LP  0  0  0  0  0  0  0  0  0  0  0  0  # atno 17371 bound_to 10713
  140.8208  133.8355  155.8894 LP  0  0  0  0  0  0  0  0  0  0  0  0  # atno 17394 bound_to 11000
  140.9420  134.1889  157.4791 LP  0  0  0  0  0  0  0  0  0  0  0  0  # atno 17395 bound_to 11000

$$$$
