AV-unprocessed.smi:2545|AV-procd|sdf|9995|dock7
  -GOLD-   2272014 43D 1   1.00000     0.00000
 Structure written by MMmdl.
 27 28  0  0  0  0  0  0  0  0  2 V2000
  141.8804  134.0470  154.2073 N   0  0  0  0  0  0  0  0  0  0  0  0
  142.3127  135.2623  153.6731 C   0  0  0  0  0  0  0  0  0  0  0  0
  141.6216  136.4483  154.0024 C   0  0  0  0  0  0  0  0  0  0  0  0
  142.0584  137.6745  153.4626 C   0  0  0  0  0  0  0  0  0  0  0  0
  143.1282  137.7028  152.6398 N   0  3  0  0  0  0  0  0  0  0  0  0
  143.8183  136.5934  152.2986 C   0  0  0  0  0  0  0  0  0  0  0  0
  143.4331  135.3291  152.8054 C   0  0  0  0  0  0  0  0  0  0  0  0
  144.1396  134.1658  152.4585 N   0  0  0  0  0  0  0  0  0  0  0  0
  144.1068  133.8674  151.0323 C   0  0  0  0  0  0  0  0  0  0  0  0
  144.7874  132.5141  150.7623 C   0  0  0  0  0  0  0  0  0  0  0  0
  146.1130  132.5353  151.2847 O   0  0  0  0  0  0  0  0  0  0  0  0
  146.1293  132.7481  152.6935 C   0  0  0  0  0  0  0  0  0  0  0  0
  145.4856  134.1081  153.0151 C   0  0  0  0  0  0  0  0  0  0  0  0
  142.3462  133.1758  153.9973 H   0  0  0  0  0  0  0  0  0  0  0  0
  141.0830  134.0030  154.8262 H   0  0  0  0  0  0  0  0  0  0  0  0
  140.7657  136.4221  154.6613 H   0  0  0  0  0  0  0  0  0  0  0  0
  141.5874  138.6260  153.6626 H   0  0  0  0  0  0  0  0  0  0  0  0
  144.6538  136.7504  151.6322 H   0  0  0  0  0  0  0  0  0  0  0  0
  143.0739  133.8427  150.6825 H   0  0  0  0  0  0  0  0  0  0  0  0
  144.6186  134.6540  150.4762 H   0  0  0  0  0  0  0  0  0  0  0  0
  144.2211  131.6965  151.2113 H   0  0  0  0  0  0  0  0  0  0  0  0
  144.8298  132.3214  149.6902 H   0  0  0  0  0  0  0  0  0  0  0  0
  145.6030  131.9379  153.2007 H   0  0  0  0  0  0  0  0  0  0  0  0
  147.1609  132.7274  153.0452 H   0  0  0  0  0  0  0  0  0  0  0  0
  146.0954  134.9109  152.5985 H   0  0  0  0  0  0  0  0  0  0  0  0
  145.4465  134.2573  154.0948 H   0  0  0  0  0  0  0  0  0  0  0  0
  143.4286  138.6006  152.2588 H   0  0  0  0  0  0  0  0  0  0  0  0
  1  2  1  0  0  0  0
  1 14  1  0  0  0  0
  1 15  1  0  0  0  0
  2  7  1  0  0  0  0
  2  3  2  0  0  0  0
  3  4  1  0  0  0  0
  3 16  1  0  0  0  0
  4  5  2  0  0  0  0
  4 17  1  0  0  0  0
  5  6  1  0  0  0  0
  5 27  1  0  0  0  0
  6  7  2  0  0  0  0
  6 18  1  0  0  0  0
  7  8  1  0  0  0  0
  8 13  1  0  0  0  0
  8  9  1  0  0  0  0
  9 10  1  0  0  0  0
  9 19  1  0  0  0  0
  9 20  1  0  0  0  0
 10 11  1  0  0  0  0
 10 21  1  0  0  0  0
 10 22  1  0  0  0  0
 11 12  1  0  0  0  0
 12 13  1  0  0  0  0
 12 23  1  0  0  0  0
 12 24  1  0  0  0  0
 13 25  1  0  0  0  0
 13 26  1  0  0  0  0
M  CHG  1   5   1
M  END
> <s_m_source_file>
AV-unprocessed.smi

> <i_m_source_file_index>
2545

> <i_lp_mmshare_version>
43012

> <i_f3d_flags>
0

> <s_epik_input>
W05IMl1jMVtjSF1bY0hdbltjSF1jMU4yW0NIMl1bQ0gyXU9bQ0gyXVtDSDJdMg==

> <s_epik_cmdline>
J2VwaWtfcHl0aG9uJywgJy1waCcsICc3LjAnLCAnLXRuJywgJzgnLCAnLW1hJywgJzIwMCcsICctbWV0YWxfYmluZGluZycsICctaW1hZScsICc8aW5maWxlLm1hZT4nLCAnLW9tYWUnLCAnPG91dGZpbGUubWFlPic=

> <r_lp_tautomer_probability>
1

> <r_epik_Ionization_Penalty>
0.0125888

> <r_epik_Ionization_Penalty_Charging>
0.0125847

> <r_epik_Ionization_Penalty_Neutral>
4.08722e-06

> <r_epik_State_Penalty>
0.00974947

> <r_epik_Charging_Adjusted_Penalty>
0.0223342

> <i_epik_Tot_Q>
1

> <i_epik_Tot_abs_Q>
1

> <r_epik_Metal_State_Penalty>
1.6989

> <b_epik_Metal_Only>
0

> <s_lp_Force_Field>
OPLS_2005

> <r_lp_Energy>
29.9348

> <b_lp_Chiralities_Consistent>
1

> <s_lp_Variant>
AV-unprocessed.smi:2545-1

> <Gold.Version>
5.8.1

> <Gold.Id.Protein>
6NUR|6NUR_protein|mol2

> <Gold.PLP.Fitness>
32.4862

> <Gold.PLP.PLP>
-22.0811

> <Gold.PLP.part.hbond>
-3.7561

> <Gold.PLP.part.metal>
0.0000

> <Gold.PLP.part.buried>
-5.2803

> <Gold.PLP.part.nonpolar>
-13.9484

> <Gold.PLP.part.repulsive>
0.3674

> <Gold.PLP.ligand.clash>
0.0000

> <Gold.PLP.ligand.torsion>
0.0759

> <Gold.PLP.Chemscore.Hbond>
3.4800

> <Gold.PLP.Chemscore.CHOScore>
0.0000

> <Gold.PLP.Chemscore.Metal>
0.0000

> <Gold.Chemscore.Hbonds>
donor molecule, donor type, donor heavy atom, donor atom, acceptor molecule, acceptor atom, score
      L1  H     1    14       P1 10957  0.74
      L1  H     1    15       P1 11000  0.74
      L1  H     5    27       P1 10175  1.98

> <Gold.PLP.Chemscore.Internal.Correction>
0.1170

> <Gold.Rescore>
     Score         DG    S(hbond)    S(metal)    S(lipo)     H(rot)  DE(clash)    DE(int)     intcor
     15.34     -15.46       2.48        0.00      36.34       1.00       0.02       0.10       ----

> <Gold.Chemscore.Fitness>
15.3396

> <Gold.Chemscore.DG>
-15.4564

> <Gold.Chemscore.ZeroCoef>
-5.4800

> <Gold.Chemscore.Hbond>
2.4804

> <Gold.Chemscore.Metal>
0.0000

> <Gold.Chemscore.Lipo>
36.3416

> <Gold.Chemscore.Internal_Hbond>
0.0000

> <Gold.Chemscore.DEClash>
0.0174

> <Gold.Chemscore.DEInternal>
0.0994

> <Gold.Chemscore.Rot>
1.0000

> <Gold.Chemscore.Internal.Correction>
   9.000000E+99

> <Gold.Chemscore.Hbonds>
donor molecule, donor type, donor heavy atom, donor atom, acceptor molecule, acceptor atom, score
      L1  H     1    14       P1 10957  0.74
      L1  H     1    15       P1 11000  0.08
      L1  H     5    27       P1 10175  0.94

> <Gold.Chemscore.Hbond.Weighted>
-8.2844

> <Gold.Chemscore.Metal.Weighted>
-0.0000

> <Gold.Chemscore.Lipo.Weighted>
-4.2520

> <Gold.Chemscore.Internal_Hbond.Weighted>
0.0000

> <Gold.Chemscore.DEClash.Weighted>
0.0174

> <Gold.Chemscore.DEInternal.Weighted>
0.0994

> <Gold.Chemscore.Rot.Weighted>
2.5600

> <Gold.Chemscore.Internal.Correction.Weighted>
   9.000000E+99

> <Gold.Protein.RotatedTorsions>
[ 6907 6896 6895 6894 ] final -110.20 input  -60.11 | X-H torsion
[ 7974 7965 7964 7962 ] final  -18.95 input  175.53 | X-H torsion
[ 8008 7997 7996 7995 ] final  -95.91 input   59.86 | X-H torsion
[ 10167 10162 10161 10158 ] final  -52.54 input  -65.29 | X-H torsion
[ 10718 10713 10712 10709 ] final  -55.98 input   66.30 | X-H torsion
[ 10763 10752 10751 10750 ] final   50.09 input  -60.55 | X-H torsion
[ 11005 11000 10999 10996 ] final  106.57 input  -57.11 | X-H torsion

> <Gold.Protein.ActiveResidues>
 VAL166  LYS551  ARG553  GLY616  TRP617  ASP618  TYR619  PRO620  LYS621  CYS622 
 ASP623  PHE694  ASN695  SER759  ASP760  ASP761  ALA762  ILE779  LEU786  VAL792 
 PHE793  MET794  SER795  GLU796  ALA797  LYS798  CYS799  TRP800  GLU811  SER814 

> <Gold.Protein.RotatedAtoms>
  150.7610  133.9417  159.3457 H   0  0  0  0  0  0  0  0  0  0  0  0  # atno 6907 bound_to 6896
  151.7326  135.0869  160.0312 H   0  0  0  0  0  0  0  0  0  0  0  0  # atno 6908 bound_to 6896
  152.3580  133.6224  159.6029 H   0  0  0  0  0  0  0  0  0  0  0  0  # atno 6909 bound_to 6896
  146.1866  140.3994  142.8474 H   0  0  0  0  0  0  0  0  0  0  0  0  # atno 7974 bound_to 7965
  154.7675  140.0476  157.1024 H   0  0  0  0  0  0  0  0  0  0  0  0  # atno 8008 bound_to 7997
  154.9861  140.3107  155.4906 H   0  0  0  0  0  0  0  0  0  0  0  0  # atno 8009 bound_to 7997
  156.2915  140.2227  156.4963 H   0  0  0  0  0  0  0  0  0  0  0  0  # atno 8010 bound_to 7997
  140.6532  143.2580  151.4662 H   0  0  0  0  0  0  0  0  0  0  0  0  # atno 10167 bound_to 10162
  156.1325  130.4158  150.0243 H   0  0  0  0  0  0  0  0  0  0  0  0  # atno 10718 bound_to 10713
  152.9785  135.5890  154.4196 H   0  0  0  0  0  0  0  0  0  0  0  0  # atno 10763 bound_to 10752
  154.3822  135.2767  155.2207 H   0  0  0  0  0  0  0  0  0  0  0  0  # atno 10764 bound_to 10752
  154.4115  135.6080  153.6010 H   0  0  0  0  0  0  0  0  0  0  0  0  # atno 10765 bound_to 10752
  139.8816  134.9373  156.5687 H   0  0  0  0  0  0  0  0  0  0  0  0  # atno 11005 bound_to 11000
  144.8408  140.6855  143.6230 LP  0  0  0  0  0  0  0  0  0  0  0  0  # atno 17320 bound_to 7965
  145.3920  139.1615  143.4224 LP  0  0  0  0  0  0  0  0  0  0  0  0  # atno 17321 bound_to 7965
  139.5750  144.1840  152.1890 LP  0  0  0  0  0  0  0  0  0  0  0  0  # atno 17342 bound_to 10162
  140.1147  144.5426  150.6901 LP  0  0  0  0  0  0  0  0  0  0  0  0  # atno 17343 bound_to 10162
  156.8151  130.9339  151.3643 LP  0  0  0  0  0  0  0  0  0  0  0  0  # atno 17370 bound_to 10713
  157.6502  130.8877  149.9617 LP  0  0  0  0  0  0  0  0  0  0  0  0  # atno 17371 bound_to 10713
  140.8115  133.8426  155.8814 LP  0  0  0  0  0  0  0  0  0  0  0  0  # atno 17394 bound_to 11000
  140.9502  134.1788  157.4733 LP  0  0  0  0  0  0  0  0  0  0  0  0  # atno 17395 bound_to 11000

$$$$
