AV-unprocessed.smi:1702|AV-procd|sdf|6852|dock3
  -GOLD-   22720 8 33D 1   1.00000     0.00000
 Structure written by MMmdl.
 45 47  0  0  0  0  0  0  0  0  3 V2000
  148.1107  141.2967  156.3830 C   0  0  0  0  0  0  0  0  0  0  0  0
  146.6908  141.4514  155.8093 C   0  0  2  0  0  0  0  0  0  0  0  0
  145.9106  140.1246  155.7822 C   0  0  0  0  0  0  0  0  0  0  0  0
  146.4071  139.1790  154.6735 C   0  0  0  0  0  0  0  0  0  0  0  0
  146.3600  139.8399  153.3420 N   0  3  2  0  0  0  0  0  0  0  0  0
  146.7094  138.9295  152.2203 C   0  0  0  0  0  0  0  0  0  0  0  0
  146.0130  137.5583  152.3309 C   0  0  1  0  0  0  0  0  0  0  0  0
  144.6125  137.7580  152.3614 O   0  0  0  0  0  0  0  0  0  0  0  0
  146.3666  136.6393  151.1447 C   0  0  0  0  0  0  0  0  0  0  0  0
  145.4620  135.4874  151.0237 N   0  0  0  0  0  0  0  0  0  0  0  0
  144.2060  135.4102  150.5040 C   0  0  0  0  0  0  0  0  0  0  0  0
  143.7899  134.1189  150.6237 N   0  3  0  0  0  0  0  0  0  0  0  0
  144.7940  133.3592  151.2281 C   0  0  0  0  0  0  0  0  0  0  0  0
  144.8416  132.0091  151.5604 C   0  0  0  0  0  0  0  0  0  0  0  0
  146.0247  131.5472  152.1738 C   0  0  0  0  0  0  0  0  0  0  0  0
  146.1234  130.2418  152.5195 F   0  0  0  0  0  0  0  0  0  0  0  0
  147.1045  132.4176  152.4339 C   0  0  0  0  0  0  0  0  0  0  0  0
  148.2226  131.9336  153.0245 F   0  0  0  0  0  0  0  0  0  0  0  0
  147.0448  133.7851  152.0919 C   0  0  0  0  0  0  0  0  0  0  0  0
  145.8712  134.2325  151.4872 C   0  0  0  0  0  0  0  0  0  0  0  0
  147.1613  141.0908  153.3234 C   0  0  0  0  0  0  0  0  0  0  0  0
  146.6816  142.0775  154.4032 C   0  0  0  0  0  0  0  0  0  0  0  0
  148.7286  140.6302  155.7819 H   0  0  0  0  0  0  0  0  0  0  0  0
  148.0805  140.8931  157.3955 H   0  0  0  0  0  0  0  0  0  0  0  0
  148.6184  142.2604  156.4318 H   0  0  0  0  0  0  0  0  0  0  0  0
  146.1609  142.1323  156.4769 H   0  0  0  0  0  0  0  0  0  0  0  0
  145.9716  139.6304  156.7527 H   0  0  0  0  0  0  0  0  0  0  0  0
  144.8529  140.3356  155.6178 H   0  0  0  0  0  0  0  0  0  0  0  0
  147.4251  138.8487  154.8836 H   0  0  0  0  0  0  0  0  0  0  0  0
  145.7855  138.2844  154.6739 H   0  0  0  0  0  0  0  0  0  0  0  0
  146.4241  139.3843  151.2701 H   0  0  0  0  0  0  0  0  0  0  0  0
  147.7929  138.8078  152.1817 H   0  0  0  0  0  0  0  0  0  0  0  0
  146.3022  137.0602  153.2555 H   0  0  0  0  0  0  0  0  0  0  0  0
  144.3606  138.2597  151.6006 H   0  0  0  0  0  0  0  0  0  0  0  0
  146.3167  137.1936  150.2064 H   0  0  0  0  0  0  0  0  0  0  0  0
  147.3888  136.2679  151.2283 H   0  0  0  0  0  0  0  0  0  0  0  0
  143.6398  136.2253  150.0762 H   0  0  0  0  0  0  0  0  0  0  0  0
  144.0177  131.3390  151.3630 H   0  0  0  0  0  0  0  0  0  0  0  0
  147.8775  134.4414  152.2953 H   0  0  0  0  0  0  0  0  0  0  0  0
  148.2170  140.8529  153.4608 H   0  0  0  0  0  0  0  0  0  0  0  0
  147.0721  141.5685  152.3470 H   0  0  0  0  0  0  0  0  0  0  0  0
  145.6670  142.3981  154.1621 H   0  0  0  0  0  0  0  0  0  0  0  0
  147.2941  142.9796  154.3863 H   0  0  0  0  0  0  0  0  0  0  0  0
  145.4022  140.1214  153.1865 H   0  0  0  0  0  0  0  0  0  0  0  0
  142.8859  133.7838  150.3147 H   0  0  0  0  0  0  0  0  0  0  0  0
  1  2  1  0  0  0  0
  1 23  1  0  0  0  0
  1 24  1  0  0  0  0
  1 25  1  0  0  0  0
  2 22  1  0  0  0  0
  2  3  1  0  0  0  0
  2 26  1  0  0  0  0
  3  4  1  0  0  0  0
  3 27  1  0  0  0  0
  3 28  1  0  0  0  0
  4  5  1  0  0  0  0
  4 29  1  0  0  0  0
  4 30  1  0  0  0  0
  5  6  1  0  0  0  0
  5 21  1  0  0  0  0
  5 44  1  0  0  0  0
  6  7  1  0  0  0  0
  6 31  1  0  0  0  0
  6 32  1  0  0  0  0
  7  8  1  0  0  0  0
  7  9  1  0  0  0  0
  7 33  1  0  0  0  0
  8 34  1  0  0  0  0
  9 10  1  0  0  0  0
  9 35  1  0  0  0  0
  9 36  1  0  0  0  0
 10 20  1  0  0  0  0
 10 11  1  0  0  0  0
 11 12  2  0  0  0  0
 11 37  1  0  0  0  0
 12 13  1  0  0  0  0
 12 45  1  0  0  0  0
 13 20  2  0  0  0  0
 13 14  1  0  0  0  0
 14 15  2  0  0  0  0
 14 38  1  0  0  0  0
 15 16  1  0  0  0  0
 15 17  1  0  0  0  0
 17 18  1  0  0  0  0
 17 19  2  0  0  0  0
 19 20  1  0  0  0  0
 19 39  1  0  0  0  0
 21 22  1  0  0  0  0
 21 40  1  0  0  0  0
 21 41  1  0  0  0  0
 22 42  1  0  0  0  0
 22 43  1  0  0  0  0
M  CHG  1   5   1
M  CHG  1  12   1
M  END
> <s_m_source_file>
AV-unprocessed.smi

> <i_m_source_file_index>
1702

> <i_lp_mmshare_version>
43012

> <i_f3d_flags>
0

> <s_epik_input>
W0NIM11bQ0hdMVtDSDJdW0NIMl1OKFtDSDJdW0NIMl0xKVtDSDJdW0NASF0oW09IXSlbQ0gyXW4oW2NIXW4yKWMoYzIzKVtjSF1jKEYpYyhGKVtjSF0z

> <s_epik_cmdline>
J2VwaWtfcHl0aG9uJywgJy1waCcsICc3LjAnLCAnLXRuJywgJzgnLCAnLW1hJywgJzIwMCcsICctbWV0YWxfYmluZGluZycsICctaW1hZScsICc8aW5maWxlLm1hZT4nLCAnLW9tYWUnLCAnPG91dGZpbGUubWFlPic=

> <r_epik_Ionization_Penalty>
2.33291

> <r_epik_Ionization_Penalty_Charging>
2.33291

> <r_epik_Ionization_Penalty_Neutral>
6.90208e-07

> <r_epik_State_Penalty>
2.4838

> <r_epik_Charging_Adjusted_Penalty>
4.81672

> <i_epik_Tot_Q>
2

> <i_epik_Tot_abs_Q>
2

> <r_epik_Metal_State_Penalty>
6.56754

> <b_epik_Metal_Only>
0

> <s_lp_Force_Field>
OPLS_2005

> <r_lp_Energy>
31.9784

> <b_lp_Chiralities_Consistent>
1

> <s_lp_Variant>
AV-unprocessed.smi:1702-8

> <Gold.Version>
5.8.1

> <Gold.Id.Protein>
6NUR|6NUR_protein|mol2

> <Gold.PLP.Fitness>
57.0989

> <Gold.PLP.PLP>
-40.7800

> <Gold.PLP.part.hbond>
-4.0000

> <Gold.PLP.part.metal>
0.0000

> <Gold.PLP.part.buried>
-2.0054

> <Gold.PLP.part.nonpolar>
-35.8001

> <Gold.PLP.part.repulsive>
0.0100

> <Gold.PLP.ligand.clash>
0.0000

> <Gold.PLP.ligand.torsion>
0.4469

> <Gold.PLP.Chemscore.Hbond>
4.7280

> <Gold.PLP.Chemscore.CHOScore>
1.0000

> <Gold.PLP.Chemscore.Metal>
0.0000

> <Gold.Chemscore.Hbonds>
donor molecule, donor type, donor heavy atom, donor atom, acceptor molecule, acceptor atom, score
      L1  H     5    44       P1 10175  2.00
      L1  H     8    34       P1 10171  1.00
      L1  H    12    45       P1 10186  1.32
      L1  C    11    37       P1 10171  1.00

> <Gold.PLP.Chemscore.Internal.Correction>
0.0288

> <Gold.Rescore>
     Score         DG    S(hbond)    S(metal)    S(lipo)     H(rot)  DE(clash)    DE(int)     intcor
     16.67     -19.33       2.87        0.00      87.13       2.32       1.25       1.40       ----

> <Gold.Chemscore.Fitness>
16.6723

> <Gold.Chemscore.DG>
-19.3263

> <Gold.Chemscore.ZeroCoef>
-5.4800

> <Gold.Chemscore.Hbond>
2.8724

> <Gold.Chemscore.Metal>
0.0000

> <Gold.Chemscore.Lipo>
87.1300

> <Gold.Chemscore.Internal_Hbond>
0.0000

> <Gold.Chemscore.DEClash>
1.2546

> <Gold.Chemscore.DEInternal>
1.3994

> <Gold.Chemscore.Rot>
2.3210

> <Gold.Chemscore.Internal.Correction>
   9.000000E+99

> <Gold.Chemscore.Hbonds>
donor molecule, donor type, donor heavy atom, donor atom, acceptor molecule, acceptor atom, score
      L1  H     5    44       P1 10175  1.00
      L1  H     8    34       P1 10171  0.99
      L1  H    12    45       P1 10186  0.63

> <Gold.Chemscore.Hbond.Weighted>
-9.5938

> <Gold.Chemscore.Metal.Weighted>
-0.0000

> <Gold.Chemscore.Lipo.Weighted>
-10.1942

> <Gold.Chemscore.Internal_Hbond.Weighted>
0.0000

> <Gold.Chemscore.DEClash.Weighted>
1.2546

> <Gold.Chemscore.DEInternal.Weighted>
1.3994

> <Gold.Chemscore.Rot.Weighted>
5.9416

> <Gold.Chemscore.Internal.Correction.Weighted>
   9.000000E+99

> <Gold.Protein.RotatedTorsions>
[ 6907 6896 6895 6894 ] final  -57.12 input  -60.11 | X-H torsion
[ 7974 7965 7964 7962 ] final  -32.00 input  175.53 | X-H torsion
[ 8008 7997 7996 7995 ] final -114.07 input   59.86 | X-H torsion
[ 10167 10162 10161 10158 ] final  -42.30 input  -65.29 | X-H torsion
[ 10718 10713 10712 10709 ] final  166.96 input   66.30 | X-H torsion
[ 10763 10752 10751 10750 ] final  130.76 input  -60.55 | X-H torsion
[ 11005 11000 10999 10996 ] final -147.45 input  -57.11 | X-H torsion

> <Gold.Protein.ActiveResidues>
 VAL166  LYS551  ARG553  GLY616  TRP617  ASP618  TYR619  PRO620  LYS621  CYS622 
 ASP623  PHE694  ASN695  SER759  ASP760  ASP761  ALA762  ILE779  LEU786  VAL792 
 PHE793  MET794  SER795  GLU796  ALA797  LYS798  CYS799  TRP800  GLU811  SER814 

> <Gold.Protein.RotatedAtoms>
  150.8111  134.7267  159.6688 H   0  0  0  0  0  0  0  0  0  0  0  0  # atno 6907 bound_to 6896
  152.4231  134.5915  159.9985 H   0  0  0  0  0  0  0  0  0  0  0  0  # atno 6908 bound_to 6896
  151.6124  133.3309  159.3106 H   0  0  0  0  0  0  0  0  0  0  0  0  # atno 6909 bound_to 6896
  146.1024  140.5737  142.8815 H   0  0  0  0  0  0  0  0  0  0  0  0  # atno 7974 bound_to 7965
  155.0305  140.0393  157.2472 H   0  0  0  0  0  0  0  0  0  0  0  0  # atno 8008 bound_to 7997
  154.7301  140.2729  155.6440 H   0  0  0  0  0  0  0  0  0  0  0  0  # atno 8009 bound_to 7997
  156.2839  140.2686  156.1998 H   0  0  0  0  0  0  0  0  0  0  0  0  # atno 8010 bound_to 7997
  140.6974  143.3045  151.3190 H   0  0  0  0  0  0  0  0  0  0  0  0  # atno 10167 bound_to 10162
  157.0584  131.0333  151.2656 H   0  0  0  0  0  0  0  0  0  0  0  0  # atno 10718 bound_to 10713
  153.7632  135.3193  155.3340 H   0  0  0  0  0  0  0  0  0  0  0  0  # atno 10763 bound_to 10752
  154.8222  135.4595  154.0817 H   0  0  0  0  0  0  0  0  0  0  0  0  # atno 10764 bound_to 10752
  153.2054  135.6928  153.8263 H   0  0  0  0  0  0  0  0  0  0  0  0  # atno 10765 bound_to 10752
  140.7716  134.3183  157.5073 H   0  0  0  0  0  0  0  0  0  0  0  0  # atno 11005 bound_to 11000
  144.7443  140.5027  143.6847 LP  0  0  0  0  0  0  0  0  0  0  0  0  # atno 17320 bound_to 7965
  145.5828  139.1490  143.3226 LP  0  0  0  0  0  0  0  0  0  0  0  0  # atno 17321 bound_to 7965
  139.6446  144.0475  152.2581 LP  0  0  0  0  0  0  0  0  0  0  0  0  # atno 17342 bound_to 10162
  139.9992  144.6306  150.7745 LP  0  0  0  0  0  0  0  0  0  0  0  0  # atno 17343 bound_to 10162
  157.4974  130.7859  149.7570 LP  0  0  0  0  0  0  0  0  0  0  0  0  # atno 17370 bound_to 10713
  155.9986  130.3893  150.2696 LP  0  0  0  0  0  0  0  0  0  0  0  0  # atno 17371 bound_to 10713
  139.8755  134.9264  156.3399 LP  0  0  0  0  0  0  0  0  0  0  0  0  # atno 17394 bound_to 11000
  140.9569  133.7414  156.0347 LP  0  0  0  0  0  0  0  0  0  0  0  0  # atno 17395 bound_to 11000

$$$$
