AV-unprocessed.smi:370|AV-procd|sdf|2439|dock5
  -GOLD-   2262022383D 1   1.00000     0.00000
 Structure written by MMmdl.
 42 43  0  0  0  0  0  0  0  0  3 V2000
  147.2016  135.7389  162.9565 C   0  0  0  0  0  0  0  0  0  0  0  0
  147.8178  135.6502  161.6023 C   0  0  0  0  0  0  0  0  0  0  0  0
  148.1220  134.5949  160.7901 C   0  0  0  0  0  0  0  0  0  0  0  0
  148.6840  135.2193  159.6432 C   0  0  0  0  0  0  0  0  0  0  0  0
  149.1547  134.5905  158.5553 N   0  5  0  0  0  0  0  0  0  0  0  0
  148.5475  134.7546  157.3584 C   0  0  0  0  0  0  0  0  0  0  0  0
  148.3572  135.8240  156.7746 O   0  0  0  0  0  0  0  0  0  0  0  0
  148.1248  133.6061  156.8104 N   0  0  0  0  0  0  0  0  0  0  0  0
  147.4210  133.4557  155.5369 C   0  0  0  0  0  0  0  0  0  0  0  0
  146.0332  132.7529  155.6545 C   0  0  0  0  0  0  0  0  0  0  0  0
  146.2393  131.4356  156.4489 C   0  0  0  0  0  0  0  0  0  0  0  0
  145.0322  133.6291  156.4474 C   0  0  0  0  0  0  0  0  0  0  0  0
  145.5237  132.4744  154.2610 N   0  3  0  0  0  0  0  0  0  0  0  0
  145.4717  133.6373  153.3286 C   0  0  0  0  0  0  0  0  0  0  0  0
  144.7918  133.2476  152.0039 C   0  0  0  0  0  0  0  0  0  0  0  0
  145.4633  132.1448  151.4127 O   0  0  0  0  0  0  0  0  0  0  0  0
  145.4298  131.0014  152.2540 C   0  0  0  0  0  0  0  0  0  0  0  0
  146.1609  131.3173  153.5676 C   0  0  0  0  0  0  0  0  0  0  0  0
  148.7320  136.5360  159.7563 N   0  0  0  0  0  0  0  0  0  0  0  0
  148.1720  136.8211  161.0075 O   0  0  0  0  0  0  0  0  0  0  0  0
  147.8075  135.2076  163.6905 H   0  0  0  0  0  0  0  0  0  0  0  0
  146.2054  135.2967  162.9558 H   0  0  0  0  0  0  0  0  0  0  0  0
  147.1107  136.7758  163.2809 H   0  0  0  0  0  0  0  0  0  0  0  0
  147.9647  133.5443  160.9830 H   0  0  0  0  0  0  0  0  0  0  0  0
  148.3076  132.7595  157.3292 H   0  0  0  0  0  0  0  0  0  0  0  0
  147.3453  134.4339  155.0651 H   0  0  0  0  0  0  0  0  0  0  0  0
  148.0683  132.8699  154.8835 H   0  0  0  0  0  0  0  0  0  0  0  0
  146.7016  131.6113  157.4205 H   0  0  0  0  0  0  0  0  0  0  0  0
  146.8806  130.7383  155.9086 H   0  0  0  0  0  0  0  0  0  0  0  0
  145.2967  130.9330  156.6667 H   0  0  0  0  0  0  0  0  0  0  0  0
  145.3275  133.7248  157.4926 H   0  0  0  0  0  0  0  0  0  0  0  0
  144.0293  133.2023  156.4432 H   0  0  0  0  0  0  0  0  0  0  0  0
  144.9672  134.6409  156.0471 H   0  0  0  0  0  0  0  0  0  0  0  0
  144.8954  134.4617  153.7447 H   0  0  0  0  0  0  0  0  0  0  0  0
  146.4795  134.0075  153.1370 H   0  0  0  0  0  0  0  0  0  0  0  0
  143.7408  133.0022  152.1657 H   0  0  0  0  0  0  0  0  0  0  0  0
  144.8164  134.0873  151.3092 H   0  0  0  0  0  0  0  0  0  0  0  0
  144.3995  130.6947  152.4419 H   0  0  0  0  0  0  0  0  0  0  0  0
  145.9204  130.1740  151.7410 H   0  0  0  0  0  0  0  0  0  0  0  0
  147.2045  131.5410  153.3434 H   0  0  0  0  0  0  0  0  0  0  0  0
  146.1552  130.4217  154.1845 H   0  0  0  0  0  0  0  0  0  0  0  0
  144.5580  132.2108  154.3952 H   0  0  0  0  0  0  0  0  0  0  0  0
  1  2  1  0  0  0  0
  1 21  1  0  0  0  0
  1 22  1  0  0  0  0
  1 23  1  0  0  0  0
  2 20  1  0  0  0  0
  2  3  2  0  0  0  0
  3  4  1  0  0  0  0
  3 24  1  0  0  0  0
  4  5  1  0  0  0  0
  4 19  2  0  0  0  0
  5  6  1  0  0  0  0
  6  7  2  0  0  0  0
  6  8  1  0  0  0  0
  8  9  1  0  0  0  0
  8 25  1  0  0  0  0
  9 10  1  0  0  0  0
  9 26  1  0  0  0  0
  9 27  1  0  0  0  0
 10 11  1  0  0  0  0
 10 12  1  0  0  0  0
 10 13  1  0  0  0  0
 11 28  1  0  0  0  0
 11 29  1  0  0  0  0
 11 30  1  0  0  0  0
 12 31  1  0  0  0  0
 12 32  1  0  0  0  0
 12 33  1  0  0  0  0
 13 18  1  0  0  0  0
 13 14  1  0  0  0  0
 13 42  1  0  0  0  0
 14 15  1  0  0  0  0
 14 34  1  0  0  0  0
 14 35  1  0  0  0  0
 15 16  1  0  0  0  0
 15 36  1  0  0  0  0
 15 37  1  0  0  0  0
 16 17  1  0  0  0  0
 17 18  1  0  0  0  0
 17 38  1  0  0  0  0
 17 39  1  0  0  0  0
 18 40  1  0  0  0  0
 18 41  1  0  0  0  0
 19 20  1  0  0  0  0
M  CHG  1   5  -1
M  CHG  1  13   1
M  END
> <s_m_source_file>
AV-unprocessed.smi

> <i_m_source_file_index>
370

> <i_lp_mmshare_version>
43012

> <i_f3d_flags>
0

> <s_epik_input>
W0NIM11jMVtjSF1jKG5vMSlbTkhdQyg9TylbTkhdW0NIMl1DKFtDSDNdKShbQ0gzXSlOMltDSDJdW0NIMl1PW0NIMl1bQ0gyXTI=

> <s_epik_cmdline>
J2VwaWtfcHl0aG9uJywgJy1waCcsICc3LjAnLCAnLXRuJywgJzgnLCAnLW1hJywgJzIwMCcsICctbWV0YWxfYmluZGluZycsICctaW1hZScsICc8aW5maWxlLm1hZT4nLCAnLW9tYWUnLCAnPG91dGZpbGUubWFlPic=

> <r_epik_Ionization_Penalty>
6.73014

> <r_epik_Ionization_Penalty_Charging>
6.73004

> <r_epik_Ionization_Penalty_Neutral>
9.76201e-05

> <r_epik_State_Penalty>
6.93052

> <r_epik_Charging_Adjusted_Penalty>
13.6606

> <i_epik_Tot_Q>
0

> <i_epik_Tot_abs_Q>
2

> <r_epik_Metal_State_Penalty>
2.86736

> <b_epik_Metal_Only>
1

> <s_lp_Force_Field>
OPLS_2005

> <r_lp_Energy>
13.9603

> <b_lp_Chiralities_Consistent>
1

> <s_lp_Variant>
AV-unprocessed.smi:370-4

> <Gold.Version>
5.8.1

> <Gold.Id.Protein>
6NUR|6NUR_protein|mol2

> <Gold.PLP.Fitness>
35.9131

> <Gold.PLP.PLP>
-21.4130

> <Gold.PLP.part.hbond>
-4.3322

> <Gold.PLP.part.metal>
0.0000

> <Gold.PLP.part.buried>
-4.3152

> <Gold.PLP.part.nonpolar>
-13.3424

> <Gold.PLP.part.repulsive>
0.1297

> <Gold.PLP.ligand.clash>
0.0000

> <Gold.PLP.ligand.torsion>
1.4870

> <Gold.PLP.Chemscore.Hbond>
5.7920

> <Gold.PLP.Chemscore.CHOScore>
0.0000

> <Gold.PLP.Chemscore.Metal>
0.0000

> <Gold.Chemscore.Hbonds>
donor molecule, donor type, donor heavy atom, donor atom, acceptor molecule, acceptor atom, score
      L1  H    13    42       P1 10957  2.00
      P1  H  6896  6907       L1     5  0.90
      P1  H  6931  6943       L1    20  1.00
      P1  H  6934  6947       L1    20  0.04

> <Gold.PLP.Chemscore.Internal.Correction>
0.0981

> <Gold.Rescore>
     Score         DG    S(hbond)    S(metal)    S(lipo)     H(rot)  DE(clash)    DE(int)     intcor
     13.16     -15.03       2.44        0.00      46.24       1.57       0.05       1.82       ----

> <Gold.Chemscore.Fitness>
13.1615

> <Gold.Chemscore.DG>
-15.0290

> <Gold.Chemscore.ZeroCoef>
-5.4800

> <Gold.Chemscore.Hbond>
2.4426

> <Gold.Chemscore.Metal>
0.0000

> <Gold.Chemscore.Lipo>
46.2405

> <Gold.Chemscore.Internal_Hbond>
0.0000

> <Gold.Chemscore.DEClash>
0.0515

> <Gold.Chemscore.DEInternal>
1.8160

> <Gold.Chemscore.Rot>
1.5701

> <Gold.Chemscore.Internal.Correction>
   9.000000E+99

> <Gold.Chemscore.Hbonds>
donor molecule, donor type, donor heavy atom, donor atom, acceptor molecule, acceptor atom, score
      L1  H    13    42       P1 10957  0.39
      P1  H  6896  6907       L1     5  0.02
      P1  H  6931  6943       L1    20  0.84
      P1  H  6934  6947       L1    20  0.05

> <Gold.Chemscore.Hbond.Weighted>
-8.1582

> <Gold.Chemscore.Metal.Weighted>
-0.0000

> <Gold.Chemscore.Lipo.Weighted>
-5.4101

> <Gold.Chemscore.Internal_Hbond.Weighted>
0.0000

> <Gold.Chemscore.DEClash.Weighted>
0.0515

> <Gold.Chemscore.DEInternal.Weighted>
1.8160

> <Gold.Chemscore.Rot.Weighted>
4.0194

> <Gold.Chemscore.Internal.Correction.Weighted>
   9.000000E+99

> <Gold.Protein.RotatedTorsions>
[ 6907 6896 6895 6894 ] final  -89.04 input  -60.11 | X-H torsion
[ 7974 7965 7964 7962 ] final -131.36 input  175.53 | X-H torsion
[ 8008 7997 7996 7995 ] final  161.19 input   59.86 | X-H torsion
[ 10167 10162 10161 10158 ] final -103.53 input  -65.29 | X-H torsion
[ 10718 10713 10712 10709 ] final    5.89 input   66.30 | X-H torsion
[ 10763 10752 10751 10750 ] final  140.54 input  -60.55 | X-H torsion
[ 11005 11000 10999 10996 ] final -107.23 input  -57.11 | X-H torsion

> <Gold.Protein.ActiveResidues>
 VAL166  LYS551  ARG553  GLY616  TRP617  ASP618  TYR619  PRO620  LYS621  CYS622 
 ASP623  PHE694  ASN695  SER759  ASP760  ASP761  ALA762  ILE779  LEU786  VAL792 
 PHE793  MET794  SER795  GLU796  ALA797  LYS798  CYS799  TRP800  GLU811  SER814 

> <Gold.Protein.RotatedAtoms>
  150.6871  134.2649  159.4564 H   0  0  0  0  0  0  0  0  0  0  0  0  # atno 6907 bound_to 6896
  152.0576  134.9612  160.0584 H   0  0  0  0  0  0  0  0  0  0  0  0  # atno 6908 bound_to 6896
  152.1052  133.4236  159.4642 H   0  0  0  0  0  0  0  0  0  0  0  0  # atno 6909 bound_to 6896
  144.9386  140.7213  143.4861 H   0  0  0  0  0  0  0  0  0  0  0  0  # atno 7974 bound_to 7965
  156.2120  140.1784  156.7673 H   0  0  0  0  0  0  0  0  0  0  0  0  # atno 8008 bound_to 7997
  154.5736  140.0678  156.9031 H   0  0  0  0  0  0  0  0  0  0  0  0  # atno 8009 bound_to 7997
  155.2628  140.3337  155.4274 H   0  0  0  0  0  0  0  0  0  0  0  0  # atno 8010 bound_to 7997
  140.2190  143.3690  152.0986 H   0  0  0  0  0  0  0  0  0  0  0  0  # atno 10167 bound_to 10162
  156.9140  130.5766  149.5647 H   0  0  0  0  0  0  0  0  0  0  0  0  # atno 10718 bound_to 10713
  153.9245  135.2997  155.3447 H   0  0  0  0  0  0  0  0  0  0  0  0  # atno 10763 bound_to 10752
  154.7559  135.4958  153.9376 H   0  0  0  0  0  0  0  0  0  0  0  0  # atno 10764 bound_to 10752
  153.1124  135.6762  153.9580 H   0  0  0  0  0  0  0  0  0  0  0  0  # atno 10765 bound_to 10752
  141.0964  133.8963  157.1951 H   0  0  0  0  0  0  0  0  0  0  0  0  # atno 11005 bound_to 11000
  145.3027  139.1845  143.4681 LP  0  0  0  0  0  0  0  0  0  0  0  0  # atno 17320 bound_to 7965
  146.3277  140.3020  142.8621 LP  0  0  0  0  0  0  0  0  0  0  0  0  # atno 17321 bound_to 7965
  139.5151  144.6958  151.5634 LP  0  0  0  0  0  0  0  0  0  0  0  0  # atno 17342 bound_to 10162
  140.6269  143.9152  150.6572 LP  0  0  0  0  0  0  0  0  0  0  0  0  # atno 17343 bound_to 10162
  156.0522  130.5590  150.9014 LP  0  0  0  0  0  0  0  0  0  0  0  0  # atno 17370 bound_to 10713
  157.5949  131.0943  150.9057 LP  0  0  0  0  0  0  0  0  0  0  0  0  # atno 17371 bound_to 10713
  139.9802  135.0100  156.9731 LP  0  0  0  0  0  0  0  0  0  0  0  0  # atno 17394 bound_to 11000
  140.5129  134.0984  155.7274 LP  0  0  0  0  0  0  0  0  0  0  0  0  # atno 17395 bound_to 11000

$$$$
