AV-unprocessed.smi:229|AV-procd|sdf|1757|dock3
  -GOLD-   2262020283D 1   1.00000     0.00000
 Structure written by MMmdl.
 58 62  0  0  0  0  0  0  0  0  1 V2000
  151.3018  130.7898  156.6719 C   0  0  0  0  0  0  0  0  0  0  0  0
  151.5578  132.2711  156.9765 C   0  0  0  0  0  0  0  0  0  0  0  0
  151.1072  133.2017  155.8408 C   0  0  2  0  0  0  0  0  0  0  0  0
  151.3617  134.6810  156.1764 C   0  0  0  0  0  0  0  0  0  0  0  0
  150.8276  135.5270  155.1152 N   0  0  0  0  0  0  0  0  0  0  0  0
  151.2127  136.8268  155.0698 C   0  0  0  0  0  0  0  0  0  0  0  0
  152.1018  137.2413  154.1277 N   0  0  0  0  0  0  0  0  0  0  0  0
  152.4909  138.5191  154.0826 C   0  0  0  0  0  0  0  0  0  0  0  0
  152.1205  139.5332  154.8671 N   0  0  0  0  0  0  0  0  0  0  0  0
  151.2220  139.1254  155.8081 C   0  0  0  0  0  0  0  0  0  0  0  0
  150.7195  137.8046  155.9793 C   0  0  0  0  0  0  0  0  0  0  0  0
  149.8130  137.7772  157.0334 N   0  0  0  0  0  0  0  0  0  0  0  0
  149.7877  139.0088  157.4648 C   0  0  0  0  0  0  0  0  0  0  0  0
  150.6022  139.8847  156.7839 N   0  0  0  0  0  0  0  0  0  0  0  0
  150.7643  141.3050  157.0411 C   0  0  0  0  0  0  0  0  0  0  0  0
  151.5227  141.5810  158.3543 C   0  0  1  0  0  0  0  0  0  0  0  0
  152.7651  140.9035  158.3265 O   0  0  0  0  0  0  0  0  0  0  0  0
  151.7820  143.0827  158.5752 C   0  0  2  0  0  0  0  0  0  0  0  0
  152.3731  143.4306  159.9430 C   0  0  0  0  0  0  0  0  0  0  0  0
  151.9278  144.8662  160.1769 C   0  0  0  0  0  0  0  0  0  0  0  0
  150.8412  145.0959  159.1235 C   0  0  0  0  0  0  0  0  0  0  0  0
  150.5621  143.8076  158.5948 O   0  0  0  0  0  0  0  0  0  0  0  0
  149.4119  135.2915  154.8567 C   0  0  0  0  0  0  0  0  0  0  0  0
  149.1455  133.7963  154.5733 C   0  0  2  0  0  0  0  0  0  0  0  0
  149.6408  133.3385  153.1967 C   0  0  0  0  0  0  0  0  0  0  0  0
  148.3712  133.2622  152.3609 C   0  0  0  0  0  0  0  0  0  0  0  0
  147.4241  132.7860  153.2982 O   0  0  0  0  0  0  0  0  0  0  0  0
  147.6341  133.5046  154.5056 C   0  0  0  0  0  0  0  0  0  0  0  0
  149.7083  133.0061  155.6252 O   0  0  0  0  0  0  0  0  0  0  0  0
  151.6478  130.1597  157.4916 H   0  0  0  0  0  0  0  0  0  0  0  0
  151.8248  130.4772  155.7679 H   0  0  0  0  0  0  0  0  0  0  0  0
  150.2389  130.5933  156.5290 H   0  0  0  0  0  0  0  0  0  0  0  0
  151.0504  132.5459  157.9019 H   0  0  0  0  0  0  0  0  0  0  0  0
  152.6241  132.4124  157.1572 H   0  0  0  0  0  0  0  0  0  0  0  0
  151.6619  132.9410  154.9383 H   0  0  0  0  0  0  0  0  0  0  0  0
  150.8847  134.9421  157.1224 H   0  0  0  0  0  0  0  0  0  0  0  0
  152.4329  134.8524  156.2915 H   0  0  0  0  0  0  0  0  0  0  0  0
  153.2012  138.7642  153.3067 H   0  0  0  0  0  0  0  0  0  0  0  0
  149.1648  139.3150  158.2926 H   0  0  0  0  0  0  0  0  0  0  0  0
  151.2854  141.7567  156.1957 H   0  0  0  0  0  0  0  0  0  0  0  0
  149.7726  141.7580  157.0735 H   0  0  0  0  0  0  0  0  0  0  0  0
  150.9449  141.1877  159.1921 H   0  0  0  0  0  0  0  0  0  0  0  0
  153.3040  141.2371  159.0275 H   0  0  0  0  0  0  0  0  0  0  0  0
  152.4164  143.4831  157.7816 H   0  0  0  0  0  0  0  0  0  0  0  0
  151.9456  142.7879  160.7141 H   0  0  0  0  0  0  0  0  0  0  0  0
  153.4568  143.3131  159.9731 H   0  0  0  0  0  0  0  0  0  0  0  0
  151.5406  144.9916  161.1887 H   0  0  0  0  0  0  0  0  0  0  0  0
  152.7503  145.5694  160.0423 H   0  0  0  0  0  0  0  0  0  0  0  0
  149.9435  145.5543  159.5389 H   0  0  0  0  0  0  0  0  0  0  0  0
  151.2128  145.7387  158.3241 H   0  0  0  0  0  0  0  0  0  0  0  0
  148.8505  135.6054  155.7378 H   0  0  0  0  0  0  0  0  0  0  0  0
  149.0470  135.8943  154.0257 H   0  0  0  0  0  0  0  0  0  0  0  0
  150.3927  133.9964  152.7589 H   0  0  0  0  0  0  0  0  0  0  0  0
  150.0735  132.3395  153.2647 H   0  0  0  0  0  0  0  0  0  0  0  0
  148.0758  134.2489  152.0007 H   0  0  0  0  0  0  0  0  0  0  0  0
  148.4667  132.5927  151.5058 H   0  0  0  0  0  0  0  0  0  0  0  0
  147.2741  132.9342  155.3624 H   0  0  0  0  0  0  0  0  0  0  0  0
  147.0546  134.4281  154.4597 H   0  0  0  0  0  0  0  0  0  0  0  0
  1  2  1  0  0  0  0
  1 30  1  0  0  0  0
  1 31  1  0  0  0  0
  1 32  1  0  0  0  0
  2  3  1  0  0  0  0
  2 33  1  0  0  0  0
  2 34  1  0  0  0  0
  3 29  1  0  0  0  0
  3  4  1  0  0  0  0
  3 35  1  0  0  0  0
  4  5  1  0  0  0  0
  4 36  1  0  0  0  0
  4 37  1  0  0  0  0
  5  6  1  0  0  0  0
  5 23  1  0  0  0  0
  6 11  1  0  0  0  0
  6  7  2  0  0  0  0
  7  8  1  0  0  0  0
  8  9  2  0  0  0  0
  8 38  1  0  0  0  0
  9 10  1  0  0  0  0
 10 14  1  0  0  0  0
 10 11  2  0  0  0  0
 11 12  1  0  0  0  0
 12 13  2  0  0  0  0
 13 14  1  0  0  0  0
 13 39  1  0  0  0  0
 14 15  1  0  0  0  0
 15 16  1  0  0  0  0
 15 40  1  0  0  0  0
 15 41  1  0  0  0  0
 16 17  1  0  0  0  0
 16 18  1  0  0  0  0
 16 42  1  0  0  0  0
 17 43  1  0  0  0  0
 18 22  1  0  0  0  0
 18 19  1  0  0  0  0
 18 44  1  0  0  0  0
 19 20  1  0  0  0  0
 19 45  1  0  0  0  0
 19 46  1  0  0  0  0
 20 21  1  0  0  0  0
 20 47  1  0  0  0  0
 20 48  1  0  0  0  0
 21 22  1  0  0  0  0
 21 49  1  0  0  0  0
 21 50  1  0  0  0  0
 23 24  1  0  0  0  0
 23 51  1  0  0  0  0
 23 52  1  0  0  0  0
 24 28  1  0  0  0  0
 24 25  1  0  0  0  0
 24 29  1  0  0  0  0
 25 26  1  0  0  0  0
 25 53  1  0  0  0  0
 25 54  1  0  0  0  0
 26 27  1  0  0  0  0
 26 55  1  0  0  0  0
 26 56  1  0  0  0  0
 27 28  1  0  0  0  0
 28 57  1  0  0  0  0
 28 58  1  0  0  0  0
M  END
> <s_m_source_file>
AV-unprocessed.smi

> <i_m_source_file_index>
229

> <i_lp_mmshare_version>
43012

> <i_f3d_flags>
0

> <s_epik_input>
W0NIMl0xT1tDSDJdW0NIMl1bQ0BdMTJbQ0gyXU4oW0NIMl1bQ0BIXShPMilbQ0gyXVtDSDNdKWMobltjSF1uMyljKGMzNCluW2NIXW40W0NIMl1bQ0BIXShbT0hdKVtDQEBIXTVbQ0gyXVtDSDJdW0NIMl1PNQ==

> <s_epik_cmdline>
J2VwaWtfcHl0aG9uJywgJy1waCcsICc3LjAnLCAnLXRuJywgJzgnLCAnLW1hJywgJzIwMCcsICctbWV0YWxfYmluZGluZycsICctaW1hZScsICc8aW5maWxlLm1hZT4nLCAnLW9tYWUnLCAnPG91dGZpbGUubWFlPic=

> <r_lp_tautomer_probability>
1

> <r_epik_Ionization_Penalty>
0.00318402

> <r_epik_Ionization_Penalty_Charging>
0

> <r_epik_Ionization_Penalty_Neutral>
0.00318402

> <r_epik_State_Penalty>
0.00215642

> <r_epik_Charging_Adjusted_Penalty>
0.00215642

> <i_epik_Tot_Q>
0

> <i_epik_Tot_abs_Q>
0

> <r_epik_Metal_State_Penalty>
-0

> <b_epik_Metal_Only>
0

> <s_lp_Force_Field>
OPLS_2005

> <r_lp_Energy>
53.2063

> <b_lp_Chiralities_Consistent>
1

> <s_lp_Variant>
AV-unprocessed.smi:229-11

> <Gold.Version>
5.8.1

> <Gold.Id.Protein>
6NUR|6NUR_protein|mol2

> <Gold.PLP.Fitness>
48.0481

> <Gold.PLP.PLP>
-42.2731

> <Gold.PLP.part.hbond>
-2.7317

> <Gold.PLP.part.metal>
0.0000

> <Gold.PLP.part.buried>
-5.6924

> <Gold.PLP.part.nonpolar>
-34.3260

> <Gold.PLP.part.repulsive>
1.2442

> <Gold.PLP.ligand.clash>
0.0000

> <Gold.PLP.ligand.torsion>
0.3280

> <Gold.PLP.Chemscore.Hbond>
2.0238

> <Gold.PLP.Chemscore.CHOScore>
0.0000

> <Gold.PLP.Chemscore.Metal>
0.0000

> <Gold.Chemscore.Hbonds>
donor molecule, donor type, donor heavy atom, donor atom, acceptor molecule, acceptor atom, score
      P1  H  7989  7998       L1     9  0.82
      P1  H  7997  8010       L1    17  0.05
      P1  H 10752 10764       L1     7  0.40

> <Gold.PLP.Chemscore.Internal.Correction>
0.3596

> <Gold.Rescore>
     Score         DG    S(hbond)    S(metal)    S(lipo)     H(rot)  DE(clash)    DE(int)     intcor
     13.99     -14.43       1.05        0.00     100.18       2.46       0.05       0.39       ----

> <Gold.Chemscore.Fitness>
13.9883

> <Gold.Chemscore.DG>
-14.4289

> <Gold.Chemscore.ZeroCoef>
-5.4800

> <Gold.Chemscore.Hbond>
1.0548

> <Gold.Chemscore.Metal>
0.0000

> <Gold.Chemscore.Lipo>
100.1798

> <Gold.Chemscore.Internal_Hbond>
0.0000

> <Gold.Chemscore.DEClash>
0.0534

> <Gold.Chemscore.DEInternal>
0.3872

> <Gold.Chemscore.Rot>
2.4591

> <Gold.Chemscore.Internal.Correction>
   9.000000E+99

> <Gold.Chemscore.Hbonds>
donor molecule, donor type, donor heavy atom, donor atom, acceptor molecule, acceptor atom, score
      P1  H  7989  7998       L1     9  0.18
      P1  H  7997  8010       L1    17  0.01
      P1  H 10752 10764       L1     7  0.01

> <Gold.Chemscore.Hbond.Weighted>
-3.5231

> <Gold.Chemscore.Metal.Weighted>
-0.0000

> <Gold.Chemscore.Lipo.Weighted>
-11.7210

> <Gold.Chemscore.Internal_Hbond.Weighted>
0.0000

> <Gold.Chemscore.DEClash.Weighted>
0.0534

> <Gold.Chemscore.DEInternal.Weighted>
0.3872

> <Gold.Chemscore.Rot.Weighted>
6.2953

> <Gold.Chemscore.Internal.Correction.Weighted>
   9.000000E+99

> <Gold.Protein.RotatedTorsions>
[ 6907 6896 6895 6894 ] final  133.05 input  -60.11 | X-H torsion
[ 7974 7965 7964 7962 ] final  106.06 input  175.53 | X-H torsion
[ 8008 7997 7996 7995 ] final   34.81 input   59.86 | X-H torsion
[ 10167 10162 10161 10158 ] final  152.30 input  -65.29 | X-H torsion
[ 10718 10713 10712 10709 ] final  -71.48 input   66.30 | X-H torsion
[ 10763 10752 10751 10750 ] final  -75.85 input  -60.55 | X-H torsion
[ 11005 11000 10999 10996 ] final  -28.05 input  -57.11 | X-H torsion

> <Gold.Protein.ActiveResidues>
 VAL166  LYS551  ARG553  GLY616  TRP617  ASP618  TYR619  PRO620  LYS621  CYS622 
 ASP623  PHE694  ASN695  SER759  ASP760  ASP761  ALA762  ILE779  LEU786  VAL792 
 PHE793  MET794  SER795  GLU796  ALA797  LYS798  CYS799  TRP800  GLU811  SER814 

> <Gold.Protein.RotatedAtoms>
  152.3260  133.5906  159.5776 H   0  0  0  0  0  0  0  0  0  0  0  0  # atno 6907 bound_to 6896
  150.7397  133.9939  159.3625 H   0  0  0  0  0  0  0  0  0  0  0  0  # atno 6908 bound_to 6896
  151.7819  135.0760  160.0426 H   0  0  0  0  0  0  0  0  0  0  0  0  # atno 6909 bound_to 6896
  145.3116  139.2538  143.3760 H   0  0  0  0  0  0  0  0  0  0  0  0  # atno 7974 bound_to 7965
  155.1608  140.3283  155.4412 H   0  0  0  0  0  0  0  0  0  0  0  0  # atno 8008 bound_to 7997
  156.2543  140.1960  156.6666 H   0  0  0  0  0  0  0  0  0  0  0  0  # atno 8009 bound_to 7997
  154.6406  140.0571  156.9827 H   0  0  0  0  0  0  0  0  0  0  0  0  # atno 8010 bound_to 7997
  139.4834  144.5369  151.7629 H   0  0  0  0  0  0  0  0  0  0  0  0  # atno 10167 bound_to 10162
  156.0361  130.4352  150.2451 H   0  0  0  0  0  0  0  0  0  0  0  0  # atno 10718 bound_to 10713
  154.4921  135.5817  153.6467 H   0  0  0  0  0  0  0  0  0  0  0  0  # atno 10763 bound_to 10752
  152.9864  135.6115  154.3112 H   0  0  0  0  0  0  0  0  0  0  0  0  # atno 10764 bound_to 10752
  154.3012  135.2846  155.2589 H   0  0  0  0  0  0  0  0  0  0  0  0  # atno 10765 bound_to 10752
  140.9174  133.7421  156.0754 H   0  0  0  0  0  0  0  0  0  0  0  0  # atno 11005 bound_to 11000
  146.3116  140.3653  142.8669 LP  0  0  0  0  0  0  0  0  0  0  0  0  # atno 17320 bound_to 7965
  144.9011  140.7644  143.5866 LP  0  0  0  0  0  0  0  0  0  0  0  0  # atno 17321 bound_to 7965
  140.4903  144.1320  150.5949 LP  0  0  0  0  0  0  0  0  0  0  0  0  # atno 17342 bound_to 10162
  140.4178  143.2626  151.9753 LP  0  0  0  0  0  0  0  0  0  0  0  0  # atno 17343 bound_to 10162
  157.0550  131.0073  151.3241 LP  0  0  0  0  0  0  0  0  0  0  0  0  # atno 17370 bound_to 10713
  157.5113  130.7940  149.7708 LP  0  0  0  0  0  0  0  0  0  0  0  0  # atno 17371 bound_to 10713
  140.8032  134.3485  157.5433 LP  0  0  0  0  0  0  0  0  0  0  0  0  # atno 17394 bound_to 11000
  139.8769  134.9210  156.3265 LP  0  0  0  0  0  0  0  0  0  0  0  0  # atno 17395 bound_to 11000

$$$$
