AV-unprocessed.smi:174|AV-procd|sdf|1428|dock4
  -GOLD-   2262019203D 1   1.00000     0.00000
 Structure written by MMmdl.
 51 54  0  0  0  0  0  0  0  0  1 V2000
  145.0100  135.8736  149.8095 N   0  0  0  0  0  0  0  0  0  0  0  0
  144.7081  135.1482  150.8885 C   0  0  0  0  0  0  0  0  0  0  0  0
  144.9932  133.9545  150.9729 O   0  0  0  0  0  0  0  0  0  0  0  0
  143.9996  135.8861  152.0337 C   0  0  0  0  0  0  0  0  0  0  0  0
  144.9282  136.5454  152.9642 N   0  0  0  0  0  0  0  0  0  0  0  0
  145.7156  137.6547  152.4187 C   0  0  0  0  0  0  0  0  0  0  0  0
  147.1003  137.7505  153.0665 C   0  0  0  0  0  0  0  0  0  0  0  0
  146.9755  137.7965  154.5180 N   0  0  0  0  0  0  0  0  0  0  0  0
  147.9928  138.2974  155.2738 C   0  0  0  0  0  0  0  0  0  0  0  0
  148.4924  137.5058  156.2605 N   0  0  0  0  0  0  0  0  0  0  0  0
  149.4850  137.9328  157.0449 C   0  0  0  0  0  0  0  0  0  0  0  0
  150.1234  139.1024  157.0179 N   0  0  0  0  0  0  0  0  0  0  0  0
  149.6402  139.9039  156.0272 C   0  0  0  0  0  0  0  0  0  0  0  0
  148.5875  139.5883  155.1181 C   0  0  0  0  0  0  0  0  0  0  0  0
  148.3952  140.6599  154.2503 N   0  0  0  0  0  0  0  0  0  0  0  0
  149.2682  141.5520  154.6289 C   0  0  0  0  0  0  0  0  0  0  0  0
  150.0573  141.1796  155.6909 N   0  0  0  0  0  0  0  0  0  0  0  0
  151.1045  141.9723  156.3104 C   0  0  0  0  0  0  0  0  0  0  0  0
  150.8809  142.1478  157.8272 C   0  0  1  0  0  0  0  0  0  0  0  0
  151.0295  140.9084  158.4912 O   0  0  0  0  0  0  0  0  0  0  0  0
  151.8010  143.1910  158.4944 C   0  0  1  0  0  0  0  0  0  0  0  0
  151.8595  144.5760  157.8429 C   0  0  0  0  0  0  0  0  0  0  0  0
  152.3170  145.4302  159.0031 C   0  0  0  0  0  0  0  0  0  0  0  0
  151.5536  144.8046  160.1671 C   0  0  0  0  0  0  0  0  0  0  0  0
  151.4118  143.4229  159.8464 O   0  0  0  0  0  0  0  0  0  0  0  0
  146.0375  136.8770  155.1831 C   0  0  0  0  0  0  0  0  0  0  0  0
  145.0218  136.1722  154.2636 C   0  0  0  0  0  0  0  0  0  0  0  0
  144.3327  135.2730  154.7460 O   0  0  0  0  0  0  0  0  0  0  0  0
  145.4743  135.4366  149.0266 H   0  0  0  0  0  0  0  0  0  0  0  0
  144.7720  136.8541  149.7774 H   0  0  0  0  0  0  0  0  0  0  0  0
  143.3242  136.6249  151.6000 H   0  0  0  0  0  0  0  0  0  0  0  0
  143.3570  135.1863  152.5711 H   0  0  0  0  0  0  0  0  0  0  0  0
  145.8339  137.5457  151.3398 H   0  0  0  0  0  0  0  0  0  0  0  0
  145.1624  138.5806  152.5819 H   0  0  0  0  0  0  0  0  0  0  0  0
  147.7100  136.8917  152.7813 H   0  0  0  0  0  0  0  0  0  0  0  0
  147.5926  138.6487  152.6925 H   0  0  0  0  0  0  0  0  0  0  0  0
  149.8143  137.2372  157.8027 H   0  0  0  0  0  0  0  0  0  0  0  0
  149.3619  142.5113  154.1408 H   0  0  0  0  0  0  0  0  0  0  0  0
  152.0628  141.4965  156.1031 H   0  0  0  0  0  0  0  0  0  0  0  0
  151.1266  142.9448  155.8176 H   0  0  0  0  0  0  0  0  0  0  0  0
  149.8506  142.4686  157.9866 H   0  0  0  0  0  0  0  0  0  0  0  0
  150.3594  140.3194  158.1794 H   0  0  0  0  0  0  0  0  0  0  0  0
  152.8161  142.7917  158.5346 H   0  0  0  0  0  0  0  0  0  0  0  0
  152.5369  144.6151  156.9896 H   0  0  0  0  0  0  0  0  0  0  0  0
  150.8772  144.9117  157.5132 H   0  0  0  0  0  0  0  0  0  0  0  0
  153.3915  145.3163  159.1523 H   0  0  0  0  0  0  0  0  0  0  0  0
  152.0995  146.4902  158.8696 H   0  0  0  0  0  0  0  0  0  0  0  0
  152.0626  144.9432  161.1211 H   0  0  0  0  0  0  0  0  0  0  0  0
  150.5583  145.2431  160.2475 H   0  0  0  0  0  0  0  0  0  0  0  0
  146.6047  136.1112  155.7149 H   0  0  0  0  0  0  0  0  0  0  0  0
  145.4627  137.4258  155.9304 H   0  0  0  0  0  0  0  0  0  0  0  0
  1  2  1  0  0  0  0
  1 29  1  0  0  0  0
  1 30  1  0  0  0  0
  2  3  2  0  0  0  0
  2  4  1  0  0  0  0
  4  5  1  0  0  0  0
  4 31  1  0  0  0  0
  4 32  1  0  0  0  0
  5 27  1  0  0  0  0
  5  6  1  0  0  0  0
  6  7  1  0  0  0  0
  6 33  1  0  0  0  0
  6 34  1  0  0  0  0
  7  8  1  0  0  0  0
  7 35  1  0  0  0  0
  7 36  1  0  0  0  0
  8  9  1  0  0  0  0
  8 26  1  0  0  0  0
  9 14  1  0  0  0  0
  9 10  2  0  0  0  0
 10 11  1  0  0  0  0
 11 12  2  0  0  0  0
 11 37  1  0  0  0  0
 12 13  1  0  0  0  0
 13 17  1  0  0  0  0
 13 14  2  0  0  0  0
 14 15  1  0  0  0  0
 15 16  2  0  0  0  0
 16 17  1  0  0  0  0
 16 38  1  0  0  0  0
 17 18  1  0  0  0  0
 18 19  1  0  0  0  0
 18 39  1  0  0  0  0
 18 40  1  0  0  0  0
 19 20  1  0  0  0  0
 19 21  1  0  0  0  0
 19 41  1  0  0  0  0
 20 42  1  0  0  0  0
 21 25  1  0  0  0  0
 21 22  1  0  0  0  0
 21 43  1  0  0  0  0
 22 23  1  0  0  0  0
 22 44  1  0  0  0  0
 22 45  1  0  0  0  0
 23 24  1  0  0  0  0
 23 46  1  0  0  0  0
 23 47  1  0  0  0  0
 24 25  1  0  0  0  0
 24 48  1  0  0  0  0
 24 49  1  0  0  0  0
 26 27  1  0  0  0  0
 26 50  1  0  0  0  0
 26 51  1  0  0  0  0
 27 28  2  0  0  0  0
M  END
> <s_m_source_file>
AV-unprocessed.smi

> <i_m_source_file_index>
174

> <i_lp_mmshare_version>
43012

> <i_f3d_flags>
0

> <s_epik_input>
W05IMl1DKD1PKVtDSDJdTjFbQ0gyXVtDSDJdTihbQ0gyXUMxPU8pYyhuW2NIXW4yKWMoYzIzKW5bY0hdbjNbQ0gyXVtDQEhdKFtPSF0pW0NAQEhdNFtDSDJdW0NIMl1bQ0gyXU80

> <s_epik_cmdline>
J2VwaWtfcHl0aG9uJywgJy1waCcsICc3LjAnLCAnLXRuJywgJzgnLCAnLW1hJywgJzIwMCcsICctbWV0YWxfYmluZGluZycsICctaW1hZScsICc8aW5maWxlLm1hZT4nLCAnLW9tYWUnLCAnPG91dGZpbGUubWFlPic=

> <r_lp_tautomer_probability>
1

> <r_epik_Ionization_Penalty>
0.000250477

> <r_epik_Ionization_Penalty_Charging>
0

> <r_epik_Ionization_Penalty_Neutral>
0.000250477

> <r_epik_State_Penalty>
-0

> <r_epik_Charging_Adjusted_Penalty>
0

> <i_epik_Tot_Q>
0

> <i_epik_Tot_abs_Q>
0

> <r_epik_Metal_State_Penalty>
-0

> <b_epik_Metal_Only>
0

> <s_lp_Force_Field>
OPLS_2005

> <r_lp_Energy>
38.9575

> <b_lp_Chiralities_Consistent>
1

> <s_lp_Variant>
AV-unprocessed.smi:174-4

> <Gold.Version>
5.8.1

> <Gold.Id.Protein>
6NUR|6NUR_protein|mol2

> <Gold.PLP.Fitness>
45.3187

> <Gold.PLP.PLP>
-38.5591

> <Gold.PLP.part.hbond>
-2.0000

> <Gold.PLP.part.metal>
0.0000

> <Gold.PLP.part.buried>
-3.2361

> <Gold.PLP.part.nonpolar>
-33.6008

> <Gold.PLP.part.repulsive>
1.2962

> <Gold.PLP.ligand.clash>
0.0000

> <Gold.PLP.ligand.torsion>
1.2103

> <Gold.PLP.Chemscore.Hbond>
2.0000

> <Gold.PLP.Chemscore.CHOScore>
0.9537

> <Gold.PLP.Chemscore.Metal>
0.0000

> <Gold.Chemscore.Hbonds>
donor molecule, donor type, donor heavy atom, donor atom, acceptor molecule, acceptor atom, score
      L1  H     1    29       P1  7921  1.00
      L1  H     1    30       P1 10171  1.00
      L1  C    16    38       P1  8028  0.44

> <Gold.PLP.Chemscore.Internal.Correction>
0.3191

> <Gold.Rescore>
     Score         DG    S(hbond)    S(metal)    S(lipo)     H(rot)  DE(clash)    DE(int)     intcor
     10.02     -13.25       2.00        0.00      85.04       3.46       1.64       1.58       ----

> <Gold.Chemscore.Fitness>
10.0236

> <Gold.Chemscore.DG>
-13.2477

> <Gold.Chemscore.ZeroCoef>
-5.4800

> <Gold.Chemscore.Hbond>
1.9981

> <Gold.Chemscore.Metal>
0.0000

> <Gold.Chemscore.Lipo>
85.0377

> <Gold.Chemscore.Internal_Hbond>
0.0000

> <Gold.Chemscore.DEClash>
1.6411

> <Gold.Chemscore.DEInternal>
1.5830

> <Gold.Chemscore.Rot>
3.4591

> <Gold.Chemscore.Internal.Correction>
   9.000000E+99

> <Gold.Chemscore.Hbonds>
donor molecule, donor type, donor heavy atom, donor atom, acceptor molecule, acceptor atom, score
      L1  H     1    29       P1  7921  1.00
      L1  H     1    30       P1 10171  0.99

> <Gold.Chemscore.Hbond.Weighted>
-6.6736

> <Gold.Chemscore.Metal.Weighted>
-0.0000

> <Gold.Chemscore.Lipo.Weighted>
-9.9494

> <Gold.Chemscore.Internal_Hbond.Weighted>
0.0000

> <Gold.Chemscore.DEClash.Weighted>
1.6411

> <Gold.Chemscore.DEInternal.Weighted>
1.5830

> <Gold.Chemscore.Rot.Weighted>
8.8553

> <Gold.Chemscore.Internal.Correction.Weighted>
   9.000000E+99

> <Gold.Protein.RotatedTorsions>
[ 6907 6896 6895 6894 ] final   57.97 input  -60.11 | X-H torsion
[ 7974 7965 7964 7962 ] final -176.49 input  175.53 | X-H torsion
[ 8008 7997 7996 7995 ] final  113.84 input   59.86 | X-H torsion
[ 10167 10162 10161 10158 ] final  126.57 input  -65.29 | X-H torsion
[ 10718 10713 10712 10709 ] final   43.89 input   66.30 | X-H torsion
[ 10763 10752 10751 10750 ] final    8.08 input  -60.55 | X-H torsion
[ 11005 11000 10999 10996 ] final   55.80 input  -57.11 | X-H torsion

> <Gold.Protein.ActiveResidues>
 VAL166  LYS551  ARG553  GLY616  TRP617  ASP618  TYR619  PRO620  LYS621  CYS622 
 ASP623  PHE694  ASN695  SER759  ASP760  ASP761  ALA762  ILE779  LEU786  VAL792 
 PHE793  MET794  SER795  GLU796  ALA797  LYS798  CYS799  TRP800  GLU811  SER814 

> <Gold.Protein.RotatedAtoms>
  152.3781  134.6632  160.0152 H   0  0  0  0  0  0  0  0  0  0  0  0  # atno 6907 bound_to 6896
  151.6904  133.3305  159.3249 H   0  0  0  0  0  0  0  0  0  0  0  0  # atno 6908 bound_to 6896
  150.7726  134.6639  159.6399 H   0  0  0  0  0  0  0  0  0  0  0  0  # atno 6909 bound_to 6896
  144.7127  140.1163  143.6408 H   0  0  0  0  0  0  0  0  0  0  0  0  # atno 7974 bound_to 7965
  156.2284  140.2971  156.0125 H   0  0  0  0  0  0  0  0  0  0  0  0  # atno 8008 bound_to 7997
  155.2294  140.0418  157.2977 H   0  0  0  0  0  0  0  0  0  0  0  0  # atno 8009 bound_to 7997
  154.5953  140.2412  155.7872 H   0  0  0  0  0  0  0  0  0  0  0  0  # atno 8010 bound_to 7997
  139.5624  144.6890  151.4005 H   0  0  0  0  0  0  0  0  0  0  0  0  # atno 10167 bound_to 10162
  157.4209  130.7968  149.7514 H   0  0  0  0  0  0  0  0  0  0  0  0  # atno 10718 bound_to 10713
  153.2291  135.6890  153.7911 H   0  0  0  0  0  0  0  0  0  0  0  0  # atno 10763 bound_to 10752
  153.7082  135.3286  155.3241 H   0  0  0  0  0  0  0  0  0  0  0  0  # atno 10764 bound_to 10752
  154.8305  135.4584  154.1169 H   0  0  0  0  0  0  0  0  0  0  0  0  # atno 10765 bound_to 10752
  140.0579  134.5644  155.9187 H   0  0  0  0  0  0  0  0  0  0  0  0  # atno 11005 bound_to 11000
  145.9411  139.2669  143.1268 LP  0  0  0  0  0  0  0  0  0  0  0  0  # atno 17320 bound_to 7965
  145.9423  140.8970  143.0301 LP  0  0  0  0  0  0  0  0  0  0  0  0  # atno 17321 bound_to 7965
  140.6905  143.7872  150.7248 LP  0  0  0  0  0  0  0  0  0  0  0  0  # atno 17342 bound_to 10162
  140.1353  143.4489  152.2228 LP  0  0  0  0  0  0  0  0  0  0  0  0  # atno 17343 bound_to 10162
  155.9880  130.3962  150.3138 LP  0  0  0  0  0  0  0  0  0  0  0  0  # atno 17370 bound_to 10713
  157.1285  131.0265  151.2979 LP  0  0  0  0  0  0  0  0  0  0  0  0  # atno 17371 bound_to 10713
  141.1960  133.6589  156.5670 LP  0  0  0  0  0  0  0  0  0  0  0  0  # atno 17394 bound_to 11000
  140.3816  134.7518  157.4665 LP  0  0  0  0  0  0  0  0  0  0  0  0  # atno 17395 bound_to 11000

$$$$
