AV-unprocessed.smi:244|AV-procd|sdf|1865|dock5
  -GOLD-   2262020503D 1   1.00000     0.00000
 Structure written by MMmdl.
 57 61  0  0  0  0  0  0  0  0  2 V2000
  146.8642  139.0413  152.2062 C   0  0  0  0  0  0  0  0  0  0  0  0
  146.7103  137.6896  152.7924 N   0  3  2  0  0  0  0  0  0  0  0  0
  145.3825  137.0758  152.5312 C   0  0  0  0  0  0  0  0  0  0  0  0
  144.2832  137.6645  153.4346 C   0  0  0  0  0  0  0  0  0  0  0  0
  144.6793  137.5444  154.9112 C   0  0  2  0  0  0  0  0  0  0  0  0
  143.6779  138.1454  155.7244 O   0  0  0  0  0  0  0  0  0  0  0  0
  143.9662  137.9960  157.1107 C   0  0  0  0  0  0  0  0  0  0  0  0
  145.3016  138.6865  157.4300 C   0  0  0  0  0  0  0  0  0  0  0  0
  146.3660  138.1565  156.5805 N   0  0  0  0  0  0  0  0  0  0  0  0
  147.5901  138.6292  156.9093 C   0  0  0  0  0  0  0  0  0  0  0  0
  148.3519  137.9776  157.8271 N   0  0  0  0  0  0  0  0  0  0  0  0
  149.5518  138.4626  158.1616 C   0  0  0  0  0  0  0  0  0  0  0  0
  150.1615  139.5635  157.7157 N   0  0  0  0  0  0  0  0  0  0  0  0
  149.3937  140.2205  156.7993 C   0  0  0  0  0  0  0  0  0  0  0  0
  148.1047  139.8260  156.3463 C   0  0  0  0  0  0  0  0  0  0  0  0
  147.6173  140.7445  155.4262 N   0  0  0  0  0  0  0  0  0  0  0  0
  148.5693  141.6330  155.3355 C   0  0  0  0  0  0  0  0  0  0  0  0
  149.6769  141.3914  156.1183 N   0  0  0  0  0  0  0  0  0  0  0  0
  150.8761  142.2104  156.2091 C   0  0  0  0  0  0  0  0  0  0  0  0
  151.0279  142.9596  157.5568 C   0  0  0  0  0  0  0  0  0  0  0  0
  149.7391  143.3870  157.9620 O   0  0  0  0  0  0  0  0  0  0  0  0
  151.6180  142.0670  158.6708 C   0  0  0  0  0  0  0  0  0  0  0  0
  151.9633  142.8712  159.9366 C   0  0  0  0  0  0  0  0  0  0  0  0
  152.8365  143.9456  159.6112 O   0  0  0  0  0  0  0  0  0  0  0  0
  152.2434  144.8842  158.7223 C   0  0  0  0  0  0  0  0  0  0  0  0
  151.9194  144.2051  157.3796 C   0  0  0  0  0  0  0  0  0  0  0  0
  146.0350  138.2422  155.1557 C   0  0  1  0  0  0  0  0  0  0  0  0
  147.1046  137.6152  154.2237 C   0  0  0  0  0  0  0  0  0  0  0  0
  146.1894  139.7636  152.6651 H   0  0  0  0  0  0  0  0  0  0  0  0
  146.6588  139.0192  151.1356 H   0  0  0  0  0  0  0  0  0  0  0  0
  147.8852  139.4013  152.3374 H   0  0  0  0  0  0  0  0  0  0  0  0
  145.1167  137.1902  151.4797 H   0  0  0  0  0  0  0  0  0  0  0  0
  145.4616  136.0029  152.7117 H   0  0  0  0  0  0  0  0  0  0  0  0
  144.1047  138.7097  153.1801 H   0  0  0  0  0  0  0  0  0  0  0  0
  143.3427  137.1414  153.2594 H   0  0  0  0  0  0  0  0  0  0  0  0
  144.7544  136.4851  155.1668 H   0  0  0  0  0  0  0  0  0  0  0  0
  143.1614  138.4457  157.6922 H   0  0  0  0  0  0  0  0  0  0  0  0
  144.0001  136.9386  157.3777 H   0  0  0  0  0  0  0  0  0  0  0  0
  145.1988  139.7612  157.2722 H   0  0  0  0  0  0  0  0  0  0  0  0
  145.5560  138.5373  158.4805 H   0  0  0  0  0  0  0  0  0  0  0  0
  150.1024  137.8877  158.8918 H   0  0  0  0  0  0  0  0  0  0  0  0
  148.4930  142.4924  154.6852 H   0  0  0  0  0  0  0  0  0  0  0  0
  151.7370  141.5610  156.0447 H   0  0  0  0  0  0  0  0  0  0  0  0
  150.8704  142.9197  155.3799 H   0  0  0  0  0  0  0  0  0  0  0  0
  149.3890  143.9601  157.2971 H   0  0  0  0  0  0  0  0  0  0  0  0
  150.9307  141.2608  158.9293 H   0  0  0  0  0  0  0  0  0  0  0  0
  152.5279  141.5900  158.3041 H   0  0  0  0  0  0  0  0  0  0  0  0
  151.0616  143.2527  160.4181 H   0  0  0  0  0  0  0  0  0  0  0  0
  152.4575  142.2256  160.6629 H   0  0  0  0  0  0  0  0  0  0  0  0
  151.3478  145.3143  159.1732 H   0  0  0  0  0  0  0  0  0  0  0  0
  152.9417  145.7062  158.5645 H   0  0  0  0  0  0  0  0  0  0  0  0
  152.8584  143.9122  156.9076 H   0  0  0  0  0  0  0  0  0  0  0  0
  151.4487  144.9197  156.7030 H   0  0  0  0  0  0  0  0  0  0  0  0
  145.9315  139.3004  154.9110 H   0  0  0  0  0  0  0  0  0  0  0  0
  147.2524  136.5667  154.4866 H   0  0  0  0  0  0  0  0  0  0  0  0
  148.0739  138.1010  154.3427 H   0  0  0  0  0  0  0  0  0  0  0  0
  147.3775  137.1167  152.2954 H   0  0  0  0  0  0  0  0  0  0  0  0
  1  2  1  0  0  0  0
  1 29  1  0  0  0  0
  1 30  1  0  0  0  0
  1 31  1  0  0  0  0
  2 28  1  0  0  0  0
  2  3  1  0  0  0  0
  2 57  1  0  0  0  0
  3  4  1  0  0  0  0
  3 32  1  0  0  0  0
  3 33  1  0  0  0  0
  4  5  1  0  0  0  0
  4 34  1  0  0  0  0
  4 35  1  0  0  0  0
  5 27  1  0  0  0  0
  5  6  1  0  0  0  0
  5 36  1  0  0  0  0
  6  7  1  0  0  0  0
  7  8  1  0  0  0  0
  7 37  1  0  0  0  0
  7 38  1  0  0  0  0
  8  9  1  0  0  0  0
  8 39  1  0  0  0  0
  8 40  1  0  0  0  0
  9 10  1  0  0  0  0
  9 27  1  0  0  0  0
 10 15  1  0  0  0  0
 10 11  2  0  0  0  0
 11 12  1  0  0  0  0
 12 13  2  0  0  0  0
 12 41  1  0  0  0  0
 13 14  1  0  0  0  0
 14 18  1  0  0  0  0
 14 15  2  0  0  0  0
 15 16  1  0  0  0  0
 16 17  2  0  0  0  0
 17 18  1  0  0  0  0
 17 42  1  0  0  0  0
 18 19  1  0  0  0  0
 19 20  1  0  0  0  0
 19 43  1  0  0  0  0
 19 44  1  0  0  0  0
 20 26  1  0  0  0  0
 20 21  1  0  0  0  0
 20 22  1  0  0  0  0
 21 45  1  0  0  0  0
 22 23  1  0  0  0  0
 22 46  1  0  0  0  0
 22 47  1  0  0  0  0
 23 24  1  0  0  0  0
 23 48  1  0  0  0  0
 23 49  1  0  0  0  0
 24 25  1  0  0  0  0
 25 26  1  0  0  0  0
 25 50  1  0  0  0  0
 25 51  1  0  0  0  0
 26 52  1  0  0  0  0
 26 53  1  0  0  0  0
 27 28  1  0  0  0  0
 27 54  1  0  0  0  0
 28 55  1  0  0  0  0
 28 56  1  0  0  0  0
M  CHG  1   2   1
M  END
> <s_m_source_file>
AV-unprocessed.smi

> <i_m_source_file_index>
244

> <i_lp_mmshare_version>
43012

> <i_f3d_flags>
0

> <s_epik_input>
W0NIMl0xW0NIMl1OKFtDSDNdKVtDSDJdW0NAQEhdKFtDQEhdMTIpTihbQ0gyXVtDSDJdTzIpYyhuW2NIXW4zKWMoYzM0KW5bY0hdbjRbQ0gyXUM1KFtPSF0pW0NIMl1bQ0gyXU9bQ0gyXVtDSDJdNQ==

> <s_epik_cmdline>
J2VwaWtfcHl0aG9uJywgJy1waCcsICc3LjAnLCAnLXRuJywgJzgnLCAnLW1hJywgJzIwMCcsICctbWV0YWxfYmluZGluZycsICctaW1hZScsICc8aW5maWxlLm1hZT4nLCAnLW9tYWUnLCAnPG91dGZpbGUubWFlPic=

> <r_lp_tautomer_probability>
1

> <r_epik_Ionization_Penalty>
0.0136215

> <r_epik_Ionization_Penalty_Charging>
0.0131385

> <r_epik_Ionization_Penalty_Neutral>
0.000483022

> <r_epik_State_Penalty>
0.0104001

> <r_epik_Charging_Adjusted_Penalty>
0.0235387

> <i_epik_Tot_Q>
1

> <i_epik_Tot_abs_Q>
1

> <r_epik_Metal_State_Penalty>
0.0104469

> <b_epik_Metal_Only>
0

> <s_lp_Force_Field>
OPLS_2005

> <r_lp_Energy>
43.138

> <b_lp_Chiralities_Consistent>
1

> <s_lp_Variant>
AV-unprocessed.smi:244-2

> <Gold.Version>
5.8.1

> <Gold.Id.Protein>
6NUR|6NUR_protein|mol2

> <Gold.PLP.Fitness>
43.5179

> <Gold.PLP.PLP>
-34.0207

> <Gold.PLP.part.hbond>
-2.0000

> <Gold.PLP.part.metal>
0.0000

> <Gold.PLP.part.buried>
-3.7191

> <Gold.PLP.part.nonpolar>
-27.9223

> <Gold.PLP.part.repulsive>
0.1142

> <Gold.PLP.ligand.clash>
0.0000

> <Gold.PLP.ligand.torsion>
1.0838

> <Gold.PLP.Chemscore.Hbond>
3.0000

> <Gold.PLP.Chemscore.CHOScore>
0.8440

> <Gold.PLP.Chemscore.Metal>
0.0000

> <Gold.Chemscore.Hbonds>
donor molecule, donor type, donor heavy atom, donor atom, acceptor molecule, acceptor atom, score
      L1  H     2    57       P1  7948  2.00
      L1  H    21    45       P1  8028  1.00
      L1  C    17    42       P1  8028  0.78

> <Gold.PLP.Chemscore.Internal.Correction>
0.1329

> <Gold.Rescore>
     Score         DG    S(hbond)    S(metal)    S(lipo)     H(rot)  DE(clash)    DE(int)     intcor
     13.58     -15.91       1.73        0.00      85.64       2.09       0.14       2.19       ----

> <Gold.Chemscore.Fitness>
13.5795

> <Gold.Chemscore.DG>
-15.9091

> <Gold.Chemscore.ZeroCoef>
-5.4800

> <Gold.Chemscore.Hbond>
1.7253

> <Gold.Chemscore.Metal>
0.0000

> <Gold.Chemscore.Lipo>
85.6385

> <Gold.Chemscore.Internal_Hbond>
0.0000

> <Gold.Chemscore.DEClash>
0.1386

> <Gold.Chemscore.DEInternal>
2.1909

> <Gold.Chemscore.Rot>
2.0911

> <Gold.Chemscore.Internal.Correction>
   9.000000E+99

> <Gold.Chemscore.Hbonds>
donor molecule, donor type, donor heavy atom, donor atom, acceptor molecule, acceptor atom, score
      L1  H     2    57       P1  7948  1.00
      L1  H    21    45       P1  8028  0.35

> <Gold.Chemscore.Hbond.Weighted>
-5.7625

> <Gold.Chemscore.Metal.Weighted>
-0.0000

> <Gold.Chemscore.Lipo.Weighted>
-10.0197

> <Gold.Chemscore.Internal_Hbond.Weighted>
0.0000

> <Gold.Chemscore.DEClash.Weighted>
0.1386

> <Gold.Chemscore.DEInternal.Weighted>
2.1909

> <Gold.Chemscore.Rot.Weighted>
5.3531

> <Gold.Chemscore.Internal.Correction.Weighted>
   9.000000E+99

> <Gold.Protein.RotatedTorsions>
[ 6907 6896 6895 6894 ] final  146.40 input  -60.11 | X-H torsion
[ 7974 7965 7964 7962 ] final  -67.49 input  175.53 | X-H torsion
[ 8008 7997 7996 7995 ] final   31.84 input   59.86 | X-H torsion
[ 10167 10162 10161 10158 ] final -129.94 input  -65.29 | X-H torsion
[ 10718 10713 10712 10709 ] final  -71.00 input   66.30 | X-H torsion
[ 10763 10752 10751 10750 ] final  -81.36 input  -60.55 | X-H torsion
[ 11005 11000 10999 10996 ] final   78.74 input  -57.11 | X-H torsion

> <Gold.Protein.ActiveResidues>
 VAL166  LYS551  ARG553  GLY616  TRP617  ASP618  TYR619  PRO620  LYS621  CYS622 
 ASP623  PHE694  ASN695  SER759  ASP760  ASP761  ALA762  ILE779  LEU786  VAL792 
 PHE793  MET794  SER795  GLU796  ALA797  LYS798  CYS799  TRP800  GLU811  SER814 

> <Gold.Protein.RotatedAtoms>
  152.1684  133.4627  159.4896 H   0  0  0  0  0  0  0  0  0  0  0  0  # atno 6907 bound_to 6896
  150.6916  134.1984  159.4321 H   0  0  0  0  0  0  0  0  0  0  0  0  # atno 6908 bound_to 6896
  151.9890  134.9989  160.0611 H   0  0  0  0  0  0  0  0  0  0  0  0  # atno 6909 bound_to 6896
  145.7285  140.9007  143.0592 H   0  0  0  0  0  0  0  0  0  0  0  0  # atno 7974 bound_to 7965
  155.1129  140.3240  155.4517 H   0  0  0  0  0  0  0  0  0  0  0  0  # atno 8008 bound_to 7997
  156.2685  140.2041  156.6200 H   0  0  0  0  0  0  0  0  0  0  0  0  # atno 8009 bound_to 7997
  154.6742  140.0533  157.0185 H   0  0  0  0  0  0  0  0  0  0  0  0  # atno 8010 bound_to 7997
  139.9345  143.6234  152.2521 H   0  0  0  0  0  0  0  0  0  0  0  0  # atno 10167 bound_to 10162
  156.0382  130.4342  150.2379 H   0  0  0  0  0  0  0  0  0  0  0  0  # atno 10718 bound_to 10713
  154.5626  135.5629  153.7021 H   0  0  0  0  0  0  0  0  0  0  0  0  # atno 10763 bound_to 10752
  153.0023  135.6277  154.2223 H   0  0  0  0  0  0  0  0  0  0  0  0  # atno 10764 bound_to 10752
  154.2161  135.2871  155.2921 H   0  0  0  0  0  0  0  0  0  0  0  0  # atno 10765 bound_to 10752
  139.9200  134.7787  156.1689 H   0  0  0  0  0  0  0  0  0  0  0  0  # atno 11005 bound_to 11000
  144.6899  139.9299  143.7471 LP  0  0  0  0  0  0  0  0  0  0  0  0  # atno 17320 bound_to 7965
  146.0559  139.3556  143.0611 LP  0  0  0  0  0  0  0  0  0  0  0  0  # atno 17321 bound_to 7965
  139.6755  144.7659  151.1704 LP  0  0  0  0  0  0  0  0  0  0  0  0  # atno 17342 bound_to 10162
  140.7628  143.5801  150.8903 LP  0  0  0  0  0  0  0  0  0  0  0  0  # atno 17343 bound_to 10162
  157.0477  131.0053  151.3264 LP  0  0  0  0  0  0  0  0  0  0  0  0  # atno 17370 bound_to 10713
  157.5163  130.7970  149.7760 LP  0  0  0  0  0  0  0  0  0  0  0  0  # atno 17371 bound_to 10713
  141.0713  133.6796  156.2145 LP  0  0  0  0  0  0  0  0  0  0  0  0  # atno 17394 bound_to 11000
  140.6503  134.5074  157.5577 LP  0  0  0  0  0  0  0  0  0  0  0  0  # atno 17395 bound_to 11000

$$$$
