AV-unprocessed.smi:901|AV-procd|sdf|4092|dock8
  -GOLD-   22720 1583D 1   1.00000     0.00000
 Structure written by MMmdl.
 43 44  0  0  0  0  0  0  0  0  1 V2000
  155.3261  140.9788  160.1190 C   0  0  0  0  0  0  0  0  0  0  0  0
  154.1137  141.8199  160.4655 C   0  0  0  0  0  0  0  0  0  0  0  0
  153.8751  142.0060  161.9536 C   0  0  0  0  0  0  0  0  0  0  0  0
  153.3213  142.3474  159.5126 C   0  0  0  0  0  0  0  0  0  0  0  0
  152.1121  143.1935  159.7325 C   0  0  2  0  0  0  0  0  0  0  0  0
  150.7589  142.9694  159.0617 C   0  0  2  0  0  0  0  0  0  0  0  0
  150.5641  141.8805  158.0536 C   0  0  0  0  0  0  0  0  0  0  0  0
  151.0587  140.7611  158.1791 O   0  0  0  0  0  0  0  0  0  0  0  0
  149.7381  142.2376  157.0543 N   0  0  0  0  0  0  0  0  0  0  0  0
  149.3442  141.4804  155.9218 C   0  0  0  0  0  0  0  0  0  0  0  0
  150.1522  140.5343  155.2229 C   0  0  0  0  0  0  0  0  0  0  0  0
  149.3311  140.1031  154.2205 C   0  0  0  0  0  0  0  0  0  0  0  0
  148.1324  140.7773  154.3450 N   0  0  0  0  0  0  0  0  0  0  0  0
  146.9454  140.6668  153.5140 C   0  0  0  0  0  0  0  0  0  0  0  0
  146.5397  139.2059  153.2934 C   0  0  0  0  0  0  0  0  0  0  0  0
  146.9630  138.6223  152.1693 N   0  0  0  0  0  0  0  0  0  0  0  0
  145.8571  138.6077  154.1233 O   0  0  0  0  0  0  0  0  0  0  0  0
  148.1413  141.6290  155.3941 N   0  0  0  0  0  0  0  0  0  0  0  0
  151.6124  144.1759  158.6880 C   0  0  0  0  0  0  0  0  0  0  0  0
  151.1399  145.5486  159.1329 C   0  0  0  0  0  0  0  0  0  0  0  0
  152.3034  144.2940  157.3312 C   0  0  0  0  0  0  0  0  0  0  0  0
  155.2203  139.9765  160.5342 H   0  0  0  0  0  0  0  0  0  0  0  0
  156.2284  141.4282  160.5337 H   0  0  0  0  0  0  0  0  0  0  0  0
  155.4571  140.8866  159.0404 H   0  0  0  0  0  0  0  0  0  0  0  0
  153.7329  141.0365  162.4317 H   0  0  0  0  0  0  0  0  0  0  0  0
  152.9944  142.6123  162.1634 H   0  0  0  0  0  0  0  0  0  0  0  0
  154.7353  142.4910  162.4151 H   0  0  0  0  0  0  0  0  0  0  0  0
  153.5761  142.1595  158.4801 H   0  0  0  0  0  0  0  0  0  0  0  0
  152.0699  143.5298  160.7671 H   0  0  0  0  0  0  0  0  0  0  0  0
  149.8958  143.1432  159.7020 H   0  0  0  0  0  0  0  0  0  0  0  0
  149.3408  143.1638  157.1140 H   0  0  0  0  0  0  0  0  0  0  0  0
  151.1670  140.2169  155.4097 H   0  0  0  0  0  0  0  0  0  0  0  0
  149.4997  139.3839  153.4326 H   0  0  0  0  0  0  0  0  0  0  0  0
  146.1375  141.2215  153.9932 H   0  0  0  0  0  0  0  0  0  0  0  0
  147.1305  141.1392  152.5478 H   0  0  0  0  0  0  0  0  0  0  0  0
  146.7211  137.6615  151.9756 H   0  0  0  0  0  0  0  0  0  0  0  0
  147.5239  139.1479  151.5143 H   0  0  0  0  0  0  0  0  0  0  0  0
  150.4344  145.9604  158.4106 H   0  0  0  0  0  0  0  0  0  0  0  0
  151.9856  146.2308  159.2241 H   0  0  0  0  0  0  0  0  0  0  0  0
  150.6419  145.4920  160.1014 H   0  0  0  0  0  0  0  0  0  0  0  0
  151.6102  144.6883  156.5877 H   0  0  0  0  0  0  0  0  0  0  0  0
  152.6677  143.3313  156.9729 H   0  0  0  0  0  0  0  0  0  0  0  0
  153.1561  144.9701  157.4000 H   0  0  0  0  0  0  0  0  0  0  0  0
  1  2  1  0  0  0  0
  1 22  1  0  0  0  0
  1 23  1  0  0  0  0
  1 24  1  0  0  0  0
  2  3  1  0  0  0  0
  2  4  2  0  0  0  0
  3 25  1  0  0  0  0
  3 26  1  0  0  0  0
  3 27  1  0  0  0  0
  4  5  1  0  0  0  0
  4 28  1  0  0  0  0
  5 19  1  0  0  0  0
  5  6  1  0  0  0  0
  5 29  1  0  0  0  0
  6  7  1  0  0  0  0
  6 19  1  0  0  0  0
  6 30  1  0  0  0  0
  7  8  2  0  0  0  0
  7  9  1  0  0  0  0
  9 10  1  0  0  0  0
  9 31  1  0  0  0  0
 10 18  2  0  0  0  0
 10 11  1  0  0  0  0
 11 12  2  0  0  0  0
 11 32  1  0  0  0  0
 12 13  1  0  0  0  0
 12 33  1  0  0  0  0
 13 14  1  0  0  0  0
 13 18  1  0  0  0  0
 14 15  1  0  0  0  0
 14 34  1  0  0  0  0
 14 35  1  0  0  0  0
 15 16  1  0  0  0  0
 15 17  2  0  0  0  0
 16 36  1  0  0  0  0
 16 37  1  0  0  0  0
 19 20  1  0  0  0  0
 19 21  1  0  0  0  0
 20 38  1  0  0  0  0
 20 39  1  0  0  0  0
 20 40  1  0  0  0  0
 21 41  1  0  0  0  0
 21 42  1  0  0  0  0
 21 43  1  0  0  0  0
M  END
> <s_m_source_file>
AV-unprocessed.smi

> <i_m_source_file_index>
901

> <i_lp_mmshare_version>
43012

> <i_f3d_flags>
0

> <s_epik_input>
W0NIM11DKFtDSDNdKT1bQ0hdW0NAQEhdKEMxKFtDSDNdKVtDSDNdKVtDQEhdMUMoPU8pW05IXWMyW2NIXVtjSF1uKG4yKVtDSDJdQyg9TylbTkgyXQ==

> <s_epik_cmdline>
J2VwaWtfcHl0aG9uJywgJy1waCcsICc3LjAnLCAnLXRuJywgJzgnLCAnLW1hJywgJzIwMCcsICctbWV0YWxfYmluZGluZycsICctaW1hZScsICc8aW5maWxlLm1hZT4nLCAnLW9tYWUnLCAnPG91dGZpbGUubWFlPic=

> <r_lp_tautomer_probability>
1

> <r_epik_Ionization_Penalty>
1.01454e-05

> <r_epik_Ionization_Penalty_Charging>
0

> <r_epik_Ionization_Penalty_Neutral>
1.01454e-05

> <r_epik_State_Penalty>
-0

> <r_epik_Charging_Adjusted_Penalty>
0

> <i_epik_Tot_Q>
0

> <i_epik_Tot_abs_Q>
0

> <r_epik_Metal_State_Penalty>
-0

> <b_epik_Metal_Only>
0

> <s_lp_Force_Field>
OPLS_2005

> <r_lp_Energy>
21.7989

> <b_lp_Chiralities_Consistent>
1

> <s_lp_Variant>
AV-unprocessed.smi:901-3

> <Gold.Version>
5.8.1

> <Gold.Id.Protein>
6NUR|6NUR_protein|mol2

> <Gold.PLP.Fitness>
51.1400

> <Gold.PLP.PLP>
-46.2593

> <Gold.PLP.part.hbond>
-3.0000

> <Gold.PLP.part.metal>
0.0000

> <Gold.PLP.part.buried>
0.2072

> <Gold.PLP.part.nonpolar>
-43.5205

> <Gold.PLP.part.repulsive>
0.9599

> <Gold.PLP.ligand.clash>
0.0000

> <Gold.PLP.ligand.torsion>
1.3299

> <Gold.PLP.Chemscore.Hbond>
1.6989

> <Gold.PLP.Chemscore.CHOScore>
0.7380

> <Gold.PLP.Chemscore.Metal>
0.0000

> <Gold.Chemscore.Hbonds>
donor molecule, donor type, donor heavy atom, donor atom, acceptor molecule, acceptor atom, score
      L1  H     9    31       P1  8028  0.46
      L1  H    16    37       P1  7957  0.41
      L1  C    12    33       P1  7957  0.84

> <Gold.PLP.Chemscore.Internal.Correction>
0.2298

> <Gold.Rescore>
     Score         DG    S(hbond)    S(metal)    S(lipo)     H(rot)  DE(clash)    DE(int)     intcor
     13.75     -19.30       1.45        0.00     123.27       2.13       2.52       3.03       ----

> <Gold.Chemscore.Fitness>
13.7505

> <Gold.Chemscore.DG>
-19.2966

> <Gold.Chemscore.ZeroCoef>
-5.4800

> <Gold.Chemscore.Hbond>
1.4518

> <Gold.Chemscore.Metal>
0.0000

> <Gold.Chemscore.Lipo>
123.2701

> <Gold.Chemscore.Internal_Hbond>
0.0000

> <Gold.Chemscore.DEClash>
2.5188

> <Gold.Chemscore.DEInternal>
3.0273

> <Gold.Chemscore.Rot>
2.1309

> <Gold.Chemscore.Internal.Correction>
   9.000000E+99

> <Gold.Chemscore.Hbonds>
donor molecule, donor type, donor heavy atom, donor atom, acceptor molecule, acceptor atom, score
      L1  H     9    31       P1  8028  0.42
      L1  H    16    37       P1  7957  0.37

> <Gold.Chemscore.Hbond.Weighted>
-4.8491

> <Gold.Chemscore.Metal.Weighted>
-0.0000

> <Gold.Chemscore.Lipo.Weighted>
-14.4226

> <Gold.Chemscore.Internal_Hbond.Weighted>
0.0000

> <Gold.Chemscore.DEClash.Weighted>
2.5188

> <Gold.Chemscore.DEInternal.Weighted>
3.0273

> <Gold.Chemscore.Rot.Weighted>
5.4552

> <Gold.Chemscore.Internal.Correction.Weighted>
   9.000000E+99

> <Gold.Protein.RotatedTorsions>
[ 6907 6896 6895 6894 ] final -135.08 input  -60.11 | X-H torsion
[ 7974 7965 7964 7962 ] final   49.84 input  175.53 | X-H torsion
[ 8008 7997 7996 7995 ] final   57.46 input   59.86 | X-H torsion
[ 10167 10162 10161 10158 ] final  153.50 input  -65.29 | X-H torsion
[ 10718 10713 10712 10709 ] final  -66.00 input   66.30 | X-H torsion
[ 10763 10752 10751 10750 ] final -103.00 input  -60.55 | X-H torsion
[ 11005 11000 10999 10996 ] final    2.60 input  -57.11 | X-H torsion

> <Gold.Protein.ActiveResidues>
 VAL166  LYS551  ARG553  GLY616  TRP617  ASP618  TYR619  PRO620  LYS621  CYS622 
 ASP623  PHE694  ASN695  SER759  ASP760  ASP761  ALA762  ILE779  LEU786  VAL792 
 PHE793  MET794  SER795  GLU796  ALA797  LYS798  CYS799  TRP800  GLU811  SER814 

> <Gold.Protein.RotatedAtoms>
  150.9935  133.6126  159.2704 H   0  0  0  0  0  0  0  0  0  0  0  0  # atno 6907 bound_to 6896
  151.3338  135.0847  159.9357 H   0  0  0  0  0  0  0  0  0  0  0  0  # atno 6908 bound_to 6896
  152.5253  133.9560  159.7749 H   0  0  0  0  0  0  0  0  0  0  0  0  # atno 6909 bound_to 6896
  146.0069  139.4500  142.9980 H   0  0  0  0  0  0  0  0  0  0  0  0  # atno 7974 bound_to 7965
  155.5341  140.3483  155.4432 H   0  0  0  0  0  0  0  0  0  0  0  0  # atno 8008 bound_to 7997
  156.0697  140.1360  156.9869 H   0  0  0  0  0  0  0  0  0  0  0  0  # atno 8009 bound_to 7997
  154.4522  140.0968  156.6626 H   0  0  0  0  0  0  0  0  0  0  0  0  # atno 8010 bound_to 7997
  139.4827  144.5267  151.7789 H   0  0  0  0  0  0  0  0  0  0  0  0  # atno 10167 bound_to 10162
  156.0637  130.4255  150.1645 H   0  0  0  0  0  0  0  0  0  0  0  0  # atno 10718 bound_to 10713
  154.7776  135.4839  153.9776 H   0  0  0  0  0  0  0  0  0  0  0  0  # atno 10763 bound_to 10752
  153.1449  135.6780  153.8977 H   0  0  0  0  0  0  0  0  0  0  0  0  # atno 10764 bound_to 10752
  153.8640  135.3152  155.3417 H   0  0  0  0  0  0  0  0  0  0  0  0  # atno 10765 bound_to 10752
  140.6025  133.9822  155.8139 H   0  0  0  0  0  0  0  0  0  0  0  0  # atno 11005 bound_to 11000
  145.7401  141.0011  143.1305 LP  0  0  0  0  0  0  0  0  0  0  0  0  # atno 17320 bound_to 7965
  144.6939  139.9089  143.7462 LP  0  0  0  0  0  0  0  0  0  0  0  0  # atno 17321 bound_to 7965
  140.4788  144.1480  150.5929 LP  0  0  0  0  0  0  0  0  0  0  0  0  # atno 17342 bound_to 10162
  140.4301  143.2572  151.9607 LP  0  0  0  0  0  0  0  0  0  0  0  0  # atno 17343 bound_to 10162
  156.9709  130.9834  151.3459 LP  0  0  0  0  0  0  0  0  0  0  0  0  # atno 17370 bound_to 10713
  157.5664  130.8281  149.8333 LP  0  0  0  0  0  0  0  0  0  0  0  0  # atno 17371 bound_to 10713
  141.0862  133.9986  157.3309 LP  0  0  0  0  0  0  0  0  0  0  0  0  # atno 17394 bound_to 11000
  139.9226  135.0201  156.8120 LP  0  0  0  0  0  0  0  0  0  0  0  0  # atno 17395 bound_to 11000

$$$$
