AV-unprocessed.smi:610|AV-procd|sdf|3056|dock9
  -GOLD-   2262023583D 1   1.00000     0.00000
 Structure written by MMmdl.
 38 39  0  0  0  0  0  0  0  0  2 V2000
  151.8875  140.1212  157.9100 C   0  0  0  0  0  0  0  0  0  0  0  0
  150.7300  141.0643  157.5553 C   0  0  1  0  0  0  0  0  0  0  0  0
  151.2503  142.4081  157.0034 C   0  0  0  0  0  0  0  0  0  0  0  0
  151.6067  143.3439  158.0537 N   0  0  0  0  0  0  0  0  0  0  0  0
  151.2643  144.6875  158.1312 C   0  0  0  0  0  0  0  0  0  0  0  0
  151.8287  145.1706  159.2899 C   0  0  0  0  0  0  0  0  0  0  0  0
  152.5107  144.1458  159.9419 N   0  0  0  0  0  0  0  0  0  0  0  0
  152.3277  143.0939  159.1549 C   0  0  0  0  0  0  0  0  0  0  0  0
  149.8625  140.4032  156.5807 N   0  0  0  0  0  0  0  0  0  0  0  0
  150.2311  139.9608  155.3655 C   0  0  0  0  0  0  0  0  0  0  0  0
  151.3747  140.1009  154.9310 O   0  0  0  0  0  0  0  0  0  0  0  0
  149.1620  139.2773  154.4803 C   0  0  0  0  0  0  0  0  0  0  0  0
  149.8623  138.7195  153.3093 N   0  3  0  0  0  0  0  0  0  0  0  0
  148.4101  138.1786  155.2557 C   0  0  0  0  0  0  0  0  0  0  0  0
  147.2791  138.8999  156.0036 C   0  0  0  0  0  0  0  0  0  0  0  0
  147.0423  140.2200  155.2531 C   0  0  0  0  0  0  0  0  0  0  0  0
  147.9973  140.1948  154.0530 C   0  0  0  0  0  0  0  0  0  0  0  0
  152.5433  140.5702  158.6567 H   0  0  0  0  0  0  0  0  0  0  0  0
  152.4930  139.8861  157.0339 H   0  0  0  0  0  0  0  0  0  0  0  0
  151.5170  139.1818  158.3220 H   0  0  0  0  0  0  0  0  0  0  0  0
  150.1790  141.2550  158.4780 H   0  0  0  0  0  0  0  0  0  0  0  0
  152.1381  142.2435  156.3915 H   0  0  0  0  0  0  0  0  0  0  0  0
  150.5056  142.8710  156.3540 H   0  0  0  0  0  0  0  0  0  0  0  0
  150.6702  145.1767  157.3733 H   0  0  0  0  0  0  0  0  0  0  0  0
  151.7947  146.1683  159.7020 H   0  0  0  0  0  0  0  0  0  0  0  0
  152.7374  142.1202  159.3806 H   0  0  0  0  0  0  0  0  0  0  0  0
  148.9046  140.2534  156.8636 H   0  0  0  0  0  0  0  0  0  0  0  0
  150.8193  138.5101  153.5541 H   0  0  0  0  0  0  0  0  0  0  0  0
  149.8452  139.3969  152.5600 H   0  0  0  0  0  0  0  0  0  0  0  0
  147.9720  137.4663  154.5544 H   0  0  0  0  0  0  0  0  0  0  0  0
  149.0403  137.6003  155.9331 H   0  0  0  0  0  0  0  0  0  0  0  0
  146.3783  138.2865  156.0401 H   0  0  0  0  0  0  0  0  0  0  0  0
  147.5740  139.1037  157.0332 H   0  0  0  0  0  0  0  0  0  0  0  0
  146.0043  140.3332  154.9381 H   0  0  0  0  0  0  0  0  0  0  0  0
  147.2787  141.0624  155.9043 H   0  0  0  0  0  0  0  0  0  0  0  0
  148.2966  141.1943  153.7359 H   0  0  0  0  0  0  0  0  0  0  0  0
  147.4776  139.7492  153.2029 H   0  0  0  0  0  0  0  0  0  0  0  0
  149.3959  137.8759  153.0087 H   0  0  0  0  0  0  0  0  0  0  0  0
  1  2  1  0  0  0  0
  1 18  1  0  0  0  0
  1 19  1  0  0  0  0
  1 20  1  0  0  0  0
  2  3  1  0  0  0  0
  2  9  1  0  0  0  0
  2 21  1  0  0  0  0
  3  4  1  0  0  0  0
  3 22  1  0  0  0  0
  3 23  1  0  0  0  0
  4  8  1  0  0  0  0
  4  5  1  0  0  0  0
  5  6  2  0  0  0  0
  5 24  1  0  0  0  0
  6  7  1  0  0  0  0
  6 25  1  0  0  0  0
  7  8  2  0  0  0  0
  8 26  1  0  0  0  0
  9 10  1  0  0  0  0
  9 27  1  0  0  0  0
 10 11  2  0  0  0  0
 10 12  1  0  0  0  0
 12 17  1  0  0  0  0
 12 13  1  0  0  0  0
 12 14  1  0  0  0  0
 13 28  1  0  0  0  0
 13 29  1  0  0  0  0
 13 38  1  0  0  0  0
 14 15  1  0  0  0  0
 14 30  1  0  0  0  0
 14 31  1  0  0  0  0
 15 16  1  0  0  0  0
 15 32  1  0  0  0  0
 15 33  1  0  0  0  0
 16 17  1  0  0  0  0
 16 34  1  0  0  0  0
 16 35  1  0  0  0  0
 17 36  1  0  0  0  0
 17 37  1  0  0  0  0
M  CHG  1  13   1
M  END
> <s_m_source_file>
AV-unprocessed.smi

> <i_m_source_file_index>
610

> <i_lp_mmshare_version>
43012

> <i_f3d_flags>
0

> <s_epik_input>
W2NIXTFuW2NIXVtjSF1uMVtDSDJdW0NAQEhdKFtDSDNdKVtOSF1DKD1PKUMyKFtOSDJdKVtDSDJdW0NIMl1bQ0gyXVtDSDJdMg==

> <s_epik_cmdline>
J2VwaWtfcHl0aG9uJywgJy1waCcsICc3LjAnLCAnLXRuJywgJzgnLCAnLW1hJywgJzIwMCcsICctbWV0YWxfYmluZGluZycsICctaW1hZScsICc8aW5maWxlLm1hZT4nLCAnLW9tYWUnLCAnPG91dGZpbGUubWFlPic=

> <r_lp_tautomer_probability>
1

> <r_epik_Ionization_Penalty>
0.661147

> <r_epik_Ionization_Penalty_Charging>
0.661145

> <r_epik_Ionization_Penalty_Neutral>
1.19451e-06

> <r_epik_State_Penalty>
0.679243

> <r_epik_Charging_Adjusted_Penalty>
1.34039

> <i_epik_Tot_Q>
1

> <i_epik_Tot_abs_Q>
1

> <r_epik_Metal_State_Penalty>
0.372892

> <b_epik_Metal_Only>
0

> <s_lp_Force_Field>
OPLS_2005

> <r_lp_Energy>
24.5235

> <b_lp_Chiralities_Consistent>
1

> <s_lp_Variant>
AV-unprocessed.smi:610-4

> <Gold.Version>
5.8.1

> <Gold.Id.Protein>
6NUR|6NUR_protein|mol2

> <Gold.PLP.Fitness>
45.7327

> <Gold.PLP.PLP>
-31.9342

> <Gold.PLP.part.hbond>
-3.0000

> <Gold.PLP.part.metal>
0.0000

> <Gold.PLP.part.buried>
-4.9248

> <Gold.PLP.part.nonpolar>
-24.0999

> <Gold.PLP.part.repulsive>
0.2058

> <Gold.PLP.ligand.clash>
0.0000

> <Gold.PLP.ligand.torsion>
0.6298

> <Gold.PLP.Chemscore.Hbond>
4.0000

> <Gold.PLP.Chemscore.CHOScore>
1.0000

> <Gold.PLP.Chemscore.Metal>
0.0000

> <Gold.Chemscore.Hbonds>
donor molecule, donor type, donor heavy atom, donor atom, acceptor molecule, acceptor atom, score
      L1  H    13    29       P1  7957  1.00
      L1  H    13    38       P1  7948  2.00
      P1  H  7989  7998       L1    11  1.00
      L1  C     5    24       P1  8028  0.90
      L1  C     5    24       P1  8029  0.01

> <Gold.PLP.Chemscore.Internal.Correction>
0.0581

> <Gold.Rescore>
     Score         DG    S(hbond)    S(metal)    S(lipo)     H(rot)  DE(clash)    DE(int)     intcor
     14.46     -17.16       2.86        0.00      62.00       2.00       0.56       2.13       ----

> <Gold.Chemscore.Fitness>
14.4642

> <Gold.Chemscore.DG>
-17.1627

> <Gold.Chemscore.ZeroCoef>
-5.4800

> <Gold.Chemscore.Hbond>
2.8568

> <Gold.Chemscore.Metal>
0.0000

> <Gold.Chemscore.Lipo>
61.9982

> <Gold.Chemscore.Internal_Hbond>
0.0000

> <Gold.Chemscore.DEClash>
0.5650

> <Gold.Chemscore.DEInternal>
2.1335

> <Gold.Chemscore.Rot>
1.9972

> <Gold.Chemscore.Internal.Correction>
   9.000000E+99

> <Gold.Chemscore.Hbonds>
donor molecule, donor type, donor heavy atom, donor atom, acceptor molecule, acceptor atom, score
      L1  H    13    29       P1  7957  0.92
      L1  H    13    38       P1  7948  0.87
      P1  H  7989  7998       L1    11  0.97

> <Gold.Chemscore.Hbond.Weighted>
-9.5416

> <Gold.Chemscore.Metal.Weighted>
-0.0000

> <Gold.Chemscore.Lipo.Weighted>
-7.2538

> <Gold.Chemscore.Internal_Hbond.Weighted>
0.0000

> <Gold.Chemscore.DEClash.Weighted>
0.5650

> <Gold.Chemscore.DEInternal.Weighted>
2.1335

> <Gold.Chemscore.Rot.Weighted>
5.1127

> <Gold.Chemscore.Internal.Correction.Weighted>
   9.000000E+99

> <Gold.Protein.RotatedTorsions>
[ 6907 6896 6895 6894 ] final -172.79 input  -60.11 | X-H torsion
[ 7974 7965 7964 7962 ] final -150.54 input  175.53 | X-H torsion
[ 8008 7997 7996 7995 ] final -118.51 input   59.86 | X-H torsion
[ 10167 10162 10161 10158 ] final  102.63 input  -65.29 | X-H torsion
[ 10718 10713 10712 10709 ] final   24.89 input   66.30 | X-H torsion
[ 10763 10752 10751 10750 ] final  102.11 input  -60.55 | X-H torsion
[ 11005 11000 10999 10996 ] final   27.27 input  -57.11 | X-H torsion

> <Gold.Protein.ActiveResidues>
 VAL166  LYS551  ARG553  GLY616  TRP617  ASP618  TYR619  PRO620  LYS621  CYS622 
 ASP623  PHE694  ASN695  SER759  ASP760  ASP761  ALA762  ILE779  LEU786  VAL792 
 PHE793  MET794  SER795  GLU796  ALA797  LYS798  CYS799  TRP800  GLU811  SER814 

> <Gold.Protein.RotatedAtoms>
  151.5457  133.3425  159.2943 H   0  0  0  0  0  0  0  0  0  0  0  0  # atno 6907 bound_to 6896
  150.8509  134.7836  159.7019 H   0  0  0  0  0  0  0  0  0  0  0  0  # atno 6908 bound_to 6896
  152.4555  134.5309  159.9862 H   0  0  0  0  0  0  0  0  0  0  0  0  # atno 6909 bound_to 6896
  144.7901  140.4918  143.5778 H   0  0  0  0  0  0  0  0  0  0  0  0  # atno 7974 bound_to 7965
  155.1008  140.0396  157.2696 H   0  0  0  0  0  0  0  0  0  0  0  0  # atno 8008 bound_to 7997
  154.6759  140.2622  155.6933 H   0  0  0  0  0  0  0  0  0  0  0  0  # atno 8009 bound_to 7997
  156.2676  140.2788  156.1286 H   0  0  0  0  0  0  0  0  0  0  0  0  # atno 8010 bound_to 7997
  139.7333  144.7030  151.0688 H   0  0  0  0  0  0  0  0  0  0  0  0  # atno 10167 bound_to 10162
  157.1859  130.6824  149.6131 H   0  0  0  0  0  0  0  0  0  0  0  0  # atno 10718 bound_to 10713
  153.3354  135.4021  155.1529 H   0  0  0  0  0  0  0  0  0  0  0  0  # atno 10763 bound_to 10752
  154.8632  135.3620  154.5416 H   0  0  0  0  0  0  0  0  0  0  0  0  # atno 10764 bound_to 10752
  153.5857  135.7075  153.5504 H   0  0  0  0  0  0  0  0  0  0  0  0  # atno 10765 bound_to 10752
  140.3281  134.2469  155.7706 H   0  0  0  0  0  0  0  0  0  0  0  0  # atno 11005 bound_to 11000
  145.5816  139.1489  143.3232 LP  0  0  0  0  0  0  0  0  0  0  0  0  # atno 17320 bound_to 7965
  146.2150  140.5945  142.9042 LP  0  0  0  0  0  0  0  0  0  0  0  0  # atno 17321 bound_to 7965
  140.7775  143.5015  150.9765 LP  0  0  0  0  0  0  0  0  0  0  0  0  # atno 17342 bound_to 10162
  139.8704  143.7200  152.3167 LP  0  0  0  0  0  0  0  0  0  0  0  0  # atno 17343 bound_to 10162
  155.9718  130.4631  150.6169 LP  0  0  0  0  0  0  0  0  0  0  0  0  # atno 17370 bound_to 10713
  157.3907  131.0795  151.1396 LP  0  0  0  0  0  0  0  0  0  0  0  0  # atno 17371 bound_to 10713
  141.2070  133.7817  157.0143 LP  0  0  0  0  0  0  0  0  0  0  0  0  # atno 17394 bound_to 11000
  140.0884  134.9607  157.1737 LP  0  0  0  0  0  0  0  0  0  0  0  0  # atno 17395 bound_to 11000

$$$$
