AV-unprocessed.smi:15|AV-procd|sdf|81|dock9
  -GOLD-   2262015213D 1   1.00000     0.00000
 Structure written by MMmdl.
 53 56  0  0  0  0  0  0  0  0  1 V2000
  149.2416  141.7982  155.3142 C   0  0  0  0  0  0  0  0  0  0  0  0
  150.7006  141.9559  155.7637 C   0  0  0  0  0  0  0  0  0  0  0  0
  150.9733  141.3402  157.0658 N   0  0  0  0  0  0  0  0  0  0  0  0
  151.8516  142.0286  158.0160 C   0  0  0  0  0  0  0  0  0  0  0  0
  151.5789  143.5409  158.1120 C   0  0  2  0  0  0  0  0  0  0  0  0
  152.5982  144.2865  158.9690 C   0  0  0  0  0  0  0  0  0  0  0  0
  151.8465  145.5347  159.4019 C   0  0  0  0  0  0  0  0  0  0  0  0
  150.3748  145.1788  159.1710 C   0  0  0  0  0  0  0  0  0  0  0  0
  150.3738  143.8037  158.8130 O   0  0  0  0  0  0  0  0  0  0  0  0
  151.0739  139.9850  157.0913 C   0  0  0  0  0  0  0  0  0  0  0  0
  151.4125  139.3570  158.2496 N   0  0  0  0  0  0  0  0  0  0  0  0
  151.4840  138.0240  158.3006 C   0  0  0  0  0  0  0  0  0  0  0  0
  151.2632  137.1394  157.3270 N   0  0  0  0  0  0  0  0  0  0  0  0
  150.9350  137.7612  156.1587 C   0  0  0  0  0  0  0  0  0  0  0  0
  150.8152  139.1656  155.9556 C   0  0  0  0  0  0  0  0  0  0  0  0
  150.4633  139.4222  154.6354 N   0  0  0  0  0  0  0  0  0  0  0  0
  150.3684  138.2388  154.0940 C   0  0  0  0  0  0  0  0  0  0  0  0
  150.6485  137.1844  154.9335 N   0  0  0  0  0  0  0  0  0  0  0  0
  150.6215  135.7699  154.5937 C   0  0  0  0  0  0  0  0  0  0  0  0
  149.2753  135.0608  154.9046 C   0  0  2  0  0  0  0  0  0  0  0  0
  148.2385  135.7464  154.2248 O   0  0  0  0  0  0  0  0  0  0  0  0
  148.9333  135.0015  156.3894 C   0  0  0  0  0  0  0  0  0  0  0  0
  149.6863  133.7607  156.8415 C   0  0  0  0  0  0  0  0  0  0  0  0
  149.5085  132.8501  155.7668 O   0  0  0  0  0  0  0  0  0  0  0  0
  149.3426  133.5562  154.5360 C   0  0  1  0  0  0  0  0  0  0  0  0
  148.0871  132.9762  153.8617 C   0  0  0  0  0  0  0  0  0  0  0  0
  149.1087  142.1920  154.3065 H   0  0  0  0  0  0  0  0  0  0  0  0
  148.5564  142.3405  155.9653 H   0  0  0  0  0  0  0  0  0  0  0  0
  148.9435  140.7495  155.3029 H   0  0  0  0  0  0  0  0  0  0  0  0
  151.3360  141.4914  155.0081 H   0  0  0  0  0  0  0  0  0  0  0  0
  150.9710  143.0117  155.7905 H   0  0  0  0  0  0  0  0  0  0  0  0
  151.7673  141.5700  159.0005 H   0  0  0  0  0  0  0  0  0  0  0  0
  152.8904  141.8796  157.7252 H   0  0  0  0  0  0  0  0  0  0  0  0
  151.5338  143.9990  157.1221 H   0  0  0  0  0  0  0  0  0  0  0  0
  152.8566  143.6926  159.8471 H   0  0  0  0  0  0  0  0  0  0  0  0
  153.5196  144.5098  158.4302 H   0  0  0  0  0  0  0  0  0  0  0  0
  152.0511  145.7770  160.4450 H   0  0  0  0  0  0  0  0  0  0  0  0
  152.1282  146.3955  158.7944 H   0  0  0  0  0  0  0  0  0  0  0  0
  149.7583  145.3509  160.0535 H   0  0  0  0  0  0  0  0  0  0  0  0
  149.9630  145.7649  158.3483 H   0  0  0  0  0  0  0  0  0  0  0  0
  151.7547  137.6066  159.2590 H   0  0  0  0  0  0  0  0  0  0  0  0
  150.0985  138.1013  153.0569 H   0  0  0  0  0  0  0  0  0  0  0  0
  150.8569  135.6725  153.5329 H   0  0  0  0  0  0  0  0  0  0  0  0
  151.4400  135.2831  155.1251 H   0  0  0  0  0  0  0  0  0  0  0  0
  148.3643  135.6345  153.2951 H   0  0  0  0  0  0  0  0  0  0  0  0
  149.1955  135.8938  156.9553 H   0  0  0  0  0  0  0  0  0  0  0  0
  147.8638  134.8328  156.5271 H   0  0  0  0  0  0  0  0  0  0  0  0
  150.7486  133.9724  156.9683 H   0  0  0  0  0  0  0  0  0  0  0  0
  149.3048  133.3531  157.7776 H   0  0  0  0  0  0  0  0  0  0  0  0
  150.2044  133.3556  153.8978 H   0  0  0  0  0  0  0  0  0  0  0  0
  147.9109  133.4335  152.8876 H   0  0  0  0  0  0  0  0  0  0  0  0
  147.1990  133.1306  154.4753 H   0  0  0  0  0  0  0  0  0  0  0  0
  148.1951  131.9031  153.7026 H   0  0  0  0  0  0  0  0  0  0  0  0
  1  2  1  0  0  0  0
  1 27  1  0  0  0  0
  1 28  1  0  0  0  0
  1 29  1  0  0  0  0
  2  3  1  0  0  0  0
  2 30  1  0  0  0  0
  2 31  1  0  0  0  0
  3  4  1  0  0  0  0
  3 10  1  0  0  0  0
  4  5  1  0  0  0  0
  4 32  1  0  0  0  0
  4 33  1  0  0  0  0
  5  9  1  0  0  0  0
  5  6  1  0  0  0  0
  5 34  1  0  0  0  0
  6  7  1  0  0  0  0
  6 35  1  0  0  0  0
  6 36  1  0  0  0  0
  7  8  1  0  0  0  0
  7 37  1  0  0  0  0
  7 38  1  0  0  0  0
  8  9  1  0  0  0  0
  8 39  1  0  0  0  0
  8 40  1  0  0  0  0
 10 15  1  0  0  0  0
 10 11  2  0  0  0  0
 11 12  1  0  0  0  0
 12 13  2  0  0  0  0
 12 41  1  0  0  0  0
 13 14  1  0  0  0  0
 14 18  1  0  0  0  0
 14 15  2  0  0  0  0
 15 16  1  0  0  0  0
 16 17  2  0  0  0  0
 17 18  1  0  0  0  0
 17 42  1  0  0  0  0
 18 19  1  0  0  0  0
 19 20  1  0  0  0  0
 19 43  1  0  0  0  0
 19 44  1  0  0  0  0
 20 25  1  0  0  0  0
 20 21  1  0  0  0  0
 20 22  1  0  0  0  0
 21 45  1  0  0  0  0
 22 23  1  0  0  0  0
 22 46  1  0  0  0  0
 22 47  1  0  0  0  0
 23 24  1  0  0  0  0
 23 48  1  0  0  0  0
 23 49  1  0  0  0  0
 24 25  1  0  0  0  0
 25 26  1  0  0  0  0
 25 50  1  0  0  0  0
 26 51  1  0  0  0  0
 26 52  1  0  0  0  0
 26 53  1  0  0  0  0
M  END
> <s_m_source_file>
AV-unprocessed.smi

> <i_m_source_file_index>
15

> <i_lp_mmshare_version>
43012

> <i_f3d_flags>
0

> <s_epik_input>
TzFbQ0gyXVtDSDJdW0NIMl1bQ0BIXTFbQ0gyXU4oW0NIMl1bQ0gzXSljKG5bY0hdbjIpYyhjMjMpbltjSF1uM1tDSDJdW0NAQF00KFtPSF0pW0NIMl1bQ0gyXU9bQ0BIXTRbQ0gzXQ==

> <s_epik_cmdline>
J2VwaWtfcHl0aG9uJywgJy1waCcsICc3LjAnLCAnLXRuJywgJzgnLCAnLW1hJywgJzIwMCcsICctbWV0YWxfYmluZGluZycsICctaW1hZScsICc8aW5maWxlLm1hZT4nLCAnLW9tYWUnLCAnPG91dGZpbGUubWFlPic=

> <r_lp_tautomer_probability>
1

> <r_epik_Ionization_Penalty>
0.00360814

> <r_epik_Ionization_Penalty_Charging>
0

> <r_epik_Ionization_Penalty_Neutral>
0.00360814

> <r_epik_State_Penalty>
0.00237482

> <r_epik_Charging_Adjusted_Penalty>
0.00237482

> <i_epik_Tot_Q>
0

> <i_epik_Tot_abs_Q>
0

> <r_epik_Metal_State_Penalty>
-0

> <b_epik_Metal_Only>
0

> <s_lp_Force_Field>
OPLS_2005

> <r_lp_Energy>
47.2651

> <b_lp_Chiralities_Consistent>
1

> <s_lp_Variant>
AV-unprocessed.smi:15-3

> <Gold.Version>
5.8.1

> <Gold.Id.Protein>
6NUR|6NUR_protein|mol2

> <Gold.PLP.Fitness>
49.3025

> <Gold.PLP.PLP>
-40.4226

> <Gold.PLP.part.hbond>
-1.3724

> <Gold.PLP.part.metal>
0.0000

> <Gold.PLP.part.buried>
-1.3790

> <Gold.PLP.part.nonpolar>
-37.6226

> <Gold.PLP.part.repulsive>
0.2239

> <Gold.PLP.ligand.clash>
0.0000

> <Gold.PLP.ligand.torsion>
0.9891

> <Gold.PLP.Chemscore.Hbond>
1.7475

> <Gold.PLP.Chemscore.CHOScore>
1.5744

> <Gold.PLP.Chemscore.Metal>
0.0000

> <Gold.Chemscore.Hbonds>
donor molecule, donor type, donor heavy atom, donor atom, acceptor molecule, acceptor atom, score
      L1  H    21    45       P1  7948  0.99
      P1  H  7989  7998       L1    16  0.63
      L1  C    17    42       P1  7948  1.00
      L1  C    17    42       P1  7949  0.03
      L1  C    17    42       P1  7957  0.48

> <Gold.PLP.Chemscore.Internal.Correction>
0.8926

> <Gold.Rescore>
     Score         DG    S(hbond)    S(metal)    S(lipo)     H(rot)  DE(clash)    DE(int)     intcor
     10.52     -14.76       1.02        0.00     103.63       2.44       0.43       3.81       ----

> <Gold.Chemscore.Fitness>
10.5212

> <Gold.Chemscore.DG>
-14.7630

> <Gold.Chemscore.ZeroCoef>
-5.4800

> <Gold.Chemscore.Hbond>
1.0217

> <Gold.Chemscore.Metal>
0.0000

> <Gold.Chemscore.Lipo>
103.6325

> <Gold.Chemscore.Internal_Hbond>
0.0000

> <Gold.Chemscore.DEClash>
0.4297

> <Gold.Chemscore.DEInternal>
3.8120

> <Gold.Chemscore.Rot>
2.4431

> <Gold.Chemscore.Internal.Correction>
   9.000000E+99

> <Gold.Chemscore.Hbonds>
donor molecule, donor type, donor heavy atom, donor atom, acceptor molecule, acceptor atom, score
      L1  H    21    45       P1  7948  0.93
      P1  H  7989  7998       L1    16  0.55

> <Gold.Chemscore.Hbond.Weighted>
-3.4124

> <Gold.Chemscore.Metal.Weighted>
-0.0000

> <Gold.Chemscore.Lipo.Weighted>
-12.1250

> <Gold.Chemscore.Internal_Hbond.Weighted>
0.0000

> <Gold.Chemscore.DEClash.Weighted>
0.4297

> <Gold.Chemscore.DEInternal.Weighted>
3.8120

> <Gold.Chemscore.Rot.Weighted>
6.2544

> <Gold.Chemscore.Internal.Correction.Weighted>
   9.000000E+99

> <Gold.Protein.RotatedTorsions>
[ 6907 6896 6895 6894 ] final  163.67 input  -60.11 | X-H torsion
[ 7974 7965 7964 7962 ] final  168.25 input  175.53 | X-H torsion
[ 8008 7997 7996 7995 ] final -163.87 input   59.86 | X-H torsion
[ 10167 10162 10161 10158 ] final   86.75 input  -65.29 | X-H torsion
[ 10718 10713 10712 10709 ] final   41.18 input   66.30 | X-H torsion
[ 10763 10752 10751 10750 ] final  -33.80 input  -60.55 | X-H torsion
[ 11005 11000 10999 10996 ] final  133.88 input  -57.11 | X-H torsion

> <Gold.Protein.ActiveResidues>
 VAL166  LYS551  ARG553  GLY616  TRP617  ASP618  TYR619  PRO620  LYS621  CYS622 
 ASP623  PHE694  ASN695  SER759  ASP760  ASP761  ALA762  ILE779  LEU786  VAL792 
 PHE793  MET794  SER795  GLU796  ALA797  LYS798  CYS799  TRP800  GLU811  SER814 

> <Gold.Protein.RotatedAtoms>
  151.9216  133.3587  159.3898 H   0  0  0  0  0  0  0  0  0  0  0  0  # atno 6907 bound_to 6896
  150.7036  134.4629  159.5398 H   0  0  0  0  0  0  0  0  0  0  0  0  # atno 6908 bound_to 6896
  152.2253  134.8374  160.0531 H   0  0  0  0  0  0  0  0  0  0  0  0  # atno 6909 bound_to 6896
  144.7395  139.8880  143.6401 H   0  0  0  0  0  0  0  0  0  0  0  0  # atno 7974 bound_to 7965
  155.8275  140.0929  157.1812 H   0  0  0  0  0  0  0  0  0  0  0  0  # atno 8008 bound_to 7997
  154.3979  140.1425  156.3635 H   0  0  0  0  0  0  0  0  0  0  0  0  # atno 8009 bound_to 7997
  155.8201  140.3446  155.5511 H   0  0  0  0  0  0  0  0  0  0  0  0  # atno 8010 bound_to 7997
  139.8843  144.6422  150.8808 H   0  0  0  0  0  0  0  0  0  0  0  0  # atno 10167 bound_to 10162
  157.3906  130.7804  149.7266 H   0  0  0  0  0  0  0  0  0  0  0  0  # atno 10718 bound_to 10713
  153.8361  135.6862  153.4808 H   0  0  0  0  0  0  0  0  0  0  0  0  # atno 10763 bound_to 10752
  153.1481  135.4629  154.9594 H   0  0  0  0  0  0  0  0  0  0  0  0  # atno 10764 bound_to 10752
  154.7865  135.3286  154.7820 H   0  0  0  0  0  0  0  0  0  0  0  0  # atno 10765 bound_to 10752
  139.9879  134.9525  156.9788 H   0  0  0  0  0  0  0  0  0  0  0  0  # atno 11005 bound_to 11000
  146.1163  139.4174  143.0256 LP  0  0  0  0  0  0  0  0  0  0  0  0  # atno 17320 bound_to 7965
  145.7370  141.0022  143.1321 LP  0  0  0  0  0  0  0  0  0  0  0  0  # atno 17321 bound_to 7965
  140.7738  143.3560  151.1920 LP  0  0  0  0  0  0  0  0  0  0  0  0  # atno 17342 bound_to 10162
  139.7167  143.9289  152.2969 LP  0  0  0  0  0  0  0  0  0  0  0  0  # atno 17343 bound_to 10162
  155.9797  130.4037  150.3570 LP  0  0  0  0  0  0  0  0  0  0  0  0  # atno 17370 bound_to 10713
  157.1685  131.0363  151.2807 LP  0  0  0  0  0  0  0  0  0  0  0  0  # atno 17371 bound_to 10713
  140.4965  134.1140  155.7242 LP  0  0  0  0  0  0  0  0  0  0  0  0  # atno 17394 bound_to 11000
  141.1541  133.8915  157.2023 LP  0  0  0  0  0  0  0  0  0  0  0  0  # atno 17395 bound_to 11000

$$$$
