AV-unprocessed.smi:2062|AV-procd|sdf|8402|dock10
  -GOLD-   2272011 93D 1   1.00000     0.00000
 Structure written by MMmdl.
 42 43  0  0  0  0  0  0  0  0  3 V2000
  148.4985  133.5864  153.7008 C   0  0  0  0  0  0  0  0  0  0  0  0
  149.0963  134.3810  154.8714 C   0  0  0  0  0  0  0  0  0  0  0  0
  149.2390  133.4837  156.1124 C   0  0  0  0  0  0  0  0  0  0  0  0
  148.2468  135.6373  155.1620 C   0  0  0  0  0  0  0  0  0  0  0  0
  148.7584  136.8606  154.4921 N   0  3  1  0  0  0  0  0  0  0  0  0
  147.7444  137.9366  154.3642 C   0  0  0  0  0  0  0  0  0  0  0  0
  148.3430  139.1561  153.6460 C   0  0  0  0  0  0  0  0  0  0  0  0
  149.4955  139.5961  154.3492 O   0  0  0  0  0  0  0  0  0  0  0  0
  150.5235  138.6114  154.3783 C   0  0  1  0  0  0  0  0  0  0  0  0
  151.7696  139.2050  155.0587 C   0  0  0  0  0  0  0  0  0  0  0  0
  151.4180  140.2928  155.9651 N   0  0  0  0  0  0  0  0  0  0  0  0
  151.8982  140.4720  157.2035 C   0  0  0  0  0  0  0  0  0  0  0  0
  152.7376  139.6915  157.6583 O   0  0  0  0  0  0  0  0  0  0  0  0
  151.3709  141.5419  157.8394 N   0  5  0  0  0  0  0  0  0  0  0  0
  151.9777  142.0414  158.9285 C   0  0  0  0  0  0  0  0  0  0  0  0
  151.9596  143.3425  159.2404 N   0  0  0  0  0  0  0  0  0  0  0  0
  152.6569  143.6421  160.4122 C   0  0  0  0  0  0  0  0  0  0  0  0
  153.2257  142.5445  161.0022 C   0  0  0  0  0  0  0  0  0  0  0  0
  152.9017  141.0934  160.0972 S   0  0  0  0  0  0  0  0  0  0  0  0
  149.9878  137.3815  155.1365 C   0  0  0  0  0  0  0  0  0  0  0  0
  147.4936  133.2315  153.9326 H   0  0  0  0  0  0  0  0  0  0  0  0
  149.1114  132.7168  153.4615 H   0  0  0  0  0  0  0  0  0  0  0  0
  148.4351  134.1989  152.8009 H   0  0  0  0  0  0  0  0  0  0  0  0
  150.0951  134.6862  154.5618 H   0  0  0  0  0  0  0  0  0  0  0  0
  148.2667  133.1435  156.4702 H   0  0  0  0  0  0  0  0  0  0  0  0
  149.7310  134.0089  156.9313 H   0  0  0  0  0  0  0  0  0  0  0  0
  149.8373  132.5998  155.8892 H   0  0  0  0  0  0  0  0  0  0  0  0
  147.2093  135.4765  154.8648 H   0  0  0  0  0  0  0  0  0  0  0  0
  148.2310  135.7961  156.2415 H   0  0  0  0  0  0  0  0  0  0  0  0
  146.8777  137.5846  153.8064 H   0  0  0  0  0  0  0  0  0  0  0  0
  147.3916  138.2275  155.3550 H   0  0  0  0  0  0  0  0  0  0  0  0
  148.5985  138.9175  152.6123 H   0  0  0  0  0  0  0  0  0  0  0  0
  147.6165  139.9683  153.6158 H   0  0  0  0  0  0  0  0  0  0  0  0
  150.7830  138.3244  153.3572 H   0  0  0  0  0  0  0  0  0  0  0  0
  152.3365  138.4306  155.5780 H   0  0  0  0  0  0  0  0  0  0  0  0
  152.4377  139.6193  154.3032 H   0  0  0  0  0  0  0  0  0  0  0  0
  150.7382  140.9618  155.6342 H   0  0  0  0  0  0  0  0  0  0  0  0
  152.6978  144.6658  160.7530 H   0  0  0  0  0  0  0  0  0  0  0  0
  153.8130  142.5002  161.9069 H   0  0  0  0  0  0  0  0  0  0  0  0
  149.7731  137.6417  156.1746 H   0  0  0  0  0  0  0  0  0  0  0  0
  150.7506  136.6018  155.1522 H   0  0  0  0  0  0  0  0  0  0  0  0
  149.0239  136.5897  153.5559 H   0  0  0  0  0  0  0  0  0  0  0  0
  1  2  1  0  0  0  0
  1 21  1  0  0  0  0
  1 22  1  0  0  0  0
  1 23  1  0  0  0  0
  2  3  1  0  0  0  0
  2  4  1  0  0  0  0
  2 24  1  0  0  0  0
  3 25  1  0  0  0  0
  3 26  1  0  0  0  0
  3 27  1  0  0  0  0
  4  5  1  0  0  0  0
  4 28  1  0  0  0  0
  4 29  1  0  0  0  0
  5 20  1  0  0  0  0
  5  6  1  0  0  0  0
  5 42  1  0  0  0  0
  6  7  1  0  0  0  0
  6 30  1  0  0  0  0
  6 31  1  0  0  0  0
  7  8  1  0  0  0  0
  7 32  1  0  0  0  0
  7 33  1  0  0  0  0
  8  9  1  0  0  0  0
  9 10  1  0  0  0  0
  9 20  1  0  0  0  0
  9 34  1  0  0  0  0
 10 11  1  0  0  0  0
 10 35  1  0  0  0  0
 10 36  1  0  0  0  0
 11 12  1  0  0  0  0
 11 37  1  0  0  0  0
 12 13  2  0  0  0  0
 12 14  1  0  0  0  0
 14 15  1  0  0  0  0
 15 19  1  0  0  0  0
 15 16  2  0  0  0  0
 16 17  1  0  0  0  0
 17 18  2  0  0  0  0
 17 38  1  0  0  0  0
 18 19  1  0  0  0  0
 18 39  1  0  0  0  0
 20 40  1  0  0  0  0
 20 41  1  0  0  0  0
M  CHG  1   5   1
M  CHG  1  14  -1
M  END
> <s_m_source_file>
AV-unprocessed.smi

> <i_m_source_file_index>
2062

> <i_lp_mmshare_version>
43012

> <i_f3d_flags>
0

> <s_epik_input>
W0NIM11bQ0hdKFtDSDNdKVtDSDJdTjFbQ0gyXVtDSDJdT1tDQEhdKFtDSDJdMSlbQ0gyXVtOSF1DKD1PKVtOSF1jMm5bY0hdW2NIXXMy

> <s_epik_cmdline>
J2VwaWtfcHl0aG9uJywgJy1waCcsICc3LjAnLCAnLXRuJywgJzgnLCAnLW1hJywgJzIwMCcsICctbWV0YWxfYmluZGluZycsICctaW1hZScsICc8aW5maWxlLm1hZT4nLCAnLW9tYWUnLCAnPG91dGZpbGUubWFlPic=

> <r_lp_tautomer_probability>
0.999

> <r_epik_Ionization_Penalty>
6.35835

> <r_epik_Ionization_Penalty_Charging>
5.49938

> <r_epik_Ionization_Penalty_Neutral>
0.858963

> <r_epik_State_Penalty>
5.49328

> <r_epik_Charging_Adjusted_Penalty>
10.9927

> <i_epik_Tot_Q>
0

> <i_epik_Tot_abs_Q>
2

> <r_epik_Metal_State_Penalty>
1.51523

> <b_epik_Metal_Only>
1

> <s_lp_Force_Field>
OPLS_2005

> <r_lp_Energy>
7.56536

> <b_lp_Chiralities_Consistent>
1

> <s_lp_Variant>
AV-unprocessed.smi:2062-7

> <Gold.Version>
5.8.1

> <Gold.Id.Protein>
6NUR|6NUR_protein|mol2

> <Gold.PLP.Fitness>
42.1505

> <Gold.PLP.PLP>
-35.9668

> <Gold.PLP.part.hbond>
-2.0000

> <Gold.PLP.part.metal>
0.0000

> <Gold.PLP.part.buried>
-5.1658

> <Gold.PLP.part.nonpolar>
-28.7082

> <Gold.PLP.part.repulsive>
0.2501

> <Gold.PLP.ligand.clash>
0.0000

> <Gold.PLP.ligand.torsion>
1.4849

> <Gold.PLP.Chemscore.Hbond>
3.0000

> <Gold.PLP.Chemscore.CHOScore>
0.0000

> <Gold.PLP.Chemscore.Metal>
0.0000

> <Gold.Chemscore.Hbonds>
donor molecule, donor type, donor heavy atom, donor atom, acceptor molecule, acceptor atom, score
      L1  H     5    42       P1  7948  2.00
      P1  H  7997  8010       L1    13  1.00

> <Gold.PLP.Chemscore.Internal.Correction>
0.1534

> <Gold.Rescore>
     Score         DG    S(hbond)    S(metal)    S(lipo)     H(rot)  DE(clash)    DE(int)     intcor
     14.39     -17.43       1.97        0.00      83.39       1.72       0.02       3.02       ----

> <Gold.Chemscore.Fitness>
14.3850

> <Gold.Chemscore.DG>
-17.4288

> <Gold.Chemscore.ZeroCoef>
-5.4800

> <Gold.Chemscore.Hbond>
1.9743

> <Gold.Chemscore.Metal>
0.0000

> <Gold.Chemscore.Lipo>
83.3865

> <Gold.Chemscore.Internal_Hbond>
0.0000

> <Gold.Chemscore.DEClash>
0.0200

> <Gold.Chemscore.DEInternal>
3.0238

> <Gold.Chemscore.Rot>
1.7194

> <Gold.Chemscore.Internal.Correction>
   9.000000E+99

> <Gold.Chemscore.Hbonds>
donor molecule, donor type, donor heavy atom, donor atom, acceptor molecule, acceptor atom, score
      L1  H     5    42       P1  7948  1.00
      P1  H  7997  8010       L1    13  0.78

> <Gold.Chemscore.Hbond.Weighted>
-6.5943

> <Gold.Chemscore.Metal.Weighted>
-0.0000

> <Gold.Chemscore.Lipo.Weighted>
-9.7562

> <Gold.Chemscore.Internal_Hbond.Weighted>
0.0000

> <Gold.Chemscore.DEClash.Weighted>
0.0200

> <Gold.Chemscore.DEInternal.Weighted>
3.0238

> <Gold.Chemscore.Rot.Weighted>
4.4017

> <Gold.Chemscore.Internal.Correction.Weighted>
   9.000000E+99

> <Gold.Protein.RotatedTorsions>
[ 6907 6896 6895 6894 ] final   37.14 input  -60.11 | X-H torsion
[ 7974 7965 7964 7962 ] final -108.31 input  175.53 | X-H torsion
[ 8008 7997 7996 7995 ] final   43.19 input   59.86 | X-H torsion
[ 10167 10162 10161 10158 ] final   68.96 input  -65.29 | X-H torsion
[ 10718 10713 10712 10709 ] final  162.39 input   66.30 | X-H torsion
[ 10763 10752 10751 10750 ] final  -47.38 input  -60.55 | X-H torsion
[ 11005 11000 10999 10996 ] final   90.67 input  -57.11 | X-H torsion

> <Gold.Protein.ActiveResidues>
 VAL166  LYS551  ARG553  GLY616  TRP617  ASP618  TYR619  PRO620  LYS621  CYS622 
 ASP623  PHE694  ASN695  SER759  ASP760  ASP761  ALA762  ILE779  LEU786  VAL792 
 PHE793  MET794  SER795  GLU796  ALA797  LYS798  CYS799  TRP800  GLU811  SER814 

> <Gold.Protein.RotatedAtoms>
  152.1391  134.9076  160.0554 H   0  0  0  0  0  0  0  0  0  0  0  0  # atno 6907 bound_to 6896
  152.0151  133.3871  159.4243 H   0  0  0  0  0  0  0  0  0  0  0  0  # atno 6908 bound_to 6896
  150.6863  134.3609  159.4994 H   0  0  0  0  0  0  0  0  0  0  0  0  # atno 6909 bound_to 6896
  145.1945  140.9029  143.3405 H   0  0  0  0  0  0  0  0  0  0  0  0  # atno 7974 bound_to 7965
  155.2986  140.3383  155.4249 H   0  0  0  0  0  0  0  0  0  0  0  0  # atno 8008 bound_to 7997
  156.2012  140.1733  156.7935 H   0  0  0  0  0  0  0  0  0  0  0  0  # atno 8009 bound_to 7997
  154.5561  140.0696  156.8730 H   0  0  0  0  0  0  0  0  0  0  0  0  # atno 8010 bound_to 7997
  140.0730  144.5136  150.7214 H   0  0  0  0  0  0  0  0  0  0  0  0  # atno 10167 bound_to 10162
  157.1231  131.0497  151.2406 H   0  0  0  0  0  0  0  0  0  0  0  0  # atno 10718 bound_to 10713
  154.0605  135.6618  153.4811 H   0  0  0  0  0  0  0  0  0  0  0  0  # atno 10763 bound_to 10752
  153.0429  135.5133  154.7664 H   0  0  0  0  0  0  0  0  0  0  0  0  # atno 10764 bound_to 10752
  154.6698  135.3028  154.9723 H   0  0  0  0  0  0  0  0  0  0  0  0  # atno 10765 bound_to 10752
  139.8852  134.8628  156.3318 H   0  0  0  0  0  0  0  0  0  0  0  0  # atno 11005 bound_to 11000
  145.0009  139.3600  143.6168 LP  0  0  0  0  0  0  0  0  0  0  0  0  # atno 17320 bound_to 7965
  146.3430  139.9231  142.8764 LP  0  0  0  0  0  0  0  0  0  0  0  0  # atno 17321 bound_to 7965
  140.7116  143.2510  151.4563 LP  0  0  0  0  0  0  0  0  0  0  0  0  # atno 17342 bound_to 10162
  139.5825  144.1678  152.1986 LP  0  0  0  0  0  0  0  0  0  0  0  0  # atno 17343 bound_to 10162
  157.4458  130.7570  149.7109 LP  0  0  0  0  0  0  0  0  0  0  0  0  # atno 17370 bound_to 10713
  155.9824  130.4010  150.3419 LP  0  0  0  0  0  0  0  0  0  0  0  0  # atno 17371 bound_to 10713
  140.9718  133.7323  156.0545 LP  0  0  0  0  0  0  0  0  0  0  0  0  # atno 17394 bound_to 11000
  140.7862  134.3670  157.5476 LP  0  0  0  0  0  0  0  0  0  0  0  0  # atno 17395 bound_to 11000

$$$$
