AV-unprocessed.smi:985|AV-procd|sdf|4319|dock4
  -GOLD-   22720 2223D 1   1.00000     0.00000
 Structure written by MMmdl.
 26 27  0  0  0  0  0  0  0  0  2 V2000
  155.4641  139.2151  160.9606 C   0  0  0  0  0  0  0  0  0  0  0  0
  154.4732  140.0800  160.2599 C   0  0  0  0  0  0  0  0  0  0  0  0
  153.8878  141.1790  160.7294 N   0  0  0  0  0  0  0  0  0  0  0  0
  153.1000  141.5285  159.6740 C   0  0  0  0  0  0  0  0  0  0  0  0
  152.2100  142.7337  159.6837 C   0  0  1  0  0  0  0  0  0  0  0  0
  152.9752  144.0191  160.0516 C   0  0  0  0  0  0  0  0  0  0  0  0
  152.0286  145.2293  160.0375 C   0  0  0  0  0  0  0  0  0  0  0  0
  151.2879  145.3343  158.6936 C   0  0  0  0  0  0  0  0  0  0  0  0
  150.5561  144.0827  158.4003 N   0  3  0  0  0  0  0  0  0  0  0  0
  151.4352  142.8928  158.3596 C   0  0  0  0  0  0  0  0  0  0  0  0
  153.1712  140.7341  158.6125 N   0  0  0  0  0  0  0  0  0  0  0  0
  154.0951  139.7533  159.0014 O   0  0  0  0  0  0  0  0  0  0  0  0
  155.6754  139.6073  161.9558 H   0  0  0  0  0  0  0  0  0  0  0  0
  156.3944  139.1780  160.3939 H   0  0  0  0  0  0  0  0  0  0  0  0
  155.0724  138.2026  161.0592 H   0  0  0  0  0  0  0  0  0  0  0  0
  151.4654  142.5765  160.4668 H   0  0  0  0  0  0  0  0  0  0  0  0
  153.4367  143.9176  161.0346 H   0  0  0  0  0  0  0  0  0  0  0  0
  153.7865  144.1866  159.3416 H   0  0  0  0  0  0  0  0  0  0  0  0
  151.3046  145.1382  160.8484 H   0  0  0  0  0  0  0  0  0  0  0  0
  152.5908  146.1442  160.2267 H   0  0  0  0  0  0  0  0  0  0  0  0
  150.5796  146.1628  158.7166 H   0  0  0  0  0  0  0  0  0  0  0  0
  151.9918  145.5388  157.8857 H   0  0  0  0  0  0  0  0  0  0  0  0
  149.8595  143.9436  159.1186 H   0  0  0  0  0  0  0  0  0  0  0  0
  152.1254  142.9925  157.5205 H   0  0  0  0  0  0  0  0  0  0  0  0
  150.8242  142.0104  158.1670 H   0  0  0  0  0  0  0  0  0  0  0  0
  150.0901  144.1764  157.5090 H   0  0  0  0  0  0  0  0  0  0  0  0
  1  2  1  0  0  0  0
  1 13  1  0  0  0  0
  1 14  1  0  0  0  0
  1 15  1  0  0  0  0
  2 12  1  0  0  0  0
  2  3  2  0  0  0  0
  3  4  1  0  0  0  0
  4  5  1  0  0  0  0
  4 11  2  0  0  0  0
  5 10  1  0  0  0  0
  5  6  1  0  0  0  0
  5 16  1  0  0  0  0
  6  7  1  0  0  0  0
  6 17  1  0  0  0  0
  6 18  1  0  0  0  0
  7  8  1  0  0  0  0
  7 19  1  0  0  0  0
  7 20  1  0  0  0  0
  8  9  1  0  0  0  0
  8 21  1  0  0  0  0
  8 22  1  0  0  0  0
  9 10  1  0  0  0  0
  9 23  1  0  0  0  0
  9 26  1  0  0  0  0
 10 24  1  0  0  0  0
 10 25  1  0  0  0  0
 11 12  1  0  0  0  0
M  CHG  1   9   1
M  END
> <s_m_source_file>
AV-unprocessed.smi

> <i_m_source_file_index>
985

> <i_lp_mmshare_version>
43012

> <i_f3d_flags>
0

> <s_epik_input>
W0NIM11jMW5jKG5vMSlbQ0BASF0yW0NIMl1bQ0gyXVtDSDJdW05IXVtDSDJdMg==

> <s_epik_cmdline>
J2VwaWtfcHl0aG9uJywgJy1waCcsICc3LjAnLCAnLXRuJywgJzgnLCAnLW1hJywgJzIwMCcsICctbWV0YWxfYmluZGluZycsICctaW1hZScsICc8aW5maWxlLm1hZT4nLCAnLW9tYWUnLCAnPG91dGZpbGUubWFlPic=

> <r_lp_tautomer_probability>
1

> <r_epik_Ionization_Penalty>
0.000532935

> <r_epik_Ionization_Penalty_Charging>
0.000532935

> <r_epik_Ionization_Penalty_Neutral>
3.88228e-13

> <r_epik_State_Penalty>
0.000332992

> <r_epik_Charging_Adjusted_Penalty>
0.000865928

> <i_epik_Tot_Q>
1

> <i_epik_Tot_abs_Q>
1

> <r_epik_Metal_State_Penalty>
-0

> <b_epik_Metal_Only>
0

> <s_lp_Force_Field>
OPLS_2005

> <r_lp_Energy>
6.62541

> <b_lp_Chiralities_Consistent>
1

> <s_lp_Variant>
AV-unprocessed.smi:985-2

> <Gold.Version>
5.8.1

> <Gold.Id.Protein>
6NUR|6NUR_protein|mol2

> <Gold.PLP.Fitness>
33.3858

> <Gold.PLP.PLP>
-24.4946

> <Gold.PLP.part.hbond>
-3.5821

> <Gold.PLP.part.metal>
0.0000

> <Gold.PLP.part.buried>
-1.9510

> <Gold.PLP.part.nonpolar>
-18.1112

> <Gold.PLP.part.repulsive>
0.0658

> <Gold.PLP.ligand.clash>
0.0000

> <Gold.PLP.ligand.torsion>
0.0401

> <Gold.PLP.Chemscore.Hbond>
2.9760

> <Gold.PLP.Chemscore.CHOScore>
0.0000

> <Gold.PLP.Chemscore.Metal>
0.0000

> <Gold.Chemscore.Hbonds>
donor molecule, donor type, donor heavy atom, donor atom, acceptor molecule, acceptor atom, score
      L1  H     9    26       P1  8028  0.94
      P1  H  7997  8008       L1    12  0.35

> <Gold.PLP.Chemscore.Internal.Correction>
0.0434

> <Gold.Rescore>
     Score         DG    S(hbond)    S(metal)    S(lipo)     H(rot)  DE(clash)    DE(int)     intcor
     12.90     -13.27       0.94        0.00      61.59       1.00       0.13       0.24       ----

> <Gold.Chemscore.Fitness>
12.8970

> <Gold.Chemscore.DG>
-13.2685

> <Gold.Chemscore.ZeroCoef>
-5.4800

> <Gold.Chemscore.Hbond>
0.9408

> <Gold.Chemscore.Metal>
0.0000

> <Gold.Chemscore.Lipo>
61.5906

> <Gold.Chemscore.Internal_Hbond>
0.0000

> <Gold.Chemscore.DEClash>
0.1334

> <Gold.Chemscore.DEInternal>
0.2382

> <Gold.Chemscore.Rot>
1.0000

> <Gold.Chemscore.Internal.Correction>
   9.000000E+99

> <Gold.Chemscore.Hbonds>
donor molecule, donor type, donor heavy atom, donor atom, acceptor molecule, acceptor atom, score
      L1  H     9    26       P1  8028  0.25
      P1  H  7997  8008       L1    12  0.01

> <Gold.Chemscore.Hbond.Weighted>
-3.1424

> <Gold.Chemscore.Metal.Weighted>
-0.0000

> <Gold.Chemscore.Lipo.Weighted>
-7.2061

> <Gold.Chemscore.Internal_Hbond.Weighted>
0.0000

> <Gold.Chemscore.DEClash.Weighted>
0.1334

> <Gold.Chemscore.DEInternal.Weighted>
0.2382

> <Gold.Chemscore.Rot.Weighted>
2.5600

> <Gold.Chemscore.Internal.Correction.Weighted>
   9.000000E+99

> <Gold.Protein.RotatedTorsions>
[ 6907 6896 6895 6894 ] final -147.32 input  -60.11 | X-H torsion
[ 7974 7965 7964 7962 ] final   29.57 input  175.53 | X-H torsion
[ 8008 7997 7996 7995 ] final -112.49 input   59.86 | X-H torsion
[ 10167 10162 10161 10158 ] final  132.89 input  -65.29 | X-H torsion
[ 10718 10713 10712 10709 ] final -144.76 input   66.30 | X-H torsion
[ 10763 10752 10751 10750 ] final   73.32 input  -60.55 | X-H torsion
[ 11005 11000 10999 10996 ] final   44.05 input  -57.11 | X-H torsion

> <Gold.Protein.ActiveResidues>
 VAL166  LYS551  ARG553  GLY616  TRP617  ASP618  TYR619  PRO620  LYS621  CYS622 
 ASP623  PHE694  ASN695  SER759  ASP760  ASP761  ALA762  ILE779  LEU786  VAL792 
 PHE793  MET794  SER795  GLU796  ALA797  LYS798  CYS799  TRP800  GLU811  SER814 

> <Gold.Protein.RotatedAtoms>
  151.1540  133.4888  159.2594 H   0  0  0  0  0  0  0  0  0  0  0  0  # atno 6907 bound_to 6896
  151.1524  135.0233  159.8684 H   0  0  0  0  0  0  0  0  0  0  0  0  # atno 6908 bound_to 6896
  152.5463  134.1423  159.8537 H   0  0  0  0  0  0  0  0  0  0  0  0  # atno 6909 bound_to 6896
  146.1664  139.6904  142.8998 H   0  0  0  0  0  0  0  0  0  0  0  0  # atno 7974 bound_to 7965
  155.0061  140.0394  157.2380 H   0  0  0  0  0  0  0  0  0  0  0  0  # atno 8008 bound_to 7997
  154.7501  140.2765  155.6277 H   0  0  0  0  0  0  0  0  0  0  0  0  # atno 8009 bound_to 7997
  156.2883  140.2648  156.2252 H   0  0  0  0  0  0  0  0  0  0  0  0  # atno 8010 bound_to 7997
  139.5320  144.6641  151.4917 H   0  0  0  0  0  0  0  0  0  0  0  0  # atno 10167 bound_to 10162
  156.3740  130.7803  151.1987 H   0  0  0  0  0  0  0  0  0  0  0  0  # atno 10718 bound_to 10713
  153.0514  135.5067  154.7876 H   0  0  0  0  0  0  0  0  0  0  0  0  # atno 10763 bound_to 10752
  154.6735  135.2957  154.9712 H   0  0  0  0  0  0  0  0  0  0  0  0  # atno 10764 bound_to 10752
  154.0522  135.6702  153.4854 H   0  0  0  0  0  0  0  0  0  0  0  0  # atno 10765 bound_to 10752
  140.1588  134.4368  155.8331 H   0  0  0  0  0  0  0  0  0  0  0  0  # atno 11005 bound_to 11000
  145.4457  141.0425  143.2832 LP  0  0  0  0  0  0  0  0  0  0  0  0  # atno 17320 bound_to 7965
  144.8098  139.5983  143.7034 LP  0  0  0  0  0  0  0  0  0  0  0  0  # atno 17321 bound_to 7965
  140.6504  143.8708  150.6780 LP  0  0  0  0  0  0  0  0  0  0  0  0  # atno 17342 bound_to 10162
  140.2071  143.3913  152.1747 LP  0  0  0  0  0  0  0  0  0  0  0  0  # atno 17343 bound_to 10162
  157.7486  131.0364  150.4406 LP  0  0  0  0  0  0  0  0  0  0  0  0  # atno 17370 bound_to 10713
  156.4638  130.4038  149.6560 LP  0  0  0  0  0  0  0  0  0  0  0  0  # atno 17371 bound_to 10713
  141.2207  133.6904  156.7556 LP  0  0  0  0  0  0  0  0  0  0  0  0  # atno 17394 bound_to 11000
  140.2515  134.8537  157.3672 LP  0  0  0  0  0  0  0  0  0  0  0  0  # atno 17395 bound_to 11000

$$$$
