AV-unprocessed.smi:37|AV-procd|sdf|324|dock2
  -GOLD-   2262016143D 1   1.00000     0.00000
 Structure written by MMmdl.
 43 44  0  0  0  0  0  0  0  0  2 V2000
  147.0904  134.1648  162.3892 C   0  0  0  0  0  0  0  0  0  0  0  0
  146.8329  134.9423  161.0899 C   0  0  0  0  0  0  0  0  0  0  0  0
  147.6613  136.2232  160.9666 C   0  0  0  0  0  0  0  0  0  0  0  0
  147.4792  137.2012  161.6942 O   0  0  0  0  0  0  0  0  0  0  0  0
  148.5772  136.1345  159.9910 O   0  0  0  0  0  0  0  0  0  0  0  0
  149.4807  137.2059  159.7776 C   0  0  0  0  0  0  0  0  0  0  0  0
  150.4935  136.8099  158.6936 C   0  0  1  0  0  0  0  0  0  0  0  0
  149.8859  136.7426  157.4032 O   0  0  0  0  0  0  0  0  0  0  0  0
  150.7652  137.2006  156.4146 C   0  0  1  0  0  0  0  0  0  0  0  0
  150.2069  138.4663  155.7902 N   0  0  0  0  0  0  0  0  0  0  0  0
  149.1071  139.1174  156.3272 C   0  0  0  0  0  0  0  0  0  0  0  0
  148.6304  140.2544  155.7815 C   0  0  0  0  0  0  0  0  0  0  0  0
  147.5691  140.8676  156.3334 F   0  0  0  0  0  0  0  0  0  0  0  0
  149.2755  140.8131  154.5954 C   0  0  0  0  0  0  0  0  0  0  0  0
  148.8388  141.8528  154.1042 O   0  0  0  0  0  0  0  0  0  0  0  0
  150.3479  140.1460  154.0794 N   0  5  0  0  0  0  0  0  0  0  0  0
  150.8359  138.9962  154.6302 C   0  0  0  0  0  0  0  0  0  0  0  0
  151.8055  138.3902  154.1736 O   0  0  0  0  0  0  0  0  0  0  0  0
  152.1065  137.4916  157.1051 C   0  0  2  0  0  0  0  0  0  0  0  0
  153.2474  135.8590  157.0540 Br  0  0  0  0  0  0  0  0  0  0  0  0
  151.6811  137.7659  158.5374 C   0  0  1  0  0  0  0  0  0  0  0  0
  151.2471  139.1148  158.6745 O   0  0  0  0  0  0  0  0  0  0  0  0
  152.1239  140.1314  158.6339 C   0  0  0  0  0  0  0  0  0  0  0  0
  153.3395  140.0308  158.4685 O   0  0  0  0  0  0  0  0  0  0  0  0
  151.4483  141.4940  158.7784 C   0  0  0  0  0  0  0  0  0  0  0  0
  150.4588  141.7870  157.6417 C   0  0  0  0  0  0  0  0  0  0  0  0
  146.4730  133.2672  162.4268 H   0  0  0  0  0  0  0  0  0  0  0  0
  146.8521  134.7654  163.2678 H   0  0  0  0  0  0  0  0  0  0  0  0
  148.1323  133.8517  162.4655 H   0  0  0  0  0  0  0  0  0  0  0  0
  147.0504  134.3054  160.2322 H   0  0  0  0  0  0  0  0  0  0  0  0
  145.7775  135.2079  161.0255 H   0  0  0  0  0  0  0  0  0  0  0  0
  148.9406  138.1100  159.4942 H   0  0  0  0  0  0  0  0  0  0  0  0
  150.0058  137.4162  160.7104 H   0  0  0  0  0  0  0  0  0  0  0  0
  150.8895  135.8185  158.9178 H   0  0  0  0  0  0  0  0  0  0  0  0
  150.8283  136.4828  155.5952 H   0  0  0  0  0  0  0  0  0  0  0  0
  148.6153  138.7288  157.2051 H   0  0  0  0  0  0  0  0  0  0  0  0
  152.6626  138.3028  156.6343 H   0  0  0  0  0  0  0  0  0  0  0  0
  152.4696  137.5456  159.2586 H   0  0  0  0  0  0  0  0  0  0  0  0
  150.9284  141.5266  159.7361 H   0  0  0  0  0  0  0  0  0  0  0  0
  152.2187  142.2652  158.8103 H   0  0  0  0  0  0  0  0  0  0  0  0
  149.9417  142.7298  157.8188 H   0  0  0  0  0  0  0  0  0  0  0  0
  149.7029  141.0052  157.5603 H   0  0  0  0  0  0  0  0  0  0  0  0
  150.9671  141.8682  156.6798 H   0  0  0  0  0  0  0  0  0  0  0  0
  1  2  1  0  0  0  0
  1 27  1  0  0  0  0
  1 28  1  0  0  0  0
  1 29  1  0  0  0  0
  2  3  1  0  0  0  0
  2 30  1  0  0  0  0
  2 31  1  0  0  0  0
  3  4  2  0  0  0  0
  3  5  1  0  0  0  0
  5  6  1  0  0  0  0
  6  7  1  0  0  0  0
  6 32  1  0  0  0  0
  6 33  1  0  0  0  0
  7 21  1  0  0  0  0
  7  8  1  0  0  0  0
  7 34  1  0  0  0  0
  8  9  1  0  0  0  0
  9 10  1  0  0  0  0
  9 19  1  0  0  0  0
  9 35  1  0  0  0  0
 10 17  1  0  0  0  0
 10 11  1  0  0  0  0
 11 12  2  0  0  0  0
 11 36  1  0  0  0  0
 12 13  1  0  0  0  0
 12 14  1  0  0  0  0
 14 15  2  0  0  0  0
 14 16  1  0  0  0  0
 16 17  1  0  0  0  0
 17 18  2  0  0  0  0
 19 20  1  0  0  0  0
 19 21  1  0  0  0  0
 19 37  1  0  0  0  0
 21 22  1  0  0  0  0
 21 38  1  0  0  0  0
 22 23  1  0  0  0  0
 23 24  2  0  0  0  0
 23 25  1  0  0  0  0
 25 26  1  0  0  0  0
 25 39  1  0  0  0  0
 25 40  1  0  0  0  0
 26 41  1  0  0  0  0
 26 42  1  0  0  0  0
 26 43  1  0  0  0  0
M  CHG  1  16  -1
M  END
> <s_m_source_file>
AV-unprocessed.smi

> <i_m_source_file_index>
37

> <i_lp_mmshare_version>
43012

> <i_f3d_flags>
0

> <s_epik_input>
W0NIM11bQ0gyXUMoPU8pT1tDSDJdW0NAQEhdMU9bQ0BASF0objJbY0hdYyhGKWMoPU8pW25IXWMyPU8pW0NAQEhdKEJyKVtDQEhdMU9DKD1PKVtDSDJdW0NIM10=

> <s_epik_cmdline>
J2VwaWtfcHl0aG9uJywgJy1waCcsICc3LjAnLCAnLXRuJywgJzgnLCAnLW1hJywgJzIwMCcsICctbWV0YWxfYmluZGluZycsICctaW1hZScsICc8aW5maWxlLm1hZT4nLCAnLW9tYWUnLCAnPG91dGZpbGUubWFlPic=

> <r_epik_Ionization_Penalty>
1.08158

> <r_epik_Ionization_Penalty_Charging>
9.05154e-09

> <r_epik_Ionization_Penalty_Neutral>
1.08158

> <r_epik_State_Penalty>
1.13706

> <r_epik_Charging_Adjusted_Penalty>
1.13706

> <i_epik_Tot_Q>
-1

> <i_epik_Tot_abs_Q>
1

> <r_epik_Metal_State_Penalty>
0.00343535

> <b_epik_Metal_Only>
0

> <s_epik_Chemistry_Notes>
This compound has an ester and may undergo hydrolysis at high or low pH. This compound contains an acetal/aminal-like group ( X-CH(R)-Y where X, Y are N, S, or O) that may be acid/base labile, releasing an aldehyde.

> <s_lp_Force_Field>
OPLS_2005

> <r_lp_Energy>
30.833

> <b_lp_Chiralities_Consistent>
1

> <s_lp_Variant>
AV-unprocessed.smi:37-22

> <Gold.Version>
5.8.1

> <Gold.Id.Protein>
6NUR|6NUR_protein|mol2

> <Gold.PLP.Fitness>
43.2975

> <Gold.PLP.PLP>
-30.6594

> <Gold.PLP.part.hbond>
-5.3439

> <Gold.PLP.part.metal>
0.0000

> <Gold.PLP.part.buried>
0.6469

> <Gold.PLP.part.nonpolar>
-24.8246

> <Gold.PLP.part.repulsive>
0.6449

> <Gold.PLP.ligand.clash>
0.0000

> <Gold.PLP.ligand.torsion>
0.3874

> <Gold.PLP.Chemscore.Hbond>
4.3840

> <Gold.PLP.Chemscore.CHOScore>
0.0000

> <Gold.PLP.Chemscore.Metal>
0.0000

> <Gold.Chemscore.Hbonds>
donor molecule, donor type, donor heavy atom, donor atom, acceptor molecule, acceptor atom, score
      P1  H  6931  6943       L1     4  0.94
      P1  H  6934  6947       L1     4  0.80
      P1  H  7989  7998       L1    16  1.00
      P1  H  7997  8009       L1    24  1.00
      P1  H  8011  8017       L1    15  0.41

> <Gold.PLP.Chemscore.Internal.Correction>
0.2609

> <Gold.Rescore>
     Score         DG    S(hbond)    S(metal)    S(lipo)     H(rot)  DE(clash)    DE(int)     intcor
     12.70     -15.37       3.51        0.00      55.63       3.27       1.42       1.24       ----

> <Gold.Chemscore.Fitness>
12.6995

> <Gold.Chemscore.DG>
-15.3652

> <Gold.Chemscore.ZeroCoef>
-5.4800

> <Gold.Chemscore.Hbond>
3.5149

> <Gold.Chemscore.Metal>
0.0000

> <Gold.Chemscore.Lipo>
55.6309

> <Gold.Chemscore.Internal_Hbond>
0.0000

> <Gold.Chemscore.DEClash>
1.4230

> <Gold.Chemscore.DEInternal>
1.2427

> <Gold.Chemscore.Rot>
3.2669

> <Gold.Chemscore.Internal.Correction>
   9.000000E+99

> <Gold.Chemscore.Hbonds>
donor molecule, donor type, donor heavy atom, donor atom, acceptor molecule, acceptor atom, score
      P1  H  6931  6943       L1     4  0.78
      P1  H  6934  6947       L1     4  0.76
      P1  H  7989  7998       L1    16  0.46
      P1  H  7997  8009       L1    24  0.96
      P1  H  8011  8017       L1    15  0.36

> <Gold.Chemscore.Hbond.Weighted>
-11.7398

> <Gold.Chemscore.Metal.Weighted>
-0.0000

> <Gold.Chemscore.Lipo.Weighted>
-6.5088

> <Gold.Chemscore.Internal_Hbond.Weighted>
0.0000

> <Gold.Chemscore.DEClash.Weighted>
1.4230

> <Gold.Chemscore.DEInternal.Weighted>
1.2427

> <Gold.Chemscore.Rot.Weighted>
8.3634

> <Gold.Chemscore.Internal.Correction.Weighted>
   9.000000E+99

> <Gold.Protein.RotatedTorsions>
[ 6907 6896 6895 6894 ] final  -59.46 input  -60.11 | X-H torsion
[ 7974 7965 7964 7962 ] final   15.86 input  175.53 | X-H torsion
[ 8008 7997 7996 7995 ] final  145.25 input   59.86 | X-H torsion
[ 10167 10162 10161 10158 ] final -101.91 input  -65.29 | X-H torsion
[ 10718 10713 10712 10709 ] final   27.69 input   66.30 | X-H torsion
[ 10763 10752 10751 10750 ] final  113.43 input  -60.55 | X-H torsion
[ 11005 11000 10999 10996 ] final   98.24 input  -57.11 | X-H torsion

> <Gold.Protein.ActiveResidues>
 VAL166  LYS551  ARG553  GLY616  TRP617  ASP618  TYR619  PRO620  LYS621  CYS622 
 ASP623  PHE694  ASN695  SER759  ASP760  ASP761  ALA762  ILE779  LEU786  VAL792 
 PHE793  MET794  SER795  GLU796  ALA797  LYS798  CYS799  TRP800  GLU811  SER814 

> <Gold.Protein.RotatedAtoms>
  150.7929  134.6966  159.6526 H   0  0  0  0  0  0  0  0  0  0  0  0  # atno 6907 bound_to 6896
  152.4037  134.6240  160.0068 H   0  0  0  0  0  0  0  0  0  0  0  0  # atno 6908 bound_to 6896
  151.6504  133.3284  159.3186 H   0  0  0  0  0  0  0  0  0  0  0  0  # atno 6909 bound_to 6896
  146.2266  139.8832  142.8567 H   0  0  0  0  0  0  0  0  0  0  0  0  # atno 7974 bound_to 7965
  156.2888  140.2214  156.5185 H   0  0  0  0  0  0  0  0  0  0  0  0  # atno 8008 bound_to 7997
  154.7548  140.0477  157.0946 H   0  0  0  0  0  0  0  0  0  0  0  0  # atno 8009 bound_to 7997
  155.0064  140.3108  155.4850 H   0  0  0  0  0  0  0  0  0  0  0  0  # atno 8010 bound_to 7997
  140.2363  143.3571  152.0842 H   0  0  0  0  0  0  0  0  0  0  0  0  # atno 10167 bound_to 10162
  157.2235  130.6990  149.6281 H   0  0  0  0  0  0  0  0  0  0  0  0  # atno 10718 bound_to 10713
  153.4925  135.3655  155.2499 H   0  0  0  0  0  0  0  0  0  0  0  0  # atno 10763 bound_to 10752
  154.8751  135.3980  154.3573 H   0  0  0  0  0  0  0  0  0  0  0  0  # atno 10764 bound_to 10752
  153.4195  135.7080  153.6370 H   0  0  0  0  0  0  0  0  0  0  0  0  # atno 10765 bound_to 10752
  139.8773  134.9040  156.4427 H   0  0  0  0  0  0  0  0  0  0  0  0  # atno 11005 bound_to 11000
  145.2491  141.0037  143.3891 LP  0  0  0  0  0  0  0  0  0  0  0  0  # atno 17320 bound_to 7965
  144.9389  139.4212  143.6458 LP  0  0  0  0  0  0  0  0  0  0  0  0  # atno 17321 bound_to 7965
  139.5092  144.6864  151.5876 LP  0  0  0  0  0  0  0  0  0  0  0  0  # atno 17342 bound_to 10162
  140.6147  143.9370  150.6480 LP  0  0  0  0  0  0  0  0  0  0  0  0  # atno 17343 bound_to 10162
  155.9680  130.4512  150.5727 LP  0  0  0  0  0  0  0  0  0  0  0  0  # atno 17370 bound_to 10713
  157.3552  131.0740  151.1681 LP  0  0  0  0  0  0  0  0  0  0  0  0  # atno 17371 bound_to 10713
  140.8988  133.7795  155.9656 LP  0  0  0  0  0  0  0  0  0  0  0  0  # atno 17394 bound_to 11000
  140.8674  134.2768  157.5207 LP  0  0  0  0  0  0  0  0  0  0  0  0  # atno 17395 bound_to 11000

$$$$
