AV-unprocessed.smi:2135|AV-procd|sdf|8701|dock7
  -GOLD-   2272011463D 1   1.00000     0.00000
 Structure written by MMmdl.
 43 44  0  0  0  0  0  0  0  0  2 V2000
  151.2298  141.3695  156.6761 C   0  0  0  0  0  0  0  0  0  0  0  0
  150.5010  139.8877  155.8658 S   0  0  0  0  0  0  0  0  0  0  0  0
  151.0781  139.7725  154.5177 O   0  0  0  0  0  0  0  0  0  0  0  0
  150.6033  138.7577  156.8019 O   0  0  0  0  0  0  0  0  0  0  0  0
  148.8147  140.2815  155.6920 N   0  0  0  0  0  0  0  0  0  0  0  0
  148.4146  141.6089  155.1824 C   0  0  0  0  0  0  0  0  0  0  0  0
  147.9946  141.5467  153.7033 C   0  0  0  0  0  0  0  0  0  0  0  0
  146.9137  140.4833  153.4770 C   0  0  0  0  0  0  0  0  0  0  0  0
  147.4165  139.1166  153.9759 C   0  0  2  0  0  0  0  0  0  0  0  0
  146.3559  138.0261  153.7752 C   0  0  0  0  0  0  0  0  0  0  0  0
  145.2428  138.1381  154.2900 O   0  0  0  0  0  0  0  0  0  0  0  0
  146.7150  136.9708  153.0276 N   0  0  0  0  0  0  0  0  0  0  0  0
  145.8602  135.8277  152.7316 C   0  0  0  0  0  0  0  0  0  0  0  0
  146.4980  134.9004  151.6838 C   0  0  0  0  0  0  0  0  0  0  0  0
  145.5496  133.8040  151.2410 C   0  0  0  0  0  0  0  0  0  0  0  0
  145.9202  132.4449  151.3430 C   0  0  0  0  0  0  0  0  0  0  0  0
  145.0168  131.4485  150.9176 C   0  0  0  0  0  0  0  0  0  0  0  0
  143.7637  131.8341  150.3988 C   0  0  0  0  0  0  0  0  0  0  0  0
  143.4443  133.1444  150.3166 N   0  3  0  0  0  0  0  0  0  0  0  0
  144.2808  134.1283  150.7138 C   0  0  0  0  0  0  0  0  0  0  0  0
  147.8246  139.2095  155.4629 C   0  0  0  0  0  0  0  0  0  0  0  0
  152.2930  141.1965  156.8414 H   0  0  0  0  0  0  0  0  0  0  0  0
  150.7471  141.5419  157.6364 H   0  0  0  0  0  0  0  0  0  0  0  0
  151.1105  142.2407  156.0349 H   0  0  0  0  0  0  0  0  0  0  0  0
  147.5785  141.9691  155.7830 H   0  0  0  0  0  0  0  0  0  0  0  0
  149.2221  142.3278  155.3179 H   0  0  0  0  0  0  0  0  0  0  0  0
  147.6249  142.5221  153.3860 H   0  0  0  0  0  0  0  0  0  0  0  0
  148.8579  141.3309  153.0751 H   0  0  0  0  0  0  0  0  0  0  0  0
  146.0033  140.7732  154.0042 H   0  0  0  0  0  0  0  0  0  0  0  0
  146.6607  140.4335  152.4172 H   0  0  0  0  0  0  0  0  0  0  0  0
  148.2927  138.8454  153.3872 H   0  0  0  0  0  0  0  0  0  0  0  0
  147.6476  136.9580  152.6406 H   0  0  0  0  0  0  0  0  0  0  0  0
  145.6442  135.2783  153.6496 H   0  0  0  0  0  0  0  0  0  0  0  0
  144.9054  136.2041  152.3633 H   0  0  0  0  0  0  0  0  0  0  0  0
  146.8126  135.4785  150.8136 H   0  0  0  0  0  0  0  0  0  0  0  0
  147.4000  134.4368  152.0856 H   0  0  0  0  0  0  0  0  0  0  0  0
  146.8852  132.1670  151.7414 H   0  0  0  0  0  0  0  0  0  0  0  0
  145.2817  130.4036  150.9876 H   0  0  0  0  0  0  0  0  0  0  0  0
  143.0131  131.1396  150.0499 H   0  0  0  0  0  0  0  0  0  0  0  0
  143.9134  135.1377  150.5969 H   0  0  0  0  0  0  0  0  0  0  0  0
  148.2190  138.2551  155.8119 H   0  0  0  0  0  0  0  0  0  0  0  0
  146.9496  139.4206  156.0794 H   0  0  0  0  0  0  0  0  0  0  0  0
  142.5325  133.4024  149.9381 H   0  0  0  0  0  0  0  0  0  0  0  0
  1  2  1  0  0  0  0
  1 22  1  0  0  0  0
  1 23  1  0  0  0  0
  1 24  1  0  0  0  0
  2  3  2  0  0  0  0
  2  4  2  0  0  0  0
  2  5  1  0  0  0  0
  5 21  1  0  0  0  0
  5  6  1  0  0  0  0
  6  7  1  0  0  0  0
  6 25  1  0  0  0  0
  6 26  1  0  0  0  0
  7  8  1  0  0  0  0
  7 27  1  0  0  0  0
  7 28  1  0  0  0  0
  8  9  1  0  0  0  0
  8 29  1  0  0  0  0
  8 30  1  0  0  0  0
  9 10  1  0  0  0  0
  9 21  1  0  0  0  0
  9 31  1  0  0  0  0
 10 11  2  0  0  0  0
 10 12  1  0  0  0  0
 12 13  1  0  0  0  0
 12 32  1  0  0  0  0
 13 14  1  0  0  0  0
 13 33  1  0  0  0  0
 13 34  1  0  0  0  0
 14 15  1  0  0  0  0
 14 35  1  0  0  0  0
 14 36  1  0  0  0  0
 15 20  1  0  0  0  0
 15 16  2  0  0  0  0
 16 17  1  0  0  0  0
 16 37  1  0  0  0  0
 17 18  2  0  0  0  0
 17 38  1  0  0  0  0
 18 19  1  0  0  0  0
 18 39  1  0  0  0  0
 19 20  2  0  0  0  0
 19 43  1  0  0  0  0
 20 40  1  0  0  0  0
 21 41  1  0  0  0  0
 21 42  1  0  0  0  0
M  CHG  1  19   1
M  END
> <s_m_source_file>
AV-unprocessed.smi

> <i_m_source_file_index>
2135

> <i_lp_mmshare_version>
43012

> <i_f3d_flags>
0

> <s_epik_input>
W0NIM11TKD1PKSg9TylOMVtDSDJdW0NIMl1bQ0gyXVtDQEhdKFtDSDJdMSlDKD1PKVtOSF1bQ0gyXVtDSDJdYzJbY0hdW2NIXVtjSF1uW2NIXTI=

> <s_epik_cmdline>
J2VwaWtfcHl0aG9uJywgJy1waCcsICc3LjAnLCAnLXRuJywgJzgnLCAnLW1hJywgJzIwMCcsICctbWV0YWxfYmluZGluZycsICctaW1hZScsICc8aW5maWxlLm1hZT4nLCAnLW9tYWUnLCAnPG91dGZpbGUubWFlPic=

> <r_epik_Ionization_Penalty>
2.24912

> <r_epik_Ionization_Penalty_Charging>
2.24912

> <r_epik_Ionization_Penalty_Neutral>
2.62834e-08

> <r_epik_State_Penalty>
2.39611

> <r_epik_Charging_Adjusted_Penalty>
4.64523

> <i_epik_Tot_Q>
1

> <i_epik_Tot_abs_Q>
1

> <r_epik_Metal_State_Penalty>
2.40934

> <b_epik_Metal_Only>
0

> <s_lp_Force_Field>
OPLS_2005

> <r_lp_Energy>
6.9467

> <b_lp_Chiralities_Consistent>
1

> <s_lp_Variant>
AV-unprocessed.smi:2135-4

> <Gold.Version>
5.8.1

> <Gold.Id.Protein>
6NUR|6NUR_protein|mol2

> <Gold.PLP.Fitness>
41.9583

> <Gold.PLP.PLP>
-30.4090

> <Gold.PLP.part.hbond>
-3.0000

> <Gold.PLP.part.metal>
0.0000

> <Gold.PLP.part.buried>
-2.1744

> <Gold.PLP.part.nonpolar>
-24.8133

> <Gold.PLP.part.repulsive>
0.2422

> <Gold.PLP.ligand.clash>
0.0000

> <Gold.PLP.ligand.torsion>
1.2613

> <Gold.PLP.Chemscore.Hbond>
4.0000

> <Gold.PLP.Chemscore.CHOScore>
0.0000

> <Gold.PLP.Chemscore.Metal>
0.0000

> <Gold.Chemscore.Hbonds>
donor molecule, donor type, donor heavy atom, donor atom, acceptor molecule, acceptor atom, score
      L1  H    12    32       P1  7948  1.00
      L1  H    19    43       P1 10186  2.00
      P1  H  7989  7998       L1     3  1.00

> <Gold.PLP.Chemscore.Internal.Correction>
2.0719

> <Gold.Rescore>
     Score         DG    S(hbond)    S(metal)    S(lipo)     H(rot)  DE(clash)    DE(int)     intcor
     19.00     -20.65       2.98        0.00      80.68       1.65       0.40       1.25       ----

> <Gold.Chemscore.Fitness>
18.9979

> <Gold.Chemscore.DG>
-20.6514

> <Gold.Chemscore.ZeroCoef>
-5.4800

> <Gold.Chemscore.Hbond>
2.9836

> <Gold.Chemscore.Metal>
0.0000

> <Gold.Chemscore.Lipo>
80.6831

> <Gold.Chemscore.Internal_Hbond>
0.0000

> <Gold.Chemscore.DEClash>
0.4006

> <Gold.Chemscore.DEInternal>
1.2528

> <Gold.Chemscore.Rot>
1.6538

> <Gold.Chemscore.Internal.Correction>
   9.000000E+99

> <Gold.Chemscore.Hbonds>
donor molecule, donor type, donor heavy atom, donor atom, acceptor molecule, acceptor atom, score
      L1  H    12    32       P1  7948  0.97
      L1  H    19    43       P1 10186  1.00
      P1  H  7989  7998       L1     3  0.98

> <Gold.Chemscore.Hbond.Weighted>
-9.9651

> <Gold.Chemscore.Metal.Weighted>
-0.0000

> <Gold.Chemscore.Lipo.Weighted>
-9.4399

> <Gold.Chemscore.Internal_Hbond.Weighted>
0.0000

> <Gold.Chemscore.DEClash.Weighted>
0.4006

> <Gold.Chemscore.DEInternal.Weighted>
1.2528

> <Gold.Chemscore.Rot.Weighted>
4.2337

> <Gold.Chemscore.Internal.Correction.Weighted>
   9.000000E+99

> <Gold.Protein.RotatedTorsions>
[ 6907 6896 6895 6894 ] final -120.29 input  -60.11 | X-H torsion
[ 7974 7965 7964 7962 ] final   63.45 input  175.53 | X-H torsion
[ 8008 7997 7996 7995 ] final  168.97 input   59.86 | X-H torsion
[ 10167 10162 10161 10158 ] final -121.18 input  -65.29 | X-H torsion
[ 10718 10713 10712 10709 ] final -151.60 input   66.30 | X-H torsion
[ 10763 10752 10751 10750 ] final   -7.89 input  -60.55 | X-H torsion
[ 11005 11000 10999 10996 ] final  145.22 input  -57.11 | X-H torsion

> <Gold.Protein.ActiveResidues>
 VAL166  LYS551  ARG553  GLY616  TRP617  ASP618  TYR619  PRO620  LYS621  CYS622 
 ASP623  PHE694  ASN695  SER759  ASP760  ASP761  ALA762  ILE779  LEU786  VAL792 
 PHE793  MET794  SER795  GLU796  ALA797  LYS798  CYS799  TRP800  GLU811  SER814 

> <Gold.Protein.RotatedAtoms>
  150.8380  133.7981  159.3071 H   0  0  0  0  0  0  0  0  0  0  0  0  # atno 6907 bound_to 6896
  151.5691  135.1061  160.0000 H   0  0  0  0  0  0  0  0  0  0  0  0  # atno 6908 bound_to 6896
  152.4449  133.7476  159.6732 H   0  0  0  0  0  0  0  0  0  0  0  0  # atno 6909 bound_to 6896
  145.8617  139.3319  143.0815 H   0  0  0  0  0  0  0  0  0  0  0  0  # atno 7974 bound_to 7965
  156.1499  140.1576  156.8786 H   0  0  0  0  0  0  0  0  0  0  0  0  # atno 8008 bound_to 7997
  154.5062  140.0812  156.7935 H   0  0  0  0  0  0  0  0  0  0  0  0  # atno 8009 bound_to 7997
  155.3916  140.3410  155.4254 H   0  0  0  0  0  0  0  0  0  0  0  0  # atno 8010 bound_to 7997
  140.0278  143.5279  152.2191 H   0  0  0  0  0  0  0  0  0  0  0  0  # atno 10167 bound_to 10162
  156.4613  130.8215  151.2445 H   0  0  0  0  0  0  0  0  0  0  0  0  # atno 10718 bound_to 10713
  153.4327  135.7012  153.6220 H   0  0  0  0  0  0  0  0  0  0  0  0  # atno 10763 bound_to 10752
  153.4628  135.3732  155.2348 H   0  0  0  0  0  0  0  0  0  0  0  0  # atno 10764 bound_to 10752
  154.8726  135.4024  154.3713 H   0  0  0  0  0  0  0  0  0  0  0  0  # atno 10765 bound_to 10752
  140.0695  134.9160  157.1321 H   0  0  0  0  0  0  0  0  0  0  0  0  # atno 11005 bound_to 11000
  145.9240  140.9095  143.0390 LP  0  0  0  0  0  0  0  0  0  0  0  0  # atno 17320 bound_to 7965
  144.6726  140.1328  143.7442 LP  0  0  0  0  0  0  0  0  0  0  0  0  # atno 17321 bound_to 7965
  139.6096  144.7605  151.2982 LP  0  0  0  0  0  0  0  0  0  0  0  0  # atno 17342 bound_to 10162
  140.7315  143.6850  150.7969 LP  0  0  0  0  0  0  0  0  0  0  0  0  # atno 17343 bound_to 10162
  157.7497  131.0106  150.3312 LP  0  0  0  0  0  0  0  0  0  0  0  0  # atno 17370 bound_to 10713
  156.3713  130.3864  149.7173 LP  0  0  0  0  0  0  0  0  0  0  0  0  # atno 17371 bound_to 10713
  140.3648  134.2454  155.7183 LP  0  0  0  0  0  0  0  0  0  0  0  0  # atno 17394 bound_to 11000
  141.2006  133.7983  157.0481 LP  0  0  0  0  0  0  0  0  0  0  0  0  # atno 17395 bound_to 11000

$$$$
