AV-unprocessed.smi:624|AV-procd|sdf|3099|dock1
  -GOLD-   22720 0 23D 1   1.00000     0.00000
 Structure written by MMmdl.
 30 32  0  0  0  0  0  0  0  0  1 V2000
  148.7690  141.2108  158.3578 O   0  0  0  0  0  0  0  0  0  0  0  0
  148.8353  142.1622  157.5800 C   0  0  0  0  0  0  0  0  0  0  0  0
  149.6944  143.1894  157.6815 N   0  0  0  0  0  0  0  0  0  0  0  0
  150.7059  143.3873  158.6544 C   0  0  0  0  0  0  0  0  0  0  0  0
  150.7135  142.5839  159.7246 N   0  0  0  0  0  0  0  0  0  0  0  0
  151.7516  142.8882  160.5967 N   0  0  0  0  0  0  0  0  0  0  0  0
  152.4859  143.9117  160.1499 C   0  0  0  0  0  0  0  0  0  0  0  0
  151.9842  144.6054  158.6183 S   0  0  0  0  0  0  0  0  0  0  0  0
  148.0429  142.2998  156.5068 N   0  0  0  0  0  0  0  0  0  0  0  0
  147.0135  141.3569  156.0806 C   0  0  0  0  0  0  0  0  0  0  0  0
  147.3886  140.6246  154.8016 C   0  0  0  0  0  0  0  0  0  0  0  0
  148.8014  140.6462  154.2661 C   0  0  0  0  0  0  0  0  0  0  0  0
  147.7020  141.3721  153.5264 C   0  0  0  0  0  0  0  0  0  0  0  0
  145.6683  142.0416  155.9184 C   0  0  0  0  0  0  0  0  0  0  0  0
  145.4887  143.1906  154.9552 C   0  0  0  0  0  0  0  0  0  0  0  0
  145.4211  143.4355  156.4457 C   0  0  0  0  0  0  0  0  0  0  0  0
  149.6271  143.9067  156.9747 H   0  0  0  0  0  0  0  0  0  0  0  0
  153.3292  144.2607  160.7275 H   0  0  0  0  0  0  0  0  0  0  0  0
  148.1686  143.1185  155.9293 H   0  0  0  0  0  0  0  0  0  0  0  0
  146.8950  140.6080  156.8668 H   0  0  0  0  0  0  0  0  0  0  0  0
  146.8595  139.6816  154.6762 H   0  0  0  0  0  0  0  0  0  0  0  0
  149.5377  141.2569  154.7845 H   0  0  0  0  0  0  0  0  0  0  0  0
  149.1847  139.7291  153.8234 H   0  0  0  0  0  0  0  0  0  0  0  0
  147.3500  140.9386  152.5927 H   0  0  0  0  0  0  0  0  0  0  0  0
  147.7135  142.4596  153.5600 H   0  0  0  0  0  0  0  0  0  0  0  0
  144.8246  141.3579  155.9965 H   0  0  0  0  0  0  0  0  0  0  0  0
  146.3688  143.5537  154.4278 H   0  0  0  0  0  0  0  0  0  0  0  0
  144.5573  143.2349  154.3946 H   0  0  0  0  0  0  0  0  0  0  0  0
  144.4447  143.6415  156.8796 H   0  0  0  0  0  0  0  0  0  0  0  0
  146.2543  143.9680  156.8997 H   0  0  0  0  0  0  0  0  0  0  0  0
  1  2  2  0  0  0  0
  2  3  1  0  0  0  0
  2  9  1  0  0  0  0
  3  4  1  0  0  0  0
  3 17  1  0  0  0  0
  4  8  1  0  0  0  0
  4  5  2  0  0  0  0
  5  6  1  0  0  0  0
  6  7  2  0  0  0  0
  7  8  1  0  0  0  0
  7 18  1  0  0  0  0
  9 10  1  0  0  0  0
  9 19  1  0  0  0  0
 10 11  1  0  0  0  0
 10 14  1  0  0  0  0
 10 20  1  0  0  0  0
 11 13  1  0  0  0  0
 11 12  1  0  0  0  0
 11 21  1  0  0  0  0
 12 13  1  0  0  0  0
 12 22  1  0  0  0  0
 12 23  1  0  0  0  0
 13 24  1  0  0  0  0
 13 25  1  0  0  0  0
 14 16  1  0  0  0  0
 14 15  1  0  0  0  0
 14 26  1  0  0  0  0
 15 16  1  0  0  0  0
 15 27  1  0  0  0  0
 15 28  1  0  0  0  0
 16 29  1  0  0  0  0
 16 30  1  0  0  0  0
M  END
> <s_m_source_file>
AV-unprocessed.smi

> <i_m_source_file_index>
624

> <i_lp_mmshare_version>
43012

> <i_f3d_flags>
0

> <s_epik_input>
W0NIMl0xW0NIMl1bQ0hdMVtDSF0oW0NIXTJbQ0gyXVtDSDJdMilbTkhdQyg9TylbTkhdYzNubltjSF1zMw==

> <s_epik_cmdline>
J2VwaWtfcHl0aG9uJywgJy1waCcsICc3LjAnLCAnLXRuJywgJzgnLCAnLW1hJywgJzIwMCcsICctbWV0YWxfYmluZGluZycsICctaW1hZScsICc8aW5maWxlLm1hZT4nLCAnLW9tYWUnLCAnPG91dGZpbGUubWFlPic=

> <r_lp_tautomer_probability>
1

> <r_epik_Ionization_Penalty>
0.000305758

> <r_epik_Ionization_Penalty_Charging>
0

> <r_epik_Ionization_Penalty_Neutral>
0.000305758

> <r_epik_State_Penalty>
-0

> <r_epik_Charging_Adjusted_Penalty>
0

> <i_epik_Tot_Q>
0

> <i_epik_Tot_abs_Q>
0

> <r_epik_Metal_State_Penalty>
0.165203

> <b_epik_Metal_Only>
0

> <s_lp_Force_Field>
OPLS_2005

> <r_lp_Energy>
21.213

> <b_lp_Chiralities_Consistent>
1

> <s_lp_Variant>
AV-unprocessed.smi:624-1

> <Gold.Version>
5.8.1

> <Gold.Id.Protein>
6NUR|6NUR_protein|mol2

> <Gold.PLP.Fitness>
33.9540

> <Gold.PLP.PLP>
-28.5635

> <Gold.PLP.part.hbond>
-4.4431

> <Gold.PLP.part.metal>
0.0000

> <Gold.PLP.part.buried>
-3.9919

> <Gold.PLP.part.nonpolar>
-20.3108

> <Gold.PLP.part.repulsive>
0.1380

> <Gold.PLP.ligand.clash>
0.0000

> <Gold.PLP.ligand.torsion>
1.3641

> <Gold.PLP.Chemscore.Hbond>
2.0000

> <Gold.PLP.Chemscore.CHOScore>
0.0000

> <Gold.PLP.Chemscore.Metal>
0.0000

> <Gold.Chemscore.Hbonds>
donor molecule, donor type, donor heavy atom, donor atom, acceptor molecule, acceptor atom, score
      L1  H     3    17       P1  8028  1.00
      L1  H     9    19       P1  8028  1.00

> <Gold.PLP.Chemscore.Internal.Correction>
2.1188

> <Gold.Rescore>
     Score         DG    S(hbond)    S(metal)    S(lipo)     H(rot)  DE(clash)    DE(int)     intcor
     11.75     -14.54       1.79        0.00      59.75       1.52       0.08       2.72       ----

> <Gold.Chemscore.Fitness>
11.7452

> <Gold.Chemscore.DG>
-14.5431

> <Gold.Chemscore.ZeroCoef>
-5.4800

> <Gold.Chemscore.Hbond>
1.7875

> <Gold.Chemscore.Metal>
0.0000

> <Gold.Chemscore.Lipo>
59.7538

> <Gold.Chemscore.Internal_Hbond>
0.0000

> <Gold.Chemscore.DEClash>
0.0824

> <Gold.Chemscore.DEInternal>
2.7155

> <Gold.Chemscore.Rot>
1.5227

> <Gold.Chemscore.Internal.Correction>
   9.000000E+99

> <Gold.Chemscore.Hbonds>
donor molecule, donor type, donor heavy atom, donor atom, acceptor molecule, acceptor atom, score
      L1  H     3    17       P1  8028  0.84
      L1  H     9    19       P1  8028  0.71

> <Gold.Chemscore.Hbond.Weighted>
-5.9701

> <Gold.Chemscore.Metal.Weighted>
-0.0000

> <Gold.Chemscore.Lipo.Weighted>
-6.9912

> <Gold.Chemscore.Internal_Hbond.Weighted>
0.0000

> <Gold.Chemscore.DEClash.Weighted>
0.0824

> <Gold.Chemscore.DEInternal.Weighted>
2.7155

> <Gold.Chemscore.Rot.Weighted>
3.8982

> <Gold.Chemscore.Internal.Correction.Weighted>
   9.000000E+99

> <Gold.Protein.RotatedTorsions>
[ 6907 6896 6895 6894 ] final  -53.24 input  -60.11 | X-H torsion
[ 7974 7965 7964 7962 ] final  136.78 input  175.53 | X-H torsion
[ 8008 7997 7996 7995 ] final  143.33 input   59.86 | X-H torsion
[ 10167 10162 10161 10158 ] final  -38.76 input  -65.29 | X-H torsion
[ 10718 10713 10712 10709 ] final  146.12 input   66.30 | X-H torsion
[ 10763 10752 10751 10750 ] final  123.15 input  -60.55 | X-H torsion
[ 11005 11000 10999 10996 ] final    5.46 input  -57.11 | X-H torsion

> <Gold.Protein.ActiveResidues>
 VAL166  LYS551  ARG553  GLY616  TRP617  ASP618  TYR619  PRO620  LYS621  CYS622 
 ASP623  PHE694  ASN695  SER759  ASP760  ASP761  ALA762  ILE779  LEU786  VAL792 
 PHE793  MET794  SER795  GLU796  ALA797  LYS798  CYS799  TRP800  GLU811  SER814 

> <Gold.Protein.RotatedAtoms>
  150.8445  134.7749  159.6958 H   0  0  0  0  0  0  0  0  0  0  0  0  # atno 6907 bound_to 6896
  152.4525  134.5360  159.9835 H   0  0  0  0  0  0  0  0  0  0  0  0  # atno 6908 bound_to 6896
  151.5493  133.3382  159.2986 H   0  0  0  0  0  0  0  0  0  0  0  0  # atno 6909 bound_to 6896
  144.9531  139.4795  143.5516 H   0  0  0  0  0  0  0  0  0  0  0  0  # atno 7974 bound_to 7965
  156.2932  140.2265  156.4873 H   0  0  0  0  0  0  0  0  0  0  0  0  # atno 8008 bound_to 7997
  154.7801  140.0461  157.1141 H   0  0  0  0  0  0  0  0  0  0  0  0  # atno 8009 bound_to 7997
  154.9769  140.3073  155.4966 H   0  0  0  0  0  0  0  0  0  0  0  0  # atno 8010 bound_to 7997
  140.7083  143.3257  151.2687 H   0  0  0  0  0  0  0  0  0  0  0  0  # atno 10167 bound_to 10162
  157.3370  131.0929  151.1114 H   0  0  0  0  0  0  0  0  0  0  0  0  # atno 10718 bound_to 10713
  153.6411  135.3379  155.3071 H   0  0  0  0  0  0  0  0  0  0  0  0  # atno 10763 bound_to 10752
  154.8559  135.4318  154.2004 H   0  0  0  0  0  0  0  0  0  0  0  0  # atno 10764 bound_to 10752
  153.2923  135.7018  153.7355 H   0  0  0  0  0  0  0  0  0  0  0  0  # atno 10765 bound_to 10752
  140.5705  134.0107  155.8007 H   0  0  0  0  0  0  0  0  0  0  0  0  # atno 11005 bound_to 11000
  146.3328  139.8631  142.8853 LP  0  0  0  0  0  0  0  0  0  0  0  0  # atno 17320 bound_to 7965
  145.2813  141.0139  143.3716 LP  0  0  0  0  0  0  0  0  0  0  0  0  # atno 17321 bound_to 7965
  139.6724  143.9997  152.2761 LP  0  0  0  0  0  0  0  0  0  0  0  0  # atno 17342 bound_to 10162
  139.9600  144.6564  150.8089 LP  0  0  0  0  0  0  0  0  0  0  0  0  # atno 17343 bound_to 10162
  157.2341  130.6539  149.5862 LP  0  0  0  0  0  0  0  0  0  0  0  0  # atno 17370 bound_to 10713
  155.9703  130.4589  150.6017 LP  0  0  0  0  0  0  0  0  0  0  0  0  # atno 17371 bound_to 10713
  141.1059  133.9694  157.2998 LP  0  0  0  0  0  0  0  0  0  0  0  0  # atno 17394 bound_to 11000
  139.9364  135.0196  156.8569 LP  0  0  0  0  0  0  0  0  0  0  0  0  # atno 17395 bound_to 11000

$$$$
