AV-unprocessed.smi:2012|AV-procd|sdf|8155|dock6
  -GOLD-   2272010393D 1   1.00000     0.00000
 Structure written by MMmdl.
 50 51  0  0  0  0  0  0  0  0  1 V2000
  145.2272  134.7694  152.4029 C   0  0  0  0  0  0  0  0  0  0  0  0
  145.9689  134.6838  153.7318 C   0  0  0  0  0  0  0  0  0  0  0  0
  145.4442  134.1270  154.6958 O   0  0  0  0  0  0  0  0  0  0  0  0
  147.1892  135.2439  153.7688 N   0  0  0  0  0  0  0  0  0  0  0  0
  148.0562  135.3168  154.9474 C   0  0  2  0  0  0  0  0  0  0  0  0
  148.2950  136.8043  155.2656 C   0  0  0  0  0  0  0  0  0  0  0  0
  148.1558  137.2292  156.4137 O   0  0  0  0  0  0  0  0  0  0  0  0
  148.6702  137.5792  154.2363 N   0  0  0  0  0  0  0  0  0  0  0  0
  149.0409  138.9876  154.3419 C   0  0  0  0  0  0  0  0  0  0  0  0
  150.4036  139.2477  154.9770 C   0  0  0  0  0  0  0  0  0  0  0  0
  151.5362  138.5627  154.4958 C   0  0  0  0  0  0  0  0  0  0  0  0
  152.7852  138.8289  155.0877 C   0  0  0  0  0  0  0  0  0  0  0  0
  152.9548  139.7091  156.0964 N   0  0  0  0  0  0  0  0  0  0  0  0
  151.8725  140.3684  156.5787 C   0  0  0  0  0  0  0  0  0  0  0  0
  152.0629  141.2981  157.6244 N   0  0  0  0  0  0  0  0  0  0  0  0
  152.4863  140.7987  158.9309 C   0  0  0  0  0  0  0  0  0  0  0  0
  152.9728  141.9611  159.8135 C   0  0  0  0  0  0  0  0  0  0  0  0
  151.9606  142.9588  159.9007 O   0  0  0  0  0  0  0  0  0  0  0  0
  151.6440  143.5063  158.6248 C   0  0  0  0  0  0  0  0  0  0  0  0
  151.1052  142.3986  157.7041 C   0  0  0  0  0  0  0  0  0  0  0  0
  150.5800  140.1568  156.0448 C   0  0  0  0  0  0  0  0  0  0  0  0
  149.4066  134.6096  154.6299 C   0  0  0  0  0  0  0  0  0  0  0  0
  149.1921  133.1783  154.1001 C   0  0  0  0  0  0  0  0  0  0  0  0
  150.3583  134.5607  155.8435 C   0  0  0  0  0  0  0  0  0  0  0  0
  144.9489  135.8019  152.1913 H   0  0  0  0  0  0  0  0  0  0  0  0
  144.3172  134.1689  152.4275 H   0  0  0  0  0  0  0  0  0  0  0  0
  145.8544  134.4048  151.5889 H   0  0  0  0  0  0  0  0  0  0  0  0
  147.5343  135.6815  152.9269 H   0  0  0  0  0  0  0  0  0  0  0  0
  147.5769  134.8218  155.7948 H   0  0  0  0  0  0  0  0  0  0  0  0
  148.7594  137.1503  153.3266 H   0  0  0  0  0  0  0  0  0  0  0  0
  149.0473  139.4102  153.3372 H   0  0  0  0  0  0  0  0  0  0  0  0
  148.2733  139.5276  154.8990 H   0  0  0  0  0  0  0  0  0  0  0  0
  151.4537  137.8539  153.6851 H   0  0  0  0  0  0  0  0  0  0  0  0
  153.6737  138.3242  154.7381 H   0  0  0  0  0  0  0  0  0  0  0  0
  151.6497  140.2877  159.4096 H   0  0  0  0  0  0  0  0  0  0  0  0
  153.2923  140.0725  158.8180 H   0  0  0  0  0  0  0  0  0  0  0  0
  153.2029  141.5999  160.8159 H   0  0  0  0  0  0  0  0  0  0  0  0
  153.8906  142.3948  159.4129 H   0  0  0  0  0  0  0  0  0  0  0  0
  150.8941  144.2874  158.7501 H   0  0  0  0  0  0  0  0  0  0  0  0
  152.5258  143.9790  158.1885 H   0  0  0  0  0  0  0  0  0  0  0  0
  150.8881  142.8282  156.7281 H   0  0  0  0  0  0  0  0  0  0  0  0
  150.1624  142.0148  158.0958 H   0  0  0  0  0  0  0  0  0  0  0  0
  149.7378  140.7064  156.4329 H   0  0  0  0  0  0  0  0  0  0  0  0
  149.9158  135.1676  153.8419 H   0  0  0  0  0  0  0  0  0  0  0  0
  148.6571  132.5653  154.8261 H   0  0  0  0  0  0  0  0  0  0  0  0
  150.1446  132.6895  153.8932 H   0  0  0  0  0  0  0  0  0  0  0  0
  148.6221  133.1675  153.1709 H   0  0  0  0  0  0  0  0  0  0  0  0
  149.8932  134.0517  156.6885 H   0  0  0  0  0  0  0  0  0  0  0  0
  150.6546  135.5557  156.1757 H   0  0  0  0  0  0  0  0  0  0  0  0
  151.2763  134.0250  155.5998 H   0  0  0  0  0  0  0  0  0  0  0  0
  1  2  1  0  0  0  0
  1 25  1  0  0  0  0
  1 26  1  0  0  0  0
  1 27  1  0  0  0  0
  2  3  2  0  0  0  0
  2  4  1  0  0  0  0
  4  5  1  0  0  0  0
  4 28  1  0  0  0  0
  5  6  1  0  0  0  0
  5 22  1  0  0  0  0
  5 29  1  0  0  0  0
  6  7  2  0  0  0  0
  6  8  1  0  0  0  0
  8  9  1  0  0  0  0
  8 30  1  0  0  0  0
  9 10  1  0  0  0  0
  9 31  1  0  0  0  0
  9 32  1  0  0  0  0
 10 21  1  0  0  0  0
 10 11  2  0  0  0  0
 11 12  1  0  0  0  0
 11 33  1  0  0  0  0
 12 13  2  0  0  0  0
 12 34  1  0  0  0  0
 13 14  1  0  0  0  0
 14 15  1  0  0  0  0
 14 21  2  0  0  0  0
 15 20  1  0  0  0  0
 15 16  1  0  0  0  0
 16 17  1  0  0  0  0
 16 35  1  0  0  0  0
 16 36  1  0  0  0  0
 17 18  1  0  0  0  0
 17 37  1  0  0  0  0
 17 38  1  0  0  0  0
 18 19  1  0  0  0  0
 19 20  1  0  0  0  0
 19 39  1  0  0  0  0
 19 40  1  0  0  0  0
 20 41  1  0  0  0  0
 20 42  1  0  0  0  0
 21 43  1  0  0  0  0
 22 23  1  0  0  0  0
 22 24  1  0  0  0  0
 22 44  1  0  0  0  0
 23 45  1  0  0  0  0
 23 46  1  0  0  0  0
 23 47  1  0  0  0  0
 24 48  1  0  0  0  0
 24 49  1  0  0  0  0
 24 50  1  0  0  0  0
M  END
> <s_m_source_file>
AV-unprocessed.smi

> <i_m_source_file_index>
2012

> <i_lp_mmshare_version>
43012

> <i_f3d_flags>
0

> <s_epik_input>
W0NIM11DKD1PKVtOSF1bQ0BASF0oW0NIXShbQ0gzXSlbQ0gzXSlDKD1PKVtOSF1bQ0gyXWMxW2NIXVtjSF1uYyhbY0hdMSlOMltDSDJdW0NIMl1PW0NIMl1bQ0gyXTI=

> <s_epik_cmdline>
J2VwaWtfcHl0aG9uJywgJy1waCcsICc3LjAnLCAnLXRuJywgJzgnLCAnLW1hJywgJzIwMCcsICctbWV0YWxfYmluZGluZycsICctaW1hZScsICc8aW5maWxlLm1hZT4nLCAnLW9tYWUnLCAnPG91dGZpbGUubWFlPic=

> <r_lp_tautomer_probability>
1

> <r_epik_Ionization_Penalty>
0.00518786

> <r_epik_Ionization_Penalty_Charging>
0

> <r_epik_Ionization_Penalty_Neutral>
0.00518786

> <r_epik_State_Penalty>
0.00378052

> <r_epik_Charging_Adjusted_Penalty>
0.00378052

> <i_epik_Tot_Q>
0

> <i_epik_Tot_abs_Q>
0

> <r_epik_Metal_State_Penalty>
-0

> <b_epik_Metal_Only>
0

> <s_lp_Force_Field>
OPLS_2005

> <r_lp_Energy>
14.5368

> <b_lp_Chiralities_Consistent>
1

> <s_lp_Variant>
AV-unprocessed.smi:2012-1

> <Gold.Version>
5.8.1

> <Gold.Id.Protein>
6NUR|6NUR_protein|mol2

> <Gold.PLP.Fitness>
47.2682

> <Gold.PLP.PLP>
-39.4441

> <Gold.PLP.part.hbond>
-2.7990

> <Gold.PLP.part.metal>
0.0000

> <Gold.PLP.part.buried>
-4.5476

> <Gold.PLP.part.nonpolar>
-32.5429

> <Gold.PLP.part.repulsive>
0.1131

> <Gold.PLP.ligand.clash>
0.0000

> <Gold.PLP.ligand.torsion>
0.8230

> <Gold.PLP.Chemscore.Hbond>
2.9913

> <Gold.PLP.Chemscore.CHOScore>
0.0000

> <Gold.PLP.Chemscore.Metal>
0.0000

> <Gold.Chemscore.Hbonds>
donor molecule, donor type, donor heavy atom, donor atom, acceptor molecule, acceptor atom, score
      L1  H     4    28       P1  7948  1.00
      L1  H     8    30       P1  7948  1.00
      P1  H  7997  8010       L1    13  0.94

> <Gold.PLP.Chemscore.Internal.Correction>
0.4963

> <Gold.Rescore>
     Score         DG    S(hbond)    S(metal)    S(lipo)     H(rot)  DE(clash)    DE(int)     intcor
     19.05     -20.08       2.77        0.00      93.34       2.18       0.00       1.03       ----

> <Gold.Chemscore.Fitness>
19.0525

> <Gold.Chemscore.DG>
-20.0797

> <Gold.Chemscore.ZeroCoef>
-5.4800

> <Gold.Chemscore.Hbond>
2.7733

> <Gold.Chemscore.Metal>
0.0000

> <Gold.Chemscore.Lipo>
93.3430

> <Gold.Chemscore.Internal_Hbond>
0.0000

> <Gold.Chemscore.DEClash>
0.0000

> <Gold.Chemscore.DEInternal>
1.0272

> <Gold.Chemscore.Rot>
2.1813

> <Gold.Chemscore.Internal.Correction>
   9.000000E+99

> <Gold.Chemscore.Hbonds>
donor molecule, donor type, donor heavy atom, donor atom, acceptor molecule, acceptor atom, score
      L1  H     4    28       P1  7948  0.94
      L1  H     8    30       P1  7948  1.00
      P1  H  7997  8010       L1    13  0.53

> <Gold.Chemscore.Hbond.Weighted>
-9.2627

> <Gold.Chemscore.Metal.Weighted>
-0.0000

> <Gold.Chemscore.Lipo.Weighted>
-10.9211

> <Gold.Chemscore.Internal_Hbond.Weighted>
0.0000

> <Gold.Chemscore.DEClash.Weighted>
0.0000

> <Gold.Chemscore.DEInternal.Weighted>
1.0272

> <Gold.Chemscore.Rot.Weighted>
5.5842

> <Gold.Chemscore.Internal.Correction.Weighted>
   9.000000E+99

> <Gold.Protein.RotatedTorsions>
[ 6907 6896 6895 6894 ] final   -0.88 input  -60.11 | X-H torsion
[ 7974 7965 7964 7962 ] final -124.13 input  175.53 | X-H torsion
[ 8008 7997 7996 7995 ] final   96.19 input   59.86 | X-H torsion
[ 10167 10162 10161 10158 ] final  155.59 input  -65.29 | X-H torsion
[ 10718 10713 10712 10709 ] final  161.50 input   66.30 | X-H torsion
[ 10763 10752 10751 10750 ] final  166.80 input  -60.55 | X-H torsion
[ 11005 11000 10999 10996 ] final   82.65 input  -57.11 | X-H torsion

> <Gold.Protein.ActiveResidues>
 VAL166  LYS551  ARG553  GLY616  TRP617  ASP618  TYR619  PRO620  LYS621  CYS622 
 ASP623  PHE694  ASN695  SER759  ASP760  ASP761  ALA762  ILE779  LEU786  VAL792 
 PHE793  MET794  SER795  GLU796  ALA797  LYS798  CYS799  TRP800  GLU811  SER814 

> <Gold.Protein.RotatedAtoms>
  151.5550  135.1067  159.9958 H   0  0  0  0  0  0  0  0  0  0  0  0  # atno 6907 bound_to 6896
  152.4473  133.7557  159.6729 H   0  0  0  0  0  0  0  0  0  0  0  0  # atno 6908 bound_to 6896
  150.8392  133.7896  159.3091 H   0  0  0  0  0  0  0  0  0  0  0  0  # atno 6909 bound_to 6896
  145.0113  140.7908  143.4437 H   0  0  0  0  0  0  0  0  0  0  0  0  # atno 7974 bound_to 7965
  156.0769  140.3276  155.7645 H   0  0  0  0  0  0  0  0  0  0  0  0  # atno 8008 bound_to 7997
  155.5215  140.0585  157.2923 H   0  0  0  0  0  0  0  0  0  0  0  0  # atno 8009 bound_to 7997
  154.4560  140.1943  156.0395 H   0  0  0  0  0  0  0  0  0  0  0  0  # atno 8010 bound_to 7997
  139.4821  144.5085  151.8061 H   0  0  0  0  0  0  0  0  0  0  0  0  # atno 10167 bound_to 10162
  157.1357  131.0528  151.2351 H   0  0  0  0  0  0  0  0  0  0  0  0  # atno 10718 bound_to 10713
  154.3444  135.2753  155.2405 H   0  0  0  0  0  0  0  0  0  0  0  0  # atno 10763 bound_to 10752
  154.4662  135.5894  153.6293 H   0  0  0  0  0  0  0  0  0  0  0  0  # atno 10764 bound_to 10752
  152.9855  135.6077  154.3648 H   0  0  0  0  0  0  0  0  0  0  0  0  # atno 10765 bound_to 10752
  139.9056  134.8087  156.2204 H   0  0  0  0  0  0  0  0  0  0  0  0  # atno 11005 bound_to 11000
  145.2019  139.2247  143.5188 LP  0  0  0  0  0  0  0  0  0  0  0  0  # atno 17320 bound_to 7965
  146.3470  140.1839  142.8589 LP  0  0  0  0  0  0  0  0  0  0  0  0  # atno 17321 bound_to 7965
  140.4585  144.1755  150.5904 LP  0  0  0  0  0  0  0  0  0  0  0  0  # atno 17342 bound_to 10162
  140.4509  143.2487  151.9349 LP  0  0  0  0  0  0  0  0  0  0  0  0  # atno 17343 bound_to 10162
  157.4353  130.7513  149.7023 LP  0  0  0  0  0  0  0  0  0  0  0  0  # atno 17370 bound_to 10713
  155.9799  130.4035  150.3562 LP  0  0  0  0  0  0  0  0  0  0  0  0  # atno 17371 bound_to 10713
  141.0409  133.6938  156.1597 LP  0  0  0  0  0  0  0  0  0  0  0  0  # atno 17394 bound_to 11000
  140.6956  134.4619  157.5587 LP  0  0  0  0  0  0  0  0  0  0  0  0  # atno 17395 bound_to 11000

$$$$
