AV-unprocessed.smi:200|AV-procd|sdf|1577|dock10
  -GOLD-   2262019463D 1   1.00000     0.00000
 Structure written by MMmdl.
 56 59  0  0  0  0  0  0  0  0  1 V2000
  150.4424  138.4574  154.2408 C   0  0  0  0  0  0  0  0  0  0  0  0
  151.2836  139.5873  154.3882 O   0  0  0  0  0  0  0  0  0  0  0  0
  151.4188  139.9926  155.7402 C   0  0  0  0  0  0  0  0  0  0  0  0
  150.0614  140.5009  156.2448 C   0  0  0  0  0  0  0  0  0  0  0  0
  149.9728  140.5122  157.7056 N   0  0  0  0  0  0  0  0  0  0  0  0
  149.9588  139.2765  158.2568 C   0  0  0  0  0  0  0  0  0  0  0  0
  151.1291  138.6383  158.5207 N   0  0  0  0  0  0  0  0  0  0  0  0
  151.1138  137.4179  159.0653 C   0  0  0  0  0  0  0  0  0  0  0  0
  150.0631  136.6715  159.4136 N   0  0  0  0  0  0  0  0  0  0  0  0
  148.8881  137.3091  159.1425 C   0  0  0  0  0  0  0  0  0  0  0  0
  148.7485  138.6010  158.5636 C   0  0  0  0  0  0  0  0  0  0  0  0
  147.4048  138.9218  158.4248 N   0  0  0  0  0  0  0  0  0  0  0  0
  146.7823  137.8763  158.8963 C   0  0  0  0  0  0  0  0  0  0  0  0
  147.5952  136.8656  159.3608 N   0  0  0  0  0  0  0  0  0  0  0  0
  147.1610  135.6029  159.9390 C   0  0  0  0  0  0  0  0  0  0  0  0
  146.6241  135.7173  161.3816 C   0  0  0  0  0  0  0  0  0  0  0  0
  145.3350  136.5573  161.4249 C   0  0  0  0  0  0  0  0  0  0  0  0
  144.8215  136.6497  162.7385 O   0  0  0  0  0  0  0  0  0  0  0  0
  146.5625  134.4046  162.1747 C   0  0  0  0  0  0  0  0  0  0  0  0
  147.2724  134.9802  163.2914 O   0  0  0  0  0  0  0  0  0  0  0  0
  147.6569  136.0909  162.4545 C   0  0  0  0  0  0  0  0  0  0  0  0
  150.6717  141.5744  158.4444 C   0  0  1  0  0  0  0  0  0  0  0  0
  152.0069  141.1890  159.1002 C   0  0  0  0  0  0  0  0  0  0  0  0
  152.7021  142.5263  159.3911 C   0  0  0  0  0  0  0  0  0  0  0  0
  151.9783  143.5935  158.5457 C   0  0  1  0  0  0  0  0  0  0  0  0
  152.9249  144.5385  157.7940 C   0  0  0  0  0  0  0  0  0  0  0  0
  151.0297  142.8169  157.6241 C   0  0  0  0  0  0  0  0  0  0  0  0
  150.3707  138.1907  153.1864 H   0  0  0  0  0  0  0  0  0  0  0  0
  149.4356  138.6643  154.6058 H   0  0  0  0  0  0  0  0  0  0  0  0
  150.8412  137.5968  154.7793 H   0  0  0  0  0  0  0  0  0  0  0  0
  151.7283  139.1372  156.3419 H   0  0  0  0  0  0  0  0  0  0  0  0
  152.1936  140.7523  155.8449 H   0  0  0  0  0  0  0  0  0  0  0  0
  149.8893  141.5005  155.8413 H   0  0  0  0  0  0  0  0  0  0  0  0
  149.2659  139.8703  155.8474 H   0  0  0  0  0  0  0  0  0  0  0  0
  152.0822  136.9764  159.2491 H   0  0  0  0  0  0  0  0  0  0  0  0
  145.7040  137.8164  158.9274 H   0  0  0  0  0  0  0  0  0  0  0  0
  146.4011  135.1740  159.2847 H   0  0  0  0  0  0  0  0  0  0  0  0
  148.0029  134.9108  159.8965 H   0  0  0  0  0  0  0  0  0  0  0  0
  145.5278  137.5708  161.0713 H   0  0  0  0  0  0  0  0  0  0  0  0
  144.5666  136.1522  160.7662 H   0  0  0  0  0  0  0  0  0  0  0  0
  145.0878  137.4784  163.1067 H   0  0  0  0  0  0  0  0  0  0  0  0
  145.5523  134.0881  162.4372 H   0  0  0  0  0  0  0  0  0  0  0  0
  147.1206  133.5851  161.7188 H   0  0  0  0  0  0  0  0  0  0  0  0
  148.6941  136.0019  162.1291 H   0  0  0  0  0  0  0  0  0  0  0  0
  147.4791  137.0575  162.9270 H   0  0  0  0  0  0  0  0  0  0  0  0
  150.0125  141.8951  159.2508 H   0  0  0  0  0  0  0  0  0  0  0  0
  151.8694  140.5836  159.9967 H   0  0  0  0  0  0  0  0  0  0  0  0
  152.6414  140.6254  158.4163 H   0  0  0  0  0  0  0  0  0  0  0  0
  152.6312  142.7769  160.4503 H   0  0  0  0  0  0  0  0  0  0  0  0
  153.7634  142.4615  159.1476 H   0  0  0  0  0  0  0  0  0  0  0  0
  151.3647  144.1907  159.2221 H   0  0  0  0  0  0  0  0  0  0  0  0
  153.5657  143.9911  157.1023 H   0  0  0  0  0  0  0  0  0  0  0  0
  153.5685  145.0797  158.4878 H   0  0  0  0  0  0  0  0  0  0  0  0
  152.3642  145.2749  157.2179 H   0  0  0  0  0  0  0  0  0  0  0  0
  151.5497  142.5363  156.7080 H   0  0  0  0  0  0  0  0  0  0  0  0
  150.1550  143.4048  157.3451 H   0  0  0  0  0  0  0  0  0  0  0  0
  1  2  1  0  0  0  0
  1 28  1  0  0  0  0
  1 29  1  0  0  0  0
  1 30  1  0  0  0  0
  2  3  1  0  0  0  0
  3  4  1  0  0  0  0
  3 31  1  0  0  0  0
  3 32  1  0  0  0  0
  4  5  1  0  0  0  0
  4 33  1  0  0  0  0
  4 34  1  0  0  0  0
  5  6  1  0  0  0  0
  5 22  1  0  0  0  0
  6 11  1  0  0  0  0
  6  7  2  0  0  0  0
  7  8  1  0  0  0  0
  8  9  2  0  0  0  0
  8 35  1  0  0  0  0
  9 10  1  0  0  0  0
 10 14  1  0  0  0  0
 10 11  2  0  0  0  0
 11 12  1  0  0  0  0
 12 13  2  0  0  0  0
 13 14  1  0  0  0  0
 13 36  1  0  0  0  0
 14 15  1  0  0  0  0
 15 16  1  0  0  0  0
 15 37  1  0  0  0  0
 15 38  1  0  0  0  0
 16 21  1  0  0  0  0
 16 17  1  0  0  0  0
 16 19  1  0  0  0  0
 17 18  1  0  0  0  0
 17 39  1  0  0  0  0
 17 40  1  0  0  0  0
 18 41  1  0  0  0  0
 19 20  1  0  0  0  0
 19 42  1  0  0  0  0
 19 43  1  0  0  0  0
 20 21  1  0  0  0  0
 21 44  1  0  0  0  0
 21 45  1  0  0  0  0
 22 27  1  0  0  0  0
 22 23  1  0  0  0  0
 22 46  1  0  0  0  0
 23 24  1  0  0  0  0
 23 47  1  0  0  0  0
 23 48  1  0  0  0  0
 24 25  1  0  0  0  0
 24 49  1  0  0  0  0
 24 50  1  0  0  0  0
 25 26  1  0  0  0  0
 25 27  1  0  0  0  0
 25 51  1  0  0  0  0
 26 52  1  0  0  0  0
 26 53  1  0  0  0  0
 26 54  1  0  0  0  0
 27 55  1  0  0  0  0
 27 56  1  0  0  0  0
M  END
> <s_m_source_file>
AV-unprocessed.smi

> <i_m_source_file_index>
200

> <i_lp_mmshare_version>
43012

> <i_f3d_flags>
0

> <s_epik_input>
W0NIM11bQ0BASF0oW0NIMl0xKVtDSDJdW0NIMl1bQ0BIXTFOKFtDSDJdW0NIMl1PW0NIM10pYyhuW2NIXW4yKWMoYzIzKW5bY0hdbjNbQ0gyXUM0KFtDSDJdW09IXSlbQ0gyXU9bQ0gyXTQ=

> <s_epik_cmdline>
J2VwaWtfcHl0aG9uJywgJy1waCcsICc3LjAnLCAnLXRuJywgJzgnLCAnLW1hJywgJzIwMCcsICctbWV0YWxfYmluZGluZycsICctaW1hZScsICc8aW5maWxlLm1hZT4nLCAnLW9tYWUnLCAnPG91dGZpbGUubWFlPic=

> <r_lp_tautomer_probability>
1

> <r_epik_Ionization_Penalty>
0.00363087

> <r_epik_Ionization_Penalty_Charging>
0

> <r_epik_Ionization_Penalty_Neutral>
0.00363087

> <r_epik_State_Penalty>
0.0024341

> <r_epik_Charging_Adjusted_Penalty>
0.0024341

> <i_epik_Tot_Q>
0

> <i_epik_Tot_abs_Q>
0

> <r_epik_Metal_State_Penalty>
-0

> <b_epik_Metal_Only>
0

> <s_lp_Force_Field>
OPLS_2005

> <r_lp_Energy>
50.9431

> <b_lp_Chiralities_Consistent>
1

> <s_lp_Variant>
AV-unprocessed.smi:200-2

> <Gold.Version>
5.8.1

> <Gold.Id.Protein>
6NUR|6NUR_protein|mol2

> <Gold.PLP.Fitness>
54.2536

> <Gold.PLP.PLP>
-50.3574

> <Gold.PLP.part.hbond>
-3.7543

> <Gold.PLP.part.metal>
0.0000

> <Gold.PLP.part.buried>
-7.6488

> <Gold.PLP.part.nonpolar>
-40.9277

> <Gold.PLP.part.repulsive>
0.0781

> <Gold.PLP.ligand.clash>
0.0000

> <Gold.PLP.ligand.torsion>
1.6434

> <Gold.PLP.Chemscore.Hbond>
1.9280

> <Gold.PLP.Chemscore.CHOScore>
0.0000

> <Gold.PLP.Chemscore.Metal>
0.0000

> <Gold.Chemscore.Hbonds>
donor molecule, donor type, donor heavy atom, donor atom, acceptor molecule, acceptor atom, score
      P1  H  6896  6907       L1     9  1.00
      P1  H  7989  7998       L1     2  1.00

> <Gold.PLP.Chemscore.Internal.Correction>
1.3991

> <Gold.Rescore>
     Score         DG    S(hbond)    S(metal)    S(lipo)     H(rot)  DE(clash)    DE(int)     intcor
     13.50     -17.31       1.84        0.00     120.16       3.28       0.20       3.60       ----

> <Gold.Chemscore.Fitness>
13.5042

> <Gold.Chemscore.DG>
-17.3077

> <Gold.Chemscore.ZeroCoef>
-5.4800

> <Gold.Chemscore.Hbond>
1.8431

> <Gold.Chemscore.Metal>
0.0000

> <Gold.Chemscore.Lipo>
120.1597

> <Gold.Chemscore.Internal_Hbond>
0.0000

> <Gold.Chemscore.DEClash>
0.1986

> <Gold.Chemscore.DEInternal>
3.6049

> <Gold.Chemscore.Rot>
3.2761

> <Gold.Chemscore.Internal.Correction>
   9.000000E+99

> <Gold.Chemscore.Hbonds>
donor molecule, donor type, donor heavy atom, donor atom, acceptor molecule, acceptor atom, score
      P1  H  6896  6907       L1     9  0.25
      P1  H  7989  7998       L1     2  0.59

> <Gold.Chemscore.Hbond.Weighted>
-6.1558

> <Gold.Chemscore.Metal.Weighted>
-0.0000

> <Gold.Chemscore.Lipo.Weighted>
-14.0587

> <Gold.Chemscore.Internal_Hbond.Weighted>
0.0000

> <Gold.Chemscore.DEClash.Weighted>
0.1986

> <Gold.Chemscore.DEInternal.Weighted>
3.6049

> <Gold.Chemscore.Rot.Weighted>
8.3868

> <Gold.Chemscore.Internal.Correction.Weighted>
   9.000000E+99

> <Gold.Protein.RotatedTorsions>
[ 6907 6896 6895 6894 ] final  -41.12 input  -60.11 | X-H torsion
[ 7974 7965 7964 7962 ] final  154.72 input  175.53 | X-H torsion
[ 8008 7997 7996 7995 ] final   70.36 input   59.86 | X-H torsion
[ 10167 10162 10161 10158 ] final  -39.86 input  -65.29 | X-H torsion
[ 10718 10713 10712 10709 ] final -129.17 input   66.30 | X-H torsion
[ 10763 10752 10751 10750 ] final   79.69 input  -60.55 | X-H torsion
[ 11005 11000 10999 10996 ] final   29.63 input  -57.11 | X-H torsion

> <Gold.Protein.ActiveResidues>
 VAL166  LYS551  ARG553  GLY616  TRP617  ASP618  TYR619  PRO620  LYS621  CYS622 
 ASP623  PHE694  ASN695  SER759  ASP760  ASP761  ALA762  ILE779  LEU786  VAL792 
 PHE793  MET794  SER795  GLU796  ALA797  LYS798  CYS799  TRP800  GLU811  SER814 

> <Gold.Protein.RotatedAtoms>
  150.9704  134.9078  159.7784 H   0  0  0  0  0  0  0  0  0  0  0  0  # atno 6907 bound_to 6896
  152.5188  134.3549  159.9274 H   0  0  0  0  0  0  0  0  0  0  0  0  # atno 6908 bound_to 6896
  151.3558  133.3867  159.2719 H   0  0  0  0  0  0  0  0  0  0  0  0  # atno 6909 bound_to 6896
  144.8071  139.6971  143.6157 H   0  0  0  0  0  0  0  0  0  0  0  0  # atno 7974 bound_to 7965
  155.7376  140.3491  155.5089 H   0  0  0  0  0  0  0  0  0  0  0  0  # atno 8008 bound_to 7997
  155.9124  140.1053  157.1291 H   0  0  0  0  0  0  0  0  0  0  0  0  # atno 8009 bound_to 7997
  154.4058  140.1265  156.4561 H   0  0  0  0  0  0  0  0  0  0  0  0  # atno 8010 bound_to 7997
  140.7052  143.3188  151.2842 H   0  0  0  0  0  0  0  0  0  0  0  0  # atno 10167 bound_to 10162
  156.2021  130.6864  151.0552 H   0  0  0  0  0  0  0  0  0  0  0  0  # atno 10718 bound_to 10713
  153.0973  135.4830  154.8801 H   0  0  0  0  0  0  0  0  0  0  0  0  # atno 10763 bound_to 10752
  154.7338  135.3066  154.8848 H   0  0  0  0  0  0  0  0  0  0  0  0  # atno 10764 bound_to 10752
  153.9476  135.6827  153.4797 H   0  0  0  0  0  0  0  0  0  0  0  0  # atno 10765 bound_to 10752
  140.3030  134.2736  155.7750 H   0  0  0  0  0  0  0  0  0  0  0  0  # atno 11005 bound_to 11000
  146.2364  139.5913  142.9521 LP  0  0  0  0  0  0  0  0  0  0  0  0  # atno 17320 bound_to 7965
  145.5413  141.0420  143.2329 LP  0  0  0  0  0  0  0  0  0  0  0  0  # atno 17321 bound_to 7965
  139.6636  144.0145  152.2708 LP  0  0  0  0  0  0  0  0  0  0  0  0  # atno 17342 bound_to 10162
  139.9721  144.6487  150.7979 LP  0  0  0  0  0  0  0  0  0  0  0  0  # atno 17343 bound_to 10162
  157.6992  131.0782  150.6875 LP  0  0  0  0  0  0  0  0  0  0  0  0  # atno 17370 bound_to 10713
  156.6932  130.4601  149.5593 LP  0  0  0  0  0  0  0  0  0  0  0  0  # atno 17371 bound_to 10713
  141.2124  133.7658  156.9794 LP  0  0  0  0  0  0  0  0  0  0  0  0  # atno 17394 bound_to 11000
  140.1092  134.9487  157.2041 LP  0  0  0  0  0  0  0  0  0  0  0  0  # atno 17395 bound_to 11000

$$$$
