AV-unprocessed.smi:1384|AV-procd|sdf|5626|dock8
  -GOLD-   22720 5243D 1   1.00000     0.00000
 Structure written by MMmdl.
 41 42  0  0  0  0  0  0  0  0  1 V2000
  153.3328  142.4456  160.9370 C   0  0  0  0  0  0  0  0  0  0  0  0
  152.2334  142.4988  159.8668 C   0  0  2  0  0  0  0  0  0  0  0  0
  151.9597  141.1062  159.2681 C   0  0  0  0  0  0  0  0  0  0  0  0
  150.8590  141.1569  158.1962 C   0  0  0  0  0  0  0  0  0  0  0  0
  151.2016  142.1662  157.0812 C   0  0  1  0  0  0  0  0  0  0  0  0
  150.1098  142.2617  156.1170 N   0  0  0  0  0  0  0  0  0  0  0  0
  149.8692  141.3925  155.1239 C   0  0  0  0  0  0  0  0  0  0  0  0
  150.5572  140.3908  154.9224 O   0  0  0  0  0  0  0  0  0  0  0  0
  148.6518  141.7093  154.2428 C   0  0  0  0  0  0  0  0  0  0  0  0
  147.5772  140.7054  154.3328 N   0  0  0  0  0  0  0  0  0  0  0  0
  147.7420  139.5303  153.5781 C   0  0  0  0  0  0  0  0  0  0  0  0
  146.8280  138.5509  153.5890 C   0  0  0  0  0  0  0  0  0  0  0  0
  145.6525  138.7244  154.4066 C   0  0  0  0  0  0  0  0  0  0  0  0
  145.4621  139.8472  155.1376 C   0  0  0  0  0  0  0  0  0  0  0  0
  144.2290  140.0406  156.0173 C   0  0  0  0  0  0  0  0  0  0  0  0
  144.5757  140.1415  157.3011 F   0  0  0  0  0  0  0  0  0  0  0  0
  143.5805  141.1531  155.6720 F   0  0  0  0  0  0  0  0  0  0  0  0
  143.3771  139.0201  155.9066 F   0  0  0  0  0  0  0  0  0  0  0  0
  146.4725  140.9247  155.1114 C   0  0  0  0  0  0  0  0  0  0  0  0
  146.3396  141.9693  155.7512 O   0  0  0  0  0  0  0  0  0  0  0  0
  151.4821  143.5577  157.6774 C   0  0  0  0  0  0  0  0  0  0  0  0
  152.5810  143.5023  158.7508 C   0  0  0  0  0  0  0  0  0  0  0  0
  154.2799  142.1053  160.5172 H   0  0  0  0  0  0  0  0  0  0  0  0
  153.0619  141.7641  161.7441 H   0  0  0  0  0  0  0  0  0  0  0  0
  153.4982  143.4287  161.3784 H   0  0  0  0  0  0  0  0  0  0  0  0
  151.3187  142.8408  160.3534 H   0  0  0  0  0  0  0  0  0  0  0  0
  152.8748  140.7067  158.8289 H   0  0  0  0  0  0  0  0  0  0  0  0
  151.6680  140.4114  160.0565 H   0  0  0  0  0  0  0  0  0  0  0  0
  150.7176  140.1611  157.7746 H   0  0  0  0  0  0  0  0  0  0  0  0
  149.9122  141.4306  158.6640 H   0  0  0  0  0  0  0  0  0  0  0  0
  152.1025  141.8303  156.5637 H   0  0  0  0  0  0  0  0  0  0  0  0
  149.4911  143.0543  156.2102 H   0  0  0  0  0  0  0  0  0  0  0  0
  148.2757  142.6938  154.5255 H   0  0  0  0  0  0  0  0  0  0  0  0
  148.9803  141.8190  153.2075 H   0  0  0  0  0  0  0  0  0  0  0  0
  148.6470  139.4819  152.9899 H   0  0  0  0  0  0  0  0  0  0  0  0
  146.9670  137.6560  153.0003 H   0  0  0  0  0  0  0  0  0  0  0  0
  144.9201  137.9315  154.4255 H   0  0  0  0  0  0  0  0  0  0  0  0
  151.7764  144.2503  156.8879 H   0  0  0  0  0  0  0  0  0  0  0  0
  150.5695  143.9618  158.1182 H   0  0  0  0  0  0  0  0  0  0  0  0
  152.7253  144.4964  159.1754 H   0  0  0  0  0  0  0  0  0  0  0  0
  153.5284  143.2252  158.2863 H   0  0  0  0  0  0  0  0  0  0  0  0
  1  2  1  0  0  0  0
  1 23  1  0  0  0  0
  1 24  1  0  0  0  0
  1 25  1  0  0  0  0
  2 22  1  0  0  0  0
  2  3  1  0  0  0  0
  2 26  1  0  0  0  0
  3  4  1  0  0  0  0
  3 27  1  0  0  0  0
  3 28  1  0  0  0  0
  4  5  1  0  0  0  0
  4 29  1  0  0  0  0
  4 30  1  0  0  0  0
  5  6  1  0  0  0  0
  5 21  1  0  0  0  0
  5 31  1  0  0  0  0
  6  7  1  0  0  0  0
  6 32  1  0  0  0  0
  7  8  2  0  0  0  0
  7  9  1  0  0  0  0
  9 10  1  0  0  0  0
  9 33  1  0  0  0  0
  9 34  1  0  0  0  0
 10 19  1  0  0  0  0
 10 11  1  0  0  0  0
 11 12  2  0  0  0  0
 11 35  1  0  0  0  0
 12 13  1  0  0  0  0
 12 36  1  0  0  0  0
 13 14  2  0  0  0  0
 13 37  1  0  0  0  0
 14 15  1  0  0  0  0
 14 19  1  0  0  0  0
 15 16  1  0  0  0  0
 15 17  1  0  0  0  0
 15 18  1  0  0  0  0
 19 20  2  0  0  0  0
 21 22  1  0  0  0  0
 21 38  1  0  0  0  0
 21 39  1  0  0  0  0
 22 40  1  0  0  0  0
 22 41  1  0  0  0  0
M  END
> <s_m_source_file>
AV-unprocessed.smi

> <i_m_source_file_index>
1384

> <i_lp_mmshare_version>
43012

> <i_f3d_flags>
0

> <s_epik_input>
W0NIM11bQ0BASF0xW0NIMl1bQ0gyXVtDQEhdKFtDSDJdW0NIMl0xKVtOSF1DKD1PKVtDSDJdbjJbY0hdW2NIXVtjSF1jKEMoRikoRilGKWMyPU8=

> <s_epik_cmdline>
J2VwaWtfcHl0aG9uJywgJy1waCcsICc3LjAnLCAnLXRuJywgJzgnLCAnLW1hJywgJzIwMCcsICctbWV0YWxfYmluZGluZycsICctaW1hZScsICc8aW5maWxlLm1hZT4nLCAnLW9tYWUnLCAnPG91dGZpbGUubWFlPic=

> <r_lp_tautomer_probability>
1

> <r_epik_Ionization_Penalty>
2.11165e-08

> <r_epik_Ionization_Penalty_Charging>
2.06965e-09

> <r_epik_Ionization_Penalty_Neutral>
1.90469e-08

> <r_epik_State_Penalty>
-0

> <r_epik_Charging_Adjusted_Penalty>
2.06965e-09

> <i_epik_Tot_Q>
0

> <i_epik_Tot_abs_Q>
0

> <r_epik_Metal_State_Penalty>
-0

> <b_epik_Metal_Only>
0

> <s_lp_Force_Field>
OPLS_2005

> <r_lp_Energy>
18.7612

> <b_lp_Chiralities_Consistent>
1

> <s_lp_Variant>
AV-unprocessed.smi:1384-1

> <Gold.Version>
5.8.1

> <Gold.Id.Protein>
6NUR|6NUR_protein|mol2

> <Gold.PLP.Fitness>
43.7050

> <Gold.PLP.PLP>
-36.0769

> <Gold.PLP.part.hbond>
-2.0000

> <Gold.PLP.part.metal>
0.0000

> <Gold.PLP.part.buried>
-4.1610

> <Gold.PLP.part.nonpolar>
-30.2386

> <Gold.PLP.part.repulsive>
0.2842

> <Gold.PLP.ligand.clash>
0.3161

> <Gold.PLP.ligand.torsion>
0.6197

> <Gold.PLP.Chemscore.Hbond>
1.9440

> <Gold.PLP.Chemscore.CHOScore>
1.0000

> <Gold.PLP.Chemscore.Metal>
0.0000

> <Gold.Chemscore.Hbonds>
donor molecule, donor type, donor heavy atom, donor atom, acceptor molecule, acceptor atom, score
      L1  H     6    32       P1  8028  1.00
      P1  H  7989  7998       L1     8  1.00
      L1  C    11    35       P1  7957  1.00

> <Gold.PLP.Chemscore.Internal.Correction>
0.3515

> <Gold.Rescore>
     Score         DG    S(hbond)    S(metal)    S(lipo)     H(rot)  DE(clash)    DE(int)     intcor
     14.77     -17.96       1.65        0.00      92.99       1.52       0.25       2.94       ----

> <Gold.Chemscore.Fitness>
14.7732

> <Gold.Chemscore.DG>
-17.9574

> <Gold.Chemscore.ZeroCoef>
-5.4800

> <Gold.Chemscore.Hbond>
1.6466

> <Gold.Chemscore.Metal>
0.0000

> <Gold.Chemscore.Lipo>
92.9892

> <Gold.Chemscore.Internal_Hbond>
0.0000

> <Gold.Chemscore.DEClash>
0.2483

> <Gold.Chemscore.DEInternal>
2.9358

> <Gold.Chemscore.Rot>
1.5242

> <Gold.Chemscore.Internal.Correction>
   9.000000E+99

> <Gold.Chemscore.Hbonds>
donor molecule, donor type, donor heavy atom, donor atom, acceptor molecule, acceptor atom, score
      L1  H     6    32       P1  8028  0.95
      P1  H  7989  7998       L1     8  0.39

> <Gold.Chemscore.Hbond.Weighted>
-5.4995

> <Gold.Chemscore.Metal.Weighted>
-0.0000

> <Gold.Chemscore.Lipo.Weighted>
-10.8797

> <Gold.Chemscore.Internal_Hbond.Weighted>
0.0000

> <Gold.Chemscore.DEClash.Weighted>
0.2483

> <Gold.Chemscore.DEInternal.Weighted>
2.9358

> <Gold.Chemscore.Rot.Weighted>
3.9019

> <Gold.Chemscore.Internal.Correction.Weighted>
   9.000000E+99

> <Gold.Protein.RotatedTorsions>
[ 6907 6896 6895 6894 ] final  -29.73 input  -60.11 | X-H torsion
[ 7974 7965 7964 7962 ] final  153.30 input  175.53 | X-H torsion
[ 8008 7997 7996 7995 ] final  -94.92 input   59.86 | X-H torsion
[ 10167 10162 10161 10158 ] final   26.81 input  -65.29 | X-H torsion
[ 10718 10713 10712 10709 ] final  135.39 input   66.30 | X-H torsion
[ 10763 10752 10751 10750 ] final -171.67 input  -60.55 | X-H torsion
[ 11005 11000 10999 10996 ] final -106.53 input  -57.11 | X-H torsion

> <Gold.Protein.ActiveResidues>
 VAL166  LYS551  ARG553  GLY616  TRP617  ASP618  TYR619  PRO620  LYS621  CYS622 
 ASP623  PHE694  ASN695  SER759  ASP760  ASP761  ALA762  ILE779  LEU786  VAL792 
 PHE793  MET794  SER795  GLU796  ALA797  LYS798  CYS799  TRP800  GLU811  SER814 

> <Gold.Protein.RotatedAtoms>
  151.1151  135.0048  159.8512 H   0  0  0  0  0  0  0  0  0  0  0  0  # atno 6907 bound_to 6896
  152.5445  134.1789  159.8637 H   0  0  0  0  0  0  0  0  0  0  0  0  # atno 6908 bound_to 6896
  151.1842  133.4661  159.2627 H   0  0  0  0  0  0  0  0  0  0  0  0  # atno 6909 bound_to 6896
  144.8164  139.6782  143.6119 H   0  0  0  0  0  0  0  0  0  0  0  0  # atno 7974 bound_to 7965
  154.7547  140.0485  157.0923 H   0  0  0  0  0  0  0  0  0  0  0  0  # atno 8008 bound_to 7997
  155.0013  140.3125  155.4847 H   0  0  0  0  0  0  0  0  0  0  0  0  # atno 8009 bound_to 7997
  156.2892  140.2201  156.5123 H   0  0  0  0  0  0  0  0  0  0  0  0  # atno 8010 bound_to 7997
  140.4991  144.0344  150.6326 H   0  0  0  0  0  0  0  0  0  0  0  0  # atno 10167 bound_to 10162
  157.4575  131.1071  150.9960 H   0  0  0  0  0  0  0  0  0  0  0  0  # atno 10718 bound_to 10713
  154.6279  135.2883  155.0251 H   0  0  0  0  0  0  0  0  0  0  0  0  # atno 10763 bound_to 10752
  154.1422  135.6517  153.4948 H   0  0  0  0  0  0  0  0  0  0  0  0  # atno 10764 bound_to 10752
  153.0266  135.5335  154.7094 H   0  0  0  0  0  0  0  0  0  0  0  0  # atno 10765 bound_to 10752
  141.1000  133.8901  157.1867 H   0  0  0  0  0  0  0  0  0  0  0  0  # atno 11005 bound_to 11000
  146.2467  139.6113  142.9455 LP  0  0  0  0  0  0  0  0  0  0  0  0  # atno 17320 bound_to 7965
  145.5205  141.0432  143.2438 LP  0  0  0  0  0  0  0  0  0  0  0  0  # atno 17321 bound_to 7965
  140.3635  143.2894  152.0358 LP  0  0  0  0  0  0  0  0  0  0  0  0  # atno 17342 bound_to 10162
  139.4868  144.6285  151.7117 LP  0  0  0  0  0  0  0  0  0  0  0  0  # atno 17343 bound_to 10162
  157.0768  130.5887  149.5413 LP  0  0  0  0  0  0  0  0  0  0  0  0  # atno 17370 bound_to 10713
  156.0014  130.5093  150.7675 LP  0  0  0  0  0  0  0  0  0  0  0  0  # atno 17371 bound_to 10713
  139.9848  135.0086  156.9837 LP  0  0  0  0  0  0  0  0  0  0  0  0  # atno 17394 bound_to 11000
  140.5046  134.1063  155.7257 LP  0  0  0  0  0  0  0  0  0  0  0  0  # atno 17395 bound_to 11000

$$$$
