AV-unprocessed.smi:1969|AV-procd|sdf|7958|dock3
  -GOLD-   2272010123D 1   1.00000     0.00000
 Structure written by MMmdl.
 44 45  0  0  0  0  0  0  0  0  1 V2000
  153.8184  141.0854  160.3726 C   0  0  0  0  0  0  0  0  0  0  0  0
  152.5978  141.7684  159.7477 C   0  0  2  0  0  0  0  0  0  0  0  0
  152.2282  141.1570  158.3829 C   0  0  0  0  0  0  0  0  0  0  0  0
  151.1398  141.9094  157.7651 N   0  0  0  0  0  0  0  0  0  0  0  0
  150.5266  141.2911  156.6542 C   0  0  0  0  0  0  0  0  0  0  0  0
  151.2126  140.2866  155.9320 C   0  0  0  0  0  0  0  0  0  0  0  0
  150.5867  139.6836  154.8244 C   0  0  0  0  0  0  0  0  0  0  0  0
  149.2812  140.0936  154.4689 C   0  0  0  0  0  0  0  0  0  0  0  0
  148.5551  139.5824  153.3600 N   0  0  0  0  0  0  0  0  0  0  0  0
  147.2361  139.3333  153.2593 C   0  0  0  0  0  0  0  0  0  0  0  0
  146.4146  139.5405  154.1514 O   0  0  0  0  0  0  0  0  0  0  0  0
  146.7593  138.7543  151.9264 C   0  0  0  0  0  0  0  0  0  0  0  0
  146.0671  137.5361  152.1563 O   0  0  0  0  0  0  0  0  0  0  0  0
  145.7651  136.8426  150.9562 C   0  0  0  0  0  0  0  0  0  0  0  0
  145.0223  135.5430  151.2891 C   0  0  0  0  0  0  0  0  0  0  0  0
  144.0687  135.7986  152.1838 F   0  0  0  0  0  0  0  0  0  0  0  0
  144.4563  135.0418  150.1915 F   0  0  0  0  0  0  0  0  0  0  0  0
  145.8656  134.6498  151.8057 F   0  0  0  0  0  0  0  0  0  0  0  0
  148.6813  141.1063  155.2431 C   0  0  0  0  0  0  0  0  0  0  0  0
  149.2769  141.6851  156.3065 N   0  0  0  0  0  0  0  0  0  0  0  0
  151.4000  143.3453  157.6927 C   0  0  0  0  0  0  0  0  0  0  0  0
  151.7908  143.8921  159.0784 C   0  0  2  0  0  0  0  0  0  0  0  0
  152.1879  145.3708  159.0235 C   0  0  0  0  0  0  0  0  0  0  0  0
  152.9001  143.1503  159.5771 O   0  0  0  0  0  0  0  0  0  0  0  0
  153.6354  140.0224  160.5306 H   0  0  0  0  0  0  0  0  0  0  0  0
  154.0596  141.5286  161.3389 H   0  0  0  0  0  0  0  0  0  0  0  0
  154.6959  141.1829  159.7326 H   0  0  0  0  0  0  0  0  0  0  0  0
  151.7554  141.6683  160.4343 H   0  0  0  0  0  0  0  0  0  0  0  0
  153.0905  141.1788  157.7151 H   0  0  0  0  0  0  0  0  0  0  0  0
  151.9635  140.1098  158.5231 H   0  0  0  0  0  0  0  0  0  0  0  0
  152.2030  139.9659  156.2182 H   0  0  0  0  0  0  0  0  0  0  0  0
  151.1246  138.9329  154.2668 H   0  0  0  0  0  0  0  0  0  0  0  0
  149.0916  139.4453  152.5154 H   0  0  0  0  0  0  0  0  0  0  0  0
  146.1052  139.4798  151.4405 H   0  0  0  0  0  0  0  0  0  0  0  0
  147.6167  138.5843  151.2728 H   0  0  0  0  0  0  0  0  0  0  0  0
  145.1479  137.4676  150.3087 H   0  0  0  0  0  0  0  0  0  0  0  0
  146.6847  136.6176  150.4138 H   0  0  0  0  0  0  0  0  0  0  0  0
  147.6897  141.4631  155.0060 H   0  0  0  0  0  0  0  0  0  0  0  0
  152.2008  143.5295  156.9751 H   0  0  0  0  0  0  0  0  0  0  0  0
  150.5128  143.8687  157.3340 H   0  0  0  0  0  0  0  0  0  0  0  0
  150.9503  143.7844  159.7665 H   0  0  0  0  0  0  0  0  0  0  0  0
  151.3646  145.9849  158.6579 H   0  0  0  0  0  0  0  0  0  0  0  0
  153.0410  145.5254  158.3624 H   0  0  0  0  0  0  0  0  0  0  0  0
  152.4624  145.7368  160.0131 H   0  0  0  0  0  0  0  0  0  0  0  0
  1  2  1  0  0  0  0
  1 25  1  0  0  0  0
  1 26  1  0  0  0  0
  1 27  1  0  0  0  0
  2 24  1  0  0  0  0
  2  3  1  0  0  0  0
  2 28  1  0  0  0  0
  3  4  1  0  0  0  0
  3 29  1  0  0  0  0
  3 30  1  0  0  0  0
  4  5  1  0  0  0  0
  4 21  1  0  0  0  0
  5 20  1  0  0  0  0
  5  6  2  0  0  0  0
  6  7  1  0  0  0  0
  6 31  1  0  0  0  0
  7  8  2  0  0  0  0
  7 32  1  0  0  0  0
  8  9  1  0  0  0  0
  8 19  1  0  0  0  0
  9 10  1  0  0  0  0
  9 33  1  0  0  0  0
 10 11  2  0  0  0  0
 10 12  1  0  0  0  0
 12 13  1  0  0  0  0
 12 34  1  0  0  0  0
 12 35  1  0  0  0  0
 13 14  1  0  0  0  0
 14 15  1  0  0  0  0
 14 36  1  0  0  0  0
 14 37  1  0  0  0  0
 15 16  1  0  0  0  0
 15 17  1  0  0  0  0
 15 18  1  0  0  0  0
 19 20  2  0  0  0  0
 19 38  1  0  0  0  0
 21 22  1  0  0  0  0
 21 39  1  0  0  0  0
 21 40  1  0  0  0  0
 22 23  1  0  0  0  0
 22 24  1  0  0  0  0
 22 41  1  0  0  0  0
 23 42  1  0  0  0  0
 23 43  1  0  0  0  0
 23 44  1  0  0  0  0
M  END
> <s_m_source_file>
AV-unprocessed.smi

> <i_m_source_file_index>
1969

> <i_lp_mmshare_version>
43012

> <i_f3d_flags>
0

> <s_epik_input>
W0NIM11bQ0BASF0xW0NIMl1OKFtDSDJdW0NASF0oTzEpW0NIM10pYzJbY0hdW2NIXWMoW2NIXW4yKVtOSF1DKD1PKVtDSDJdT1tDSDJdQyhGKShGKUY=

> <s_epik_cmdline>
J2VwaWtfcHl0aG9uJywgJy1waCcsICc3LjAnLCAnLXRuJywgJzgnLCAnLW1hJywgJzIwMCcsICctbWV0YWxfYmluZGluZycsICctaW1hZScsICc8aW5maWxlLm1hZT4nLCAnLW9tYWUnLCAnPG91dGZpbGUubWFlPic=

> <r_lp_tautomer_probability>
1

> <r_epik_Ionization_Penalty>
0.000531129

> <r_epik_Ionization_Penalty_Charging>
0

> <r_epik_Ionization_Penalty_Neutral>
0.000531129

> <r_epik_State_Penalty>
0.000331002

> <r_epik_Charging_Adjusted_Penalty>
0.000331002

> <i_epik_Tot_Q>
0

> <i_epik_Tot_abs_Q>
0

> <r_epik_Metal_State_Penalty>
-0

> <b_epik_Metal_Only>
0

> <s_lp_Force_Field>
OPLS_2005

> <r_lp_Energy>
22.4216

> <b_lp_Chiralities_Consistent>
1

> <s_lp_Variant>
AV-unprocessed.smi:1969-2

> <Gold.Version>
5.8.1

> <Gold.Id.Protein>
6NUR|6NUR_protein|mol2

> <Gold.PLP.Fitness>
52.3287

> <Gold.PLP.PLP>
-50.5180

> <Gold.PLP.part.hbond>
-0.7875

> <Gold.PLP.part.metal>
0.0000

> <Gold.PLP.part.buried>
-2.3328

> <Gold.PLP.part.nonpolar>
-49.0540

> <Gold.PLP.part.repulsive>
0.8002

> <Gold.PLP.ligand.clash>
0.0000

> <Gold.PLP.ligand.torsion>
0.7693

> <Gold.PLP.Chemscore.Hbond>
0.9920

> <Gold.PLP.Chemscore.CHOScore>
0.0000

> <Gold.PLP.Chemscore.Metal>
0.0000

> <Gold.Chemscore.Hbonds>
donor molecule, donor type, donor heavy atom, donor atom, acceptor molecule, acceptor atom, score
      L1  H     9    33       P1  7957  0.98

> <Gold.PLP.Chemscore.Internal.Correction>
0.3734

> <Gold.Rescore>
     Score         DG    S(hbond)    S(metal)    S(lipo)     H(rot)  DE(clash)    DE(int)     intcor
     14.83     -16.90       0.97        0.00     112.37       1.94       0.32       1.76       ----

> <Gold.Chemscore.Fitness>
14.8299

> <Gold.Chemscore.DG>
-16.9042

> <Gold.Chemscore.ZeroCoef>
-5.4800

> <Gold.Chemscore.Hbond>
0.9738

> <Gold.Chemscore.Metal>
0.0000

> <Gold.Chemscore.Lipo>
112.3741

> <Gold.Chemscore.Internal_Hbond>
0.0000

> <Gold.Chemscore.DEClash>
0.3163

> <Gold.Chemscore.DEInternal>
1.7579

> <Gold.Chemscore.Rot>
1.9438

> <Gold.Chemscore.Internal.Correction>
   9.000000E+99

> <Gold.Chemscore.Hbonds>
donor molecule, donor type, donor heavy atom, donor atom, acceptor molecule, acceptor atom, score
      L1  H     9    33       P1  7957  0.90

> <Gold.Chemscore.Hbond.Weighted>
-3.2525

> <Gold.Chemscore.Metal.Weighted>
-0.0000

> <Gold.Chemscore.Lipo.Weighted>
-13.1478

> <Gold.Chemscore.Internal_Hbond.Weighted>
0.0000

> <Gold.Chemscore.DEClash.Weighted>
0.3163

> <Gold.Chemscore.DEInternal.Weighted>
1.7579

> <Gold.Chemscore.Rot.Weighted>
4.9761

> <Gold.Chemscore.Internal.Correction.Weighted>
   9.000000E+99

> <Gold.Protein.RotatedTorsions>
[ 6907 6896 6895 6894 ] final -157.94 input  -60.11 | X-H torsion
[ 7974 7965 7964 7962 ] final   27.57 input  175.53 | X-H torsion
[ 8008 7997 7996 7995 ] final  -45.26 input   59.86 | X-H torsion
[ 10167 10162 10161 10158 ] final   86.70 input  -65.29 | X-H torsion
[ 10718 10713 10712 10709 ] final  155.59 input   66.30 | X-H torsion
[ 10763 10752 10751 10750 ] final  -12.39 input  -60.55 | X-H torsion
[ 11005 11000 10999 10996 ] final -113.15 input  -57.11 | X-H torsion

> <Gold.Protein.ActiveResidues>
 VAL166  LYS551  ARG553  GLY616  TRP617  ASP618  TYR619  PRO620  LYS621  CYS622 
 ASP623  PHE694  ASN695  SER759  ASP760  ASP761  ALA762  ILE779  LEU786  VAL792 
 PHE793  MET794  SER795  GLU796  ALA797  LYS798  CYS799  TRP800  GLU811  SER814 

> <Gold.Protein.RotatedAtoms>
  151.3105  133.4082  159.2646 H   0  0  0  0  0  0  0  0  0  0  0  0  # atno 6907 bound_to 6896
  151.0118  134.9403  159.8022 H   0  0  0  0  0  0  0  0  0  0  0  0  # atno 6908 bound_to 6896
  152.5302  134.3070  159.9152 H   0  0  0  0  0  0  0  0  0  0  0  0  # atno 6909 bound_to 6896
  146.1777  139.7173  142.8923 H   0  0  0  0  0  0  0  0  0  0  0  0  # atno 7974 bound_to 7965
  154.4000  140.1401  156.3819 H   0  0  0  0  0  0  0  0  0  0  0  0  # atno 8008 bound_to 7997
  155.7996  140.3476  155.5374 H   0  0  0  0  0  0  0  0  0  0  0  0  # atno 8009 bound_to 7997
  155.8497  140.0939  157.1673 H   0  0  0  0  0  0  0  0  0  0  0  0  # atno 8010 bound_to 7997
  139.8848  144.6419  150.8803 H   0  0  0  0  0  0  0  0  0  0  0  0  # atno 10167 bound_to 10162
  157.2164  131.0709  151.1939 H   0  0  0  0  0  0  0  0  0  0  0  0  # atno 10718 bound_to 10713
  153.4978  135.7017  153.5848 H   0  0  0  0  0  0  0  0  0  0  0  0  # atno 10763 bound_to 10752
  153.3993  135.3876  155.1977 H   0  0  0  0  0  0  0  0  0  0  0  0  # atno 10764 bound_to 10752
  154.8713  135.3877  154.4445 H   0  0  0  0  0  0  0  0  0  0  0  0  # atno 10765 bound_to 10752
  141.0632  133.9502  157.2628 H   0  0  0  0  0  0  0  0  0  0  0  0  # atno 11005 bound_to 11000
  145.4166  141.0402  143.2987 LP  0  0  0  0  0  0  0  0  0  0  0  0  # atno 17320 bound_to 7965
  144.8262  139.5705  143.6964 LP  0  0  0  0  0  0  0  0  0  0  0  0  # atno 17321 bound_to 7965
  140.7738  143.3556  151.1927 LP  0  0  0  0  0  0  0  0  0  0  0  0  # atno 17342 bound_to 10162
  139.7163  143.9296  152.2968 LP  0  0  0  0  0  0  0  0  0  0  0  0  # atno 17343 bound_to 10162
  157.3621  130.7136  149.6508 LP  0  0  0  0  0  0  0  0  0  0  0  0  # atno 17370 bound_to 10713
  155.9686  130.4223  150.4508 LP  0  0  0  0  0  0  0  0  0  0  0  0  # atno 17371 bound_to 10713
  139.9452  135.0185  156.8829 LP  0  0  0  0  0  0  0  0  0  0  0  0  # atno 17394 bound_to 11000
  140.5827  134.0337  155.7470 LP  0  0  0  0  0  0  0  0  0  0  0  0  # atno 17395 bound_to 11000

$$$$
