AV-unprocessed.smi:40|AV-procd|sdf|369|dock7
  -GOLD-   2262016213D 1   1.00000     0.00000
 Structure written by MMmdl.
 47 48  0  0  0  0  0  0  0  0  1 V2000
  152.3086  143.0202  161.5526 C   0  0  0  0  0  0  0  0  0  0  0  0
  152.4909  142.7241  160.0601 C   0  0  0  0  0  0  0  0  0  0  0  0
  152.4295  141.2227  159.7448 C   0  0  0  0  0  0  0  0  0  0  0  0
  153.5721  140.4361  160.4005 C   0  0  0  0  0  0  0  0  0  0  0  0
  153.4629  138.9253  160.1431 C   0  0  0  0  0  0  0  0  0  0  0  0
  153.0318  138.6712  158.8132 O   0  0  0  0  0  0  0  0  0  0  0  0
  152.1824  137.6551  158.5411 C   0  0  0  0  0  0  0  0  0  0  0  0
  151.4782  137.0946  159.3804 O   0  0  0  0  0  0  0  0  0  0  0  0
  152.1882  137.3404  157.1271 N   0  0  0  0  0  0  0  0  0  0  0  0
  151.4599  136.3828  156.5137 C   0  0  0  0  0  0  0  0  0  0  0  0
  151.3862  135.2032  157.1019 N   0  0  0  0  0  0  0  0  0  0  0  0
  150.6739  134.1473  156.5987 C   0  0  0  0  0  0  0  0  0  0  0  0
  150.6126  133.0810  157.2091 O   0  0  0  0  0  0  0  0  0  0  0  0
  150.0066  134.3404  155.3665 N   0  0  0  0  0  0  0  0  0  0  0  0
  149.1898  133.2083  154.7913 C   0  0  2  0  0  0  0  0  0  0  0  0
  148.7895  133.5535  153.4944 O   0  0  0  0  0  0  0  0  0  0  0  0
  147.3861  133.3682  153.3346 C   0  0  1  0  0  0  0  0  0  0  0  0
  147.1376  131.9909  152.6929 C   0  0  0  0  0  0  0  0  0  0  0  0
  146.8392  133.5488  154.7544 C   0  0  1  0  0  0  0  0  0  0  0  0
  145.5602  132.9857  154.9754 O   0  0  0  0  0  0  0  0  0  0  0  0
  147.9328  132.9764  155.6474 C   0  0  1  0  0  0  0  0  0  0  0  0
  147.7519  131.6009  155.9306 O   0  0  0  0  0  0  0  0  0  0  0  0
  150.0758  135.5714  154.7312 C   0  0  0  0  0  0  0  0  0  0  0  0
  150.7781  136.6010  155.2499 C   0  0  0  0  0  0  0  0  0  0  0  0
  150.8427  137.7757  154.5988 F   0  0  0  0  0  0  0  0  0  0  0  0
  149.8533  132.3437  154.7333 H   0  0  0  0  0  0  0  0  0  0  0  0
  146.9907  134.1399  152.6733 H   0  0  0  0  0  0  0  0  0  0  0  0
  146.7661  134.6194  154.9510 H   0  0  0  0  0  0  0  0  0  0  0  0
  147.9963  133.5125  156.5955 H   0  0  0  0  0  0  0  0  0  0  0  0
  152.3616  144.0919  161.7452 H   0  0  0  0  0  0  0  0  0  0  0  0
  153.0836  142.5365  162.1478 H   0  0  0  0  0  0  0  0  0  0  0  0
  151.3410  142.6658  161.9090 H   0  0  0  0  0  0  0  0  0  0  0  0
  151.7206  143.2488  159.4937 H   0  0  0  0  0  0  0  0  0  0  0  0
  153.4476  143.1290  159.7283 H   0  0  0  0  0  0  0  0  0  0  0  0
  151.4733  140.8197  160.0813 H   0  0  0  0  0  0  0  0  0  0  0  0
  152.4636  141.0770  158.6643 H   0  0  0  0  0  0  0  0  0  0  0  0
  154.5284  140.7982  160.0209 H   0  0  0  0  0  0  0  0  0  0  0  0
  153.5729  140.6272  161.4742 H   0  0  0  0  0  0  0  0  0  0  0  0
  154.4102  138.4245  160.3487 H   0  0  0  0  0  0  0  0  0  0  0  0
  152.7283  138.4921  160.8222 H   0  0  0  0  0  0  0  0  0  0  0  0
  152.8478  137.8689  156.5751 H   0  0  0  0  0  0  0  0  0  0  0  0
  146.0723  131.8040  152.5564 H   0  0  0  0  0  0  0  0  0  0  0  0
  147.5456  131.1783  153.2930 H   0  0  0  0  0  0  0  0  0  0  0  0
  147.6062  131.9369  151.7100 H   0  0  0  0  0  0  0  0  0  0  0  0
  145.5188  132.6914  155.8727 H   0  0  0  0  0  0  0  0  0  0  0  0
  147.9714  131.4512  156.8378 H   0  0  0  0  0  0  0  0  0  0  0  0
  149.5603  135.7300  153.7952 H   0  0  0  0  0  0  0  0  0  0  0  0
  1  2  1  0  0  0  0
  1 30  1  0  0  0  0
  1 31  1  0  0  0  0
  1 32  1  0  0  0  0
  2  3  1  0  0  0  0
  2 33  1  0  0  0  0
  2 34  1  0  0  0  0
  3  4  1  0  0  0  0
  3 35  1  0  0  0  0
  3 36  1  0  0  0  0
  4  5  1  0  0  0  0
  4 37  1  0  0  0  0
  4 38  1  0  0  0  0
  5  6  1  0  0  0  0
  5 39  1  0  0  0  0
  5 40  1  0  0  0  0
  6  7  1  0  0  0  0
  7  8  2  0  0  0  0
  7  9  1  0  0  0  0
  9 10  1  0  0  0  0
  9 41  1  0  0  0  0
 10 24  1  0  0  0  0
 10 11  2  0  0  0  0
 11 12  1  0  0  0  0
 12 13  2  0  0  0  0
 12 14  1  0  0  0  0
 14 15  1  0  0  0  0
 14 23  1  0  0  0  0
 15 26  1  0  0  0  0
 15 21  1  0  0  0  0
 15 16  1  0  0  0  0
 16 17  1  0  0  0  0
 17 27  1  0  0  0  0
 17 18  1  0  0  0  0
 17 19  1  0  0  0  0
 18 42  1  0  0  0  0
 18 43  1  0  0  0  0
 18 44  1  0  0  0  0
 19 28  1  0  0  0  0
 19 20  1  0  0  0  0
 19 21  1  0  0  0  0
 20 45  1  0  0  0  0
 21 29  1  0  0  0  0
 21 22  1  0  0  0  0
 22 46  1  0  0  0  0
 23 24  2  0  0  0  0
 23 47  1  0  0  0  0
 24 25  1  0  0  0  0
M  END
> <s_m_source_file>
AV-unprocessed.smi

> <i_m_source_file_index>
40

> <i_lp_mmshare_version>
43012

> <i_f3d_flags>
0

> <s_epik_input>
W0NIM11bQ0gyXVtDSDJdW0NIMl1bQ0gyXU9DKD1PKVtOSF1jMW5jKD1PKW4oW2NIXWMxRilbQ0BASF0yT1tDQEhdKFtDSDNdKVtDQEBIXShbT0hdKVtDQEhdMltPSF0=

> <s_epik_cmdline>
J2VwaWtfcHl0aG9uJywgJy1waCcsICc3LjAnLCAnLXRuJywgJzgnLCAnLW1hJywgJzIwMCcsICctbWV0YWxfYmluZGluZycsICctaW1hZScsICc8aW5maWxlLm1hZT4nLCAnLW9tYWUnLCAnPG91dGZpbGUubWFlPic=

> <r_lp_tautomer_probability>
1

> <r_epik_Ionization_Penalty>
2.29506e-06

> <r_epik_Ionization_Penalty_Charging>
8.26867e-09

> <r_epik_Ionization_Penalty_Neutral>
2.2868e-06

> <r_epik_State_Penalty>
-0

> <r_epik_Charging_Adjusted_Penalty>
8.26867e-09

> <i_epik_Tot_Q>
0

> <i_epik_Tot_abs_Q>
0

> <r_epik_Metal_State_Penalty>
-0

> <b_epik_Metal_Only>
0

> <s_epik_Chemistry_Notes>
This compound has an ester and may undergo hydrolysis at high or low pH. This compound contains an acetal/aminal-like group ( X-CH(R)-Y where X, Y are N, S, or O) that may be acid/base labile, releasing an aldehyde.

> <s_lp_Force_Field>
OPLS_2005

> <r_lp_Energy>
36.9864

> <b_lp_Chiralities_Consistent>
1

> <s_lp_Variant>
AV-unprocessed.smi:40-3

> <Gold.Version>
5.8.1

> <Gold.Id.Protein>
6NUR|6NUR_protein|mol2

> <Gold.PLP.Fitness>
43.7781

> <Gold.PLP.PLP>
-37.2113

> <Gold.PLP.part.hbond>
-3.3505

> <Gold.PLP.part.metal>
0.0000

> <Gold.PLP.part.buried>
-5.1330

> <Gold.PLP.part.nonpolar>
-29.8746

> <Gold.PLP.part.repulsive>
0.7044

> <Gold.PLP.ligand.clash>
0.0000

> <Gold.PLP.ligand.torsion>
1.1457

> <Gold.PLP.Chemscore.Hbond>
1.9833

> <Gold.PLP.Chemscore.CHOScore>
0.9522

> <Gold.PLP.Chemscore.Metal>
0.0000

> <Gold.Chemscore.Hbonds>
donor molecule, donor type, donor heavy atom, donor atom, acceptor molecule, acceptor atom, score
      P1  H  6896  6907       L1    13  0.82
      P1  H  6896  6908       L1     8  1.00
      L1  C    23    47       P1  7948  1.00

> <Gold.PLP.Chemscore.Internal.Correction>
0.0515

> <Gold.Rescore>
     Score         DG    S(hbond)    S(metal)    S(lipo)     H(rot)  DE(clash)    DE(int)     intcor
      7.01      -9.31       1.38        0.00      74.05       3.70       0.00       2.30       ----

> <Gold.Chemscore.Fitness>
7.0098

> <Gold.Chemscore.DG>
-9.3057

> <Gold.Chemscore.ZeroCoef>
-5.4800

> <Gold.Chemscore.Hbond>
1.3842

> <Gold.Chemscore.Metal>
0.0000

> <Gold.Chemscore.Lipo>
74.0456

> <Gold.Chemscore.Internal_Hbond>
0.0000

> <Gold.Chemscore.DEClash>
0.0000

> <Gold.Chemscore.DEInternal>
2.2959

> <Gold.Chemscore.Rot>
3.6957

> <Gold.Chemscore.Internal.Correction>
   9.000000E+99

> <Gold.Chemscore.Hbonds>
donor molecule, donor type, donor heavy atom, donor atom, acceptor molecule, acceptor atom, score
      P1  H  6896  6907       L1    13  0.35
      P1  H  6896  6908       L1     8  0.94

> <Gold.Chemscore.Hbond.Weighted>
-4.6233

> <Gold.Chemscore.Metal.Weighted>
-0.0000

> <Gold.Chemscore.Lipo.Weighted>
-8.6633

> <Gold.Chemscore.Internal_Hbond.Weighted>
0.0000

> <Gold.Chemscore.DEClash.Weighted>
0.0000

> <Gold.Chemscore.DEInternal.Weighted>
2.2959

> <Gold.Chemscore.Rot.Weighted>
9.4610

> <Gold.Chemscore.Internal.Correction.Weighted>
   9.000000E+99

> <Gold.Protein.RotatedTorsions>
[ 6907 6896 6895 6894 ] final -133.55 input  -60.11 | X-H torsion
[ 7974 7965 7964 7962 ] final   46.48 input  175.53 | X-H torsion
[ 8008 7997 7996 7995 ] final  -33.12 input   59.86 | X-H torsion
[ 10167 10162 10161 10158 ] final  110.98 input  -65.29 | X-H torsion
[ 10718 10713 10712 10709 ] final   21.79 input   66.30 | X-H torsion
[ 10763 10752 10751 10750 ] final   39.02 input  -60.55 | X-H torsion
[ 11005 11000 10999 10996 ] final  140.17 input  -57.11 | X-H torsion

> <Gold.Protein.ActiveResidues>
 VAL166  LYS551  ARG553  GLY616  TRP617  ASP618  TYR619  PRO620  LYS621  CYS622 
 ASP623  PHE694  ASN695  SER759  ASP760  ASP761  ALA762  ILE779  LEU786  VAL792 
 PHE793  MET794  SER795  GLU796  ALA797  LYS798  CYS799  TRP800  GLU811  SER814 

> <Gold.Protein.RotatedAtoms>
  150.9753  133.6301  159.2730 H   0  0  0  0  0  0  0  0  0  0  0  0  # atno 6907 bound_to 6896
  151.3575  135.0896  159.9433 H   0  0  0  0  0  0  0  0  0  0  0  0  # atno 6908 bound_to 6896
  152.5197  133.9334  159.7646 H   0  0  0  0  0  0  0  0  0  0  0  0  # atno 6909 bound_to 6896
  146.0386  139.4851  142.9792 H   0  0  0  0  0  0  0  0  0  0  0  0  # atno 7974 bound_to 7965
  154.4158  140.1719  156.1837 H   0  0  0  0  0  0  0  0  0  0  0  0  # atno 8008 bound_to 7997
  155.9661  140.3389  155.6510 H   0  0  0  0  0  0  0  0  0  0  0  0  # atno 8009 bound_to 7997
  155.6686  140.0709  157.2519 H   0  0  0  0  0  0  0  0  0  0  0  0  # atno 8010 bound_to 7997
  139.6646  144.7128  151.1800 H   0  0  0  0  0  0  0  0  0  0  0  0  # atno 10167 bound_to 10162
  157.1433  130.6642  149.5988 H   0  0  0  0  0  0  0  0  0  0  0  0  # atno 10718 bound_to 10713
  152.9981  135.6232  154.2399 H   0  0  0  0  0  0  0  0  0  0  0  0  # atno 10763 bound_to 10752
  154.2139  135.2798  155.2950 H   0  0  0  0  0  0  0  0  0  0  0  0  # atno 10764 bound_to 10752
  154.5584  135.5712  153.7043 H   0  0  0  0  0  0  0  0  0  0  0  0  # atno 10765 bound_to 10752
  140.0308  134.9353  157.0658 H   0  0  0  0  0  0  0  0  0  0  0  0  # atno 11005 bound_to 11000
  145.6922  141.0161  143.1549 LP  0  0  0  0  0  0  0  0  0  0  0  0  # atno 17320 bound_to 7965
  144.7063  139.8546  143.7429 LP  0  0  0  0  0  0  0  0  0  0  0  0  # atno 17321 bound_to 7965
  140.7594  143.5939  150.8768 LP  0  0  0  0  0  0  0  0  0  0  0  0  # atno 17342 bound_to 10162
  139.9600  143.6175  152.3005 LP  0  0  0  0  0  0  0  0  0  0  0  0  # atno 17343 bound_to 10162
  155.9784  130.4770  150.6655 LP  0  0  0  0  0  0  0  0  0  0  0  0  # atno 17370 bound_to 10713
  157.4287  131.0846  151.1060 LP  0  0  0  0  0  0  0  0  0  0  0  0  # atno 17371 bound_to 10713
  140.4230  134.1861  155.7165 LP  0  0  0  0  0  0  0  0  0  0  0  0  # atno 17394 bound_to 11000
  141.1829  133.8374  157.1192 LP  0  0  0  0  0  0  0  0  0  0  0  0  # atno 17395 bound_to 11000

$$$$
