AV-unprocessed.smi:1180|AV-procd|sdf|4964|dock6
  -GOLD-   22720 3553D 1   1.00000     0.00000
 Structure written by MMmdl.
 37 38  0  0  0  0  0  0  0  0  2 V2000
  153.9137  138.4097  154.2582 C   0  0  0  0  0  0  0  0  0  0  0  0
  152.7152  138.3482  155.1810 C   0  0  0  0  0  0  0  0  0  0  0  0
  152.4877  139.3252  155.9737 N   0  0  0  0  0  0  0  0  0  0  0  0
  151.3797  139.2727  156.8364 C   0  0  0  0  0  0  0  0  0  0  0  0
  151.1904  140.4738  157.7458 C   0  0  0  0  0  0  0  0  0  0  0  0
  150.5409  138.1972  156.8427 C   0  0  0  0  0  0  0  0  0  0  0  0
  149.3247  138.0859  157.7628 C   0  0  0  0  0  0  0  0  0  0  0  0
  149.5057  137.2533  159.0350 C   0  0  0  0  0  0  0  0  0  0  0  0
  150.6158  136.8342  159.3644 O   0  0  0  0  0  0  0  0  0  0  0  0
  148.3916  137.0185  159.7441 N   0  0  0  0  0  0  0  0  0  0  0  0
  148.3326  136.2563  160.9865 C   0  0  0  0  0  0  0  0  0  0  0  0
  147.3117  135.1044  160.9133 C   0  0  2  0  0  0  0  0  0  0  0  0
  147.0605  134.4155  162.2502 C   0  0  0  0  0  0  0  0  0  0  0  0
  146.9580  132.9270  161.9011 C   0  0  0  0  0  0  0  0  0  0  0  0
  146.9274  132.8737  160.4821 O   0  0  0  0  0  0  0  0  0  0  0  0
  147.7220  133.9456  160.0051 C   0  0  0  0  0  0  0  0  0  0  0  0
  150.8336  137.0957  155.9085 C   0  0  0  0  0  0  0  0  0  0  0  0
  150.0989  136.1097  155.8629 O   0  0  0  0  0  0  0  0  0  0  0  0
  151.9322  137.2177  155.1097 N   0  5  0  0  0  0  0  0  0  0  0  0
  154.2939  139.4289  154.1775 H   0  0  0  0  0  0  0  0  0  0  0  0
  153.6457  138.0679  153.2578 H   0  0  0  0  0  0  0  0  0  0  0  0
  154.7126  137.7733  154.6392 H   0  0  0  0  0  0  0  0  0  0  0  0
  151.3308  140.1878  158.7883 H   0  0  0  0  0  0  0  0  0  0  0  0
  150.1897  140.8905  157.6308 H   0  0  0  0  0  0  0  0  0  0  0  0
  151.9082  141.2615  157.5140 H   0  0  0  0  0  0  0  0  0  0  0  0
  148.9712  139.0801  158.0398 H   0  0  0  0  0  0  0  0  0  0  0  0
  148.5002  137.6482  157.2003 H   0  0  0  0  0  0  0  0  0  0  0  0
  147.5229  137.4020  159.4008 H   0  0  0  0  0  0  0  0  0  0  0  0
  149.3289  135.8604  161.1851 H   0  0  0  0  0  0  0  0  0  0  0  0
  148.0942  136.9203  161.8190 H   0  0  0  0  0  0  0  0  0  0  0  0
  146.3565  135.4901  160.5528 H   0  0  0  0  0  0  0  0  0  0  0  0
  147.8748  134.5804  162.9567 H   0  0  0  0  0  0  0  0  0  0  0  0
  146.1434  134.7858  162.7097 H   0  0  0  0  0  0  0  0  0  0  0  0
  147.8364  132.3889  162.2607 H   0  0  0  0  0  0  0  0  0  0  0  0
  146.0730  132.4564  162.3297 H   0  0  0  0  0  0  0  0  0  0  0  0
  147.5311  134.1479  158.9507 H   0  0  0  0  0  0  0  0  0  0  0  0
  148.7786  133.6994  160.1245 H   0  0  0  0  0  0  0  0  0  0  0  0
  1  2  1  0  0  0  0
  1 20  1  0  0  0  0
  1 21  1  0  0  0  0
  1 22  1  0  0  0  0
  2 19  1  0  0  0  0
  2  3  2  0  0  0  0
  3  4  1  0  0  0  0
  4  5  1  0  0  0  0
  4  6  2  0  0  0  0
  5 23  1  0  0  0  0
  5 24  1  0  0  0  0
  5 25  1  0  0  0  0
  6  7  1  0  0  0  0
  6 17  1  0  0  0  0
  7  8  1  0  0  0  0
  7 26  1  0  0  0  0
  7 27  1  0  0  0  0
  8  9  2  0  0  0  0
  8 10  1  0  0  0  0
 10 11  1  0  0  0  0
 10 28  1  0  0  0  0
 11 12  1  0  0  0  0
 11 29  1  0  0  0  0
 11 30  1  0  0  0  0
 12 16  1  0  0  0  0
 12 13  1  0  0  0  0
 12 31  1  0  0  0  0
 13 14  1  0  0  0  0
 13 32  1  0  0  0  0
 13 33  1  0  0  0  0
 14 15  1  0  0  0  0
 14 34  1  0  0  0  0
 14 35  1  0  0  0  0
 15 16  1  0  0  0  0
 16 36  1  0  0  0  0
 16 37  1  0  0  0  0
 17 18  2  0  0  0  0
 17 19  1  0  0  0  0
M  CHG  1  19  -1
M  END
> <s_m_source_file>
AV-unprocessed.smi

> <i_m_source_file_index>
1180

> <i_lp_mmshare_version>
43012

> <i_f3d_flags>
0

> <s_epik_input>
W0NIM11jMW5jKFtDSDNdKWMoYyg9TylbbkhdMSlbQ0gyXUMoPU8pW05IXVtDSDJdW0NAQEhdMltDSDJdW0NIMl1PW0NIMl0y

> <s_epik_cmdline>
J2VwaWtfcHl0aG9uJywgJy1waCcsICc3LjAnLCAnLXRuJywgJzgnLCAnLW1hJywgJzIwMCcsICctbWV0YWxfYmluZGluZycsICctaW1hZScsICc8aW5maWxlLm1hZT4nLCAnLW9tYWUnLCAnPG91dGZpbGUubWFlPic=

> <r_lp_tautomer_probability>
0.839158

> <r_epik_Ionization_Penalty>
6.60319

> <r_epik_Ionization_Penalty_Charging>
6.85407e-08

> <r_epik_Ionization_Penalty_Neutral>
6.60319

> <r_epik_State_Penalty>
4.42883

> <r_epik_Charging_Adjusted_Penalty>
4.42883

> <i_epik_Tot_Q>
-1

> <i_epik_Tot_abs_Q>
1

> <r_epik_Metal_State_Penalty>
0.797578

> <b_epik_Metal_Only>
1

> <s_lp_Force_Field>
OPLS_2005

> <r_lp_Energy>
24.7937

> <b_lp_Chiralities_Consistent>
1

> <s_lp_Variant>
AV-unprocessed.smi:1180-5

> <Gold.Version>
5.8.1

> <Gold.Id.Protein>
6NUR|6NUR_protein|mol2

> <Gold.PLP.Fitness>
36.5726

> <Gold.PLP.PLP>
-26.4376

> <Gold.PLP.part.hbond>
-2.9963

> <Gold.PLP.part.metal>
0.0000

> <Gold.PLP.part.buried>
-3.8933

> <Gold.PLP.part.nonpolar>
-20.8624

> <Gold.PLP.part.repulsive>
0.3631

> <Gold.PLP.ligand.clash>
0.0000

> <Gold.PLP.ligand.torsion>
0.4319

> <Gold.PLP.Chemscore.Hbond>
3.6640

> <Gold.PLP.Chemscore.CHOScore>
0.0000

> <Gold.PLP.Chemscore.Metal>
0.0000

> <Gold.Chemscore.Hbonds>
donor molecule, donor type, donor heavy atom, donor atom, acceptor molecule, acceptor atom, score
      P1  H  6896  6909       L1     9  1.00
      P1  H  7997  8008       L1     3  0.98
      P1  H 10752 10765       L1    19  1.73

> <Gold.PLP.Chemscore.Internal.Correction>
0.0068

> <Gold.Rescore>
     Score         DG    S(hbond)    S(metal)    S(lipo)     H(rot)  DE(clash)    DE(int)     intcor
     15.37     -16.36       2.48        0.00      60.60       1.76       0.49       0.50       ----

> <Gold.Chemscore.Fitness>
15.3683

> <Gold.Chemscore.DG>
-16.3595

> <Gold.Chemscore.ZeroCoef>
-5.4800

> <Gold.Chemscore.Hbond>
2.4817

> <Gold.Chemscore.Metal>
0.0000

> <Gold.Chemscore.Lipo>
60.6016

> <Gold.Chemscore.Internal_Hbond>
0.0000

> <Gold.Chemscore.DEClash>
0.4895

> <Gold.Chemscore.DEInternal>
0.5017

> <Gold.Chemscore.Rot>
1.7577

> <Gold.Chemscore.Internal.Correction>
   9.000000E+99

> <Gold.Chemscore.Hbonds>
donor molecule, donor type, donor heavy atom, donor atom, acceptor molecule, acceptor atom, score
      P1  H  6896  6909       L1     9  0.99
      P1  H  7997  8008       L1     3  0.36
      P1  H 10752 10765       L1    19  0.64

> <Gold.Chemscore.Hbond.Weighted>
-8.2889

> <Gold.Chemscore.Metal.Weighted>
-0.0000

> <Gold.Chemscore.Lipo.Weighted>
-7.0904

> <Gold.Chemscore.Internal_Hbond.Weighted>
0.0000

> <Gold.Chemscore.DEClash.Weighted>
0.4895

> <Gold.Chemscore.DEInternal.Weighted>
0.5017

> <Gold.Chemscore.Rot.Weighted>
4.4998

> <Gold.Chemscore.Internal.Correction.Weighted>
   9.000000E+99

> <Gold.Protein.RotatedTorsions>
[ 6907 6896 6895 6894 ] final   81.42 input  -60.11 | X-H torsion
[ 7974 7965 7964 7962 ] final   61.60 input  175.53 | X-H torsion
[ 8008 7997 7996 7995 ] final  -38.18 input   59.86 | X-H torsion
[ 10167 10162 10161 10158 ] final -131.08 input  -65.29 | X-H torsion
[ 10718 10713 10712 10709 ] final  -97.68 input   66.30 | X-H torsion
[ 10763 10752 10751 10750 ] final  164.83 input  -60.55 | X-H torsion
[ 11005 11000 10999 10996 ] final  -61.53 input  -57.11 | X-H torsion

> <Gold.Protein.ActiveResidues>
 VAL166  LYS551  ARG553  GLY616  TRP617  ASP618  TYR619  PRO620  LYS621  CYS622 
 ASP623  PHE694  ASN695  SER759  ASP760  ASP761  ALA762  ILE779  LEU786  VAL792 
 PHE793  MET794  SER795  GLU796  ALA797  LYS798  CYS799  TRP800  GLU811  SER814 

> <Gold.Protein.RotatedAtoms>
  152.5268  134.3206  159.9146 H   0  0  0  0  0  0  0  0  0  0  0  0  # atno 6907 bound_to 6896
  151.3155  133.4056  159.2658 H   0  0  0  0  0  0  0  0  0  0  0  0  # atno 6908 bound_to 6896
  151.0003  134.9333  159.8007 H   0  0  0  0  0  0  0  0  0  0  0  0  # atno 6909 bound_to 6896
  145.8829  139.3456  143.0695 H   0  0  0  0  0  0  0  0  0  0  0  0  # atno 7974 bound_to 7965
  154.4041  140.1584  156.2658 H   0  0  0  0  0  0  0  0  0  0  0  0  # atno 8008 bound_to 7997
  155.8997  140.3434  155.5995 H   0  0  0  0  0  0  0  0  0  0  0  0  # atno 8009 bound_to 7997
  155.7463  140.0799  157.2213 H   0  0  0  0  0  0  0  0  0  0  0  0  # atno 8010 bound_to 7997
  139.9226  143.6364  152.2550 H   0  0  0  0  0  0  0  0  0  0  0  0  # atno 10167 bound_to 10162
  156.0089  130.5205  150.6410 H   0  0  0  0  0  0  0  0  0  0  0  0  # atno 10718 bound_to 10713
  154.3149  135.2757  155.2548 H   0  0  0  0  0  0  0  0  0  0  0  0  # atno 10763 bound_to 10752
  154.4927  135.5829  153.6474 H   0  0  0  0  0  0  0  0  0  0  0  0  # atno 10764 bound_to 10752
  152.9883  135.6138  154.3329 H   0  0  0  0  0  0  0  0  0  0  0  0  # atno 10765 bound_to 10752
  141.1327  133.6631  156.5389 H   0  0  0  0  0  0  0  0  0  0  0  0  # atno 11005 bound_to 11000
  145.9001  140.9248  143.0507 LP  0  0  0  0  0  0  0  0  0  0  0  0  # atno 17320 bound_to 7965
  144.6728  140.1021  143.7460 LP  0  0  0  0  0  0  0  0  0  0  0  0  # atno 17321 bound_to 7965
  139.6849  144.7652  151.1542 LP  0  0  0  0  0  0  0  0  0  0  0  0  # atno 17342 bound_to 10162
  140.7658  143.5672  150.9035 LP  0  0  0  0  0  0  0  0  0  0  0  0  # atno 17343 bound_to 10162
  157.4190  131.0834  151.1149 LP  0  0  0  0  0  0  0  0  0  0  0  0  # atno 17370 bound_to 10713
  157.1757  130.6287  149.5655 LP  0  0  0  0  0  0  0  0  0  0  0  0  # atno 17371 bound_to 10713
  140.4155  134.7234  157.4860 LP  0  0  0  0  0  0  0  0  0  0  0  0  # atno 17394 bound_to 11000
  140.0396  134.6286  155.8997 LP  0  0  0  0  0  0  0  0  0  0  0  0  # atno 17395 bound_to 11000

$$$$
