AV-unprocessed.smi:3161|AV-procd|sdf|12060|dock8
  -GOLD-   2272017493D 1   1.00000     0.00000
 Structure written by MMmdl.
 40 41  0  0  0  0  0  0  0  0  1 V2000
  146.9599  140.4274  153.4215 C   0  0  0  0  0  0  0  0  0  0  0  0
  148.3192  140.2720  154.0397 C   0  0  0  0  0  0  0  0  0  0  0  0
  149.1153  141.2727  154.6655 C   0  0  0  0  0  0  0  0  0  0  0  0
  150.2692  140.8061  155.1134 N   0  0  0  0  0  0  0  0  0  0  0  0
  150.2612  139.4988  154.7746 N   0  0  0  0  0  0  0  0  0  0  0  0
  151.3801  138.6441  155.1379 C   0  0  0  0  0  0  0  0  0  0  0  0
  151.7753  138.7121  156.6353 C   0  0  1  0  0  0  0  0  0  0  0  0
  153.0942  137.9625  156.8735 C   0  0  0  0  0  0  0  0  0  0  0  0
  151.9228  140.0858  157.1327 N   0  0  0  0  0  0  0  0  0  0  0  0
  152.4343  140.2266  158.4951 C   0  0  0  0  0  0  0  0  0  0  0  0
  151.9385  141.5260  159.1461 C   0  0  2  0  0  0  0  0  0  0  0  0
  151.8210  142.6888  158.1389 C   0  0  0  0  0  0  0  0  0  0  0  0
  151.4176  143.9828  158.8545 C   0  0  0  0  0  0  0  0  0  0  0  0
  152.3820  144.2542  160.0138 C   0  0  0  0  0  0  0  0  0  0  0  0
  152.4844  143.0191  160.9225 C   0  0  0  0  0  0  0  0  0  0  0  0
  152.8782  141.8840  160.1573 O   0  0  0  0  0  0  0  0  0  0  0  0
  149.0868  139.1466  154.1426 C   0  0  0  0  0  0  0  0  0  0  0  0
  146.4612  141.3350  153.7628 H   0  0  0  0  0  0  0  0  0  0  0  0
  146.3063  139.5905  153.6683 H   0  0  0  0  0  0  0  0  0  0  0  0
  147.0176  140.4817  152.3343 H   0  0  0  0  0  0  0  0  0  0  0  0
  148.8870  142.3181  154.8111 H   0  0  0  0  0  0  0  0  0  0  0  0
  151.0898  137.6253  154.8781 H   0  0  0  0  0  0  0  0  0  0  0  0
  152.2349  138.8849  154.5043 H   0  0  0  0  0  0  0  0  0  0  0  0
  151.0177  138.1997  157.2292 H   0  0  0  0  0  0  0  0  0  0  0  0
  153.0091  136.9155  156.5818 H   0  0  0  0  0  0  0  0  0  0  0  0
  153.3759  137.9839  157.9268 H   0  0  0  0  0  0  0  0  0  0  0  0
  153.9114  138.4023  156.3003 H   0  0  0  0  0  0  0  0  0  0  0  0
  152.5179  140.6079  156.4975 H   0  0  0  0  0  0  0  0  0  0  0  0
  152.0923  139.3910  159.1028 H   0  0  0  0  0  0  0  0  0  0  0  0
  153.5247  140.1991  158.5026 H   0  0  0  0  0  0  0  0  0  0  0  0
  150.9725  141.3406  159.6202 H   0  0  0  0  0  0  0  0  0  0  0  0
  152.7754  142.8352  157.6313 H   0  0  0  0  0  0  0  0  0  0  0  0
  151.0894  142.4521  157.3658 H   0  0  0  0  0  0  0  0  0  0  0  0
  151.4149  144.8201  158.1563 H   0  0  0  0  0  0  0  0  0  0  0  0
  150.4006  143.8885  159.2374 H   0  0  0  0  0  0  0  0  0  0  0  0
  153.3692  144.4992  159.6203 H   0  0  0  0  0  0  0  0  0  0  0  0
  152.0493  145.1199  160.5871 H   0  0  0  0  0  0  0  0  0  0  0  0
  153.2240  143.1899  161.7047 H   0  0  0  0  0  0  0  0  0  0  0  0
  151.5340  142.8230  161.4211 H   0  0  0  0  0  0  0  0  0  0  0  0
  148.8996  138.1345  153.8152 H   0  0  0  0  0  0  0  0  0  0  0  0
  1  2  1  0  0  0  0
  1 18  1  0  0  0  0
  1 19  1  0  0  0  0
  1 20  1  0  0  0  0
  2 17  2  0  0  0  0
  2  3  1  0  0  0  0
  3  4  2  0  0  0  0
  3 21  1  0  0  0  0
  4  5  1  0  0  0  0
  5  6  1  0  0  0  0
  5 17  1  0  0  0  0
  6  7  1  0  0  0  0
  6 22  1  0  0  0  0
  6 23  1  0  0  0  0
  7  8  1  0  0  0  0
  7  9  1  0  0  0  0
  7 24  1  0  0  0  0
  8 25  1  0  0  0  0
  8 26  1  0  0  0  0
  8 27  1  0  0  0  0
  9 10  1  0  0  0  0
  9 28  1  0  0  0  0
 10 11  1  0  0  0  0
 10 29  1  0  0  0  0
 10 30  1  0  0  0  0
 11 16  1  0  0  0  0
 11 12  1  0  0  0  0
 11 31  1  0  0  0  0
 12 13  1  0  0  0  0
 12 32  1  0  0  0  0
 12 33  1  0  0  0  0
 13 14  1  0  0  0  0
 13 34  1  0  0  0  0
 13 35  1  0  0  0  0
 14 15  1  0  0  0  0
 14 36  1  0  0  0  0
 14 37  1  0  0  0  0
 15 16  1  0  0  0  0
 15 38  1  0  0  0  0
 15 39  1  0  0  0  0
 17 40  1  0  0  0  0
M  END
> <s_m_source_file>
AV-unprocessed.smi

> <i_m_source_file_index>
3161

> <i_lp_mmshare_version>
43012

> <i_f3d_flags>
0

> <s_epik_input>
W0NIM11jMVtjSF1ubihbY0hdMSlbQ0gyXVtDQEhdKFtDSDNdKVtOSF1bQ0gyXVtDQEBIXTJbQ0gyXVtDSDJdW0NIMl1bQ0gyXU8y

> <s_epik_cmdline>
J2VwaWtfcHl0aG9uJywgJy1waCcsICc3LjAnLCAnLXRuJywgJzgnLCAnLW1hJywgJzIwMCcsICctbWV0YWxfYmluZGluZycsICctaW1hZScsICc8aW5maWxlLm1hZT4nLCAnLW9tYWUnLCAnPG91dGZpbGUubWFlPic=

> <r_lp_tautomer_probability>
1

> <r_epik_Ionization_Penalty>
2.51986

> <r_epik_Ionization_Penalty_Charging>
0

> <r_epik_Ionization_Penalty_Neutral>
2.51986

> <r_epik_State_Penalty>
2.68614

> <r_epik_Charging_Adjusted_Penalty>
2.68614

> <i_epik_Tot_Q>
0

> <i_epik_Tot_abs_Q>
0

> <r_epik_Metal_State_Penalty>
2.68606

> <b_epik_Metal_Only>
0

> <s_lp_Force_Field>
OPLS_2005

> <r_lp_Energy>
14.6841

> <b_lp_Chiralities_Consistent>
1

> <s_lp_Variant>
AV-unprocessed.smi:3161-6

> <Gold.Version>
5.8.1

> <Gold.Id.Protein>
6NUR|6NUR_protein|mol2

> <Gold.PLP.Fitness>
39.5377

> <Gold.PLP.PLP>
-35.3175

> <Gold.PLP.part.hbond>
-1.0000

> <Gold.PLP.part.metal>
0.0000

> <Gold.PLP.part.buried>
-1.1439

> <Gold.PLP.part.nonpolar>
-32.2312

> <Gold.PLP.part.repulsive>
0.0911

> <Gold.PLP.ligand.clash>
0.0000

> <Gold.PLP.ligand.torsion>
0.5695

> <Gold.PLP.Chemscore.Hbond>
0.1248

> <Gold.PLP.Chemscore.CHOScore>
1.6452

> <Gold.PLP.Chemscore.Metal>
0.0000

> <Gold.Chemscore.Hbonds>
donor molecule, donor type, donor heavy atom, donor atom, acceptor molecule, acceptor atom, score
      P1  H  7989  7998       L1     4  0.07
      L1  C     3    21       P1  8028  0.99
      L1  C    17    40       P1  7948  0.56

> <Gold.PLP.Chemscore.Internal.Correction>
0.0492

> <Gold.Rescore>
     Score         DG    S(hbond)    S(metal)    S(lipo)     H(rot)  DE(clash)    DE(int)     intcor
     13.71     -14.17       0.00        0.00     107.14       1.50       0.03       0.43       ----

> <Gold.Chemscore.Fitness>
13.7056

> <Gold.Chemscore.DG>
-14.1688

> <Gold.Chemscore.ZeroCoef>
-5.4800

> <Gold.Chemscore.Hbond>
0.0005

> <Gold.Chemscore.Metal>
0.0000

> <Gold.Chemscore.Lipo>
107.1360

> <Gold.Chemscore.Internal_Hbond>
0.0000

> <Gold.Chemscore.DEClash>
0.0313

> <Gold.Chemscore.DEInternal>
0.4319

> <Gold.Chemscore.Rot>
1.5030

> <Gold.Chemscore.Internal.Correction>
   9.000000E+99

> <Gold.Chemscore.Hbond.Weighted>
-0.0016

> <Gold.Chemscore.Metal.Weighted>
-0.0000

> <Gold.Chemscore.Lipo.Weighted>
-12.5349

> <Gold.Chemscore.Internal_Hbond.Weighted>
0.0000

> <Gold.Chemscore.DEClash.Weighted>
0.0313

> <Gold.Chemscore.DEInternal.Weighted>
0.4319

> <Gold.Chemscore.Rot.Weighted>
3.8477

> <Gold.Chemscore.Internal.Correction.Weighted>
   9.000000E+99

> <Gold.Protein.RotatedTorsions>
[ 6907 6896 6895 6894 ] final  150.29 input  -60.11 | X-H torsion
[ 7974 7965 7964 7962 ] final -117.25 input  175.53 | X-H torsion
[ 8008 7997 7996 7995 ] final  -31.58 input   59.86 | X-H torsion
[ 10167 10162 10161 10158 ] final -124.15 input  -65.29 | X-H torsion
[ 10718 10713 10712 10709 ] final  -91.85 input   66.30 | X-H torsion
[ 10763 10752 10751 10750 ] final   57.47 input  -60.55 | X-H torsion
[ 11005 11000 10999 10996 ] final  -83.84 input  -57.11 | X-H torsion

> <Gold.Protein.ActiveResidues>
 VAL166  LYS551  ARG553  GLY616  TRP617  ASP618  TYR619  PRO620  LYS621  CYS622 
 ASP623  PHE694  ASN695  SER759  ASP760  ASP761  ALA762  ILE779  LEU786  VAL792 
 PHE793  MET794  SER795  GLU796  ALA797  LYS798  CYS799  TRP800  GLU811  SER814 

> <Gold.Protein.RotatedAtoms>
  152.1164  133.4329  159.4654 H   0  0  0  0  0  0  0  0  0  0  0  0  # atno 6907 bound_to 6896
  150.6869  134.2587  159.4549 H   0  0  0  0  0  0  0  0  0  0  0  0  # atno 6908 bound_to 6896
  152.0460  134.9682  160.0625 H   0  0  0  0  0  0  0  0  0  0  0  0  # atno 6909 bound_to 6896
  145.0874  140.8467  143.4003 H   0  0  0  0  0  0  0  0  0  0  0  0  # atno 7974 bound_to 7965
  154.4209  140.1760  156.1590 H   0  0  0  0  0  0  0  0  0  0  0  0  # atno 8008 bound_to 7997
  155.9854  140.3374  155.6678 H   0  0  0  0  0  0  0  0  0  0  0  0  # atno 8009 bound_to 7997
  155.6444  140.0683  157.2598 H   0  0  0  0  0  0  0  0  0  0  0  0  # atno 8010 bound_to 7997
  139.9958  143.5592  152.2323 H   0  0  0  0  0  0  0  0  0  0  0  0  # atno 10167 bound_to 10162
  155.9997  130.4964  150.5537 H   0  0  0  0  0  0  0  0  0  0  0  0  # atno 10718 bound_to 10713
  152.9850  135.5640  154.5396 H   0  0  0  0  0  0  0  0  0  0  0  0  # atno 10763 bound_to 10752
  154.4853  135.2790  155.1541 H   0  0  0  0  0  0  0  0  0  0  0  0  # atno 10764 bound_to 10752
  154.3033  135.6303  153.5487 H   0  0  0  0  0  0  0  0  0  0  0  0  # atno 10765 bound_to 10752
  141.1655  133.7315  156.8779 H   0  0  0  0  0  0  0  0  0  0  0  0  # atno 11005 bound_to 11000
  145.1106  139.2760  143.5639 LP  0  0  0  0  0  0  0  0  0  0  0  0  # atno 17320 bound_to 7965
  146.3531  140.0701  142.8624 LP  0  0  0  0  0  0  0  0  0  0  0  0  # atno 17321 bound_to 7965
  139.6307  144.7644  151.2543 LP  0  0  0  0  0  0  0  0  0  0  0  0  # atno 17342 bound_to 10162
  140.7437  143.6485  150.8270 LP  0  0  0  0  0  0  0  0  0  0  0  0  # atno 17343 bound_to 10162
  157.3456  131.0724  151.1754 LP  0  0  0  0  0  0  0  0  0  0  0  0  # atno 17370 bound_to 10713
  157.2587  130.6648  149.5964 LP  0  0  0  0  0  0  0  0  0  0  0  0  # atno 17371 bound_to 10713
  140.1735  134.9083  157.2863 LP  0  0  0  0  0  0  0  0  0  0  0  0  # atno 17394 bound_to 11000
  140.2475  134.3723  155.7455 LP  0  0  0  0  0  0  0  0  0  0  0  0  # atno 17395 bound_to 11000

$$$$
