AV-unprocessed.smi:1641|AV-procd|sdf|6559|dock9
  -GOLD-   22720 7243D 1   1.00000     0.00000
 Structure written by MMmdl.
 42 43  0  0  0  0  0  0  0  0  2 V2000
  143.5607  143.9143  162.2106 C   0  0  0  0  0  0  0  0  0  0  0  0
  144.7589  143.6356  161.3692 C   0  0  0  0  0  0  0  0  0  0  0  0
  145.9206  143.2105  161.8808 N   0  0  0  0  0  0  0  0  0  0  0  0
  146.8883  143.0219  160.9038 N   0  0  0  0  0  0  0  0  0  0  0  0
  146.4260  143.3137  159.6802 C   0  0  0  0  0  0  0  0  0  0  0  0
  147.2055  143.2122  158.4974 N   0  0  0  0  0  0  0  0  0  0  0  0
  147.7460  142.1098  157.9493 C   0  0  0  0  0  0  0  0  0  0  0  0
  147.6388  140.9662  158.3927 O   0  0  0  0  0  0  0  0  0  0  0  0
  148.4346  142.4053  156.8371 N   0  0  0  0  0  0  0  0  0  0  0  0
  149.1355  141.4299  156.0099 C   0  0  0  0  0  0  0  0  0  0  0  0
  150.6649  141.5747  156.1349 C   0  0  0  0  0  0  0  0  0  0  0  0
  151.0897  141.9450  157.5078 N   0  3  1  0  0  0  0  0  0  0  0  0
  152.2467  141.1454  157.9755 C   0  0  0  0  0  0  0  0  0  0  0  0
  152.6145  141.5204  159.4239 C   0  0  1  0  0  0  0  0  0  0  0  0
  153.8567  140.7722  159.9197 C   0  0  0  0  0  0  0  0  0  0  0  0
  152.8851  142.9160  159.4872 O   0  0  0  0  0  0  0  0  0  0  0  0
  151.7593  143.7084  159.1269 C   0  0  1  0  0  0  0  0  0  0  0  0
  152.1327  145.1819  159.3203 C   0  0  0  0  0  0  0  0  0  0  0  0
  151.3670  143.3937  157.6711 C   0  0  0  0  0  0  0  0  0  0  0  0
  144.7550  143.8481  159.6228 S   0  0  0  0  0  0  0  0  0  0  0  0
  143.6150  143.3611  163.1487 H   0  0  0  0  0  0  0  0  0  0  0  0
  142.6544  143.6162  161.6833 H   0  0  0  0  0  0  0  0  0  0  0  0
  143.5029  144.9798  162.4337 H   0  0  0  0  0  0  0  0  0  0  0  0
  147.3735  144.0829  158.0153 H   0  0  0  0  0  0  0  0  0  0  0  0
  148.4696  143.3693  156.5381 H   0  0  0  0  0  0  0  0  0  0  0  0
  148.8041  140.4289  156.2867 H   0  0  0  0  0  0  0  0  0  0  0  0
  148.8313  141.5825  154.9740 H   0  0  0  0  0  0  0  0  0  0  0  0
  151.1174  140.6187  155.8664 H   0  0  0  0  0  0  0  0  0  0  0  0
  151.0515  142.3076  155.4250 H   0  0  0  0  0  0  0  0  0  0  0  0
  152.0059  140.0828  157.9226 H   0  0  0  0  0  0  0  0  0  0  0  0
  153.0969  141.3154  157.3129 H   0  0  0  0  0  0  0  0  0  0  0  0
  151.7808  141.2859  160.0881 H   0  0  0  0  0  0  0  0  0  0  0  0
  153.6987  139.6937  159.9049 H   0  0  0  0  0  0  0  0  0  0  0  0
  154.0985  141.0574  160.9439 H   0  0  0  0  0  0  0  0  0  0  0  0
  154.7255  140.9925  159.2987 H   0  0  0  0  0  0  0  0  0  0  0  0
  150.9261  143.4723  159.7916 H   0  0  0  0  0  0  0  0  0  0  0  0
  151.2990  145.8359  159.0639 H   0  0  0  0  0  0  0  0  0  0  0  0
  152.9813  145.4598  158.6945 H   0  0  0  0  0  0  0  0  0  0  0  0
  152.4047  145.3817  160.3571 H   0  0  0  0  0  0  0  0  0  0  0  0
  152.1698  143.6890  156.9932 H   0  0  0  0  0  0  0  0  0  0  0  0
  150.4901  143.9813  157.4011 H   0  0  0  0  0  0  0  0  0  0  0  0
  150.3207  141.7172  158.1219 H   0  0  0  0  0  0  0  0  0  0  0  0
  1  2  1  0  0  0  0
  1 21  1  0  0  0  0
  1 22  1  0  0  0  0
  1 23  1  0  0  0  0
  2 20  1  0  0  0  0
  2  3  2  0  0  0  0
  3  4  1  0  0  0  0
  4  5  2  0  0  0  0
  5  6  1  0  0  0  0
  5 20  1  0  0  0  0
  6  7  1  0  0  0  0
  6 24  1  0  0  0  0
  7  8  2  0  0  0  0
  7  9  1  0  0  0  0
  9 10  1  0  0  0  0
  9 25  1  0  0  0  0
 10 11  1  0  0  0  0
 10 26  1  0  0  0  0
 10 27  1  0  0  0  0
 11 12  1  0  0  0  0
 11 28  1  0  0  0  0
 11 29  1  0  0  0  0
 12 19  1  0  0  0  0
 12 13  1  0  0  0  0
 12 42  1  0  0  0  0
 13 14  1  0  0  0  0
 13 30  1  0  0  0  0
 13 31  1  0  0  0  0
 14 15  1  0  0  0  0
 14 16  1  0  0  0  0
 14 32  1  0  0  0  0
 15 33  1  0  0  0  0
 15 34  1  0  0  0  0
 15 35  1  0  0  0  0
 16 17  1  0  0  0  0
 17 18  1  0  0  0  0
 17 19  1  0  0  0  0
 17 36  1  0  0  0  0
 18 37  1  0  0  0  0
 18 38  1  0  0  0  0
 18 39  1  0  0  0  0
 19 40  1  0  0  0  0
 19 41  1  0  0  0  0
M  CHG  1  12   1
M  END
> <s_m_source_file>
AV-unprocessed.smi

> <i_m_source_file_index>
1641

> <i_lp_mmshare_version>
43012

> <i_f3d_flags>
0

> <s_epik_input>
W0NIM11jMW5uYyhzMSlbTkhdQyg9TylbTkhdW0NIMl1bQ0gyXU4yW0NIMl1bQ0BASF0oW0NIM10pT1tDQEBIXShbQ0gzXSlbQ0gyXTI=

> <s_epik_cmdline>
J2VwaWtfcHl0aG9uJywgJy1waCcsICc3LjAnLCAnLXRuJywgJzgnLCAnLW1hJywgJzIwMCcsICctbWV0YWxfYmluZGluZycsICctaW1hZScsICc8aW5maWxlLm1hZT4nLCAnLW9tYWUnLCAnPG91dGZpbGUubWFlPic=

> <r_lp_tautomer_probability>
1

> <r_epik_Ionization_Penalty>
0.700114

> <r_epik_Ionization_Penalty_Charging>
0.695697

> <r_epik_Ionization_Penalty_Neutral>
0.00441638

> <r_epik_State_Penalty>
0.717972

> <r_epik_Charging_Adjusted_Penalty>
1.41367

> <i_epik_Tot_Q>
1

> <i_epik_Tot_abs_Q>
1

> <r_epik_Metal_State_Penalty>
1.06958

> <b_epik_Metal_Only>
0

> <s_lp_Force_Field>
OPLS_2005

> <r_lp_Energy>
12.6792

> <b_lp_Chiralities_Consistent>
1

> <s_lp_Variant>
AV-unprocessed.smi:1641-4

> <Gold.Version>
5.8.1

> <Gold.Id.Protein>
6NUR|6NUR_protein|mol2

> <Gold.PLP.Fitness>
44.7094

> <Gold.PLP.PLP>
-36.3367

> <Gold.PLP.part.hbond>
-4.9506

> <Gold.PLP.part.metal>
0.0000

> <Gold.PLP.part.buried>
-6.3592

> <Gold.PLP.part.nonpolar>
-26.3339

> <Gold.PLP.part.repulsive>
0.2039

> <Gold.PLP.ligand.clash>
0.0000

> <Gold.PLP.ligand.torsion>
1.3798

> <Gold.PLP.Chemscore.Hbond>
3.7071

> <Gold.PLP.Chemscore.CHOScore>
0.0000

> <Gold.PLP.Chemscore.Metal>
0.0000

> <Gold.Chemscore.Hbonds>
donor molecule, donor type, donor heavy atom, donor atom, acceptor molecule, acceptor atom, score
      L1  H     6    24       P1  8029  0.90
      L1  H     9    25       P1  8028  1.00
      P1  H  6933  6944       L1     4  1.00
      P1  H  6934  6946       L1     4  0.50

> <Gold.PLP.Chemscore.Internal.Correction>
0.0111

> <Gold.Rescore>
     Score         DG    S(hbond)    S(metal)    S(lipo)     H(rot)  DE(clash)    DE(int)     intcor
     17.75     -19.08       2.21        0.00      89.11       1.64       0.01       1.32       ----

> <Gold.Chemscore.Fitness>
17.7544

> <Gold.Chemscore.DG>
-19.0842

> <Gold.Chemscore.ZeroCoef>
-5.4800

> <Gold.Chemscore.Hbond>
2.2055

> <Gold.Chemscore.Metal>
0.0000

> <Gold.Chemscore.Lipo>
89.1089

> <Gold.Chemscore.Internal_Hbond>
0.0000

> <Gold.Chemscore.DEClash>
0.0149

> <Gold.Chemscore.DEInternal>
1.3150

> <Gold.Chemscore.Rot>
1.6358

> <Gold.Chemscore.Internal.Correction>
   9.000000E+99

> <Gold.Chemscore.Hbonds>
donor molecule, donor type, donor heavy atom, donor atom, acceptor molecule, acceptor atom, score
      L1  H     6    24       P1  8029  0.19
      L1  H     9    25       P1  8028  0.55
      P1  H  6933  6944       L1     4  0.90
      P1  H  6934  6946       L1     4  0.04

> <Gold.Chemscore.Hbond.Weighted>
-7.3663

> <Gold.Chemscore.Metal.Weighted>
-0.0000

> <Gold.Chemscore.Lipo.Weighted>
-10.4257

> <Gold.Chemscore.Internal_Hbond.Weighted>
0.0000

> <Gold.Chemscore.DEClash.Weighted>
0.0149

> <Gold.Chemscore.DEInternal.Weighted>
1.3150

> <Gold.Chemscore.Rot.Weighted>
4.1878

> <Gold.Chemscore.Internal.Correction.Weighted>
   9.000000E+99

> <Gold.Protein.RotatedTorsions>
[ 6907 6896 6895 6894 ] final  173.39 input  -60.11 | X-H torsion
[ 7974 7965 7964 7962 ] final   33.88 input  175.53 | X-H torsion
[ 8008 7997 7996 7995 ] final   81.41 input   59.86 | X-H torsion
[ 10167 10162 10161 10158 ] final  107.97 input  -65.29 | X-H torsion
[ 10718 10713 10712 10709 ] final -139.53 input   66.30 | X-H torsion
[ 10763 10752 10751 10750 ] final -161.59 input  -60.55 | X-H torsion
[ 11005 11000 10999 10996 ] final  112.85 input  -57.11 | X-H torsion

> <Gold.Protein.ActiveResidues>
 VAL166  LYS551  ARG553  GLY616  TRP617  ASP618  TYR619  PRO620  LYS621  CYS622 
 ASP623  PHE694  ASN695  SER759  ASP760  ASP761  ALA762  ILE779  LEU786  VAL792 
 PHE793  MET794  SER795  GLU796  ALA797  LYS798  CYS799  TRP800  GLU811  SER814 

> <Gold.Protein.RotatedAtoms>
  151.7690  133.3339  159.3438 H   0  0  0  0  0  0  0  0  0  0  0  0  # atno 6907 bound_to 6896
  150.7469  134.6036  159.6059 H   0  0  0  0  0  0  0  0  0  0  0  0  # atno 6908 bound_to 6896
  152.3354  134.7207  160.0330 H   0  0  0  0  0  0  0  0  0  0  0  0  # atno 6909 bound_to 6896
  146.1391  139.6340  142.9175 H   0  0  0  0  0  0  0  0  0  0  0  0  # atno 7974 bound_to 7965
  155.8967  140.3435  155.5996 H   0  0  0  0  0  0  0  0  0  0  0  0  # atno 8008 bound_to 7997
  155.7548  140.0824  157.2203 H   0  0  0  0  0  0  0  0  0  0  0  0  # atno 8009 bound_to 7997
  154.4039  140.1546  156.2752 H   0  0  0  0  0  0  0  0  0  0  0  0  # atno 8010 bound_to 7997
  139.6883  144.7111  151.1392 H   0  0  0  0  0  0  0  0  0  0  0  0  # atno 10167 bound_to 10162
  156.3119  130.7486  151.1564 H   0  0  0  0  0  0  0  0  0  0  0  0  # atno 10718 bound_to 10713
  154.7290  135.3042  154.8923 H   0  0  0  0  0  0  0  0  0  0  0  0  # atno 10763 bound_to 10752
  153.9772  135.6734  153.4753 H   0  0  0  0  0  0  0  0  0  0  0  0  # atno 10764 bound_to 10752
  153.0901  135.4964  154.8593 H   0  0  0  0  0  0  0  0  0  0  0  0  # atno 10765 bound_to 10752
  139.8938  134.9538  156.6649 H   0  0  0  0  0  0  0  0  0  0  0  0  # atno 11005 bound_to 11000
  145.5089  141.0436  143.2499 LP  0  0  0  0  0  0  0  0  0  0  0  0  # atno 17320 bound_to 7965
  144.7772  139.6604  143.7170 LP  0  0  0  0  0  0  0  0  0  0  0  0  # atno 17321 bound_to 7965
  140.7675  143.5596  150.9114 LP  0  0  0  0  0  0  0  0  0  0  0  0  # atno 17342 bound_to 10162
  139.9272  143.6536  152.3084 LP  0  0  0  0  0  0  0  0  0  0  0  0  # atno 17343 bound_to 10162
  157.7393  131.0531  150.5242 LP  0  0  0  0  0  0  0  0  0  0  0  0  # atno 17370 bound_to 10713
  156.5383  130.4201  149.6167 LP  0  0  0  0  0  0  0  0  0  0  0  0  # atno 17371 bound_to 10713
  140.7418  133.8971  155.8284 LP  0  0  0  0  0  0  0  0  0  0  0  0  # atno 17394 bound_to 11000
  141.0071  134.1071  157.4259 LP  0  0  0  0  0  0  0  0  0  0  0  0  # atno 17395 bound_to 11000

$$$$
