AV-unprocessed.smi:3148|AV-procd|sdf|11997|dock1
  -GOLD-   2272017403D 1   1.00000     0.00000
 Structure written by MMmdl.
 35 37  0  0  0  0  0  0  0  0  2 V2000
  153.6508  140.6681  160.3706 C   0  0  0  0  0  0  0  0  0  0  0  0
  152.6551  140.4098  159.3862 O   0  0  0  0  0  0  0  0  0  0  0  0
  152.0599  141.4853  158.7600 C   0  0  0  0  0  0  0  0  0  0  0  0
  152.4460  142.7906  159.1062 C   0  0  0  0  0  0  0  0  0  0  0  0
  151.8049  143.8479  158.4326 C   0  0  0  0  0  0  0  0  0  0  0  0
  152.1295  145.2986  158.7187 C   0  0  0  0  0  0  0  0  0  0  0  0
  150.8596  143.5842  157.4963 N   0  3  0  0  0  0  0  0  0  0  0  0
  150.5333  142.3144  157.2136 C   0  0  0  0  0  0  0  0  0  0  0  0
  149.5568  142.1027  156.2572 N   0  0  0  0  0  0  0  0  0  0  0  0
  149.0930  140.7844  155.8404 C   0  0  2  0  0  0  0  0  0  0  0  0
  149.3986  140.4735  154.3733 C   0  0  0  0  0  0  0  0  0  0  0  0
  148.0123  140.0869  153.8389 C   0  0  2  0  0  0  0  0  0  0  0  0
  147.1153  141.3182  153.6573 C   0  0  0  0  0  0  0  0  0  0  0  0
  146.7863  141.6786  155.1046 C   0  0  0  0  0  0  0  0  0  0  0  0
  147.5625  140.6038  155.8850 C   0  0  1  0  0  0  0  0  0  0  0  0
  147.4284  139.5091  154.9948 O   0  0  0  0  0  0  0  0  0  0  0  0
  151.1104  141.2681  157.8204 N   0  0  0  0  0  0  0  0  0  0  0  0
  154.0101  139.7226  160.7768 H   0  0  0  0  0  0  0  0  0  0  0  0
  153.2504  141.2523  161.2005 H   0  0  0  0  0  0  0  0  0  0  0  0
  154.5071  141.1924  159.9442 H   0  0  0  0  0  0  0  0  0  0  0  0
  153.2020  142.9700  159.8570 H   0  0  0  0  0  0  0  0  0  0  0  0
  153.0018  145.3858  159.3672 H   0  0  0  0  0  0  0  0  0  0  0  0
  151.2869  145.7838  159.2121 H   0  0  0  0  0  0  0  0  0  0  0  0
  152.3407  145.8330  157.7921 H   0  0  0  0  0  0  0  0  0  0  0  0
  149.0336  142.9069  155.9428 H   0  0  0  0  0  0  0  0  0  0  0  0
  149.5663  140.0263  156.4663 H   0  0  0  0  0  0  0  0  0  0  0  0
  149.8280  141.3125  153.8237 H   0  0  0  0  0  0  0  0  0  0  0  0
  150.0905  139.6335  154.3019 H   0  0  0  0  0  0  0  0  0  0  0  0
  148.0399  139.4286  152.9702 H   0  0  0  0  0  0  0  0  0  0  0  0
  147.6189  142.1244  153.1229 H   0  0  0  0  0  0  0  0  0  0  0  0
  146.2069  141.0614  153.1110 H   0  0  0  0  0  0  0  0  0  0  0  0
  147.0771  142.6959  155.3677 H   0  0  0  0  0  0  0  0  0  0  0  0
  145.7150  141.5805  155.2835 H   0  0  0  0  0  0  0  0  0  0  0  0
  147.1674  140.4133  156.8832 H   0  0  0  0  0  0  0  0  0  0  0  0
  150.4022  144.3597  157.0165 H   0  0  0  0  0  0  0  0  0  0  0  0
  1  2  1  0  0  0  0
  1 18  1  0  0  0  0
  1 19  1  0  0  0  0
  1 20  1  0  0  0  0
  2  3  1  0  0  0  0
  3 17  1  0  0  0  0
  3  4  2  0  0  0  0
  4  5  1  0  0  0  0
  4 21  1  0  0  0  0
  5  6  1  0  0  0  0
  5  7  2  0  0  0  0
  6 22  1  0  0  0  0
  6 23  1  0  0  0  0
  6 24  1  0  0  0  0
  7  8  1  0  0  0  0
  7 35  1  0  0  0  0
  8  9  1  0  0  0  0
  8 17  2  0  0  0  0
  9 10  1  0  0  0  0
  9 25  1  0  0  0  0
 10 15  1  0  0  0  0
 10 11  1  0  0  0  0
 10 26  1  0  0  0  0
 11 12  1  0  0  0  0
 11 27  1  0  0  0  0
 11 28  1  0  0  0  0
 12 16  1  0  0  0  0
 12 13  1  0  0  0  0
 12 29  1  0  0  0  0
 13 14  1  0  0  0  0
 13 30  1  0  0  0  0
 13 31  1  0  0  0  0
 14 15  1  0  0  0  0
 14 32  1  0  0  0  0
 14 33  1  0  0  0  0
 15 16  1  0  0  0  0
 15 34  1  0  0  0  0
M  CHG  1   7   1
M  END
> <s_m_source_file>
AV-unprocessed.smi

> <i_m_source_file_index>
3148

> <i_lp_mmshare_version>
43012

> <i_f3d_flags>
0

> <s_epik_input>
W0NIM11PYzFbY0hdYyhbQ0gzXSluYyhuMSlbTkhdW0NASF0oW0NIMl1bQ0BASF0yMylbQ0BASF0oTzMpW0NIMl1bQ0gyXTI=

> <s_epik_cmdline>
J2VwaWtfcHl0aG9uJywgJy1waCcsICc3LjAnLCAnLXRuJywgJzgnLCAnLW1hJywgJzIwMCcsICctbWV0YWxfYmluZGluZycsICctaW1hZScsICc8aW5maWxlLm1hZT4nLCAnLW9tYWUnLCAnPG91dGZpbGUubWFlPic=

> <r_lp_tautomer_probability>
0.999985

> <r_epik_Ionization_Penalty>
1.09461

> <r_epik_Ionization_Penalty_Charging>
1.0946

> <r_epik_Ionization_Penalty_Neutral>
6.69406e-06

> <r_epik_State_Penalty>
1.15119

> <r_epik_Charging_Adjusted_Penalty>
2.24579

> <i_epik_Tot_Q>
1

> <i_epik_Tot_abs_Q>
1

> <r_epik_Metal_State_Penalty>
1.2392

> <b_epik_Metal_Only>
0

> <s_lp_Force_Field>
OPLS_2005

> <r_lp_Energy>
36.3956

> <b_lp_Chiralities_Consistent>
1

> <s_lp_Variant>
AV-unprocessed.smi:3148-7

> <Gold.Version>
5.8.1

> <Gold.Id.Protein>
6NUR|6NUR_protein|mol2

> <Gold.PLP.Fitness>
43.4548

> <Gold.PLP.PLP>
-32.5326

> <Gold.PLP.part.hbond>
-2.0000

> <Gold.PLP.part.metal>
0.0000

> <Gold.PLP.part.buried>
-3.6873

> <Gold.PLP.part.nonpolar>
-27.1683

> <Gold.PLP.part.repulsive>
0.1443

> <Gold.PLP.ligand.clash>
0.0494

> <Gold.PLP.ligand.torsion>
0.0406

> <Gold.PLP.Chemscore.Hbond>
3.6812

> <Gold.PLP.Chemscore.CHOScore>
0.0000

> <Gold.PLP.Chemscore.Metal>
0.0000

> <Gold.Chemscore.Hbonds>
donor molecule, donor type, donor heavy atom, donor atom, acceptor molecule, acceptor atom, score
      L1  H     7    35       P1  8028  1.65
      L1  H     9    25       P1  8028  2.00

> <Gold.PLP.Chemscore.Internal.Correction>
0.0094

> <Gold.Rescore>
     Score         DG    S(hbond)    S(metal)    S(lipo)     H(rot)  DE(clash)    DE(int)     intcor
     17.12     -17.20       1.67        0.00      79.69       1.24       0.04       0.04       ----

> <Gold.Chemscore.Fitness>
17.1241

> <Gold.Chemscore.DG>
-17.2023

> <Gold.Chemscore.ZeroCoef>
-5.4800

> <Gold.Chemscore.Hbond>
1.6666

> <Gold.Chemscore.Metal>
0.0000

> <Gold.Chemscore.Lipo>
79.6927

> <Gold.Chemscore.Internal_Hbond>
0.0000

> <Gold.Chemscore.DEClash>
0.0431

> <Gold.Chemscore.DEInternal>
0.0351

> <Gold.Chemscore.Rot>
1.2376

> <Gold.Chemscore.Internal.Correction>
   9.000000E+99

> <Gold.Chemscore.Hbonds>
donor molecule, donor type, donor heavy atom, donor atom, acceptor molecule, acceptor atom, score
      L1  H     7    35       P1  8028  0.68
      L1  H     9    25       P1  8028  0.95

> <Gold.Chemscore.Hbond.Weighted>
-5.5664

> <Gold.Chemscore.Metal.Weighted>
-0.0000

> <Gold.Chemscore.Lipo.Weighted>
-9.3240

> <Gold.Chemscore.Internal_Hbond.Weighted>
0.0000

> <Gold.Chemscore.DEClash.Weighted>
0.0431

> <Gold.Chemscore.DEInternal.Weighted>
0.0351

> <Gold.Chemscore.Rot.Weighted>
3.1681

> <Gold.Chemscore.Internal.Correction.Weighted>
   9.000000E+99

> <Gold.Protein.RotatedTorsions>
[ 6907 6896 6895 6894 ] final  -95.13 input  -60.11 | X-H torsion
[ 7974 7965 7964 7962 ] final  -12.20 input  175.53 | X-H torsion
[ 8008 7997 7996 7995 ] final  159.48 input   59.86 | X-H torsion
[ 10167 10162 10161 10158 ] final -174.28 input  -65.29 | X-H torsion
[ 10718 10713 10712 10709 ] final  -55.86 input   66.30 | X-H torsion
[ 10763 10752 10751 10750 ] final  -19.14 input  -60.55 | X-H torsion
[ 11005 11000 10999 10996 ] final  179.01 input  -57.11 | X-H torsion

> <Gold.Protein.ActiveResidues>
 VAL166  LYS551  ARG553  GLY616  TRP617  ASP618  TYR619  PRO620  LYS621  CYS622 
 ASP623  PHE694  ASN695  SER759  ASP760  ASP761  ALA762  ILE779  LEU786  VAL792 
 PHE793  MET794  SER795  GLU796  ALA797  LYS798  CYS799  TRP800  GLU811  SER814 

> <Gold.Protein.RotatedAtoms>
  150.6957  134.1705  159.4210 H   0  0  0  0  0  0  0  0  0  0  0  0  # atno 6907 bound_to 6896
  151.9683  135.0087  160.0560 H   0  0  0  0  0  0  0  0  0  0  0  0  # atno 6908 bound_to 6896
  152.1864  133.4708  159.5022 H   0  0  0  0  0  0  0  0  0  0  0  0  # atno 6909 bound_to 6896
  146.2160  140.3022  142.8376 H   0  0  0  0  0  0  0  0  0  0  0  0  # atno 7974 bound_to 7965
  156.2236  140.1830  156.7417 H   0  0  0  0  0  0  0  0  0  0  0  0  # atno 8008 bound_to 7997
  154.5905  140.0651  156.9260 H   0  0  0  0  0  0  0  0  0  0  0  0  # atno 8009 bound_to 7997
  155.2345  140.3317  155.4302 H   0  0  0  0  0  0  0  0  0  0  0  0  # atno 8010 bound_to 7997
  139.5642  144.1796  152.1287 H   0  0  0  0  0  0  0  0  0  0  0  0  # atno 10167 bound_to 10162
  156.1334  130.4158  150.0228 H   0  0  0  0  0  0  0  0  0  0  0  0  # atno 10718 bound_to 10713
  153.6002  135.6999  153.5388 H   0  0  0  0  0  0  0  0  0  0  0  0  # atno 10763 bound_to 10752
  153.3104  135.4103  155.1330 H   0  0  0  0  0  0  0  0  0  0  0  0  # atno 10764 bound_to 10752
  154.8584  135.3670  154.5537 H   0  0  0  0  0  0  0  0  0  0  0  0  # atno 10765 bound_to 10752
  140.4014  134.6774  157.4564 H   0  0  0  0  0  0  0  0  0  0  0  0  # atno 11005 bound_to 11000
  144.9049  140.7687  143.5844 LP  0  0  0  0  0  0  0  0  0  0  0  0  # atno 17320 bound_to 7965
  145.2950  139.1870  143.4720 LP  0  0  0  0  0  0  0  0  0  0  0  0  # atno 17321 bound_to 7965
  140.1315  144.5284  150.6799 LP  0  0  0  0  0  0  0  0  0  0  0  0  # atno 17342 bound_to 10162
  140.6924  143.2384  151.5093 LP  0  0  0  0  0  0  0  0  0  0  0  0  # atno 17343 bound_to 10162
  156.8134  130.9333  151.3643 LP  0  0  0  0  0  0  0  0  0  0  0  0  # atno 17370 bound_to 10713
  157.6510  130.8884  149.9633 LP  0  0  0  0  0  0  0  0  0  0  0  0  # atno 17371 bound_to 10713
  140.0333  134.6374  155.9077 LP  0  0  0  0  0  0  0  0  0  0  0  0  # atno 17394 bound_to 11000
  141.1855  133.6555  156.5201 LP  0  0  0  0  0  0  0  0  0  0  0  0  # atno 17395 bound_to 11000

$$$$
