AV-unprocessed.smi:1474|AV-procd|sdf|5974|dock6
  -GOLD-   22720 6 63D 1   1.00000     0.00000
 Structure written by MMmdl.
 43 44  0  0  0  0  0  0  0  0  1 V2000
  152.5088  143.2719  158.5296 C   0  0  0  0  0  0  0  0  0  0  0  0
  151.9236  142.1004  157.9891 O   0  0  0  0  0  0  0  0  0  0  0  0
  150.5797  142.3018  157.5847 C   0  0  0  0  0  0  0  0  0  0  0  0
  150.2400  141.3111  156.4682 C   0  0  0  0  0  0  0  0  0  0  0  0
  149.1481  141.8287  155.7142 O   0  0  0  0  0  0  0  0  0  0  0  0
  148.5130  140.9940  154.8174 C   0  0  0  0  0  0  0  0  0  0  0  0
  147.4724  141.5226  154.0264 C   0  0  0  0  0  0  0  0  0  0  0  0
  146.8107  140.6727  153.1197 C   0  0  0  0  0  0  0  0  0  0  0  0
  147.2153  139.3255  153.0306 C   0  0  0  0  0  0  0  0  0  0  0  0
  146.5140  138.3625  152.0902 C   0  0  0  0  0  0  0  0  0  0  0  0
  145.1327  138.1120  152.4836 N   0  0  0  0  0  0  0  0  0  0  0  0
  144.6131  136.8978  152.7237 C   0  0  0  0  0  0  0  0  0  0  0  0
  145.2516  135.8556  152.5733 O   0  0  0  0  0  0  0  0  0  0  0  0
  143.1505  136.8631  153.2055 C   0  0  2  0  0  0  0  0  0  0  0  0
  142.9659  137.6088  154.5403 C   0  0  0  0  0  0  0  0  0  0  0  0
  143.6042  136.8750  155.7350 C   0  0  0  0  0  0  0  0  0  0  0  0
  143.3459  135.3609  155.7378 C   0  0  0  0  0  0  0  0  0  0  0  0
  143.5340  134.7186  156.7681 O   0  0  0  0  0  0  0  0  0  0  0  0
  142.9588  134.7620  154.5977 N   0  0  0  0  0  0  0  0  0  0  0  0
  142.5949  135.4273  153.3447 C   0  0  0  0  0  0  0  0  0  0  0  0
  148.2706  138.8908  153.8592 C   0  0  0  0  0  0  0  0  0  0  0  0
  148.9077  139.6989  154.7329 N   0  0  0  0  0  0  0  0  0  0  0  0
  153.5356  143.0636  158.8297 H   0  0  0  0  0  0  0  0  0  0  0  0
  151.9642  143.6154  159.4099 H   0  0  0  0  0  0  0  0  0  0  0  0
  152.5298  144.0773  157.7943 H   0  0  0  0  0  0  0  0  0  0  0  0
  149.9087  142.1516  158.4321 H   0  0  0  0  0  0  0  0  0  0  0  0
  150.4423  143.3247  157.2309 H   0  0  0  0  0  0  0  0  0  0  0  0
  151.1110  141.1653  155.8273 H   0  0  0  0  0  0  0  0  0  0  0  0
  149.9745  140.3465  156.9042 H   0  0  0  0  0  0  0  0  0  0  0  0
  147.1827  142.5589  154.1188 H   0  0  0  0  0  0  0  0  0  0  0  0
  146.0036  141.0483  152.5081 H   0  0  0  0  0  0  0  0  0  0  0  0
  146.5146  138.7875  151.0861 H   0  0  0  0  0  0  0  0  0  0  0  0
  147.0673  137.4238  152.0270 H   0  0  0  0  0  0  0  0  0  0  0  0
  144.5412  138.9191  152.6192 H   0  0  0  0  0  0  0  0  0  0  0  0
  142.5539  137.3724  152.4466 H   0  0  0  0  0  0  0  0  0  0  0  0
  143.3779  138.6165  154.4688 H   0  0  0  0  0  0  0  0  0  0  0  0
  141.8996  137.7377  154.7304 H   0  0  0  0  0  0  0  0  0  0  0  0
  144.6843  137.0249  155.7257 H   0  0  0  0  0  0  0  0  0  0  0  0
  143.2437  137.3056  156.6697 H   0  0  0  0  0  0  0  0  0  0  0  0
  142.8413  133.7593  154.6219 H   0  0  0  0  0  0  0  0  0  0  0  0
  141.5060  135.4555  153.2938 H   0  0  0  0  0  0  0  0  0  0  0  0
  142.9198  134.8041  152.5105 H   0  0  0  0  0  0  0  0  0  0  0  0
  148.6060  137.8646  153.8300 H   0  0  0  0  0  0  0  0  0  0  0  0
  1  2  1  0  0  0  0
  1 23  1  0  0  0  0
  1 24  1  0  0  0  0
  1 25  1  0  0  0  0
  2  3  1  0  0  0  0
  3  4  1  0  0  0  0
  3 26  1  0  0  0  0
  3 27  1  0  0  0  0
  4  5  1  0  0  0  0
  4 28  1  0  0  0  0
  4 29  1  0  0  0  0
  5  6  1  0  0  0  0
  6 22  1  0  0  0  0
  6  7  2  0  0  0  0
  7  8  1  0  0  0  0
  7 30  1  0  0  0  0
  8  9  2  0  0  0  0
  8 31  1  0  0  0  0
  9 10  1  0  0  0  0
  9 21  1  0  0  0  0
 10 11  1  0  0  0  0
 10 32  1  0  0  0  0
 10 33  1  0  0  0  0
 11 12  1  0  0  0  0
 11 34  1  0  0  0  0
 12 13  2  0  0  0  0
 12 14  1  0  0  0  0
 14 20  1  0  0  0  0
 14 15  1  0  0  0  0
 14 35  1  0  0  0  0
 15 16  1  0  0  0  0
 15 36  1  0  0  0  0
 15 37  1  0  0  0  0
 16 17  1  0  0  0  0
 16 38  1  0  0  0  0
 16 39  1  0  0  0  0
 17 18  2  0  0  0  0
 17 19  1  0  0  0  0
 19 20  1  0  0  0  0
 19 40  1  0  0  0  0
 20 41  1  0  0  0  0
 20 42  1  0  0  0  0
 21 22  2  0  0  0  0
 21 43  1  0  0  0  0
M  END
> <s_m_source_file>
AV-unprocessed.smi

> <i_m_source_file_index>
1474

> <i_lp_mmshare_version>
43012

> <i_f3d_flags>
0

> <s_epik_input>
W0NIM11PW0NIMl1bQ0gyXU9jMVtjSF1bY0hdYyhbY0hdbjEpW0NIMl1bTkhdQyg9TylbQ0BASF0yW0NIMl1bQ0gyXUMoPU8pW05IXVtDSDJdMg==

> <s_epik_cmdline>
J2VwaWtfcHl0aG9uJywgJy1waCcsICc3LjAnLCAnLXRuJywgJzgnLCAnLW1hJywgJzIwMCcsICctbWV0YWxfYmluZGluZycsICctaW1hZScsICc8aW5maWxlLm1hZT4nLCAnLW9tYWUnLCAnPG91dGZpbGUubWFlPic=

> <r_lp_tautomer_probability>
1

> <r_epik_Ionization_Penalty>
6.19599e-05

> <r_epik_Ionization_Penalty_Charging>
0

> <r_epik_Ionization_Penalty_Neutral>
6.19599e-05

> <r_epik_State_Penalty>
-0

> <r_epik_Charging_Adjusted_Penalty>
0

> <i_epik_Tot_Q>
0

> <i_epik_Tot_abs_Q>
0

> <r_epik_Metal_State_Penalty>
-0

> <b_epik_Metal_Only>
0

> <s_lp_Force_Field>
OPLS_2005

> <r_lp_Energy>
10.5341

> <b_lp_Chiralities_Consistent>
1

> <s_lp_Variant>
AV-unprocessed.smi:1474-1

> <Gold.Version>
5.8.1

> <Gold.Id.Protein>
6NUR|6NUR_protein|mol2

> <Gold.PLP.Fitness>
41.4096

> <Gold.PLP.PLP>
-33.0921

> <Gold.PLP.part.hbond>
-3.5776

> <Gold.PLP.part.metal>
0.0000

> <Gold.PLP.part.buried>
-2.9326

> <Gold.PLP.part.nonpolar>
-28.5742

> <Gold.PLP.part.repulsive>
1.2186

> <Gold.PLP.ligand.clash>
0.0000

> <Gold.PLP.ligand.torsion>
0.4018

> <Gold.PLP.Chemscore.Hbond>
2.0000

> <Gold.PLP.Chemscore.CHOScore>
1.0000

> <Gold.PLP.Chemscore.Metal>
0.0000

> <Gold.Chemscore.Hbonds>
donor molecule, donor type, donor heavy atom, donor atom, acceptor molecule, acceptor atom, score
      L1  H    11    34       P1 10175  1.00
      L1  H    19    40       P1 10957  1.00
      L1  C    21    43       P1  7948  0.91

> <Gold.PLP.Chemscore.Internal.Correction>
0.1210

> <Gold.Rescore>
     Score         DG    S(hbond)    S(metal)    S(lipo)     H(rot)  DE(clash)    DE(int)     intcor
     13.17     -14.04       2.00        0.00      71.29       2.52       0.17       0.71       ----

> <Gold.Chemscore.Fitness>
13.1672

> <Gold.Chemscore.DG>
-14.0444

> <Gold.Chemscore.ZeroCoef>
-5.4800

> <Gold.Chemscore.Hbond>
1.9984

> <Gold.Chemscore.Metal>
0.0000

> <Gold.Chemscore.Lipo>
71.2925

> <Gold.Chemscore.Internal_Hbond>
0.0000

> <Gold.Chemscore.DEClash>
0.1698

> <Gold.Chemscore.DEInternal>
0.7075

> <Gold.Chemscore.Rot>
2.5201

> <Gold.Chemscore.Internal.Correction>
   9.000000E+99

> <Gold.Chemscore.Hbonds>
donor molecule, donor type, donor heavy atom, donor atom, acceptor molecule, acceptor atom, score
      L1  H    11    34       P1 10175  1.00
      L1  H    19    40       P1 10957  0.96

> <Gold.Chemscore.Hbond.Weighted>
-6.6746

> <Gold.Chemscore.Metal.Weighted>
-0.0000

> <Gold.Chemscore.Lipo.Weighted>
-8.3412

> <Gold.Chemscore.Internal_Hbond.Weighted>
0.0000

> <Gold.Chemscore.DEClash.Weighted>
0.1698

> <Gold.Chemscore.DEInternal.Weighted>
0.7075

> <Gold.Chemscore.Rot.Weighted>
6.4514

> <Gold.Chemscore.Internal.Correction.Weighted>
   9.000000E+99

> <Gold.Protein.RotatedTorsions>
[ 6907 6896 6895 6894 ] final   41.40 input  -60.11 | X-H torsion
[ 7974 7965 7964 7962 ] final   41.93 input  175.53 | X-H torsion
[ 8008 7997 7996 7995 ] final  -34.09 input   59.86 | X-H torsion
[ 10167 10162 10161 10158 ] final  121.46 input  -65.29 | X-H torsion
[ 10718 10713 10712 10709 ] final -149.84 input   66.30 | X-H torsion
[ 10763 10752 10751 10750 ] final -113.16 input  -60.55 | X-H torsion
[ 11005 11000 10999 10996 ] final   21.78 input  -57.11 | X-H torsion

> <Gold.Protein.ActiveResidues>
 VAL166  LYS551  ARG553  GLY616  TRP617  ASP618  TYR619  PRO620  LYS621  CYS622 
 ASP623  PHE694  ASN695  SER759  ASP760  ASP761  ALA762  ILE779  LEU786  VAL792 
 PHE793  MET794  SER795  GLU796  ALA797  LYS798  CYS799  TRP800  GLU811  SER814 

> <Gold.Protein.RotatedAtoms>
  152.1948  134.8640  160.0513 H   0  0  0  0  0  0  0  0  0  0  0  0  # atno 6907 bound_to 6896
  151.9515  133.3662  159.4010 H   0  0  0  0  0  0  0  0  0  0  0  0  # atno 6908 bound_to 6896
  150.6942  134.4259  159.5270 H   0  0  0  0  0  0  0  0  0  0  0  0  # atno 6909 bound_to 6896
  146.0783  139.5359  142.9553 H   0  0  0  0  0  0  0  0  0  0  0  0  # atno 7974 bound_to 7965
  154.4130  140.1693  156.1993 H   0  0  0  0  0  0  0  0  0  0  0  0  # atno 8008 bound_to 7997
  155.9538  140.3399  155.6407 H   0  0  0  0  0  0  0  0  0  0  0  0  # atno 8009 bound_to 7997
  155.6836  140.0725  157.2466 H   0  0  0  0  0  0  0  0  0  0  0  0  # atno 8010 bound_to 7997
  139.5918  144.7028  151.3272 H   0  0  0  0  0  0  0  0  0  0  0  0  # atno 10167 bound_to 10162
  156.4384  130.8110  151.2339 H   0  0  0  0  0  0  0  0  0  0  0  0  # atno 10718 bound_to 10713
  154.8383  135.4464  154.1305 H   0  0  0  0  0  0  0  0  0  0  0  0  # atno 10763 bound_to 10752
  153.2517  135.6927  153.7678 H   0  0  0  0  0  0  0  0  0  0  0  0  # atno 10764 bound_to 10752
  153.6988  135.3375  155.3195 H   0  0  0  0  0  0  0  0  0  0  0  0  # atno 10765 bound_to 10752
  140.3878  134.1851  155.7663 H   0  0  0  0  0  0  0  0  0  0  0  0  # atno 11005 bound_to 11000
  145.6265  141.0312  143.1886 LP  0  0  0  0  0  0  0  0  0  0  0  0  # atno 17320 bound_to 7965
  144.7276  139.7826  143.7359 LP  0  0  0  0  0  0  0  0  0  0  0  0  # atno 17321 bound_to 7965
  140.7179  143.7216  150.7692 LP  0  0  0  0  0  0  0  0  0  0  0  0  # atno 17342 bound_to 10162
  140.0773  143.5003  152.2548 LP  0  0  0  0  0  0  0  0  0  0  0  0  # atno 17343 bound_to 10162
  157.7507  131.0176  150.3592 LP  0  0  0  0  0  0  0  0  0  0  0  0  # atno 17370 bound_to 10713
  156.3944  130.3904  149.7006 LP  0  0  0  0  0  0  0  0  0  0  0  0  # atno 17371 bound_to 10713
  141.1901  133.8224  157.0931 LP  0  0  0  0  0  0  0  0  0  0  0  0  # atno 17394 bound_to 11000
  140.0429  134.9845  157.0995 LP  0  0  0  0  0  0  0  0  0  0  0  0  # atno 17395 bound_to 11000

$$$$
