AV-unprocessed.smi:1762|AV-procd|sdf|7100|dock5
  -GOLD-   22720 8323D 1   1.00000     0.00000
 Structure written by MMmdl.
 52 53  0  0  0  0  0  0  0  0  1 V2000
  147.9572  140.6544  153.7876 C   0  0  0  0  0  0  0  0  0  0  0  0
  148.2628  141.2457  155.1685 C   0  0  2  0  0  0  0  0  0  0  0  0
  149.6523  140.8303  155.6901 C   0  0  0  0  0  0  0  0  0  0  0  0
  149.9245  141.3286  157.0438 N   0  0  0  0  0  0  0  0  0  0  0  0
  151.2775  140.9520  157.5420 C   0  0  2  0  0  0  0  0  0  0  0  0
  151.5692  139.4379  157.4143 C   0  0  0  0  0  0  0  0  0  0  0  0
  152.5425  139.0429  156.7715 O   0  0  0  0  0  0  0  0  0  0  0  0
  150.7377  138.6068  158.0628 N   0  0  0  0  0  0  0  0  0  0  0  0
  150.8786  137.1565  158.1110 C   0  0  0  0  0  0  0  0  0  0  0  0
  149.5143  136.4669  158.2808 C   0  0  0  0  0  0  0  0  0  0  0  0
  149.5254  135.4338  159.3912 C   0  0  0  0  0  0  0  0  0  0  0  0
  150.0435  134.1407  159.1655 C   0  0  0  0  0  0  0  0  0  0  0  0
  150.0274  133.2163  160.2277 C   0  0  0  0  0  0  0  0  0  0  0  0
  149.4946  133.6179  161.4677 C   0  0  0  0  0  0  0  0  0  0  0  0
  148.9998  134.9315  161.5906 C   0  0  0  0  0  0  0  0  0  0  0  0
  149.0111  135.8259  160.5787 N   0  0  0  0  0  0  0  0  0  0  0  0
  151.6233  141.4663  158.9801 C   0  0  0  0  0  0  0  0  0  0  0  0
  151.2483  142.9446  159.2082 C   0  0  0  0  0  0  0  0  0  0  0  0
  153.0839  141.2120  159.4022 C   0  0  0  0  0  0  0  0  0  0  0  0
  148.8188  140.9119  157.9247 C   0  0  0  0  0  0  0  0  0  0  0  0
  147.4353  141.3219  157.3849 C   0  0  2  0  0  0  0  0  0  0  0  0
  146.2920  140.8019  158.2636 C   0  0  0  0  0  0  0  0  0  0  0  0
  147.2671  140.7917  156.0763 O   0  0  0  0  0  0  0  0  0  0  0  0
  148.6864  140.9860  153.0481 H   0  0  0  0  0  0  0  0  0  0  0  0
  146.9704  140.9631  153.4421 H   0  0  0  0  0  0  0  0  0  0  0  0
  147.9759  139.5645  153.8118 H   0  0  0  0  0  0  0  0  0  0  0  0
  148.2098  142.3339  155.0996 H   0  0  0  0  0  0  0  0  0  0  0  0
  149.7411  139.7428  155.6702 H   0  0  0  0  0  0  0  0  0  0  0  0
  150.3818  141.2191  154.9825 H   0  0  0  0  0  0  0  0  0  0  0  0
  151.9953  141.4417  156.8802 H   0  0  0  0  0  0  0  0  0  0  0  0
  149.9650  139.0096  158.5730 H   0  0  0  0  0  0  0  0  0  0  0  0
  151.3498  136.8300  157.1834 H   0  0  0  0  0  0  0  0  0  0  0  0
  151.5543  136.8729  158.9198 H   0  0  0  0  0  0  0  0  0  0  0  0
  148.7408  137.2062  158.4940 H   0  0  0  0  0  0  0  0  0  0  0  0
  149.2225  135.9817  157.3481 H   0  0  0  0  0  0  0  0  0  0  0  0
  150.4430  133.8617  158.2014 H   0  0  0  0  0  0  0  0  0  0  0  0
  150.4160  132.2175  160.0934 H   0  0  0  0  0  0  0  0  0  0  0  0
  149.4653  132.9357  162.3043 H   0  0  0  0  0  0  0  0  0  0  0  0
  148.5838  135.2727  162.5268 H   0  0  0  0  0  0  0  0  0  0  0  0
  150.9930  140.9269  159.6850 H   0  0  0  0  0  0  0  0  0  0  0  0
  151.8827  143.6228  158.6367 H   0  0  0  0  0  0  0  0  0  0  0  0
  151.3543  143.2137  160.2594 H   0  0  0  0  0  0  0  0  0  0  0  0
  150.2127  143.1359  158.9262 H   0  0  0  0  0  0  0  0  0  0  0  0
  153.7872  141.8015  158.8148 H   0  0  0  0  0  0  0  0  0  0  0  0
  153.3561  140.1621  159.2934 H   0  0  0  0  0  0  0  0  0  0  0  0
  153.2355  141.4774  160.4487 H   0  0  0  0  0  0  0  0  0  0  0  0
  148.8494  139.8298  158.0643 H   0  0  0  0  0  0  0  0  0  0  0  0
  148.9103  141.3562  158.9153 H   0  0  0  0  0  0  0  0  0  0  0  0
  147.3709  142.4105  157.3378 H   0  0  0  0  0  0  0  0  0  0  0  0
  146.3696  141.1903  159.2793 H   0  0  0  0  0  0  0  0  0  0  0  0
  146.3014  139.7130  158.3196 H   0  0  0  0  0  0  0  0  0  0  0  0
  145.3242  141.1065  157.8646 H   0  0  0  0  0  0  0  0  0  0  0  0
  1  2  1  0  0  0  0
  1 24  1  0  0  0  0
  1 25  1  0  0  0  0
  1 26  1  0  0  0  0
  2 23  1  0  0  0  0
  2  3  1  0  0  0  0
  2 27  1  0  0  0  0
  3  4  1  0  0  0  0
  3 28  1  0  0  0  0
  3 29  1  0  0  0  0
  4  5  1  0  0  0  0
  4 20  1  0  0  0  0
  5  6  1  0  0  0  0
  5 17  1  0  0  0  0
  5 30  1  0  0  0  0
  6  7  2  0  0  0  0
  6  8  1  0  0  0  0
  8  9  1  0  0  0  0
  8 31  1  0  0  0  0
  9 10  1  0  0  0  0
  9 32  1  0  0  0  0
  9 33  1  0  0  0  0
 10 11  1  0  0  0  0
 10 34  1  0  0  0  0
 10 35  1  0  0  0  0
 11 16  1  0  0  0  0
 11 12  2  0  0  0  0
 12 13  1  0  0  0  0
 12 36  1  0  0  0  0
 13 14  2  0  0  0  0
 13 37  1  0  0  0  0
 14 15  1  0  0  0  0
 14 38  1  0  0  0  0
 15 16  2  0  0  0  0
 15 39  1  0  0  0  0
 17 18  1  0  0  0  0
 17 19  1  0  0  0  0
 17 40  1  0  0  0  0
 18 41  1  0  0  0  0
 18 42  1  0  0  0  0
 18 43  1  0  0  0  0
 19 44  1  0  0  0  0
 19 45  1  0  0  0  0
 19 46  1  0  0  0  0
 20 21  1  0  0  0  0
 20 47  1  0  0  0  0
 20 48  1  0  0  0  0
 21 22  1  0  0  0  0
 21 23  1  0  0  0  0
 21 49  1  0  0  0  0
 22 50  1  0  0  0  0
 22 51  1  0  0  0  0
 22 52  1  0  0  0  0
M  END
> <s_m_source_file>
AV-unprocessed.smi

> <i_m_source_file_index>
1762

> <i_lp_mmshare_version>
43012

> <i_f3d_flags>
0

> <s_epik_input>
W0NIM11bQ0BASF0xW0NIMl1OKFtDSDJdW0NASF0oTzEpW0NIM10pW0NAQEhdKFtDSF0oW0NIM10pW0NIM10pQyg9TylbTkhdW0NIMl1bQ0gyXWMyW2NIXVtjSF1bY0hdW2NIXW4y

> <s_epik_cmdline>
J2VwaWtfcHl0aG9uJywgJy1waCcsICc3LjAnLCAnLXRuJywgJzgnLCAnLW1hJywgJzIwMCcsICctbWV0YWxfYmluZGluZycsICctaW1hZScsICc8aW5maWxlLm1hZT4nLCAnLW9tYWUnLCAnPG91dGZpbGUubWFlPic=

> <r_epik_Ionization_Penalty>
0.0399736

> <r_epik_Ionization_Penalty_Charging>
0

> <r_epik_Ionization_Penalty_Neutral>
0.0399736

> <r_epik_State_Penalty>
0.0317634

> <r_epik_Charging_Adjusted_Penalty>
0.0317634

> <i_epik_Tot_Q>
0

> <i_epik_Tot_abs_Q>
0

> <r_epik_Metal_State_Penalty>
0.0307795

> <b_epik_Metal_Only>
0

> <s_lp_Force_Field>
OPLS_2005

> <r_lp_Energy>
25.9705

> <b_lp_Chiralities_Consistent>
1

> <s_lp_Variant>
AV-unprocessed.smi:1762-2

> <Gold.Version>
5.8.1

> <Gold.Id.Protein>
6NUR|6NUR_protein|mol2

> <Gold.PLP.Fitness>
43.8351

> <Gold.PLP.PLP>
-40.1953

> <Gold.PLP.part.hbond>
-2.0000

> <Gold.PLP.part.metal>
0.0000

> <Gold.PLP.part.buried>
-5.3998

> <Gold.PLP.part.nonpolar>
-33.1329

> <Gold.PLP.part.repulsive>
0.3492

> <Gold.PLP.ligand.clash>
0.0000

> <Gold.PLP.ligand.torsion>
1.1017

> <Gold.PLP.Chemscore.Hbond>
1.8240

> <Gold.PLP.Chemscore.CHOScore>
0.0000

> <Gold.PLP.Chemscore.Metal>
0.0000

> <Gold.Chemscore.Hbonds>
donor molecule, donor type, donor heavy atom, donor atom, acceptor molecule, acceptor atom, score
      P1  H  7997  8008       L1     7  0.81

> <Gold.PLP.Chemscore.Internal.Correction>
0.3712

> <Gold.Rescore>
     Score         DG    S(hbond)    S(metal)    S(lipo)     H(rot)  DE(clash)    DE(int)     intcor
     14.58     -15.98       0.98        0.00      96.77       1.60       0.12       1.29       ----

> <Gold.Chemscore.Fitness>
14.5772

> <Gold.Chemscore.DG>
-15.9815

> <Gold.Chemscore.ZeroCoef>
-5.4800

> <Gold.Chemscore.Hbond>
0.9802

> <Gold.Chemscore.Metal>
0.0000

> <Gold.Chemscore.Lipo>
96.7681

> <Gold.Chemscore.Internal_Hbond>
0.0000

> <Gold.Chemscore.DEClash>
0.1172

> <Gold.Chemscore.DEInternal>
1.2871

> <Gold.Chemscore.Rot>
1.5993

> <Gold.Chemscore.Internal.Correction>
   9.000000E+99

> <Gold.Chemscore.Hbonds>
donor molecule, donor type, donor heavy atom, donor atom, acceptor molecule, acceptor atom, score
      P1  H  7997  8008       L1     7  0.80

> <Gold.Chemscore.Hbond.Weighted>
-3.2737

> <Gold.Chemscore.Metal.Weighted>
-0.0000

> <Gold.Chemscore.Lipo.Weighted>
-11.3219

> <Gold.Chemscore.Internal_Hbond.Weighted>
0.0000

> <Gold.Chemscore.DEClash.Weighted>
0.1172

> <Gold.Chemscore.DEInternal.Weighted>
1.2871

> <Gold.Chemscore.Rot.Weighted>
4.0941

> <Gold.Chemscore.Internal.Correction.Weighted>
   9.000000E+99

> <Gold.Protein.RotatedTorsions>
[ 6907 6896 6895 6894 ] final   34.21 input  -60.11 | X-H torsion
[ 7974 7965 7964 7962 ] final   -0.11 input  175.53 | X-H torsion
[ 8008 7997 7996 7995 ] final  -55.97 input   59.86 | X-H torsion
[ 10167 10162 10161 10158 ] final  149.64 input  -65.29 | X-H torsion
[ 10718 10713 10712 10709 ] final  -65.64 input   66.30 | X-H torsion
[ 10763 10752 10751 10750 ] final   60.26 input  -60.55 | X-H torsion
[ 11005 11000 10999 10996 ] final -154.35 input  -57.11 | X-H torsion

> <Gold.Protein.ActiveResidues>
 VAL166  LYS551  ARG553  GLY616  TRP617  ASP618  TYR619  PRO620  LYS621  CYS622 
 ASP623  PHE694  ASN695  SER759  ASP760  ASP761  ALA762  ILE779  LEU786  VAL792 
 PHE793  MET794  SER795  GLU796  ALA797  LYS798  CYS799  TRP800  GLU811  SER814 

> <Gold.Protein.RotatedAtoms>
  152.0992  134.9353  160.0569 H   0  0  0  0  0  0  0  0  0  0  0  0  # atno 6907 bound_to 6896
  152.0574  133.4042  159.4411 H   0  0  0  0  0  0  0  0  0  0  0  0  # atno 6908 bound_to 6896
  150.6839  134.3159  159.4809 H   0  0  0  0  0  0  0  0  0  0  0  0  # atno 6909 bound_to 6896
  146.2430  140.1221  142.8340 H   0  0  0  0  0  0  0  0  0  0  0  0  # atno 7974 bound_to 7965
  154.4213  140.1140  156.5563 H   0  0  0  0  0  0  0  0  0  0  0  0  # atno 8008 bound_to 7997
  155.6358  140.3496  155.4679 H   0  0  0  0  0  0  0  0  0  0  0  0  # atno 8009 bound_to 7997
  155.9911  140.1179  157.0627 H   0  0  0  0  0  0  0  0  0  0  0  0  # atno 8010 bound_to 7997
  139.4859  144.5586  151.7273 H   0  0  0  0  0  0  0  0  0  0  0  0  # atno 10167 bound_to 10162
  156.0658  130.4250  150.1593 H   0  0  0  0  0  0  0  0  0  0  0  0  # atno 10718 bound_to 10713
  152.9916  135.5542  154.5845 H   0  0  0  0  0  0  0  0  0  0  0  0  # atno 10763 bound_to 10752
  154.5219  135.2808  155.1257 H   0  0  0  0  0  0  0  0  0  0  0  0  # atno 10764 bound_to 10752
  154.2607  135.6381  153.5326 H   0  0  0  0  0  0  0  0  0  0  0  0  # atno 10765 bound_to 10752
  140.6983  134.3965  157.5212 H   0  0  0  0  0  0  0  0  0  0  0  0  # atno 11005 bound_to 11000
  145.0398  140.8936  143.5059 LP  0  0  0  0  0  0  0  0  0  0  0  0  # atno 17320 bound_to 7965
  145.1299  139.2639  143.5545 LP  0  0  0  0  0  0  0  0  0  0  0  0  # atno 17321 bound_to 7965
  140.5152  144.0964  150.6006 LP  0  0  0  0  0  0  0  0  0  0  0  0  # atno 17342 bound_to 10162
  140.3904  143.2755  152.0067 LP  0  0  0  0  0  0  0  0  0  0  0  0  # atno 17343 bound_to 10162
  156.9654  130.9818  151.3470 LP  0  0  0  0  0  0  0  0  0  0  0  0  # atno 17370 bound_to 10713
  157.5698  130.8302  149.8376 LP  0  0  0  0  0  0  0  0  0  0  0  0  # atno 17371 bound_to 10713
  139.8904  134.8806  156.2373 LP  0  0  0  0  0  0  0  0  0  0  0  0  # atno 17394 bound_to 11000
  141.0184  133.7055  156.1228 LP  0  0  0  0  0  0  0  0  0  0  0  0  # atno 17395 bound_to 11000

$$$$
