AV-unprocessed.smi:780|AV-procd|sdf|3706|dock2
  -GOLD-   22720 1133D 1   1.00000     0.00000
 Structure written by MMmdl.
 48 49  0  0  0  0  0  0  0  0  1 V2000
  150.4471  141.9592  157.9408 C   0  0  0  0  0  0  0  0  0  0  0  0
  150.5214  141.0674  156.7188 C   0  0  0  0  0  0  0  0  0  0  0  0
  149.3157  140.5428  156.1127 C   0  0  0  0  0  0  0  0  0  0  0  0
  149.4181  139.7486  155.0359 C   0  0  0  0  0  0  0  0  0  0  0  0
  150.6639  139.4086  154.4773 N   0  0  0  0  0  0  0  0  0  0  0  0
  150.6503  138.4792  153.3309 C   0  0  0  0  0  0  0  0  0  0  0  0
  151.3955  137.1544  153.5780 C   0  0  0  0  0  0  0  0  0  0  0  0
  152.5847  137.1772  153.8920 O   0  0  0  0  0  0  0  0  0  0  0  0
  150.7062  136.0147  153.4220 N   0  0  0  0  0  0  0  0  0  0  0  0
  151.2318  134.6644  153.5500 C   0  0  0  0  0  0  0  0  0  0  0  0
  150.0886  133.6392  153.4679 C   0  0  0  0  0  0  0  0  0  0  0  0
  149.3935  133.6029  152.0971 C   0  0  0  0  0  0  0  0  0  0  0  0
  148.5794  132.4426  152.0206 O   0  0  0  0  0  0  0  0  0  0  0  0
  147.5624  132.5057  151.0280 C   0  0  0  0  0  0  0  0  0  0  0  0
  146.5639  133.6451  151.3294 C   0  0  0  0  0  0  0  0  0  0  0  0
  145.3880  133.6385  150.3394 C   0  0  0  0  0  0  0  0  0  0  0  0
  144.6792  132.2751  150.3210 C   0  0  0  0  0  0  0  0  0  0  0  0
  145.6695  131.1381  150.0238 C   0  0  0  0  0  0  0  0  0  0  0  0
  146.8399  131.1470  151.0203 C   0  0  0  0  0  0  0  0  0  0  0  0
  151.8390  139.8749  154.9982 C   0  0  0  0  0  0  0  0  0  0  0  0
  152.9328  139.5718  154.5218 O   0  0  0  0  0  0  0  0  0  0  0  0
  151.7150  140.7438  156.1744 C   0  0  0  0  0  0  0  0  0  0  0  0
  149.4512  141.9353  158.3839 H   0  0  0  0  0  0  0  0  0  0  0  0
  150.6777  142.9901  157.6712 H   0  0  0  0  0  0  0  0  0  0  0  0
  151.1608  141.6319  158.6978 H   0  0  0  0  0  0  0  0  0  0  0  0
  148.3449  140.7814  156.5218 H   0  0  0  0  0  0  0  0  0  0  0  0
  148.5602  139.3160  154.5416 H   0  0  0  0  0  0  0  0  0  0  0  0
  149.6199  138.2427  153.0606 H   0  0  0  0  0  0  0  0  0  0  0  0
  151.0715  138.9536  152.4429 H   0  0  0  0  0  0  0  0  0  0  0  0
  149.7328  136.0921  153.1657 H   0  0  0  0  0  0  0  0  0  0  0  0
  151.9598  134.4829  152.7580 H   0  0  0  0  0  0  0  0  0  0  0  0
  151.7559  134.5627  154.5014 H   0  0  0  0  0  0  0  0  0  0  0  0
  150.4752  132.6473  153.7033 H   0  0  0  0  0  0  0  0  0  0  0  0
  149.3500  133.8680  154.2373 H   0  0  0  0  0  0  0  0  0  0  0  0
  148.7839  134.4956  151.9619 H   0  0  0  0  0  0  0  0  0  0  0  0
  150.1369  133.5922  151.2988 H   0  0  0  0  0  0  0  0  0  0  0  0
  148.0131  132.6591  150.0455 H   0  0  0  0  0  0  0  0  0  0  0  0
  146.1838  133.5403  152.3465 H   0  0  0  0  0  0  0  0  0  0  0  0
  147.0563  134.6154  151.2841 H   0  0  0  0  0  0  0  0  0  0  0  0
  144.6774  134.4226  150.6017 H   0  0  0  0  0  0  0  0  0  0  0  0
  145.7529  133.8744  149.3389 H   0  0  0  0  0  0  0  0  0  0  0  0
  144.2003  132.0996  151.2852 H   0  0  0  0  0  0  0  0  0  0  0  0
  143.8828  132.2794  149.5763 H   0  0  0  0  0  0  0  0  0  0  0  0
  145.1548  130.1779  150.0630 H   0  0  0  0  0  0  0  0  0  0  0  0
  146.0534  131.2427  149.0082 H   0  0  0  0  0  0  0  0  0  0  0  0
  147.5444  130.3533  150.7697 H   0  0  0  0  0  0  0  0  0  0  0  0
  146.4664  130.9236  152.0208 H   0  0  0  0  0  0  0  0  0  0  0  0
  152.6185  141.1322  156.6221 H   0  0  0  0  0  0  0  0  0  0  0  0
  1  2  1  0  0  0  0
  1 23  1  0  0  0  0
  1 24  1  0  0  0  0
  1 25  1  0  0  0  0
  2 22  2  0  0  0  0
  2  3  1  0  0  0  0
  3  4  2  0  0  0  0
  3 26  1  0  0  0  0
  4  5  1  0  0  0  0
  4 27  1  0  0  0  0
  5  6  1  0  0  0  0
  5 20  1  0  0  0  0
  6  7  1  0  0  0  0
  6 28  1  0  0  0  0
  6 29  1  0  0  0  0
  7  8  2  0  0  0  0
  7  9  1  0  0  0  0
  9 10  1  0  0  0  0
  9 30  1  0  0  0  0
 10 11  1  0  0  0  0
 10 31  1  0  0  0  0
 10 32  1  0  0  0  0
 11 12  1  0  0  0  0
 11 33  1  0  0  0  0
 11 34  1  0  0  0  0
 12 13  1  0  0  0  0
 12 35  1  0  0  0  0
 12 36  1  0  0  0  0
 13 14  1  0  0  0  0
 14 19  1  0  0  0  0
 14 15  1  0  0  0  0
 14 37  1  0  0  0  0
 15 16  1  0  0  0  0
 15 38  1  0  0  0  0
 15 39  1  0  0  0  0
 16 17  1  0  0  0  0
 16 40  1  0  0  0  0
 16 41  1  0  0  0  0
 17 18  1  0  0  0  0
 17 42  1  0  0  0  0
 17 43  1  0  0  0  0
 18 19  1  0  0  0  0
 18 44  1  0  0  0  0
 18 45  1  0  0  0  0
 19 46  1  0  0  0  0
 19 47  1  0  0  0  0
 20 21  2  0  0  0  0
 20 22  1  0  0  0  0
 22 48  1  0  0  0  0
M  END
> <s_m_source_file>
AV-unprocessed.smi

> <i_m_source_file_index>
780

> <i_lp_mmshare_version>
43012

> <i_f3d_flags>
0

> <s_epik_input>
W0NIM11jMVtjSF1bY0hdbihjKD1PKVtjSF0xKVtDSDJdQyg9TylbTkhdW0NIMl1bQ0gyXVtDSDJdT1tDSF0yW0NIMl1bQ0gyXVtDSDJdW0NIMl1bQ0gyXTI=

> <s_epik_cmdline>
J2VwaWtfcHl0aG9uJywgJy1waCcsICc3LjAnLCAnLXRuJywgJzgnLCAnLW1hJywgJzIwMCcsICctbWV0YWxfYmluZGluZycsICctaW1hZScsICc8aW5maWxlLm1hZT4nLCAnLW9tYWUnLCAnPG91dGZpbGUubWFlPic=

> <r_lp_tautomer_probability>
1

> <r_epik_Ionization_Penalty>
5.32667e-07

> <r_epik_Ionization_Penalty_Charging>
5.13386e-07

> <r_epik_Ionization_Penalty_Neutral>
1.92812e-08

> <r_epik_State_Penalty>
-0

> <r_epik_Charging_Adjusted_Penalty>
5.13386e-07

> <i_epik_Tot_Q>
0

> <i_epik_Tot_abs_Q>
0

> <r_epik_Metal_State_Penalty>
-0

> <b_epik_Metal_Only>
0

> <s_lp_Force_Field>
OPLS_2005

> <r_lp_Energy>
20.4059

> <b_lp_Chiralities_Consistent>
1

> <s_lp_Variant>
AV-unprocessed.smi:780-1

> <Gold.Version>
5.8.1

> <Gold.Id.Protein>
6NUR|6NUR_protein|mol2

> <Gold.PLP.Fitness>
50.6146

> <Gold.PLP.PLP>
-43.7410

> <Gold.PLP.part.hbond>
-3.3087

> <Gold.PLP.part.metal>
0.0000

> <Gold.PLP.part.buried>
-5.5133

> <Gold.PLP.part.nonpolar>
-36.2537

> <Gold.PLP.part.repulsive>
0.2450

> <Gold.PLP.ligand.clash>
0.0000

> <Gold.PLP.ligand.torsion>
0.1820

> <Gold.PLP.Chemscore.Hbond>
2.3549

> <Gold.PLP.Chemscore.CHOScore>
0.0000

> <Gold.PLP.Chemscore.Metal>
0.0000

> <Gold.Chemscore.Hbonds>
donor molecule, donor type, donor heavy atom, donor atom, acceptor molecule, acceptor atom, score
      L1  H     9    30       P1  7948  0.38
      P1  H  7997  8010       L1    21  0.76
      P1  H 10752 10764       L1     8  0.30

> <Gold.PLP.Chemscore.Internal.Correction>
0.1728

> <Gold.Rescore>
     Score         DG    S(hbond)    S(metal)    S(lipo)     H(rot)  DE(clash)    DE(int)     intcor
     16.53     -18.20       1.93        0.00      96.65       1.97       0.23       1.44       ----

> <Gold.Chemscore.Fitness>
16.5282

> <Gold.Chemscore.DG>
-18.1991

> <Gold.Chemscore.ZeroCoef>
-5.4800

> <Gold.Chemscore.Hbond>
1.9301

> <Gold.Chemscore.Metal>
0.0000

> <Gold.Chemscore.Lipo>
96.6524

> <Gold.Chemscore.Internal_Hbond>
0.0000

> <Gold.Chemscore.DEClash>
0.2270

> <Gold.Chemscore.DEInternal>
1.4439

> <Gold.Chemscore.Rot>
1.9671

> <Gold.Chemscore.Internal.Correction>
   9.000000E+99

> <Gold.Chemscore.Hbonds>
donor molecule, donor type, donor heavy atom, donor atom, acceptor molecule, acceptor atom, score
      L1  H     9    30       P1  7948  0.03
      P1  H  7997  8010       L1    21  0.57
      P1  H 10752 10764       L1     8  0.20

> <Gold.Chemscore.Hbond.Weighted>
-6.4467

> <Gold.Chemscore.Metal.Weighted>
-0.0000

> <Gold.Chemscore.Lipo.Weighted>
-11.3083

> <Gold.Chemscore.Internal_Hbond.Weighted>
0.0000

> <Gold.Chemscore.DEClash.Weighted>
0.2270

> <Gold.Chemscore.DEInternal.Weighted>
1.4439

> <Gold.Chemscore.Rot.Weighted>
5.0359

> <Gold.Chemscore.Internal.Correction.Weighted>
   9.000000E+99

> <Gold.Protein.RotatedTorsions>
[ 6907 6896 6895 6894 ] final -169.65 input  -60.11 | X-H torsion
[ 7974 7965 7964 7962 ] final  114.72 input  175.53 | X-H torsion
[ 8008 7997 7996 7995 ] final  108.96 input   59.86 | X-H torsion
[ 10167 10162 10161 10158 ] final  -85.46 input  -65.29 | X-H torsion
[ 10718 10713 10712 10709 ] final  178.92 input   66.30 | X-H torsion
[ 10763 10752 10751 10750 ] final  -56.80 input  -60.55 | X-H torsion
[ 11005 11000 10999 10996 ] final  135.61 input  -57.11 | X-H torsion

> <Gold.Protein.ActiveResidues>
 VAL166  LYS551  ARG553  GLY616  TRP617  ASP618  TYR619  PRO620  LYS621  CYS622 
 ASP623  PHE694  ASN695  SER759  ASP760  ASP761  ALA762  ILE779  LEU786  VAL792 
 PHE793  MET794  SER795  GLU796  ALA797  LYS798  CYS799  TRP800  GLU811  SER814 

> <Gold.Protein.RotatedAtoms>
  151.4951  133.3516  159.2859 H   0  0  0  0  0  0  0  0  0  0  0  0  # atno 6907 bound_to 6896
  150.8809  134.8202  159.7235 H   0  0  0  0  0  0  0  0  0  0  0  0  # atno 6908 bound_to 6896
  152.4762  134.4848  159.9729 H   0  0  0  0  0  0  0  0  0  0  0  0  # atno 6909 bound_to 6896
  145.2009  139.2953  143.4319 H   0  0  0  0  0  0  0  0  0  0  0  0  # atno 7974 bound_to 7965
  156.1943  140.3066  155.9395 H   0  0  0  0  0  0  0  0  0  0  0  0  # atno 8008 bound_to 7997
  155.3102  140.0450  157.3051 H   0  0  0  0  0  0  0  0  0  0  0  0  # atno 8009 bound_to 7997
  154.5490  140.2285  155.8525 H   0  0  0  0  0  0  0  0  0  0  0  0  # atno 8010 bound_to 7997
  140.4035  143.2652  151.9111 H   0  0  0  0  0  0  0  0  0  0  0  0  # atno 10167 bound_to 10162
  156.8834  130.9823  151.3059 H   0  0  0  0  0  0  0  0  0  0  0  0  # atno 10718 bound_to 10713
  154.2123  135.6392  153.5119 H   0  0  0  0  0  0  0  0  0  0  0  0  # atno 10763 bound_to 10752
  152.9987  135.5477  154.6201 H   0  0  0  0  0  0  0  0  0  0  0  0  # atno 10764 bound_to 10752
  154.5641  135.2911  155.0864 H   0  0  0  0  0  0  0  0  0  0  0  0  # atno 10765 bound_to 10752
  139.9991  134.9485  157.0032 H   0  0  0  0  0  0  0  0  0  0  0  0  # atno 11005 bound_to 11000
  146.3418  140.2253  142.8592 LP  0  0  0  0  0  0  0  0  0  0  0  0  # atno 17320 bound_to 7965
  144.9949  140.8580  143.5317 LP  0  0  0  0  0  0  0  0  0  0  0  0  # atno 17321 bound_to 7965
  139.4784  144.5609  151.8240 LP  0  0  0  0  0  0  0  0  0  0  0  0  # atno 17342 bound_to 10162
  140.4714  144.1581  150.5918 LP  0  0  0  0  0  0  0  0  0  0  0  0  # atno 17343 bound_to 10162
  157.6127  130.8595  149.8977 LP  0  0  0  0  0  0  0  0  0  0  0  0  # atno 17370 bound_to 10713
  156.0665  130.3691  150.0866 LP  0  0  0  0  0  0  0  0  0  0  0  0  # atno 17371 bound_to 10713
  140.4761  134.1336  155.7210 LP  0  0  0  0  0  0  0  0  0  0  0  0  # atno 17394 bound_to 11000
  141.1628  133.8760  157.1800 LP  0  0  0  0  0  0  0  0  0  0  0  0  # atno 17395 bound_to 11000

$$$$
