AV-unprocessed.smi:47|AV-procd|sdf|423|dock5
  -GOLD-   2262016303D 1   1.00000     0.00000
 Structure written by MMmdl.
 32 34  0  0  0  0  0  0  0  0  2 V2000
  145.2774  140.3840  154.7703 O   0  0  0  0  0  0  0  0  0  0  0  0
  146.6875  140.3190  154.7827 C   0  0  1  0  0  0  0  0  0  0  0  0
  147.2519  139.7712  153.4734 C   0  0  0  0  0  0  0  0  0  0  0  0
  148.6264  140.2980  153.3954 N   0  3  0  0  0  0  0  0  0  0  0  0
  148.7198  141.5058  154.2460 C   0  0  2  0  0  0  0  0  0  0  0  0
  149.7920  141.3519  155.2814 C   0  0  0  0  0  0  0  0  0  0  0  0
  150.7118  140.3991  155.1745 N   0  0  0  0  0  0  0  0  0  0  0  0
  151.4873  140.6400  156.2517 N   0  0  0  0  0  0  0  0  0  0  0  0
  151.0279  141.7001  156.9287 C   0  0  0  0  0  0  0  0  0  0  0  0
  151.6354  142.2417  158.1462 C   0  0  0  0  0  0  0  0  0  0  0  0
  151.4726  143.6057  158.4825 C   0  0  0  0  0  0  0  0  0  0  0  0
  152.0563  144.1275  159.6534 C   0  0  0  0  0  0  0  0  0  0  0  0
  152.8082  143.2916  160.4999 C   0  0  0  0  0  0  0  0  0  0  0  0
  152.9763  141.9329  160.1743 C   0  0  0  0  0  0  0  0  0  0  0  0
  152.3930  141.4100  159.0038 C   0  0  0  0  0  0  0  0  0  0  0  0
  149.9402  142.2018  156.3423 N   0  0  0  0  0  0  0  0  0  0  0  0
  147.3282  141.7018  154.8693 C   0  0  0  0  0  0  0  0  0  0  0  0
  147.0197  139.7018  155.6188 H   0  0  0  0  0  0  0  0  0  0  0  0
  148.9640  142.3600  153.6127 H   0  0  0  0  0  0  0  0  0  0  0  0
  152.2985  140.0819  156.4778 H   0  0  0  0  0  0  0  0  0  0  0  0
  144.9805  140.3707  153.8728 H   0  0  0  0  0  0  0  0  0  0  0  0
  147.2316  138.6824  153.4242 H   0  0  0  0  0  0  0  0  0  0  0  0
  146.6911  140.1605  152.6222 H   0  0  0  0  0  0  0  0  0  0  0  0
  149.2598  139.6074  153.7733 H   0  0  0  0  0  0  0  0  0  0  0  0
  150.9003  144.2661  157.8480 H   0  0  0  0  0  0  0  0  0  0  0  0
  151.9274  145.1707  159.9020 H   0  0  0  0  0  0  0  0  0  0  0  0
  153.2559  143.6921  161.3977 H   0  0  0  0  0  0  0  0  0  0  0  0
  153.5539  141.2905  160.8228 H   0  0  0  0  0  0  0  0  0  0  0  0
  152.5351  140.3644  158.7735 H   0  0  0  0  0  0  0  0  0  0  0  0
  146.7616  142.3997  154.2506 H   0  0  0  0  0  0  0  0  0  0  0  0
  147.3523  142.1090  155.8813 H   0  0  0  0  0  0  0  0  0  0  0  0
  148.8790  140.5043  152.4397 H   0  0  0  0  0  0  0  0  0  0  0  0
  1  2  1  0  0  0  0
  1 21  1  0  0  0  0
  2 18  1  0  0  0  0
  2 17  1  0  0  0  0
  2  3  1  0  0  0  0
  3  4  1  0  0  0  0
  3 22  1  0  0  0  0
  3 23  1  0  0  0  0
  4  5  1  0  0  0  0
  4 24  1  0  0  0  0
  4 32  1  0  0  0  0
  5 19  1  0  0  0  0
  5  6  1  0  0  0  0
  5 17  1  0  0  0  0
  6 16  1  0  0  0  0
  6  7  2  0  0  0  0
  7  8  1  0  0  0  0
  8 20  1  0  0  0  0
  8  9  1  0  0  0  0
  9 10  1  0  0  0  0
  9 16  2  0  0  0  0
 10 15  1  0  0  0  0
 10 11  2  0  0  0  0
 11 12  1  0  0  0  0
 11 25  1  0  0  0  0
 12 13  2  0  0  0  0
 12 26  1  0  0  0  0
 13 14  1  0  0  0  0
 13 27  1  0  0  0  0
 14 15  2  0  0  0  0
 14 28  1  0  0  0  0
 15 29  1  0  0  0  0
 17 30  1  0  0  0  0
 17 31  1  0  0  0  0
M  CHG  1   4   1
M  END
> <s_m_source_file>
AV-unprocessed.smi

> <i_m_source_file_index>
47

> <i_lp_mmshare_version>
43012

> <i_f3d_flags>
0

> <s_epik_input>
W09IXVtDQEhdMVtDSDJdW05IXVtDQEBIXShbQ0gyXTEpYzJuW25IXWMobjIpLWMzW2NIXVtjSF1bY0hdW2NIXVtjSF0z

> <s_epik_cmdline>
J2VwaWtfcHl0aG9uJywgJy1waCcsICc3LjAnLCAnLXRuJywgJzgnLCAnLW1hJywgJzIwMCcsICctbWV0YWxfYmluZGluZycsICctaW1hZScsICc8aW5maWxlLm1hZT4nLCAnLW9tYWUnLCAnPG91dGZpbGUubWFlPic=

> <r_lp_tautomer_probability>
0.948284

> <r_epik_Ionization_Penalty>
0.163822

> <r_epik_Ionization_Penalty_Charging>
0.0371552

> <r_epik_Ionization_Penalty_Neutral>
0.126667

> <r_epik_State_Penalty>
0.318338

> <r_epik_Charging_Adjusted_Penalty>
0.355493

> <i_epik_Tot_Q>
1

> <i_epik_Tot_abs_Q>
1

> <r_epik_Metal_State_Penalty>
0.81572

> <b_epik_Metal_Only>
0

> <s_lp_Force_Field>
OPLS_2005

> <r_lp_Energy>
24.5404

> <b_lp_Chiralities_Consistent>
1

> <s_lp_Variant>
AV-unprocessed.smi:47-1

> <Gold.Version>
5.8.1

> <Gold.Id.Protein>
6NUR|6NUR_protein|mol2

> <Gold.PLP.Fitness>
43.2126

> <Gold.PLP.PLP>
-35.4035

> <Gold.PLP.part.hbond>
-2.7863

> <Gold.PLP.part.metal>
0.0000

> <Gold.PLP.part.buried>
-6.1024

> <Gold.PLP.part.nonpolar>
-29.6241

> <Gold.PLP.part.repulsive>
2.3865

> <Gold.PLP.ligand.clash>
0.0000

> <Gold.PLP.ligand.torsion>
0.6029

> <Gold.PLP.Chemscore.Hbond>
3.0000

> <Gold.PLP.Chemscore.CHOScore>
0.0000

> <Gold.PLP.Chemscore.Metal>
0.0000

> <Gold.Chemscore.Hbonds>
donor molecule, donor type, donor heavy atom, donor atom, acceptor molecule, acceptor atom, score
      L1  H     1    21       P1 10175  1.00
      L1  H     4    32       P1  7957  0.96
      P1  H  7989  7998       L1     7  1.00

> <Gold.PLP.Chemscore.Internal.Correction>
0.0150

> <Gold.Rescore>
     Score         DG    S(hbond)    S(metal)    S(lipo)     H(rot)  DE(clash)    DE(int)     intcor
     17.57     -19.32       2.22        0.00      87.66       1.50       1.23       0.52       ----

> <Gold.Chemscore.Fitness>
17.5744

> <Gold.Chemscore.DG>
-19.3240

> <Gold.Chemscore.ZeroCoef>
-5.4800

> <Gold.Chemscore.Hbond>
2.2212

> <Gold.Chemscore.Metal>
0.0000

> <Gold.Chemscore.Lipo>
87.6620

> <Gold.Chemscore.Internal_Hbond>
0.0000

> <Gold.Chemscore.DEClash>
1.2267

> <Gold.Chemscore.DEInternal>
0.5229

> <Gold.Chemscore.Rot>
1.4966

> <Gold.Chemscore.Internal.Correction>
   9.000000E+99

> <Gold.Chemscore.Hbonds>
donor molecule, donor type, donor heavy atom, donor atom, acceptor molecule, acceptor atom, score
      L1  H     1    21       P1 10175  0.97
      L1  H     4    32       P1  7957  0.86
      P1  H  7989  7998       L1     7  0.26

> <Gold.Chemscore.Hbond.Weighted>
-7.4188

> <Gold.Chemscore.Metal.Weighted>
-0.0000

> <Gold.Chemscore.Lipo.Weighted>
-10.2565

> <Gold.Chemscore.Internal_Hbond.Weighted>
0.0000

> <Gold.Chemscore.DEClash.Weighted>
1.2267

> <Gold.Chemscore.DEInternal.Weighted>
0.5229

> <Gold.Chemscore.Rot.Weighted>
3.8312

> <Gold.Chemscore.Internal.Correction.Weighted>
   9.000000E+99

> <Gold.Protein.RotatedTorsions>
[ 6907 6896 6895 6894 ] final  147.56 input  -60.11 | X-H torsion
[ 7974 7965 7964 7962 ] final  126.79 input  175.53 | X-H torsion
[ 8008 7997 7996 7995 ] final  -69.03 input   59.86 | X-H torsion
[ 10167 10162 10161 10158 ] final -144.96 input  -65.29 | X-H torsion
[ 10718 10713 10712 10709 ] final -110.41 input   66.30 | X-H torsion
[ 10763 10752 10751 10750 ] final -143.04 input  -60.55 | X-H torsion
[ 11005 11000 10999 10996 ] final  -49.59 input  -57.11 | X-H torsion

> <Gold.Protein.ActiveResidues>
 VAL166  LYS551  ARG553  GLY616  TRP617  ASP618  TYR619  PRO620  LYS621  CYS622 
 ASP623  PHE694  ASN695  SER759  ASP760  ASP761  ALA762  ILE779  LEU786  VAL792 
 PHE793  MET794  SER795  GLU796  ALA797  LYS798  CYS799  TRP800  GLU811  SER814 

> <Gold.Protein.RotatedAtoms>
  152.1531  133.4534  159.4823 H   0  0  0  0  0  0  0  0  0  0  0  0  # atno 6907 bound_to 6896
  150.6898  134.2164  159.4388 H   0  0  0  0  0  0  0  0  0  0  0  0  # atno 6908 bound_to 6896
  152.0062  134.9901  160.0617 H   0  0  0  0  0  0  0  0  0  0  0  0  # atno 6909 bound_to 6896
  145.0577  139.3830  143.5021 H   0  0  0  0  0  0  0  0  0  0  0  0  # atno 7974 bound_to 7965
  154.4909  140.0861  156.7593 H   0  0  0  0  0  0  0  0  0  0  0  0  # atno 8008 bound_to 7997
  155.4232  140.3446  155.4255 H   0  0  0  0  0  0  0  0  0  0  0  0  # atno 8009 bound_to 7997
  156.1329  140.1506  156.9027 H   0  0  0  0  0  0  0  0  0  0  0  0  # atno 8010 bound_to 7997
  139.7850  143.8047  152.2643 H   0  0  0  0  0  0  0  0  0  0  0  0  # atno 10167 bound_to 10162
  156.0589  130.5814  150.8233 H   0  0  0  0  0  0  0  0  0  0  0  0  # atno 10718 bound_to 10713
  154.8486  135.3479  154.6123 H   0  0  0  0  0  0  0  0  0  0  0  0  # atno 10763 bound_to 10752
  153.6732  135.6984  153.5145 H   0  0  0  0  0  0  0  0  0  0  0  0  # atno 10764 bound_to 10752
  153.2726  135.4288  155.0959 H   0  0  0  0  0  0  0  0  0  0  0  0  # atno 10765 bound_to 10752
  141.0768  133.6664  156.3608 H   0  0  0  0  0  0  0  0  0  0  0  0  # atno 11005 bound_to 11000
  146.3522  140.0260  142.8654 LP  0  0  0  0  0  0  0  0  0  0  0  0  # atno 17320 bound_to 7965
  145.1447  140.9591  143.4468 LP  0  0  0  0  0  0  0  0  0  0  0  0  # atno 17321 bound_to 7965
  139.8121  144.7331  150.9684 LP  0  0  0  0  0  0  0  0  0  0  0  0  # atno 17342 bound_to 10162
  140.7819  143.4241  151.0796 LP  0  0  0  0  0  0  0  0  0  0  0  0  # atno 17343 bound_to 10162
  157.5582  131.0945  150.9598 LP  0  0  0  0  0  0  0  0  0  0  0  0  # atno 17370 bound_to 10713
  156.9842  130.5538  149.5298 LP  0  0  0  0  0  0  0  0  0  0  0  0  # atno 17371 bound_to 10713
  140.5556  134.5985  157.5420 LP  0  0  0  0  0  0  0  0  0  0  0  0  # atno 17394 bound_to 11000
  139.9580  134.7501  156.0298 LP  0  0  0  0  0  0  0  0  0  0  0  0  # atno 17395 bound_to 11000

$$$$
