AV-unprocessed.smi:1013|AV-procd|sdf|4427|dock2
  -GOLD-   22720 2383D 1   1.00000     0.00000
 Structure written by MMmdl.
 30 31  0  0  0  0  0  0  0  0  3 V2000
  151.8647  140.0253  157.0145 O   0  0  0  0  0  0  0  0  0  0  0  0
  151.1784  140.5926  156.1367 C   0  0  0  0  0  0  0  0  0  0  0  0
  151.0736  140.2129  154.9480 O   0  5  0  0  0  0  0  0  0  0  0  0
  150.3928  141.8443  156.5633 C   0  0  1  0  0  0  0  0  0  0  0  0
  151.3753  142.9573  156.9995 C   0  0  0  0  0  0  0  0  0  0  0  0
  151.9067  142.7642  158.3394 N   0  0  0  0  0  0  0  0  0  0  0  0
  151.7015  143.5451  159.4563 C   0  0  0  0  0  0  0  0  0  0  0  0
  152.4224  142.9943  160.4764 C   0  0  0  0  0  0  0  0  0  0  0  0
  153.0622  141.8689  159.8807 C   0  0  0  0  0  0  0  0  0  0  0  0
  153.9939  140.8746  160.5223 C   0  0  0  0  0  0  0  0  0  0  0  0
  154.1054  141.1296  161.8257 F   0  0  0  0  0  0  0  0  0  0  0  0
  153.5272  139.6360  160.3652 F   0  0  0  0  0  0  0  0  0  0  0  0
  155.1989  140.9537  159.9580 F   0  0  0  0  0  0  0  0  0  0  0  0
  152.7531  141.7440  158.5973 N   0  0  0  0  0  0  0  0  0  0  0  0
  149.5430  142.3056  155.4416 N   0  3  0  0  0  0  0  0  0  0  0  0
  148.3705  141.4514  155.1595 C   0  0  0  0  0  0  0  0  0  0  0  0
  147.4055  142.0392  154.1582 C   0  0  0  0  0  0  0  0  0  0  0  0
  147.0734  142.0591  155.6349 C   0  0  0  0  0  0  0  0  0  0  0  0
  149.7479  141.5953  157.4088 H   0  0  0  0  0  0  0  0  0  0  0  0
  152.2200  143.0053  156.3105 H   0  0  0  0  0  0  0  0  0  0  0  0
  150.8912  143.9349  156.9661 H   0  0  0  0  0  0  0  0  0  0  0  0
  151.0654  144.4180  159.4341 H   0  0  0  0  0  0  0  0  0  0  0  0
  152.4888  143.3463  161.4952 H   0  0  0  0  0  0  0  0  0  0  0  0
  149.1984  143.2234  155.6823 H   0  0  0  0  0  0  0  0  0  0  0  0
  148.5186  140.3766  155.2474 H   0  0  0  0  0  0  0  0  0  0  0  0
  147.6674  142.9848  153.6867 H   0  0  0  0  0  0  0  0  0  0  0  0
  146.8528  141.3442  153.5293 H   0  0  0  0  0  0  0  0  0  0  0  0
  146.2956  141.3801  155.9785 H   0  0  0  0  0  0  0  0  0  0  0  0
  147.1096  143.0203  156.1446 H   0  0  0  0  0  0  0  0  0  0  0  0
  150.1160  142.3775  154.6131 H   0  0  0  0  0  0  0  0  0  0  0  0
  1  2  2  0  0  0  0
  2  3  1  0  0  0  0
  2  4  1  0  0  0  0
  4  5  1  0  0  0  0
  4 15  1  0  0  0  0
  4 19  1  0  0  0  0
  5  6  1  0  0  0  0
  5 20  1  0  0  0  0
  5 21  1  0  0  0  0
  6 14  1  0  0  0  0
  6  7  1  0  0  0  0
  7  8  2  0  0  0  0
  7 22  1  0  0  0  0
  8  9  1  0  0  0  0
  8 23  1  0  0  0  0
  9 10  1  0  0  0  0
  9 14  2  0  0  0  0
 10 11  1  0  0  0  0
 10 12  1  0  0  0  0
 10 13  1  0  0  0  0
 15 16  1  0  0  0  0
 15 24  1  0  0  0  0
 15 30  1  0  0  0  0
 16 18  1  0  0  0  0
 16 17  1  0  0  0  0
 16 25  1  0  0  0  0
 17 18  1  0  0  0  0
 17 26  1  0  0  0  0
 17 27  1  0  0  0  0
 18 28  1  0  0  0  0
 18 29  1  0  0  0  0
M  CHG  1   3  -1
M  CHG  1  15   1
M  END
> <s_m_source_file>
AV-unprocessed.smi

> <i_m_source_file_index>
1013

> <i_lp_mmshare_version>
43012

> <i_f3d_flags>
0

> <s_epik_input>
W0NIMl0xW0NIMl1bQ0hdMVtOSF1bQ0BIXShDKD1PKVtPSF0pW0NIMl1uMltjSF1bY0hdYyhuMilDKEYpKEYpRg==

> <s_epik_cmdline>
J2VwaWtfcHl0aG9uJywgJy1waCcsICc3LjAnLCAnLXRuJywgJzgnLCAnLW1hJywgJzIwMCcsICctbWV0YWxfYmluZGluZycsICctaW1hZScsICc8aW5maWxlLm1hZT4nLCAnLW9tYWUnLCAnPG91dGZpbGUubWFlPic=

> <r_lp_tautomer_probability>
1

> <r_epik_Ionization_Penalty>
0.183175

> <r_epik_Ionization_Penalty_Charging>
0.183175

> <r_epik_Ionization_Penalty_Neutral>
3.57035e-11

> <r_epik_State_Penalty>
0.172705

> <r_epik_Charging_Adjusted_Penalty>
0.35588

> <i_epik_Tot_Q>
0

> <i_epik_Tot_abs_Q>
2

> <r_epik_Metal_State_Penalty>
0.172705

> <b_epik_Metal_Only>
0

> <s_lp_Force_Field>
OPLS_2005

> <r_lp_Energy>
10.483

> <b_lp_Chiralities_Consistent>
1

> <s_lp_Variant>
AV-unprocessed.smi:1013-2

> <Gold.Version>
5.8.1

> <Gold.Id.Protein>
6NUR|6NUR_protein|mol2

> <Gold.PLP.Fitness>
48.1555

> <Gold.PLP.PLP>
-39.7425

> <Gold.PLP.part.hbond>
-2.0000

> <Gold.PLP.part.metal>
0.0000

> <Gold.PLP.part.buried>
-4.2331

> <Gold.PLP.part.nonpolar>
-34.0518

> <Gold.PLP.part.repulsive>
0.2539

> <Gold.PLP.ligand.clash>
0.0145

> <Gold.PLP.ligand.torsion>
0.7240

> <Gold.PLP.Chemscore.Hbond>
3.0000

> <Gold.PLP.Chemscore.CHOScore>
0.0000

> <Gold.PLP.Chemscore.Metal>
0.0000

> <Gold.Chemscore.Hbonds>
donor molecule, donor type, donor heavy atom, donor atom, acceptor molecule, acceptor atom, score
      L1  H    15    24       P1  8028  1.98
      P1  H  7989  7998       L1     3  1.00

> <Gold.PLP.Chemscore.Internal.Correction>
0.8755

> <Gold.Rescore>
     Score         DG    S(hbond)    S(metal)    S(lipo)     H(rot)  DE(clash)    DE(int)     intcor
     11.50     -14.12       1.99        0.00      73.74       2.60       0.02       2.60       ----

> <Gold.Chemscore.Fitness>
11.5033

> <Gold.Chemscore.DG>
-14.1206

> <Gold.Chemscore.ZeroCoef>
-5.4800

> <Gold.Chemscore.Hbond>
1.9943

> <Gold.Chemscore.Metal>
0.0000

> <Gold.Chemscore.Lipo>
73.7428

> <Gold.Chemscore.Internal_Hbond>
0.0000

> <Gold.Chemscore.DEClash>
0.0173

> <Gold.Chemscore.DEInternal>
2.6000

> <Gold.Chemscore.Rot>
2.5970

> <Gold.Chemscore.Internal.Correction>
   9.000000E+99

> <Gold.Chemscore.Hbonds>
donor molecule, donor type, donor heavy atom, donor atom, acceptor molecule, acceptor atom, score
      L1  H    15    24       P1  8028  0.92
      P1  H  7989  7998       L1     3  1.00

> <Gold.Chemscore.Hbond.Weighted>
-6.6610

> <Gold.Chemscore.Metal.Weighted>
-0.0000

> <Gold.Chemscore.Lipo.Weighted>
-8.6279

> <Gold.Chemscore.Internal_Hbond.Weighted>
0.0000

> <Gold.Chemscore.DEClash.Weighted>
0.0173

> <Gold.Chemscore.DEInternal.Weighted>
2.6000

> <Gold.Chemscore.Rot.Weighted>
6.6484

> <Gold.Chemscore.Internal.Correction.Weighted>
   9.000000E+99

> <Gold.Protein.RotatedTorsions>
[ 6907 6896 6895 6894 ] final -170.33 input  -60.11 | X-H torsion
[ 7974 7965 7964 7962 ] final   19.13 input  175.53 | X-H torsion
[ 8008 7997 7996 7995 ] final   48.52 input   59.86 | X-H torsion
[ 10167 10162 10161 10158 ] final   15.91 input  -65.29 | X-H torsion
[ 10718 10713 10712 10709 ] final -170.46 input   66.30 | X-H torsion
[ 10763 10752 10751 10750 ] final   74.39 input  -60.55 | X-H torsion
[ 11005 11000 10999 10996 ] final   -0.10 input  -57.11 | X-H torsion

> <Gold.Protein.ActiveResidues>
 VAL166  LYS551  ARG553  GLY616  TRP617  ASP618  TYR619  PRO620  LYS621  CYS622 
 ASP623  PHE694  ASN695  SER759  ASP760  ASP761  ALA762  ILE779  LEU786  VAL792 
 PHE793  MET794  SER795  GLU796  ALA797  LYS798  CYS799  TRP800  GLU811  SER814 

> <Gold.Protein.RotatedAtoms>
  151.5059  133.3495  159.2876 H   0  0  0  0  0  0  0  0  0  0  0  0  # atno 6907 bound_to 6896
  150.8743  134.8125  159.7189 H   0  0  0  0  0  0  0  0  0  0  0  0  # atno 6908 bound_to 6896
  152.4720  134.4948  159.9758 H   0  0  0  0  0  0  0  0  0  0  0  0  # atno 6909 bound_to 6896
  146.2160  139.8358  142.8651 H   0  0  0  0  0  0  0  0  0  0  0  0  # atno 7974 bound_to 7965
  155.3870  140.3431  155.4249 H   0  0  0  0  0  0  0  0  0  0  0  0  # atno 8008 bound_to 7997
  156.1579  140.1591  156.8695 H   0  0  0  0  0  0  0  0  0  0  0  0  # atno 8009 bound_to 7997
  154.5112  140.0789  156.7974 H   0  0  0  0  0  0  0  0  0  0  0  0  # atno 8010 bound_to 7997
  140.5834  143.8936  150.6809 H   0  0  0  0  0  0  0  0  0  0  0  0  # atno 10167 bound_to 10162
  156.7265  130.9290  151.3101 H   0  0  0  0  0  0  0  0  0  0  0  0  # atno 10718 bound_to 10713
  153.0583  135.5027  154.8035 H   0  0  0  0  0  0  0  0  0  0  0  0  # atno 10763 bound_to 10752
  154.6843  135.2973  154.9572 H   0  0  0  0  0  0  0  0  0  0  0  0  # atno 10764 bound_to 10752
  154.0347  135.6725  153.4837 H   0  0  0  0  0  0  0  0  0  0  0  0  # atno 10765 bound_to 10752
  140.6326  133.9562  155.8282 H   0  0  0  0  0  0  0  0  0  0  0  0  # atno 11005 bound_to 11000
  145.2950  141.0178  143.3641 LP  0  0  0  0  0  0  0  0  0  0  0  0  # atno 17320 bound_to 7965
  144.9049  139.4602  143.6615 LP  0  0  0  0  0  0  0  0  0  0  0  0  # atno 17321 bound_to 7965
  140.2441  143.3642  152.1462 LP  0  0  0  0  0  0  0  0  0  0  0  0  # atno 17342 bound_to 10162
  139.5183  144.7004  151.5509 LP  0  0  0  0  0  0  0  0  0  0  0  0  # atno 17343 bound_to 10162
  157.6877  130.9201  150.0429 LP  0  0  0  0  0  0  0  0  0  0  0  0  # atno 17370 bound_to 10713
  156.1558  130.3643  149.9370 LP  0  0  0  0  0  0  0  0  0  0  0  0  # atno 17371 bound_to 10713
  141.0664  134.0270  157.3587 LP  0  0  0  0  0  0  0  0  0  0  0  0  # atno 17394 bound_to 11000
  139.9110  135.0190  156.7692 LP  0  0  0  0  0  0  0  0  0  0  0  0  # atno 17395 bound_to 11000

$$$$
