AV-unprocessed.smi:1473|AV-procd|sdf|5971|dock5
  -GOLD-   22720 6 63D 1   1.00000     0.00000
 Structure written by MMmdl.
 32 33  0  0  0  0  0  0  0  0  3 V2000
  148.3754  136.9135  161.3913 N   0  5  0  0  0  0  0  0  0  0  0  0
  148.4905  136.7477  159.7839 S   0  0  0  0  0  0  0  0  0  0  0  0
  148.0742  135.3913  159.3962 O   0  0  0  0  0  0  0  0  0  0  0  0
  147.7974  137.8411  159.0799 O   0  0  0  0  0  0  0  0  0  0  0  0
  150.1153  136.8711  159.7041 N   0  5  0  0  0  0  0  0  0  0  0  0
  150.7909  137.6061  158.6377 C   0  0  0  0  0  0  0  0  0  0  0  0
  151.6990  138.6926  159.1963 C   0  0  0  0  0  0  0  0  0  0  0  0
  152.8783  138.3585  159.8976 C   0  0  0  0  0  0  0  0  0  0  0  0
  153.6763  139.4026  160.3991 C   0  0  0  0  0  0  0  0  0  0  0  0
  153.3776  140.7083  160.2386 N   0  0  0  0  0  0  0  0  0  0  0  0
  152.2508  141.0440  159.5628 C   0  0  0  0  0  0  0  0  0  0  0  0
  151.9535  142.4148  159.3996 N   0  0  0  0  0  0  0  0  0  0  0  0
  151.6626  142.8387  158.0323 C   0  0  0  0  0  0  0  0  0  0  0  0
  151.0631  144.2557  158.0264 C   0  0  0  0  0  0  0  0  0  0  0  0
  151.9318  145.1519  158.7116 O   0  0  0  0  0  0  0  0  0  0  0  0
  152.1083  144.7784  160.0742 C   0  0  0  0  0  0  0  0  0  0  0  0
  152.7508  143.3834  160.1495 C   0  0  0  0  0  0  0  0  0  0  0  0
  151.3825  140.0608  159.0307 C   0  0  0  0  0  0  0  0  0  0  0  0
  148.6371  136.0202  161.8250 H   0  0  0  0  0  0  0  0  0  0  0  0
  151.3998  136.9482  158.0161 H   0  0  0  0  0  0  0  0  0  0  0  0
  150.0824  138.0769  157.9547 H   0  0  0  0  0  0  0  0  0  0  0  0
  153.1726  137.3309  160.0626 H   0  0  0  0  0  0  0  0  0  0  0  0
  154.5824  139.1829  160.9438 H   0  0  0  0  0  0  0  0  0  0  0  0
  152.5884  142.8235  157.4559 H   0  0  0  0  0  0  0  0  0  0  0  0
  150.9702  142.1601  157.5364 H   0  0  0  0  0  0  0  0  0  0  0  0
  150.9325  144.6027  157.0013 H   0  0  0  0  0  0  0  0  0  0  0  0
  150.0763  144.2614  158.4920 H   0  0  0  0  0  0  0  0  0  0  0  0
  152.7476  145.5128  160.5640 H   0  0  0  0  0  0  0  0  0  0  0  0
  151.1491  144.7939  160.5942 H   0  0  0  0  0  0  0  0  0  0  0  0
  152.8313  143.0786  161.1938 H   0  0  0  0  0  0  0  0  0  0  0  0
  153.7609  143.4153  159.7388 H   0  0  0  0  0  0  0  0  0  0  0  0
  150.4763  140.3545  158.5185 H   0  0  0  0  0  0  0  0  0  0  0  0
  1  2  1  0  0  0  0
  1 19  1  0  0  0  0
  2  3  2  0  0  0  0
  2  4  2  0  0  0  0
  2  5  1  0  0  0  0
  5  6  1  0  0  0  0
  6  7  1  0  0  0  0
  6 20  1  0  0  0  0
  6 21  1  0  0  0  0
  7 18  1  0  0  0  0
  7  8  2  0  0  0  0
  8  9  1  0  0  0  0
  8 22  1  0  0  0  0
  9 10  2  0  0  0  0
  9 23  1  0  0  0  0
 10 11  1  0  0  0  0
 11 12  1  0  0  0  0
 11 18  2  0  0  0  0
 12 17  1  0  0  0  0
 12 13  1  0  0  0  0
 13 14  1  0  0  0  0
 13 24  1  0  0  0  0
 13 25  1  0  0  0  0
 14 15  1  0  0  0  0
 14 26  1  0  0  0  0
 14 27  1  0  0  0  0
 15 16  1  0  0  0  0
 16 17  1  0  0  0  0
 16 28  1  0  0  0  0
 16 29  1  0  0  0  0
 17 30  1  0  0  0  0
 17 31  1  0  0  0  0
 18 32  1  0  0  0  0
M  CHG  1   1  -1
M  CHG  1   5  -1
M  END
> <s_m_source_file>
AV-unprocessed.smi

> <i_m_source_file_index>
1473

> <i_lp_mmshare_version>
43012

> <i_f3d_flags>
0

> <s_epik_input>
W05IMl1TKD1PKSg9TylbTkhdW0NIMl1jMVtjSF1bY0hdbmMoW2NIXTEpTjJbQ0gyXVtDSDJdT1tDSDJdW0NIMl0y

> <s_epik_cmdline>
J2VwaWtfcHl0aG9uJywgJy1waCcsICc3LjAnLCAnLXRuJywgJzgnLCAnLW1hJywgJzIwMCcsICctbWV0YWxfYmluZGluZycsICctaW1hZScsICc8aW5maWxlLm1hZT4nLCAnLW9tYWUnLCAnPG91dGZpbGUubWFlPic=

> <r_lp_tautomer_probability>
1

> <r_epik_Ionization_Penalty>
9.31635

> <r_epik_Ionization_Penalty_Charging>
9.0542

> <r_epik_Ionization_Penalty_Neutral>
0.262148

> <r_epik_State_Penalty>
4.75451

> <r_epik_Charging_Adjusted_Penalty>
13.8087

> <i_epik_Tot_Q>
-2

> <i_epik_Tot_abs_Q>
2

> <r_epik_Metal_State_Penalty>
1.32914

> <b_epik_Metal_Only>
1

> <s_lp_Force_Field>
OPLS_2005

> <r_lp_Energy>
19.9679

> <b_lp_Chiralities_Consistent>
1

> <s_lp_Variant>
AV-unprocessed.smi:1473-6

> <Gold.Version>
5.8.1

> <Gold.Id.Protein>
6NUR|6NUR_protein|mol2

> <Gold.PLP.Fitness>
43.3529

> <Gold.PLP.PLP>
-30.6859

> <Gold.PLP.part.hbond>
-3.2386

> <Gold.PLP.part.metal>
0.0000

> <Gold.PLP.part.buried>
-6.4266

> <Gold.PLP.part.nonpolar>
-21.6727

> <Gold.PLP.part.repulsive>
0.0690

> <Gold.PLP.ligand.clash>
0.0000

> <Gold.PLP.ligand.torsion>
0.8183

> <Gold.PLP.Chemscore.Hbond>
4.3167

> <Gold.PLP.Chemscore.CHOScore>
0.0000

> <Gold.PLP.Chemscore.Metal>
0.0000

> <Gold.Chemscore.Hbonds>
donor molecule, donor type, donor heavy atom, donor atom, acceptor molecule, acceptor atom, score
      P1  H  6896  6909       L1     5  1.89
      P1  H  6931  6943       L1     1  2.00
      P1  H  6934  6947       L1     4  0.18

> <Gold.PLP.Chemscore.Internal.Correction>
1.3536

> <Gold.Rescore>
     Score         DG    S(hbond)    S(metal)    S(lipo)     H(rot)  DE(clash)    DE(int)     intcor
     14.39     -15.20       1.89        0.00      69.96       1.86       0.00       0.81       ----

> <Gold.Chemscore.Fitness>
14.3898

> <Gold.Chemscore.DG>
-15.2026

> <Gold.Chemscore.ZeroCoef>
-5.4800

> <Gold.Chemscore.Hbond>
1.8864

> <Gold.Chemscore.Metal>
0.0000

> <Gold.Chemscore.Lipo>
69.9584

> <Gold.Chemscore.Internal_Hbond>
0.0000

> <Gold.Chemscore.DEClash>
0.0015

> <Gold.Chemscore.DEInternal>
0.8113

> <Gold.Chemscore.Rot>
1.8606

> <Gold.Chemscore.Internal.Correction>
   9.000000E+99

> <Gold.Chemscore.Hbonds>
donor molecule, donor type, donor heavy atom, donor atom, acceptor molecule, acceptor atom, score
      P1  H  6896  6909       L1     5  0.42
      P1  H  6931  6943       L1     1  0.77
      P1  H  6934  6947       L1     4  0.04

> <Gold.Chemscore.Hbond.Weighted>
-6.3005

> <Gold.Chemscore.Metal.Weighted>
-0.0000

> <Gold.Chemscore.Lipo.Weighted>
-8.1851

> <Gold.Chemscore.Internal_Hbond.Weighted>
0.0000

> <Gold.Chemscore.DEClash.Weighted>
0.0015

> <Gold.Chemscore.DEInternal.Weighted>
0.8113

> <Gold.Chemscore.Rot.Weighted>
4.7631

> <Gold.Chemscore.Internal.Correction.Weighted>
   9.000000E+99

> <Gold.Protein.RotatedTorsions>
[ 6907 6896 6895 6894 ] final   88.53 input  -60.11 | X-H torsion
[ 7974 7965 7964 7962 ] final  -85.57 input  175.53 | X-H torsion
[ 8008 7997 7996 7995 ] final  -23.96 input   59.86 | X-H torsion
[ 10167 10162 10161 10158 ] final   13.67 input  -65.29 | X-H torsion
[ 10718 10713 10712 10709 ] final -156.86 input   66.30 | X-H torsion
[ 10763 10752 10751 10750 ] final -177.97 input  -60.55 | X-H torsion
[ 11005 11000 10999 10996 ] final  145.29 input  -57.11 | X-H torsion

> <Gold.Protein.ActiveResidues>
 VAL166  LYS551  ARG553  GLY616  TRP617  ASP618  TYR619  PRO620  LYS621  CYS622 
 ASP623  PHE694  ASN695  SER759  ASP760  ASP761  ALA762  ILE779  LEU786  VAL792 
 PHE793  MET794  SER795  GLU796  ALA797  LYS798  CYS799  TRP800  GLU811  SER814 

> <Gold.Protein.RotatedAtoms>
  152.5426  134.2107  159.8748 H   0  0  0  0  0  0  0  0  0  0  0  0  # atno 6907 bound_to 6896
  151.2090  133.4560  159.2605 H   0  0  0  0  0  0  0  0  0  0  0  0  # atno 6908 bound_to 6896
  151.0915  134.9932  159.8461 H   0  0  0  0  0  0  0  0  0  0  0  0  # atno 6909 bound_to 6896
  145.4915  140.9552  143.1809 H   0  0  0  0  0  0  0  0  0  0  0  0  # atno 7974 bound_to 7965
  154.4555  140.1966  156.0391 H   0  0  0  0  0  0  0  0  0  0  0  0  # atno 8008 bound_to 7997
  156.0738  140.3281  155.7580 H   0  0  0  0  0  0  0  0  0  0  0  0  # atno 8009 bound_to 7997
  155.5222  140.0571  157.2895 H   0  0  0  0  0  0  0  0  0  0  0  0  # atno 8010 bound_to 7997
  140.5987  143.8649  150.6943 H   0  0  0  0  0  0  0  0  0  0  0  0  # atno 10167 bound_to 10162
  156.5323  130.8526  151.2720 H   0  0  0  0  0  0  0  0  0  0  0  0  # atno 10718 bound_to 10713
  154.5535  135.2814  155.0986 H   0  0  0  0  0  0  0  0  0  0  0  0  # atno 10763 bound_to 10752
  154.2423  135.6354  153.5215 H   0  0  0  0  0  0  0  0  0  0  0  0  # atno 10764 bound_to 10752
  153.0009  135.5563  154.6108 H   0  0  0  0  0  0  0  0  0  0  0  0  # atno 10765 bound_to 10752
  140.0700  134.9157  157.1329 H   0  0  0  0  0  0  0  0  0  0  0  0  # atno 11005 bound_to 11000
  144.7831  139.6484  143.7146 LP  0  0  0  0  0  0  0  0  0  0  0  0  # atno 17320 bound_to 7965
  146.2281  139.5761  142.9573 LP  0  0  0  0  0  0  0  0  0  0  0  0  # atno 17321 bound_to 7965
  140.2190  143.3824  152.1658 LP  0  0  0  0  0  0  0  0  0  0  0  0  # atno 17342 bound_to 10162
  139.5276  144.7121  151.5173 LP  0  0  0  0  0  0  0  0  0  0  0  0  # atno 17343 bound_to 10162
  157.7419  130.9880  150.2482 LP  0  0  0  0  0  0  0  0  0  0  0  0  # atno 17370 bound_to 10713
  156.3048  130.3763  149.7716 LP  0  0  0  0  0  0  0  0  0  0  0  0  # atno 17371 bound_to 10713
  140.3641  134.2462  155.7184 LP  0  0  0  0  0  0  0  0  0  0  0  0  # atno 17394 bound_to 11000
  141.2008  133.7978  157.0471 LP  0  0  0  0  0  0  0  0  0  0  0  0  # atno 17395 bound_to 11000

$$$$
