AV-unprocessed.smi:2450|AV-procd|sdf|9668|dock2
  -GOLD-   2272013303D 1   1.00000     0.00000
 Structure written by MMmdl.
 42 43  0  0  0  0  0  0  0  0  2 V2000
  156.5051  140.5220  159.7703 C   0  0  0  0  0  0  0  0  0  0  0  0
  156.0099  139.0683  159.7727 C   0  0  0  0  0  0  0  0  0  0  0  0
  154.7768  138.8341  160.6657 C   0  0  1  0  0  0  0  0  0  0  0  0
  155.0766  139.1633  162.1373 C   0  0  0  0  0  0  0  0  0  0  0  0
  153.6497  139.6331  160.1883 N   0  0  0  0  0  0  0  0  0  0  0  0
  153.2218  139.6929  158.9191 C   0  0  0  0  0  0  0  0  0  0  0  0
  153.7231  139.0455  158.0006 O   0  0  0  0  0  0  0  0  0  0  0  0
  152.1778  140.5304  158.7998 N   0  0  0  0  0  0  0  0  0  0  0  0
  151.4351  140.8707  157.6320 C   0  0  0  0  0  0  0  0  0  0  0  0
  151.1168  139.9318  156.6169 C   0  0  0  0  0  0  0  0  0  0  0  0
  150.3920  140.3474  155.4825 C   0  0  0  0  0  0  0  0  0  0  0  0
  150.0052  141.6955  155.3721 C   0  0  0  0  0  0  0  0  0  0  0  0
  150.3376  142.5682  156.3458 N   0  3  0  0  0  0  0  0  0  0  0  0
  151.0327  142.2197  157.4567 C   0  0  0  0  0  0  0  0  0  0  0  0
  151.3275  143.2077  158.4120 N   0  0  0  0  0  0  0  0  0  0  0  0
  152.2282  144.2610  157.9737 C   0  0  0  0  0  0  0  0  0  0  0  0
  152.0817  145.3789  159.0093 C   0  0  0  0  0  0  0  0  0  0  0  0
  150.7244  145.1242  159.6767 C   0  0  0  0  0  0  0  0  0  0  0  0
  150.1710  143.8778  158.9815 C   0  0  0  0  0  0  0  0  0  0  0  0
  157.3461  140.6422  159.0871 H   0  0  0  0  0  0  0  0  0  0  0  0
  156.8390  140.8358  160.7595 H   0  0  0  0  0  0  0  0  0  0  0  0
  155.7177  141.2045  159.4498 H   0  0  0  0  0  0  0  0  0  0  0  0
  155.7674  138.7834  158.7482 H   0  0  0  0  0  0  0  0  0  0  0  0
  156.8230  138.4112  160.0841 H   0  0  0  0  0  0  0  0  0  0  0  0
  154.5136  137.7766  160.5994 H   0  0  0  0  0  0  0  0  0  0  0  0
  155.9085  138.5651  162.5101 H   0  0  0  0  0  0  0  0  0  0  0  0
  154.2160  138.9559  162.7741 H   0  0  0  0  0  0  0  0  0  0  0  0
  155.3398  140.2138  162.2642 H   0  0  0  0  0  0  0  0  0  0  0  0
  153.1718  140.1940  160.8784 H   0  0  0  0  0  0  0  0  0  0  0  0
  151.8292  140.9239  159.6617 H   0  0  0  0  0  0  0  0  0  0  0  0
  151.4266  138.9000  156.6762 H   0  0  0  0  0  0  0  0  0  0  0  0
  150.1413  139.6402  154.7051 H   0  0  0  0  0  0  0  0  0  0  0  0
  149.4502  142.1005  154.5381 H   0  0  0  0  0  0  0  0  0  0  0  0
  153.2554  143.8998  157.9160 H   0  0  0  0  0  0  0  0  0  0  0  0
  151.9437  144.6264  156.9859 H   0  0  0  0  0  0  0  0  0  0  0  0
  152.8781  145.3158  159.7519 H   0  0  0  0  0  0  0  0  0  0  0  0
  152.1384  146.3641  158.5451 H   0  0  0  0  0  0  0  0  0  0  0  0
  150.8647  144.9333  160.7415 H   0  0  0  0  0  0  0  0  0  0  0  0
  150.0465  145.9725  159.5784 H   0  0  0  0  0  0  0  0  0  0  0  0
  149.4707  144.1654  158.1958 H   0  0  0  0  0  0  0  0  0  0  0  0
  149.6443  143.2281  159.6811 H   0  0  0  0  0  0  0  0  0  0  0  0
  150.0505  143.5413  156.2394 H   0  0  0  0  0  0  0  0  0  0  0  0
  1  2  1  0  0  0  0
  1 20  1  0  0  0  0
  1 21  1  0  0  0  0
  1 22  1  0  0  0  0
  2  3  1  0  0  0  0
  2 23  1  0  0  0  0
  2 24  1  0  0  0  0
  3  4  1  0  0  0  0
  3  5  1  0  0  0  0
  3 25  1  0  0  0  0
  4 26  1  0  0  0  0
  4 27  1  0  0  0  0
  4 28  1  0  0  0  0
  5  6  1  0  0  0  0
  5 29  1  0  0  0  0
  6  7  2  0  0  0  0
  6  8  1  0  0  0  0
  8  9  1  0  0  0  0
  8 30  1  0  0  0  0
  9 14  1  0  0  0  0
  9 10  2  0  0  0  0
 10 11  1  0  0  0  0
 10 31  1  0  0  0  0
 11 12  2  0  0  0  0
 11 32  1  0  0  0  0
 12 13  1  0  0  0  0
 12 33  1  0  0  0  0
 13 14  2  0  0  0  0
 13 42  1  0  0  0  0
 14 15  1  0  0  0  0
 15 19  1  0  0  0  0
 15 16  1  0  0  0  0
 16 17  1  0  0  0  0
 16 34  1  0  0  0  0
 16 35  1  0  0  0  0
 17 18  1  0  0  0  0
 17 36  1  0  0  0  0
 17 37  1  0  0  0  0
 18 19  1  0  0  0  0
 18 38  1  0  0  0  0
 18 39  1  0  0  0  0
 19 40  1  0  0  0  0
 19 41  1  0  0  0  0
M  CHG  1  13   1
M  END
> <s_m_source_file>
AV-unprocessed.smi

> <i_m_source_file_index>
2450

> <i_lp_mmshare_version>
43012

> <i_f3d_flags>
0

> <s_epik_input>
W0NIM11bQ0gyXVtDQEhdKFtDSDNdKVtOSF1DKD1PKVtOSF1jMVtjSF1bY0hdW2NIXW5jMU4yW0NIMl1bQ0gyXVtDSDJdW0NIMl0y

> <s_epik_cmdline>
J2VwaWtfcHl0aG9uJywgJy1waCcsICc3LjAnLCAnLXRuJywgJzgnLCAnLW1hJywgJzIwMCcsICctbWV0YWxfYmluZGluZycsICctaW1hZScsICc8aW5maWxlLm1hZT4nLCAnLW9tYWUnLCAnPG91dGZpbGUubWFlPic=

> <r_lp_tautomer_probability>
0.999994

> <r_epik_Ionization_Penalty>
1.08838

> <r_epik_Ionization_Penalty_Charging>
1.08836

> <r_epik_Ionization_Penalty_Neutral>
2.1796e-05

> <r_epik_State_Penalty>
1.14442

> <r_epik_Charging_Adjusted_Penalty>
2.23278

> <i_epik_Tot_Q>
1

> <i_epik_Tot_abs_Q>
1

> <r_epik_Metal_State_Penalty>
1.23344

> <b_epik_Metal_Only>
0

> <s_lp_Force_Field>
OPLS_2005

> <r_lp_Energy>
41.1125

> <b_lp_Chiralities_Consistent>
1

> <s_lp_Variant>
AV-unprocessed.smi:2450-4

> <Gold.Version>
5.8.1

> <Gold.Id.Protein>
6NUR|6NUR_protein|mol2

> <Gold.PLP.Fitness>
43.9063

> <Gold.PLP.PLP>
-35.6752

> <Gold.PLP.part.hbond>
-2.0000

> <Gold.PLP.part.metal>
0.0000

> <Gold.PLP.part.buried>
-5.5042

> <Gold.PLP.part.nonpolar>
-28.8915

> <Gold.PLP.part.repulsive>
0.3527

> <Gold.PLP.ligand.clash>
0.0000

> <Gold.PLP.ligand.torsion>
0.4068

> <Gold.PLP.Chemscore.Hbond>
3.0000

> <Gold.PLP.Chemscore.CHOScore>
0.0000

> <Gold.PLP.Chemscore.Metal>
0.0000

> <Gold.Chemscore.Hbonds>
donor molecule, donor type, donor heavy atom, donor atom, acceptor molecule, acceptor atom, score
      L1  H    13    42       P1  8028  2.00
      P1  H  7997  8008       L1     7  1.00

> <Gold.PLP.Chemscore.Internal.Correction>
0.0447

> <Gold.Rescore>
     Score         DG    S(hbond)    S(metal)    S(lipo)     H(rot)  DE(clash)    DE(int)     intcor
     17.24     -19.31       1.87        0.00      94.09       1.34       0.02       2.05       ----

> <Gold.Chemscore.Fitness>
17.2403

> <Gold.Chemscore.DG>
-19.3141

> <Gold.Chemscore.ZeroCoef>
-5.4800

> <Gold.Chemscore.Hbond>
1.8723

> <Gold.Chemscore.Metal>
0.0000

> <Gold.Chemscore.Lipo>
94.0942

> <Gold.Chemscore.Internal_Hbond>
0.0000

> <Gold.Chemscore.DEClash>
0.0208

> <Gold.Chemscore.DEInternal>
2.0530

> <Gold.Chemscore.Rot>
1.3393

> <Gold.Chemscore.Internal.Correction>
   9.000000E+99

> <Gold.Chemscore.Hbonds>
donor molecule, donor type, donor heavy atom, donor atom, acceptor molecule, acceptor atom, score
      L1  H    13    42       P1  8028  0.94
      P1  H  7997  8008       L1     7  0.78

> <Gold.Chemscore.Hbond.Weighted>
-6.2536

> <Gold.Chemscore.Metal.Weighted>
-0.0000

> <Gold.Chemscore.Lipo.Weighted>
-11.0090

> <Gold.Chemscore.Internal_Hbond.Weighted>
0.0000

> <Gold.Chemscore.DEClash.Weighted>
0.0208

> <Gold.Chemscore.DEInternal.Weighted>
2.0530

> <Gold.Chemscore.Rot.Weighted>
3.4285

> <Gold.Chemscore.Internal.Correction.Weighted>
   9.000000E+99

> <Gold.Protein.RotatedTorsions>
[ 6907 6896 6895 6894 ] final -179.50 input  -60.11 | X-H torsion
[ 7974 7965 7964 7962 ] final  157.17 input  175.53 | X-H torsion
[ 8008 7997 7996 7995 ] final  -71.63 input   59.86 | X-H torsion
[ 10167 10162 10161 10158 ] final -147.10 input  -65.29 | X-H torsion
[ 10718 10713 10712 10709 ] final   63.29 input   66.30 | X-H torsion
[ 10763 10752 10751 10750 ] final   78.63 input  -60.55 | X-H torsion
[ 11005 11000 10999 10996 ] final  130.90 input  -57.11 | X-H torsion

> <Gold.Protein.ActiveResidues>
 VAL166  LYS551  ARG553  GLY616  TRP617  ASP618  TYR619  PRO620  LYS621  CYS622 
 ASP623  PHE694  ASN695  SER759  ASP760  ASP761  ALA762  ILE779  LEU786  VAL792 
 PHE793  MET794  SER795  GLU796  ALA797  LYS798  CYS799  TRP800  GLU811  SER814 

> <Gold.Protein.RotatedAtoms>
  151.6545  133.3319  159.3159 H   0  0  0  0  0  0  0  0  0  0  0  0  # atno 6907 bound_to 6896
  150.7944  134.6996  159.6552 H   0  0  0  0  0  0  0  0  0  0  0  0  # atno 6908 bound_to 6896
  152.4029  134.6260  160.0115 H   0  0  0  0  0  0  0  0  0  0  0  0  # atno 6909 bound_to 6896
  144.7919  139.7303  143.6218 H   0  0  0  0  0  0  0  0  0  0  0  0  # atno 7974 bound_to 7965
  154.5103  140.0812  156.7976 H   0  0  0  0  0  0  0  0  0  0  0  0  # atno 8008 bound_to 7997
  155.3800  140.3427  155.4228 H   0  0  0  0  0  0  0  0  0  0  0  0  # atno 8009 bound_to 7997
  156.1565  140.1575  156.8671 H   0  0  0  0  0  0  0  0  0  0  0  0  # atno 8010 bound_to 7997
  139.7653  143.8317  152.2615 H   0  0  0  0  0  0  0  0  0  0  0  0  # atno 10167 bound_to 10162
  157.5961  130.9097  149.9698 H   0  0  0  0  0  0  0  0  0  0  0  0  # atno 10718 bound_to 10713
  153.0889  135.4870  154.8651 H   0  0  0  0  0  0  0  0  0  0  0  0  # atno 10763 bound_to 10752
  154.7245  135.3046  154.8996 H   0  0  0  0  0  0  0  0  0  0  0  0  # atno 10764 bound_to 10752
  153.9650  135.6808  153.4799 H   0  0  0  0  0  0  0  0  0  0  0  0  # atno 10765 bound_to 10752
  139.9699  134.9580  156.9361 H   0  0  0  0  0  0  0  0  0  0  0  0  # atno 11005 bound_to 11000
  146.2174  139.5574  142.9641 LP  0  0  0  0  0  0  0  0  0  0  0  0  # atno 17320 bound_to 7965
  145.5772  141.0387  143.2142 LP  0  0  0  0  0  0  0  0  0  0  0  0  # atno 17321 bound_to 7965
  139.8335  144.7243  150.9420 LP  0  0  0  0  0  0  0  0  0  0  0  0  # atno 17342 bound_to 10162
  140.7810  143.4048  151.1090 LP  0  0  0  0  0  0  0  0  0  0  0  0  # atno 17343 bound_to 10162
  156.1024  130.3655  150.0194 LP  0  0  0  0  0  0  0  0  0  0  0  0  # atno 17370 bound_to 10713
  156.8307  130.9391  151.3637 LP  0  0  0  0  0  0  0  0  0  0  0  0  # atno 17371 bound_to 10713
  140.5316  134.0808  155.7317 LP  0  0  0  0  0  0  0  0  0  0  0  0  # atno 17394 bound_to 11000
  141.1379  133.9190  157.2393 LP  0  0  0  0  0  0  0  0  0  0  0  0  # atno 17395 bound_to 11000

$$$$
