AV-unprocessed.smi:2703|AV-procd|sdf|10440|dock3
  -GOLD-   2272014483D 1   1.00000     0.00000
 Structure written by MMmdl.
 43 45  0  0  0  0  0  0  0  0  4 V2000
  152.1312  144.8669  160.3919 C   0  0  0  0  0  0  0  0  0  0  0  0
  151.9686  143.7155  159.4143 C   0  0  0  0  0  0  0  0  0  0  0  0
  151.1105  143.8883  158.3052 C   0  0  0  0  0  0  0  0  0  0  0  0
  150.9808  142.8163  157.4302 C   0  0  0  0  0  0  0  0  0  0  0  0
  150.2218  142.6730  156.2670 N   0  3  0  0  0  0  0  0  0  0  0  0
  150.4188  141.4306  155.7461 C   0  0  0  0  0  0  0  0  0  0  0  0
  151.2944  140.7784  156.5580 N   0  0  0  0  0  0  0  0  0  0  0  0
  151.8359  139.4161  156.4476 C   0  0  0  0  0  0  0  0  0  0  0  0
  151.0568  138.5431  155.4444 C   0  0  2  0  0  0  0  0  0  0  0  0
  151.2688  139.0152  154.1275 O   0  0  0  0  0  0  0  0  0  0  0  0
  149.5491  138.5341  155.7449 C   0  0  0  0  0  0  0  0  0  0  0  0
  149.1078  137.3076  157.0107 S   0  0  0  0  0  0  0  0  0  0  0  0
  149.5238  135.6954  156.3895 C   0  0  0  0  0  0  0  0  0  0  0  0
  149.8482  135.4738  155.0326 C   0  0  0  0  0  0  0  0  0  0  0  0
  150.1689  134.1794  154.5957 C   0  0  0  0  0  0  0  0  0  0  0  0
  150.1595  133.1290  155.5250 C   0  0  0  0  0  0  0  0  0  0  0  0
  149.8295  133.3953  156.8675 C   0  0  0  0  0  0  0  0  0  0  0  0
  149.5161  134.6578  157.2930 N   0  3  0  0  0  0  0  0  0  0  0  0
  149.2200  134.8488  158.5313 O   0  5  0  0  0  0  0  0  0  0  0  0
  151.6713  141.6038  157.6245 C   0  0  0  0  0  0  0  0  0  0  0  0
  152.5206  141.4174  158.7131 C   0  0  0  0  0  0  0  0  0  0  0  0
  152.6636  142.4950  159.6163 C   0  0  0  0  0  0  0  0  0  0  0  0
  153.5809  142.3186  160.8145 C   0  0  0  0  0  0  0  0  0  0  0  0
  151.5445  145.7344  160.0885 H   0  0  0  0  0  0  0  0  0  0  0  0
  153.1752  145.1758  160.4507 H   0  0  0  0  0  0  0  0  0  0  0  0
  151.8000  144.5724  161.3879 H   0  0  0  0  0  0  0  0  0  0  0  0
  150.5769  144.8140  158.1461 H   0  0  0  0  0  0  0  0  0  0  0  0
  149.9620  141.0338  154.8510 H   0  0  0  0  0  0  0  0  0  0  0  0
  152.8733  139.5124  156.1247 H   0  0  0  0  0  0  0  0  0  0  0  0
  151.8671  138.9566  157.4356 H   0  0  0  0  0  0  0  0  0  0  0  0
  151.4365  137.5220  155.4982 H   0  0  0  0  0  0  0  0  0  0  0  0
  151.1574  138.2947  153.5266 H   0  0  0  0  0  0  0  0  0  0  0  0
  149.2422  139.5162  156.1056 H   0  0  0  0  0  0  0  0  0  0  0  0
  148.9825  138.3323  154.8350 H   0  0  0  0  0  0  0  0  0  0  0  0
  149.8539  136.2821  154.3183 H   0  0  0  0  0  0  0  0  0  0  0  0
  150.4179  133.9950  153.5607 H   0  0  0  0  0  0  0  0  0  0  0  0
  150.4023  132.1236  155.2140 H   0  0  0  0  0  0  0  0  0  0  0  0
  149.8006  132.6383  157.6381 H   0  0  0  0  0  0  0  0  0  0  0  0
  153.0478  140.4886  158.8711 H   0  0  0  0  0  0  0  0  0  0  0  0
  154.0331  141.3265  160.8284 H   0  0  0  0  0  0  0  0  0  0  0  0
  153.0252  142.4438  161.7441 H   0  0  0  0  0  0  0  0  0  0  0  0
  154.3874  143.0517  160.7906 H   0  0  0  0  0  0  0  0  0  0  0  0
  149.6118  143.3690  155.8576 H   0  0  0  0  0  0  0  0  0  0  0  0
  1  2  1  0  0  0  0
  1 24  1  0  0  0  0
  1 25  1  0  0  0  0
  1 26  1  0  0  0  0
  2 22  1  0  0  0  0
  2  3  2  0  0  0  0
  3  4  1  0  0  0  0
  3 27  1  0  0  0  0
  4 20  2  0  0  0  0
  4  5  1  0  0  0  0
  5  6  2  0  0  0  0
  5 43  1  0  0  0  0
  6  7  1  0  0  0  0
  6 28  1  0  0  0  0
  7  8  1  0  0  0  0
  7 20  1  0  0  0  0
  8  9  1  0  0  0  0
  8 29  1  0  0  0  0
  8 30  1  0  0  0  0
  9 10  1  0  0  0  0
  9 11  1  0  0  0  0
  9 31  1  0  0  0  0
 10 32  1  0  0  0  0
 11 12  1  0  0  0  0
 11 33  1  0  0  0  0
 11 34  1  0  0  0  0
 12 13  1  0  0  0  0
 13 18  1  0  0  0  0
 13 14  2  0  0  0  0
 14 15  1  0  0  0  0
 14 35  1  0  0  0  0
 15 16  2  0  0  0  0
 15 36  1  0  0  0  0
 16 17  1  0  0  0  0
 16 37  1  0  0  0  0
 17 18  2  0  0  0  0
 17 38  1  0  0  0  0
 18 19  1  0  0  0  0
 20 21  1  0  0  0  0
 21 22  2  0  0  0  0
 21 39  1  0  0  0  0
 22 23  1  0  0  0  0
 23 40  1  0  0  0  0
 23 41  1  0  0  0  0
 23 42  1  0  0  0  0
M  CHG  1   5   1
M  CHG  1  18   1
M  CHG  1  19  -1
M  END
> <s_m_source_file>
AV-unprocessed.smi

> <i_m_source_file_index>
2703

> <i_lp_mmshare_version>
43012

> <i_f3d_flags>
0

> <s_epik_input>
W0NIM11jKFtjSF0xKWMoW0NIM10pW2NIXWMoYzEyKW4oW2NIXW4yKVtDSDJdW0NASF0oW09IXSlbQ0gyXVNjM1tjSF1bY0hdW2NIXVtjSF1bbitdM1tPLV0=

> <s_epik_cmdline>
J2VwaWtfcHl0aG9uJywgJy1waCcsICc3LjAnLCAnLXRuJywgJzgnLCAnLW1hJywgJzIwMCcsICctbWV0YWxfYmluZGluZycsICctaW1hZScsICc8aW5maWxlLm1hZT4nLCAnLW9tYWUnLCAnPG91dGZpbGUubWFlPic=

> <r_epik_Ionization_Penalty>
1.07182

> <r_epik_Ionization_Penalty_Charging>
1.07181

> <r_epik_Ionization_Penalty_Neutral>
2.88913e-06

> <r_epik_State_Penalty>
1.12646

> <r_epik_Charging_Adjusted_Penalty>
2.19828

> <i_epik_Tot_Q>
1

> <i_epik_Tot_abs_Q>
3

> <r_epik_Metal_State_Penalty>
5.12345

> <b_epik_Metal_Only>
0

> <s_lp_Force_Field>
OPLS_2005

> <r_lp_Energy>
22.2033

> <b_lp_Chiralities_Consistent>
1

> <s_lp_Variant>
AV-unprocessed.smi:2703-3

> <Gold.Version>
5.8.1

> <Gold.Id.Protein>
6NUR|6NUR_protein|mol2

> <Gold.PLP.Fitness>
53.0928

> <Gold.PLP.PLP>
-42.3317

> <Gold.PLP.part.hbond>
-2.9222

> <Gold.PLP.part.metal>
0.0000

> <Gold.PLP.part.buried>
-4.6712

> <Gold.PLP.part.nonpolar>
-35.1366

> <Gold.PLP.part.repulsive>
0.1038

> <Gold.PLP.ligand.clash>
0.0000

> <Gold.PLP.ligand.torsion>
0.6297

> <Gold.PLP.Chemscore.Hbond>
4.0000

> <Gold.PLP.Chemscore.CHOScore>
0.0000

> <Gold.PLP.Chemscore.Metal>
0.0000

> <Gold.Chemscore.Hbonds>
donor molecule, donor type, donor heavy atom, donor atom, acceptor molecule, acceptor atom, score
      L1  H     5    43       P1  8028  2.00
      P1  H  6896  6907       L1    19  1.00
      P1  H  7989  7998       L1    10  1.00

> <Gold.PLP.Chemscore.Internal.Correction>
0.0205

> <Gold.Rescore>
     Score         DG    S(hbond)    S(metal)    S(lipo)     H(rot)  DE(clash)    DE(int)     intcor
     20.81     -22.95       2.86        0.00     118.57       2.33       0.35       1.79       ----

> <Gold.Chemscore.Fitness>
20.8098

> <Gold.Chemscore.DG>
-22.9519

> <Gold.Chemscore.ZeroCoef>
-5.4800

> <Gold.Chemscore.Hbond>
2.8616

> <Gold.Chemscore.Metal>
0.0000

> <Gold.Chemscore.Lipo>
118.5670

> <Gold.Chemscore.Internal_Hbond>
0.0000

> <Gold.Chemscore.DEClash>
0.3541

> <Gold.Chemscore.DEInternal>
1.7879

> <Gold.Chemscore.Rot>
2.3274

> <Gold.Chemscore.Internal.Correction>
   9.000000E+99

> <Gold.Chemscore.Hbonds>
donor molecule, donor type, donor heavy atom, donor atom, acceptor molecule, acceptor atom, score
      L1  H     5    43       P1  8028  0.94
      P1  H  6896  6907       L1    19  0.24
      P1  H  7989  7998       L1    10  0.94

> <Gold.Chemscore.Hbond.Weighted>
-9.5579

> <Gold.Chemscore.Metal.Weighted>
-0.0000

> <Gold.Chemscore.Lipo.Weighted>
-13.8723

> <Gold.Chemscore.Internal_Hbond.Weighted>
0.0000

> <Gold.Chemscore.DEClash.Weighted>
0.3541

> <Gold.Chemscore.DEInternal.Weighted>
1.7879

> <Gold.Chemscore.Rot.Weighted>
5.9583

> <Gold.Chemscore.Internal.Correction.Weighted>
   9.000000E+99

> <Gold.Protein.RotatedTorsions>
[ 6907 6896 6895 6894 ] final -103.98 input  -60.11 | X-H torsion
[ 7974 7965 7964 7962 ] final   -4.45 input  175.53 | X-H torsion
[ 8008 7997 7996 7995 ] final -101.46 input   59.86 | X-H torsion
[ 10167 10162 10161 10158 ] final -145.20 input  -65.29 | X-H torsion
[ 10718 10713 10712 10709 ] final -133.56 input   66.30 | X-H torsion
[ 10763 10752 10751 10750 ] final  128.23 input  -60.55 | X-H torsion
[ 11005 11000 10999 10996 ] final -153.32 input  -57.11 | X-H torsion

> <Gold.Protein.ActiveResidues>
 VAL166  LYS551  ARG553  GLY616  TRP617  ASP618  TYR619  PRO620  LYS621  CYS622 
 ASP623  PHE694  ASN695  SER759  ASP760  ASP761  ALA762  ILE779  LEU786  VAL792 
 PHE793  MET794  SER795  GLU796  ALA797  LYS798  CYS799  TRP800  GLU811  SER814 

> <Gold.Protein.RotatedAtoms>
  150.7265  134.0347  159.3745 H   0  0  0  0  0  0  0  0  0  0  0  0  # atno 6907 bound_to 6896
  151.8318  135.0617  160.0447 H   0  0  0  0  0  0  0  0  0  0  0  0  # atno 6908 bound_to 6896
  152.2928  133.5542  159.5604 H   0  0  0  0  0  0  0  0  0  0  0  0  # atno 6909 bound_to 6896
  146.2372  140.1874  142.8332 H   0  0  0  0  0  0  0  0  0  0  0  0  # atno 7974 bound_to 7965
  154.8428  140.0434  157.1553 H   0  0  0  0  0  0  0  0  0  0  0  0  # atno 8008 bound_to 7997
  154.9028  140.3002  155.5288 H   0  0  0  0  0  0  0  0  0  0  0  0  # atno 8009 bound_to 7997
  156.2993  140.2372  156.4058 H   0  0  0  0  0  0  0  0  0  0  0  0  # atno 8010 bound_to 7997
  139.7828  143.8077  152.2641 H   0  0  0  0  0  0  0  0  0  0  0  0  # atno 10167 bound_to 10162
  156.2462  130.7126  151.1007 H   0  0  0  0  0  0  0  0  0  0  0  0  # atno 10718 bound_to 10713
  153.7222  135.3251  155.3269 H   0  0  0  0  0  0  0  0  0  0  0  0  # atno 10763 bound_to 10752
  154.8352  135.4502  154.1206 H   0  0  0  0  0  0  0  0  0  0  0  0  # atno 10764 bound_to 10752
  153.2330  135.6962  153.7949 H   0  0  0  0  0  0  0  0  0  0  0  0  # atno 10765 bound_to 10752
  140.7094  134.3849  157.5199 H   0  0  0  0  0  0  0  0  0  0  0  0  # atno 11005 bound_to 11000
  144.9886  140.8526  143.5353 LP  0  0  0  0  0  0  0  0  0  0  0  0  # atno 17320 bound_to 7965
  145.1876  139.2318  143.5259 LP  0  0  0  0  0  0  0  0  0  0  0  0  # atno 17321 bound_to 7965
  139.8145  144.7322  150.9654 LP  0  0  0  0  0  0  0  0  0  0  0  0  # atno 17342 bound_to 10162
  140.7819  143.4219  151.0829 LP  0  0  0  0  0  0  0  0  0  0  0  0  # atno 17343 bound_to 10162
  157.7196  131.0689  150.6190 LP  0  0  0  0  0  0  0  0  0  0  0  0  # atno 17370 bound_to 10713
  156.6266  130.4420  149.5802 LP  0  0  0  0  0  0  0  0  0  0  0  0  # atno 17371 bound_to 10713
  139.8875  134.8880  156.2522 LP  0  0  0  0  0  0  0  0  0  0  0  0  # atno 17394 bound_to 11000
  141.0097  133.7103  156.1092 LP  0  0  0  0  0  0  0  0  0  0  0  0  # atno 17395 bound_to 11000

$$$$
