AV-unprocessed.smi:285|AV-procd|sdf|2167|dock5
  -GOLD-   2262021523D 1   1.00000     0.00000
 Structure written by MMmdl.
 31 33  0  0  0  0  0  0  0  0  1 V2000
  149.3681  138.1770  154.0847 N   0  0  0  0  0  0  0  0  0  0  0  0
  150.4297  138.6826  154.7273 C   0  0  0  0  0  0  0  0  0  0  0  0
  151.6508  138.1643  154.4587 N   0  0  0  0  0  0  0  0  0  0  0  0
  152.7265  138.6537  155.0839 C   0  0  0  0  0  0  0  0  0  0  0  0
  152.7932  139.6349  155.9875 N   0  0  0  0  0  0  0  0  0  0  0  0
  151.5605  140.1557  156.2606 C   0  0  0  0  0  0  0  0  0  0  0  0
  150.3320  139.7347  155.6725 C   0  0  0  0  0  0  0  0  0  0  0  0
  149.2759  140.4827  156.1778 N   0  0  0  0  0  0  0  0  0  0  0  0
  149.8697  141.2914  157.0104 C   0  0  0  0  0  0  0  0  0  0  0  0
  148.8613  142.5781  157.9880 Br  0  0  0  0  0  0  0  0  0  0  0  0
  151.2360  141.1763  157.1332 N   0  0  0  0  0  0  0  0  0  0  0  0
  152.1733  141.9598  157.9951 C   0  0  2  0  0  0  0  0  0  0  0  0
  152.3042  141.3216  159.3748 C   0  0  0  0  0  0  0  0  0  0  0  0
  152.5596  142.5451  160.2266 C   0  0  2  0  0  0  0  0  0  0  0  0
  152.2220  142.2935  161.5752 O   0  0  0  0  0  0  0  0  0  0  0  0
  151.6318  143.5732  159.5666 C   0  0  1  0  0  0  0  0  0  0  0  0
  152.0592  145.0373  159.7503 C   0  0  0  0  0  0  0  0  0  0  0  0
  151.0425  145.9099  159.3046 O   0  0  0  0  0  0  0  0  0  0  0  0
  151.6547  143.2432  158.1776 O   0  0  0  0  0  0  0  0  0  0  0  0
  148.4467  138.5480  154.2673 H   0  0  0  0  0  0  0  0  0  0  0  0
  149.4916  137.4302  153.4166 H   0  0  0  0  0  0  0  0  0  0  0  0
  153.6687  138.1947  154.8224 H   0  0  0  0  0  0  0  0  0  0  0  0
  153.1155  142.0174  157.4511 H   0  0  0  0  0  0  0  0  0  0  0  0
  151.3649  140.8403  159.6536 H   0  0  0  0  0  0  0  0  0  0  0  0
  153.1077  140.5849  159.3983 H   0  0  0  0  0  0  0  0  0  0  0  0
  153.6036  142.8512  160.1454 H   0  0  0  0  0  0  0  0  0  0  0  0
  151.6721  141.5251  161.6068 H   0  0  0  0  0  0  0  0  0  0  0  0
  150.6059  143.4304  159.9116 H   0  0  0  0  0  0  0  0  0  0  0  0
  152.2945  145.2491  160.7936 H   0  0  0  0  0  0  0  0  0  0  0  0
  152.9595  145.2387  159.1692 H   0  0  0  0  0  0  0  0  0  0  0  0
  150.2170  145.6143  159.6574 H   0  0  0  0  0  0  0  0  0  0  0  0
  1  2  1  0  0  0  0
  1 20  1  0  0  0  0
  1 21  1  0  0  0  0
  2  7  1  0  0  0  0
  2  3  2  0  0  0  0
  3  4  1  0  0  0  0
  4  5  2  0  0  0  0
  4 22  1  0  0  0  0
  5  6  1  0  0  0  0
  6 11  1  0  0  0  0
  6  7  2  0  0  0  0
  7  8  1  0  0  0  0
  8  9  2  0  0  0  0
  9 10  1  0  0  0  0
  9 11  1  0  0  0  0
 11 12  1  0  0  0  0
 12 19  1  0  0  0  0
 12 13  1  0  0  0  0
 12 23  1  0  0  0  0
 13 14  1  0  0  0  0
 13 24  1  0  0  0  0
 13 25  1  0  0  0  0
 14 15  1  0  0  0  0
 14 16  1  0  0  0  0
 14 26  1  0  0  0  0
 15 27  1  0  0  0  0
 16 17  1  0  0  0  0
 16 19  1  0  0  0  0
 16 28  1  0  0  0  0
 17 18  1  0  0  0  0
 17 29  1  0  0  0  0
 17 30  1  0  0  0  0
 18 31  1  0  0  0  0
M  END
> <s_m_source_file>
AV-unprocessed.smi

> <i_m_source_file_index>
285

> <i_lp_mmshare_version>
43012

> <i_f3d_flags>
0

> <s_epik_input>
bjFbY0hdbmMoW05IMl0pYyhjMTIpbmMoQnIpbjJbQ0BASF0zW0NIMl1bQ0BASF0oW09IXSlbQ0BIXShPMylbQ0gyXVtPSF0=

> <s_epik_cmdline>
J2VwaWtfcHl0aG9uJywgJy1waCcsICc3LjAnLCAnLXRuJywgJzgnLCAnLW1hJywgJzIwMCcsICctbWV0YWxfYmluZGluZycsICctaW1hZScsICc8aW5maWxlLm1hZT4nLCAnLW9tYWUnLCAnPG91dGZpbGUubWFlPic=

> <r_lp_tautomer_probability>
1

> <r_epik_Ionization_Penalty>
0.000103242

> <r_epik_Ionization_Penalty_Charging>
0

> <r_epik_Ionization_Penalty_Neutral>
0.000103242

> <r_epik_State_Penalty>
-0

> <r_epik_Charging_Adjusted_Penalty>
0

> <i_epik_Tot_Q>
0

> <i_epik_Tot_abs_Q>
0

> <r_epik_Metal_State_Penalty>
-0

> <b_epik_Metal_Only>
0

> <s_epik_Chemistry_Notes>
This compound contains an acetal/aminal-like group ( X-CH(R)-Y where X, Y are N, S, or O) that may be acid/base labile, releasing an aldehyde.

> <s_lp_Force_Field>
OPLS_2005

> <r_lp_Energy>
29.9109

> <b_lp_Chiralities_Consistent>
1

> <s_lp_Variant>
AV-unprocessed.smi:285-3

> <Gold.Version>
5.8.1

> <Gold.Id.Protein>
6NUR|6NUR_protein|mol2

> <Gold.PLP.Fitness>
38.3670

> <Gold.PLP.PLP>
-33.9734

> <Gold.PLP.part.hbond>
-4.5761

> <Gold.PLP.part.metal>
0.0000

> <Gold.PLP.part.buried>
-4.3335

> <Gold.PLP.part.nonpolar>
-24.9018

> <Gold.PLP.part.repulsive>
0.2775

> <Gold.PLP.ligand.clash>
0.0000

> <Gold.PLP.ligand.torsion>
0.8065

> <Gold.PLP.Chemscore.Hbond>
2.0000

> <Gold.PLP.Chemscore.CHOScore>
0.0000

> <Gold.PLP.Chemscore.Metal>
0.0000

> <Gold.Chemscore.Hbonds>
donor molecule, donor type, donor heavy atom, donor atom, acceptor molecule, acceptor atom, score
      L1  H     1    21       P1  7948  1.00
      P1  H  7997  8008       L1     5  1.00

> <Gold.PLP.Chemscore.Internal.Correction>
0.0066

> <Gold.Rescore>
     Score         DG    S(hbond)    S(metal)    S(lipo)     H(rot)  DE(clash)    DE(int)     intcor
      7.74      -9.97       1.97        0.00      49.25       3.06       0.12       2.12       ----

> <Gold.Chemscore.Fitness>
7.7366

> <Gold.Chemscore.DG>
-9.9740

> <Gold.Chemscore.ZeroCoef>
-5.4800

> <Gold.Chemscore.Hbond>
1.9661

> <Gold.Chemscore.Metal>
0.0000

> <Gold.Chemscore.Lipo>
49.2518

> <Gold.Chemscore.Internal_Hbond>
0.0000

> <Gold.Chemscore.DEClash>
0.1223

> <Gold.Chemscore.DEInternal>
2.1151

> <Gold.Chemscore.Rot>
3.0607

> <Gold.Chemscore.Internal.Correction>
   9.000000E+99

> <Gold.Chemscore.Hbonds>
donor molecule, donor type, donor heavy atom, donor atom, acceptor molecule, acceptor atom, score
      L1  H     1    21       P1  7948  0.86
      P1  H  7997  8008       L1     5  0.74

> <Gold.Chemscore.Hbond.Weighted>
-6.5669

> <Gold.Chemscore.Metal.Weighted>
-0.0000

> <Gold.Chemscore.Lipo.Weighted>
-5.7625

> <Gold.Chemscore.Internal_Hbond.Weighted>
0.0000

> <Gold.Chemscore.DEClash.Weighted>
0.1223

> <Gold.Chemscore.DEInternal.Weighted>
2.1151

> <Gold.Chemscore.Rot.Weighted>
7.8354

> <Gold.Chemscore.Internal.Correction.Weighted>
   9.000000E+99

> <Gold.Protein.RotatedTorsions>
[ 6907 6896 6895 6894 ] final  -23.34 input  -60.11 | X-H torsion
[ 7974 7965 7964 7962 ] final -122.37 input  175.53 | X-H torsion
[ 8008 7997 7996 7995 ] final  -29.62 input   59.86 | X-H torsion
[ 10167 10162 10161 10158 ] final   37.55 input  -65.29 | X-H torsion
[ 10718 10713 10712 10709 ] final -178.76 input   66.30 | X-H torsion
[ 10763 10752 10751 10750 ] final  -69.30 input  -60.55 | X-H torsion
[ 11005 11000 10999 10996 ] final   56.07 input  -57.11 | X-H torsion

> <Gold.Protein.ActiveResidues>
 VAL166  LYS551  ARG553  GLY616  TRP617  ASP618  TYR619  PRO620  LYS621  CYS622 
 ASP623  PHE694  ASN695  SER759  ASP760  ASP761  ALA762  ILE779  LEU786  VAL792 
 PHE793  MET794  SER795  GLU796  ALA797  LYS798  CYS799  TRP800  GLU811  SER814 

> <Gold.Protein.RotatedAtoms>
  151.2054  135.0459  159.8888 H   0  0  0  0  0  0  0  0  0  0  0  0  # atno 6907 bound_to 6896
  152.5429  134.0804  159.8243 H   0  0  0  0  0  0  0  0  0  0  0  0  # atno 6908 bound_to 6896
  151.0950  133.5239  159.2645 H   0  0  0  0  0  0  0  0  0  0  0  0  # atno 6909 bound_to 6896
  145.0302  140.8061  143.4328 H   0  0  0  0  0  0  0  0  0  0  0  0  # atno 7974 bound_to 7965
  154.4283  140.1813  156.1276 H   0  0  0  0  0  0  0  0  0  0  0  0  # atno 8008 bound_to 7997
  156.0093  140.3352  155.6899 H   0  0  0  0  0  0  0  0  0  0  0  0  # atno 8009 bound_to 7997
  155.6133  140.0652  157.2690 H   0  0  0  0  0  0  0  0  0  0  0  0  # atno 8010 bound_to 7997
  140.4022  144.1708  150.6134 H   0  0  0  0  0  0  0  0  0  0  0  0  # atno 10167 bound_to 10162
  156.8490  130.9712  151.3094 H   0  0  0  0  0  0  0  0  0  0  0  0  # atno 10718 bound_to 10713
  154.4014  135.6030  153.5899 H   0  0  0  0  0  0  0  0  0  0  0  0  # atno 10763 bound_to 10752
  152.9788  135.5907  154.4179 H   0  0  0  0  0  0  0  0  0  0  0  0  # atno 10764 bound_to 10752
  154.3978  135.2842  155.2093 H   0  0  0  0  0  0  0  0  0  0  0  0  # atno 10765 bound_to 10752
  140.0558  134.5672  155.9210 H   0  0  0  0  0  0  0  0  0  0  0  0  # atno 11005 bound_to 11000
  145.1780  139.2367  143.5307 LP  0  0  0  0  0  0  0  0  0  0  0  0  # atno 17320 bound_to 7965
  146.3497  140.1547  142.8592 LP  0  0  0  0  0  0  0  0  0  0  0  0  # atno 17321 bound_to 7965
  140.4728  143.2407  151.9065 LP  0  0  0  0  0  0  0  0  0  0  0  0  # atno 17342 bound_to 10162
  139.4784  144.5352  151.8609 LP  0  0  0  0  0  0  0  0  0  0  0  0  # atno 17343 bound_to 10162
  157.6313  130.8732  149.9280 LP  0  0  0  0  0  0  0  0  0  0  0  0  # atno 17370 bound_to 10713
  156.0838  130.3670  150.0527 LP  0  0  0  0  0  0  0  0  0  0  0  0  # atno 17371 bound_to 10713
  141.1951  133.6586  156.5627 LP  0  0  0  0  0  0  0  0  0  0  0  0  # atno 17394 bound_to 11000
  140.3847  134.7493  157.4683 LP  0  0  0  0  0  0  0  0  0  0  0  0  # atno 17395 bound_to 11000

$$$$
