AV-unprocessed.smi:2261|AV-procd|sdf|9137|dock6
  -GOLD-   2272012343D 1   1.00000     0.00000
 Structure written by MMmdl.
 41 42  0  0  0  0  0  0  0  0  1 V2000
  151.0660  134.7405  156.4086 C   0  0  0  0  0  0  0  0  0  0  0  0
  150.1581  135.7843  155.7358 C   0  0  0  0  0  0  0  0  0  0  0  0
  148.8781  135.1322  155.1910 C   0  0  0  0  0  0  0  0  0  0  0  0
  149.8576  136.9664  156.6663 C   0  0  0  0  0  0  0  0  0  0  0  0
  150.9774  137.9389  156.3557 C   0  0  2  0  0  0  0  0  0  0  0  0
  150.6093  139.3118  156.6897 N   0  0  0  0  0  0  0  0  0  0  0  0
  151.2592  140.4108  156.2783 C   0  0  0  0  0  0  0  0  0  0  0  0
  152.3032  140.3827  155.6276 O   0  0  0  0  0  0  0  0  0  0  0  0
  150.6152  141.7498  156.6352 C   0  0  0  0  0  0  0  0  0  0  0  0
  151.1149  142.2158  157.9911 C   0  0  0  0  0  0  0  0  0  0  0  0
  151.9794  141.4089  158.7596 C   0  0  0  0  0  0  0  0  0  0  0  0
  152.4332  141.8928  160.0016 C   0  0  0  0  0  0  0  0  0  0  0  0
  152.0023  143.1665  160.4232 C   0  0  0  0  0  0  0  0  0  0  0  0
  151.1739  143.9473  159.6968 N   0  0  0  0  0  0  0  0  0  0  0  0
  150.7413  143.4749  158.5084 C   0  0  0  0  0  0  0  0  0  0  0  0
  151.2035  137.7124  154.8454 C   0  0  0  0  0  0  0  0  0  0  0  0
  150.2589  138.5224  153.9310 C   0  0  0  0  0  0  0  0  0  0  0  0
  152.6683  137.9318  154.4365 C   0  0  0  0  0  0  0  0  0  0  0  0
  150.8878  136.3362  154.6403 O   0  0  0  0  0  0  0  0  0  0  0  0
  150.5749  134.2865  157.2696 H   0  0  0  0  0  0  0  0  0  0  0  0
  151.9987  135.1861  156.7554 H   0  0  0  0  0  0  0  0  0  0  0  0
  151.3253  133.9403  155.7149 H   0  0  0  0  0  0  0  0  0  0  0  0
  148.2725  134.7184  155.9979 H   0  0  0  0  0  0  0  0  0  0  0  0
  149.1124  134.3217  154.5005 H   0  0  0  0  0  0  0  0  0  0  0  0
  148.2655  135.8550  154.6513 H   0  0  0  0  0  0  0  0  0  0  0  0
  148.8946  137.4131  156.4130 H   0  0  0  0  0  0  0  0  0  0  0  0
  149.8197  136.6862  157.7197 H   0  0  0  0  0  0  0  0  0  0  0  0
  151.8601  137.6297  156.9192 H   0  0  0  0  0  0  0  0  0  0  0  0
  149.7599  139.4368  157.2207 H   0  0  0  0  0  0  0  0  0  0  0  0
  150.8505  142.4927  155.8717 H   0  0  0  0  0  0  0  0  0  0  0  0
  149.5292  141.6473  156.6553 H   0  0  0  0  0  0  0  0  0  0  0  0
  152.2943  140.4395  158.4016 H   0  0  0  0  0  0  0  0  0  0  0  0
  153.0980  141.3031  160.6154 H   0  0  0  0  0  0  0  0  0  0  0  0
  152.3321  143.5691  161.3695 H   0  0  0  0  0  0  0  0  0  0  0  0
  150.0871  144.1268  157.9482 H   0  0  0  0  0  0  0  0  0  0  0  0
  150.4682  139.5912  153.9821 H   0  0  0  0  0  0  0  0  0  0  0  0
  149.2123  138.3752  154.1977 H   0  0  0  0  0  0  0  0  0  0  0  0
  150.3734  138.2214  152.8893 H   0  0  0  0  0  0  0  0  0  0  0  0
  152.9649  138.9720  154.5733 H   0  0  0  0  0  0  0  0  0  0  0  0
  152.8262  137.6777  153.3881 H   0  0  0  0  0  0  0  0  0  0  0  0
  153.3422  137.3128  155.0294 H   0  0  0  0  0  0  0  0  0  0  0  0
  1  2  1  0  0  0  0
  1 20  1  0  0  0  0
  1 21  1  0  0  0  0
  1 22  1  0  0  0  0
  2 19  1  0  0  0  0
  2  3  1  0  0  0  0
  2  4  1  0  0  0  0
  3 23  1  0  0  0  0
  3 24  1  0  0  0  0
  3 25  1  0  0  0  0
  4  5  1  0  0  0  0
  4 26  1  0  0  0  0
  4 27  1  0  0  0  0
  5  6  1  0  0  0  0
  5 16  1  0  0  0  0
  5 28  1  0  0  0  0
  6  7  1  0  0  0  0
  6 29  1  0  0  0  0
  7  8  2  0  0  0  0
  7  9  1  0  0  0  0
  9 10  1  0  0  0  0
  9 30  1  0  0  0  0
  9 31  1  0  0  0  0
 10 15  1  0  0  0  0
 10 11  2  0  0  0  0
 11 12  1  0  0  0  0
 11 32  1  0  0  0  0
 12 13  2  0  0  0  0
 12 33  1  0  0  0  0
 13 14  1  0  0  0  0
 13 34  1  0  0  0  0
 14 15  2  0  0  0  0
 15 35  1  0  0  0  0
 16 17  1  0  0  0  0
 16 18  1  0  0  0  0
 16 19  1  0  0  0  0
 17 36  1  0  0  0  0
 17 37  1  0  0  0  0
 17 38  1  0  0  0  0
 18 39  1  0  0  0  0
 18 40  1  0  0  0  0
 18 41  1  0  0  0  0
M  END
> <s_m_source_file>
AV-unprocessed.smi

> <i_m_source_file_index>
2261

> <i_lp_mmshare_version>
43012

> <i_f3d_flags>
0

> <s_epik_input>
W0NIM11DMShbQ0gzXSlbQ0gyXVtDQEhdKEMoTzEpKFtDSDNdKVtDSDNdKVtOSF1DKD1PKVtDSDJdYzJbY0hdW2NIXVtjSF1uW2NIXTI=

> <s_epik_cmdline>
J2VwaWtfcHl0aG9uJywgJy1waCcsICc3LjAnLCAnLXRuJywgJzgnLCAnLW1hJywgJzIwMCcsICctbWV0YWxfYmluZGluZycsICctaW1hZScsICc8aW5maWxlLm1hZT4nLCAnLW9tYWUnLCAnPG91dGZpbGUubWFlPic=

> <r_epik_Ionization_Penalty>
0.00420617

> <r_epik_Ionization_Penalty_Charging>
0

> <r_epik_Ionization_Penalty_Neutral>
0.00420617

> <r_epik_State_Penalty>
0.0030219

> <r_epik_Charging_Adjusted_Penalty>
0.0030219

> <i_epik_Tot_Q>
0

> <i_epik_Tot_abs_Q>
0

> <r_epik_Metal_State_Penalty>
-0

> <b_epik_Metal_Only>
0

> <s_lp_Force_Field>
OPLS_2005

> <r_lp_Energy>
16.2034

> <b_lp_Chiralities_Consistent>
1

> <s_lp_Variant>
AV-unprocessed.smi:2261-2

> <Gold.Version>
5.8.1

> <Gold.Id.Protein>
6NUR|6NUR_protein|mol2

> <Gold.PLP.Fitness>
38.9444

> <Gold.PLP.PLP>
-29.8560

> <Gold.PLP.part.hbond>
-3.0000

> <Gold.PLP.part.metal>
0.0000

> <Gold.PLP.part.buried>
1.8444

> <Gold.PLP.part.nonpolar>
-28.1713

> <Gold.PLP.part.repulsive>
0.2859

> <Gold.PLP.ligand.clash>
0.0209

> <Gold.PLP.ligand.torsion>
0.5274

> <Gold.PLP.Chemscore.Hbond>
2.3833

> <Gold.PLP.Chemscore.CHOScore>
1.0000

> <Gold.PLP.Chemscore.Metal>
0.0000

> <Gold.Chemscore.Hbonds>
donor molecule, donor type, donor heavy atom, donor atom, acceptor molecule, acceptor atom, score
      P1  H  7989  7998       L1     8  0.24
      P1  H  7997  8009       L1     8  0.69
      P1  H 10752 10763       L1    19  0.54
      L1  C    15    35       P1  8028  0.77
      L1  C    15    35       P1  8029  0.02

> <Gold.PLP.Chemscore.Internal.Correction>
0.0140

> <Gold.Rescore>
     Score         DG    S(hbond)    S(metal)    S(lipo)     H(rot)  DE(clash)    DE(int)     intcor
     13.66     -18.79       1.40        0.00     102.02       1.28       2.18       2.96       ----

> <Gold.Chemscore.Fitness>
13.6606

> <Gold.Chemscore.DG>
-18.7934

> <Gold.Chemscore.ZeroCoef>
-5.4800

> <Gold.Chemscore.Hbond>
1.3965

> <Gold.Chemscore.Metal>
0.0000

> <Gold.Chemscore.Lipo>
102.0228

> <Gold.Chemscore.Internal_Hbond>
0.0000

> <Gold.Chemscore.DEClash>
2.1768

> <Gold.Chemscore.DEInternal>
2.9560

> <Gold.Chemscore.Rot>
1.2842

> <Gold.Chemscore.Internal.Correction>
   9.000000E+99

> <Gold.Chemscore.Hbonds>
donor molecule, donor type, donor heavy atom, donor atom, acceptor molecule, acceptor atom, score
      P1  H  7989  7998       L1     8  0.12
      P1  H  7997  8009       L1     8  0.64
      P1  H 10752 10763       L1    19  0.09

> <Gold.Chemscore.Hbond.Weighted>
-4.6643

> <Gold.Chemscore.Metal.Weighted>
-0.0000

> <Gold.Chemscore.Lipo.Weighted>
-11.9367

> <Gold.Chemscore.Internal_Hbond.Weighted>
0.0000

> <Gold.Chemscore.DEClash.Weighted>
2.1768

> <Gold.Chemscore.DEInternal.Weighted>
2.9560

> <Gold.Chemscore.Rot.Weighted>
3.2875

> <Gold.Chemscore.Internal.Correction.Weighted>
   9.000000E+99

> <Gold.Protein.RotatedTorsions>
[ 6907 6896 6895 6894 ] final  -32.72 input  -60.11 | X-H torsion
[ 7974 7965 7964 7962 ] final  -28.07 input  175.53 | X-H torsion
[ 8008 7997 7996 7995 ] final -137.44 input   59.86 | X-H torsion
[ 10167 10162 10161 10158 ] final  145.09 input  -65.29 | X-H torsion
[ 10718 10713 10712 10709 ] final   70.72 input   66.30 | X-H torsion
[ 10763 10752 10751 10750 ] final   42.30 input  -60.55 | X-H torsion
[ 11005 11000 10999 10996 ] final   55.28 input  -57.11 | X-H torsion

> <Gold.Protein.ActiveResidues>
 VAL166  LYS551  ARG553  GLY616  TRP617  ASP618  TYR619  PRO620  LYS621  CYS622 
 ASP623  PHE694  ASN695  SER759  ASP760  ASP761  ALA762  ILE779  LEU786  VAL792 
 PHE793  MET794  SER795  GLU796  ALA797  LYS798  CYS799  TRP800  GLU811  SER814 

> <Gold.Protein.RotatedAtoms>
  151.0750  134.9823  159.8327 H   0  0  0  0  0  0  0  0  0  0  0  0  # atno 6907 bound_to 6896
  152.5413  134.2251  159.8813 H   0  0  0  0  0  0  0  0  0  0  0  0  # atno 6908 bound_to 6896
  151.2278  133.4423  159.2636 H   0  0  0  0  0  0  0  0  0  0  0  0  # atno 6909 bound_to 6896
  146.1314  140.5235  142.8692 H   0  0  0  0  0  0  0  0  0  0  0  0  # atno 7974 bound_to 7965
  155.4118  140.0512  157.3031 H   0  0  0  0  0  0  0  0  0  0  0  0  # atno 8008 bound_to 7997
  154.4942  140.2132  155.9442 H   0  0  0  0  0  0  0  0  0  0  0  0  # atno 8009 bound_to 7997
  156.1384  140.3159  155.8461 H   0  0  0  0  0  0  0  0  0  0  0  0  # atno 8010 bound_to 7997
  139.4933  144.5926  151.6649 H   0  0  0  0  0  0  0  0  0  0  0  0  # atno 10167 bound_to 10162
  157.6414  130.9491  150.0690 H   0  0  0  0  0  0  0  0  0  0  0  0  # atno 10718 bound_to 10713
  152.9886  135.6136  154.2928 H   0  0  0  0  0  0  0  0  0  0  0  0  # atno 10763 bound_to 10752
  154.2652  135.2781  155.2763 H   0  0  0  0  0  0  0  0  0  0  0  0  # atno 10764 bound_to 10752
  154.5171  135.5825  153.6708 H   0  0  0  0  0  0  0  0  0  0  0  0  # atno 10765 bound_to 10752
  140.0619  134.5590  155.9142 H   0  0  0  0  0  0  0  0  0  0  0  0  # atno 11005 bound_to 11000
  144.7694  140.5604  143.6680 LP  0  0  0  0  0  0  0  0  0  0  0  0  # atno 17320 bound_to 7965
  145.5253  139.1476  143.3530 LP  0  0  0  0  0  0  0  0  0  0  0  0  # atno 17321 bound_to 7965
  140.5557  144.0352  150.6146 LP  0  0  0  0  0  0  0  0  0  0  0  0  # atno 17342 bound_to 10162
  140.3421  143.3013  152.0577 LP  0  0  0  0  0  0  0  0  0  0  0  0  # atno 17343 bound_to 10162
  156.1699  130.3646  149.9179 LP  0  0  0  0  0  0  0  0  0  0  0  0  # atno 17370 bound_to 10713
  156.7157  130.8987  151.3613 LP  0  0  0  0  0  0  0  0  0  0  0  0  # atno 17371 bound_to 10713
  141.1977  133.6597  156.5753 LP  0  0  0  0  0  0  0  0  0  0  0  0  # atno 17394 bound_to 11000
  140.3757  134.7567  157.4628 LP  0  0  0  0  0  0  0  0  0  0  0  0  # atno 17395 bound_to 11000

$$$$
