AV-unprocessed.smi:2594|AV-procd|sdf|10166|dock10
  -GOLD-   2272014183D 1   1.00000     0.00000
 Structure written by MMmdl.
 29 30  0  0  0  0  0  0  0  0  1 V2000
  154.0457  139.7509  158.9065 O   0  0  0  0  0  0  0  0  0  0  0  0
  152.8639  140.0991  158.9201 C   0  0  0  0  0  0  0  0  0  0  0  0
  151.8324  139.4095  158.0175 C   0  0  0  0  0  0  0  0  0  0  0  0
  151.0462  140.3557  157.2248 N   0  0  0  0  0  0  0  0  0  0  0  0
  150.3035  141.2861  157.8831 N   0  0  0  0  0  0  0  0  0  0  0  0
  149.6559  142.0321  157.0670 C   0  0  0  0  0  0  0  0  0  0  0  0
  149.8810  141.6870  155.3471 S   0  0  0  0  0  0  0  0  0  0  0  0
  150.9878  140.3739  155.8338 C   0  0  0  0  0  0  0  0  0  0  0  0
  151.5682  139.6431  155.0327 O   0  0  0  0  0  0  0  0  0  0  0  0
  152.3952  141.0716  159.7164 N   0  0  0  0  0  0  0  0  0  0  0  0
  153.2072  141.8688  160.6285 C   0  0  0  0  0  0  0  0  0  0  0  0
  153.1271  143.3669  160.2902 C   0  0  2  0  0  0  0  0  0  0  0  0
  151.9476  144.0837  160.9416 C   0  0  0  0  0  0  0  0  0  0  0  0
  151.7897  145.2838  160.0360 C   0  0  0  0  0  0  0  0  0  0  0  0
  152.0929  144.6898  158.6620 C   0  0  0  0  0  0  0  0  0  0  0  0
  152.9286  143.5574  158.8921 O   0  0  0  0  0  0  0  0  0  0  0  0
  152.3563  138.7117  157.3624 H   0  0  0  0  0  0  0  0  0  0  0  0
  151.1544  138.8101  158.6274 H   0  0  0  0  0  0  0  0  0  0  0  0
  148.9876  142.8502  157.3350 H   0  0  0  0  0  0  0  0  0  0  0  0
  151.4114  141.2935  159.6691 H   0  0  0  0  0  0  0  0  0  0  0  0
  152.8570  141.6944  161.6461 H   0  0  0  0  0  0  0  0  0  0  0  0
  154.2433  141.5281  160.5947 H   0  0  0  0  0  0  0  0  0  0  0  0
  154.0494  143.8766  160.5746 H   0  0  0  0  0  0  0  0  0  0  0  0
  151.0499  143.4648  160.9033 H   0  0  0  0  0  0  0  0  0  0  0  0
  152.1356  144.3534  161.9812 H   0  0  0  0  0  0  0  0  0  0  0  0
  150.8016  145.7408  160.0954 H   0  0  0  0  0  0  0  0  0  0  0  0
  152.5329  146.0413  160.2894 H   0  0  0  0  0  0  0  0  0  0  0  0
  151.1762  144.3496  158.1793 H   0  0  0  0  0  0  0  0  0  0  0  0
  152.5759  145.4099  158.0014 H   0  0  0  0  0  0  0  0  0  0  0  0
  1  2  2  0  0  0  0
  2  3  1  0  0  0  0
  2 10  1  0  0  0  0
  3  4  1  0  0  0  0
  3 17  1  0  0  0  0
  3 18  1  0  0  0  0
  4  8  1  0  0  0  0
  4  5  1  0  0  0  0
  5  6  2  0  0  0  0
  6  7  1  0  0  0  0
  6 19  1  0  0  0  0
  7  8  1  0  0  0  0
  8  9  2  0  0  0  0
 10 11  1  0  0  0  0
 10 20  1  0  0  0  0
 11 12  1  0  0  0  0
 11 21  1  0  0  0  0
 11 22  1  0  0  0  0
 12 16  1  0  0  0  0
 12 13  1  0  0  0  0
 12 23  1  0  0  0  0
 13 14  1  0  0  0  0
 13 24  1  0  0  0  0
 13 25  1  0  0  0  0
 14 15  1  0  0  0  0
 14 26  1  0  0  0  0
 14 27  1  0  0  0  0
 15 16  1  0  0  0  0
 15 28  1  0  0  0  0
 15 29  1  0  0  0  0
M  END
> <s_m_source_file>
AV-unprocessed.smi

> <i_m_source_file_index>
2594

> <i_lp_mmshare_version>
43012

> <i_f3d_flags>
0

> <s_epik_input>
TzFbQ0gyXVtDSDJdW0NIMl1bQ0BIXTFbQ0gyXVtOSF1DKD1PKVtDSDJdbjJuW2NIXXNjMj1P

> <s_epik_cmdline>
J2VwaWtfcHl0aG9uJywgJy1waCcsICc3LjAnLCAnLXRuJywgJzgnLCAnLW1hJywgJzIwMCcsICctbWV0YWxfYmluZGluZycsICctaW1hZScsICc8aW5maWxlLm1hZT4nLCAnLW9tYWUnLCAnPG91dGZpbGUubWFlPic=

> <r_lp_tautomer_probability>
1

> <r_epik_Ionization_Penalty>
2.49222e-07

> <r_epik_Ionization_Penalty_Charging>
1.4085e-08

> <r_epik_Ionization_Penalty_Neutral>
2.35137e-07

> <r_epik_State_Penalty>
-0

> <r_epik_Charging_Adjusted_Penalty>
1.4085e-08

> <i_epik_Tot_Q>
0

> <i_epik_Tot_abs_Q>
0

> <r_epik_Metal_State_Penalty>
-0

> <b_epik_Metal_Only>
0

> <s_lp_Force_Field>
OPLS_2005

> <r_lp_Energy>
18.2258

> <b_lp_Chiralities_Consistent>
1

> <s_lp_Variant>
AV-unprocessed.smi:2594-1

> <Gold.Version>
5.8.1

> <Gold.Id.Protein>
6NUR|6NUR_protein|mol2

> <Gold.PLP.Fitness>
43.4678

> <Gold.PLP.PLP>
-36.1612

> <Gold.PLP.part.hbond>
-2.0000

> <Gold.PLP.part.metal>
0.0000

> <Gold.PLP.part.buried>
-4.6201

> <Gold.PLP.part.nonpolar>
-28.9469

> <Gold.PLP.part.repulsive>
0.2039

> <Gold.PLP.ligand.clash>
0.0000

> <Gold.PLP.ligand.torsion>
0.3958

> <Gold.PLP.Chemscore.Hbond>
2.0000

> <Gold.PLP.Chemscore.CHOScore>
0.6973

> <Gold.PLP.Chemscore.Metal>
0.0000

> <Gold.Chemscore.Hbonds>
donor molecule, donor type, donor heavy atom, donor atom, acceptor molecule, acceptor atom, score
      P1  H  7989  7998       L1     9  0.95
      P1  H  7997  8009       L1     1  1.00
      L1  C     6    19       P1  8028  0.71

> <Gold.PLP.Chemscore.Internal.Correction>
0.0063

> <Gold.Rescore>
     Score         DG    S(hbond)    S(metal)    S(lipo)     H(rot)  DE(clash)    DE(int)     intcor
     15.06     -15.66       1.94        0.00      75.22       2.00       0.03       0.57       ----

> <Gold.Chemscore.Fitness>
15.0641

> <Gold.Chemscore.DG>
-15.6645

> <Gold.Chemscore.ZeroCoef>
-5.4800

> <Gold.Chemscore.Hbond>
1.9436

> <Gold.Chemscore.Metal>
0.0000

> <Gold.Chemscore.Lipo>
75.2181

> <Gold.Chemscore.Internal_Hbond>
0.0000

> <Gold.Chemscore.DEClash>
0.0310

> <Gold.Chemscore.DEInternal>
0.5694

> <Gold.Chemscore.Rot>
1.9952

> <Gold.Chemscore.Internal.Correction>
   9.000000E+99

> <Gold.Chemscore.Hbonds>
donor molecule, donor type, donor heavy atom, donor atom, acceptor molecule, acceptor atom, score
      P1  H  7989  7998       L1     9  0.21
      P1  H  7997  8009       L1     1  0.85

> <Gold.Chemscore.Hbond.Weighted>
-6.4917

> <Gold.Chemscore.Metal.Weighted>
-0.0000

> <Gold.Chemscore.Lipo.Weighted>
-8.8005

> <Gold.Chemscore.Internal_Hbond.Weighted>
0.0000

> <Gold.Chemscore.DEClash.Weighted>
0.0310

> <Gold.Chemscore.DEInternal.Weighted>
0.5694

> <Gold.Chemscore.Rot.Weighted>
5.1077

> <Gold.Chemscore.Internal.Correction.Weighted>
   9.000000E+99

> <Gold.Protein.RotatedTorsions>
[ 6907 6896 6895 6894 ] final -169.02 input  -60.11 | X-H torsion
[ 7974 7965 7964 7962 ] final  -95.75 input  175.53 | X-H torsion
[ 8008 7997 7996 7995 ] final  134.07 input   59.86 | X-H torsion
[ 10167 10162 10161 10158 ] final  124.72 input  -65.29 | X-H torsion
[ 10718 10713 10712 10709 ] final   -1.79 input   66.30 | X-H torsion
[ 10763 10752 10751 10750 ] final -161.39 input  -60.55 | X-H torsion
[ 11005 11000 10999 10996 ] final   -0.48 input  -57.11 | X-H torsion

> <Gold.Protein.ActiveResidues>
 VAL166  LYS551  ARG553  GLY616  TRP617  ASP618  TYR619  PRO620  LYS621  CYS622 
 ASP623  PHE694  ASN695  SER759  ASP760  ASP761  ALA762  ILE779  LEU786  VAL792 
 PHE793  MET794  SER795  GLU796  ALA797  LYS798  CYS799  TRP800  GLU811  SER814 

> <Gold.Protein.RotatedAtoms>
  151.4848  133.3538  159.2843 H   0  0  0  0  0  0  0  0  0  0  0  0  # atno 6907 bound_to 6896
  150.8873  134.8274  159.7279 H   0  0  0  0  0  0  0  0  0  0  0  0  # atno 6908 bound_to 6896
  152.4801  134.4754  159.9700 H   0  0  0  0  0  0  0  0  0  0  0  0  # atno 6909 bound_to 6896
  145.3560  140.9484  143.2527 H   0  0  0  0  0  0  0  0  0  0  0  0  # atno 7974 bound_to 7965
  156.2997  140.2505  156.3357 H   0  0  0  0  0  0  0  0  0  0  0  0  # atno 8008 bound_to 7997
  154.9102  140.0403  157.1961 H   0  0  0  0  0  0  0  0  0  0  0  0  # atno 8009 bound_to 7997
  154.8413  140.2891  155.5662 H   0  0  0  0  0  0  0  0  0  0  0  0  # atno 8010 bound_to 7997
  139.5725  144.6946  151.3740 H   0  0  0  0  0  0  0  0  0  0  0  0  # atno 10167 bound_to 10162
  156.8004  130.5391  149.5722 H   0  0  0  0  0  0  0  0  0  0  0  0  # atno 10718 bound_to 10713
  154.7308  135.3046  154.8895 H   0  0  0  0  0  0  0  0  0  0  0  0  # atno 10763 bound_to 10752
  153.9738  135.6738  153.4752 H   0  0  0  0  0  0  0  0  0  0  0  0  # atno 10764 bound_to 10752
  153.0916  135.4956  154.8622 H   0  0  0  0  0  0  0  0  0  0  0  0  # atno 10765 bound_to 10752
  140.6367  133.9526  155.8303 H   0  0  0  0  0  0  0  0  0  0  0  0  # atno 11005 bound_to 11000
  144.8682  139.5077  143.6780 LP  0  0  0  0  0  0  0  0  0  0  0  0  # atno 17320 bound_to 7965
  146.2948  139.7245  142.9135 LP  0  0  0  0  0  0  0  0  0  0  0  0  # atno 17321 bound_to 7965
  140.7009  143.7633  150.7402 LP  0  0  0  0  0  0  0  0  0  0  0  0  # atno 17342 bound_to 10162
  140.1144  143.4670  152.2351 LP  0  0  0  0  0  0  0  0  0  0  0  0  # atno 17343 bound_to 10162
  156.1105  130.6036  151.0039 LP  0  0  0  0  0  0  0  0  0  0  0  0  # atno 17370 bound_to 10713
  157.6557  131.0890  150.7953 LP  0  0  0  0  0  0  0  0  0  0  0  0  # atno 17371 bound_to 10713
  141.0636  134.0309  157.3624 LP  0  0  0  0  0  0  0  0  0  0  0  0  # atno 17394 bound_to 11000
  139.9095  135.0187  156.7633 LP  0  0  0  0  0  0  0  0  0  0  0  0  # atno 17395 bound_to 11000

$$$$
