AV-unprocessed.smi:1976|AV-procd|sdf|7990|dock5
  -GOLD-   2272010173D 1   1.00000     0.00000
 Structure written by MMmdl.
 45 47  0  0  0  0  0  0  0  0  2 V2000
  149.1965  140.0890  154.7127 O   0  0  0  0  0  0  0  0  0  0  0  0
  149.1506  141.2960  154.9528 C   0  0  0  0  0  0  0  0  0  0  0  0
  150.4289  142.0833  155.2733 C   0  0  0  0  0  0  0  0  0  0  0  0
  150.9190  141.8551  156.6428 N   0  0  0  0  0  0  0  0  0  0  0  0
  151.0263  142.9804  157.4834 C   0  0  0  0  0  0  0  0  0  0  0  0
  151.4712  142.9073  158.7526 C   0  0  0  0  0  0  0  0  0  0  0  0
  151.5164  144.1300  159.6558 C   0  0  0  0  0  0  0  0  0  0  0  0
  152.0878  143.8421  160.8253 F   0  0  0  0  0  0  0  0  0  0  0  0
  152.2255  145.0964  159.0742 F   0  0  0  0  0  0  0  0  0  0  0  0
  150.2912  144.5997  159.8926 F   0  0  0  0  0  0  0  0  0  0  0  0
  151.8149  141.5861  159.2405 C   0  0  0  0  0  0  0  0  0  0  0  0
  151.7049  140.4975  158.4542 C   0  0  0  0  0  0  0  0  0  0  0  0
  151.2342  140.5959  157.0707 C   0  0  0  0  0  0  0  0  0  0  0  0
  151.1280  139.6089  156.3420 O   0  0  0  0  0  0  0  0  0  0  0  0
  148.0062  141.9945  154.9730 N   0  0  0  0  0  0  0  0  0  0  0  0
  146.6885  141.4349  154.6936 C   0  0  1  0  0  0  0  0  0  0  0  0
  146.4282  140.0759  155.3717 C   0  0  0  0  0  0  0  0  0  0  0  0
  144.9501  140.1146  155.8085 C   0  0  0  0  0  0  0  0  0  0  0  0
  144.4242  141.3935  155.2937 N   0  3  1  0  0  0  0  0  0  0  0  0
  143.2506  141.9695  155.9855 C   0  0  0  0  0  0  0  0  0  0  0  0
  142.8084  143.2527  155.2532 C   0  0  0  0  0  0  0  0  0  0  0  0
  143.9754  144.2474  155.0823 C   0  0  0  0  0  0  0  0  0  0  0  0
  145.1998  143.5649  154.4418 C   0  0  0  0  0  0  0  0  0  0  0  0
  145.5709  142.3130  155.2531 C   0  0  2  0  0  0  0  0  0  0  0  0
  151.2076  141.8291  154.5514 H   0  0  0  0  0  0  0  0  0  0  0  0
  150.2243  143.1423  155.1102 H   0  0  0  0  0  0  0  0  0  0  0  0
  150.7115  143.9102  157.0322 H   0  0  0  0  0  0  0  0  0  0  0  0
  152.1698  141.4666  160.2536 H   0  0  0  0  0  0  0  0  0  0  0  0
  151.9712  139.5289  158.8511 H   0  0  0  0  0  0  0  0  0  0  0  0
  148.0544  142.9810  155.1834 H   0  0  0  0  0  0  0  0  0  0  0  0
  146.5498  141.3309  153.6152 H   0  0  0  0  0  0  0  0  0  0  0  0
  146.6285  139.2515  154.6865 H   0  0  0  0  0  0  0  0  0  0  0  0
  147.0671  139.9381  156.2454 H   0  0  0  0  0  0  0  0  0  0  0  0
  144.3771  139.2749  155.4143 H   0  0  0  0  0  0  0  0  0  0  0  0
  144.8820  140.0910  156.8974 H   0  0  0  0  0  0  0  0  0  0  0  0
  142.4378  141.2425  155.9961 H   0  0  0  0  0  0  0  0  0  0  0  0
  143.5019  142.1889  157.0245 H   0  0  0  0  0  0  0  0  0  0  0  0
  142.4158  142.9887  154.2701 H   0  0  0  0  0  0  0  0  0  0  0  0
  141.9885  143.7270  155.7936 H   0  0  0  0  0  0  0  0  0  0  0  0
  143.6594  145.0971  154.4762 H   0  0  0  0  0  0  0  0  0  0  0  0
  144.2539  144.6496  156.0572 H   0  0  0  0  0  0  0  0  0  0  0  0
  144.9752  143.2925  153.4096 H   0  0  0  0  0  0  0  0  0  0  0  0
  146.0411  144.2579  154.4075 H   0  0  0  0  0  0  0  0  0  0  0  0
  145.8201  142.6031  156.2768 H   0  0  0  0  0  0  0  0  0  0  0  0
  144.1574  141.2278  154.3337 H   0  0  0  0  0  0  0  0  0  0  0  0
  1  2  2  0  0  0  0
  2  3  1  0  0  0  0
  2 15  1  0  0  0  0
  3  4  1  0  0  0  0
  3 25  1  0  0  0  0
  3 26  1  0  0  0  0
  4 13  1  0  0  0  0
  4  5  1  0  0  0  0
  5  6  2  0  0  0  0
  5 27  1  0  0  0  0
  6  7  1  0  0  0  0
  6 11  1  0  0  0  0
  7  8  1  0  0  0  0
  7  9  1  0  0  0  0
  7 10  1  0  0  0  0
 11 12  2  0  0  0  0
 11 28  1  0  0  0  0
 12 13  1  0  0  0  0
 12 29  1  0  0  0  0
 13 14  2  0  0  0  0
 15 16  1  0  0  0  0
 15 30  1  0  0  0  0
 16 24  1  0  0  0  0
 16 17  1  0  0  0  0
 16 31  1  0  0  0  0
 17 18  1  0  0  0  0
 17 32  1  0  0  0  0
 17 33  1  0  0  0  0
 18 19  1  0  0  0  0
 18 34  1  0  0  0  0
 18 35  1  0  0  0  0
 19 24  1  0  0  0  0
 19 20  1  0  0  0  0
 19 45  1  0  0  0  0
 20 21  1  0  0  0  0
 20 36  1  0  0  0  0
 20 37  1  0  0  0  0
 21 22  1  0  0  0  0
 21 38  1  0  0  0  0
 21 39  1  0  0  0  0
 22 23  1  0  0  0  0
 22 40  1  0  0  0  0
 22 41  1  0  0  0  0
 23 24  1  0  0  0  0
 23 42  1  0  0  0  0
 23 43  1  0  0  0  0
 24 44  1  0  0  0  0
M  CHG  1  19   1
M  END
> <s_m_source_file>
AV-unprocessed.smi

> <i_m_source_file_index>
1976

> <i_lp_mmshare_version>
43012

> <i_f3d_flags>
0

> <s_epik_input>
W0NIMl0xW0NIMl1bQ0gyXVtDSDJdW0NASF0oTjEyKVtDQEBIXShbQ0gyXVtDSDJdMilbTkhdQyg9TylbQ0gyXW4zW2NIXWMoQyhGKShGKUYpW2NIXVtjSF1jMz1P

> <s_epik_cmdline>
J2VwaWtfcHl0aG9uJywgJy1waCcsICc3LjAnLCAnLXRuJywgJzgnLCAnLW1hJywgJzIwMCcsICctbWV0YWxfYmluZGluZycsICctaW1hZScsICc8aW5maWxlLm1hZT4nLCAnLW9tYWUnLCAnPG91dGZpbGUubWFlPic=

> <r_lp_tautomer_probability>
1

> <r_epik_Ionization_Penalty>
0.00171506

> <r_epik_Ionization_Penalty_Charging>
0.00171498

> <r_epik_Ionization_Penalty_Neutral>
7.81737e-08

> <r_epik_State_Penalty>
0.00115937

> <r_epik_Charging_Adjusted_Penalty>
0.00287436

> <i_epik_Tot_Q>
1

> <i_epik_Tot_abs_Q>
1

> <r_epik_Metal_State_Penalty>
-0

> <b_epik_Metal_Only>
0

> <s_lp_Force_Field>
OPLS_2005

> <r_lp_Energy>
46.2407

> <b_lp_Chiralities_Consistent>
1

> <s_lp_Variant>
AV-unprocessed.smi:1976-8

> <Gold.Version>
5.8.1

> <Gold.Id.Protein>
6NUR|6NUR_protein|mol2

> <Gold.PLP.Fitness>
51.6518

> <Gold.PLP.PLP>
-40.8187

> <Gold.PLP.part.hbond>
-2.0000

> <Gold.PLP.part.metal>
0.0000

> <Gold.PLP.part.buried>
-4.9641

> <Gold.PLP.part.nonpolar>
-34.6058

> <Gold.PLP.part.repulsive>
0.2304

> <Gold.PLP.ligand.clash>
0.0000

> <Gold.PLP.ligand.torsion>
0.6159

> <Gold.PLP.Chemscore.Hbond>
3.0000

> <Gold.PLP.Chemscore.CHOScore>
1.0000

> <Gold.PLP.Chemscore.Metal>
0.0000

> <Gold.Chemscore.Hbonds>
donor molecule, donor type, donor heavy atom, donor atom, acceptor molecule, acceptor atom, score
      L1  H    15    30       P1  8028  1.00
      L1  H    19    45       P1 10175  2.00
      L1  C     5    27       P1  8028  1.00

> <Gold.PLP.Chemscore.Internal.Correction>
0.0650

> <Gold.Rescore>
     Score         DG    S(hbond)    S(metal)    S(lipo)     H(rot)  DE(clash)    DE(int)     intcor
     10.40     -16.21       1.71        0.00      77.55       1.58       2.71       3.11       ----

> <Gold.Chemscore.Fitness>
10.3961

> <Gold.Chemscore.DG>
-16.2138

> <Gold.Chemscore.ZeroCoef>
-5.4800

> <Gold.Chemscore.Hbond>
1.7106

> <Gold.Chemscore.Metal>
0.0000

> <Gold.Chemscore.Lipo>
77.5450

> <Gold.Chemscore.Internal_Hbond>
0.0000

> <Gold.Chemscore.DEClash>
2.7126

> <Gold.Chemscore.DEInternal>
3.1051

> <Gold.Chemscore.Rot>
1.5830

> <Gold.Chemscore.Internal.Correction>
   9.000000E+99

> <Gold.Chemscore.Hbonds>
donor molecule, donor type, donor heavy atom, donor atom, acceptor molecule, acceptor atom, score
      L1  H    15    30       P1  8028  0.91
      L1  H    19    45       P1 10175  0.61

> <Gold.Chemscore.Hbond.Weighted>
-5.7134

> <Gold.Chemscore.Metal.Weighted>
-0.0000

> <Gold.Chemscore.Lipo.Weighted>
-9.0728

> <Gold.Chemscore.Internal_Hbond.Weighted>
0.0000

> <Gold.Chemscore.DEClash.Weighted>
2.7126

> <Gold.Chemscore.DEInternal.Weighted>
3.1051

> <Gold.Chemscore.Rot.Weighted>
4.0524

> <Gold.Chemscore.Internal.Correction.Weighted>
   9.000000E+99

> <Gold.Protein.RotatedTorsions>
[ 6907 6896 6895 6894 ] final   61.08 input  -60.11 | X-H torsion
[ 7974 7965 7964 7962 ] final -112.90 input  175.53 | X-H torsion
[ 8008 7997 7996 7995 ] final  175.08 input   59.86 | X-H torsion
[ 10167 10162 10161 10158 ] final  131.12 input  -65.29 | X-H torsion
[ 10718 10713 10712 10709 ] final  173.43 input   66.30 | X-H torsion
[ 10763 10752 10751 10750 ] final  144.40 input  -60.55 | X-H torsion
[ 11005 11000 10999 10996 ] final  -77.61 input  -57.11 | X-H torsion

> <Gold.Protein.ActiveResidues>
 VAL166  LYS551  ARG553  GLY616  TRP617  ASP618  TYR619  PRO620  LYS621  CYS622 
 ASP623  PHE694  ASN695  SER759  ASP760  ASP761  ALA762  ILE779  LEU786  VAL792 
 PHE793  MET794  SER795  GLU796  ALA797  LYS798  CYS799  TRP800  GLU811  SER814 

> <Gold.Protein.RotatedAtoms>
  152.4058  134.6209  160.0050 H   0  0  0  0  0  0  0  0  0  0  0  0  # atno 6907 bound_to 6896
  151.6400  133.3321  159.3136 H   0  0  0  0  0  0  0  0  0  0  0  0  # atno 6908 bound_to 6896
  150.7953  134.7050  159.6616 H   0  0  0  0  0  0  0  0  0  0  0  0  # atno 6909 bound_to 6896
  145.1385  140.8764  143.3716 H   0  0  0  0  0  0  0  0  0  0  0  0  # atno 7974 bound_to 7965
  156.0908  140.1418  156.9594 H   0  0  0  0  0  0  0  0  0  0  0  0  # atno 8008 bound_to 7997
  154.4641  140.0932  156.7019 H   0  0  0  0  0  0  0  0  0  0  0  0  # atno 8009 bound_to 7997
  155.4923  140.3448  155.4359 H   0  0  0  0  0  0  0  0  0  0  0  0  # atno 8010 bound_to 7997
  139.5398  144.6719  151.4662 H   0  0  0  0  0  0  0  0  0  0  0  0  # atno 10167 bound_to 10162
  156.9644  131.0070  151.2920 H   0  0  0  0  0  0  0  0  0  0  0  0  # atno 10718 bound_to 10713
  153.9883  135.2934  155.3414 H   0  0  0  0  0  0  0  0  0  0  0  0  # atno 10763 bound_to 10752
  154.7229  135.5101  153.8844 H   0  0  0  0  0  0  0  0  0  0  0  0  # atno 10764 bound_to 10752
  153.0822  135.6682  154.0138 H   0  0  0  0  0  0  0  0  0  0  0  0  # atno 10765 bound_to 10752
  141.1661  133.7029  156.7847 H   0  0  0  0  0  0  0  0  0  0  0  0  # atno 11005 bound_to 11000
  145.0558  139.3145  143.5905 LP  0  0  0  0  0  0  0  0  0  0  0  0  # atno 17320 bound_to 7965
  146.3507  139.9983  142.8679 LP  0  0  0  0  0  0  0  0  0  0  0  0  # atno 17321 bound_to 7965
  140.6623  143.8472  150.6902 LP  0  0  0  0  0  0  0  0  0  0  0  0  # atno 17342 bound_to 10162
  140.1871  143.4067  152.1891 LP  0  0  0  0  0  0  0  0  0  0  0  0  # atno 17343 bound_to 10162
  157.5636  130.8262  149.8298 LP  0  0  0  0  0  0  0  0  0  0  0  0  # atno 17370 bound_to 10713
  156.0309  130.3765  150.1691 LP  0  0  0  0  0  0  0  0  0  0  0  0  # atno 17371 bound_to 10713
  140.2369  134.8643  157.3534 LP  0  0  0  0  0  0  0  0  0  0  0  0  # atno 17394 bound_to 11000
  140.1835  134.4460  155.7758 LP  0  0  0  0  0  0  0  0  0  0  0  0  # atno 17395 bound_to 11000

$$$$
