AV-unprocessed.smi:1224|AV-procd|sdf|5128|dock6
  -GOLD-   22720 4183D 1   1.00000     0.00000
 Structure written by MMmdl.
 44 46  0  0  0  0  0  0  0  0  2 V2000
  152.6402  143.0988  160.2974 C   0  0  0  0  0  0  0  0  0  0  0  0
  152.0885  142.4648  159.0327 C   0  0  0  0  0  0  0  0  0  0  0  0
  152.6755  141.2738  158.5489 C   0  0  0  0  0  0  0  0  0  0  0  0
  152.1879  140.6491  157.3803 C   0  0  0  0  0  0  0  0  0  0  0  0
  152.6015  139.4948  156.7378 N   0  0  0  0  0  0  0  0  0  0  0  0
  151.7530  139.4374  155.7157 C   0  0  0  0  0  0  0  0  0  0  0  0
  150.8319  140.4163  155.6239 N   0  0  0  0  0  0  0  0  0  0  0  0
  149.7998  140.5587  154.6127 C   0  0  0  0  0  0  0  0  0  0  0  0
  149.0184  139.2499  154.3863 C   0  0  2  0  0  0  0  0  0  0  0  0
  149.8267  138.3421  153.6616 O   0  0  0  0  0  0  0  0  0  0  0  0
  147.7183  139.4821  153.6007 C   0  0  0  0  0  0  0  0  0  0  0  0
  147.2304  138.2237  152.9968 N   0  3  0  0  0  0  0  0  0  0  0  0
  146.0887  137.5970  153.6937 C   0  0  0  0  0  0  0  0  0  0  0  0
  145.3649  136.6164  152.8288 C   0  0  0  0  0  0  0  0  0  0  0  0
  144.2529  135.8772  153.1443 C   0  0  0  0  0  0  0  0  0  0  0  0
  143.8088  135.0481  152.0728 C   0  0  0  0  0  0  0  0  0  0  0  0
  144.5881  135.1655  150.9527 C   0  0  0  0  0  0  0  0  0  0  0  0
  145.8885  136.2991  151.1935 S   0  0  0  0  0  0  0  0  0  0  0  0
  151.0871  141.2526  156.7050 C   0  0  0  0  0  0  0  0  0  0  0  0
  150.4980  142.4403  157.1730 C   0  0  0  0  0  0  0  0  0  0  0  0
  150.9979  143.0516  158.3416 C   0  0  0  0  0  0  0  0  0  0  0  0
  150.3538  144.3329  158.8409 C   0  0  0  0  0  0  0  0  0  0  0  0
  153.5030  142.5490  160.6745 H   0  0  0  0  0  0  0  0  0  0  0  0
  151.8812  143.1090  161.0800 H   0  0  0  0  0  0  0  0  0  0  0  0
  152.9555  144.1248  160.1071 H   0  0  0  0  0  0  0  0  0  0  0  0
  153.5068  140.8273  159.0745 H   0  0  0  0  0  0  0  0  0  0  0  0
  151.7976  138.6322  154.9967 H   0  0  0  0  0  0  0  0  0  0  0  0
  149.1233  141.3543  154.9282 H   0  0  0  0  0  0  0  0  0  0  0  0
  150.2638  140.8929  153.6834 H   0  0  0  0  0  0  0  0  0  0  0  0
  148.7834  138.8025  155.3532 H   0  0  0  0  0  0  0  0  0  0  0  0
  149.6940  138.4931  152.7374 H   0  0  0  0  0  0  0  0  0  0  0  0
  146.9447  139.8652  154.2676 H   0  0  0  0  0  0  0  0  0  0  0  0
  147.8783  140.2383  152.8309 H   0  0  0  0  0  0  0  0  0  0  0  0
  146.9559  138.4150  152.0435 H   0  0  0  0  0  0  0  0  0  0  0  0
  146.4689  137.0866  154.5789 H   0  0  0  0  0  0  0  0  0  0  0  0
  145.4079  138.3714  154.0500 H   0  0  0  0  0  0  0  0  0  0  0  0
  143.7450  135.9035  154.0972 H   0  0  0  0  0  0  0  0  0  0  0  0
  142.9459  134.4043  152.1594 H   0  0  0  0  0  0  0  0  0  0  0  0
  144.4788  134.6573  150.0055 H   0  0  0  0  0  0  0  0  0  0  0  0
  149.6676  142.8763  156.6380 H   0  0  0  0  0  0  0  0  0  0  0  0
  149.5231  144.6360  158.2030 H   0  0  0  0  0  0  0  0  0  0  0  0
  151.0802  145.1457  158.8522 H   0  0  0  0  0  0  0  0  0  0  0  0
  149.9679  144.1986  159.8516 H   0  0  0  0  0  0  0  0  0  0  0  0
  147.9962  137.5654  152.9839 H   0  0  0  0  0  0  0  0  0  0  0  0
  1  2  1  0  0  0  0
  1 23  1  0  0  0  0
  1 24  1  0  0  0  0
  1 25  1  0  0  0  0
  2 21  1  0  0  0  0
  2  3  2  0  0  0  0
  3  4  1  0  0  0  0
  3 26  1  0  0  0  0
  4 19  2  0  0  0  0
  4  5  1  0  0  0  0
  5  6  2  0  0  0  0
  6  7  1  0  0  0  0
  6 27  1  0  0  0  0
  7  8  1  0  0  0  0
  7 19  1  0  0  0  0
  8  9  1  0  0  0  0
  8 28  1  0  0  0  0
  8 29  1  0  0  0  0
  9 10  1  0  0  0  0
  9 11  1  0  0  0  0
  9 30  1  0  0  0  0
 10 31  1  0  0  0  0
 11 12  1  0  0  0  0
 11 32  1  0  0  0  0
 11 33  1  0  0  0  0
 12 13  1  0  0  0  0
 12 34  1  0  0  0  0
 12 44  1  0  0  0  0
 13 14  1  0  0  0  0
 13 35  1  0  0  0  0
 13 36  1  0  0  0  0
 14 18  1  0  0  0  0
 14 15  2  0  0  0  0
 15 16  1  0  0  0  0
 15 37  1  0  0  0  0
 16 17  2  0  0  0  0
 16 38  1  0  0  0  0
 17 18  1  0  0  0  0
 17 39  1  0  0  0  0
 19 20  1  0  0  0  0
 20 21  2  0  0  0  0
 20 40  1  0  0  0  0
 21 22  1  0  0  0  0
 22 41  1  0  0  0  0
 22 42  1  0  0  0  0
 22 43  1  0  0  0  0
M  CHG  1  12   1
M  END
> <s_m_source_file>
AV-unprocessed.smi

> <i_m_source_file_index>
1224

> <i_lp_mmshare_version>
43012

> <i_f3d_flags>
0

> <s_epik_input>
W0NIM11jKFtjSF0xKWMoW0NIM10pW2NIXWMoYzEyKW4oW2NIXW4yKVtDSDJdW0NASF0oW09IXSlbQ0gyXVtOSF1bQ0gyXWMzW2NIXVtjSF1bY0hdczM=

> <s_epik_cmdline>
J2VwaWtfcHl0aG9uJywgJy1waCcsICc3LjAnLCAnLXRuJywgJzgnLCAnLW1hJywgJzIwMCcsICctbWV0YWxfYmluZGluZycsICctaW1hZScsICc8aW5maWxlLm1hZT4nLCAnLW9tYWUnLCAnPG91dGZpbGUubWFlPic=

> <r_epik_Ionization_Penalty>
0.145091

> <r_epik_Ionization_Penalty_Charging>
0.0551904

> <r_epik_Ionization_Penalty_Neutral>
0.0899003

> <r_epik_State_Penalty>
0.131364

> <r_epik_Charging_Adjusted_Penalty>
0.186554

> <i_epik_Tot_Q>
1

> <i_epik_Tot_abs_Q>
1

> <r_epik_Metal_State_Penalty>
0.0472291

> <b_epik_Metal_Only>
0

> <s_lp_Force_Field>
OPLS_2005

> <r_lp_Energy>
7.24279

> <b_lp_Chiralities_Consistent>
1

> <s_lp_Variant>
AV-unprocessed.smi:1224-1

> <Gold.Version>
5.8.1

> <Gold.Id.Protein>
6NUR|6NUR_protein|mol2

> <Gold.PLP.Fitness>
57.4238

> <Gold.PLP.PLP>
-43.9264

> <Gold.PLP.part.hbond>
-4.0000

> <Gold.PLP.part.metal>
0.0000

> <Gold.PLP.part.buried>
-1.6157

> <Gold.PLP.part.nonpolar>
-38.0797

> <Gold.PLP.part.repulsive>
0.0479

> <Gold.PLP.ligand.clash>
0.0000

> <Gold.PLP.ligand.torsion>
0.8044

> <Gold.PLP.Chemscore.Hbond>
4.0000

> <Gold.PLP.Chemscore.CHOScore>
1.0000

> <Gold.PLP.Chemscore.Metal>
0.0000

> <Gold.Chemscore.Hbonds>
donor molecule, donor type, donor heavy atom, donor atom, acceptor molecule, acceptor atom, score
      L1  H    10    31       P1  7957  0.55
      L1  H    12    44       P1  7948  1.76
      P1  H  7997  8010       L1     5  0.85
      L1  C    17    39       P1  7921  0.09

> <Gold.PLP.Chemscore.Internal.Correction>
0.1061

> <Gold.Rescore>
     Score         DG    S(hbond)    S(metal)    S(lipo)     H(rot)  DE(clash)    DE(int)     intcor
     17.98     -19.52       1.72        0.00     123.91       2.42       0.43       1.12       ----

> <Gold.Chemscore.Fitness>
17.9763

> <Gold.Chemscore.DG>
-19.5243

> <Gold.Chemscore.ZeroCoef>
-5.4800

> <Gold.Chemscore.Hbond>
1.7221

> <Gold.Chemscore.Metal>
0.0000

> <Gold.Chemscore.Lipo>
123.9137

> <Gold.Chemscore.Internal_Hbond>
0.0000

> <Gold.Chemscore.DEClash>
0.4275

> <Gold.Chemscore.DEInternal>
1.1204

> <Gold.Chemscore.Rot>
2.4240

> <Gold.Chemscore.Internal.Correction>
   9.000000E+99

> <Gold.Chemscore.Hbonds>
donor molecule, donor type, donor heavy atom, donor atom, acceptor molecule, acceptor atom, score
      L1  H    10    31       P1  7957  0.30
      L1  H    12    44       P1  7948  0.85
      P1  H  7997  8010       L1     5  0.11

> <Gold.Chemscore.Hbond.Weighted>
-5.7519

> <Gold.Chemscore.Metal.Weighted>
-0.0000

> <Gold.Chemscore.Lipo.Weighted>
-14.4979

> <Gold.Chemscore.Internal_Hbond.Weighted>
0.0000

> <Gold.Chemscore.DEClash.Weighted>
0.4275

> <Gold.Chemscore.DEInternal.Weighted>
1.1204

> <Gold.Chemscore.Rot.Weighted>
6.2055

> <Gold.Chemscore.Internal.Correction.Weighted>
   9.000000E+99

> <Gold.Protein.RotatedTorsions>
[ 6907 6896 6895 6894 ] final   63.99 input  -60.11 | X-H torsion
[ 7974 7965 7964 7962 ] final   58.45 input  175.53 | X-H torsion
[ 8008 7997 7996 7995 ] final   87.48 input   59.86 | X-H torsion
[ 10167 10162 10161 10158 ] final    9.40 input  -65.29 | X-H torsion
[ 10718 10713 10712 10709 ] final -103.93 input   66.30 | X-H torsion
[ 10763 10752 10751 10750 ] final  -79.18 input  -60.55 | X-H torsion
[ 11005 11000 10999 10996 ] final -173.81 input  -57.11 | X-H torsion

> <Gold.Protein.ActiveResidues>
 VAL166  LYS551  ARG553  GLY616  TRP617  ASP618  TYR619  PRO620  LYS621  CYS622 
 ASP623  PHE694  ASN695  SER759  ASP760  ASP761  ALA762  ILE779  LEU786  VAL792 
 PHE793  MET794  SER795  GLU796  ALA797  LYS798  CYS799  TRP800  GLU811  SER814 

> <Gold.Protein.RotatedAtoms>
  152.4296  134.5802  159.9945 H   0  0  0  0  0  0  0  0  0  0  0  0  # atno 6907 bound_to 6896
  151.5929  133.3359  159.3039 H   0  0  0  0  0  0  0  0  0  0  0  0  # atno 6908 bound_to 6896
  150.8188  134.7421  159.6819 H   0  0  0  0  0  0  0  0  0  0  0  0  # atno 6909 bound_to 6896
  145.9181  139.3707  143.0495 H   0  0  0  0  0  0  0  0  0  0  0  0  # atno 7974 bound_to 7965
  155.9759  140.3381  155.6618 H   0  0  0  0  0  0  0  0  0  0  0  0  # atno 8008 bound_to 7997
  155.6613  140.0716  157.2571 H   0  0  0  0  0  0  0  0  0  0  0  0  # atno 8009 bound_to 7997
  154.4178  140.1708  156.1767 H   0  0  0  0  0  0  0  0  0  0  0  0  # atno 8010 bound_to 7997
  140.6257  143.8106  150.7230 H   0  0  0  0  0  0  0  0  0  0  0  0  # atno 10167 bound_to 10162
  156.0284  130.5491  150.7323 H   0  0  0  0  0  0  0  0  0  0  0  0  # atno 10718 bound_to 10713
  154.5353  135.5704  153.6794 H   0  0  0  0  0  0  0  0  0  0  0  0  # atno 10763 bound_to 10752
  152.9949  135.6215  154.2574 H   0  0  0  0  0  0  0  0  0  0  0  0  # atno 10764 bound_to 10752
  154.2502  135.2859  155.2799 H   0  0  0  0  0  0  0  0  0  0  0  0  # atno 10765 bound_to 10752
  140.4815  134.6071  157.4921 H   0  0  0  0  0  0  0  0  0  0  0  0  # atno 11005 bound_to 11000
  145.8586  140.9488  143.0712 LP  0  0  0  0  0  0  0  0  0  0  0  0  # atno 17320 bound_to 7965
  144.6750  140.0500  143.7479 LP  0  0  0  0  0  0  0  0  0  0  0  0  # atno 17321 bound_to 7965
  140.1706  143.4197  152.2003 LP  0  0  0  0  0  0  0  0  0  0  0  0  # atno 17342 bound_to 10162
  139.5478  144.7313  151.4529 LP  0  0  0  0  0  0  0  0  0  0  0  0  # atno 17343 bound_to 10162
  157.4913  131.0911  151.0424 LP  0  0  0  0  0  0  0  0  0  0  0  0  # atno 17370 bound_to 10713
  157.0830  130.5911  149.5424 LP  0  0  0  0  0  0  0  0  0  0  0  0  # atno 17371 bound_to 10713
  139.9823  134.7117  155.9836 LP  0  0  0  0  0  0  0  0  0  0  0  0  # atno 17394 bound_to 11000
  141.1529  133.6546  156.4068 LP  0  0  0  0  0  0  0  0  0  0  0  0  # atno 17395 bound_to 11000

$$$$
