AV-unprocessed.smi:72|AV-procd|sdf|746|dock2
  -GOLD-   2262017 83D 1   1.00000     0.00000
 Structure written by MMmdl.
 29 30  0  0  0  0  0  0  0  0  1 V2000
  154.7112  137.6769  156.3242 N   0  0  0  0  0  0  0  0  0  0  0  0
  153.3582  137.8854  156.1583 C   0  0  0  0  0  0  0  0  0  0  0  0
  152.5352  136.7563  156.2707 N   0  0  0  0  0  0  0  0  0  0  0  0
  151.2646  136.9476  156.1068 C   0  0  0  0  0  0  0  0  0  0  0  0
  150.7300  138.2669  155.8214 N   0  0  0  0  0  0  0  0  0  0  0  0
  149.2425  138.4861  155.6312 C   0  0  1  0  0  0  0  0  0  0  0  0
  148.8604  139.6283  156.3391 O   0  0  0  0  0  0  0  0  0  0  0  0
  147.9579  140.3955  155.5512 C   0  0  1  0  0  0  0  0  0  0  0  0
  147.9089  141.8555  156.0352 C   0  0  0  0  0  0  0  0  0  0  0  0
  147.1864  142.6516  155.1202 O   0  0  0  0  0  0  0  0  0  0  0  0
  148.4210  140.1515  154.1073 C   0  0  1  0  0  0  0  0  0  0  0  0
  149.4933  141.0124  153.7613 O   0  0  0  0  0  0  0  0  0  0  0  0
  148.8390  138.6848  154.1532 C   0  0  1  0  0  0  0  0  0  0  0  0
  149.8246  138.3522  153.1905 O   0  0  0  0  0  0  0  0  0  0  0  0
  151.6217  139.3717  155.7373 C   0  0  0  0  0  0  0  0  0  0  0  0
  151.1903  140.5050  155.5250 O   0  0  0  0  0  0  0  0  0  0  0  0
  152.9855  139.1092  155.9147 N   0  0  0  0  0  0  0  0  0  0  0  0
  148.7415  137.6317  156.0878 H   0  0  0  0  0  0  0  0  0  0  0  0
  146.9712  139.9460  155.6791 H   0  0  0  0  0  0  0  0  0  0  0  0
  147.6132  140.3157  153.3931 H   0  0  0  0  0  0  0  0  0  0  0  0
  147.9625  138.0604  153.9761 H   0  0  0  0  0  0  0  0  0  0  0  0
  155.3985  138.4141  156.2655 H   0  0  0  0  0  0  0  0  0  0  0  0
  155.1146  136.7718  156.5172 H   0  0  0  0  0  0  0  0  0  0  0  0
  150.5270  136.1467  156.1728 H   0  0  0  0  0  0  0  0  0  0  0  0
  147.4082  141.9066  157.0024 H   0  0  0  0  0  0  0  0  0  0  0  0
  148.9083  142.2681  156.1754 H   0  0  0  0  0  0  0  0  0  0  0  0
  147.6701  143.4493  154.9690 H   0  0  0  0  0  0  0  0  0  0  0  0
  149.8619  140.7144  152.9436 H   0  0  0  0  0  0  0  0  0  0  0  0
  149.7051  138.9148  152.4404 H   0  0  0  0  0  0  0  0  0  0  0  0
  1  2  1  0  0  0  0
  1 22  1  0  0  0  0
  1 23  1  0  0  0  0
  2 17  2  0  0  0  0
  2  3  1  0  0  0  0
  3  4  2  0  0  0  0
  4  5  1  0  0  0  0
  4 24  1  0  0  0  0
  5  6  1  0  0  0  0
  5 15  1  0  0  0  0
  6 18  1  0  0  0  0
  6 13  1  0  0  0  0
  6  7  1  0  0  0  0
  7  8  1  0  0  0  0
  8 19  1  0  0  0  0
  8  9  1  0  0  0  0
  8 11  1  0  0  0  0
  9 10  1  0  0  0  0
  9 25  1  0  0  0  0
  9 26  1  0  0  0  0
 10 27  1  0  0  0  0
 11 20  1  0  0  0  0
 11 12  1  0  0  0  0
 11 13  1  0  0  0  0
 12 28  1  0  0  0  0
 13 21  1  0  0  0  0
 13 14  1  0  0  0  0
 14 29  1  0  0  0  0
 15 16  2  0  0  0  0
 15 17  1  0  0  0  0
M  END
> <s_m_source_file>
AV-unprocessed.smi

> <i_m_source_file_index>
72

> <i_lp_mmshare_version>
43012

> <i_f3d_flags>
0

> <s_epik_input>
W05IMl1jMW5bY0hdbihjKD1PKW4xKVtDQEBIXTJPW0NASF0oW0NIMl1bT0hdKVtDQEBIXShbT0hdKVtDQEhdMltPSF0=

> <s_epik_cmdline>
J2VwaWtfcHl0aG9uJywgJy1waCcsICc3LjAnLCAnLXRuJywgJzgnLCAnLW1hJywgJzIwMCcsICctbWV0YWxfYmluZGluZycsICctaW1hZScsICc8aW5maWxlLm1hZT4nLCAnLW9tYWUnLCAnPG91dGZpbGUubWFlPic=

> <r_lp_tautomer_probability>
4.77166e-05

> <r_epik_Ionization_Penalty>
1.3546

> <r_epik_Ionization_Penalty_Charging>
1.46833e-10

> <r_epik_Ionization_Penalty_Neutral>
1.3546

> <r_epik_State_Penalty>
3.51908

> <r_epik_Charging_Adjusted_Penalty>
3.51908

> <i_epik_Tot_Q>
0

> <i_epik_Tot_abs_Q>
0

> <r_epik_Metal_State_Penalty>
3.44088

> <b_epik_Metal_Only>
1

> <s_epik_Chemistry_Notes>
This compound contains an acetal/aminal-like group ( X-CH(R)-Y where X, Y are N, S, or O) that may be acid/base labile, releasing an aldehyde.

> <s_lp_Force_Field>
OPLS_2005

> <r_lp_Energy>
35.7585

> <b_lp_Chiralities_Consistent>
1

> <s_lp_Variant>
AV-unprocessed.smi:72-84

> <Gold.Version>
5.8.1

> <Gold.Id.Protein>
6NUR|6NUR_protein|mol2

> <Gold.PLP.Fitness>
35.0445

> <Gold.PLP.PLP>
-18.5862

> <Gold.PLP.part.hbond>
-9.4479

> <Gold.PLP.part.metal>
0.0000

> <Gold.PLP.part.buried>
0.5090

> <Gold.PLP.part.nonpolar>
-10.6262

> <Gold.PLP.part.repulsive>
1.7837

> <Gold.PLP.ligand.clash>
0.0155

> <Gold.PLP.ligand.torsion>
0.4527

> <Gold.PLP.Chemscore.Hbond>
5.7923

> <Gold.PLP.Chemscore.CHOScore>
0.0000

> <Gold.PLP.Chemscore.Metal>
0.0000

> <Gold.Chemscore.Hbonds>
donor molecule, donor type, donor heavy atom, donor atom, acceptor molecule, acceptor atom, score
      L1  H    10    27       P1  8028  0.98
      L1  H    12    28       P1  7957  1.00
      L1  H    14    29       P1  7957  1.00
      P1  H  7989  7998       L1    16  0.74
      P1  H  7997  8010       L1    17  1.00
      P1  H 10752 10763       L1     3  0.99

> <Gold.PLP.Chemscore.Internal.Correction>
0.0023

> <Gold.Rescore>
     Score         DG    S(hbond)    S(metal)    S(lipo)     H(rot)  DE(clash)    DE(int)     intcor
      4.49     -10.29       3.88        0.00      19.27       4.06       2.02       3.79       ----

> <Gold.Chemscore.Fitness>
4.4897

> <Gold.Chemscore.DG>
-10.2949

> <Gold.Chemscore.ZeroCoef>
-5.4800

> <Gold.Chemscore.Hbond>
3.8783

> <Gold.Chemscore.Metal>
0.0000

> <Gold.Chemscore.Lipo>
19.2735

> <Gold.Chemscore.Internal_Hbond>
0.0000

> <Gold.Chemscore.DEClash>
2.0154

> <Gold.Chemscore.DEInternal>
3.7898

> <Gold.Chemscore.Rot>
4.0600

> <Gold.Chemscore.Internal.Correction>
   9.000000E+99

> <Gold.Chemscore.Hbonds>
donor molecule, donor type, donor heavy atom, donor atom, acceptor molecule, acceptor atom, score
      L1  H    10    27       P1  8028  0.28
      L1  H    12    28       P1  7957  0.94
      L1  H    14    29       P1  7957  0.70
      P1  H  7989  7998       L1    16  0.36
      P1  H  7997  8010       L1    17  0.55
      P1  H 10752 10763       L1     3  0.46

> <Gold.Chemscore.Hbond.Weighted>
-12.9535

> <Gold.Chemscore.Metal.Weighted>
-0.0000

> <Gold.Chemscore.Lipo.Weighted>
-2.2550

> <Gold.Chemscore.Internal_Hbond.Weighted>
0.0000

> <Gold.Chemscore.DEClash.Weighted>
2.0154

> <Gold.Chemscore.DEInternal.Weighted>
3.7898

> <Gold.Chemscore.Rot.Weighted>
10.3936

> <Gold.Chemscore.Internal.Correction.Weighted>
   9.000000E+99

> <Gold.Protein.RotatedTorsions>
[ 6907 6896 6895 6894 ] final -153.19 input  -60.11 | X-H torsion
[ 7974 7965 7964 7962 ] final  170.46 input  175.53 | X-H torsion
[ 8008 7997 7996 7995 ] final   77.65 input   59.86 | X-H torsion
[ 10167 10162 10161 10158 ] final -149.72 input  -65.29 | X-H torsion
[ 10718 10713 10712 10709 ] final  -53.72 input   66.30 | X-H torsion
[ 10763 10752 10751 10750 ] final   98.20 input  -60.55 | X-H torsion
[ 11005 11000 10999 10996 ] final -123.21 input  -57.11 | X-H torsion

> <Gold.Protein.ActiveResidues>
 VAL166  LYS551  ARG553  GLY616  TRP617  ASP618  TYR619  PRO620  LYS621  CYS622 
 ASP623  PHE694  ASN695  SER759  ASP760  ASP761  ALA762  ILE779  LEU786  VAL792 
 PHE793  MET794  SER795  GLU796  ALA797  LYS798  CYS799  TRP800  GLU811  SER814 

> <Gold.Protein.RotatedAtoms>
  151.2389  133.4410  159.2606 H   0  0  0  0  0  0  0  0  0  0  0  0  # atno 6907 bound_to 6896
  151.0724  134.9807  159.8325 H   0  0  0  0  0  0  0  0  0  0  0  0  # atno 6908 bound_to 6896
  152.5414  134.2333  159.8886 H   0  0  0  0  0  0  0  0  0  0  0  0  # atno 6909 bound_to 6896
  144.7323  139.9206  143.6420 H   0  0  0  0  0  0  0  0  0  0  0  0  # atno 7974 bound_to 7965
  155.8446  140.3461  155.5654 H   0  0  0  0  0  0  0  0  0  0  0  0  # atno 8008 bound_to 7997
  155.8104  140.0898  157.1927 H   0  0  0  0  0  0  0  0  0  0  0  0  # atno 8009 bound_to 7997
  154.4006  140.1449  156.3367 H   0  0  0  0  0  0  0  0  0  0  0  0  # atno 8010 bound_to 7997
  139.7417  143.8651  152.2564 H   0  0  0  0  0  0  0  0  0  0  0  0  # atno 10167 bound_to 10162
  156.1511  130.4151  149.9944 H   0  0  0  0  0  0  0  0  0  0  0  0  # atno 10718 bound_to 10713
  153.2861  135.4156  155.1124 H   0  0  0  0  0  0  0  0  0  0  0  0  # atno 10763 bound_to 10752
  154.8505  135.3507  154.6045 H   0  0  0  0  0  0  0  0  0  0  0  0  # atno 10764 bound_to 10752
  153.6466  135.7054  153.5281 H   0  0  0  0  0  0  0  0  0  0  0  0  # atno 10765 bound_to 10752
  140.9936  134.0503  157.3624 H   0  0  0  0  0  0  0  0  0  0  0  0  # atno 11005 bound_to 11000
  146.0933  139.3923  143.0392 LP  0  0  0  0  0  0  0  0  0  0  0  0  # atno 17320 bound_to 7965
  145.7681  140.9908  143.1164 LP  0  0  0  0  0  0  0  0  0  0  0  0  # atno 17321 bound_to 7965
  139.8604  144.7120  150.9106 LP  0  0  0  0  0  0  0  0  0  0  0  0  # atno 17342 bound_to 10162
  140.7787  143.3822  151.1456 LP  0  0  0  0  0  0  0  0  0  0  0  0  # atno 17343 bound_to 10162
  156.7801  130.9218  151.3646 LP  0  0  0  0  0  0  0  0  0  0  0  0  # atno 17370 bound_to 10713
  157.6657  130.9006  149.9928 LP  0  0  0  0  0  0  0  0  0  0  0  0  # atno 17371 bound_to 10713
  139.9004  135.0162  156.7240 LP  0  0  0  0  0  0  0  0  0  0  0  0  # atno 17394 bound_to 11000
  140.7001  133.9314  155.8019 LP  0  0  0  0  0  0  0  0  0  0  0  0  # atno 17395 bound_to 11000

$$$$
