AV-unprocessed.smi:45|AV-procd|sdf|418|dock2
  -GOLD-   2262016293D 1   1.00000     0.00000
 Structure written by MMmdl.
 60 63  0  0  0  0  0  0  0  0  3 V2000
  152.8334  140.4261  159.2363 C   0  0  0  0  0  0  0  0  0  0  0  0
  153.3451  139.3631  158.4459 O   0  0  0  0  0  0  0  0  0  0  0  0
  152.4490  138.4835  157.8742 C   0  0  0  0  0  0  0  0  0  0  0  0
  151.0403  138.6239  157.9608 C   0  0  0  0  0  0  0  0  0  0  0  0
  150.1883  137.6841  157.3489 C   0  0  0  0  0  0  0  0  0  0  0  0
  150.7270  136.5919  156.6406 C   0  0  0  0  0  0  0  0  0  0  0  0
  149.8095  135.5816  155.9821 C   0  0  0  0  0  0  0  0  0  0  0  0
  150.3266  134.2227  156.0363 N   0  0  0  0  0  0  0  0  0  0  0  0
  149.7203  133.1795  155.3170 C   0  0  0  0  0  0  0  0  0  0  0  0
  148.6393  133.4756  154.5457 N   0  3  0  0  0  0  0  0  0  0  0  0
  148.0247  132.5244  153.8234 C   0  0  0  0  0  0  0  0  0  0  0  0
  146.9282  132.8863  153.0422 N   0  0  0  0  0  0  0  0  0  0  0  0
  146.3993  134.2458  153.0570 C   0  0  0  0  0  0  0  0  0  0  0  0
  145.8551  134.5005  151.6524 C   0  0  0  0  0  0  0  0  0  0  0  0
  145.4478  133.1083  151.1881 C   0  0  0  0  0  0  0  0  0  0  0  0
  146.5072  132.1948  151.8223 C   0  0  2  0  0  0  0  0  0  0  0  0
  145.9796  130.7678  152.0812 C   0  0  0  0  0  0  0  0  0  0  0  0
  146.9618  129.8184  151.7254 O   0  0  0  0  0  0  0  0  0  0  0  0
  148.4413  131.2525  153.8236 N   0  0  0  0  0  0  0  0  0  0  0  0
  149.5068  130.9071  154.5704 C   0  0  0  0  0  0  0  0  0  0  0  0
  150.2060  131.8468  155.3539 C   0  0  0  0  0  0  0  0  0  0  0  0
  151.3734  131.4193  156.2056 C   0  0  0  0  0  0  0  0  0  0  0  0
  151.3965  131.7680  157.3910 O   0  0  0  0  0  0  0  0  0  0  0  0
  152.2764  130.6908  155.4922 N   0  5  0  0  0  0  0  0  0  0  0  0
  153.6230  130.3656  155.9641 C   0  0  0  0  0  0  0  0  0  0  0  0
  154.6966  130.8267  154.9856 C   0  0  0  0  0  0  0  0  0  0  0  0
  155.6084  131.6913  155.4474 N   0  0  0  0  0  0  0  0  0  0  0  0
  156.5760  132.0797  154.5889 C   0  0  0  0  0  0  0  0  0  0  0  0
  156.6285  131.6016  153.2640 C   0  0  0  0  0  0  0  0  0  0  0  0
  155.6157  130.6964  152.8883 C   0  0  0  0  0  0  0  0  0  0  0  0
  154.6510  130.3100  153.7511 N   0  0  0  0  0  0  0  0  0  0  0  0
  152.1249  136.4444  156.5521 C   0  0  0  0  0  0  0  0  0  0  0  0
  152.9787  137.3827  157.1644 C   0  0  0  0  0  0  0  0  0  0  0  0
  154.6886  137.1729  157.0357 Cl  0  0  0  0  0  0  0  0  0  0  0  0
  147.3738  132.1484  151.1607 H   0  0  0  0  0  0  0  0  0  0  0  0
  153.6628  141.0298  159.6046 H   0  0  0  0  0  0  0  0  0  0  0  0
  152.2877  140.0523  160.1035 H   0  0  0  0  0  0  0  0  0  0  0  0
  152.1837  141.0801  158.6529 H   0  0  0  0  0  0  0  0  0  0  0  0
  150.5863  139.4459  158.4928 H   0  0  0  0  0  0  0  0  0  0  0  0
  149.1174  137.8039  157.4252 H   0  0  0  0  0  0  0  0  0  0  0  0
  148.8398  135.6170  156.4803 H   0  0  0  0  0  0  0  0  0  0  0  0
  149.6459  135.8644  154.9413 H   0  0  0  0  0  0  0  0  0  0  0  0
  151.1749  134.0428  156.5558 H   0  0  0  0  0  0  0  0  0  0  0  0
  145.5995  134.3004  153.7964 H   0  0  0  0  0  0  0  0  0  0  0  0
  147.1573  134.9844  153.3213 H   0  0  0  0  0  0  0  0  0  0  0  0
  145.0320  135.2154  151.6375 H   0  0  0  0  0  0  0  0  0  0  0  0
  146.6494  134.8846  151.0107 H   0  0  0  0  0  0  0  0  0  0  0  0
  144.4566  132.8739  151.5797 H   0  0  0  0  0  0  0  0  0  0  0  0
  145.4078  133.0179  150.1021 H   0  0  0  0  0  0  0  0  0  0  0  0
  145.7330  130.6118  153.1306 H   0  0  0  0  0  0  0  0  0  0  0  0
  145.0705  130.5781  151.5092 H   0  0  0  0  0  0  0  0  0  0  0  0
  147.7037  130.2754  151.3591 H   0  0  0  0  0  0  0  0  0  0  0  0
  149.7917  129.8651  154.5449 H   0  0  0  0  0  0  0  0  0  0  0  0
  153.8199  130.8374  156.9277 H   0  0  0  0  0  0  0  0  0  0  0  0
  153.7483  129.2973  156.1503 H   0  0  0  0  0  0  0  0  0  0  0  0
  157.3129  132.7756  154.9612 H   0  0  0  0  0  0  0  0  0  0  0  0
  157.4010  131.9107  152.5759 H   0  0  0  0  0  0  0  0  0  0  0  0
  155.5791  130.2810  151.8920 H   0  0  0  0  0  0  0  0  0  0  0  0
  152.5479  135.6084  156.0145 H   0  0  0  0  0  0  0  0  0  0  0  0
  148.3012  134.4367  154.5217 H   0  0  0  0  0  0  0  0  0  0  0  0
  1  2  1  0  0  0  0
  1 36  1  0  0  0  0
  1 37  1  0  0  0  0
  1 38  1  0  0  0  0
  2  3  1  0  0  0  0
  3 33  1  0  0  0  0
  3  4  2  0  0  0  0
  4  5  1  0  0  0  0
  4 39  1  0  0  0  0
  5  6  2  0  0  0  0
  5 40  1  0  0  0  0
  6  7  1  0  0  0  0
  6 32  1  0  0  0  0
  7  8  1  0  0  0  0
  7 41  1  0  0  0  0
  7 42  1  0  0  0  0
  8  9  1  0  0  0  0
  8 43  1  0  0  0  0
  9 21  1  0  0  0  0
  9 10  2  0  0  0  0
 10 11  1  0  0  0  0
 10 60  1  0  0  0  0
 11 12  1  0  0  0  0
 11 19  2  0  0  0  0
 12 16  1  0  0  0  0
 12 13  1  0  0  0  0
 13 14  1  0  0  0  0
 13 44  1  0  0  0  0
 13 45  1  0  0  0  0
 14 15  1  0  0  0  0
 14 46  1  0  0  0  0
 14 47  1  0  0  0  0
 15 16  1  0  0  0  0
 15 48  1  0  0  0  0
 15 49  1  0  0  0  0
 16 35  1  0  0  0  0
 16 17  1  0  0  0  0
 17 18  1  0  0  0  0
 17 50  1  0  0  0  0
 17 51  1  0  0  0  0
 18 52  1  0  0  0  0
 19 20  1  0  0  0  0
 20 21  2  0  0  0  0
 20 53  1  0  0  0  0
 21 22  1  0  0  0  0
 22 23  2  0  0  0  0
 22 24  1  0  0  0  0
 24 25  1  0  0  0  0
 25 26  1  0  0  0  0
 25 54  1  0  0  0  0
 25 55  1  0  0  0  0
 26 31  1  0  0  0  0
 26 27  2  0  0  0  0
 27 28  1  0  0  0  0
 28 29  2  0  0  0  0
 28 56  1  0  0  0  0
 29 30  1  0  0  0  0
 29 57  1  0  0  0  0
 30 31  2  0  0  0  0
 30 58  1  0  0  0  0
 32 33  2  0  0  0  0
 32 59  1  0  0  0  0
 33 34  1  0  0  0  0
M  CHG  1  10   1
M  CHG  1  24  -1
M  END
> <s_m_source_file>
AV-unprocessed.smi

> <i_m_source_file_index>
45

> <i_lp_mmshare_version>
43012

> <i_f3d_flags>
0

> <s_epik_input>
W0NIM11PYzFbY0hdW2NIXWMoW2NIXWMxQ2wpW0NIMl1bTkhdYzJuYyhOM1tDSDJdW0NIMl1bQ0gyXVtDQEhdM1tDSDJdW09IXSluW2NIXWMyQyg9TylbTkhdW0NIMl1jNG5bY0hdW2NIXVtjSF1uNA==

> <s_epik_cmdline>
J2VwaWtfcHl0aG9uJywgJy1waCcsICc3LjAnLCAnLXRuJywgJzgnLCAnLW1hJywgJzIwMCcsICctbWV0YWxfYmluZGluZycsICctaW1hZScsICc8aW5maWxlLm1hZT4nLCAnLW9tYWUnLCAnPG91dGZpbGUubWFlPic=

> <r_lp_tautomer_probability>
0.424989

> <r_epik_Ionization_Penalty>
7.51351

> <r_epik_Ionization_Penalty_Charging>
7.51312

> <r_epik_Ionization_Penalty_Neutral>
0.00038389

> <r_epik_State_Penalty>
8.64696

> <r_epik_Charging_Adjusted_Penalty>
16.1601

> <i_epik_Tot_Q>
0

> <i_epik_Tot_abs_Q>
2

> <r_epik_Metal_State_Penalty>
4.61083

> <b_epik_Metal_Only>
1

> <s_epik_Chemistry_Notes>
This compound contains an electron-poor aromatic ring that is susceptible to covalent hydrolysis at low pH, typically resulting in measured values for nitrogen ring protonation that are around two units higher than predicted values.

> <s_lp_Force_Field>
OPLS_2005

> <r_lp_Energy>
41.8384

> <b_lp_Chiralities_Consistent>
1

> <s_lp_Variant>
AV-unprocessed.smi:45-12

> <Gold.Version>
5.8.1

> <Gold.Id.Protein>
6NUR|6NUR_protein|mol2

> <Gold.PLP.Fitness>
50.9015

> <Gold.PLP.PLP>
-40.7233

> <Gold.PLP.part.hbond>
-3.0000

> <Gold.PLP.part.metal>
0.0000

> <Gold.PLP.part.buried>
-4.9353

> <Gold.PLP.part.nonpolar>
-33.2936

> <Gold.PLP.part.repulsive>
0.1987

> <Gold.PLP.ligand.clash>
0.0000

> <Gold.PLP.ligand.torsion>
2.0627

> <Gold.PLP.Chemscore.Hbond>
3.0000

> <Gold.PLP.Chemscore.CHOScore>
1.0000

> <Gold.PLP.Chemscore.Metal>
0.0000

> <Gold.Chemscore.Hbonds>
donor molecule, donor type, donor heavy atom, donor atom, acceptor molecule, acceptor atom, score
      L1  H    18    52       P1 10747  1.00
      P1  H  6896  6908       L1    23  0.06
      P1  H  7997  8009       L1     2  1.00
      L1  C    30    58       P1 10713  0.75

> <Gold.PLP.Chemscore.Internal.Correction>
2.3038

> <Gold.Rescore>
     Score         DG    S(hbond)    S(metal)    S(lipo)     H(rot)  DE(clash)    DE(int)     intcor
     14.86     -19.24       2.87        0.00      99.06       2.90       0.35       4.03       ----

> <Gold.Chemscore.Fitness>
14.8638

> <Gold.Chemscore.DG>
-19.2368

> <Gold.Chemscore.ZeroCoef>
-5.4800

> <Gold.Chemscore.Hbond>
2.8707

> <Gold.Chemscore.Metal>
0.0000

> <Gold.Chemscore.Lipo>
99.0571

> <Gold.Chemscore.Internal_Hbond>
0.0000

> <Gold.Chemscore.DEClash>
0.3450

> <Gold.Chemscore.DEInternal>
4.0279

> <Gold.Chemscore.Rot>
2.8988

> <Gold.Chemscore.Internal.Correction>
   9.000000E+99

> <Gold.Chemscore.Hbonds>
donor molecule, donor type, donor heavy atom, donor atom, acceptor molecule, acceptor atom, score
      L1  H    18    52       P1 10747  1.00
      P1  H  6896  6908       L1    23  0.11
      P1  H  7997  8009       L1     2  0.64

> <Gold.Chemscore.Hbond.Weighted>
-9.5880

> <Gold.Chemscore.Metal.Weighted>
-0.0000

> <Gold.Chemscore.Lipo.Weighted>
-11.5897

> <Gold.Chemscore.Internal_Hbond.Weighted>
0.0000

> <Gold.Chemscore.DEClash.Weighted>
0.3450

> <Gold.Chemscore.DEInternal.Weighted>
4.0279

> <Gold.Chemscore.Rot.Weighted>
7.4209

> <Gold.Chemscore.Internal.Correction.Weighted>
   9.000000E+99

> <Gold.Protein.RotatedTorsions>
[ 6907 6896 6895 6894 ] final   73.73 input  -60.11 | X-H torsion
[ 7974 7965 7964 7962 ] final  -34.16 input  175.53 | X-H torsion
[ 8008 7997 7996 7995 ] final  144.01 input   59.86 | X-H torsion
[ 10167 10162 10161 10158 ] final  157.58 input  -65.29 | X-H torsion
[ 10718 10713 10712 10709 ] final   -5.20 input   66.30 | X-H torsion
[ 10763 10752 10751 10750 ] final   67.26 input  -60.55 | X-H torsion
[ 11005 11000 10999 10996 ] final -171.67 input  -57.11 | X-H torsion

> <Gold.Protein.ActiveResidues>
 VAL166  LYS551  ARG553  GLY616  TRP617  ASP618  TYR619  PRO620  LYS621  CYS622 
 ASP623  PHE694  ASN695  SER759  ASP760  ASP761  ALA762  ILE779  LEU786  VAL792 
 PHE793  MET794  SER795  GLU796  ALA797  LYS798  CYS799  TRP800  GLU811  SER814 

> <Gold.Protein.RotatedAtoms>
  152.4939  134.4377  159.9533 H   0  0  0  0  0  0  0  0  0  0  0  0  # atno 6907 bound_to 6896
  151.4360  133.3651  159.2783 H   0  0  0  0  0  0  0  0  0  0  0  0  # atno 6908 bound_to 6896
  150.9121  134.8561  159.7492 H   0  0  0  0  0  0  0  0  0  0  0  0  # atno 6909 bound_to 6896
  146.0852  140.6005  142.8890 H   0  0  0  0  0  0  0  0  0  0  0  0  # atno 7974 bound_to 7965
  156.2917  140.2247  156.4984 H   0  0  0  0  0  0  0  0  0  0  0  0  # atno 8008 bound_to 7997
  154.7710  140.0466  157.1073 H   0  0  0  0  0  0  0  0  0  0  0  0  # atno 8009 bound_to 7997
  154.9873  140.3086  155.4924 H   0  0  0  0  0  0  0  0  0  0  0  0  # atno 8010 bound_to 7997
  139.4823  144.4904  151.8316 H   0  0  0  0  0  0  0  0  0  0  0  0  # atno 10167 bound_to 10162
  156.7501  130.5237  149.5806 H   0  0  0  0  0  0  0  0  0  0  0  0  # atno 10718 bound_to 10713
  153.0178  135.5290  154.6952 H   0  0  0  0  0  0  0  0  0  0  0  0  # atno 10763 bound_to 10752
  154.6076  135.2875  155.0470 H   0  0  0  0  0  0  0  0  0  0  0  0  # atno 10764 bound_to 10752
  154.1503  135.6564  153.5014 H   0  0  0  0  0  0  0  0  0  0  0  0  # atno 10765 bound_to 10752
  140.5056  134.5851  157.5002 H   0  0  0  0  0  0  0  0  0  0  0  0  # atno 11005 bound_to 11000
  144.7321  140.4701  143.6930 LP  0  0  0  0  0  0  0  0  0  0  0  0  # atno 17320 bound_to 7965
  145.6143  139.1517  143.3058 LP  0  0  0  0  0  0  0  0  0  0  0  0  # atno 17321 bound_to 7965
  140.4388  144.2015  150.5890 LP  0  0  0  0  0  0  0  0  0  0  0  0  # atno 17342 bound_to 10162
  140.4704  143.2415  151.9096 LP  0  0  0  0  0  0  0  0  0  0  0  0  # atno 17343 bound_to 10162
  156.1407  130.6242  151.0463 LP  0  0  0  0  0  0  0  0  0  0  0  0  # atno 17370 bound_to 10713
  157.6781  131.0845  150.7443 LP  0  0  0  0  0  0  0  0  0  0  0  0  # atno 17371 bound_to 10713
  139.9688  134.7328  156.0084 LP  0  0  0  0  0  0  0  0  0  0  0  0  # atno 17394 bound_to 11000
  141.1412  133.6564  156.3736 LP  0  0  0  0  0  0  0  0  0  0  0  0  # atno 17395 bound_to 11000

$$$$
