AV-unprocessed.smi:2433|AV-procd|sdf|9590|dock7
  -GOLD-   2272013223D 1   1.00000     0.00000
 Structure written by MMmdl.
 38 40  0  0  0  0  0  0  0  0  1 V2000
  151.3826  139.7769  155.1708 O   0  0  0  0  0  0  0  0  0  0  0  0
  150.9911  140.6642  155.9295 C   0  0  0  0  0  0  0  0  0  0  0  0
  151.8967  141.4114  156.8027 C   0  0  0  0  0  0  0  0  0  0  0  0
  151.4294  142.3835  157.6212 C   0  0  0  0  0  0  0  0  0  0  0  0
  152.3735  143.1599  158.5357 C   0  0  0  0  0  0  0  0  0  0  0  0
  151.8314  143.5001  159.9349 C   0  0  0  0  0  0  0  0  0  0  0  0
  151.5559  144.9312  159.4601 C   0  0  0  0  0  0  0  0  0  0  0  0
  152.4459  144.6663  158.2404 C   0  0  0  0  0  0  0  0  0  0  0  0
  150.0597  142.6764  157.6639 N   0  0  0  0  0  0  0  0  0  0  0  0
  149.2367  142.0291  156.9022 C   0  0  0  0  0  0  0  0  0  0  0  0
  149.6784  141.0274  156.0174 N   0  0  0  0  0  0  0  0  0  0  0  0
  148.6460  140.3865  155.1861 C   0  0  0  0  0  0  0  0  0  0  0  0
  148.0885  141.3324  154.0999 C   0  0  1  0  0  0  0  0  0  0  0  0
  147.7948  140.5741  152.9428 O   0  0  0  0  0  0  0  0  0  0  0  0
  146.8604  142.0725  154.6091 C   0  0  0  0  0  0  0  0  0  0  0  0
  146.1911  142.9851  153.7652 C   0  0  0  0  0  0  0  0  0  0  0  0
  145.0616  143.6864  154.2302 C   0  0  0  0  0  0  0  0  0  0  0  0
  144.5965  143.4822  155.5435 C   0  0  0  0  0  0  0  0  0  0  0  0
  143.5115  144.1571  155.9909 F   0  0  0  0  0  0  0  0  0  0  0  0
  145.2623  142.5773  156.3920 C   0  0  0  0  0  0  0  0  0  0  0  0
  146.3919  141.8759  155.9275 C   0  0  0  0  0  0  0  0  0  0  0  0
  152.9525  141.1831  156.7823 H   0  0  0  0  0  0  0  0  0  0  0  0
  153.3621  142.7003  158.5809 H   0  0  0  0  0  0  0  0  0  0  0  0
  150.9442  142.9460  160.2435 H   0  0  0  0  0  0  0  0  0  0  0  0
  152.6064  143.4607  160.7016 H   0  0  0  0  0  0  0  0  0  0  0  0
  150.5109  145.0950  159.1934 H   0  0  0  0  0  0  0  0  0  0  0  0
  151.9271  145.7081  160.1289 H   0  0  0  0  0  0  0  0  0  0  0  0
  153.4525  145.0687  158.3620 H   0  0  0  0  0  0  0  0  0  0  0  0
  152.0069  144.9716  157.2897 H   0  0  0  0  0  0  0  0  0  0  0  0
  148.1616  142.2163  156.9010 H   0  0  0  0  0  0  0  0  0  0  0  0
  148.9936  139.4533  154.7377 H   0  0  0  0  0  0  0  0  0  0  0  0
  147.8309  140.0809  155.8453 H   0  0  0  0  0  0  0  0  0  0  0  0
  148.8394  142.0736  153.8228 H   0  0  0  0  0  0  0  0  0  0  0  0
  148.6093  140.3407  152.5240 H   0  0  0  0  0  0  0  0  0  0  0  0
  146.5440  143.1535  152.7582 H   0  0  0  0  0  0  0  0  0  0  0  0
  144.5535  144.3829  153.5797 H   0  0  0  0  0  0  0  0  0  0  0  0
  144.9084  142.4226  157.4005 H   0  0  0  0  0  0  0  0  0  0  0  0
  146.8987  141.1889  156.5893 H   0  0  0  0  0  0  0  0  0  0  0  0
  1  2  2  0  0  0  0
  2 11  1  0  0  0  0
  2  3  1  0  0  0  0
  3  4  2  0  0  0  0
  3 22  1  0  0  0  0
  4  5  1  0  0  0  0
  4  9  1  0  0  0  0
  5  8  1  0  0  0  0
  5  6  1  0  0  0  0
  5 23  1  0  0  0  0
  6  7  1  0  0  0  0
  6 24  1  0  0  0  0
  6 25  1  0  0  0  0
  7  8  1  0  0  0  0
  7 26  1  0  0  0  0
  7 27  1  0  0  0  0
  8 28  1  0  0  0  0
  8 29  1  0  0  0  0
  9 10  2  0  0  0  0
 10 11  1  0  0  0  0
 10 30  1  0  0  0  0
 11 12  1  0  0  0  0
 12 13  1  0  0  0  0
 12 31  1  0  0  0  0
 12 32  1  0  0  0  0
 13 14  1  0  0  0  0
 13 15  1  0  0  0  0
 13 33  1  0  0  0  0
 14 34  1  0  0  0  0
 15 21  1  0  0  0  0
 15 16  2  0  0  0  0
 16 17  1  0  0  0  0
 16 35  1  0  0  0  0
 17 18  2  0  0  0  0
 17 36  1  0  0  0  0
 18 19  1  0  0  0  0
 18 20  1  0  0  0  0
 20 21  2  0  0  0  0
 20 37  1  0  0  0  0
 21 38  1  0  0  0  0
M  END
> <s_m_source_file>
AV-unprocessed.smi

> <i_m_source_file_index>
2433

> <i_lp_mmshare_version>
43012

> <i_f3d_flags>
0

> <s_epik_input>
W0NIMl0xW0NIMl1bQ0gyXVtDSF0xYyhbY0hdYzI9TyluW2NIXW4yW0NIMl1bQ0BIXShbT0hdKWMzW2NIXVtjSF1jKEYpW2NIXVtjSF0z

> <s_epik_cmdline>
J2VwaWtfcHl0aG9uJywgJy1waCcsICc3LjAnLCAnLXRuJywgJzgnLCAnLW1hJywgJzIwMCcsICctbWV0YWxfYmluZGluZycsICctaW1hZScsICc8aW5maWxlLm1hZT4nLCAnLW9tYWUnLCAnPG91dGZpbGUubWFlPic=

> <r_lp_tautomer_probability>
1

> <r_epik_Ionization_Penalty>
2.57762e-05

> <r_epik_Ionization_Penalty_Charging>
5.39435e-08

> <r_epik_Ionization_Penalty_Neutral>
2.57223e-05

> <r_epik_State_Penalty>
-0

> <r_epik_Charging_Adjusted_Penalty>
5.39435e-08

> <i_epik_Tot_Q>
0

> <i_epik_Tot_abs_Q>
0

> <r_epik_Metal_State_Penalty>
-0

> <b_epik_Metal_Only>
0

> <s_lp_Force_Field>
OPLS_2005

> <r_lp_Energy>
28.3662

> <b_lp_Chiralities_Consistent>
1

> <s_lp_Variant>
AV-unprocessed.smi:2433-2

> <Gold.Version>
5.8.1

> <Gold.Id.Protein>
6NUR|6NUR_protein|mol2

> <Gold.PLP.Fitness>
48.5439

> <Gold.PLP.PLP>
-43.8391

> <Gold.PLP.part.hbond>
-2.0000

> <Gold.PLP.part.metal>
0.0000

> <Gold.PLP.part.buried>
-6.0485

> <Gold.PLP.part.nonpolar>
-36.5526

> <Gold.PLP.part.repulsive>
0.2699

> <Gold.PLP.ligand.clash>
0.0000

> <Gold.PLP.ligand.torsion>
0.8771

> <Gold.PLP.Chemscore.Hbond>
2.0000

> <Gold.PLP.Chemscore.CHOScore>
0.0277

> <Gold.PLP.Chemscore.Metal>
0.0000

> <Gold.Chemscore.Hbonds>
donor molecule, donor type, donor heavy atom, donor atom, acceptor molecule, acceptor atom, score
      L1  H    14    34       P1  7957  1.00
      P1  H  7989  7998       L1     1  0.95
      L1  C    10    30       P1  8028  0.01

> <Gold.PLP.Chemscore.Internal.Correction>
0.3758

> <Gold.Rescore>
     Score         DG    S(hbond)    S(metal)    S(lipo)     H(rot)  DE(clash)    DE(int)     intcor
     13.97     -15.16       1.15        0.00      96.58       2.14       0.28       0.91       ----

> <Gold.Chemscore.Fitness>
13.9703

> <Gold.Chemscore.DG>
-15.1596

> <Gold.Chemscore.ZeroCoef>
-5.4800

> <Gold.Chemscore.Hbond>
1.1529

> <Gold.Chemscore.Metal>
0.0000

> <Gold.Chemscore.Lipo>
96.5783

> <Gold.Chemscore.Internal_Hbond>
0.0000

> <Gold.Chemscore.DEClash>
0.2790

> <Gold.Chemscore.DEInternal>
0.9103

> <Gold.Chemscore.Rot>
2.1370

> <Gold.Chemscore.Internal.Correction>
   9.000000E+99

> <Gold.Chemscore.Hbonds>
donor molecule, donor type, donor heavy atom, donor atom, acceptor molecule, acceptor atom, score
      L1  H    14    34       P1  7957  0.97
      P1  H  7989  7998       L1     1  0.20

> <Gold.Chemscore.Hbond.Weighted>
-3.8507

> <Gold.Chemscore.Metal.Weighted>
-0.0000

> <Gold.Chemscore.Lipo.Weighted>
-11.2997

> <Gold.Chemscore.Internal_Hbond.Weighted>
0.0000

> <Gold.Chemscore.DEClash.Weighted>
0.2790

> <Gold.Chemscore.DEInternal.Weighted>
0.9103

> <Gold.Chemscore.Rot.Weighted>
5.4707

> <Gold.Chemscore.Internal.Correction.Weighted>
   9.000000E+99

> <Gold.Protein.RotatedTorsions>
[ 6907 6896 6895 6894 ] final  169.09 input  -60.11 | X-H torsion
[ 7974 7965 7964 7962 ] final    4.84 input  175.53 | X-H torsion
[ 8008 7997 7996 7995 ] final  -64.10 input   59.86 | X-H torsion
[ 10167 10162 10161 10158 ] final -145.80 input  -65.29 | X-H torsion
[ 10718 10713 10712 10709 ] final  166.76 input   66.30 | X-H torsion
[ 10763 10752 10751 10750 ] final  -56.25 input  -60.55 | X-H torsion
[ 11005 11000 10999 10996 ] final  133.86 input  -57.11 | X-H torsion

> <Gold.Protein.ActiveResidues>
 VAL166  LYS551  ARG553  GLY616  TRP617  ASP618  TYR619  PRO620  LYS621  CYS622 
 ASP623  PHE694  ASN695  SER759  ASP760  ASP761  ALA762  ILE779  LEU786  VAL792 
 PHE793  MET794  SER795  GLU796  ALA797  LYS798  CYS799  TRP800  GLU811  SER814 

> <Gold.Protein.RotatedAtoms>
  151.8374  133.3418  159.3632 H   0  0  0  0  0  0  0  0  0  0  0  0  # atno 6907 bound_to 6896
  150.7245  134.5424  159.5763 H   0  0  0  0  0  0  0  0  0  0  0  0  # atno 6908 bound_to 6896
  152.2890  134.7743  160.0432 H   0  0  0  0  0  0  0  0  0  0  0  0  # atno 6909 bound_to 6896
  146.2443  140.0474  142.8377 H   0  0  0  0  0  0  0  0  0  0  0  0  # atno 7974 bound_to 7965
  154.4592  140.0961  156.6845 H   0  0  0  0  0  0  0  0  0  0  0  0  # atno 8008 bound_to 7997
  155.5045  140.3474  155.4359 H   0  0  0  0  0  0  0  0  0  0  0  0  # atno 8009 bound_to 7997
  156.0837  140.1379  156.9668 H   0  0  0  0  0  0  0  0  0  0  0  0  # atno 8010 bound_to 7997
  139.7772  143.8152  152.2633 H   0  0  0  0  0  0  0  0  0  0  0  0  # atno 10167 bound_to 10162
  157.0613  131.0340  151.2646 H   0  0  0  0  0  0  0  0  0  0  0  0  # atno 10718 bound_to 10713
  154.2038  135.6406  153.5095 H   0  0  0  0  0  0  0  0  0  0  0  0  # atno 10763 bound_to 10752
  153.0006  135.5457  154.6288 H   0  0  0  0  0  0  0  0  0  0  0  0  # atno 10764 bound_to 10752
  154.5707  135.2916  155.0803 H   0  0  0  0  0  0  0  0  0  0  0  0  # atno 10765 bound_to 10752
  139.9878  134.9526  156.9784 H   0  0  0  0  0  0  0  0  0  0  0  0  # atno 11005 bound_to 11000
  145.1015  140.9348  143.4710 LP  0  0  0  0  0  0  0  0  0  0  0  0  # atno 17320 bound_to 7965
  145.0668  139.3062  143.5852 LP  0  0  0  0  0  0  0  0  0  0  0  0  # atno 17321 bound_to 7965
  139.8204  144.7298  150.9580 LP  0  0  0  0  0  0  0  0  0  0  0  0  # atno 17342 bound_to 10162
  140.7817  143.4164  151.0910 LP  0  0  0  0  0  0  0  0  0  0  0  0  # atno 17343 bound_to 10162
  157.4952  130.7846  149.7548 LP  0  0  0  0  0  0  0  0  0  0  0  0  # atno 17370 bound_to 10713
  155.9978  130.3898  150.2728 LP  0  0  0  0  0  0  0  0  0  0  0  0  # atno 17371 bound_to 10713
  140.4968  134.1137  155.7243 LP  0  0  0  0  0  0  0  0  0  0  0  0  # atno 17394 bound_to 11000
  141.1540  133.8917  157.2026 LP  0  0  0  0  0  0  0  0  0  0  0  0  # atno 17395 bound_to 11000

$$$$
