AV-unprocessed.smi:1714|AV-procd|sdf|6907|dock6
  -GOLD-   22720 8113D 1   1.00000     0.00000
 Structure written by MMmdl.
 45 46  0  0  0  0  0  0  0  0  1 V2000
  147.7539  133.0661  152.4731 C   0  0  0  0  0  0  0  0  0  0  0  0
  146.4013  133.0428  151.7793 C   0  0  0  0  0  0  0  0  0  0  0  0
  145.8778  131.8129  151.3271 C   0  0  0  0  0  0  0  0  0  0  0  0
  144.6277  131.7944  150.6853 C   0  0  0  0  0  0  0  0  0  0  0  0
  143.9502  133.0149  150.5213 C   0  0  0  0  0  0  0  0  0  0  0  0
  144.4436  134.1948  150.9495 N   0  0  0  0  0  0  0  0  0  0  0  0
  145.6488  134.2297  151.5711 C   0  0  0  0  0  0  0  0  0  0  0  0
  146.2303  135.4357  152.0527 N   0  0  0  0  0  0  0  0  0  0  0  0
  145.6160  136.5202  152.5564 C   0  0  0  0  0  0  0  0  0  0  0  0
  144.3992  136.6631  152.6789 O   0  0  0  0  0  0  0  0  0  0  0  0
  146.5069  137.4535  152.9123 N   0  0  0  0  0  0  0  0  0  0  0  0
  146.1661  138.7590  153.4678 C   0  0  0  0  0  0  0  0  0  0  0  0
  146.6047  138.8940  154.9537 C   0  0  0  0  0  0  0  0  0  0  0  0
  145.6521  139.9152  155.6206 C   0  0  0  0  0  0  0  0  0  0  0  0
  146.3364  137.5162  155.6115 C   0  0  0  0  0  0  0  0  0  0  0  0
  148.0418  139.2717  155.0699 N   0  0  0  0  0  0  0  0  0  0  0  0
  148.9711  138.3831  154.3621 C   0  0  0  0  0  0  0  0  0  0  0  0
  150.4408  138.7559  154.6206 C   0  0  0  0  0  0  0  0  0  0  0  0
  150.6640  140.1106  154.2501 O   0  0  0  0  0  0  0  0  0  0  0  0
  149.8240  141.0121  154.9602 C   0  0  0  0  0  0  0  0  0  0  0  0
  148.3491  140.6592  154.7038 C   0  0  0  0  0  0  0  0  0  0  0  0
  148.1810  132.0653  152.5456 H   0  0  0  0  0  0  0  0  0  0  0  0
  147.6585  133.4636  153.4840 H   0  0  0  0  0  0  0  0  0  0  0  0
  148.4554  133.6907  151.9193 H   0  0  0  0  0  0  0  0  0  0  0  0
  146.4258  130.8928  151.4689 H   0  0  0  0  0  0  0  0  0  0  0  0
  144.1996  130.8695  150.3281 H   0  0  0  0  0  0  0  0  0  0  0  0
  142.9868  133.0460  150.0342 H   0  0  0  0  0  0  0  0  0  0  0  0
  147.2374  135.4759  152.0073 H   0  0  0  0  0  0  0  0  0  0  0  0
  147.4887  137.2611  152.7754 H   0  0  0  0  0  0  0  0  0  0  0  0
  146.6145  139.5379  152.8501 H   0  0  0  0  0  0  0  0  0  0  0  0
  145.0882  138.9070  153.3781 H   0  0  0  0  0  0  0  0  0  0  0  0
  144.6129  139.5974  155.5274 H   0  0  0  0  0  0  0  0  0  0  0  0
  145.7197  140.9012  155.1610 H   0  0  0  0  0  0  0  0  0  0  0  0
  145.8501  140.0312  156.6860 H   0  0  0  0  0  0  0  0  0  0  0  0
  145.3321  137.1544  155.3876 H   0  0  0  0  0  0  0  0  0  0  0  0
  146.4068  137.5570  156.6983 H   0  0  0  0  0  0  0  0  0  0  0  0
  147.0395  136.7588  155.2630 H   0  0  0  0  0  0  0  0  0  0  0  0
  148.8333  137.3489  154.6715 H   0  0  0  0  0  0  0  0  0  0  0  0
  148.7843  138.4207  153.2888 H   0  0  0  0  0  0  0  0  0  0  0  0
  150.6970  138.6107  155.6714 H   0  0  0  0  0  0  0  0  0  0  0  0
  151.1017  138.1143  154.0379 H   0  0  0  0  0  0  0  0  0  0  0  0
  150.0509  140.9697  156.0267 H   0  0  0  0  0  0  0  0  0  0  0  0
  150.0329  142.0293  154.6288 H   0  0  0  0  0  0  0  0  0  0  0  0
  148.1248  140.8305  153.6510 H   0  0  0  0  0  0  0  0  0  0  0  0
  147.7399  141.3565  155.2759 H   0  0  0  0  0  0  0  0  0  0  0  0
  1  2  1  0  0  0  0
  1 22  1  0  0  0  0
  1 23  1  0  0  0  0
  1 24  1  0  0  0  0
  2  7  1  0  0  0  0
  2  3  2  0  0  0  0
  3  4  1  0  0  0  0
  3 25  1  0  0  0  0
  4  5  2  0  0  0  0
  4 26  1  0  0  0  0
  5  6  1  0  0  0  0
  5 27  1  0  0  0  0
  6  7  2  0  0  0  0
  7  8  1  0  0  0  0
  8  9  1  0  0  0  0
  8 28  1  0  0  0  0
  9 10  2  0  0  0  0
  9 11  1  0  0  0  0
 11 12  1  0  0  0  0
 11 29  1  0  0  0  0
 12 13  1  0  0  0  0
 12 30  1  0  0  0  0
 12 31  1  0  0  0  0
 13 14  1  0  0  0  0
 13 15  1  0  0  0  0
 13 16  1  0  0  0  0
 14 32  1  0  0  0  0
 14 33  1  0  0  0  0
 14 34  1  0  0  0  0
 15 35  1  0  0  0  0
 15 36  1  0  0  0  0
 15 37  1  0  0  0  0
 16 21  1  0  0  0  0
 16 17  1  0  0  0  0
 17 18  1  0  0  0  0
 17 38  1  0  0  0  0
 17 39  1  0  0  0  0
 18 19  1  0  0  0  0
 18 40  1  0  0  0  0
 18 41  1  0  0  0  0
 19 20  1  0  0  0  0
 20 21  1  0  0  0  0
 20 42  1  0  0  0  0
 20 43  1  0  0  0  0
 21 44  1  0  0  0  0
 21 45  1  0  0  0  0
M  END
> <s_m_source_file>
AV-unprocessed.smi

> <i_m_source_file_index>
1714

> <i_lp_mmshare_version>
43012

> <i_f3d_flags>
0

> <s_epik_input>
W0NIM11jMVtjSF1bY0hdW2NIXW5jMVtOSF1DKD1PKVtOSF1bQ0gyXUMoW0NIM10pKFtDSDNdKU4yW0NIMl1bQ0gyXU9bQ0gyXVtDSDJdMg==

> <s_epik_cmdline>
J2VwaWtfcHl0aG9uJywgJy1waCcsICc3LjAnLCAnLXRuJywgJzgnLCAnLW1hJywgJzIwMCcsICctbWV0YWxfYmluZGluZycsICctaW1hZScsICc8aW5maWxlLm1hZT4nLCAnLW9tYWUnLCAnPG91dGZpbGUubWFlPic=

> <r_epik_Ionization_Penalty>
0.26605

> <r_epik_Ionization_Penalty_Charging>
0

> <r_epik_Ionization_Penalty_Neutral>
0.26605

> <r_epik_State_Penalty>
0.257924

> <r_epik_Charging_Adjusted_Penalty>
0.257924

> <i_epik_Tot_Q>
0

> <i_epik_Tot_abs_Q>
0

> <r_epik_Metal_State_Penalty>
0.257922

> <b_epik_Metal_Only>
0

> <s_lp_Force_Field>
OPLS_2005

> <r_lp_Energy>
43.6145

> <b_lp_Chiralities_Consistent>
1

> <s_lp_Variant>
AV-unprocessed.smi:1714-1

> <Gold.Version>
5.8.1

> <Gold.Id.Protein>
6NUR|6NUR_protein|mol2

> <Gold.PLP.Fitness>
40.3309

> <Gold.PLP.PLP>
-31.5209

> <Gold.PLP.part.hbond>
-3.0000

> <Gold.PLP.part.metal>
0.0000

> <Gold.PLP.part.buried>
-5.4444

> <Gold.PLP.part.nonpolar>
-25.3766

> <Gold.PLP.part.repulsive>
0.6562

> <Gold.PLP.ligand.clash>
1.6122

> <Gold.PLP.ligand.torsion>
0.7627

> <Gold.PLP.Chemscore.Hbond>
2.9600

> <Gold.PLP.Chemscore.CHOScore>
1.0000

> <Gold.PLP.Chemscore.Metal>
0.0000

> <Gold.Chemscore.Hbonds>
donor molecule, donor type, donor heavy atom, donor atom, acceptor molecule, acceptor atom, score
      L1  H     8    28       P1  7948  1.00
      L1  H    11    29       P1  7948  1.00
      P1  H  7989  7998       L1    19  0.76
      L1  C     5    27       P1 10186  1.00

> <Gold.PLP.Chemscore.Internal.Correction>
0.0676

> <Gold.Rescore>
     Score         DG    S(hbond)    S(metal)    S(lipo)     H(rot)  DE(clash)    DE(int)     intcor
     17.70     -19.85       2.90        0.00      71.59       1.45       0.13       2.01       ----

> <Gold.Chemscore.Fitness>
17.7011

> <Gold.Chemscore.DG>
-19.8461

> <Gold.Chemscore.ZeroCoef>
-5.4800

> <Gold.Chemscore.Hbond>
2.9048

> <Gold.Chemscore.Metal>
0.0000

> <Gold.Chemscore.Lipo>
71.5858

> <Gold.Chemscore.Internal_Hbond>
0.0000

> <Gold.Chemscore.DEClash>
0.1334

> <Gold.Chemscore.DEInternal>
2.0116

> <Gold.Chemscore.Rot>
1.4498

> <Gold.Chemscore.Internal.Correction>
   9.000000E+99

> <Gold.Chemscore.Hbonds>
donor molecule, donor type, donor heavy atom, donor atom, acceptor molecule, acceptor atom, score
      L1  H     8    28       P1  7948  0.99
      L1  H    11    29       P1  7948  0.91
      P1  H  7989  7998       L1    19  0.54

> <Gold.Chemscore.Hbond.Weighted>
-9.7021

> <Gold.Chemscore.Metal.Weighted>
-0.0000

> <Gold.Chemscore.Lipo.Weighted>
-8.3755

> <Gold.Chemscore.Internal_Hbond.Weighted>
0.0000

> <Gold.Chemscore.DEClash.Weighted>
0.1334

> <Gold.Chemscore.DEInternal.Weighted>
2.0116

> <Gold.Chemscore.Rot.Weighted>
3.7116

> <Gold.Chemscore.Internal.Correction.Weighted>
   9.000000E+99

> <Gold.Protein.RotatedTorsions>
[ 6907 6896 6895 6894 ] final -151.67 input  -60.11 | X-H torsion
[ 7974 7965 7964 7962 ] final  161.02 input  175.53 | X-H torsion
[ 8008 7997 7996 7995 ] final  -73.52 input   59.86 | X-H torsion
[ 10167 10162 10161 10158 ] final  -47.56 input  -65.29 | X-H torsion
[ 10718 10713 10712 10709 ] final   61.51 input   66.30 | X-H torsion
[ 10763 10752 10751 10750 ] final   56.69 input  -60.55 | X-H torsion
[ 11005 11000 10999 10996 ] final -137.37 input  -57.11 | X-H torsion

> <Gold.Protein.ActiveResidues>
 VAL166  LYS551  ARG553  GLY616  TRP617  ASP618  TYR619  PRO620  LYS621  CYS622 
 ASP623  PHE694  ASN695  SER759  ASP760  ASP761  ALA762  ILE779  LEU786  VAL792 
 PHE793  MET794  SER795  GLU796  ALA797  LYS798  CYS799  TRP800  GLU811  SER814 

> <Gold.Protein.RotatedAtoms>
  151.2165  133.4526  159.2599 H   0  0  0  0  0  0  0  0  0  0  0  0  # atno 6907 bound_to 6896
  151.0926  134.9925  159.8420 H   0  0  0  0  0  0  0  0  0  0  0  0  # atno 6908 bound_to 6896
  152.5436  134.2097  159.8798 H   0  0  0  0  0  0  0  0  0  0  0  0  # atno 6909 bound_to 6896
  144.7707  139.7839  143.6298 H   0  0  0  0  0  0  0  0  0  0  0  0  # atno 7974 bound_to 7965
  154.5254  140.0778  156.8248 H   0  0  0  0  0  0  0  0  0  0  0  0  # atno 8008 bound_to 7997
  155.3487  140.3411  155.4221 H   0  0  0  0  0  0  0  0  0  0  0  0  # atno 8009 bound_to 7997
  156.1726  140.1625  156.8407 H   0  0  0  0  0  0  0  0  0  0  0  0  # atno 8010 bound_to 7997
  140.6770  143.2779  151.3944 H   0  0  0  0  0  0  0  0  0  0  0  0  # atno 10167 bound_to 10162
  157.5833  130.8999  149.9470 H   0  0  0  0  0  0  0  0  0  0  0  0  # atno 10718 bound_to 10713
  152.9836  135.5667  154.5269 H   0  0  0  0  0  0  0  0  0  0  0  0  # atno 10763 bound_to 10752
  154.4748  135.2786  155.1618 H   0  0  0  0  0  0  0  0  0  0  0  0  # atno 10764 bound_to 10752
  154.3151  135.6280  153.5536 H   0  0  0  0  0  0  0  0  0  0  0  0  # atno 10765 bound_to 10752
  140.8717  134.2043  157.4647 H   0  0  0  0  0  0  0  0  0  0  0  0  # atno 11005 bound_to 11000
  146.1851  139.5062  142.9841 LP  0  0  0  0  0  0  0  0  0  0  0  0  # atno 17320 bound_to 7965
  145.6333  141.0299  143.1851 LP  0  0  0  0  0  0  0  0  0  0  0  0  # atno 17321 bound_to 7965
  139.6068  144.1181  152.2257 LP  0  0  0  0  0  0  0  0  0  0  0  0  # atno 17342 bound_to 10162
  140.0582  144.5878  150.7283 LP  0  0  0  0  0  0  0  0  0  0  0  0  # atno 17343 bound_to 10162
  156.0880  130.3666  150.0449 LP  0  0  0  0  0  0  0  0  0  0  0  0  # atno 17370 bound_to 10713
  156.8585  130.9483  151.3620 LP  0  0  0  0  0  0  0  0  0  0  0  0  # atno 17371 bound_to 10713
  139.8712  134.9777  156.4969 LP  0  0  0  0  0  0  0  0  0  0  0  0  # atno 17394 bound_to 11000
  140.8565  133.8092  155.9222 LP  0  0  0  0  0  0  0  0  0  0  0  0  # atno 17395 bound_to 11000

$$$$
