AV-unprocessed.smi:133|AV-procd|sdf|1165|dock2
  -GOLD-   2262018303D 1   1.00000     0.00000
 Structure written by MMmdl.
 47 50  0  0  0  0  0  0  0  0  1 V2000
  152.1433  137.5412  158.1677 O   0  0  0  0  0  0  0  0  0  0  0  0
  151.1572  137.9398  157.5466 C   0  0  0  0  0  0  0  0  0  0  0  0
  150.2801  136.9551  156.7567 C   0  0  0  0  0  0  0  0  0  0  0  0
  148.9332  136.7591  157.3374 N   0  0  0  0  0  0  0  0  0  0  0  0
  147.8104  136.7901  156.4731 C   0  0  0  0  0  0  0  0  0  0  0  0
  147.9393  136.9954  155.2653 O   0  0  0  0  0  0  0  0  0  0  0  0
  146.5196  136.5531  157.1091 C   0  0  0  0  0  0  0  0  0  0  0  0
  145.4010  136.5488  156.3646 F   0  0  0  0  0  0  0  0  0  0  0  0
  146.4302  136.3324  158.4366 C   0  0  0  0  0  0  0  0  0  0  0  0
  147.5297  136.3263  159.2719 N   0  0  0  0  0  0  0  0  0  0  0  0
  147.3398  136.0202  160.7396 C   0  0  2  0  0  0  0  0  0  0  0  0
  145.9117  135.5652  161.0954 C   0  0  0  0  0  0  0  0  0  0  0  0
  145.4771  136.5883  162.1323 C   0  0  0  0  0  0  0  0  0  0  0  0
  146.8041  137.1432  162.6390 C   0  0  0  0  0  0  0  0  0  0  0  0
  147.6128  137.1738  161.4734 O   0  0  0  0  0  0  0  0  0  0  0  0
  148.8215  136.5103  158.7266 C   0  0  0  0  0  0  0  0  0  0  0  0
  149.8256  136.4487  159.4379 O   0  0  0  0  0  0  0  0  0  0  0  0
  150.7721  139.2267  157.4739 N   0  0  0  0  0  0  0  0  0  0  0  0
  151.3618  140.3648  158.0870 C   0  0  0  0  0  0  0  0  0  0  0  0
  152.1967  140.2878  159.2370 C   0  0  0  0  0  0  0  0  0  0  0  0
  152.7377  141.4572  159.8155 C   0  0  0  0  0  0  0  0  0  0  0  0
  152.4229  142.6966  159.2340 C   0  0  0  0  0  0  0  0  0  0  0  0
  151.5968  142.7796  158.1210 C   0  0  0  0  0  0  0  0  0  0  0  0
  151.0483  141.6274  157.5319 C   0  0  0  0  0  0  0  0  0  0  0  0
  151.3969  144.2053  157.6847 C   0  0  0  0  0  0  0  0  0  0  0  0
  152.3845  145.0049  158.5687 C   0  0  0  0  0  0  0  0  0  0  0  0
  152.8827  144.0558  159.6855 C   0  0  0  0  0  0  0  0  0  0  0  0
  150.2115  137.3042  155.7251 H   0  0  0  0  0  0  0  0  0  0  0  0
  150.8123  136.0059  156.6773 H   0  0  0  0  0  0  0  0  0  0  0  0
  145.4507  136.1557  158.8566 H   0  0  0  0  0  0  0  0  0  0  0  0
  148.0787  135.2562  160.9860 H   0  0  0  0  0  0  0  0  0  0  0  0
  145.2528  135.5318  160.2272 H   0  0  0  0  0  0  0  0  0  0  0  0
  145.9640  134.5654  161.5276 H   0  0  0  0  0  0  0  0  0  0  0  0
  144.8994  137.3824  161.6582 H   0  0  0  0  0  0  0  0  0  0  0  0
  144.8676  136.1571  162.9268 H   0  0  0  0  0  0  0  0  0  0  0  0
  146.7044  138.1323  163.0862 H   0  0  0  0  0  0  0  0  0  0  0  0
  147.2505  136.4733  163.3757 H   0  0  0  0  0  0  0  0  0  0  0  0
  150.0031  139.4218  156.8496 H   0  0  0  0  0  0  0  0  0  0  0  0
  152.4235  139.3406  159.7015 H   0  0  0  0  0  0  0  0  0  0  0  0
  153.3720  141.3990  160.6879 H   0  0  0  0  0  0  0  0  0  0  0  0
  150.4047  141.7102  156.6680 H   0  0  0  0  0  0  0  0  0  0  0  0
  151.6016  144.3302  156.6208 H   0  0  0  0  0  0  0  0  0  0  0  0
  150.3650  144.4998  157.8790 H   0  0  0  0  0  0  0  0  0  0  0  0
  153.2402  145.2898  157.9551 H   0  0  0  0  0  0  0  0  0  0  0  0
  151.9520  145.9271  158.9582 H   0  0  0  0  0  0  0  0  0  0  0  0
  152.4190  144.2946  160.6431 H   0  0  0  0  0  0  0  0  0  0  0  0
  153.9663  144.0910  159.8032 H   0  0  0  0  0  0  0  0  0  0  0  0
  1  2  2  0  0  0  0
  2  3  1  0  0  0  0
  2 18  1  0  0  0  0
  3  4  1  0  0  0  0
  3 28  1  0  0  0  0
  3 29  1  0  0  0  0
  4 16  1  0  0  0  0
  4  5  1  0  0  0  0
  5  6  2  0  0  0  0
  5  7  1  0  0  0  0
  7  8  1  0  0  0  0
  7  9  2  0  0  0  0
  9 10  1  0  0  0  0
  9 30  1  0  0  0  0
 10 11  1  0  0  0  0
 10 16  1  0  0  0  0
 11 15  1  0  0  0  0
 11 12  1  0  0  0  0
 11 31  1  0  0  0  0
 12 13  1  0  0  0  0
 12 32  1  0  0  0  0
 12 33  1  0  0  0  0
 13 14  1  0  0  0  0
 13 34  1  0  0  0  0
 13 35  1  0  0  0  0
 14 15  1  0  0  0  0
 14 36  1  0  0  0  0
 14 37  1  0  0  0  0
 16 17  2  0  0  0  0
 18 19  1  0  0  0  0
 18 38  1  0  0  0  0
 19 24  1  0  0  0  0
 19 20  2  0  0  0  0
 20 21  1  0  0  0  0
 20 39  1  0  0  0  0
 21 22  2  0  0  0  0
 21 40  1  0  0  0  0
 22 27  1  0  0  0  0
 22 23  1  0  0  0  0
 23 24  2  0  0  0  0
 23 25  1  0  0  0  0
 24 41  1  0  0  0  0
 25 26  1  0  0  0  0
 25 42  1  0  0  0  0
 25 43  1  0  0  0  0
 26 27  1  0  0  0  0
 26 44  1  0  0  0  0
 26 45  1  0  0  0  0
 27 46  1  0  0  0  0
 27 47  1  0  0  0  0
M  END
> <s_m_source_file>
AV-unprocessed.smi

> <i_m_source_file_index>
133

> <i_lp_mmshare_version>
43012

> <i_f3d_flags>
0

> <s_epik_input>
W0NIMl0xW0NIMl1bQ0gyXWMoYzEyKVtjSF1jKFtjSF1bY0hdMilbTkhdQyg9TylbQ0gyXW4zYyg9TyljKEYpW2NIXW4oYzM9TylbQ0BASF00W0NIMl1bQ0gyXVtDSDJdTzQ=

> <s_epik_cmdline>
J2VwaWtfcHl0aG9uJywgJy1waCcsICc3LjAnLCAnLXRuJywgJzgnLCAnLW1hJywgJzIwMCcsICctbWV0YWxfYmluZGluZycsICctaW1hZScsICc8aW5maWxlLm1hZT4nLCAnLW9tYWUnLCAnPG91dGZpbGUubWFlPic=

> <r_lp_tautomer_probability>
1

> <r_epik_Ionization_Penalty>
4.05675e-06

> <r_epik_Ionization_Penalty_Charging>
3.88729e-08

> <r_epik_Ionization_Penalty_Neutral>
4.01788e-06

> <r_epik_State_Penalty>
-0

> <r_epik_Charging_Adjusted_Penalty>
3.88729e-08

> <i_epik_Tot_Q>
0

> <i_epik_Tot_abs_Q>
0

> <r_epik_Metal_State_Penalty>
-0

> <b_epik_Metal_Only>
0

> <s_epik_Chemistry_Notes>
This compound contains an acetal/aminal-like group ( X-CH(R)-Y where X, Y are N, S, or O) that may be acid/base labile, releasing an aldehyde.

> <s_lp_Force_Field>
OPLS_2005

> <r_lp_Energy>
40.9248

> <b_lp_Chiralities_Consistent>
1

> <s_lp_Variant>
AV-unprocessed.smi:133-1

> <Gold.Version>
5.8.1

> <Gold.Id.Protein>
6NUR|6NUR_protein|mol2

> <Gold.PLP.Fitness>
48.2286

> <Gold.PLP.PLP>
-41.0151

> <Gold.PLP.part.hbond>
-3.0000

> <Gold.PLP.part.metal>
0.0000

> <Gold.PLP.part.buried>
-5.7352

> <Gold.PLP.part.nonpolar>
-32.5430

> <Gold.PLP.part.repulsive>
0.1023

> <Gold.PLP.ligand.clash>
0.0000

> <Gold.PLP.ligand.torsion>
0.5186

> <Gold.PLP.Chemscore.Hbond>
2.7296

> <Gold.PLP.Chemscore.CHOScore>
0.0000

> <Gold.PLP.Chemscore.Metal>
0.0000

> <Gold.Chemscore.Hbonds>
donor molecule, donor type, donor heavy atom, donor atom, acceptor molecule, acceptor atom, score
      P1  H  6896  6908       L1    17  1.00
      P1  H  6931  6943       L1    15  0.98
      P1  H  6934  6947       L1    15  0.69

> <Gold.PLP.Chemscore.Internal.Correction>
0.0619

> <Gold.Rescore>
     Score         DG    S(hbond)    S(metal)    S(lipo)     H(rot)  DE(clash)    DE(int)     intcor
     17.53     -23.05       2.41        0.00     116.14       1.59       0.25       5.27       ----

> <Gold.Chemscore.Fitness>
17.5292

> <Gold.Chemscore.DG>
-23.0490

> <Gold.Chemscore.ZeroCoef>
-5.4800

> <Gold.Chemscore.Hbond>
2.4082

> <Gold.Chemscore.Metal>
0.0000

> <Gold.Chemscore.Lipo>
116.1382

> <Gold.Chemscore.Internal_Hbond>
0.0000

> <Gold.Chemscore.DEClash>
0.2540

> <Gold.Chemscore.DEInternal>
5.2658

> <Gold.Chemscore.Rot>
1.5869

> <Gold.Chemscore.Internal.Correction>
   9.000000E+99

> <Gold.Chemscore.Hbonds>
donor molecule, donor type, donor heavy atom, donor atom, acceptor molecule, acceptor atom, score
      P1  H  6896  6908       L1    17  0.97
      P1  H  6931  6943       L1    15  0.47
      P1  H  6934  6947       L1    15  0.12

> <Gold.Chemscore.Hbond.Weighted>
-8.0433

> <Gold.Chemscore.Metal.Weighted>
-0.0000

> <Gold.Chemscore.Lipo.Weighted>
-13.5882

> <Gold.Chemscore.Internal_Hbond.Weighted>
0.0000

> <Gold.Chemscore.DEClash.Weighted>
0.2540

> <Gold.Chemscore.DEInternal.Weighted>
5.2658

> <Gold.Chemscore.Rot.Weighted>
4.0624

> <Gold.Chemscore.Internal.Correction.Weighted>
   9.000000E+99

> <Gold.Protein.RotatedTorsions>
[ 6907 6896 6895 6894 ] final -177.21 input  -60.11 | X-H torsion
[ 7974 7965 7964 7962 ] final -144.73 input  175.53 | X-H torsion
[ 8008 7997 7996 7995 ] final  -39.50 input   59.86 | X-H torsion
[ 10167 10162 10161 10158 ] final  -27.90 input  -65.29 | X-H torsion
[ 10718 10713 10712 10709 ] final -164.47 input   66.30 | X-H torsion
[ 10763 10752 10751 10750 ] final -141.86 input  -60.55 | X-H torsion
[ 11005 11000 10999 10996 ] final   39.76 input  -57.11 | X-H torsion

> <Gold.Protein.ActiveResidues>
 VAL166  LYS551  ARG553  GLY616  TRP617  ASP618  TYR619  PRO620  LYS621  CYS622 
 ASP623  PHE694  ASN695  SER759  ASP760  ASP761  ALA762  ILE779  LEU786  VAL792 
 PHE793  MET794  SER795  GLU796  ALA797  LYS798  CYS799  TRP800  GLU811  SER814 

> <Gold.Protein.RotatedAtoms>
  151.6173  133.3342  159.3080 H   0  0  0  0  0  0  0  0  0  0  0  0  # atno 6907 bound_to 6896
  150.8124  134.7290  159.6711 H   0  0  0  0  0  0  0  0  0  0  0  0  # atno 6908 bound_to 6896
  152.4221  134.5941  160.0034 H   0  0  0  0  0  0  0  0  0  0  0  0  # atno 6909 bound_to 6896
  144.8277  140.5673  143.5536 H   0  0  0  0  0  0  0  0  0  0  0  0  # atno 7974 bound_to 7965
  154.4022  140.1550  156.2873 H   0  0  0  0  0  0  0  0  0  0  0  0  # atno 8008 bound_to 7997
  155.8817  140.3443  155.5870 H   0  0  0  0  0  0  0  0  0  0  0  0  # atno 8009 bound_to 7997
  155.7660  140.0824  157.2122 H   0  0  0  0  0  0  0  0  0  0  0  0  # atno 8010 bound_to 7997
  140.7274  143.4055  151.1193 H   0  0  0  0  0  0  0  0  0  0  0  0  # atno 10167 bound_to 10162
  156.6396  130.8963  151.2993 H   0  0  0  0  0  0  0  0  0  0  0  0  # atno 10718 bound_to 10713
  154.8530  135.3512  154.5936 H   0  0  0  0  0  0  0  0  0  0  0  0  # atno 10763 bound_to 10752
  153.6545  135.6992  153.5202 H   0  0  0  0  0  0  0  0  0  0  0  0  # atno 10764 bound_to 10752
  153.2867  135.4247  155.1087 H   0  0  0  0  0  0  0  0  0  0  0  0  # atno 10765 bound_to 10752
  140.1996  134.3886  155.8103 H   0  0  0  0  0  0  0  0  0  0  0  0  # atno 11005 bound_to 11000
  145.4964  139.1485  143.3681 LP  0  0  0  0  0  0  0  0  0  0  0  0  # atno 17320 bound_to 7965
  146.2582  140.5103  142.8865 LP  0  0  0  0  0  0  0  0  0  0  0  0  # atno 17321 bound_to 7965
  139.7681  143.8535  152.3115 LP  0  0  0  0  0  0  0  0  0  0  0  0  # atno 17342 bound_to 10162
  139.8444  144.7194  150.9291 LP  0  0  0  0  0  0  0  0  0  0  0  0  # atno 17343 bound_to 10162
  157.7175  130.9516  150.1311 LP  0  0  0  0  0  0  0  0  0  0  0  0  # atno 17370 bound_to 10713
  156.2170  130.3671  149.8602 LP  0  0  0  0  0  0  0  0  0  0  0  0  # atno 17371 bound_to 10713
  141.2227  133.7087  156.8236 LP  0  0  0  0  0  0  0  0  0  0  0  0  # atno 17394 bound_to 11000
  140.2068  134.8856  157.3231 LP  0  0  0  0  0  0  0  0  0  0  0  0  # atno 17395 bound_to 11000

$$$$
