AV-unprocessed.smi:1192|AV-procd|sdf|4988|dock1
  -GOLD-   22720 3583D 1   1.00000     0.00000
 Structure written by MMmdl.
 39 40  0  0  0  0  0  0  0  0  1 V2000
  152.7889  138.1882  155.0546 C   0  0  0  0  0  0  0  0  0  0  0  0
  152.1845  137.1988  154.2415 O   0  0  0  0  0  0  0  0  0  0  0  0
  151.0156  136.6536  154.8306 C   0  0  0  0  0  0  0  0  0  0  0  0
  149.8083  137.4955  154.4099 C   0  0  0  0  0  0  0  0  0  0  0  0
  150.2069  138.8609  154.3886 O   0  0  0  0  0  0  0  0  0  0  0  0
  149.2405  139.8388  154.2739 C   0  0  0  0  0  0  0  0  0  0  0  0
  148.0976  139.5419  153.6055 N   0  0  0  0  0  0  0  0  0  0  0  0
  147.1482  140.4947  153.5008 C   0  0  0  0  0  0  0  0  0  0  0  0
  147.2839  141.7824  154.0521 C   0  0  0  0  0  0  0  0  0  0  0  0
  148.4688  142.0903  154.7457 C   0  0  0  0  0  0  0  0  0  0  0  0
  149.4731  141.1059  154.8608 C   0  0  0  0  0  0  0  0  0  0  0  0
  150.7588  141.4132  155.6144 C   0  0  0  0  0  0  0  0  0  0  0  0
  150.6885  142.6491  156.3904 N   0  0  0  0  0  0  0  0  0  0  0  0
  151.3556  142.9016  157.5278 C   0  0  0  0  0  0  0  0  0  0  0  0
  152.1350  142.1032  158.0489 O   0  0  0  0  0  0  0  0  0  0  0  0
  151.1103  144.2828  158.1488 C   0  0  0  0  0  0  0  0  0  0  0  0
  152.3704  145.1045  158.4862 C   0  0  0  0  0  0  0  0  0  0  0  0
  151.7224  145.4654  159.8255 C   0  0  0  0  0  0  0  0  0  0  0  0
  150.8145  144.2439  159.6575 C   0  0  0  0  0  0  0  0  0  0  0  0
  153.6882  138.5628  154.5665 H   0  0  0  0  0  0  0  0  0  0  0  0
  153.0781  137.7808  156.0242 H   0  0  0  0  0  0  0  0  0  0  0  0
  152.1146  139.0308  155.2143 H   0  0  0  0  0  0  0  0  0  0  0  0
  150.8829  135.6278  154.4834 H   0  0  0  0  0  0  0  0  0  0  0  0
  151.1018  136.6252  155.9181 H   0  0  0  0  0  0  0  0  0  0  0  0
  149.4454  137.1661  153.4347 H   0  0  0  0  0  0  0  0  0  0  0  0
  149.0014  137.3656  155.1326 H   0  0  0  0  0  0  0  0  0  0  0  0
  146.2528  140.2215  152.9626 H   0  0  0  0  0  0  0  0  0  0  0  0
  146.4976  142.5152  153.9462 H   0  0  0  0  0  0  0  0  0  0  0  0
  148.6015  143.0698  155.1811 H   0  0  0  0  0  0  0  0  0  0  0  0
  150.9840  140.6001  156.3050 H   0  0  0  0  0  0  0  0  0  0  0  0
  151.5785  141.4331  154.8945 H   0  0  0  0  0  0  0  0  0  0  0  0
  150.0809  143.3724  156.0336 H   0  0  0  0  0  0  0  0  0  0  0  0
  150.3747  144.8694  157.5950 H   0  0  0  0  0  0  0  0  0  0  0  0
  153.2797  144.5146  158.6144 H   0  0  0  0  0  0  0  0  0  0  0  0
  152.5418  145.9616  157.8357 H   0  0  0  0  0  0  0  0  0  0  0  0
  152.3930  145.4199  160.6842 H   0  0  0  0  0  0  0  0  0  0  0  0
  151.1735  146.4076  159.7879 H   0  0  0  0  0  0  0  0  0  0  0  0
  149.7712  144.4257  159.9172 H   0  0  0  0  0  0  0  0  0  0  0  0
  151.2028  143.3557  160.1601 H   0  0  0  0  0  0  0  0  0  0  0  0
  1  2  1  0  0  0  0
  1 20  1  0  0  0  0
  1 21  1  0  0  0  0
  1 22  1  0  0  0  0
  2  3  1  0  0  0  0
  3  4  1  0  0  0  0
  3 23  1  0  0  0  0
  3 24  1  0  0  0  0
  4  5  1  0  0  0  0
  4 25  1  0  0  0  0
  4 26  1  0  0  0  0
  5  6  1  0  0  0  0
  6 11  1  0  0  0  0
  6  7  2  0  0  0  0
  7  8  1  0  0  0  0
  8  9  2  0  0  0  0
  8 27  1  0  0  0  0
  9 10  1  0  0  0  0
  9 28  1  0  0  0  0
 10 11  2  0  0  0  0
 10 29  1  0  0  0  0
 11 12  1  0  0  0  0
 12 13  1  0  0  0  0
 12 30  1  0  0  0  0
 12 31  1  0  0  0  0
 13 14  1  0  0  0  0
 13 32  1  0  0  0  0
 14 15  2  0  0  0  0
 14 16  1  0  0  0  0
 16 19  1  0  0  0  0
 16 17  1  0  0  0  0
 16 33  1  0  0  0  0
 17 18  1  0  0  0  0
 17 34  1  0  0  0  0
 17 35  1  0  0  0  0
 18 19  1  0  0  0  0
 18 36  1  0  0  0  0
 18 37  1  0  0  0  0
 19 38  1  0  0  0  0
 19 39  1  0  0  0  0
M  END
> <s_m_source_file>
AV-unprocessed.smi

> <i_m_source_file_index>
1192

> <i_lp_mmshare_version>
43012

> <i_f3d_flags>
0

> <s_epik_input>
W0NIM11PW0NIMl1bQ0gyXU9jMW5bY0hdW2NIXVtjSF1jMVtDSDJdW05IXUMoPU8pW0NIXTJbQ0gyXVtDSDJdW0NIMl0y

> <s_epik_cmdline>
J2VwaWtfcHl0aG9uJywgJy1waCcsICc3LjAnLCAnLXRuJywgJzgnLCAnLW1hJywgJzIwMCcsICctbWV0YWxfYmluZGluZycsICctaW1hZScsICc8aW5maWxlLm1hZT4nLCAnLW9tYWUnLCAnPG91dGZpbGUubWFlPic=

> <r_lp_tautomer_probability>
1

> <r_epik_Ionization_Penalty>
6.50215e-05

> <r_epik_Ionization_Penalty_Charging>
0

> <r_epik_Ionization_Penalty_Neutral>
6.50215e-05

> <r_epik_State_Penalty>
-0

> <r_epik_Charging_Adjusted_Penalty>
0

> <i_epik_Tot_Q>
0

> <i_epik_Tot_abs_Q>
0

> <r_epik_Metal_State_Penalty>
-0

> <b_epik_Metal_Only>
0

> <s_lp_Force_Field>
OPLS_2005

> <r_lp_Energy>
11.4086

> <b_lp_Chiralities_Consistent>
1

> <s_lp_Variant>
AV-unprocessed.smi:1192-1

> <Gold.Version>
5.8.1

> <Gold.Id.Protein>
6NUR|6NUR_protein|mol2

> <Gold.PLP.Fitness>
45.3566

> <Gold.PLP.PLP>
-38.5229

> <Gold.PLP.part.hbond>
-2.0000

> <Gold.PLP.part.metal>
0.0000

> <Gold.PLP.part.buried>
-4.0019

> <Gold.PLP.part.nonpolar>
-34.6514

> <Gold.PLP.part.repulsive>
0.5147

> <Gold.PLP.ligand.clash>
0.0000

> <Gold.PLP.ligand.torsion>
1.2235

> <Gold.PLP.Chemscore.Hbond>
2.0000

> <Gold.PLP.Chemscore.CHOScore>
0.9364

> <Gold.PLP.Chemscore.Metal>
0.0000

> <Gold.Chemscore.Hbonds>
donor molecule, donor type, donor heavy atom, donor atom, acceptor molecule, acceptor atom, score
      L1  H    13    32       P1  8028  1.00
      P1  H 10752 10763       L1     2  0.12
      L1  C     8    27       P1 10175  0.77

> <Gold.PLP.Chemscore.Internal.Correction>
0.4717

> <Gold.Rescore>
     Score         DG    S(hbond)    S(metal)    S(lipo)     H(rot)  DE(clash)    DE(int)     intcor
     15.15     -18.05       1.95        0.00      98.30       2.12       0.28       2.63       ----

> <Gold.Chemscore.Fitness>
15.1455

> <Gold.Chemscore.DG>
-18.0505

> <Gold.Chemscore.ZeroCoef>
-5.4800

> <Gold.Chemscore.Hbond>
1.9466

> <Gold.Chemscore.Metal>
0.0000

> <Gold.Chemscore.Lipo>
98.3043

> <Gold.Chemscore.Internal_Hbond>
0.0000

> <Gold.Chemscore.DEClash>
0.2758

> <Gold.Chemscore.DEInternal>
2.6292

> <Gold.Chemscore.Rot>
2.1221

> <Gold.Chemscore.Internal.Correction>
   9.000000E+99

> <Gold.Chemscore.Hbonds>
donor molecule, donor type, donor heavy atom, donor atom, acceptor molecule, acceptor atom, score
      L1  H    13    32       P1  8028  1.00

> <Gold.Chemscore.Hbond.Weighted>
-6.5015

> <Gold.Chemscore.Metal.Weighted>
-0.0000

> <Gold.Chemscore.Lipo.Weighted>
-11.5016

> <Gold.Chemscore.Internal_Hbond.Weighted>
0.0000

> <Gold.Chemscore.DEClash.Weighted>
0.2758

> <Gold.Chemscore.DEInternal.Weighted>
2.6292

> <Gold.Chemscore.Rot.Weighted>
5.4326

> <Gold.Chemscore.Internal.Correction.Weighted>
   9.000000E+99

> <Gold.Protein.RotatedTorsions>
[ 6907 6896 6895 6894 ] final   18.88 input  -60.11 | X-H torsion
[ 7974 7965 7964 7962 ] final  -89.19 input  175.53 | X-H torsion
[ 8008 7997 7996 7995 ] final  154.12 input   59.86 | X-H torsion
[ 10167 10162 10161 10158 ] final -112.77 input  -65.29 | X-H torsion
[ 10718 10713 10712 10709 ] final  170.68 input   66.30 | X-H torsion
[ 10763 10752 10751 10750 ] final   72.36 input  -60.55 | X-H torsion
[ 11005 11000 10999 10996 ] final  139.82 input  -57.11 | X-H torsion

> <Gold.Protein.ActiveResidues>
 VAL166  LYS551  ARG553  GLY616  TRP617  ASP618  TYR619  PRO620  LYS621  CYS622 
 ASP623  PHE694  ASN695  SER759  ASP760  ASP761  ALA762  ILE779  LEU786  VAL792 
 PHE793  MET794  SER795  GLU796  ALA797  LYS798  CYS799  TRP800  GLU811  SER814 

> <Gold.Protein.RotatedAtoms>
  151.8721  135.0485  160.0480 H   0  0  0  0  0  0  0  0  0  0  0  0  # atno 6907 bound_to 6896
  152.2580  133.5267  159.5373 H   0  0  0  0  0  0  0  0  0  0  0  0  # atno 6908 bound_to 6896
  150.7106  134.0786  159.3932 H   0  0  0  0  0  0  0  0  0  0  0  0  # atno 6909 bound_to 6896
  145.4432  140.9559  143.2064 H   0  0  0  0  0  0  0  0  0  0  0  0  # atno 7974 bound_to 7965
  156.2547  140.1975  156.6597 H   0  0  0  0  0  0  0  0  0  0  0  0  # atno 8008 bound_to 7997
  154.6474  140.0576  156.9941 H   0  0  0  0  0  0  0  0  0  0  0  0  # atno 8009 bound_to 7997
  155.1470  140.3248  155.4442 H   0  0  0  0  0  0  0  0  0  0  0  0  # atno 8010 bound_to 7997
  140.1191  143.4459  152.1702 H   0  0  0  0  0  0  0  0  0  0  0  0  # atno 10167 bound_to 10162
  157.0046  131.0186  151.2821 H   0  0  0  0  0  0  0  0  0  0  0  0  # atno 10718 bound_to 10713
  153.0454  135.5103  154.7732 H   0  0  0  0  0  0  0  0  0  0  0  0  # atno 10763 bound_to 10752
  154.6636  135.2942  154.9836 H   0  0  0  0  0  0  0  0  0  0  0  0  # atno 10764 bound_to 10752
  154.0679  135.6682  153.4873 H   0  0  0  0  0  0  0  0  0  0  0  0  # atno 10765 bound_to 10752
  140.0282  134.9364  157.0611 H   0  0  0  0  0  0  0  0  0  0  0  0  # atno 11005 bound_to 11000
  144.8108  139.5965  143.7030 LP  0  0  0  0  0  0  0  0  0  0  0  0  # atno 17320 bound_to 7965
  146.2545  139.6272  142.9404 LP  0  0  0  0  0  0  0  0  0  0  0  0  # atno 17321 bound_to 7965
  139.5578  144.7385  151.4243 LP  0  0  0  0  0  0  0  0  0  0  0  0  # atno 17342 bound_to 10162
  140.6882  143.7924  150.7217 LP  0  0  0  0  0  0  0  0  0  0  0  0  # atno 17343 bound_to 10162
  157.5365  130.8092  149.7978 LP  0  0  0  0  0  0  0  0  0  0  0  0  # atno 17370 bound_to 10713
  156.0158  130.3814  150.2115 LP  0  0  0  0  0  0  0  0  0  0  0  0  # atno 17371 bound_to 10713
  140.4270  134.1820  155.7166 LP  0  0  0  0  0  0  0  0  0  0  0  0  # atno 17394 bound_to 11000
  141.1815  133.8403  157.1239 LP  0  0  0  0  0  0  0  0  0  0  0  0  # atno 17395 bound_to 11000

$$$$
