AV-unprocessed.smi:2494|AV-procd|sdf|9822|dock10
  -GOLD-   2272013453D 1   1.00000     0.00000
 Structure written by MMmdl.
 30 31  0  0  0  0  0  0  0  0  1 V2000
  148.3142  142.5669  154.4630 O   0  0  0  0  0  0  0  0  0  0  0  0
  149.2611  141.5224  154.3970 C   0  0  0  0  0  0  0  0  0  0  0  0
  149.1816  140.6680  155.6729 C   0  0  0  0  0  0  0  0  0  0  0  0
  150.1449  139.4506  155.6823 C   0  0  1  0  0  0  0  0  0  0  0  0
  150.0761  138.6975  154.3301 C   0  0  0  0  0  0  0  0  0  0  0  0
  151.0033  137.6208  154.2947 O   0  0  0  0  0  0  0  0  0  0  0  0
  152.3389  138.0813  154.4265 C   0  0  0  0  0  0  0  0  0  0  0  0
  152.4928  138.7499  155.7972 C   0  0  0  0  0  0  0  0  0  0  0  0
  151.5366  139.8412  155.9606 N   0  0  0  0  0  0  0  0  0  0  0  0
  151.8335  140.6481  157.0517 C   0  0  0  0  0  0  0  0  0  0  0  0
  152.7173  140.1893  157.9486 N   0  0  0  0  0  0  0  0  0  0  0  0
  153.0171  140.9990  158.9873 C   0  0  0  0  0  0  0  0  0  0  0  0
  152.4348  142.2752  159.1190 C   0  0  0  0  0  0  0  0  0  0  0  0
  152.8156  143.3143  160.4423 Cl  0  0  0  0  0  0  0  0  0  0  0  0
  151.5274  142.6593  158.1119 C   0  0  0  0  0  0  0  0  0  0  0  0
  151.2333  141.8433  157.0763 N   0  0  0  0  0  0  0  0  0  0  0  0
  148.7137  143.3087  154.8912 H   0  0  0  0  0  0  0  0  0  0  0  0
  149.0580  140.9154  153.5143 H   0  0  0  0  0  0  0  0  0  0  0  0
  150.2486  141.9656  154.2736 H   0  0  0  0  0  0  0  0  0  0  0  0
  149.3756  141.2941  156.5451 H   0  0  0  0  0  0  0  0  0  0  0  0
  148.1488  140.3356  155.7711 H   0  0  0  0  0  0  0  0  0  0  0  0
  149.8349  138.7658  156.4730 H   0  0  0  0  0  0  0  0  0  0  0  0
  149.0845  138.2751  154.1736 H   0  0  0  0  0  0  0  0  0  0  0  0
  150.2664  139.3744  153.4952 H   0  0  0  0  0  0  0  0  0  0  0  0
  153.0177  137.2325  154.3438 H   0  0  0  0  0  0  0  0  0  0  0  0
  152.5884  138.7721  153.6194 H   0  0  0  0  0  0  0  0  0  0  0  0
  152.3350  138.0166  156.5894 H   0  0  0  0  0  0  0  0  0  0  0  0
  153.5124  139.1218  155.9068 H   0  0  0  0  0  0  0  0  0  0  0  0
  153.7257  140.6271  159.7124 H   0  0  0  0  0  0  0  0  0  0  0  0
  151.0382  143.6218  158.1339 H   0  0  0  0  0  0  0  0  0  0  0  0
  1  2  1  0  0  0  0
  1 17  1  0  0  0  0
  2  3  1  0  0  0  0
  2 18  1  0  0  0  0
  2 19  1  0  0  0  0
  3  4  1  0  0  0  0
  3 20  1  0  0  0  0
  3 21  1  0  0  0  0
  4  9  1  0  0  0  0
  4  5  1  0  0  0  0
  4 22  1  0  0  0  0
  5  6  1  0  0  0  0
  5 23  1  0  0  0  0
  5 24  1  0  0  0  0
  6  7  1  0  0  0  0
  7  8  1  0  0  0  0
  7 25  1  0  0  0  0
  7 26  1  0  0  0  0
  8  9  1  0  0  0  0
  8 27  1  0  0  0  0
  8 28  1  0  0  0  0
  9 10  1  0  0  0  0
 10 16  1  0  0  0  0
 10 11  2  0  0  0  0
 11 12  1  0  0  0  0
 12 13  2  0  0  0  0
 12 29  1  0  0  0  0
 13 14  1  0  0  0  0
 13 15  1  0  0  0  0
 15 16  2  0  0  0  0
 15 30  1  0  0  0  0
M  END
> <s_m_source_file>
AV-unprocessed.smi

> <i_m_source_file_index>
2494

> <i_lp_mmshare_version>
43012

> <i_f3d_flags>
0

> <s_epik_input>
W09IXVtDSDJdW0NIMl1bQ0BASF0xW0NIMl1PW0NIMl1bQ0gyXU4xYzJuW2NIXWMoQ2wpW2NIXW4y

> <s_epik_cmdline>
J2VwaWtfcHl0aG9uJywgJy1waCcsICc3LjAnLCAnLXRuJywgJzgnLCAnLW1hJywgJzIwMCcsICctbWV0YWxfYmluZGluZycsICctaW1hZScsICc8aW5maWxlLm1hZT4nLCAnLW9tYWUnLCAnPG91dGZpbGUubWFlPic=

> <r_lp_tautomer_probability>
1

> <r_epik_Ionization_Penalty>
3.66811e-07

> <r_epik_Ionization_Penalty_Charging>
0

> <r_epik_Ionization_Penalty_Neutral>
3.66811e-07

> <r_epik_State_Penalty>
-0

> <r_epik_Charging_Adjusted_Penalty>
0

> <i_epik_Tot_Q>
0

> <i_epik_Tot_abs_Q>
0

> <r_epik_Metal_State_Penalty>
-0

> <b_epik_Metal_Only>
0

> <s_lp_Force_Field>
OPLS_2005

> <r_lp_Energy>
15.3646

> <b_lp_Chiralities_Consistent>
1

> <s_lp_Variant>
AV-unprocessed.smi:2494-2

> <Gold.Version>
5.8.1

> <Gold.Id.Protein>
6NUR|6NUR_protein|mol2

> <Gold.PLP.Fitness>
35.4083

> <Gold.PLP.PLP>
-29.7752

> <Gold.PLP.part.hbond>
-2.7892

> <Gold.PLP.part.metal>
0.0000

> <Gold.PLP.part.buried>
-3.0693

> <Gold.PLP.part.nonpolar>
-23.1041

> <Gold.PLP.part.repulsive>
0.2779

> <Gold.PLP.ligand.clash>
0.0152

> <Gold.PLP.ligand.torsion>
0.3208

> <Gold.PLP.Chemscore.Hbond>
1.9920

> <Gold.PLP.Chemscore.CHOScore>
0.0000

> <Gold.PLP.Chemscore.Metal>
0.0000

> <Gold.Chemscore.Hbonds>
donor molecule, donor type, donor heavy atom, donor atom, acceptor molecule, acceptor atom, score
      L1  H     1    17       P1  8028  1.00
      P1  H  7997  8009       L1    11  0.93

> <Gold.PLP.Chemscore.Internal.Correction>
0.3140

> <Gold.Rescore>
     Score         DG    S(hbond)    S(metal)    S(lipo)     H(rot)  DE(clash)    DE(int)     intcor
     13.06     -14.99       1.48        0.00      83.65       2.04       0.23       1.71       ----

> <Gold.Chemscore.Fitness>
13.0603

> <Gold.Chemscore.DG>
-14.9948

> <Gold.Chemscore.ZeroCoef>
-5.4800

> <Gold.Chemscore.Hbond>
1.4840

> <Gold.Chemscore.Metal>
0.0000

> <Gold.Chemscore.Lipo>
83.6472

> <Gold.Chemscore.Internal_Hbond>
0.0000

> <Gold.Chemscore.DEClash>
0.2286

> <Gold.Chemscore.DEInternal>
1.7060

> <Gold.Chemscore.Rot>
2.0424

> <Gold.Chemscore.Internal.Correction>
   9.000000E+99

> <Gold.Chemscore.Hbonds>
donor molecule, donor type, donor heavy atom, donor atom, acceptor molecule, acceptor atom, score
      L1  H     1    17       P1  8028  0.98
      P1  H  7997  8009       L1    11  0.17

> <Gold.Chemscore.Hbond.Weighted>
-4.9566

> <Gold.Chemscore.Metal.Weighted>
-0.0000

> <Gold.Chemscore.Lipo.Weighted>
-9.7867

> <Gold.Chemscore.Internal_Hbond.Weighted>
0.0000

> <Gold.Chemscore.DEClash.Weighted>
0.2286

> <Gold.Chemscore.DEInternal.Weighted>
1.7060

> <Gold.Chemscore.Rot.Weighted>
5.2285

> <Gold.Chemscore.Internal.Correction.Weighted>
   9.000000E+99

> <Gold.Protein.RotatedTorsions>
[ 6907 6896 6895 6894 ] final  -52.00 input  -60.11 | X-H torsion
[ 7974 7965 7964 7962 ] final  -27.54 input  175.53 | X-H torsion
[ 8008 7997 7996 7995 ] final  167.82 input   59.86 | X-H torsion
[ 10167 10162 10161 10158 ] final  -98.55 input  -65.29 | X-H torsion
[ 10718 10713 10712 10709 ] final  -16.99 input   66.30 | X-H torsion
[ 10763 10752 10751 10750 ] final  150.07 input  -60.55 | X-H torsion
[ 11005 11000 10999 10996 ] final -131.38 input  -57.11 | X-H torsion

> <Gold.Protein.ActiveResidues>
 VAL166  LYS551  ARG553  GLY616  TRP617  ASP618  TYR619  PRO620  LYS621  CYS622 
 ASP623  PHE694  ASN695  SER759  ASP760  ASP761  ALA762  ILE779  LEU786  VAL792 
 PHE793  MET794  SER795  GLU796  ALA797  LYS798  CYS799  TRP800  GLU811  SER814 

> <Gold.Protein.RotatedAtoms>
  150.8559  134.7897  159.7044 H   0  0  0  0  0  0  0  0  0  0  0  0  # atno 6907 bound_to 6896
  152.4611  134.5180  159.9783 H   0  0  0  0  0  0  0  0  0  0  0  0  # atno 6908 bound_to 6896
  151.5292  133.3414  159.2951 H   0  0  0  0  0  0  0  0  0  0  0  0  # atno 6909 bound_to 6896
  146.1351  140.5165  142.8676 H   0  0  0  0  0  0  0  0  0  0  0  0  # atno 7974 bound_to 7965
  156.1600  140.1607  156.8627 H   0  0  0  0  0  0  0  0  0  0  0  0  # atno 8008 bound_to 7997
  154.5152  140.0791  156.8103 H   0  0  0  0  0  0  0  0  0  0  0  0  # atno 8009 bound_to 7997
  155.3725  140.3401  155.4246 H   0  0  0  0  0  0  0  0  0  0  0  0  # atno 8010 bound_to 7997
  140.2718  143.3339  152.0527 H   0  0  0  0  0  0  0  0  0  0  0  0  # atno 10167 bound_to 10162
  156.5798  130.4771  149.6325 H   0  0  0  0  0  0  0  0  0  0  0  0  # atno 10718 bound_to 10713
  154.0815  135.2859  155.3289 H   0  0  0  0  0  0  0  0  0  0  0  0  # atno 10763 bound_to 10752
  154.6681  135.5310  153.8106 H   0  0  0  0  0  0  0  0  0  0  0  0  # atno 10764 bound_to 10752
  153.0447  135.6550  154.0989 H   0  0  0  0  0  0  0  0  0  0  0  0  # atno 10765 bound_to 10752
  140.9264  134.1377  157.4272 H   0  0  0  0  0  0  0  0  0  0  0  0  # atno 11005 bound_to 11000
  144.7731  140.5680  143.6657 LP  0  0  0  0  0  0  0  0  0  0  0  0  # atno 17320 bound_to 7965
  145.5175  139.1477  143.3571 LP  0  0  0  0  0  0  0  0  0  0  0  0  # atno 17321 bound_to 7965
  139.4987  144.6651  151.6374 LP  0  0  0  0  0  0  0  0  0  0  0  0  # atno 17342 bound_to 10162
  140.5883  143.9824  150.6309 LP  0  0  0  0  0  0  0  0  0  0  0  0  # atno 17343 bound_to 10162
  156.2642  130.6980  151.1757 LP  0  0  0  0  0  0  0  0  0  0  0  0  # atno 17370 bound_to 10713
  157.7329  131.0595  150.5603 LP  0  0  0  0  0  0  0  0  0  0  0  0  # atno 17371 bound_to 10713
  139.8786  134.9990  156.5929 LP  0  0  0  0  0  0  0  0  0  0  0  0  # atno 17394 bound_to 11000
  140.7920  133.8574  155.8654 LP  0  0  0  0  0  0  0  0  0  0  0  0  # atno 17395 bound_to 11000

$$$$
