AV-unprocessed.smi:283|AV-procd|sdf|2152|dock7
  -GOLD-   2262021493D 1   1.00000     0.00000
 Structure written by MMmdl.
 48 51  0  0  0  0  0  0  0  0  1 V2000
  152.2377  140.2086  159.2305 C   0  0  0  0  0  0  0  0  0  0  0  0
  152.3956  141.3605  158.2186 C   0  0  1  0  0  0  0  0  0  0  0  0
  151.6835  141.0979  156.9695 N   0  0  0  0  0  0  0  0  0  0  0  0
  151.8252  139.9318  156.3016 C   0  0  0  0  0  0  0  0  0  0  0  0
  152.4980  139.8694  155.1232 N   0  0  0  0  0  0  0  0  0  0  0  0
  152.6195  138.7020  154.4853 C   0  0  0  0  0  0  0  0  0  0  0  0
  152.1529  137.5037  154.8426 N   0  0  0  0  0  0  0  0  0  0  0  0
  151.4705  137.5599  156.0228 C   0  0  0  0  0  0  0  0  0  0  0  0
  151.2632  138.7305  156.8052 C   0  0  0  0  0  0  0  0  0  0  0  0
  150.5245  138.4161  157.9374 N   0  0  0  0  0  0  0  0  0  0  0  0
  150.3096  137.1330  157.8265 C   0  0  0  0  0  0  0  0  0  0  0  0
  150.8496  136.5344  156.7094 N   0  0  0  0  0  0  0  0  0  0  0  0
  150.7557  135.0903  156.3267 C   0  0  1  0  0  0  0  0  0  0  0  0
  150.4712  134.3515  157.4803 O   0  0  0  0  0  0  0  0  0  0  0  0
  149.2490  133.6423  157.3072 C   0  0  2  0  0  0  0  0  0  0  0  0
  149.1287  132.4059  158.2231 C   0  0  0  0  0  0  0  0  0  0  0  0
  150.0150  131.3601  157.8830 O   0  0  0  0  0  0  0  0  0  0  0  0
  149.0524  133.5119  155.7903 C   0  0  2  0  0  0  0  0  0  0  0  0
  149.7672  132.4109  155.2535 O   0  0  0  0  0  0  0  0  0  0  0  0
  149.6216  134.8464  155.3138 C   0  0  2  0  0  0  0  0  0  0  0  0
  150.0678  134.7754  153.9729 O   0  0  0  0  0  0  0  0  0  0  0  0
  152.0142  142.7008  158.8456 C   0  0  0  0  0  0  0  0  0  0  0  0
  151.1447  143.5477  158.1218 C   0  0  0  0  0  0  0  0  0  0  0  0
  150.7516  144.7944  158.6433 C   0  0  0  0  0  0  0  0  0  0  0  0
  151.2288  145.2123  159.8977 C   0  0  0  0  0  0  0  0  0  0  0  0
  152.0999  144.3823  160.6264 C   0  0  0  0  0  0  0  0  0  0  0  0
  152.4970  143.1313  160.1118 C   0  0  0  0  0  0  0  0  0  0  0  0
  153.5763  142.1733  161.0664 Cl  0  0  0  0  0  0  0  0  0  0  0  0
  151.7447  134.8205  155.9534 H   0  0  0  0  0  0  0  0  0  0  0  0
  148.4719  134.3250  157.6501 H   0  0  0  0  0  0  0  0  0  0  0  0
  147.9999  133.4010  155.5274 H   0  0  0  0  0  0  0  0  0  0  0  0
  148.8640  135.6249  155.4096 H   0  0  0  0  0  0  0  0  0  0  0  0
  152.8160  140.4050  160.1336 H   0  0  0  0  0  0  0  0  0  0  0  0
  152.5900  139.2614  158.8230 H   0  0  0  0  0  0  0  0  0  0  0  0
  151.1995  140.0669  159.5289 H   0  0  0  0  0  0  0  0  0  0  0  0
  153.4553  141.4317  157.9704 H   0  0  0  0  0  0  0  0  0  0  0  0
  150.9842  141.7829  156.7204 H   0  0  0  0  0  0  0  0  0  0  0  0
  153.1688  138.7321  153.5560 H   0  0  0  0  0  0  0  0  0  0  0  0
  149.7473  136.5821  158.5666 H   0  0  0  0  0  0  0  0  0  0  0  0
  149.3064  132.6930  159.2599 H   0  0  0  0  0  0  0  0  0  0  0  0
  148.1126  132.0134  158.1748 H   0  0  0  0  0  0  0  0  0  0  0  0
  149.5781  130.5355  158.0326 H   0  0  0  0  0  0  0  0  0  0  0  0
  150.6926  132.5904  155.3289 H   0  0  0  0  0  0  0  0  0  0  0  0
  149.6539  135.4730  153.4872 H   0  0  0  0  0  0  0  0  0  0  0  0
  150.7691  143.2419  157.1561 H   0  0  0  0  0  0  0  0  0  0  0  0
  150.0833  145.4293  158.0802 H   0  0  0  0  0  0  0  0  0  0  0  0
  150.9284  146.1683  160.3007 H   0  0  0  0  0  0  0  0  0  0  0  0
  152.4668  144.7092  161.5883 H   0  0  0  0  0  0  0  0  0  0  0  0
  1  2  1  0  0  0  0
  1 33  1  0  0  0  0
  1 34  1  0  0  0  0
  1 35  1  0  0  0  0
  2  3  1  0  0  0  0
  2 22  1  0  0  0  0
  2 36  1  0  0  0  0
  3  4  1  0  0  0  0
  3 37  1  0  0  0  0
  4  9  1  0  0  0  0
  4  5  2  0  0  0  0
  5  6  1  0  0  0  0
  6  7  2  0  0  0  0
  6 38  1  0  0  0  0
  7  8  1  0  0  0  0
  8 12  1  0  0  0  0
  8  9  2  0  0  0  0
  9 10  1  0  0  0  0
 10 11  2  0  0  0  0
 11 12  1  0  0  0  0
 11 39  1  0  0  0  0
 12 13  1  0  0  0  0
 13 29  1  0  0  0  0
 13 20  1  0  0  0  0
 13 14  1  0  0  0  0
 14 15  1  0  0  0  0
 15 30  1  0  0  0  0
 15 16  1  0  0  0  0
 15 18  1  0  0  0  0
 16 17  1  0  0  0  0
 16 40  1  0  0  0  0
 16 41  1  0  0  0  0
 17 42  1  0  0  0  0
 18 31  1  0  0  0  0
 18 19  1  0  0  0  0
 18 20  1  0  0  0  0
 19 43  1  0  0  0  0
 20 32  1  0  0  0  0
 20 21  1  0  0  0  0
 21 44  1  0  0  0  0
 22 27  1  0  0  0  0
 22 23  2  0  0  0  0
 23 24  1  0  0  0  0
 23 45  1  0  0  0  0
 24 25  2  0  0  0  0
 24 46  1  0  0  0  0
 25 26  1  0  0  0  0
 25 47  1  0  0  0  0
 26 27  2  0  0  0  0
 26 48  1  0  0  0  0
 27 28  1  0  0  0  0
M  END
> <s_m_source_file>
AV-unprocessed.smi

> <i_m_source_file_index>
283

> <i_lp_mmshare_version>
43012

> <i_f3d_flags>
0

> <s_epik_input>
Q2xjMVtjSF1bY0hdW2NIXVtjSF1jMVtDQEhdKFtDSDNdKVtOSF1jKG5bY0hdbjIpYyhjMjMpbltjSF1uM1tDQEBIXTRPW0NASF0oW0NIMl1bT0hdKVtDQEBIXShbT0hdKVtDQEhdNFtPSF0=

> <s_epik_cmdline>
J2VwaWtfcHl0aG9uJywgJy1waCcsICc3LjAnLCAnLXRuJywgJzgnLCAnLW1hJywgJzIwMCcsICctbWV0YWxfYmluZGluZycsICctaW1hZScsICc8aW5maWxlLm1hZT4nLCAnLW9tYWUnLCAnPG91dGZpbGUubWFlPic=

> <r_lp_tautomer_probability>
1

> <r_epik_Ionization_Penalty>
0.000266407

> <r_epik_Ionization_Penalty_Charging>
0

> <r_epik_Ionization_Penalty_Neutral>
0.000266407

> <r_epik_State_Penalty>
-0

> <r_epik_Charging_Adjusted_Penalty>
0

> <i_epik_Tot_Q>
0

> <i_epik_Tot_abs_Q>
0

> <r_epik_Metal_State_Penalty>
-0

> <b_epik_Metal_Only>
0

> <s_epik_Chemistry_Notes>
This compound contains an acetal/aminal-like group ( X-CH(R)-Y where X, Y are N, S, or O) that may be acid/base labile, releasing an aldehyde.

> <s_lp_Force_Field>
OPLS_2005

> <r_lp_Energy>
54.2889

> <b_lp_Chiralities_Consistent>
1

> <s_lp_Variant>
AV-unprocessed.smi:283-28

> <Gold.Version>
5.8.1

> <Gold.Id.Protein>
6NUR|6NUR_protein|mol2

> <Gold.PLP.Fitness>
53.5576

> <Gold.PLP.PLP>
-44.5163

> <Gold.PLP.part.hbond>
-5.1554

> <Gold.PLP.part.metal>
0.0000

> <Gold.PLP.part.buried>
-6.3130

> <Gold.PLP.part.nonpolar>
-33.9234

> <Gold.PLP.part.repulsive>
0.1949

> <Gold.PLP.ligand.clash>
0.0000

> <Gold.PLP.ligand.torsion>
1.5236

> <Gold.PLP.Chemscore.Hbond>
3.9917

> <Gold.PLP.Chemscore.CHOScore>
0.0000

> <Gold.PLP.Chemscore.Metal>
0.0000

> <Gold.Chemscore.Hbonds>
donor molecule, donor type, donor heavy atom, donor atom, acceptor molecule, acceptor atom, score
      L1  H    21    44       P1  7948  0.65
      P1  H  6896  6909       L1    14  0.58
      P1  H  7989  7998       L1     5  0.43
      P1  H  7997  8008       L1     5  0.60
      P1  H 10752 10763       L1     7  0.62

> <Gold.PLP.Chemscore.Internal.Correction>
0.1136

> <Gold.Rescore>
     Score         DG    S(hbond)    S(metal)    S(lipo)     H(rot)  DE(clash)    DE(int)     intcor
     11.92     -15.97       2.58        0.00     105.69       4.10       0.15       3.91       ----

> <Gold.Chemscore.Fitness>
11.9163

> <Gold.Chemscore.DG>
-15.9737

> <Gold.Chemscore.ZeroCoef>
-5.4800

> <Gold.Chemscore.Hbond>
2.5798

> <Gold.Chemscore.Metal>
0.0000

> <Gold.Chemscore.Lipo>
105.6860

> <Gold.Chemscore.Internal_Hbond>
0.0000

> <Gold.Chemscore.DEClash>
0.1455

> <Gold.Chemscore.DEInternal>
3.9118

> <Gold.Chemscore.Rot>
4.0968

> <Gold.Chemscore.Internal.Correction>
   9.000000E+99

> <Gold.Chemscore.Hbonds>
donor molecule, donor type, donor heavy atom, donor atom, acceptor molecule, acceptor atom, score
      L1  H    21    44       P1  7948  0.05
      P1  H  6896  6909       L1    14  0.13
      P1  H  7989  7998       L1     5  0.05
      P1  H  7997  8008       L1     5  0.03
      P1  H 10752 10763       L1     7  0.38

> <Gold.Chemscore.Hbond.Weighted>
-8.6164

> <Gold.Chemscore.Metal.Weighted>
-0.0000

> <Gold.Chemscore.Lipo.Weighted>
-12.3653

> <Gold.Chemscore.Internal_Hbond.Weighted>
0.0000

> <Gold.Chemscore.DEClash.Weighted>
0.1455

> <Gold.Chemscore.DEInternal.Weighted>
3.9118

> <Gold.Chemscore.Rot.Weighted>
10.4879

> <Gold.Chemscore.Internal.Correction.Weighted>
   9.000000E+99

> <Gold.Protein.RotatedTorsions>
[ 6907 6896 6895 6894 ] final   21.41 input  -60.11 | X-H torsion
[ 7974 7965 7964 7962 ] final  -59.76 input  175.53 | X-H torsion
[ 8008 7997 7996 7995 ] final  -21.32 input   59.86 | X-H torsion
[ 10167 10162 10161 10158 ] final  -47.22 input  -65.29 | X-H torsion
[ 10718 10713 10712 10709 ] final   94.97 input   66.30 | X-H torsion
[ 10763 10752 10751 10750 ] final   65.05 input  -60.55 | X-H torsion
[ 11005 11000 10999 10996 ] final  -74.98 input  -57.11 | X-H torsion

> <Gold.Protein.ActiveResidues>
 VAL166  LYS551  ARG553  GLY616  TRP617  ASP618  TYR619  PRO620  LYS621  CYS622 
 ASP623  PHE694  ASN695  SER759  ASP760  ASP761  ALA762  ILE779  LEU786  VAL792 
 PHE793  MET794  SER795  GLU796  ALA797  LYS798  CYS799  TRP800  GLU811  SER814 

> <Gold.Protein.RotatedAtoms>
  151.9113  135.0337  160.0514 H   0  0  0  0  0  0  0  0  0  0  0  0  # atno 6907 bound_to 6896
  152.2277  133.5028  159.5206 H   0  0  0  0  0  0  0  0  0  0  0  0  # atno 6908 bound_to 6896
  150.7017  134.1175  159.4065 H   0  0  0  0  0  0  0  0  0  0  0  0  # atno 6909 bound_to 6896
  145.8236  140.8525  143.0120 H   0  0  0  0  0  0  0  0  0  0  0  0  # atno 7974 bound_to 7965
  154.4713  140.2038  155.9988 H   0  0  0  0  0  0  0  0  0  0  0  0  # atno 8008 bound_to 7997
  156.1015  140.3243  155.7919 H   0  0  0  0  0  0  0  0  0  0  0  0  # atno 8009 bound_to 7997
  155.4789  140.0537  157.2960 H   0  0  0  0  0  0  0  0  0  0  0  0  # atno 8010 bound_to 7997
  140.6784  143.2794  151.3895 H   0  0  0  0  0  0  0  0  0  0  0  0  # atno 10167 bound_to 10162
  157.6943  131.0530  150.4268 H   0  0  0  0  0  0  0  0  0  0  0  0  # atno 10718 bound_to 10713
  153.0080  135.5371  154.6607 H   0  0  0  0  0  0  0  0  0  0  0  0  # atno 10763 bound_to 10752
  154.5816  135.2850  155.0729 H   0  0  0  0  0  0  0  0  0  0  0  0  # atno 10764 bound_to 10752
  154.1856  135.6509  153.5098 H   0  0  0  0  0  0  0  0  0  0  0  0  # atno 10765 bound_to 10752
  141.1641  133.6930  156.7447 H   0  0  0  0  0  0  0  0  0  0  0  0  # atno 11005 bound_to 11000
  144.6745  140.0569  143.7477 LP  0  0  0  0  0  0  0  0  0  0  0  0  # atno 17320 bound_to 7965
  145.9648  139.2827  143.1134 LP  0  0  0  0  0  0  0  0  0  0  0  0  # atno 17321 bound_to 7965
  139.6091  144.1136  152.2280 LP  0  0  0  0  0  0  0  0  0  0  0  0  # atno 17342 bound_to 10162
  140.0544  144.5907  150.7311 LP  0  0  0  0  0  0  0  0  0  0  0  0  # atno 17343 bound_to 10162
  156.4638  130.4037  149.6560 LP  0  0  0  0  0  0  0  0  0  0  0  0  # atno 17370 bound_to 10713
  156.3665  130.7508  151.2487 LP  0  0  0  0  0  0  0  0  0  0  0  0  # atno 17371 bound_to 10713
  140.2648  134.8438  157.3792 LP  0  0  0  0  0  0  0  0  0  0  0  0  # atno 17394 bound_to 11000
  140.1577  134.4769  155.7916 LP  0  0  0  0  0  0  0  0  0  0  0  0  # atno 17395 bound_to 11000

$$$$
