AV-unprocessed.smi:1444|AV-procd|sdf|5882|dock4
  -GOLD-   22720 5563D 1   1.00000     0.00000
 Structure written by MMmdl.
 43 44  0  0  0  0  0  0  0  0  1 V2000
  151.5858  138.2257  154.4787 C   0  0  0  0  0  0  0  0  0  0  0  0
  150.2333  138.1906  154.0363 O   0  0  0  0  0  0  0  0  0  0  0  0
  149.4746  139.3410  154.1402 C   0  0  0  0  0  0  0  0  0  0  0  0
  150.0437  140.4412  154.6939 N   0  0  0  0  0  0  0  0  0  0  0  0
  149.3057  141.5661  154.7932 C   0  0  0  0  0  0  0  0  0  0  0  0
  147.9758  141.6570  154.3436 C   0  0  0  0  0  0  0  0  0  0  0  0
  147.3832  140.5173  153.7693 C   0  0  0  0  0  0  0  0  0  0  0  0
  148.1397  139.3244  153.6726 C   0  0  0  0  0  0  0  0  0  0  0  0
  147.6436  138.1248  153.0919 N   0  0  0  0  0  0  0  0  0  0  0  0
  146.3800  137.6683  153.0710 C   0  0  0  0  0  0  0  0  0  0  0  0
  145.4123  138.2298  153.5843 O   0  0  0  0  0  0  0  0  0  0  0  0
  146.3017  136.4915  152.4331 N   0  0  0  0  0  0  0  0  0  0  0  0
  145.0844  135.7055  152.2444 C   0  0  1  0  0  0  0  0  0  0  0  0
  144.9838  135.3553  150.7514 C   0  0  0  0  0  0  0  0  0  0  0  0
  145.1194  134.4895  153.2039 C   0  0  0  0  0  0  0  0  0  0  0  0
  146.4444  133.9747  153.5626 N   0  0  0  0  0  0  0  0  0  0  0  0
  146.3799  132.8424  154.4873 C   0  0  0  0  0  0  0  0  0  0  0  0
  147.7766  132.2936  154.8276 C   0  0  0  0  0  0  0  0  0  0  0  0
  148.4484  131.9184  153.6304 O   0  0  0  0  0  0  0  0  0  0  0  0
  148.5713  132.9991  152.7128 C   0  0  0  0  0  0  0  0  0  0  0  0
  147.1736  133.5444  152.3720 C   0  0  0  0  0  0  0  0  0  0  0  0
  152.0369  137.2438  154.3370 H   0  0  0  0  0  0  0  0  0  0  0  0
  151.6535  138.4697  155.5399 H   0  0  0  0  0  0  0  0  0  0  0  0
  152.1737  138.9451  153.9071 H   0  0  0  0  0  0  0  0  0  0  0  0
  149.7923  142.4214  155.2380 H   0  0  0  0  0  0  0  0  0  0  0  0
  147.4241  142.5812  154.4326 H   0  0  0  0  0  0  0  0  0  0  0  0
  146.3707  140.5843  153.4025 H   0  0  0  0  0  0  0  0  0  0  0  0
  148.3465  137.5080  152.7114 H   0  0  0  0  0  0  0  0  0  0  0  0
  147.1514  136.1057  152.0479 H   0  0  0  0  0  0  0  0  0  0  0  0
  144.2265  136.3311  152.4983 H   0  0  0  0  0  0  0  0  0  0  0  0
  143.9812  135.0260  150.4844 H   0  0  0  0  0  0  0  0  0  0  0  0
  145.6929  134.5750  150.4734 H   0  0  0  0  0  0  0  0  0  0  0  0
  145.1905  136.2276  150.1301 H   0  0  0  0  0  0  0  0  0  0  0  0
  144.5398  134.6986  154.1043 H   0  0  0  0  0  0  0  0  0  0  0  0
  144.5753  133.6889  152.6999 H   0  0  0  0  0  0  0  0  0  0  0  0
  145.8884  133.1208  155.4141 H   0  0  0  0  0  0  0  0  0  0  0  0
  145.7802  132.0422  154.0505 H   0  0  0  0  0  0  0  0  0  0  0  0
  148.3645  133.0389  155.3657 H   0  0  0  0  0  0  0  0  0  0  0  0
  147.6930  131.4213  155.4759 H   0  0  0  0  0  0  0  0  0  0  0  0
  149.1978  133.7824  153.1426 H   0  0  0  0  0  0  0  0  0  0  0  0
  149.0718  132.6460  151.8111 H   0  0  0  0  0  0  0  0  0  0  0  0
  146.6048  132.7757  151.8464 H   0  0  0  0  0  0  0  0  0  0  0  0
  147.2804  134.3809  151.6800 H   0  0  0  0  0  0  0  0  0  0  0  0
  1  2  1  0  0  0  0
  1 22  1  0  0  0  0
  1 23  1  0  0  0  0
  1 24  1  0  0  0  0
  2  3  1  0  0  0  0
  3  8  1  0  0  0  0
  3  4  2  0  0  0  0
  4  5  1  0  0  0  0
  5  6  2  0  0  0  0
  5 25  1  0  0  0  0
  6  7  1  0  0  0  0
  6 26  1  0  0  0  0
  7  8  2  0  0  0  0
  7 27  1  0  0  0  0
  8  9  1  0  0  0  0
  9 10  1  0  0  0  0
  9 28  1  0  0  0  0
 10 11  2  0  0  0  0
 10 12  1  0  0  0  0
 12 13  1  0  0  0  0
 12 29  1  0  0  0  0
 13 14  1  0  0  0  0
 13 15  1  0  0  0  0
 13 30  1  0  0  0  0
 14 31  1  0  0  0  0
 14 32  1  0  0  0  0
 14 33  1  0  0  0  0
 15 16  1  0  0  0  0
 15 34  1  0  0  0  0
 15 35  1  0  0  0  0
 16 21  1  0  0  0  0
 16 17  1  0  0  0  0
 17 18  1  0  0  0  0
 17 36  1  0  0  0  0
 17 37  1  0  0  0  0
 18 19  1  0  0  0  0
 18 38  1  0  0  0  0
 18 39  1  0  0  0  0
 19 20  1  0  0  0  0
 20 21  1  0  0  0  0
 20 40  1  0  0  0  0
 20 41  1  0  0  0  0
 21 42  1  0  0  0  0
 21 43  1  0  0  0  0
M  END
> <s_m_source_file>
AV-unprocessed.smi

> <i_m_source_file_index>
1444

> <i_lp_mmshare_version>
43012

> <i_f3d_flags>
0

> <s_epik_input>
W0NIM11PYzFuW2NIXVtjSF1bY0hdYzFbTkhdQyg9TylbTkhdW0NASF0oW0NIM10pW0NIMl1OMltDSDJdW0NIMl1PW0NIMl1bQ0gyXTI=

> <s_epik_cmdline>
J2VwaWtfcHl0aG9uJywgJy1waCcsICc3LjAnLCAnLXRuJywgJzgnLCAnLW1hJywgJzIwMCcsICctbWV0YWxfYmluZGluZycsICctaW1hZScsICc8aW5maWxlLm1hZT4nLCAnLW9tYWUnLCAnPG91dGZpbGUubWFlPic=

> <r_lp_tautomer_probability>
1

> <r_epik_Ionization_Penalty>
0.266086

> <r_epik_Ionization_Penalty_Charging>
0

> <r_epik_Ionization_Penalty_Neutral>
0.266086

> <r_epik_State_Penalty>
0.257924

> <r_epik_Charging_Adjusted_Penalty>
0.257924

> <i_epik_Tot_Q>
0

> <i_epik_Tot_abs_Q>
0

> <r_epik_Metal_State_Penalty>
0.25792

> <b_epik_Metal_Only>
0

> <s_lp_Force_Field>
OPLS_2005

> <r_lp_Energy>
29.2348

> <b_lp_Chiralities_Consistent>
1

> <s_lp_Variant>
AV-unprocessed.smi:1444-2

> <Gold.Version>
5.8.1

> <Gold.Id.Protein>
6NUR|6NUR_protein|mol2

> <Gold.PLP.Fitness>
40.8365

> <Gold.PLP.PLP>
-30.5397

> <Gold.PLP.part.hbond>
-3.0476

> <Gold.PLP.part.metal>
0.0000

> <Gold.PLP.part.buried>
-2.0071

> <Gold.PLP.part.nonpolar>
-27.3899

> <Gold.PLP.part.repulsive>
2.0827

> <Gold.PLP.ligand.clash>
0.0000

> <Gold.PLP.ligand.torsion>
0.7262

> <Gold.PLP.Chemscore.Hbond>
2.9040

> <Gold.PLP.Chemscore.CHOScore>
0.9990

> <Gold.PLP.Chemscore.Metal>
0.0000

> <Gold.Chemscore.Hbonds>
donor molecule, donor type, donor heavy atom, donor atom, acceptor molecule, acceptor atom, score
      L1  H     9    28       P1  7948  1.00
      L1  H    12    29       P1  7948  0.99
      P1  H  7989  7998       L1     4  0.94
      L1  C     5    25       P1  8028  0.98

> <Gold.PLP.Chemscore.Internal.Correction>
0.0403

> <Gold.Rescore>
     Score         DG    S(hbond)    S(metal)    S(lipo)     H(rot)  DE(clash)    DE(int)     intcor
     14.46     -16.39       2.25        0.00      66.64       1.72       0.23       1.71       ----

> <Gold.Chemscore.Fitness>
14.4557

> <Gold.Chemscore.DG>
-16.3929

> <Gold.Chemscore.ZeroCoef>
-5.4800

> <Gold.Chemscore.Hbond>
2.2504

> <Gold.Chemscore.Metal>
0.0000

> <Gold.Chemscore.Lipo>
66.6415

> <Gold.Chemscore.Internal_Hbond>
0.0000

> <Gold.Chemscore.DEClash>
0.2257

> <Gold.Chemscore.DEInternal>
1.7116

> <Gold.Chemscore.Rot>
1.7189

> <Gold.Chemscore.Internal.Correction>
   9.000000E+99

> <Gold.Chemscore.Hbonds>
donor molecule, donor type, donor heavy atom, donor atom, acceptor molecule, acceptor atom, score
      L1  H     9    28       P1  7948  0.99
      L1  H    12    29       P1  7948  0.93
      P1  H  7989  7998       L1     4  0.23

> <Gold.Chemscore.Hbond.Weighted>
-7.5163

> <Gold.Chemscore.Metal.Weighted>
-0.0000

> <Gold.Chemscore.Lipo.Weighted>
-7.7971

> <Gold.Chemscore.Internal_Hbond.Weighted>
0.0000

> <Gold.Chemscore.DEClash.Weighted>
0.2257

> <Gold.Chemscore.DEInternal.Weighted>
1.7116

> <Gold.Chemscore.Rot.Weighted>
4.4004

> <Gold.Chemscore.Internal.Correction.Weighted>
   9.000000E+99

> <Gold.Protein.RotatedTorsions>
[ 6907 6896 6895 6894 ] final  154.11 input  -60.11 | X-H torsion
[ 7974 7965 7964 7962 ] final  -65.22 input  175.53 | X-H torsion
[ 8008 7997 7996 7995 ] final  116.46 input   59.86 | X-H torsion
[ 10167 10162 10161 10158 ] final  -24.47 input  -65.29 | X-H torsion
[ 10718 10713 10712 10709 ] final   55.21 input   66.30 | X-H torsion
[ 10763 10752 10751 10750 ] final  117.87 input  -60.55 | X-H torsion
[ 11005 11000 10999 10996 ] final -169.80 input  -57.11 | X-H torsion

> <Gold.Protein.ActiveResidues>
 VAL166  LYS551  ARG553  GLY616  TRP617  ASP618  TYR619  PRO620  LYS621  CYS622 
 ASP623  PHE694  ASN695  SER759  ASP760  ASP761  ALA762  ILE779  LEU786  VAL792 
 PHE793  MET794  SER795  GLU796  ALA797  LYS798  CYS799  TRP800  GLU811  SER814 

> <Gold.Protein.RotatedAtoms>
  152.0632  133.4072  159.4426 H   0  0  0  0  0  0  0  0  0  0  0  0  # atno 6907 bound_to 6896
  150.6865  134.3176  159.4782 H   0  0  0  0  0  0  0  0  0  0  0  0  # atno 6908 bound_to 6896
  152.1000  134.9348  160.0620 H   0  0  0  0  0  0  0  0  0  0  0  0  # atno 6909 bound_to 6896
  145.7570  140.8880  143.0450 H   0  0  0  0  0  0  0  0  0  0  0  0  # atno 7974 bound_to 7965
  156.2440  140.2917  156.0527 H   0  0  0  0  0  0  0  0  0  0  0  0  # atno 8008 bound_to 7997
  155.1864  140.0405  157.2909 H   0  0  0  0  0  0  0  0  0  0  0  0  # atno 8009 bound_to 7997
  154.6225  140.2479  155.7539 H   0  0  0  0  0  0  0  0  0  0  0  0  # atno 8010 bound_to 7997
  140.7288  143.4350  151.0743 H   0  0  0  0  0  0  0  0  0  0  0  0  # atno 10167 bound_to 10162
  157.5325  130.8640  149.8708 H   0  0  0  0  0  0  0  0  0  0  0  0  # atno 10718 bound_to 10713
  153.5589  135.3525  155.2791 H   0  0  0  0  0  0  0  0  0  0  0  0  # atno 10763 bound_to 10752
  154.8697  135.4132  154.2853 H   0  0  0  0  0  0  0  0  0  0  0  0  # atno 10764 bound_to 10752
  153.3594  135.7059  153.6793 H   0  0  0  0  0  0  0  0  0  0  0  0  # atno 10765 bound_to 10752
  140.5267  134.5657  157.5063 H   0  0  0  0  0  0  0  0  0  0  0  0  # atno 11005 bound_to 11000
  144.6838  139.9670  143.7481 LP  0  0  0  0  0  0  0  0  0  0  0  0  # atno 17320 bound_to 7965
  146.0301  139.3327  143.0760 LP  0  0  0  0  0  0  0  0  0  0  0  0  # atno 17321 bound_to 7965
  139.8011  143.8082  152.3163 LP  0  0  0  0  0  0  0  0  0  0  0  0  # atno 17342 bound_to 10162
  139.8099  144.7340  150.9711 LP  0  0  0  0  0  0  0  0  0  0  0  0  # atno 17343 bound_to 10162
  156.0433  130.3733  150.1379 LP  0  0  0  0  0  0  0  0  0  0  0  0  # atno 17370 bound_to 10713
  156.9563  130.9791  151.3488 LP  0  0  0  0  0  0  0  0  0  0  0  0  # atno 17371 bound_to 10713
  139.9576  134.7507  156.0306 LP  0  0  0  0  0  0  0  0  0  0  0  0  # atno 17394 bound_to 11000
  141.1304  133.6588  156.3450 LP  0  0  0  0  0  0  0  0  0  0  0  0  # atno 17395 bound_to 11000

$$$$
