AV-unprocessed.smi:438|AV-procd|sdf|2578|dock8
  -GOLD-   2262022563D 1   1.00000     0.00000
 Structure written by MMmdl.
 48 49  0  0  0  0  0  0  0  0  1 V2000
  147.5683  133.0172  159.8578 C   0  0  0  0  0  0  0  0  0  0  0  0
  147.8140  134.4736  160.2061 C   0  0  0  0  0  0  0  0  0  0  0  0
  148.7076  135.1212  159.4269 N   0  0  0  0  0  0  0  0  0  0  0  0
  148.9435  136.3978  159.7258 C   0  0  0  0  0  0  0  0  0  0  0  0
  150.1912  137.1991  158.7395 S   0  0  0  0  0  0  0  0  0  0  0  0
  149.3079  138.6956  158.1842 C   0  0  0  0  0  0  0  0  0  0  0  0
  150.2181  139.8278  157.6982 C   0  0  0  0  0  0  0  0  0  0  0  0
  150.2453  140.1171  156.5024 O   0  0  0  0  0  0  0  0  0  0  0  0
  150.9371  140.4743  158.6297 N   0  0  0  0  0  0  0  0  0  0  0  0
  151.7489  141.6654  158.3940 C   0  0  1  0  0  0  0  0  0  0  0  0
  150.8547  142.7887  157.8263 C   0  0  0  0  0  0  0  0  0  0  0  0
  151.6404  144.0895  157.6138 C   0  0  0  0  0  0  0  0  0  0  0  0
  152.3169  144.5386  158.9160 C   0  0  0  0  0  0  0  0  0  0  0  0
  153.2200  143.4308  159.4792 C   0  0  0  0  0  0  0  0  0  0  0  0
  152.4473  142.1144  159.7014 C   0  0  2  0  0  0  0  0  0  0  0  0
  153.3784  141.0306  160.2739 C   0  0  0  0  0  0  0  0  0  0  0  0
  148.3825  137.1198  160.6972 N   0  0  0  0  0  0  0  0  0  0  0  0
  147.4891  136.4859  161.4862 C   0  0  0  0  0  0  0  0  0  0  0  0
  146.9039  137.2012  162.4902 O   0  0  0  0  0  0  0  0  0  0  0  0
  147.1621  135.1211  161.2866 C   0  0  0  0  0  0  0  0  0  0  0  0
  146.1622  134.4030  162.1836 C   0  0  0  0  0  0  0  0  0  0  0  0
  144.9357  133.9111  161.4040 C   0  0  0  0  0  0  0  0  0  0  0  0
  144.0799  133.1925  162.2648 O   0  0  0  0  0  0  0  0  0  0  0  0
  146.5007  132.8203  159.7585 H   0  0  0  0  0  0  0  0  0  0  0  0
  147.9710  132.3700  160.6372 H   0  0  0  0  0  0  0  0  0  0  0  0
  148.0468  132.7469  158.9155 H   0  0  0  0  0  0  0  0  0  0  0  0
  148.6264  138.4209  157.3792 H   0  0  0  0  0  0  0  0  0  0  0  0
  148.6917  139.0587  159.0073 H   0  0  0  0  0  0  0  0  0  0  0  0
  150.8586  140.1609  159.5867 H   0  0  0  0  0  0  0  0  0  0  0  0
  152.5229  141.4307  157.6605 H   0  0  0  0  0  0  0  0  0  0  0  0
  150.4058  142.4760  156.8827 H   0  0  0  0  0  0  0  0  0  0  0  0
  150.0278  142.9804  158.5111 H   0  0  0  0  0  0  0  0  0  0  0  0
  152.3940  143.9404  156.8392 H   0  0  0  0  0  0  0  0  0  0  0  0
  150.9726  144.8715  157.2514 H   0  0  0  0  0  0  0  0  0  0  0  0
  152.9019  145.4414  158.7387 H   0  0  0  0  0  0  0  0  0  0  0  0
  151.5564  144.8016  159.6524 H   0  0  0  0  0  0  0  0  0  0  0  0
  154.0506  143.2582  158.7935 H   0  0  0  0  0  0  0  0  0  0  0  0
  153.6616  143.7667  160.4181 H   0  0  0  0  0  0  0  0  0  0  0  0
  151.6750  142.3086  160.4479 H   0  0  0  0  0  0  0  0  0  0  0  0
  154.1599  140.7647  159.5615 H   0  0  0  0  0  0  0  0  0  0  0  0
  152.8321  140.1210  160.5242 H   0  0  0  0  0  0  0  0  0  0  0  0
  153.8652  141.3754  161.1865 H   0  0  0  0  0  0  0  0  0  0  0  0
  147.2589  138.0733  162.5692 H   0  0  0  0  0  0  0  0  0  0  0  0
  146.6467  133.5660  162.6860 H   0  0  0  0  0  0  0  0  0  0  0  0
  145.8489  135.0760  162.9826 H   0  0  0  0  0  0  0  0  0  0  0  0
  144.3870  134.7513  160.9772 H   0  0  0  0  0  0  0  0  0  0  0  0
  145.2349  133.2634  160.5794 H   0  0  0  0  0  0  0  0  0  0  0  0
  144.2410  133.4742  163.1523 H   0  0  0  0  0  0  0  0  0  0  0  0
  1  2  1  0  0  0  0
  1 24  1  0  0  0  0
  1 25  1  0  0  0  0
  1 26  1  0  0  0  0
  2 20  1  0  0  0  0
  2  3  2  0  0  0  0
  3  4  1  0  0  0  0
  4  5  1  0  0  0  0
  4 17  2  0  0  0  0
  5  6  1  0  0  0  0
  6  7  1  0  0  0  0
  6 27  1  0  0  0  0
  6 28  1  0  0  0  0
  7  8  2  0  0  0  0
  7  9  1  0  0  0  0
  9 10  1  0  0  0  0
  9 29  1  0  0  0  0
 10 15  1  0  0  0  0
 10 11  1  0  0  0  0
 10 30  1  0  0  0  0
 11 12  1  0  0  0  0
 11 31  1  0  0  0  0
 11 32  1  0  0  0  0
 12 13  1  0  0  0  0
 12 33  1  0  0  0  0
 12 34  1  0  0  0  0
 13 14  1  0  0  0  0
 13 35  1  0  0  0  0
 13 36  1  0  0  0  0
 14 15  1  0  0  0  0
 14 37  1  0  0  0  0
 14 38  1  0  0  0  0
 15 16  1  0  0  0  0
 15 39  1  0  0  0  0
 16 40  1  0  0  0  0
 16 41  1  0  0  0  0
 16 42  1  0  0  0  0
 17 18  1  0  0  0  0
 18 19  1  0  0  0  0
 18 20  2  0  0  0  0
 19 43  1  0  0  0  0
 20 21  1  0  0  0  0
 21 22  1  0  0  0  0
 21 44  1  0  0  0  0
 21 45  1  0  0  0  0
 22 23  1  0  0  0  0
 22 46  1  0  0  0  0
 22 47  1  0  0  0  0
 23 48  1  0  0  0  0
M  END
> <s_m_source_file>
AV-unprocessed.smi

> <i_m_source_file_index>
438

> <i_lp_mmshare_version>
43012

> <i_f3d_flags>
0

> <s_epik_input>
W09IXVtDSDJdW0NIMl1jMWMoW09IXSluYyhuYzFbQ0gzXSlTW0NIMl1DKD1PKVtOSF1bQ0BASF0yW0NIMl1bQ0gyXVtDSDJdW0NIMl1bQ0BIXTJbQ0gzXQ==

> <s_epik_cmdline>
J2VwaWtfcHl0aG9uJywgJy1waCcsICc3LjAnLCAnLXRuJywgJzgnLCAnLW1hJywgJzIwMCcsICctbWV0YWxfYmluZGluZycsICctaW1hZScsICc8aW5maWxlLm1hZT4nLCAnLW9tYWUnLCAnPG91dGZpbGUubWFlPic=

> <r_lp_tautomer_probability>
0.0660145

> <r_epik_Ionization_Penalty>
2.91405

> <r_epik_Ionization_Penalty_Charging>
0

> <r_epik_Ionization_Penalty_Neutral>
2.91405

> <r_epik_State_Penalty>
2.44767

> <r_epik_Charging_Adjusted_Penalty>
2.44767

> <i_epik_Tot_Q>
0

> <i_epik_Tot_abs_Q>
0

> <r_epik_Metal_State_Penalty>
3.04288

> <b_epik_Metal_Only>
0

> <s_lp_Force_Field>
OPLS_2005

> <r_lp_Energy>
-0.453605

> <b_lp_Chiralities_Consistent>
1

> <s_lp_Variant>
AV-unprocessed.smi:438-16

> <Gold.Version>
5.8.1

> <Gold.Id.Protein>
6NUR|6NUR_protein|mol2

> <Gold.PLP.Fitness>
53.2064

> <Gold.PLP.PLP>
-47.4890

> <Gold.PLP.part.hbond>
-5.1691

> <Gold.PLP.part.metal>
0.0000

> <Gold.PLP.part.buried>
-5.3111

> <Gold.PLP.part.nonpolar>
-39.2212

> <Gold.PLP.part.repulsive>
0.1786

> <Gold.PLP.ligand.clash>
0.0000

> <Gold.PLP.ligand.torsion>
0.2508

> <Gold.PLP.Chemscore.Hbond>
2.0644

> <Gold.PLP.Chemscore.CHOScore>
0.0000

> <Gold.PLP.Chemscore.Metal>
0.0000

> <Gold.Chemscore.Hbonds>
donor molecule, donor type, donor heavy atom, donor atom, acceptor molecule, acceptor atom, score
      P1  H  6896  6908       L1     3  0.84
      P1  H  6931  6943       L1    17  0.81
      P1  H  6934  6947       L1    17  0.13

> <Gold.PLP.Chemscore.Internal.Correction>
0.0260

> <Gold.Rescore>
     Score         DG    S(hbond)    S(metal)    S(lipo)     H(rot)  DE(clash)    DE(int)     intcor
     13.87     -14.17       1.43        0.00     108.56       3.44       0.07       0.23       ----

> <Gold.Chemscore.Fitness>
13.8728

> <Gold.Chemscore.DG>
-14.1670

> <Gold.Chemscore.ZeroCoef>
-5.4800

> <Gold.Chemscore.Hbond>
1.4316

> <Gold.Chemscore.Metal>
0.0000

> <Gold.Chemscore.Lipo>
108.5586

> <Gold.Chemscore.Internal_Hbond>
0.0000

> <Gold.Chemscore.DEClash>
0.0692

> <Gold.Chemscore.DEInternal>
0.2250

> <Gold.Chemscore.Rot>
3.4359

> <Gold.Chemscore.Internal.Correction>
   9.000000E+99

> <Gold.Chemscore.Hbonds>
donor molecule, donor type, donor heavy atom, donor atom, acceptor molecule, acceptor atom, score
      P1  H  6896  6908       L1     3  0.12
      P1  H  6931  6943       L1    17  0.18
      P1  H  6934  6947       L1    17  0.01

> <Gold.Chemscore.Hbond.Weighted>
-4.7816

> <Gold.Chemscore.Metal.Weighted>
-0.0000

> <Gold.Chemscore.Lipo.Weighted>
-12.7014

> <Gold.Chemscore.Internal_Hbond.Weighted>
0.0000

> <Gold.Chemscore.DEClash.Weighted>
0.0692

> <Gold.Chemscore.DEInternal.Weighted>
0.2250

> <Gold.Chemscore.Rot.Weighted>
8.7960

> <Gold.Chemscore.Internal.Correction.Weighted>
   9.000000E+99

> <Gold.Protein.RotatedTorsions>
[ 6907 6896 6895 6894 ] final  162.99 input  -60.11 | X-H torsion
[ 7974 7965 7964 7962 ] final  133.61 input  175.53 | X-H torsion
[ 8008 7997 7996 7995 ] final -142.66 input   59.86 | X-H torsion
[ 10167 10162 10161 10158 ] final -102.54 input  -65.29 | X-H torsion
[ 10718 10713 10712 10709 ] final -131.73 input   66.30 | X-H torsion
[ 10763 10752 10751 10750 ] final  -26.75 input  -60.55 | X-H torsion
[ 11005 11000 10999 10996 ] final -140.64 input  -57.11 | X-H torsion

> <Gold.Protein.ActiveResidues>
 VAL166  LYS551  ARG553  GLY616  TRP617  ASP618  TYR619  PRO620  LYS621  CYS622 
 ASP623  PHE694  ASN695  SER759  ASP760  ASP761  ALA762  ILE779  LEU786  VAL792 
 PHE793  MET794  SER795  GLU796  ALA797  LYS798  CYS799  TRP800  GLU811  SER814 

> <Gold.Protein.RotatedAtoms>
  151.9320  133.3614  159.3934 H   0  0  0  0  0  0  0  0  0  0  0  0  # atno 6907 bound_to 6896
  150.7015  134.4527  159.5353 H   0  0  0  0  0  0  0  0  0  0  0  0  # atno 6908 bound_to 6896
  152.2169  134.8449  160.0541 H   0  0  0  0  0  0  0  0  0  0  0  0  # atno 6909 bound_to 6896
  144.9848  139.4467  143.5368 H   0  0  0  0  0  0  0  0  0  0  0  0  # atno 7974 bound_to 7965
  155.4978  140.0573  157.2944 H   0  0  0  0  0  0  0  0  0  0  0  0  # atno 8008 bound_to 7997
  154.4598  140.1991  156.0226 H   0  0  0  0  0  0  0  0  0  0  0  0  # atno 8009 bound_to 7997
  156.0869  140.3239  155.7770 H   0  0  0  0  0  0  0  0  0  0  0  0  # atno 8010 bound_to 7997
  140.2296  143.3616  152.0898 H   0  0  0  0  0  0  0  0  0  0  0  0  # atno 10167 bound_to 10162
  156.2274  130.7016  151.0821 H   0  0  0  0  0  0  0  0  0  0  0  0  # atno 10718 bound_to 10713
  153.7210  135.6945  153.5013 H   0  0  0  0  0  0  0  0  0  0  0  0  # atno 10763 bound_to 10752
  153.2204  135.4372  155.0481 H   0  0  0  0  0  0  0  0  0  0  0  0  # atno 10764 bound_to 10752
  154.8284  135.3459  154.6743 H   0  0  0  0  0  0  0  0  0  0  0  0  # atno 10765 bound_to 10752
  140.8402  134.2411  157.4814 H   0  0  0  0  0  0  0  0  0  0  0  0  # atno 11005 bound_to 11000
  146.3417  139.9143  142.8776 LP  0  0  0  0  0  0  0  0  0  0  0  0  # atno 17320 bound_to 7965
  145.2370  140.9995  143.3958 LP  0  0  0  0  0  0  0  0  0  0  0  0  # atno 17321 bound_to 7965
  139.5115  144.6901  151.5782 LP  0  0  0  0  0  0  0  0  0  0  0  0  # atno 17342 bound_to 10162
  140.6195  143.9285  150.6515 LP  0  0  0  0  0  0  0  0  0  0  0  0  # atno 17343 bound_to 10162
  157.7117  131.0731  150.6477 LP  0  0  0  0  0  0  0  0  0  0  0  0  # atno 17370 bound_to 10713
  156.6543  130.4494  149.5709 LP  0  0  0  0  0  0  0  0  0  0  0  0  # atno 17371 bound_to 10713
  139.8703  134.9631  156.4453 LP  0  0  0  0  0  0  0  0  0  0  0  0  # atno 17394 bound_to 11000
  140.8903  133.7853  155.9564 LP  0  0  0  0  0  0  0  0  0  0  0  0  # atno 17395 bound_to 11000

$$$$
