AV-unprocessed.smi:3301|AV-procd|sdf|12652|dock10
  -GOLD-   2272018583D 1   1.00000     0.00000
 Structure written by MMmdl.
 37 38  0  0  0  0  0  0  0  0  2 V2000
  148.8546  140.3403  157.2414 C   0  0  0  0  0  0  0  0  0  0  0  0
  148.9091  141.4585  156.1921 C   0  0  2  0  0  0  0  0  0  0  0  0
  149.2886  140.9025  154.8017 C   0  0  0  0  0  0  0  0  0  0  0  0
  148.1561  140.2977  154.0916 N   0  0  0  0  0  0  0  0  0  0  0  0
  148.1730  139.1763  153.3024 C   0  0  0  0  0  0  0  0  0  0  0  0
  146.8941  139.0043  152.8398 C   0  0  0  0  0  0  0  0  0  0  0  0
  146.1492  140.0218  153.3731 N   0  3  0  0  0  0  0  0  0  0  0  0
  146.9169  140.8034  154.1395 C   0  0  0  0  0  0  0  0  0  0  0  0
  149.8655  142.4748  156.6302 N   0  0  0  0  0  0  0  0  0  0  0  0
  151.0755  142.2340  157.1599 C   0  0  0  0  0  0  0  0  0  0  0  0
  151.5318  141.1004  157.3160 O   0  0  0  0  0  0  0  0  0  0  0  0
  151.8925  143.4649  157.5702 C   0  0  0  0  0  0  0  0  0  0  0  0
  152.2448  143.4597  158.9909 N   0  0  0  0  0  0  0  0  0  0  0  0
  152.9721  142.3422  159.5700 C   0  0  0  0  0  0  0  0  0  0  0  0
  153.2588  142.7535  161.0220 C   0  0  0  0  0  0  0  0  0  0  0  0
  152.4506  144.0320  161.2698 C   0  0  0  0  0  0  0  0  0  0  0  0
  151.9366  144.4030  159.8898 C   0  0  0  0  0  0  0  0  0  0  0  0
  151.3152  145.4413  159.6667 O   0  0  0  0  0  0  0  0  0  0  0  0
  148.1262  139.5779  156.9642 H   0  0  0  0  0  0  0  0  0  0  0  0
  148.5648  140.7306  158.2177 H   0  0  0  0  0  0  0  0  0  0  0  0
  149.8225  139.8501  157.3527 H   0  0  0  0  0  0  0  0  0  0  0  0
  147.9096  141.8938  156.1374 H   0  0  0  0  0  0  0  0  0  0  0  0
  149.7021  141.6906  154.1705 H   0  0  0  0  0  0  0  0  0  0  0  0
  150.0594  140.1362  154.8954 H   0  0  0  0  0  0  0  0  0  0  0  0
  149.0722  138.6048  153.1224 H   0  0  0  0  0  0  0  0  0  0  0  0
  146.4709  138.2549  152.1871 H   0  0  0  0  0  0  0  0  0  0  0  0
  146.6011  141.6789  154.6784 H   0  0  0  0  0  0  0  0  0  0  0  0
  149.5793  143.4384  156.5315 H   0  0  0  0  0  0  0  0  0  0  0  0
  152.8002  143.4934  156.9664 H   0  0  0  0  0  0  0  0  0  0  0  0
  151.3379  144.3765  157.3407 H   0  0  0  0  0  0  0  0  0  0  0  0
  152.3524  141.4453  159.5298 H   0  0  0  0  0  0  0  0  0  0  0  0
  153.8933  142.1457  159.0200 H   0  0  0  0  0  0  0  0  0  0  0  0
  152.9849  141.9621  161.7208 H   0  0  0  0  0  0  0  0  0  0  0  0
  154.3231  142.9520  161.1547 H   0  0  0  0  0  0  0  0  0  0  0  0
  151.6082  143.8496  161.9376 H   0  0  0  0  0  0  0  0  0  0  0  0
  153.0642  144.8302  161.6891 H   0  0  0  0  0  0  0  0  0  0  0  0
  145.1604  140.1657  153.2107 H   0  0  0  0  0  0  0  0  0  0  0  0
  1  2  1  0  0  0  0
  1 19  1  0  0  0  0
  1 20  1  0  0  0  0
  1 21  1  0  0  0  0
  2  3  1  0  0  0  0
  2  9  1  0  0  0  0
  2 22  1  0  0  0  0
  3  4  1  0  0  0  0
  3 23  1  0  0  0  0
  3 24  1  0  0  0  0
  4  8  1  0  0  0  0
  4  5  1  0  0  0  0
  5  6  2  0  0  0  0
  5 25  1  0  0  0  0
  6  7  1  0  0  0  0
  6 26  1  0  0  0  0
  7  8  2  0  0  0  0
  7 37  1  0  0  0  0
  8 27  1  0  0  0  0
  9 10  1  0  0  0  0
  9 28  1  0  0  0  0
 10 11  2  0  0  0  0
 10 12  1  0  0  0  0
 12 13  1  0  0  0  0
 12 29  1  0  0  0  0
 12 30  1  0  0  0  0
 13 17  1  0  0  0  0
 13 14  1  0  0  0  0
 14 15  1  0  0  0  0
 14 31  1  0  0  0  0
 14 32  1  0  0  0  0
 15 16  1  0  0  0  0
 15 33  1  0  0  0  0
 15 34  1  0  0  0  0
 16 17  1  0  0  0  0
 16 35  1  0  0  0  0
 16 36  1  0  0  0  0
 17 18  2  0  0  0  0
M  CHG  1   7   1
M  END
> <s_m_source_file>
AV-unprocessed.smi

> <i_m_source_file_index>
3301

> <i_lp_mmshare_version>
43012

> <i_f3d_flags>
0

> <s_epik_input>
W2NIXTFuW2NIXVtjSF1uMVtDSDJdW0NAQEhdKFtDSDNdKVtOSF1DKD1PKVtDSDJdTjJbQ0gyXVtDSDJdW0NIMl1DMj1P

> <s_epik_cmdline>
J2VwaWtfcHl0aG9uJywgJy1waCcsICc3LjAnLCAnLXRuJywgJzgnLCAnLW1hJywgJzIwMCcsICctbWV0YWxfYmluZGluZycsICctaW1hZScsICc8aW5maWxlLm1hZT4nLCAnLW9tYWUnLCAnPG91dGZpbGUubWFlPic=

> <r_lp_tautomer_probability>
1

> <r_epik_Ionization_Penalty>
0.254232

> <r_epik_Ionization_Penalty_Charging>
0

> <r_epik_Ionization_Penalty_Neutral>
0.254232

> <r_epik_State_Penalty>
0.245698

> <r_epik_Charging_Adjusted_Penalty>
0.245698

> <i_epik_Tot_Q>
1

> <i_epik_Tot_abs_Q>
1

> <r_epik_Metal_State_Penalty>
0.5358

> <b_epik_Metal_Only>
0

> <s_lp_Force_Field>
OPLS_2005

> <r_lp_Energy>
13.6599

> <b_lp_Chiralities_Consistent>
1

> <s_lp_Variant>
AV-unprocessed.smi:3301-1

> <Gold.Version>
5.8.1

> <Gold.Id.Protein>
6NUR|6NUR_protein|mol2

> <Gold.PLP.Fitness>
48.3493

> <Gold.PLP.PLP>
-39.0690

> <Gold.PLP.part.hbond>
-2.5809

> <Gold.PLP.part.metal>
0.0000

> <Gold.PLP.part.buried>
-1.8272

> <Gold.PLP.part.nonpolar>
-35.2251

> <Gold.PLP.part.repulsive>
0.2452

> <Gold.PLP.ligand.clash>
0.0000

> <Gold.PLP.ligand.torsion>
0.7780

> <Gold.PLP.Chemscore.Hbond>
3.0000

> <Gold.PLP.Chemscore.CHOScore>
0.6032

> <Gold.PLP.Chemscore.Metal>
0.0000

> <Gold.Chemscore.Hbonds>
donor molecule, donor type, donor heavy atom, donor atom, acceptor molecule, acceptor atom, score
      L1  H     7    37       P1 10175  2.00
      L1  H     9    28       P1  8028  1.00
      L1  C     5    25       P1  7948  0.56
      L1  C     5    25       P1  7957  0.22

> <Gold.PLP.Chemscore.Internal.Correction>
0.0267

> <Gold.Rescore>
     Score         DG    S(hbond)    S(metal)    S(lipo)     H(rot)  DE(clash)    DE(int)     intcor
     11.24     -14.31       1.97        0.00      70.45       2.35       0.10       2.98       ----

> <Gold.Chemscore.Fitness>
11.2376

> <Gold.Chemscore.DG>
-14.3095

> <Gold.Chemscore.ZeroCoef>
-5.4800

> <Gold.Chemscore.Hbond>
1.9746

> <Gold.Chemscore.Metal>
0.0000

> <Gold.Chemscore.Lipo>
70.4489

> <Gold.Chemscore.Internal_Hbond>
0.0000

> <Gold.Chemscore.DEClash>
0.0966

> <Gold.Chemscore.DEInternal>
2.9753

> <Gold.Chemscore.Rot>
2.3470

> <Gold.Chemscore.Internal.Correction>
   9.000000E+99

> <Gold.Chemscore.Hbonds>
donor molecule, donor type, donor heavy atom, donor atom, acceptor molecule, acceptor atom, score
      L1  H     7    37       P1 10175  1.00
      L1  H     9    28       P1  8028  0.97

> <Gold.Chemscore.Hbond.Weighted>
-6.5953

> <Gold.Chemscore.Metal.Weighted>
-0.0000

> <Gold.Chemscore.Lipo.Weighted>
-8.2425

> <Gold.Chemscore.Internal_Hbond.Weighted>
0.0000

> <Gold.Chemscore.DEClash.Weighted>
0.0966

> <Gold.Chemscore.DEInternal.Weighted>
2.9753

> <Gold.Chemscore.Rot.Weighted>
6.0083

> <Gold.Chemscore.Internal.Correction.Weighted>
   9.000000E+99

> <Gold.Protein.RotatedTorsions>
[ 6907 6896 6895 6894 ] final  -43.46 input  -60.11 | X-H torsion
[ 7974 7965 7964 7962 ] final  -75.55 input  175.53 | X-H torsion
[ 8008 7997 7996 7995 ] final   16.48 input   59.86 | X-H torsion
[ 10167 10162 10161 10158 ] final   41.28 input  -65.29 | X-H torsion
[ 10718 10713 10712 10709 ] final -132.40 input   66.30 | X-H torsion
[ 10763 10752 10751 10750 ] final    8.12 input  -60.55 | X-H torsion
[ 11005 11000 10999 10996 ] final -105.52 input  -57.11 | X-H torsion

> <Gold.Protein.ActiveResidues>
 VAL166  LYS551  ARG553  GLY616  TRP617  ASP618  TYR619  PRO620  LYS621  CYS622 
 ASP623  PHE694  ASN695  SER759  ASP760  ASP761  ALA762  ILE779  LEU786  VAL792 
 PHE793  MET794  SER795  GLU796  ALA797  LYS798  CYS799  TRP800  GLU811  SER814 

> <Gold.Protein.RotatedAtoms>
  150.9437  134.8844  159.7628 H   0  0  0  0  0  0  0  0  0  0  0  0  # atno 6907 bound_to 6896
  152.5091  134.3905  159.9392 H   0  0  0  0  0  0  0  0  0  0  0  0  # atno 6908 bound_to 6896
  151.3924  133.3744  159.2757 H   0  0  0  0  0  0  0  0  0  0  0  0  # atno 6909 bound_to 6896
  145.6246  140.9354  143.1120 H   0  0  0  0  0  0  0  0  0  0  0  0  # atno 7974 bound_to 7965
  154.8775  140.2968  155.5444 H   0  0  0  0  0  0  0  0  0  0  0  0  # atno 8008 bound_to 7997
  156.3022  140.2448  156.3707 H   0  0  0  0  0  0  0  0  0  0  0  0  # atno 8009 bound_to 7997
  154.8751  140.0400  157.1737 H   0  0  0  0  0  0  0  0  0  0  0  0  # atno 8010 bound_to 7997
  140.3659  144.2168  150.6135 H   0  0  0  0  0  0  0  0  0  0  0  0  # atno 10167 bound_to 10162
  156.2342  130.7056  151.0890 H   0  0  0  0  0  0  0  0  0  0  0  0  # atno 10718 bound_to 10713
  153.2286  135.6890  153.7916 H   0  0  0  0  0  0  0  0  0  0  0  0  # atno 10763 bound_to 10752
  153.7089  135.3285  155.3242 H   0  0  0  0  0  0  0  0  0  0  0  0  # atno 10764 bound_to 10752
  154.8303  135.4585  154.1162 H   0  0  0  0  0  0  0  0  0  0  0  0  # atno 10765 bound_to 10752
  141.1049  133.8815  157.1744 H   0  0  0  0  0  0  0  0  0  0  0  0  # atno 11005 bound_to 11000
  144.7217  139.8007  143.7379 LP  0  0  0  0  0  0  0  0  0  0  0  0  # atno 17320 bound_to 7965
  146.1404  139.4460  143.0112 LP  0  0  0  0  0  0  0  0  0  0  0  0  # atno 17321 bound_to 7965
  140.5081  143.2298  151.8577 LP  0  0  0  0  0  0  0  0  0  0  0  0  # atno 17342 bound_to 10162
  139.4809  144.4982  151.9096 LP  0  0  0  0  0  0  0  0  0  0  0  0  # atno 17343 bound_to 10162
  157.7147  131.0716  150.6372 LP  0  0  0  0  0  0  0  0  0  0  0  0  # atno 17370 bound_to 10713
  156.6442  130.4467  149.5742 LP  0  0  0  0  0  0  0  0  0  0  0  0  # atno 17371 bound_to 10713
  139.9915  135.0062  156.9986 LP  0  0  0  0  0  0  0  0  0  0  0  0  # atno 17394 bound_to 11000
  140.4927  134.1177  155.7235 LP  0  0  0  0  0  0  0  0  0  0  0  0  # atno 17395 bound_to 11000

$$$$
