AV-unprocessed.smi:1964|AV-procd|sdf|7931|dock1
  -GOLD-   2272010103D 1   1.00000     0.00000
 Structure written by MMmdl.
 46 48  0  0  0  0  0  0  0  0  1 V2000
  144.7373  143.3109  157.1997 C   0  0  0  0  0  0  0  0  0  0  0  0
  144.4898  143.5770  155.7034 C   0  0  1  0  0  0  0  0  0  0  0  0
  143.7642  144.9228  155.5021 C   0  0  0  0  0  0  0  0  0  0  0  0
  143.4864  145.2073  154.0181 C   0  0  0  0  0  0  0  0  0  0  0  0
  144.7817  145.1659  153.1960 C   0  0  0  0  0  0  0  0  0  0  0  0
  145.5065  143.8245  153.3777 C   0  0  0  0  0  0  0  0  0  0  0  0
  145.7923  143.5327  154.8660 C   0  0  2  0  0  0  0  0  0  0  0  0
  146.4352  142.2303  155.0068 N   0  0  0  0  0  0  0  0  0  0  0  0
  147.6126  141.8680  154.4702 C   0  0  0  0  0  0  0  0  0  0  0  0
  148.2774  142.6149  153.7535 O   0  0  0  0  0  0  0  0  0  0  0  0
  148.1464  140.4587  154.7833 C   0  0  0  0  0  0  0  0  0  0  0  0
  149.4614  140.4323  155.4661 N   0  0  0  0  0  0  0  0  0  0  0  0
  150.4607  139.5529  154.9758 C   0  0  0  0  0  0  0  0  0  0  0  0
  150.2493  138.8335  153.9983 O   0  0  0  0  0  0  0  0  0  0  0  0
  151.7290  139.5747  155.7005 C   0  0  0  0  0  0  0  0  0  0  0  0
  152.7418  138.6695  155.2679 C   0  0  0  0  0  0  0  0  0  0  0  0
  153.5498  137.9159  154.9239 N   0  0  0  0  0  0  0  0  0  0  0  0
  151.9236  140.4183  156.7347 C   0  0  0  0  0  0  0  0  0  0  0  0
  150.9599  141.3086  157.1556 N   0  0  0  0  0  0  0  0  0  0  0  0
  151.1398  142.1076  158.3344 C   0  0  0  0  0  0  0  0  0  0  0  0
  152.0708  143.3044  158.3072 C   0  0  0  0  0  0  0  0  0  0  0  0
  152.4672  142.0582  159.0597 C   0  0  0  0  0  0  0  0  0  0  0  0
  149.6795  141.3034  156.5612 C   0  0  0  0  0  0  0  0  0  0  0  0
  148.7800  142.0383  156.9760 O   0  0  0  0  0  0  0  0  0  0  0  0
  145.4218  144.0462  157.6235 H   0  0  0  0  0  0  0  0  0  0  0  0
  145.1636  142.3221  157.3703 H   0  0  0  0  0  0  0  0  0  0  0  0
  143.8060  143.3609  157.7643 H   0  0  0  0  0  0  0  0  0  0  0  0
  143.8279  142.7892  155.3395 H   0  0  0  0  0  0  0  0  0  0  0  0
  142.8231  144.9254  156.0528 H   0  0  0  0  0  0  0  0  0  0  0  0
  144.3668  145.7310  155.9191 H   0  0  0  0  0  0  0  0  0  0  0  0
  142.7817  144.4714  153.6291 H   0  0  0  0  0  0  0  0  0  0  0  0
  143.0084  146.1812  153.9094 H   0  0  0  0  0  0  0  0  0  0  0  0
  144.5592  145.3286  152.1411 H   0  0  0  0  0  0  0  0  0  0  0  0
  145.4381  145.9808  153.5041 H   0  0  0  0  0  0  0  0  0  0  0  0
  144.8976  143.0238  152.9548 H   0  0  0  0  0  0  0  0  0  0  0  0
  146.4368  143.8367  152.8087 H   0  0  0  0  0  0  0  0  0  0  0  0
  146.4688  144.2993  155.2494 H   0  0  0  0  0  0  0  0  0  0  0  0
  145.9533  141.5509  155.5772 H   0  0  0  0  0  0  0  0  0  0  0  0
  147.3902  139.9353  155.3701 H   0  0  0  0  0  0  0  0  0  0  0  0
  148.1837  139.8949  153.8499 H   0  0  0  0  0  0  0  0  0  0  0  0
  152.8744  140.4049  157.2482 H   0  0  0  0  0  0  0  0  0  0  0  0
  150.2589  142.2072  158.9662 H   0  0  0  0  0  0  0  0  0  0  0  0
  152.6074  143.5187  157.3846 H   0  0  0  0  0  0  0  0  0  0  0  0
  151.7826  144.1761  158.8909 H   0  0  0  0  0  0  0  0  0  0  0  0
  152.4465  142.0998  160.1468 H   0  0  0  0  0  0  0  0  0  0  0  0
  153.2641  141.4521  158.6326 H   0  0  0  0  0  0  0  0  0  0  0  0
  1  2  1  0  0  0  0
  1 25  1  0  0  0  0
  1 26  1  0  0  0  0
  1 27  1  0  0  0  0
  2  7  1  0  0  0  0
  2  3  1  0  0  0  0
  2 28  1  0  0  0  0
  3  4  1  0  0  0  0
  3 29  1  0  0  0  0
  3 30  1  0  0  0  0
  4  5  1  0  0  0  0
  4 31  1  0  0  0  0
  4 32  1  0  0  0  0
  5  6  1  0  0  0  0
  5 33  1  0  0  0  0
  5 34  1  0  0  0  0
  6  7  1  0  0  0  0
  6 35  1  0  0  0  0
  6 36  1  0  0  0  0
  7  8  1  0  0  0  0
  7 37  1  0  0  0  0
  8  9  1  0  0  0  0
  8 38  1  0  0  0  0
  9 10  2  0  0  0  0
  9 11  1  0  0  0  0
 11 12  1  0  0  0  0
 11 39  1  0  0  0  0
 11 40  1  0  0  0  0
 12 23  1  0  0  0  0
 12 13  1  0  0  0  0
 13 14  2  0  0  0  0
 13 15  1  0  0  0  0
 15 16  1  0  0  0  0
 15 18  2  0  0  0  0
 16 17  3  0  0  0  0
 18 19  1  0  0  0  0
 18 41  1  0  0  0  0
 19 20  1  0  0  0  0
 19 23  1  0  0  0  0
 20 22  1  0  0  0  0
 20 21  1  0  0  0  0
 20 42  1  0  0  0  0
 21 22  1  0  0  0  0
 21 43  1  0  0  0  0
 21 44  1  0  0  0  0
 22 45  1  0  0  0  0
 22 46  1  0  0  0  0
 23 24  2  0  0  0  0
M  END
> <s_m_source_file>
AV-unprocessed.smi

> <i_m_source_file_index>
1964

> <i_lp_mmshare_version>
43012

> <i_f3d_flags>
0

> <s_epik_input>
W0NIM11bQ0BASF0xW0NIMl1bQ0gyXVtDSDJdW0NIMl1bQ0BIXTFbTkhdQyg9TylbQ0gyXW4yYyg9TyljKEMjTilbY0hdbihjMj1PKVtDSF0zW0NIMl1bQ0gyXTM=

> <s_epik_cmdline>
J2VwaWtfcHl0aG9uJywgJy1waCcsICc3LjAnLCAnLXRuJywgJzgnLCAnLW1hJywgJzIwMCcsICctbWV0YWxfYmluZGluZycsICctaW1hZScsICc8aW5maWxlLm1hZT4nLCAnLW9tYWUnLCAnPG91dGZpbGUubWFlPic=

> <r_lp_tautomer_probability>
1

> <r_epik_Ionization_Penalty>
1.91372e-08

> <r_epik_Ionization_Penalty_Charging>
9.0283e-11

> <r_epik_Ionization_Penalty_Neutral>
1.90469e-08

> <r_epik_State_Penalty>
-0

> <r_epik_Charging_Adjusted_Penalty>
9.0283e-11

> <i_epik_Tot_Q>
0

> <i_epik_Tot_abs_Q>
0

> <r_epik_Metal_State_Penalty>
-0

> <b_epik_Metal_Only>
0

> <s_lp_Force_Field>
OPLS_2005

> <r_lp_Energy>
35.2183

> <b_lp_Chiralities_Consistent>
1

> <s_lp_Variant>
AV-unprocessed.smi:1964-4

> <Gold.Version>
5.8.1

> <Gold.Id.Protein>
6NUR|6NUR_protein|mol2

> <Gold.PLP.Fitness>
43.0700

> <Gold.PLP.PLP>
-41.5348

> <Gold.PLP.part.hbond>
-2.9914

> <Gold.PLP.part.metal>
0.0000

> <Gold.PLP.part.buried>
-4.8456

> <Gold.PLP.part.nonpolar>
-37.6054

> <Gold.PLP.part.repulsive>
3.2255

> <Gold.PLP.ligand.clash>
0.0000

> <Gold.PLP.ligand.torsion>
0.3001

> <Gold.PLP.Chemscore.Hbond>
0.6380

> <Gold.PLP.Chemscore.CHOScore>
0.0000

> <Gold.PLP.Chemscore.Metal>
0.0000

> <Gold.Chemscore.Hbonds>
donor molecule, donor type, donor heavy atom, donor atom, acceptor molecule, acceptor atom, score
      P1  H  8011  8017       L1    10  0.07
      P1  H  8022  8030       L1    10  0.56
      P1  H 10752 10765       L1    17  0.01

> <Gold.PLP.Chemscore.Internal.Correction>
0.2212

> <Gold.Rescore>
     Score         DG    S(hbond)    S(metal)    S(lipo)     H(rot)  DE(clash)    DE(int)     intcor
      9.14     -14.40       0.85        0.00      89.30       1.70       3.55       1.71       ----

> <Gold.Chemscore.Fitness>
9.1374

> <Gold.Chemscore.DG>
-14.3975

> <Gold.Chemscore.ZeroCoef>
-5.4800

> <Gold.Chemscore.Hbond>
0.8476

> <Gold.Chemscore.Metal>
0.0000

> <Gold.Chemscore.Lipo>
89.3011

> <Gold.Chemscore.Internal_Hbond>
0.0000

> <Gold.Chemscore.DEClash>
3.5455

> <Gold.Chemscore.DEInternal>
1.7146

> <Gold.Chemscore.Rot>
1.7038

> <Gold.Chemscore.Internal.Correction>
   9.000000E+99

> <Gold.Chemscore.Hbonds>
donor molecule, donor type, donor heavy atom, donor atom, acceptor molecule, acceptor atom, score
      P1  H  8011  8017       L1    10  0.09
      P1  H  8022  8030       L1    10  0.57
      P1  H 10752 10765       L1    17  0.01

> <Gold.Chemscore.Hbond.Weighted>
-2.8311

> <Gold.Chemscore.Metal.Weighted>
-0.0000

> <Gold.Chemscore.Lipo.Weighted>
-10.4482

> <Gold.Chemscore.Internal_Hbond.Weighted>
0.0000

> <Gold.Chemscore.DEClash.Weighted>
3.5455

> <Gold.Chemscore.DEInternal.Weighted>
1.7146

> <Gold.Chemscore.Rot.Weighted>
4.3618

> <Gold.Chemscore.Internal.Correction.Weighted>
   9.000000E+99

> <Gold.Protein.RotatedTorsions>
[ 6907 6896 6895 6894 ] final  -99.91 input  -60.11 | X-H torsion
[ 7974 7965 7964 7962 ] final  176.85 input  175.53 | X-H torsion
[ 8008 7997 7996 7995 ] final  136.68 input   59.86 | X-H torsion
[ 10167 10162 10161 10158 ] final   57.89 input  -65.29 | X-H torsion
[ 10718 10713 10712 10709 ] final  -69.56 input   66.30 | X-H torsion
[ 10763 10752 10751 10750 ] final  174.00 input  -60.55 | X-H torsion
[ 11005 11000 10999 10996 ] final  -32.61 input  -57.11 | X-H torsion

> <Gold.Protein.ActiveResidues>
 VAL166  LYS551  ARG553  GLY616  TRP617  ASP618  TYR619  PRO620  LYS621  CYS622 
 ASP623  PHE694  ASN695  SER759  ASP760  ASP761  ALA762  ILE779  LEU786  VAL792 
 PHE793  MET794  SER795  GLU796  ALA797  LYS798  CYS799  TRP800  GLU811  SER814 

> <Gold.Protein.RotatedAtoms>
  150.7096  134.0969  159.3951 H   0  0  0  0  0  0  0  0  0  0  0  0  # atno 6907 bound_to 6896
  151.8955  135.0397  160.0511 H   0  0  0  0  0  0  0  0  0  0  0  0  # atno 6908 bound_to 6896
  152.2457  133.5137  159.5332 H   0  0  0  0  0  0  0  0  0  0  0  0  # atno 6909 bound_to 6896
  144.7178  140.0158  143.6440 H   0  0  0  0  0  0  0  0  0  0  0  0  # atno 7974 bound_to 7965
  156.3004  140.2439  156.3785 H   0  0  0  0  0  0  0  0  0  0  0  0  # atno 8008 bound_to 7997
  154.8723  140.0415  157.1752 H   0  0  0  0  0  0  0  0  0  0  0  0  # atno 8009 bound_to 7997
  154.8782  140.2945  155.5444 H   0  0  0  0  0  0  0  0  0  0  0  0  # atno 8010 bound_to 7997
  140.1931  144.4065  150.6562 H   0  0  0  0  0  0  0  0  0  0  0  0  # atno 10167 bound_to 10162
  156.0449  130.4315  150.2166 H   0  0  0  0  0  0  0  0  0  0  0  0  # atno 10718 bound_to 10713
  154.4478  135.2764  155.1802 H   0  0  0  0  0  0  0  0  0  0  0  0  # atno 10763 bound_to 10752
  154.3642  135.6123  153.5710 H   0  0  0  0  0  0  0  0  0  0  0  0  # atno 10764 bound_to 10752
  152.9845  135.5841  154.4817 H   0  0  0  0  0  0  0  0  0  0  0  0  # atno 10765 bound_to 10752
  140.9566  133.7189  156.1304 H   0  0  0  0  0  0  0  0  0  0  0  0  # atno 11005 bound_to 11000
  146.0221  139.3260  143.0806 LP  0  0  0  0  0  0  0  0  0  0  0  0  # atno 17320 bound_to 7965
  145.8556  140.9504  143.0727 LP  0  0  0  0  0  0  0  0  0  0  0  0  # atno 17321 bound_to 7965
  140.6442  143.2210  151.6223 LP  0  0  0  0  0  0  0  0  0  0  0  0  # atno 17342 bound_to 10162
  139.5248  144.3094  152.1006 LP  0  0  0  0  0  0  0  0  0  0  0  0  # atno 17343 bound_to 10162
  157.0256  130.9992  151.3327 LP  0  0  0  0  0  0  0  0  0  0  0  0  # atno 17370 bound_to 10713
  157.5313  130.8060  149.7920 LP  0  0  0  0  0  0  0  0  0  0  0  0  # atno 17371 bound_to 10713
  140.7527  134.4027  157.5539 LP  0  0  0  0  0  0  0  0  0  0  0  0  # atno 17394 bound_to 11000
  139.8864  134.8910  156.2585 LP  0  0  0  0  0  0  0  0  0  0  0  0  # atno 17395 bound_to 11000

$$$$
