AV-unprocessed.smi:1383|AV-procd|sdf|5625|dock7
  -GOLD-   22720 5243D 1   1.00000     0.00000
 Structure written by MMmdl.
 30 30  0  0  0  0  0  0  0  0  2 V2000
  146.4896  137.0194  162.4022 C   0  0  0  0  0  0  0  0  0  0  0  0
  147.5687  135.9391  162.2287 C   0  0  0  0  0  0  0  0  0  0  0  0
  147.5959  135.2884  160.8271 C   0  0  1  0  0  0  0  0  0  0  0  0
  146.2136  134.7309  160.4464 C   0  0  0  0  0  0  0  0  0  0  0  0
  148.0821  136.2720  159.7452 C   0  0  0  0  0  0  0  0  0  0  0  0
  147.4908  137.3432  159.5947 O   0  0  0  0  0  0  0  0  0  0  0  0
  149.1565  135.7983  159.0688 N   0  5  0  0  0  0  0  0  0  0  0  0
  149.2464  135.9992  157.7452 C   0  0  0  0  0  0  0  0  0  0  0  0
  150.2679  136.6474  157.1749 N   0  0  0  0  0  0  0  0  0  0  0  0
  150.1700  136.7345  155.7830 C   0  0  0  0  0  0  0  0  0  0  0  0
  151.2403  137.4375  154.9986 C   0  0  0  0  0  0  0  0  0  0  0  0
  150.6569  138.6294  154.2356 C   0  0  0  0  0  0  0  0  0  0  0  0
  149.8497  138.3611  153.2052 N   0  0  0  0  0  0  0  0  0  0  0  0
  150.9405  139.7794  154.5650 O   0  0  0  0  0  0  0  0  0  0  0  0
  149.0409  136.1350  155.2867 C   0  0  0  0  0  0  0  0  0  0  0  0
  148.0738  135.4351  156.5533 S   0  0  0  0  0  0  0  0  0  0  0  0
  146.5578  137.4780  163.3888 H   0  0  0  0  0  0  0  0  0  0  0  0
  145.4854  136.6065  162.3017 H   0  0  0  0  0  0  0  0  0  0  0  0
  146.6028  137.8096  161.6595 H   0  0  0  0  0  0  0  0  0  0  0  0
  148.5405  136.3929  162.4256 H   0  0  0  0  0  0  0  0  0  0  0  0
  147.4388  135.1733  162.9946 H   0  0  0  0  0  0  0  0  0  0  0  0
  148.2761  134.4350  160.8788 H   0  0  0  0  0  0  0  0  0  0  0  0
  146.2289  134.2785  159.4540 H   0  0  0  0  0  0  0  0  0  0  0  0
  145.4523  135.5119  160.4456 H   0  0  0  0  0  0  0  0  0  0  0  0
  145.8963  133.9611  161.1502 H   0  0  0  0  0  0  0  0  0  0  0  0
  152.0315  137.7866  155.6631 H   0  0  0  0  0  0  0  0  0  0  0  0
  151.7140  136.7581  154.2890 H   0  0  0  0  0  0  0  0  0  0  0  0
  149.4612  139.1202  152.6631 H   0  0  0  0  0  0  0  0  0  0  0  0
  149.6478  137.4031  152.9592 H   0  0  0  0  0  0  0  0  0  0  0  0
  148.7233  136.0583  154.2579 H   0  0  0  0  0  0  0  0  0  0  0  0
  1  2  1  0  0  0  0
  1 17  1  0  0  0  0
  1 18  1  0  0  0  0
  1 19  1  0  0  0  0
  2  3  1  0  0  0  0
  2 20  1  0  0  0  0
  2 21  1  0  0  0  0
  3  4  1  0  0  0  0
  3  5  1  0  0  0  0
  3 22  1  0  0  0  0
  4 23  1  0  0  0  0
  4 24  1  0  0  0  0
  4 25  1  0  0  0  0
  5  6  2  0  0  0  0
  5  7  1  0  0  0  0
  7  8  1  0  0  0  0
  8 16  1  0  0  0  0
  8  9  2  0  0  0  0
  9 10  1  0  0  0  0
 10 11  1  0  0  0  0
 10 15  2  0  0  0  0
 11 12  1  0  0  0  0
 11 26  1  0  0  0  0
 11 27  1  0  0  0  0
 12 13  1  0  0  0  0
 12 14  2  0  0  0  0
 13 28  1  0  0  0  0
 13 29  1  0  0  0  0
 15 16  1  0  0  0  0
 15 30  1  0  0  0  0
M  CHG  1   7  -1
M  END
> <s_m_source_file>
AV-unprocessed.smi

> <i_m_source_file_index>
1383

> <i_lp_mmshare_version>
43012

> <i_f3d_flags>
0

> <s_epik_input>
W0NIM11bQ0gyXVtDQEhdKFtDSDNdKUMoPU8pW05IXWMxbmMoW2NIXXMxKVtDSDJdQyg9TylbTkgyXQ==

> <s_epik_cmdline>
J2VwaWtfcHl0aG9uJywgJy1waCcsICc3LjAnLCAnLXRuJywgJzgnLCAnLW1hJywgJzIwMCcsICctbWV0YWxfYmluZGluZycsICctaW1hZScsICc8aW5maWxlLm1hZT4nLCAnLW9tYWUnLCAnPG91dGZpbGUubWFlPic=

> <r_lp_tautomer_probability>
1

> <r_epik_Ionization_Penalty>
5.3563

> <r_epik_Ionization_Penalty_Charging>
4.90463

> <r_epik_Ionization_Penalty_Neutral>
0.451677

> <r_epik_State_Penalty>
4.90447

> <r_epik_Charging_Adjusted_Penalty>
9.8091

> <i_epik_Tot_Q>
-1

> <i_epik_Tot_abs_Q>
1

> <r_epik_Metal_State_Penalty>
1.05508

> <b_epik_Metal_Only>
1

> <s_lp_Force_Field>
OPLS_2005

> <r_lp_Energy>
-0.48596

> <b_lp_Chiralities_Consistent>
1

> <s_lp_Variant>
AV-unprocessed.smi:1383-4

> <Gold.Version>
5.8.1

> <Gold.Id.Protein>
6NUR|6NUR_protein|mol2

> <Gold.PLP.Fitness>
44.4134

> <Gold.PLP.PLP>
-26.6578

> <Gold.PLP.part.hbond>
-5.3066

> <Gold.PLP.part.metal>
0.0000

> <Gold.PLP.part.buried>
-3.7848

> <Gold.PLP.part.nonpolar>
-17.1527

> <Gold.PLP.part.repulsive>
0.1799

> <Gold.PLP.ligand.clash>
0.0000

> <Gold.PLP.ligand.torsion>
1.0413

> <Gold.PLP.Chemscore.Hbond>
5.5760

> <Gold.PLP.Chemscore.CHOScore>
1.0000

> <Gold.PLP.Chemscore.Metal>
0.0000

> <Gold.Chemscore.Hbonds>
donor molecule, donor type, donor heavy atom, donor atom, acceptor molecule, acceptor atom, score
      L1  H    13    28       P1  7957  0.88
      L1  H    13    29       P1  7948  0.99
      P1  H  6896  6909       L1     7  2.00
      P1  H  6934  6947       L1     6  0.57
      P1  H  7989  7998       L1    14  1.00
      L1  C    15    30       P1  7948  1.00

> <Gold.PLP.Chemscore.Internal.Correction>
0.1102

> <Gold.Rescore>
     Score         DG    S(hbond)    S(metal)    S(lipo)     H(rot)  DE(clash)    DE(int)     intcor
     18.19     -19.25       4.17        0.00      45.88       2.15       0.01       1.05       ----

> <Gold.Chemscore.Fitness>
18.1947

> <Gold.Chemscore.DG>
-19.2545

> <Gold.Chemscore.ZeroCoef>
-5.4800

> <Gold.Chemscore.Hbond>
4.1673

> <Gold.Chemscore.Metal>
0.0000

> <Gold.Chemscore.Lipo>
45.8814

> <Gold.Chemscore.Internal_Hbond>
0.0000

> <Gold.Chemscore.DEClash>
0.0088

> <Gold.Chemscore.DEInternal>
1.0510

> <Gold.Chemscore.Rot>
2.1532

> <Gold.Chemscore.Internal.Correction>
   9.000000E+99

> <Gold.Chemscore.Hbonds>
donor molecule, donor type, donor heavy atom, donor atom, acceptor molecule, acceptor atom, score
      L1  H    13    28       P1  7957  0.85
      L1  H    13    29       P1  7948  0.57
      P1  H  6896  6909       L1     7  0.67
      P1  H  6934  6947       L1     6  0.56
      P1  H  7989  7998       L1    14  0.99

> <Gold.Chemscore.Hbond.Weighted>
-13.9186

> <Gold.Chemscore.Metal.Weighted>
-0.0000

> <Gold.Chemscore.Lipo.Weighted>
-5.3681

> <Gold.Chemscore.Internal_Hbond.Weighted>
0.0000

> <Gold.Chemscore.DEClash.Weighted>
0.0088

> <Gold.Chemscore.DEInternal.Weighted>
1.0510

> <Gold.Chemscore.Rot.Weighted>
5.5123

> <Gold.Chemscore.Internal.Correction.Weighted>
   9.000000E+99

> <Gold.Protein.RotatedTorsions>
[ 6907 6896 6895 6894 ] final   67.49 input  -60.11 | X-H torsion
[ 7974 7965 7964 7962 ] final   69.33 input  175.53 | X-H torsion
[ 8008 7997 7996 7995 ] final  133.39 input   59.86 | X-H torsion
[ 10167 10162 10161 10158 ] final  -74.31 input  -65.29 | X-H torsion
[ 10718 10713 10712 10709 ] final  114.34 input   66.30 | X-H torsion
[ 10763 10752 10751 10750 ] final  115.39 input  -60.55 | X-H torsion
[ 11005 11000 10999 10996 ] final   71.51 input  -57.11 | X-H torsion

> <Gold.Protein.ActiveResidues>
 VAL166  LYS551  ARG553  GLY616  TRP617  ASP618  TYR619  PRO620  LYS621  CYS622 
 ASP623  PHE694  ASN695  SER759  ASP760  ASP761  ALA762  ILE779  LEU786  VAL792 
 PHE793  MET794  SER795  GLU796  ALA797  LYS798  CYS799  TRP800  GLU811  SER814 

> <Gold.Protein.RotatedAtoms>
  152.4555  134.5300  159.9808 H   0  0  0  0  0  0  0  0  0  0  0  0  # atno 6907 bound_to 6896
  151.5362  133.3434  159.2935 H   0  0  0  0  0  0  0  0  0  0  0  0  # atno 6908 bound_to 6896
  150.8498  134.7850  159.7062 H   0  0  0  0  0  0  0  0  0  0  0  0  # atno 6909 bound_to 6896
  145.7917  139.2937  143.1206 H   0  0  0  0  0  0  0  0  0  0  0  0  # atno 7974 bound_to 7965
  156.2992  140.2522  156.3245 H   0  0  0  0  0  0  0  0  0  0  0  0  # atno 8008 bound_to 7997
  154.9204  140.0401  157.2013 H   0  0  0  0  0  0  0  0  0  0  0  0  # atno 8009 bound_to 7997
  154.8317  140.2876  155.5722 H   0  0  0  0  0  0  0  0  0  0  0  0  # atno 8010 bound_to 7997
  140.5038  143.2356  151.7708 H   0  0  0  0  0  0  0  0  0  0  0  0  # atno 10167 bound_to 10162
  157.6287  131.0997  150.7171 H   0  0  0  0  0  0  0  0  0  0  0  0  # atno 10718 bound_to 10713
  153.5215  135.3597  155.2634 H   0  0  0  0  0  0  0  0  0  0  0  0  # atno 10763 bound_to 10752
  154.8734  135.4046  154.3255 H   0  0  0  0  0  0  0  0  0  0  0  0  # atno 10764 bound_to 10752
  153.3926  135.7072  153.6551 H   0  0  0  0  0  0  0  0  0  0  0  0  # atno 10765 bound_to 10752
  139.9539  134.7177  156.0797 H   0  0  0  0  0  0  0  0  0  0  0  0  # atno 11005 bound_to 11000
  145.9970  140.8553  143.0038 LP  0  0  0  0  0  0  0  0  0  0  0  0  # atno 17320 bound_to 7965
  144.6781  140.2297  143.7357 LP  0  0  0  0  0  0  0  0  0  0  0  0  # atno 17321 bound_to 7965
  139.4878  144.4486  151.9681 LP  0  0  0  0  0  0  0  0  0  0  0  0  # atno 17342 bound_to 10162
  140.3575  144.3013  150.5939 LP  0  0  0  0  0  0  0  0  0  0  0  0  # atno 17343 bound_to 10162
  156.7514  130.4770  149.5456 LP  0  0  0  0  0  0  0  0  0  0  0  0  # atno 17370 bound_to 10713
  156.1476  130.6287  151.0552 LP  0  0  0  0  0  0  0  0  0  0  0  0  # atno 17371 bound_to 10713
  141.1208  133.6613  156.3209 LP  0  0  0  0  0  0  0  0  0  0  0  0  # atno 17394 bound_to 11000
  140.5653  134.5893  157.5444 LP  0  0  0  0  0  0  0  0  0  0  0  0  # atno 17395 bound_to 11000

$$$$
