AV-unprocessed.smi:1261|AV-procd|sdf|5302|dock5
  -GOLD-   22720 4423D 1   1.00000     0.00000
 Structure written by MMmdl.
 49 50  0  0  0  0  0  0  0  0  3 V2000
  154.1521  140.8599  160.6167 C   0  0  0  0  0  0  0  0  0  0  0  0
  152.8961  141.6225  160.1723 C   0  0  1  0  0  0  0  0  0  0  0  0
  153.2340  143.0600  159.7431 C   0  0  0  0  0  0  0  0  0  0  0  0
  151.9667  143.8004  159.2854 C   0  0  1  0  0  0  0  0  0  0  0  0
  152.2867  145.2325  158.8341 C   0  0  0  0  0  0  0  0  0  0  0  0
  151.2575  143.0029  158.1739 C   0  0  0  0  0  0  0  0  0  0  0  0
  150.9385  141.6199  158.6146 N   0  3  1  0  0  0  0  0  0  0  0  0
  150.1308  140.8860  157.6073 C   0  0  0  0  0  0  0  0  0  0  0  0
  150.0646  139.3748  157.8877 C   0  0  0  0  0  0  0  0  0  0  0  0
  148.9052  138.6961  157.1407 C   0  0  0  0  0  0  0  0  0  0  0  0
  147.6816  138.6991  157.9324 N   0  0  0  0  0  0  0  0  0  0  0  0
  146.7416  137.7421  157.9044 C   0  0  0  0  0  0  0  0  0  0  0  0
  146.8292  136.7265  157.2136 O   0  0  0  0  0  0  0  0  0  0  0  0
  145.5261  137.9589  158.8123 C   0  0  0  0  0  0  0  0  0  0  0  0
  145.6275  137.1843  160.0553 N   0  0  0  0  0  0  0  0  0  0  0  0
  146.8506  137.4489  160.8090 N   0  5  0  0  0  0  0  0  0  0  0  0
  147.0510  136.8107  161.9924 C   0  0  0  0  0  0  0  0  0  0  0  0
  148.0497  136.9908  162.6853 O   0  0  0  0  0  0  0  0  0  0  0  0
  146.0345  135.8764  162.4467 C   0  0  0  0  0  0  0  0  0  0  0  0
  144.9202  135.6439  161.7255 C   0  0  0  0  0  0  0  0  0  0  0  0
  144.6599  136.3104  160.4550 C   0  0  0  0  0  0  0  0  0  0  0  0
  143.6432  136.1026  159.7931 O   0  0  0  0  0  0  0  0  0  0  0  0
  152.1616  140.8858  159.0356 C   0  0  0  0  0  0  0  0  0  0  0  0
  154.8716  140.7708  159.8022 H   0  0  0  0  0  0  0  0  0  0  0  0
  153.9028  139.8529  160.9521 H   0  0  0  0  0  0  0  0  0  0  0  0
  154.6478  141.3681  161.4444 H   0  0  0  0  0  0  0  0  0  0  0  0
  152.2243  141.6747  161.0305 H   0  0  0  0  0  0  0  0  0  0  0  0
  153.6997  143.5961  160.5712 H   0  0  0  0  0  0  0  0  0  0  0  0
  153.9656  143.0423  158.9336 H   0  0  0  0  0  0  0  0  0  0  0  0
  151.2883  143.8691  160.1374 H   0  0  0  0  0  0  0  0  0  0  0  0
  152.9674  145.2375  157.9821 H   0  0  0  0  0  0  0  0  0  0  0  0
  152.7551  145.8018  159.6375 H   0  0  0  0  0  0  0  0  0  0  0  0
  151.3813  145.7642  158.5398 H   0  0  0  0  0  0  0  0  0  0  0  0
  150.3361  143.5182  157.8986 H   0  0  0  0  0  0  0  0  0  0  0  0
  151.8787  142.9640  157.2774 H   0  0  0  0  0  0  0  0  0  0  0  0
  149.1110  141.2731  157.6200 H   0  0  0  0  0  0  0  0  0  0  0  0
  150.5200  141.0779  156.6061 H   0  0  0  0  0  0  0  0  0  0  0  0
  151.0001  138.8970  157.5979 H   0  0  0  0  0  0  0  0  0  0  0  0
  149.9496  139.2074  158.9595 H   0  0  0  0  0  0  0  0  0  0  0  0
  148.7027  139.2228  156.2079 H   0  0  0  0  0  0  0  0  0  0  0  0
  149.1710  137.6734  156.8677 H   0  0  0  0  0  0  0  0  0  0  0  0
  147.5141  139.5029  158.5212 H   0  0  0  0  0  0  0  0  0  0  0  0
  145.4309  139.0233  159.0334 H   0  0  0  0  0  0  0  0  0  0  0  0
  144.6151  137.6960  158.2711 H   0  0  0  0  0  0  0  0  0  0  0  0
  146.1764  135.3563  163.3825 H   0  0  0  0  0  0  0  0  0  0  0  0
  144.1922  134.9404  162.1012 H   0  0  0  0  0  0  0  0  0  0  0  0
  152.8230  140.7600  158.1766 H   0  0  0  0  0  0  0  0  0  0  0  0
  151.8990  139.8858  159.3785 H   0  0  0  0  0  0  0  0  0  0  0  0
  150.3548  141.7141  159.4335 H   0  0  0  0  0  0  0  0  0  0  0  0
  1  2  1  0  0  0  0
  1 24  1  0  0  0  0
  1 25  1  0  0  0  0
  1 26  1  0  0  0  0
  2 23  1  0  0  0  0
  2  3  1  0  0  0  0
  2 27  1  0  0  0  0
  3  4  1  0  0  0  0
  3 28  1  0  0  0  0
  3 29  1  0  0  0  0
  4  5  1  0  0  0  0
  4  6  1  0  0  0  0
  4 30  1  0  0  0  0
  5 31  1  0  0  0  0
  5 32  1  0  0  0  0
  5 33  1  0  0  0  0
  6  7  1  0  0  0  0
  6 34  1  0  0  0  0
  6 35  1  0  0  0  0
  7  8  1  0  0  0  0
  7 23  1  0  0  0  0
  7 49  1  0  0  0  0
  8  9  1  0  0  0  0
  8 36  1  0  0  0  0
  8 37  1  0  0  0  0
  9 10  1  0  0  0  0
  9 38  1  0  0  0  0
  9 39  1  0  0  0  0
 10 11  1  0  0  0  0
 10 40  1  0  0  0  0
 10 41  1  0  0  0  0
 11 12  1  0  0  0  0
 11 42  1  0  0  0  0
 12 13  2  0  0  0  0
 12 14  1  0  0  0  0
 14 43  1  0  0  0  0
 14 44  1  0  0  0  0
 14 15  1  0  0  0  0
 15 16  1  0  0  0  0
 15 21  1  0  0  0  0
 16 17  1  0  0  0  0
 17 18  2  0  0  0  0
 17 19  1  0  0  0  0
 19 45  1  0  0  0  0
 19 20  2  0  0  0  0
 20 46  1  0  0  0  0
 20 21  1  0  0  0  0
 21 22  2  0  0  0  0
 23 47  1  0  0  0  0
 23 48  1  0  0  0  0
M  CHG  1   7   1
M  CHG  1  16  -1
M  END
> <s_m_source_file>
AV-unprocessed.smi

> <i_m_source_file_index>
1261

> <i_lp_mmshare_version>
43012

> <i_f3d_flags>
0

> <s_epik_input>
W0NIM11bQ0BASF0xW0NIMl1bQ0BASF0oW0NIM10pW0NIMl1OKFtDSDJdMSlbQ0gyXVtDSDJdW0NIMl1bTkhdQyg9TylbQ0gyXW4yW25IXWMoPU8pW2NIXVtjSF1jMj1P

> <s_epik_cmdline>
J2VwaWtfcHl0aG9uJywgJy1waCcsICc3LjAnLCAnLXRuJywgJzgnLCAnLW1hJywgJzIwMCcsICctbWV0YWxfYmluZGluZycsICctaW1hZScsICc8aW5maWxlLm1hZT4nLCAnLW9tYWUnLCAnPG91dGZpbGUubWFlPic=

> <r_lp_tautomer_probability>
1

> <r_epik_Ionization_Penalty>
0.0955723

> <r_epik_Ionization_Penalty_Charging>
0.0955723

> <r_epik_Ionization_Penalty_Neutral>
2.68632e-08

> <r_epik_State_Penalty>
0.0334406

> <r_epik_Charging_Adjusted_Penalty>
0.129013

> <i_epik_Tot_Q>
0

> <i_epik_Tot_abs_Q>
2

> <r_epik_Metal_State_Penalty>
0.0334406

> <b_epik_Metal_Only>
0

> <s_lp_Force_Field>
OPLS_2005

> <r_lp_Energy>
31.5278

> <b_lp_Chiralities_Consistent>
1

> <s_lp_Variant>
AV-unprocessed.smi:1261-2

> <Gold.Version>
5.8.1

> <Gold.Id.Protein>
6NUR|6NUR_protein|mol2

> <Gold.PLP.Fitness>
44.6497

> <Gold.PLP.PLP>
-37.3683

> <Gold.PLP.part.hbond>
-2.3700

> <Gold.PLP.part.metal>
0.0000

> <Gold.PLP.part.buried>
-5.6149

> <Gold.PLP.part.nonpolar>
-30.1667

> <Gold.PLP.part.repulsive>
0.2662

> <Gold.PLP.ligand.clash>
0.0000

> <Gold.PLP.ligand.torsion>
0.8765

> <Gold.PLP.Chemscore.Hbond>
2.9920

> <Gold.PLP.Chemscore.CHOScore>
0.0000

> <Gold.PLP.Chemscore.Metal>
0.0000

> <Gold.Chemscore.Hbonds>
donor molecule, donor type, donor heavy atom, donor atom, acceptor molecule, acceptor atom, score
      P1  H  6931  6943       L1    18  0.93
      P1  H  6934  6947       L1    16  2.00

> <Gold.PLP.Chemscore.Internal.Correction>
0.0585

> <Gold.Rescore>
     Score         DG    S(hbond)    S(metal)    S(lipo)     H(rot)  DE(clash)    DE(int)     intcor
     14.35     -15.18       1.52        0.00      93.99       2.49       0.01       0.83       ----

> <Gold.Chemscore.Fitness>
14.3494

> <Gold.Chemscore.DG>
-15.1844

> <Gold.Chemscore.ZeroCoef>
-5.4800

> <Gold.Chemscore.Hbond>
1.5243

> <Gold.Chemscore.Metal>
0.0000

> <Gold.Chemscore.Lipo>
93.9925

> <Gold.Chemscore.Internal_Hbond>
0.0000

> <Gold.Chemscore.DEClash>
0.0073

> <Gold.Chemscore.DEInternal>
0.8277

> <Gold.Chemscore.Rot>
2.4938

> <Gold.Chemscore.Internal.Correction>
   9.000000E+99

> <Gold.Chemscore.Hbonds>
donor molecule, donor type, donor heavy atom, donor atom, acceptor molecule, acceptor atom, score
      P1  H  6931  6943       L1    18  0.63
      P1  H  6934  6947       L1    16  0.64

> <Gold.Chemscore.Hbond.Weighted>
-5.0913

> <Gold.Chemscore.Metal.Weighted>
-0.0000

> <Gold.Chemscore.Lipo.Weighted>
-10.9971

> <Gold.Chemscore.Internal_Hbond.Weighted>
0.0000

> <Gold.Chemscore.DEClash.Weighted>
0.0073

> <Gold.Chemscore.DEInternal.Weighted>
0.8277

> <Gold.Chemscore.Rot.Weighted>
6.3840

> <Gold.Chemscore.Internal.Correction.Weighted>
   9.000000E+99

> <Gold.Protein.RotatedTorsions>
[ 6907 6896 6895 6894 ] final  119.59 input  -60.11 | X-H torsion
[ 7974 7965 7964 7962 ] final -148.35 input  175.53 | X-H torsion
[ 8008 7997 7996 7995 ] final -116.69 input   59.86 | X-H torsion
[ 10167 10162 10161 10158 ] final  -59.83 input  -65.29 | X-H torsion
[ 10718 10713 10712 10709 ] final  -93.79 input   66.30 | X-H torsion
[ 10763 10752 10751 10750 ] final -159.81 input  -60.55 | X-H torsion
[ 11005 11000 10999 10996 ] final -130.13 input  -57.11 | X-H torsion

> <Gold.Protein.ActiveResidues>
 VAL166  LYS551  ARG553  GLY616  TRP617  ASP618  TYR619  PRO620  LYS621  CYS622 
 ASP623  PHE694  ASN695  SER759  ASP760  ASP761  ALA762  ILE779  LEU786  VAL792 
 PHE793  MET794  SER795  GLU796  ALA797  LYS798  CYS799  TRP800  GLU811  SER814 

> <Gold.Protein.RotatedAtoms>
  152.4461  133.7538  159.6708 H   0  0  0  0  0  0  0  0  0  0  0  0  # atno 6907 bound_to 6896
  150.8361  133.8001  159.3085 H   0  0  0  0  0  0  0  0  0  0  0  0  # atno 6908 bound_to 6896
  151.5640  135.1067  160.0031 H   0  0  0  0  0  0  0  0  0  0  0  0  # atno 6909 bound_to 6896
  144.8035  140.5207  143.5691 H   0  0  0  0  0  0  0  0  0  0  0  0  # atno 7974 bound_to 7965
  155.0719  140.0393  157.2611 H   0  0  0  0  0  0  0  0  0  0  0  0  # atno 8008 bound_to 7997
  154.6976  140.2666  155.6727 H   0  0  0  0  0  0  0  0  0  0  0  0  # atno 8009 bound_to 7997
  156.2749  140.2747  156.1575 H   0  0  0  0  0  0  0  0  0  0  0  0  # atno 8010 bound_to 7997
  140.6110  143.2387  151.5710 H   0  0  0  0  0  0  0  0  0  0  0  0  # atno 10167 bound_to 10162
  156.0018  130.5041  150.5829 H   0  0  0  0  0  0  0  0  0  0  0  0  # atno 10718 bound_to 10713
  154.7443  135.3076  154.8673 H   0  0  0  0  0  0  0  0  0  0  0  0  # atno 10763 bound_to 10752
  153.9478  135.6767  153.4748 H   0  0  0  0  0  0  0  0  0  0  0  0  # atno 10764 bound_to 10752
  153.1040  135.4898  154.8844 H   0  0  0  0  0  0  0  0  0  0  0  0  # atno 10765 bound_to 10752
  140.9372  134.1241  157.4183 H   0  0  0  0  0  0  0  0  0  0  0  0  # atno 11005 bound_to 11000
  145.5496  139.1476  143.3402 LP  0  0  0  0  0  0  0  0  0  0  0  0  # atno 17320 bound_to 7965
  146.2321  140.5634  142.8971 LP  0  0  0  0  0  0  0  0  0  0  0  0  # atno 17321 bound_to 7965
  139.5361  144.2777  152.1254 LP  0  0  0  0  0  0  0  0  0  0  0  0  # atno 17342 bound_to 10162
  140.1976  144.4690  150.6447 LP  0  0  0  0  0  0  0  0  0  0  0  0  # atno 17343 bound_to 10162
  157.3706  131.0765  151.1561 LP  0  0  0  0  0  0  0  0  0  0  0  0  # atno 17370 bound_to 10713
  157.2316  130.6527  149.5852 LP  0  0  0  0  0  0  0  0  0  0  0  0  # atno 17371 bound_to 10713
  139.8811  135.0025  156.6128 LP  0  0  0  0  0  0  0  0  0  0  0  0  # atno 17394 bound_to 11000
  140.7783  133.8681  155.8547 LP  0  0  0  0  0  0  0  0  0  0  0  0  # atno 17395 bound_to 11000

$$$$
