AV-unprocessed.smi:261|AV-procd|sdf|1987|dock1
  -GOLD-   2262021163D 1   1.00000     0.00000
 Structure written by MMmdl.
 51 54  0  0  0  0  0  0  0  0  1 V2000
  148.0078  131.0184  153.4238 C   0  0  0  0  0  0  0  0  0  0  0  0
  148.6329  132.2846  153.2904 O   0  0  0  0  0  0  0  0  0  0  0  0
  148.9290  132.9003  154.5351 C   0  0  1  0  0  0  0  0  0  0  0  0
  149.9076  132.0546  155.3401 C   0  0  0  0  0  0  0  0  0  0  0  0
  150.5098  133.0666  156.3244 C   0  0  1  0  0  0  0  0  0  0  0  0
  151.8986  132.6339  156.8160 C   0  0  0  0  0  0  0  0  0  0  0  0
  152.3462  131.4515  156.3874 N   0  0  0  0  0  0  0  0  0  0  0  0
  152.5655  133.3555  157.5560 O   0  0  0  0  0  0  0  0  0  0  0  0
  150.5547  134.3210  155.5674 N   0  0  0  0  0  0  0  0  0  0  0  0
  150.4242  135.4441  156.3077 C   0  0  0  0  0  0  0  0  0  0  0  0
  149.5075  135.4272  157.3057 N   0  0  0  0  0  0  0  0  0  0  0  0
  149.3310  136.5111  158.0677 C   0  0  0  0  0  0  0  0  0  0  0  0
  149.9536  137.6905  158.0008 N   0  0  0  0  0  0  0  0  0  0  0  0
  150.8742  137.7086  156.9941 C   0  0  0  0  0  0  0  0  0  0  0  0
  151.1715  136.6383  156.1054 C   0  0  0  0  0  0  0  0  0  0  0  0
  152.1600  137.0252  155.2080 N   0  0  0  0  0  0  0  0  0  0  0  0
  152.4318  138.2559  155.5476 C   0  0  0  0  0  0  0  0  0  0  0  0
  151.7058  138.7451  156.6096 N   0  0  0  0  0  0  0  0  0  0  0  0
  151.8032  140.0734  157.1882 C   0  0  0  0  0  0  0  0  0  0  0  0
  152.3683  140.0528  158.6223 C   0  0  1  0  0  0  0  0  0  0  0  0
  153.5639  139.2964  158.6464 O   0  0  0  0  0  0  0  0  0  0  0  0
  152.6643  141.4693  159.1482 C   0  0  2  0  0  0  0  0  0  0  0  0
  153.3807  141.5112  160.4974 C   0  0  0  0  0  0  0  0  0  0  0  0
  153.0429  142.8954  161.0225 C   0  0  0  0  0  0  0  0  0  0  0  0
  151.7734  143.2800  160.2564 C   0  0  0  0  0  0  0  0  0  0  0  0
  151.4575  142.1545  159.4461 O   0  0  0  0  0  0  0  0  0  0  0  0
  149.6851  134.2253  154.3982 C   0  0  0  0  0  0  0  0  0  0  0  0
  148.0208  133.0420  155.1242 H   0  0  0  0  0  0  0  0  0  0  0  0
  149.8403  133.1702  157.1811 H   0  0  0  0  0  0  0  0  0  0  0  0
  147.8316  130.5933  152.4358 H   0  0  0  0  0  0  0  0  0  0  0  0
  147.0446  131.0980  153.9288 H   0  0  0  0  0  0  0  0  0  0  0  0
  148.6387  130.3241  153.9800 H   0  0  0  0  0  0  0  0  0  0  0  0
  149.4201  131.2175  155.8409 H   0  0  0  0  0  0  0  0  0  0  0  0
  150.6761  131.6491  154.6788 H   0  0  0  0  0  0  0  0  0  0  0  0
  153.2536  131.1187  156.6793 H   0  0  0  0  0  0  0  0  0  0  0  0
  151.7734  130.8941  155.7704 H   0  0  0  0  0  0  0  0  0  0  0  0
  148.5835  136.4203  158.8420 H   0  0  0  0  0  0  0  0  0  0  0  0
  153.1725  138.8463  155.0280 H   0  0  0  0  0  0  0  0  0  0  0  0
  152.4244  140.6934  156.5407 H   0  0  0  0  0  0  0  0  0  0  0  0
  150.8078  140.5190  157.1805 H   0  0  0  0  0  0  0  0  0  0  0  0
  151.6514  139.5648  159.2841 H   0  0  0  0  0  0  0  0  0  0  0  0
  153.4550  138.5824  159.2558 H   0  0  0  0  0  0  0  0  0  0  0  0
  153.2254  142.0452  158.4095 H   0  0  0  0  0  0  0  0  0  0  0  0
  152.9689  140.7545  161.1663 H   0  0  0  0  0  0  0  0  0  0  0  0
  154.4542  141.3397  160.4144 H   0  0  0  0  0  0  0  0  0  0  0  0
  152.8897  142.8895  162.1019 H   0  0  0  0  0  0  0  0  0  0  0  0
  153.8444  143.6005  160.8001 H   0  0  0  0  0  0  0  0  0  0  0  0
  150.9425  143.5163  160.9213 H   0  0  0  0  0  0  0  0  0  0  0  0
  151.9564  144.1466  159.6198 H   0  0  0  0  0  0  0  0  0  0  0  0
  150.3265  134.2058  153.5163 H   0  0  0  0  0  0  0  0  0  0  0  0
  149.0033  135.0694  154.2822 H   0  0  0  0  0  0  0  0  0  0  0  0
  1  2  1  0  0  0  0
  1 30  1  0  0  0  0
  1 31  1  0  0  0  0
  1 32  1  0  0  0  0
  2  3  1  0  0  0  0
  3 28  1  0  0  0  0
  3 27  1  0  0  0  0
  3  4  1  0  0  0  0
  4  5  1  0  0  0  0
  4 33  1  0  0  0  0
  4 34  1  0  0  0  0
  5 29  1  0  0  0  0
  5  6  1  0  0  0  0
  5  9  1  0  0  0  0
  6  7  1  0  0  0  0
  6  8  2  0  0  0  0
  7 35  1  0  0  0  0
  7 36  1  0  0  0  0
  9 10  1  0  0  0  0
  9 27  1  0  0  0  0
 10 15  1  0  0  0  0
 10 11  2  0  0  0  0
 11 12  1  0  0  0  0
 12 13  2  0  0  0  0
 12 37  1  0  0  0  0
 13 14  1  0  0  0  0
 14 18  1  0  0  0  0
 14 15  2  0  0  0  0
 15 16  1  0  0  0  0
 16 17  2  0  0  0  0
 17 18  1  0  0  0  0
 17 38  1  0  0  0  0
 18 19  1  0  0  0  0
 19 20  1  0  0  0  0
 19 39  1  0  0  0  0
 19 40  1  0  0  0  0
 20 21  1  0  0  0  0
 20 22  1  0  0  0  0
 20 41  1  0  0  0  0
 21 42  1  0  0  0  0
 22 26  1  0  0  0  0
 22 23  1  0  0  0  0
 22 43  1  0  0  0  0
 23 24  1  0  0  0  0
 23 44  1  0  0  0  0
 23 45  1  0  0  0  0
 24 25  1  0  0  0  0
 24 46  1  0  0  0  0
 24 47  1  0  0  0  0
 25 26  1  0  0  0  0
 25 48  1  0  0  0  0
 25 49  1  0  0  0  0
 27 50  1  0  0  0  0
 27 51  1  0  0  0  0
M  END
> <s_m_source_file>
AV-unprocessed.smi

> <i_m_source_file_index>
261

> <i_lp_mmshare_version>
43012

> <i_f3d_flags>
0

> <s_epik_input>
W0NIM11PW0NASF0xW0NIMl1bQ0BASF0oQyg9TylbTkgyXSlOKFtDSDJdMSljKG5bY0hdbjIpYyhjMjMpbltjSF1uM1tDSDJdW0NASF0oW09IXSlbQ0BASF00W0NIMl1bQ0gyXVtDSDJdTzQ=

> <s_epik_cmdline>
J2VwaWtfcHl0aG9uJywgJy1waCcsICc3LjAnLCAnLXRuJywgJzgnLCAnLW1hJywgJzIwMCcsICctbWV0YWxfYmluZGluZycsICctaW1hZScsICc8aW5maWxlLm1hZT4nLCAnLW9tYWUnLCAnPG91dGZpbGUubWFlPic=

> <r_lp_tautomer_probability>
1

> <r_epik_Ionization_Penalty>
0.000713824

> <r_epik_Ionization_Penalty_Charging>
0

> <r_epik_Ionization_Penalty_Neutral>
0.000713824

> <r_epik_State_Penalty>
0.000402132

> <r_epik_Charging_Adjusted_Penalty>
0.000402132

> <i_epik_Tot_Q>
0

> <i_epik_Tot_abs_Q>
0

> <r_epik_Metal_State_Penalty>
-0

> <b_epik_Metal_Only>
0

> <s_lp_Force_Field>
OPLS_2005

> <r_lp_Energy>
45.3763

> <b_lp_Chiralities_Consistent>
1

> <s_lp_Variant>
AV-unprocessed.smi:261-5

> <Gold.Version>
5.8.1

> <Gold.Id.Protein>
6NUR|6NUR_protein|mol2

> <Gold.PLP.Fitness>
45.0262

> <Gold.PLP.PLP>
-40.0538

> <Gold.PLP.part.hbond>
-3.0517

> <Gold.PLP.part.metal>
0.0000

> <Gold.PLP.part.buried>
-7.3071

> <Gold.PLP.part.nonpolar>
-29.9588

> <Gold.PLP.part.repulsive>
0.3048

> <Gold.PLP.ligand.clash>
1.0264

> <Gold.PLP.ligand.torsion>
0.8649

> <Gold.PLP.Chemscore.Hbond>
2.4880

> <Gold.PLP.Chemscore.CHOScore>
0.0000

> <Gold.PLP.Chemscore.Metal>
0.0000

> <Gold.Chemscore.Hbonds>
donor molecule, donor type, donor heavy atom, donor atom, acceptor molecule, acceptor atom, score
      P1  H  6896  6908       L1     8  0.54
      P1  H  7997  8008       L1    21  0.98
      P1  H 10752 10764       L1    16  0.90

> <Gold.PLP.Chemscore.Internal.Correction>
0.2645

> <Gold.Rescore>
     Score         DG    S(hbond)    S(metal)    S(lipo)     H(rot)  DE(clash)    DE(int)     intcor
     13.45     -14.49       2.69        0.00      78.34       3.57       0.02       1.01       ----

> <Gold.Chemscore.Fitness>
13.4540

> <Gold.Chemscore.DG>
-14.4874

> <Gold.Chemscore.ZeroCoef>
-5.4800

> <Gold.Chemscore.Hbond>
2.6919

> <Gold.Chemscore.Metal>
0.0000

> <Gold.Chemscore.Lipo>
78.3417

> <Gold.Chemscore.Internal_Hbond>
0.0000

> <Gold.Chemscore.DEClash>
0.0222

> <Gold.Chemscore.DEInternal>
1.0112

> <Gold.Chemscore.Rot>
3.5740

> <Gold.Chemscore.Internal.Correction>
   9.000000E+99

> <Gold.Chemscore.Hbonds>
donor molecule, donor type, donor heavy atom, donor atom, acceptor molecule, acceptor atom, score
      P1  H  6896  6908       L1     8  0.53
      P1  H  7997  8008       L1    21  0.41
      P1  H 10752 10764       L1    16  0.56

> <Gold.Chemscore.Hbond.Weighted>
-8.9908

> <Gold.Chemscore.Metal.Weighted>
-0.0000

> <Gold.Chemscore.Lipo.Weighted>
-9.1660

> <Gold.Chemscore.Internal_Hbond.Weighted>
0.0000

> <Gold.Chemscore.DEClash.Weighted>
0.0222

> <Gold.Chemscore.DEInternal.Weighted>
1.0112

> <Gold.Chemscore.Rot.Weighted>
9.1495

> <Gold.Chemscore.Internal.Correction.Weighted>
   9.000000E+99

> <Gold.Protein.RotatedTorsions>
[ 6907 6896 6895 6894 ] final   24.09 input  -60.11 | X-H torsion
[ 7974 7965 7964 7962 ] final  -31.56 input  175.53 | X-H torsion
[ 8008 7997 7996 7995 ] final  -88.52 input   59.86 | X-H torsion
[ 10167 10162 10161 10158 ] final -172.56 input  -65.29 | X-H torsion
[ 10718 10713 10712 10709 ] final  145.03 input   66.30 | X-H torsion
[ 10763 10752 10751 10750 ] final  -56.95 input  -60.55 | X-H torsion
[ 11005 11000 10999 10996 ] final -154.87 input  -57.11 | X-H torsion

> <Gold.Protein.ActiveResidues>
 VAL166  LYS551  ARG553  GLY616  TRP617  ASP618  TYR619  PRO620  LYS621  CYS622 
 ASP623  PHE694  ASN695  SER759  ASP760  ASP761  ALA762  ILE779  LEU786  VAL792 
 PHE793  MET794  SER795  GLU796  ALA797  LYS798  CYS799  TRP800  GLU811  SER814 

> <Gold.Protein.RotatedAtoms>
  151.9523  135.0163  160.0542 H   0  0  0  0  0  0  0  0  0  0  0  0  # atno 6907 bound_to 6896
  152.1942  133.4790  159.5032 H   0  0  0  0  0  0  0  0  0  0  0  0  # atno 6908 bound_to 6896
  150.6941  134.1591  159.4212 H   0  0  0  0  0  0  0  0  0  0  0  0  # atno 6909 bound_to 6896
  146.1058  140.5682  142.8800 H   0  0  0  0  0  0  0  0  0  0  0  0  # atno 7974 bound_to 7965
  154.6757  140.0552  157.0213 H   0  0  0  0  0  0  0  0  0  0  0  0  # atno 8008 bound_to 7997
  155.1023  140.3230  155.4525 H   0  0  0  0  0  0  0  0  0  0  0  0  # atno 8009 bound_to 7997
  156.2675  140.2029  156.6149 H   0  0  0  0  0  0  0  0  0  0  0  0  # atno 8010 bound_to 7997
  139.5738  144.1580  152.1421 H   0  0  0  0  0  0  0  0  0  0  0  0  # atno 10167 bound_to 10162
  157.3501  131.0949  151.1007 H   0  0  0  0  0  0  0  0  0  0  0  0  # atno 10718 bound_to 10713
  154.2148  135.6388  153.5126 H   0  0  0  0  0  0  0  0  0  0  0  0  # atno 10763 bound_to 10752
  152.9982  135.5482  154.6177 H   0  0  0  0  0  0  0  0  0  0  0  0  # atno 10764 bound_to 10752
  154.5622  135.2910  155.0882 H   0  0  0  0  0  0  0  0  0  0  0  0  # atno 10765 bound_to 10752
  140.6926  134.4025  157.5218 H   0  0  0  0  0  0  0  0  0  0  0  0  # atno 11005 bound_to 11000
  144.7470  140.5093  143.6829 LP  0  0  0  0  0  0  0  0  0  0  0  0  # atno 17320 bound_to 7965
  145.5763  139.1486  143.3260 LP  0  0  0  0  0  0  0  0  0  0  0  0  # atno 17321 bound_to 7965
  140.1119  144.5450  150.6919 LP  0  0  0  0  0  0  0  0  0  0  0  0  # atno 17342 bound_to 10162
  140.7021  143.2442  151.4833 LP  0  0  0  0  0  0  0  0  0  0  0  0  # atno 17343 bound_to 10162
  157.2186  130.6471  149.5802 LP  0  0  0  0  0  0  0  0  0  0  0  0  # atno 17370 bound_to 10713
  155.9720  130.4636  150.6189 LP  0  0  0  0  0  0  0  0  0  0  0  0  # atno 17371 bound_to 10713
  139.8919  134.8768  156.2296 LP  0  0  0  0  0  0  0  0  0  0  0  0  # atno 17394 bound_to 11000
  141.0229  133.7031  156.1299 LP  0  0  0  0  0  0  0  0  0  0  0  0  # atno 17395 bound_to 11000

$$$$
