AV-unprocessed.smi:2067|AV-procd|sdf|8426|dock9
  -GOLD-   2272011123D 1   1.00000     0.00000
 Structure written by MMmdl.
 47 48  0  0  0  0  0  0  0  0  1 V2000
  146.1534  130.7263  152.7165 C   0  0  0  0  0  0  0  0  0  0  0  0
  145.9152  131.8941  151.7467 C   0  0  1  0  0  0  0  0  0  0  0  0
  145.0322  131.4459  150.5651 C   0  0  0  0  0  0  0  0  0  0  0  0
  144.7935  132.5897  149.5689 C   0  0  0  0  0  0  0  0  0  0  0  0
  144.1794  133.8093  150.2691 C   0  0  0  0  0  0  0  0  0  0  0  0
  145.0517  134.2692  151.4469 C   0  0  0  0  0  0  0  0  0  0  0  0
  145.2984  133.1235  152.4547 C   0  0  2  0  0  0  0  0  0  0  0  0
  146.1987  133.5276  153.4808 O   0  0  0  0  0  0  0  0  0  0  0  0
  145.9962  134.8410  153.9838 C   0  0  0  0  0  0  0  0  0  0  0  0
  147.2526  135.2612  154.7536 C   0  0  0  0  0  0  0  0  0  0  0  0
  147.5689  136.6615  154.5160 N   0  0  0  0  0  0  0  0  0  0  0  0
  148.8022  137.2597  154.7503 C   0  0  0  0  0  0  0  0  0  0  0  0
  149.8578  136.5473  155.2336 C   0  0  0  0  0  0  0  0  0  0  0  0
  149.8039  135.1419  155.4865 C   0  0  0  0  0  0  0  0  0  0  0  0
  149.7761  133.9988  155.6718 N   0  0  0  0  0  0  0  0  0  0  0  0
  151.1579  137.1634  155.4945 C   0  0  0  0  0  0  0  0  0  0  0  0
  152.1257  136.5420  155.9386 O   0  0  0  0  0  0  0  0  0  0  0  0
  151.2244  138.5419  155.1951 N   0  0  0  0  0  0  0  0  0  0  0  0
  152.4629  139.2589  155.4240 C   0  0  0  0  0  0  0  0  0  0  0  0
  150.1529  139.2957  154.6795 C   0  0  0  0  0  0  0  0  0  0  0  0
  150.2799  140.5000  154.4353 O   0  0  0  0  0  0  0  0  0  0  0  0
  148.9272  138.6218  154.4634 N   0  0  0  0  0  0  0  0  0  0  0  0
  147.8586  139.4638  153.9666 C   0  0  0  0  0  0  0  0  0  0  0  0
  145.2247  130.4055  153.1890 H   0  0  0  0  0  0  0  0  0  0  0  0
  146.8522  131.0056  153.5047 H   0  0  0  0  0  0  0  0  0  0  0  0
  146.5788  129.8658  152.1999 H   0  0  0  0  0  0  0  0  0  0  0  0
  146.8859  132.1881  151.3444 H   0  0  0  0  0  0  0  0  0  0  0  0
  145.4982  130.6064  150.0478 H   0  0  0  0  0  0  0  0  0  0  0  0
  144.0732  131.0838  150.9383 H   0  0  0  0  0  0  0  0  0  0  0  0
  145.7376  132.8718  149.1008 H   0  0  0  0  0  0  0  0  0  0  0  0
  144.1381  132.2526  148.7653 H   0  0  0  0  0  0  0  0  0  0  0  0
  144.0570  134.6252  149.5560 H   0  0  0  0  0  0  0  0  0  0  0  0
  143.1804  133.5604  150.6292 H   0  0  0  0  0  0  0  0  0  0  0  0
  146.0072  134.6370  151.0703 H   0  0  0  0  0  0  0  0  0  0  0  0
  144.5644  135.1137  151.9339 H   0  0  0  0  0  0  0  0  0  0  0  0
  144.3508  132.8263  152.9081 H   0  0  0  0  0  0  0  0  0  0  0  0
  145.8357  135.5233  153.1489 H   0  0  0  0  0  0  0  0  0  0  0  0
  145.1180  134.8979  154.6297 H   0  0  0  0  0  0  0  0  0  0  0  0
  147.1345  135.0366  155.8117 H   0  0  0  0  0  0  0  0  0  0  0  0
  148.1024  134.6748  154.4039 H   0  0  0  0  0  0  0  0  0  0  0  0
  146.7823  137.2600  154.7231 H   0  0  0  0  0  0  0  0  0  0  0  0
  152.2421  140.0765  156.1126 H   0  0  0  0  0  0  0  0  0  0  0  0
  152.8014  139.6336  154.4565 H   0  0  0  0  0  0  0  0  0  0  0  0
  153.2254  138.6142  155.8591 H   0  0  0  0  0  0  0  0  0  0  0  0
  147.6753  140.2355  154.7166 H   0  0  0  0  0  0  0  0  0  0  0  0
  146.9524  138.8837  153.8088 H   0  0  0  0  0  0  0  0  0  0  0  0
  148.1896  139.8907  153.0182 H   0  0  0  0  0  0  0  0  0  0  0  0
  1  2  1  0  0  0  0
  1 24  1  0  0  0  0
  1 25  1  0  0  0  0
  1 26  1  0  0  0  0
  2  7  1  0  0  0  0
  2  3  1  0  0  0  0
  2 27  1  0  0  0  0
  3  4  1  0  0  0  0
  3 28  1  0  0  0  0
  3 29  1  0  0  0  0
  4  5  1  0  0  0  0
  4 30  1  0  0  0  0
  4 31  1  0  0  0  0
  5  6  1  0  0  0  0
  5 32  1  0  0  0  0
  5 33  1  0  0  0  0
  6  7  1  0  0  0  0
  6 34  1  0  0  0  0
  6 35  1  0  0  0  0
  7  8  1  0  0  0  0
  7 36  1  0  0  0  0
  8  9  1  0  0  0  0
  9 10  1  0  0  0  0
  9 37  1  0  0  0  0
  9 38  1  0  0  0  0
 10 11  1  0  0  0  0
 10 39  1  0  0  0  0
 10 40  1  0  0  0  0
 11 12  1  0  0  0  0
 11 41  1  0  0  0  0
 12 22  1  0  0  0  0
 12 13  2  0  0  0  0
 13 14  1  0  0  0  0
 13 16  1  0  0  0  0
 14 15  3  0  0  0  0
 16 17  2  0  0  0  0
 16 18  1  0  0  0  0
 18 19  1  0  0  0  0
 18 20  1  0  0  0  0
 19 42  1  0  0  0  0
 19 43  1  0  0  0  0
 19 44  1  0  0  0  0
 20 21  2  0  0  0  0
 20 22  1  0  0  0  0
 22 23  1  0  0  0  0
 23 45  1  0  0  0  0
 23 46  1  0  0  0  0
 23 47  1  0  0  0  0
M  END
> <s_m_source_file>
AV-unprocessed.smi

> <i_m_source_file_index>
2067

> <i_lp_mmshare_version>
43012

> <i_f3d_flags>
0

> <s_epik_input>
W0NIM11bQ0BASF0xW0NIMl1bQ0gyXVtDSDJdW0NIMl1bQ0BIXTFPW0NIMl1bQ0gyXVtOSF1jMmMoQyNOKWMoPU8pbihbQ0gzXSljKD1PKW4yW0NIM10=

> <s_epik_cmdline>
J2VwaWtfcHl0aG9uJywgJy1waCcsICc3LjAnLCAnLXRuJywgJzgnLCAnLW1hJywgJzIwMCcsICctbWV0YWxfYmluZGluZycsICctaW1hZScsICc8aW5maWxlLm1hZT4nLCAnLW9tYWUnLCAnPG91dGZpbGUubWFlPic=

> <r_epik_Ionization_Penalty>
0.00056529

> <r_epik_Ionization_Penalty_Charging>
3.94678e-10

> <r_epik_Ionization_Penalty_Neutral>
0.000565289

> <r_epik_State_Penalty>
0.000354611

> <r_epik_Charging_Adjusted_Penalty>
0.000354611

> <i_epik_Tot_Q>
0

> <i_epik_Tot_abs_Q>
0

> <r_epik_Metal_State_Penalty>
-0

> <b_epik_Metal_Only>
0

> <s_lp_Force_Field>
OPLS_2005

> <r_lp_Energy>
31.2775

> <b_lp_Chiralities_Consistent>
1

> <s_lp_Variant>
AV-unprocessed.smi:2067-4

> <Gold.Version>
5.8.1

> <Gold.Id.Protein>
6NUR|6NUR_protein|mol2

> <Gold.PLP.Fitness>
39.2810

> <Gold.PLP.PLP>
-34.8025

> <Gold.PLP.part.hbond>
-2.6359

> <Gold.PLP.part.metal>
0.0000

> <Gold.PLP.part.buried>
-2.0259

> <Gold.PLP.part.nonpolar>
-30.3772

> <Gold.PLP.part.repulsive>
0.3041

> <Gold.PLP.ligand.clash>
10.7747

> <Gold.PLP.ligand.torsion>
0.6123

> <Gold.PLP.Chemscore.Hbond>
1.8960

> <Gold.PLP.Chemscore.CHOScore>
0.0000

> <Gold.PLP.Chemscore.Metal>
0.0000

> <Gold.Chemscore.Hbonds>
donor molecule, donor type, donor heavy atom, donor atom, acceptor molecule, acceptor atom, score
      P1  H  7989  7998       L1    21  0.93
      P1  H 10752 10765       L1    17  1.00

> <Gold.PLP.Chemscore.Internal.Correction>
10.7898

> <Gold.Rescore>
     Score         DG    S(hbond)    S(metal)    S(lipo)     H(rot)  DE(clash)    DE(int)     intcor
     12.53     -16.02       1.88        0.00      74.79       1.76       0.21       3.29       ----

> <Gold.Chemscore.Fitness>
12.5279

> <Gold.Chemscore.DG>
-16.0208

> <Gold.Chemscore.ZeroCoef>
-5.4800

> <Gold.Chemscore.Hbond>
1.8835

> <Gold.Chemscore.Metal>
0.0000

> <Gold.Chemscore.Lipo>
74.7944

> <Gold.Chemscore.Internal_Hbond>
0.0000

> <Gold.Chemscore.DEClash>
0.2056

> <Gold.Chemscore.DEInternal>
3.2872

> <Gold.Chemscore.Rot>
1.7583

> <Gold.Chemscore.Internal.Correction>
   9.000000E+99

> <Gold.Chemscore.Hbonds>
donor molecule, donor type, donor heavy atom, donor atom, acceptor molecule, acceptor atom, score
      P1  H  7989  7998       L1    21  0.81
      P1  H 10752 10765       L1    17  0.99

> <Gold.Chemscore.Hbond.Weighted>
-6.2910

> <Gold.Chemscore.Metal.Weighted>
-0.0000

> <Gold.Chemscore.Lipo.Weighted>
-8.7509

> <Gold.Chemscore.Internal_Hbond.Weighted>
0.0000

> <Gold.Chemscore.DEClash.Weighted>
0.2056

> <Gold.Chemscore.DEInternal.Weighted>
3.2872

> <Gold.Chemscore.Rot.Weighted>
4.5012

> <Gold.Chemscore.Internal.Correction.Weighted>
   9.000000E+99

> <Gold.Protein.RotatedTorsions>
[ 6907 6896 6895 6894 ] final   43.52 input  -60.11 | X-H torsion
[ 7974 7965 7964 7962 ] final  140.11 input  175.53 | X-H torsion
[ 8008 7997 7996 7995 ] final  114.16 input   59.86 | X-H torsion
[ 10167 10162 10161 10158 ] final  -87.76 input  -65.29 | X-H torsion
[ 10718 10713 10712 10709 ] final  -92.94 input   66.30 | X-H torsion
[ 10763 10752 10751 10750 ] final -155.19 input  -60.55 | X-H torsion
[ 11005 11000 10999 10996 ] final   19.00 input  -57.11 | X-H torsion

> <Gold.Protein.ActiveResidues>
 VAL166  LYS551  ARG553  GLY616  TRP617  ASP618  TYR619  PRO620  LYS621  CYS622 
 ASP623  PHE694  ASN695  SER759  ASP760  ASP761  ALA762  ILE779  LEU786  VAL792 
 PHE793  MET794  SER795  GLU796  ALA797  LYS798  CYS799  TRP800  GLU811  SER814 

> <Gold.Protein.RotatedAtoms>
  152.2212  134.8411  160.0485 H   0  0  0  0  0  0  0  0  0  0  0  0  # atno 6907 bound_to 6896
  151.9193  133.3576  159.3899 H   0  0  0  0  0  0  0  0  0  0  0  0  # atno 6908 bound_to 6896
  150.7000  134.4576  159.5409 H   0  0  0  0  0  0  0  0  0  0  0  0  # atno 6909 bound_to 6896
  144.9216  139.5160  143.5660 H   0  0  0  0  0  0  0  0  0  0  0  0  # atno 7974 bound_to 7965
  156.2303  140.2965  156.0173 H   0  0  0  0  0  0  0  0  0  0  0  0  # atno 8008 bound_to 7997
  155.2242  140.0416  157.2970 H   0  0  0  0  0  0  0  0  0  0  0  0  # atno 8009 bound_to 7997
  154.5985  140.2420  155.7831 H   0  0  0  0  0  0  0  0  0  0  0  0  # atno 8010 bound_to 7997
  140.3813  143.2747  151.9380 H   0  0  0  0  0  0  0  0  0  0  0  0  # atno 10167 bound_to 10162
  156.0007  130.5007  150.5701 H   0  0  0  0  0  0  0  0  0  0  0  0  # atno 10718 bound_to 10713
  154.7805  135.3173  154.8000 H   0  0  0  0  0  0  0  0  0  0  0  0  # atno 10763 bound_to 10752
  153.8712  135.6844  153.4778 H   0  0  0  0  0  0  0  0  0  0  0  0  # atno 10764 bound_to 10752
  153.1440  135.4727  154.9476 H   0  0  0  0  0  0  0  0  0  0  0  0  # atno 10765 bound_to 10752
  140.4185  134.1543  155.7671 H   0  0  0  0  0  0  0  0  0  0  0  0  # atno 11005 bound_to 11000
  146.3207  139.8100  142.8947 LP  0  0  0  0  0  0  0  0  0  0  0  0  # atno 17320 bound_to 7965
  145.3286  141.0261  143.3459 LP  0  0  0  0  0  0  0  0  0  0  0  0  # atno 17321 bound_to 7965
  139.4795  144.5815  151.7924 LP  0  0  0  0  0  0  0  0  0  0  0  0  # atno 17342 bound_to 10162
  140.4934  144.1276  150.5955 LP  0  0  0  0  0  0  0  0  0  0  0  0  # atno 17343 bound_to 10162
  157.3598  131.0748  151.1646 LP  0  0  0  0  0  0  0  0  0  0  0  0  # atno 17370 bound_to 10713
  157.2435  130.6580  149.5900 LP  0  0  0  0  0  0  0  0  0  0  0  0  # atno 17371 bound_to 10713
  141.1793  133.8447  157.1313 LP  0  0  0  0  0  0  0  0  0  0  0  0  # atno 17394 bound_to 11000
  140.0217  134.9943  157.0604 LP  0  0  0  0  0  0  0  0  0  0  0  0  # atno 17395 bound_to 11000

$$$$
