AV-unprocessed.smi:1585|AV-procd|sdf|6369|dock5
  -GOLD-   22720 6593D 1   1.00000     0.00000
 Structure written by MMmdl.
 43 44  0  0  0  0  0  0  0  0  2 V2000
  152.9851  138.8841  157.4813 C   0  0  0  0  0  0  0  0  0  0  0  0
  152.1299  139.2867  156.3286 C   0  0  0  0  0  0  0  0  0  0  0  0
  151.1681  138.6321  155.6115 C   0  0  0  0  0  0  0  0  0  0  0  0
  150.7686  139.6011  154.6530 C   0  0  0  0  0  0  0  0  0  0  0  0
  149.7646  139.3076  153.6950 N   0  0  0  0  0  0  0  0  0  0  0  0
  148.6026  138.6645  153.9006 C   0  0  0  0  0  0  0  0  0  0  0  0
  148.2207  138.2151  154.9815 O   0  0  0  0  0  0  0  0  0  0  0  0
  147.8903  138.5633  152.7685 N   0  0  0  0  0  0  0  0  0  0  0  0
  146.5722  137.9441  152.6660 C   0  0  0  0  0  0  0  0  0  0  0  0
  146.5366  136.8203  151.6091 C   0  0  2  0  0  0  0  0  0  0  0  0
  146.6552  137.4159  150.3322 O   0  0  0  0  0  0  0  0  0  0  0  0
  145.1994  136.0526  151.6453 C   0  0  0  0  0  0  0  0  0  0  0  0
  145.3491  134.6239  151.2655 N   0  3  0  0  0  0  0  0  0  0  0  0
  144.0372  133.9498  151.0814 C   0  0  0  0  0  0  0  0  0  0  0  0
  144.2159  132.5183  150.5477 C   0  0  0  0  0  0  0  0  0  0  0  0
  145.1286  131.6967  151.4672 C   0  0  0  0  0  0  0  0  0  0  0  0
  146.4621  132.4276  151.6696 C   0  0  0  0  0  0  0  0  0  0  0  0
  146.2332  133.8580  152.1857 C   0  0  0  0  0  0  0  0  0  0  0  0
  151.4253  140.7447  154.7753 N   0  0  0  0  0  0  0  0  0  0  0  0
  152.3015  140.5489  155.8492 O   0  0  0  0  0  0  0  0  0  0  0  0
  152.5114  138.0891  158.0576 H   0  0  0  0  0  0  0  0  0  0  0  0
  153.1600  139.7269  158.1505 H   0  0  0  0  0  0  0  0  0  0  0  0
  153.9526  138.5210  157.1345 H   0  0  0  0  0  0  0  0  0  0  0  0
  150.8120  137.6221  155.7511 H   0  0  0  0  0  0  0  0  0  0  0  0
  149.9493  139.6267  152.7556 H   0  0  0  0  0  0  0  0  0  0  0  0
  148.2754  138.9600  151.9235 H   0  0  0  0  0  0  0  0  0  0  0  0
  146.3106  137.5429  153.6468 H   0  0  0  0  0  0  0  0  0  0  0  0
  145.8266  138.7102  152.4492 H   0  0  0  0  0  0  0  0  0  0  0  0
  147.3697  136.1356  151.7624 H   0  0  0  0  0  0  0  0  0  0  0  0
  145.8276  137.8158  150.1103 H   0  0  0  0  0  0  0  0  0  0  0  0
  144.7496  136.1101  152.6379 H   0  0  0  0  0  0  0  0  0  0  0  0
  144.4999  136.5459  150.9682 H   0  0  0  0  0  0  0  0  0  0  0  0
  143.4977  133.9350  152.0298 H   0  0  0  0  0  0  0  0  0  0  0  0
  143.4265  134.5167  150.3776 H   0  0  0  0  0  0  0  0  0  0  0  0
  143.2448  132.0308  150.4555 H   0  0  0  0  0  0  0  0  0  0  0  0
  144.6414  132.5522  149.5439 H   0  0  0  0  0  0  0  0  0  0  0  0
  144.6413  131.5433  152.4307 H   0  0  0  0  0  0  0  0  0  0  0  0
  145.3009  130.7075  151.0423 H   0  0  0  0  0  0  0  0  0  0  0  0
  147.0878  131.8737  152.3702 H   0  0  0  0  0  0  0  0  0  0  0  0
  147.0092  132.4619  150.7263 H   0  0  0  0  0  0  0  0  0  0  0  0
  147.1987  134.3513  152.2894 H   0  0  0  0  0  0  0  0  0  0  0  0
  145.7874  133.8295  153.1814 H   0  0  0  0  0  0  0  0  0  0  0  0
  145.7944  134.6223  150.3587 H   0  0  0  0  0  0  0  0  0  0  0  0
  1  2  1  0  0  0  0
  1 21  1  0  0  0  0
  1 22  1  0  0  0  0
  1 23  1  0  0  0  0
  2 20  1  0  0  0  0
  2  3  2  0  0  0  0
  3  4  1  0  0  0  0
  3 24  1  0  0  0  0
  4  5  1  0  0  0  0
  4 19  2  0  0  0  0
  5  6  1  0  0  0  0
  5 25  1  0  0  0  0
  6  7  2  0  0  0  0
  6  8  1  0  0  0  0
  8  9  1  0  0  0  0
  8 26  1  0  0  0  0
  9 10  1  0  0  0  0
  9 27  1  0  0  0  0
  9 28  1  0  0  0  0
 10 11  1  0  0  0  0
 10 12  1  0  0  0  0
 10 29  1  0  0  0  0
 11 30  1  0  0  0  0
 12 13  1  0  0  0  0
 12 31  1  0  0  0  0
 12 32  1  0  0  0  0
 13 18  1  0  0  0  0
 13 14  1  0  0  0  0
 13 43  1  0  0  0  0
 14 15  1  0  0  0  0
 14 33  1  0  0  0  0
 14 34  1  0  0  0  0
 15 16  1  0  0  0  0
 15 35  1  0  0  0  0
 15 36  1  0  0  0  0
 16 17  1  0  0  0  0
 16 37  1  0  0  0  0
 16 38  1  0  0  0  0
 17 18  1  0  0  0  0
 17 39  1  0  0  0  0
 17 40  1  0  0  0  0
 18 41  1  0  0  0  0
 18 42  1  0  0  0  0
 19 20  1  0  0  0  0
M  CHG  1  13   1
M  END
> <s_m_source_file>
AV-unprocessed.smi

> <i_m_source_file_index>
1585

> <i_lp_mmshare_version>
43012

> <i_f3d_flags>
0

> <s_epik_input>
W0NIM11jMVtjSF1jKG5vMSlbTkhdQyg9TylbTkhdW0NIMl1bQ0BIXShbT0hdKVtDSDJdTjJbQ0gyXVtDSDJdW0NIMl1bQ0gyXVtDSDJdMg==

> <s_epik_cmdline>
J2VwaWtfcHl0aG9uJywgJy1waCcsICc3LjAnLCAnLXRuJywgJzgnLCAnLW1hJywgJzIwMCcsICctbWV0YWxfYmluZGluZycsICctaW1hZScsICc8aW5maWxlLm1hZT4nLCAnLW9tYWUnLCAnPG91dGZpbGUubWFlPic=

> <r_epik_Ionization_Penalty>
0.00531443

> <r_epik_Ionization_Penalty_Charging>
0.0052814

> <r_epik_Ionization_Penalty_Neutral>
3.3027e-05

> <r_epik_State_Penalty>
0.00385383

> <r_epik_Charging_Adjusted_Penalty>
0.00913523

> <i_epik_Tot_Q>
1

> <i_epik_Tot_abs_Q>
1

> <r_epik_Metal_State_Penalty>
0.0139186

> <b_epik_Metal_Only>
0

> <s_lp_Force_Field>
OPLS_2005

> <r_lp_Energy>
15.3919

> <b_lp_Chiralities_Consistent>
1

> <s_lp_Variant>
AV-unprocessed.smi:1585-1

> <Gold.Version>
5.8.1

> <Gold.Id.Protein>
6NUR|6NUR_protein|mol2

> <Gold.PLP.Fitness>
50.8924

> <Gold.PLP.PLP>
-32.3850

> <Gold.PLP.part.hbond>
-8.0000

> <Gold.PLP.part.metal>
0.0000

> <Gold.PLP.part.buried>
4.7240

> <Gold.PLP.part.nonpolar>
-29.9186

> <Gold.PLP.part.repulsive>
0.4087

> <Gold.PLP.ligand.clash>
0.0000

> <Gold.PLP.ligand.torsion>
0.8397

> <Gold.PLP.Chemscore.Hbond>
6.7036

> <Gold.PLP.Chemscore.CHOScore>
0.0000

> <Gold.PLP.Chemscore.Metal>
0.0000

> <Gold.Chemscore.Hbonds>
donor molecule, donor type, donor heavy atom, donor atom, acceptor molecule, acceptor atom, score
      L1  H     5    25       P1  7957  1.00
      L1  H     8    26       P1  7957  0.98
      L1  H    11    30       P1 10171  0.81
      P1  H  7954  7966       L1    11  0.86
      P1  H  7989  7998       L1    19  0.25
      P1  H  7997  8010       L1    20  0.02

> <Gold.PLP.Chemscore.Internal.Correction>
0.0761

> <Gold.Rescore>
     Score         DG    S(hbond)    S(metal)    S(lipo)     H(rot)  DE(clash)    DE(int)     intcor
     19.44     -26.46       5.44        0.00      78.46       2.50       4.74       2.28       ----

> <Gold.Chemscore.Fitness>
19.4357

> <Gold.Chemscore.DG>
-26.4582

> <Gold.Chemscore.ZeroCoef>
-5.4800

> <Gold.Chemscore.Hbond>
5.4450

> <Gold.Chemscore.Metal>
0.0000

> <Gold.Chemscore.Lipo>
78.4616

> <Gold.Chemscore.Internal_Hbond>
0.0000

> <Gold.Chemscore.DEClash>
4.7445

> <Gold.Chemscore.DEInternal>
2.2780

> <Gold.Chemscore.Rot>
2.4953

> <Gold.Chemscore.Internal.Correction>
   9.000000E+99

> <Gold.Chemscore.Hbonds>
donor molecule, donor type, donor heavy atom, donor atom, acceptor molecule, acceptor atom, score
      L1  H     5    25       P1  7957  0.99
      L1  H     8    26       P1  7957  0.88
      L1  H    11    30       P1 10171  0.80
      P1  H  7954  7966       L1    11  0.80
      P1  H  7989  7998       L1    19  0.04

> <Gold.Chemscore.Hbond.Weighted>
-18.1862

> <Gold.Chemscore.Metal.Weighted>
-0.0000

> <Gold.Chemscore.Lipo.Weighted>
-9.1800

> <Gold.Chemscore.Internal_Hbond.Weighted>
0.0000

> <Gold.Chemscore.DEClash.Weighted>
4.7445

> <Gold.Chemscore.DEInternal.Weighted>
2.2780

> <Gold.Chemscore.Rot.Weighted>
6.3880

> <Gold.Chemscore.Internal.Correction.Weighted>
   9.000000E+99

> <Gold.Protein.RotatedTorsions>
[ 6907 6896 6895 6894 ] final   78.24 input  -60.11 | X-H torsion
[ 7974 7965 7964 7962 ] final  115.39 input  175.53 | X-H torsion
[ 8008 7997 7996 7995 ] final   67.35 input   59.86 | X-H torsion
[ 10167 10162 10161 10158 ] final -162.39 input  -65.29 | X-H torsion
[ 10718 10713 10712 10709 ] final  177.07 input   66.30 | X-H torsion
[ 10763 10752 10751 10750 ] final -168.78 input  -60.55 | X-H torsion
[ 11005 11000 10999 10996 ] final   51.55 input  -57.11 | X-H torsion

> <Gold.Protein.ActiveResidues>
 VAL166  LYS551  ARG553  GLY616  TRP617  ASP618  TYR619  PRO620  LYS621  CYS622 
 ASP623  PHE694  ASN695  SER759  ASP760  ASP761  ALA762  ILE779  LEU786  VAL792 
 PHE793  MET794  SER795  GLU796  ALA797  LYS798  CYS799  TRP800  GLU811  SER814 

> <Gold.Protein.RotatedAtoms>
  152.5151  134.3695  159.9312 H   0  0  0  0  0  0  0  0  0  0  0  0  # atno 6907 bound_to 6896
  151.3649  133.3869  159.2701 H   0  0  0  0  0  0  0  0  0  0  0  0  # atno 6908 bound_to 6896
  150.9623  134.9028  159.7796 H   0  0  0  0  0  0  0  0  0  0  0  0  # atno 6909 bound_to 6896
  145.1926  139.2992  143.4360 H   0  0  0  0  0  0  0  0  0  0  0  0  # atno 7974 bound_to 7965
  155.6915  140.3496  155.4895 H   0  0  0  0  0  0  0  0  0  0  0  0  # atno 8008 bound_to 7997
  155.9520  140.1121  157.0991 H   0  0  0  0  0  0  0  0  0  0  0  0  # atno 8009 bound_to 7997
  154.4124  140.1192  156.5051 H   0  0  0  0  0  0  0  0  0  0  0  0  # atno 8010 bound_to 7997
  139.6396  144.0285  152.2081 H   0  0  0  0  0  0  0  0  0  0  0  0  # atno 10167 bound_to 10162
  156.9108  130.9909  151.3021 H   0  0  0  0  0  0  0  0  0  0  0  0  # atno 10718 bound_to 10713
  154.6592  135.2922  154.9888 H   0  0  0  0  0  0  0  0  0  0  0  0  # atno 10763 bound_to 10752
  154.0954  135.6584  153.4863 H   0  0  0  0  0  0  0  0  0  0  0  0  # atno 10764 bound_to 10752
  153.0420  135.5230  154.7535 H   0  0  0  0  0  0  0  0  0  0  0  0  # atno 10765 bound_to 10752
  140.0923  134.5193  155.8840 H   0  0  0  0  0  0  0  0  0  0  0  0  # atno 11005 bound_to 11000
  146.3433  140.2144  142.8590 LP  0  0  0  0  0  0  0  0  0  0  0  0  # atno 17320 bound_to 7965
  145.0026  140.8645  143.5272 LP  0  0  0  0  0  0  0  0  0  0  0  0  # atno 17321 bound_to 7965
  139.9971  144.6320  150.7762 LP  0  0  0  0  0  0  0  0  0  0  0  0  # atno 17342 bound_to 10162
  140.7483  143.2921  151.3303 LP  0  0  0  0  0  0  0  0  0  0  0  0  # atno 17343 bound_to 10162
  157.5968  130.8484  149.8742 LP  0  0  0  0  0  0  0  0  0  0  0  0  # atno 17370 bound_to 10713
  156.0537  130.3712  150.1142 LP  0  0  0  0  0  0  0  0  0  0  0  0  # atno 17371 bound_to 10713
  141.2081  133.6671  156.6352 LP  0  0  0  0  0  0  0  0  0  0  0  0  # atno 17394 bound_to 11000
  140.3335  134.7909  157.4344 LP  0  0  0  0  0  0  0  0  0  0  0  0  # atno 17395 bound_to 11000

$$$$
