AV-unprocessed.smi:1466|AV-procd|sdf|5953|dock8
  -GOLD-   22720 6 43D 1   1.00000     0.00000
 Structure written by MMmdl.
 49 50  0  0  0  0  0  0  0  0  2 V2000
  152.2017  145.0501  156.9775 C   0  0  0  0  0  0  0  0  0  0  0  0
  151.9297  144.2796  158.1837 N   0  0  0  0  0  0  0  0  0  0  0  0
  152.1319  144.8756  159.4996 C   0  0  0  0  0  0  0  0  0  0  0  0
  151.4610  142.9522  158.0786 C   0  0  0  0  0  0  0  0  0  0  0  0
  152.0290  141.8705  158.7956 C   0  0  0  0  0  0  0  0  0  0  0  0
  151.5082  140.5695  158.6380 C   0  0  0  0  0  0  0  0  0  0  0  0
  150.4238  140.3529  157.7534 C   0  0  0  0  0  0  0  0  0  0  0  0
  149.8174  139.0867  157.5327 N   0  0  0  0  0  0  0  0  0  0  0  0
  149.7710  138.0284  158.3602 C   0  0  0  0  0  0  0  0  0  0  0  0
  150.2750  137.9815  159.4821 O   0  0  0  0  0  0  0  0  0  0  0  0
  149.1164  137.0011  157.8006 N   0  0  0  0  0  0  0  0  0  0  0  0
  148.9121  135.7015  158.4297 C   0  0  0  0  0  0  0  0  0  0  0  0
  147.4190  135.3273  158.4779 C   0  0  0  0  0  0  0  0  0  0  0  0
  146.9341  135.2314  159.8595 N   0  0  0  0  0  0  0  0  0  0  0  0
  146.1086  134.0550  160.1742 C   0  0  0  0  0  0  0  0  0  0  0  0
  146.8136  133.0258  161.0876 C   0  0  0  0  0  0  0  0  0  0  0  0
  147.8399  133.5942  162.0877 C   0  0  0  0  0  0  0  0  0  0  0  0
  147.3253  134.7550  162.9649 C   0  0  0  0  0  0  0  0  0  0  0  0
  146.7204  135.9704  162.2216 C   0  0  0  0  0  0  0  0  0  0  0  0
  147.2440  136.1678  160.7894 C   0  0  0  0  0  0  0  0  0  0  0  0
  147.9227  137.1640  160.5380 O   0  0  0  0  0  0  0  0  0  0  0  0
  149.8845  141.4650  157.0765 C   0  0  0  0  0  0  0  0  0  0  0  0
  150.4143  142.6939  157.2569 N   0  3  0  0  0  0  0  0  0  0  0  0
  151.3088  145.1178  156.3552 H   0  0  0  0  0  0  0  0  0  0  0  0
  152.9978  144.5831  156.3970 H   0  0  0  0  0  0  0  0  0  0  0  0
  152.5162  146.0656  157.2184 H   0  0  0  0  0  0  0  0  0  0  0  0
  151.1883  144.9311  160.0432 H   0  0  0  0  0  0  0  0  0  0  0  0
  152.5319  145.8866  159.4200 H   0  0  0  0  0  0  0  0  0  0  0  0
  152.8367  144.2843  160.0852 H   0  0  0  0  0  0  0  0  0  0  0  0
  152.8571  142.0160  159.4725 H   0  0  0  0  0  0  0  0  0  0  0  0
  151.9453  139.7666  159.2113 H   0  0  0  0  0  0  0  0  0  0  0  0
  149.4280  138.9461  156.6120 H   0  0  0  0  0  0  0  0  0  0  0  0
  148.7363  137.1224  156.8731 H   0  0  0  0  0  0  0  0  0  0  0  0
  149.4892  134.9392  157.9033 H   0  0  0  0  0  0  0  0  0  0  0  0
  149.3147  135.7493  159.4418 H   0  0  0  0  0  0  0  0  0  0  0  0
  146.8336  136.0610  157.9220 H   0  0  0  0  0  0  0  0  0  0  0  0
  147.2496  134.3802  157.9620 H   0  0  0  0  0  0  0  0  0  0  0  0
  145.1802  134.3849  160.6407 H   0  0  0  0  0  0  0  0  0  0  0  0
  145.7789  133.5566  159.2617 H   0  0  0  0  0  0  0  0  0  0  0  0
  146.0551  132.4566  161.6262 H   0  0  0  0  0  0  0  0  0  0  0  0
  147.3315  132.3018  160.4577 H   0  0  0  0  0  0  0  0  0  0  0  0
  148.1804  132.7871  162.7370 H   0  0  0  0  0  0  0  0  0  0  0  0
  148.7315  133.9149  161.5470 H   0  0  0  0  0  0  0  0  0  0  0  0
  146.5799  134.3680  163.6603 H   0  0  0  0  0  0  0  0  0  0  0  0
  148.1507  135.1021  163.5875 H   0  0  0  0  0  0  0  0  0  0  0  0
  145.6344  135.8880  162.1910 H   0  0  0  0  0  0  0  0  0  0  0  0
  146.9135  136.8749  162.7998 H   0  0  0  0  0  0  0  0  0  0  0  0
  149.0508  141.4104  156.3912 H   0  0  0  0  0  0  0  0  0  0  0  0
  150.0022  143.4732  156.7436 H   0  0  0  0  0  0  0  0  0  0  0  0
  1  2  1  0  0  0  0
  1 24  1  0  0  0  0
  1 25  1  0  0  0  0
  1 26  1  0  0  0  0
  2  3  1  0  0  0  0
  2  4  1  0  0  0  0
  3 27  1  0  0  0  0
  3 28  1  0  0  0  0
  3 29  1  0  0  0  0
  4 23  1  0  0  0  0
  4  5  2  0  0  0  0
  5  6  1  0  0  0  0
  5 30  1  0  0  0  0
  6  7  2  0  0  0  0
  6 31  1  0  0  0  0
  7  8  1  0  0  0  0
  7 22  1  0  0  0  0
  8  9  1  0  0  0  0
  8 32  1  0  0  0  0
  9 10  2  0  0  0  0
  9 11  1  0  0  0  0
 11 12  1  0  0  0  0
 11 33  1  0  0  0  0
 12 13  1  0  0  0  0
 12 34  1  0  0  0  0
 12 35  1  0  0  0  0
 13 14  1  0  0  0  0
 13 36  1  0  0  0  0
 13 37  1  0  0  0  0
 14 20  1  0  0  0  0
 14 15  1  0  0  0  0
 15 16  1  0  0  0  0
 15 38  1  0  0  0  0
 15 39  1  0  0  0  0
 16 17  1  0  0  0  0
 16 40  1  0  0  0  0
 16 41  1  0  0  0  0
 17 18  1  0  0  0  0
 17 42  1  0  0  0  0
 17 43  1  0  0  0  0
 18 19  1  0  0  0  0
 18 44  1  0  0  0  0
 18 45  1  0  0  0  0
 19 20  1  0  0  0  0
 19 46  1  0  0  0  0
 19 47  1  0  0  0  0
 20 21  2  0  0  0  0
 22 23  2  0  0  0  0
 22 48  1  0  0  0  0
 23 49  1  0  0  0  0
M  CHG  1  23   1
M  END
> <s_m_source_file>
AV-unprocessed.smi

> <i_m_source_file_index>
1466

> <i_lp_mmshare_version>
43012

> <i_f3d_flags>
0

> <s_epik_input>
W0NIM11OKFtDSDNdKWMxW2NIXVtjSF1jKFtjSF1uMSlbTkhdQyg9TylbTkhdW0NIMl1bQ0gyXU4yW0NIMl1bQ0gyXVtDSDJdW0NIMl1bQ0gyXUMyPU8=

> <s_epik_cmdline>
J2VwaWtfcHl0aG9uJywgJy1waCcsICc3LjAnLCAnLXRuJywgJzgnLCAnLW1hJywgJzIwMCcsICctbWV0YWxfYmluZGluZycsICctaW1hZScsICc8aW5maWxlLm1hZT4nLCAnLW9tYWUnLCAnPG91dGZpbGUubWFlPic=

> <r_lp_tautomer_probability>
0.999994

> <r_epik_Ionization_Penalty>
0.269687

> <r_epik_Ionization_Penalty_Charging>
0.269668

> <r_epik_Ionization_Penalty_Neutral>
1.89217e-05

> <r_epik_State_Penalty>
0.261755

> <r_epik_Charging_Adjusted_Penalty>
0.531423

> <i_epik_Tot_Q>
1

> <i_epik_Tot_abs_Q>
1

> <r_epik_Metal_State_Penalty>
0.546954

> <b_epik_Metal_Only>
0

> <s_lp_Force_Field>
OPLS_2005

> <r_lp_Energy>
31.5815

> <b_lp_Chiralities_Consistent>
1

> <s_lp_Variant>
AV-unprocessed.smi:1466-1

> <Gold.Version>
5.8.1

> <Gold.Id.Protein>
6NUR|6NUR_protein|mol2

> <Gold.PLP.Fitness>
47.5067

> <Gold.PLP.PLP>
-39.8257

> <Gold.PLP.part.hbond>
-4.0000

> <Gold.PLP.part.metal>
0.0000

> <Gold.PLP.part.buried>
-6.6244

> <Gold.PLP.part.nonpolar>
-29.9048

> <Gold.PLP.part.repulsive>
0.1505

> <Gold.PLP.ligand.clash>
0.0000

> <Gold.PLP.ligand.torsion>
1.5770

> <Gold.PLP.Chemscore.Hbond>
3.6000

> <Gold.PLP.Chemscore.CHOScore>
0.0000

> <Gold.PLP.Chemscore.Metal>
0.0000

> <Gold.Chemscore.Hbonds>
donor molecule, donor type, donor heavy atom, donor atom, acceptor molecule, acceptor atom, score
      L1  H    23    49       P1  8028  2.00
      P1  H  6931  6943       L1    21  0.71
      P1  H  6934  6947       L1    21  0.79

> <Gold.PLP.Chemscore.Internal.Correction>
0.0350

> <Gold.Rescore>
     Score         DG    S(hbond)    S(metal)    S(lipo)     H(rot)  DE(clash)    DE(int)     intcor
     13.88     -19.02       1.98        0.00      92.19       1.50       1.76       3.37       ----

> <Gold.Chemscore.Fitness>
13.8819

> <Gold.Chemscore.DG>
-19.0171

> <Gold.Chemscore.ZeroCoef>
-5.4800

> <Gold.Chemscore.Hbond>
1.9769

> <Gold.Chemscore.Metal>
0.0000

> <Gold.Chemscore.Lipo>
92.1911

> <Gold.Chemscore.Internal_Hbond>
0.0000

> <Gold.Chemscore.DEClash>
1.7640

> <Gold.Chemscore.DEInternal>
3.3712

> <Gold.Chemscore.Rot>
1.5047

> <Gold.Chemscore.Internal.Correction>
   9.000000E+99

> <Gold.Chemscore.Hbonds>
donor molecule, donor type, donor heavy atom, donor atom, acceptor molecule, acceptor atom, score
      L1  H    23    49       P1  8028  0.97
      P1  H  6931  6943       L1    21  0.69
      P1  H  6934  6947       L1    21  0.72

> <Gold.Chemscore.Hbond.Weighted>
-6.6029

> <Gold.Chemscore.Metal.Weighted>
-0.0000

> <Gold.Chemscore.Lipo.Weighted>
-10.7864

> <Gold.Chemscore.Internal_Hbond.Weighted>
0.0000

> <Gold.Chemscore.DEClash.Weighted>
1.7640

> <Gold.Chemscore.DEInternal.Weighted>
3.3712

> <Gold.Chemscore.Rot.Weighted>
3.8522

> <Gold.Chemscore.Internal.Correction.Weighted>
   9.000000E+99

> <Gold.Protein.RotatedTorsions>
[ 6907 6896 6895 6894 ] final  -36.73 input  -60.11 | X-H torsion
[ 7974 7965 7964 7962 ] final  125.24 input  175.53 | X-H torsion
[ 8008 7997 7996 7995 ] final   67.18 input   59.86 | X-H torsion
[ 10167 10162 10161 10158 ] final  -77.35 input  -65.29 | X-H torsion
[ 10718 10713 10712 10709 ] final -124.97 input   66.30 | X-H torsion
[ 10763 10752 10751 10750 ] final   54.44 input  -60.55 | X-H torsion
[ 11005 11000 10999 10996 ] final   31.34 input  -57.11 | X-H torsion

> <Gold.Protein.ActiveResidues>
 VAL166  LYS551  ARG553  GLY616  TRP617  ASP618  TYR619  PRO620  LYS621  CYS622 
 ASP623  PHE694  ASN695  SER759  ASP760  ASP761  ALA762  ILE779  LEU786  VAL792 
 PHE793  MET794  SER795  GLU796  ALA797  LYS798  CYS799  TRP800  GLU811  SER814 

> <Gold.Protein.RotatedAtoms>
  151.0235  134.9486  159.8071 H   0  0  0  0  0  0  0  0  0  0  0  0  # atno 6907 bound_to 6896
  152.5330  134.2873  159.9040 H   0  0  0  0  0  0  0  0  0  0  0  0  # atno 6908 bound_to 6896
  151.2881  133.4136  159.2665 H   0  0  0  0  0  0  0  0  0  0  0  0  # atno 6909 bound_to 6896
  145.0752  139.3699  143.4937 H   0  0  0  0  0  0  0  0  0  0  0  0  # atno 7974 bound_to 7965
  155.6888  140.3496  155.4885 H   0  0  0  0  0  0  0  0  0  0  0  0  # atno 8008 bound_to 7997
  155.9542  140.1125  157.0973 H   0  0  0  0  0  0  0  0  0  0  0  0  # atno 8009 bound_to 7997
  154.4128  140.1188  156.5079 H   0  0  0  0  0  0  0  0  0  0  0  0  # atno 8010 bound_to 7997
  140.4778  143.2410  151.8106 H   0  0  0  0  0  0  0  0  0  0  0  0  # atno 10167 bound_to 10162
  156.1634  130.6617  151.0081 H   0  0  0  0  0  0  0  0  0  0  0  0  # atno 10718 bound_to 10713
  152.9805  135.5745  154.4904 H   0  0  0  0  0  0  0  0  0  0  0  0  # atno 10763 bound_to 10752
  154.4439  135.2776  155.1830 H   0  0  0  0  0  0  0  0  0  0  0  0  # atno 10764 bound_to 10752
  154.3486  135.6214  153.5685 H   0  0  0  0  0  0  0  0  0  0  0  0  # atno 10765 bound_to 10752
  140.2849  134.2931  155.7791 H   0  0  0  0  0  0  0  0  0  0  0  0  # atno 11005 bound_to 11000
  146.3530  140.0516  142.8635 LP  0  0  0  0  0  0  0  0  0  0  0  0  # atno 17320 bound_to 7965
  145.1244  140.9481  143.4581 LP  0  0  0  0  0  0  0  0  0  0  0  0  # atno 17321 bound_to 7965
  139.4828  144.4811  151.9305 LP  0  0  0  0  0  0  0  0  0  0  0  0  # atno 17342 bound_to 10162
  140.3897  144.2632  150.5901 LP  0  0  0  0  0  0  0  0  0  0  0  0  # atno 17343 bound_to 10162
  157.6749  131.0852  150.7519 LP  0  0  0  0  0  0  0  0  0  0  0  0  # atno 17370 bound_to 10713
  156.7580  130.4789  149.5442 LP  0  0  0  0  0  0  0  0  0  0  0  0  # atno 17371 bound_to 10713
  141.2156  133.7548  156.9536 LP  0  0  0  0  0  0  0  0  0  0  0  0  # atno 17394 bound_to 11000
  140.1249  134.9393  157.2256 LP  0  0  0  0  0  0  0  0  0  0  0  0  # atno 17395 bound_to 11000

$$$$
