AV-unprocessed.smi:90|AV-procd|sdf|829|dock10
  -GOLD-   2262017253D 1   1.00000     0.00000
 Structure written by MMmdl.
 64 67  0  0  0  0  0  0  0  0  2 V2000
  145.3801  135.2367  154.8250 C   0  0  0  0  0  0  0  0  0  0  0  0
  146.2516  134.1726  155.3094 N   0  0  0  0  0  0  0  0  0  0  0  0
  146.1842  132.8743  154.6364 C   0  0  0  0  0  0  0  0  0  0  0  0
  147.1745  132.7683  153.4589 C   0  0  0  0  0  0  0  0  0  0  0  0
  146.5218  132.8682  152.0560 C   0  0  2  0  0  0  0  0  0  0  0  0
  145.7912  134.2228  151.8770 C   0  0  0  0  0  0  0  0  0  0  0  0
  145.1174  134.3423  150.5054 C   0  0  0  0  0  0  0  0  0  0  0  0
  144.1727  133.1602  150.2879 C   0  0  0  0  0  0  0  0  0  0  0  0
  144.9313  131.8375  150.4529 C   0  0  0  0  0  0  0  0  0  0  0  0
  145.5736  131.7374  151.7906 N   0  3  1  0  0  0  0  0  0  0  0  0
  146.1556  130.3870  151.9882 C   0  0  0  0  0  0  0  0  0  0  0  0
  147.3071  134.4853  156.1175 C   0  0  0  0  0  0  0  0  0  0  0  0
  148.1106  133.4800  156.5604 N   0  0  0  0  0  0  0  0  0  0  0  0
  149.1619  133.7341  157.3430 C   0  0  0  0  0  0  0  0  0  0  0  0
  149.5888  134.9074  157.8072 N   0  0  0  0  0  0  0  0  0  0  0  0
  148.7862  135.9259  157.3884 C   0  0  0  0  0  0  0  0  0  0  0  0
  147.6399  135.8081  156.5473 C   0  0  0  0  0  0  0  0  0  0  0  0
  147.0915  137.0702  156.3407 N   0  0  0  0  0  0  0  0  0  0  0  0
  147.8674  137.8791  157.0063 C   0  0  0  0  0  0  0  0  0  0  0  0
  148.9019  137.2747  157.6823 N   0  0  0  0  0  0  0  0  0  0  0  0
  149.9106  137.9381  158.4988 C   0  0  0  0  0  0  0  0  0  0  0  0
  150.9138  138.8402  157.7161 C   0  0  0  0  0  0  0  0  0  0  0  0
  152.1060  139.1727  158.6639 C   0  0  0  0  0  0  0  0  0  0  0  0
  153.0651  140.0620  158.1366 O   0  0  0  0  0  0  0  0  0  0  0  0
  151.3816  138.0957  156.4379 C   0  0  0  0  0  0  0  0  0  0  0  0
  151.9817  139.0173  155.3619 C   0  0  0  0  0  0  0  0  0  0  0  0
  151.0578  140.0472  155.0382 O   0  0  0  0  0  0  0  0  0  0  0  0
  150.7885  140.9046  156.1384 C   0  0  0  0  0  0  0  0  0  0  0  0
  150.1325  140.1111  157.2856 C   0  0  0  0  0  0  0  0  0  0  0  0
  145.9616  136.0874  154.4681 H   0  0  0  0  0  0  0  0  0  0  0  0
  144.7114  135.5729  155.6173 H   0  0  0  0  0  0  0  0  0  0  0  0
  144.7604  134.8905  153.9975 H   0  0  0  0  0  0  0  0  0  0  0  0
  146.3423  132.0769  155.3621 H   0  0  0  0  0  0  0  0  0  0  0  0
  145.1677  132.7355  154.2664 H   0  0  0  0  0  0  0  0  0  0  0  0
  147.8972  133.5730  153.5846 H   0  0  0  0  0  0  0  0  0  0  0  0
  147.7372  131.8371  153.5333 H   0  0  0  0  0  0  0  0  0  0  0  0
  147.3178  132.8097  151.3114 H   0  0  0  0  0  0  0  0  0  0  0  0
  145.0438  134.3453  152.6622 H   0  0  0  0  0  0  0  0  0  0  0  0
  146.4872  135.0542  151.9819 H   0  0  0  0  0  0  0  0  0  0  0  0
  144.5692  135.2821  150.4339 H   0  0  0  0  0  0  0  0  0  0  0  0
  145.8748  134.3607  149.7206 H   0  0  0  0  0  0  0  0  0  0  0  0
  143.3490  133.2074  151.0013 H   0  0  0  0  0  0  0  0  0  0  0  0
  143.7280  133.2159  149.2938 H   0  0  0  0  0  0  0  0  0  0  0  0
  144.2318  131.0117  150.3170 H   0  0  0  0  0  0  0  0  0  0  0  0
  145.6903  131.7388  149.6751 H   0  0  0  0  0  0  0  0  0  0  0  0
  147.0717  130.2656  151.4087 H   0  0  0  0  0  0  0  0  0  0  0  0
  145.4547  129.6113  151.6772 H   0  0  0  0  0  0  0  0  0  0  0  0
  146.3754  130.1944  153.0375 H   0  0  0  0  0  0  0  0  0  0  0  0
  149.7439  132.8742  157.6401 H   0  0  0  0  0  0  0  0  0  0  0  0
  147.6988  138.9459  157.0303 H   0  0  0  0  0  0  0  0  0  0  0  0
  149.3899  138.5185  159.2619 H   0  0  0  0  0  0  0  0  0  0  0  0
  150.4559  137.1647  159.0421 H   0  0  0  0  0  0  0  0  0  0  0  0
  151.7346  139.6084  159.5917 H   0  0  0  0  0  0  0  0  0  0  0  0
  152.6419  138.2645  158.9389 H   0  0  0  0  0  0  0  0  0  0  0  0
  152.8370  140.9406  158.3991 H   0  0  0  0  0  0  0  0  0  0  0  0
  152.0931  137.3085  156.6894 H   0  0  0  0  0  0  0  0  0  0  0  0
  150.5256  137.5951  155.9841 H   0  0  0  0  0  0  0  0  0  0  0  0
  152.9357  139.4427  155.6719 H   0  0  0  0  0  0  0  0  0  0  0  0
  152.1832  138.4409  154.4588 H   0  0  0  0  0  0  0  0  0  0  0  0
  151.6991  141.4119  156.4538 H   0  0  0  0  0  0  0  0  0  0  0  0
  150.1090  141.6884  155.8033 H   0  0  0  0  0  0  0  0  0  0  0  0
  149.1395  139.8207  156.9397 H   0  0  0  0  0  0  0  0  0  0  0  0
  149.9677  140.7642  158.1433 H   0  0  0  0  0  0  0  0  0  0  0  0
  144.8282  131.8245  152.4668 H   0  0  0  0  0  0  0  0  0  0  0  0
  1  2  1  0  0  0  0
  1 30  1  0  0  0  0
  1 31  1  0  0  0  0
  1 32  1  0  0  0  0
  2  3  1  0  0  0  0
  2 12  1  0  0  0  0
  3  4  1  0  0  0  0
  3 33  1  0  0  0  0
  3 34  1  0  0  0  0
  4  5  1  0  0  0  0
  4 35  1  0  0  0  0
  4 36  1  0  0  0  0
  5 10  1  0  0  0  0
  5  6  1  0  0  0  0
  5 37  1  0  0  0  0
  6  7  1  0  0  0  0
  6 38  1  0  0  0  0
  6 39  1  0  0  0  0
  7  8  1  0  0  0  0
  7 40  1  0  0  0  0
  7 41  1  0  0  0  0
  8  9  1  0  0  0  0
  8 42  1  0  0  0  0
  8 43  1  0  0  0  0
  9 10  1  0  0  0  0
  9 44  1  0  0  0  0
  9 45  1  0  0  0  0
 10 11  1  0  0  0  0
 10 64  1  0  0  0  0
 11 46  1  0  0  0  0
 11 47  1  0  0  0  0
 11 48  1  0  0  0  0
 12 17  1  0  0  0  0
 12 13  2  0  0  0  0
 13 14  1  0  0  0  0
 14 15  2  0  0  0  0
 14 49  1  0  0  0  0
 15 16  1  0  0  0  0
 16 20  1  0  0  0  0
 16 17  2  0  0  0  0
 17 18  1  0  0  0  0
 18 19  2  0  0  0  0
 19 20  1  0  0  0  0
 19 50  1  0  0  0  0
 20 21  1  0  0  0  0
 21 22  1  0  0  0  0
 21 51  1  0  0  0  0
 21 52  1  0  0  0  0
 22 29  1  0  0  0  0
 22 23  1  0  0  0  0
 22 25  1  0  0  0  0
 23 24  1  0  0  0  0
 23 53  1  0  0  0  0
 23 54  1  0  0  0  0
 24 55  1  0  0  0  0
 25 26  1  0  0  0  0
 25 56  1  0  0  0  0
 25 57  1  0  0  0  0
 26 27  1  0  0  0  0
 26 58  1  0  0  0  0
 26 59  1  0  0  0  0
 27 28  1  0  0  0  0
 28 29  1  0  0  0  0
 28 60  1  0  0  0  0
 28 61  1  0  0  0  0
 29 62  1  0  0  0  0
 29 63  1  0  0  0  0
M  CHG  1  10   1
M  END
> <s_m_source_file>
AV-unprocessed.smi

> <i_m_source_file_index>
90

> <i_lp_mmshare_version>
43012

> <i_f3d_flags>
0

> <s_epik_input>
W0NIM11OMVtDSDJdW0NIMl1bQ0gyXVtDSDJdW0NASF0xW0NIMl1bQ0gyXU4oW0NIM10pYyhuW2NIXW4yKWMoYzIzKW5bY0hdbjNbQ0gyXUM0KFtDSDJdW09IXSlbQ0gyXVtDSDJdT1tDSDJdW0NIMl00

> <s_epik_cmdline>
J2VwaWtfcHl0aG9uJywgJy1waCcsICc3LjAnLCAnLXRuJywgJzgnLCAnLW1hJywgJzIwMCcsICctbWV0YWxfYmluZGluZycsICctaW1hZScsICc8aW5maWxlLm1hZT4nLCAnLW9tYWUnLCAnPG91dGZpbGUubWFlPic=

> <r_lp_tautomer_probability>
1

> <r_epik_Ionization_Penalty>
0.00234895

> <r_epik_Ionization_Penalty_Charging>
0.00106647

> <r_epik_Ionization_Penalty_Neutral>
0.00128248

> <r_epik_State_Penalty>
-0

> <r_epik_Charging_Adjusted_Penalty>
0.00106647

> <i_epik_Tot_Q>
1

> <i_epik_Tot_abs_Q>
1

> <r_epik_Metal_State_Penalty>
-0

> <b_epik_Metal_Only>
0

> <s_lp_Force_Field>
OPLS_2005

> <r_lp_Energy>
43.9513

> <b_lp_Chiralities_Consistent>
1

> <s_lp_Variant>
AV-unprocessed.smi:90-1

> <Gold.Version>
5.8.1

> <Gold.Id.Protein>
6NUR|6NUR_protein|mol2

> <Gold.PLP.Fitness>
41.6597

> <Gold.PLP.PLP>
-33.9593

> <Gold.PLP.part.hbond>
-3.0000

> <Gold.PLP.part.metal>
0.0000

> <Gold.PLP.part.buried>
-5.7746

> <Gold.PLP.part.nonpolar>
-24.9791

> <Gold.PLP.part.repulsive>
0.0664

> <Gold.PLP.ligand.clash>
0.0000

> <Gold.PLP.ligand.torsion>
0.8856

> <Gold.PLP.Chemscore.Hbond>
3.0000

> <Gold.PLP.Chemscore.CHOScore>
0.0000

> <Gold.PLP.Chemscore.Metal>
0.0000

> <Gold.Chemscore.Hbonds>
donor molecule, donor type, donor heavy atom, donor atom, acceptor molecule, acceptor atom, score
      P1  H  6896  6907       L1    15  0.90
      P1  H  7989  7998       L1    27  1.00
      P1  H  7997  8008       L1    24  0.99

> <Gold.PLP.Chemscore.Internal.Correction>
0.4716

> <Gold.Rescore>
     Score         DG    S(hbond)    S(metal)    S(lipo)     H(rot)  DE(clash)    DE(int)     intcor
     14.25     -16.40       2.34        0.00      86.24       2.73       0.13       2.01       ----

> <Gold.Chemscore.Fitness>
14.2481

> <Gold.Chemscore.DG>
-16.3962

> <Gold.Chemscore.ZeroCoef>
-5.4800

> <Gold.Chemscore.Hbond>
2.3433

> <Gold.Chemscore.Metal>
0.0000

> <Gold.Chemscore.Lipo>
86.2447

> <Gold.Chemscore.Internal_Hbond>
0.0000

> <Gold.Chemscore.DEClash>
0.1334

> <Gold.Chemscore.DEInternal>
2.0147

> <Gold.Chemscore.Rot>
2.7347

> <Gold.Chemscore.Internal.Correction>
   9.000000E+99

> <Gold.Chemscore.Hbonds>
donor molecule, donor type, donor heavy atom, donor atom, acceptor molecule, acceptor atom, score
      P1  H  6896  6907       L1    15  0.16
      P1  H  7989  7998       L1    27  0.60
      P1  H  7997  8008       L1    24  0.74

> <Gold.Chemscore.Hbond.Weighted>
-7.8265

> <Gold.Chemscore.Metal.Weighted>
-0.0000

> <Gold.Chemscore.Lipo.Weighted>
-10.0906

> <Gold.Chemscore.Internal_Hbond.Weighted>
0.0000

> <Gold.Chemscore.DEClash.Weighted>
0.1334

> <Gold.Chemscore.DEInternal.Weighted>
2.0147

> <Gold.Chemscore.Rot.Weighted>
7.0009

> <Gold.Chemscore.Internal.Correction.Weighted>
   9.000000E+99

> <Gold.Protein.RotatedTorsions>
[ 6907 6896 6895 6894 ] final  -94.27 input  -60.11 | X-H torsion
[ 7974 7965 7964 7962 ] final -165.05 input  175.53 | X-H torsion
[ 8008 7997 7996 7995 ] final  -72.48 input   59.86 | X-H torsion
[ 10167 10162 10161 10158 ] final  -22.49 input  -65.29 | X-H torsion
[ 10718 10713 10712 10709 ] final -139.64 input   66.30 | X-H torsion
[ 10763 10752 10751 10750 ] final  -73.64 input  -60.55 | X-H torsion
[ 11005 11000 10999 10996 ] final   64.34 input  -57.11 | X-H torsion

> <Gold.Protein.ActiveResidues>
 VAL166  LYS551  ARG553  GLY616  TRP617  ASP618  TYR619  PRO620  LYS621  CYS622 
 ASP623  PHE694  ASN695  SER759  ASP760  ASP761  ALA762  ILE779  LEU786  VAL792 
 PHE793  MET794  SER795  GLU796  ALA797  LYS798  CYS799  TRP800  GLU811  SER814 

> <Gold.Protein.RotatedAtoms>
  150.6938  134.1839  159.4258 H   0  0  0  0  0  0  0  0  0  0  0  0  # atno 6907 bound_to 6896
  151.9812  135.0025  160.0567 H   0  0  0  0  0  0  0  0  0  0  0  0  # atno 6908 bound_to 6896
  152.1753  133.4636  159.4967 H   0  0  0  0  0  0  0  0  0  0  0  0  # atno 6909 bound_to 6896
  144.7280  140.2871  143.6226 H   0  0  0  0  0  0  0  0  0  0  0  0  # atno 7974 bound_to 7965
  154.5170  140.0796  156.8099 H   0  0  0  0  0  0  0  0  0  0  0  0  # atno 8008 bound_to 7997
  155.3659  140.3420  155.4224 H   0  0  0  0  0  0  0  0  0  0  0  0  # atno 8009 bound_to 7997
  156.1638  140.1597  156.8553 H   0  0  0  0  0  0  0  0  0  0  0  0  # atno 8010 bound_to 7997
  140.7286  143.4530  151.0489 H   0  0  0  0  0  0  0  0  0  0  0  0  # atno 10167 bound_to 10162
  156.3131  130.7493  151.1573 H   0  0  0  0  0  0  0  0  0  0  0  0  # atno 10718 bound_to 10713
  154.4622  135.5890  153.6264 H   0  0  0  0  0  0  0  0  0  0  0  0  # atno 10763 bound_to 10752
  152.9824  135.6046  154.3472 H   0  0  0  0  0  0  0  0  0  0  0  0  # atno 10764 bound_to 10752
  154.3345  135.2842  155.2434 H   0  0  0  0  0  0  0  0  0  0  0  0  # atno 10765 bound_to 10752
  139.9965  134.6509  156.0001 H   0  0  0  0  0  0  0  0  0  0  0  0  # atno 11005 bound_to 11000
  145.7892  139.1920  143.2113 LP  0  0  0  0  0  0  0  0  0  0  0  0  # atno 17320 bound_to 7965
  146.0770  140.7806  142.9660 LP  0  0  0  0  0  0  0  0  0  0  0  0  # atno 17321 bound_to 7965
  139.8208  143.7823  152.3176 LP  0  0  0  0  0  0  0  0  0  0  0  0  # atno 17342 bound_to 10162
  139.7905  144.7412  150.9962 LP  0  0  0  0  0  0  0  0  0  0  0  0  # atno 17343 bound_to 10162
  157.7395  131.0528  150.5224 LP  0  0  0  0  0  0  0  0  0  0  0  0  # atno 17370 bound_to 10713
  156.5367  130.4198  149.6174 LP  0  0  0  0  0  0  0  0  0  0  0  0  # atno 17371 bound_to 10713
  141.1608  133.6539  156.4314 LP  0  0  0  0  0  0  0  0  0  0  0  0  # atno 17394 bound_to 11000
  140.4808  134.6666  157.5170 LP  0  0  0  0  0  0  0  0  0  0  0  0  # atno 17395 bound_to 11000

$$$$
