AV-unprocessed.smi:977|AV-procd|sdf|4306|dock6
  -GOLD-   22720 2213D 1   1.00000     0.00000
 Structure written by MMmdl.
 37 38  0  0  0  0  0  0  0  0  1 V2000
  152.5318  138.5278  155.5195 C   0  0  0  0  0  0  0  0  0  0  0  0
  151.2755  139.2080  155.0504 C   0  0  0  0  0  0  0  0  0  0  0  0
  151.1637  140.5214  155.1862 N   0  0  0  0  0  0  0  0  0  0  0  0
  149.8793  140.8653  154.7364 O   0  0  0  0  0  0  0  0  0  0  0  0
  149.2376  139.7374  154.3334 C   0  0  0  0  0  0  0  0  0  0  0  0
  147.8412  139.8932  153.8333 C   0  0  0  0  0  0  0  0  0  0  0  0
  150.0809  138.6764  154.4823 C   0  0  0  0  0  0  0  0  0  0  0  0
  149.7488  137.3306  154.1882 N   0  0  0  0  0  0  0  0  0  0  0  0
  149.7658  136.2984  155.0448 C   0  0  0  0  0  0  0  0  0  0  0  0
  150.1403  136.3653  156.2154 O   0  0  0  0  0  0  0  0  0  0  0  0
  149.3415  135.1688  154.4600 N   0  0  0  0  0  0  0  0  0  0  0  0
  149.2313  133.8663  155.1140 C   0  0  2  0  0  0  0  0  0  0  0  0
  150.4865  133.6448  155.9724 C   0  0  0  0  0  0  0  0  0  0  0  0
  149.0381  132.7535  154.0601 C   0  0  1  0  0  0  0  0  0  0  0  0
  149.1403  131.3301  154.6182 C   0  0  0  0  0  0  0  0  0  0  0  0
  148.2516  130.5514  153.6763 C   0  0  0  0  0  0  0  0  0  0  0  0
  147.1216  131.5454  153.4457 C   0  0  0  0  0  0  0  0  0  0  0  0
  147.7383  132.8275  153.4711 O   0  0  0  0  0  0  0  0  0  0  0  0
  152.3200  137.5310  155.9065 H   0  0  0  0  0  0  0  0  0  0  0  0
  153.0152  139.0896  156.3193 H   0  0  0  0  0  0  0  0  0  0  0  0
  153.2500  138.4270  154.7058 H   0  0  0  0  0  0  0  0  0  0  0  0
  147.3623  138.9236  153.6963 H   0  0  0  0  0  0  0  0  0  0  0  0
  147.8319  140.4131  152.8756 H   0  0  0  0  0  0  0  0  0  0  0  0
  147.2404  140.4691  154.5374 H   0  0  0  0  0  0  0  0  0  0  0  0
  149.5521  137.1206  153.2207 H   0  0  0  0  0  0  0  0  0  0  0  0
  149.0589  135.2138  153.4921 H   0  0  0  0  0  0  0  0  0  0  0  0
  148.3693  133.8704  155.7836 H   0  0  0  0  0  0  0  0  0  0  0  0
  150.4269  132.7116  156.5325 H   0  0  0  0  0  0  0  0  0  0  0  0
  150.6123  134.4495  156.6977 H   0  0  0  0  0  0  0  0  0  0  0  0
  151.3864  133.6069  155.3575 H   0  0  0  0  0  0  0  0  0  0  0  0
  149.7636  132.8707  153.2535 H   0  0  0  0  0  0  0  0  0  0  0  0
  150.1642  130.9562  154.6445 H   0  0  0  0  0  0  0  0  0  0  0  0
  148.7337  131.2818  155.6295 H   0  0  0  0  0  0  0  0  0  0  0  0
  148.7765  130.3497  152.7416 H   0  0  0  0  0  0  0  0  0  0  0  0
  147.9083  129.6039  154.0921 H   0  0  0  0  0  0  0  0  0  0  0  0
  146.5930  131.3730  152.5080 H   0  0  0  0  0  0  0  0  0  0  0  0
  146.3974  131.4932  154.2594 H   0  0  0  0  0  0  0  0  0  0  0  0
  1  2  1  0  0  0  0
  1 19  1  0  0  0  0
  1 20  1  0  0  0  0
  1 21  1  0  0  0  0
  2  7  1  0  0  0  0
  2  3  2  0  0  0  0
  3  4  1  0  0  0  0
  4  5  1  0  0  0  0
  5  6  1  0  0  0  0
  5  7  2  0  0  0  0
  6 22  1  0  0  0  0
  6 23  1  0  0  0  0
  6 24  1  0  0  0  0
  7  8  1  0  0  0  0
  8  9  1  0  0  0  0
  8 25  1  0  0  0  0
  9 10  2  0  0  0  0
  9 11  1  0  0  0  0
 11 12  1  0  0  0  0
 11 26  1  0  0  0  0
 12 13  1  0  0  0  0
 12 14  1  0  0  0  0
 12 27  1  0  0  0  0
 13 28  1  0  0  0  0
 13 29  1  0  0  0  0
 13 30  1  0  0  0  0
 14 18  1  0  0  0  0
 14 15  1  0  0  0  0
 14 31  1  0  0  0  0
 15 16  1  0  0  0  0
 15 32  1  0  0  0  0
 15 33  1  0  0  0  0
 16 17  1  0  0  0  0
 16 34  1  0  0  0  0
 16 35  1  0  0  0  0
 17 18  1  0  0  0  0
 17 36  1  0  0  0  0
 17 37  1  0  0  0  0
M  END
> <s_m_source_file>
AV-unprocessed.smi

> <i_m_source_file_index>
977

> <i_lp_mmshare_version>
43012

> <i_f3d_flags>
0

> <s_epik_input>
W0NIM11jMW5vYyhbQ0gzXSljMVtOSF1DKD1PKVtOSF1bQ0BIXShbQ0gzXSlbQ0BASF0yW0NIMl1bQ0gyXVtDSDJdTzI=

> <s_epik_cmdline>
J2VwaWtfcHl0aG9uJywgJy1waCcsICc3LjAnLCAnLXRuJywgJzgnLCAnLW1hJywgJzIwMCcsICctbWV0YWxfYmluZGluZycsICctaW1hZScsICc8aW5maWxlLm1hZT4nLCAnLW9tYWUnLCAnPG91dGZpbGUubWFlPic=

> <r_lp_tautomer_probability>
1

> <r_epik_Ionization_Penalty>
3.41601e-05

> <r_epik_Ionization_Penalty_Charging>
0

> <r_epik_Ionization_Penalty_Neutral>
3.41601e-05

> <r_epik_State_Penalty>
-0

> <r_epik_Charging_Adjusted_Penalty>
0

> <i_epik_Tot_Q>
0

> <i_epik_Tot_abs_Q>
0

> <r_epik_Metal_State_Penalty>
-0

> <b_epik_Metal_Only>
0

> <s_lp_Force_Field>
OPLS_2005

> <r_lp_Energy>
19.7512

> <b_lp_Chiralities_Consistent>
1

> <s_lp_Variant>
AV-unprocessed.smi:977-3

> <Gold.Version>
5.8.1

> <Gold.Id.Protein>
6NUR|6NUR_protein|mol2

> <Gold.PLP.Fitness>
37.0781

> <Gold.PLP.PLP>
-31.8366

> <Gold.PLP.part.hbond>
-4.2020

> <Gold.PLP.part.metal>
0.0000

> <Gold.PLP.part.buried>
-3.8212

> <Gold.PLP.part.nonpolar>
-25.0639

> <Gold.PLP.part.repulsive>
0.3720

> <Gold.PLP.ligand.clash>
0.0000

> <Gold.PLP.ligand.torsion>
0.8390

> <Gold.PLP.Chemscore.Hbond>
2.2214

> <Gold.PLP.Chemscore.CHOScore>
0.0000

> <Gold.PLP.Chemscore.Metal>
0.0000

> <Gold.Chemscore.Hbonds>
donor molecule, donor type, donor heavy atom, donor atom, acceptor molecule, acceptor atom, score
      L1  H     8    25       P1  7948  1.00
      L1  H    11    26       P1  7948  0.98
      P1  H  7989  7998       L1     3  0.14

> <Gold.PLP.Chemscore.Internal.Correction>
0.2553

> <Gold.Rescore>
     Score         DG    S(hbond)    S(metal)    S(lipo)     H(rot)  DE(clash)    DE(int)     intcor
     13.57     -15.30       1.68        0.00      62.72       1.22       0.00       1.73       ----

> <Gold.Chemscore.Fitness>
13.5721

> <Gold.Chemscore.DG>
-15.3011

> <Gold.Chemscore.ZeroCoef>
-5.4800

> <Gold.Chemscore.Hbond>
1.6783

> <Gold.Chemscore.Metal>
0.0000

> <Gold.Chemscore.Lipo>
62.7231

> <Gold.Chemscore.Internal_Hbond>
0.0000

> <Gold.Chemscore.DEClash>
0.0024

> <Gold.Chemscore.DEInternal>
1.7266

> <Gold.Chemscore.Rot>
1.2200

> <Gold.Chemscore.Internal.Correction>
   9.000000E+99

> <Gold.Chemscore.Hbonds>
donor molecule, donor type, donor heavy atom, donor atom, acceptor molecule, acceptor atom, score
      L1  H     8    25       P1  7948  0.78
      L1  H    11    26       P1  7948  0.42

> <Gold.Chemscore.Hbond.Weighted>
-5.6057

> <Gold.Chemscore.Metal.Weighted>
-0.0000

> <Gold.Chemscore.Lipo.Weighted>
-7.3386

> <Gold.Chemscore.Internal_Hbond.Weighted>
0.0000

> <Gold.Chemscore.DEClash.Weighted>
0.0024

> <Gold.Chemscore.DEInternal.Weighted>
1.7266

> <Gold.Chemscore.Rot.Weighted>
3.1232

> <Gold.Chemscore.Internal.Correction.Weighted>
   9.000000E+99

> <Gold.Protein.RotatedTorsions>
[ 6907 6896 6895 6894 ] final  149.34 input  -60.11 | X-H torsion
[ 7974 7965 7964 7962 ] final -131.33 input  175.53 | X-H torsion
[ 8008 7997 7996 7995 ] final  117.56 input   59.86 | X-H torsion
[ 10167 10162 10161 10158 ] final   56.96 input  -65.29 | X-H torsion
[ 10718 10713 10712 10709 ] final -109.20 input   66.30 | X-H torsion
[ 10763 10752 10751 10750 ] final    9.52 input  -60.55 | X-H torsion
[ 11005 11000 10999 10996 ] final  -46.38 input  -57.11 | X-H torsion

> <Gold.Protein.ActiveResidues>
 VAL166  LYS551  ARG553  GLY616  TRP617  ASP618  TYR619  PRO620  LYS621  CYS622 
 ASP623  PHE694  ASN695  SER759  ASP760  ASP761  ALA762  ILE779  LEU786  VAL792 
 PHE793  MET794  SER795  GLU796  ALA797  LYS798  CYS799  TRP800  GLU811  SER814 

> <Gold.Protein.RotatedAtoms>
  152.1293  133.4398  159.4712 H   0  0  0  0  0  0  0  0  0  0  0  0  # atno 6907 bound_to 6896
  150.6877  134.2440  159.4493 H   0  0  0  0  0  0  0  0  0  0  0  0  # atno 6908 bound_to 6896
  152.0323  134.9760  160.0623 H   0  0  0  0  0  0  0  0  0  0  0  0  # atno 6909 bound_to 6896
  144.9389  140.7216  143.4859 H   0  0  0  0  0  0  0  0  0  0  0  0  # atno 7974 bound_to 7965
  156.2501  140.2893  156.0698 H   0  0  0  0  0  0  0  0  0  0  0  0  # atno 8008 bound_to 7997
  155.1684  140.0401  157.2875 H   0  0  0  0  0  0  0  0  0  0  0  0  # atno 8009 bound_to 7997
  154.6343  140.2507  155.7403 H   0  0  0  0  0  0  0  0  0  0  0  0  # atno 8010 bound_to 7997
  140.2031  144.3967  150.6520 H   0  0  0  0  0  0  0  0  0  0  0  0  # atno 10167 bound_to 10162
  156.0524  130.5752  150.8067 H   0  0  0  0  0  0  0  0  0  0  0  0  # atno 10718 bound_to 10713
  153.2131  135.6871  153.8090 H   0  0  0  0  0  0  0  0  0  0  0  0  # atno 10763 bound_to 10752
  153.7315  135.3252  155.3288 H   0  0  0  0  0  0  0  0  0  0  0  0  # atno 10764 bound_to 10752
  154.8232  135.4637  154.0947 H   0  0  0  0  0  0  0  0  0  0  0  0  # atno 10765 bound_to 10752
  141.0575  133.6720  156.3147 H   0  0  0  0  0  0  0  0  0  0  0  0  # atno 11005 bound_to 11000
  145.3022  139.1846  143.4683 LP  0  0  0  0  0  0  0  0  0  0  0  0  # atno 17320 bound_to 7965
  146.3278  140.3015  142.8621 LP  0  0  0  0  0  0  0  0  0  0  0  0  # atno 17321 bound_to 7965
  140.6376  143.2197  151.6361 LP  0  0  0  0  0  0  0  0  0  0  0  0  # atno 17342 bound_to 10162
  139.5209  144.3209  152.0911 LP  0  0  0  0  0  0  0  0  0  0  0  0  # atno 17343 bound_to 10162
  157.5464  131.0942  150.9757 LP  0  0  0  0  0  0  0  0  0  0  0  0  # atno 17370 bound_to 10713
  157.0027  130.5606  149.5313 LP  0  0  0  0  0  0  0  0  0  0  0  0  # atno 17371 bound_to 10713
  140.5934  134.5627  157.5504 LP  0  0  0  0  0  0  0  0  0  0  0  0  # atno 17394 bound_to 11000
  139.9403  134.7799  156.0696 LP  0  0  0  0  0  0  0  0  0  0  0  0  # atno 17395 bound_to 11000

$$$$
