AV-unprocessed.smi:1258|AV-procd|sdf|5289|dock10
  -GOLD-   22720 4413D 1   1.00000     0.00000
 Structure written by MMmdl.
 33 34  0  0  0  0  0  0  0  0  1 V2000
  153.0486  142.1328  161.3112 C   0  0  0  0  0  0  0  0  0  0  0  0
  152.7687  143.2216  160.2656 C   0  0  2  0  0  0  0  0  0  0  0  0
  152.1261  144.4664  160.9068 C   0  0  0  0  0  0  0  0  0  0  0  0
  151.8456  145.5563  159.8606 C   0  0  0  0  0  0  0  0  0  0  0  0
  150.9684  145.0194  158.7195 C   0  0  0  0  0  0  0  0  0  0  0  0
  151.6013  143.7786  158.0637 C   0  0  2  0  0  0  0  0  0  0  0  0
  150.7143  143.2725  157.0202 N   0  0  0  0  0  0  0  0  0  0  0  0
  150.7976  142.0604  156.4507 C   0  0  0  0  0  0  0  0  0  0  0  0
  151.6430  141.2231  156.7702 O   0  0  0  0  0  0  0  0  0  0  0  0
  149.7624  141.7684  155.3574 C   0  0  0  0  0  0  0  0  0  0  0  0
  149.9200  140.4492  154.7696 N   0  0  0  0  0  0  0  0  0  0  0  0
  149.0156  139.5454  154.3870 C   0  0  0  0  0  0  0  0  0  0  0  0
  149.5891  138.4568  153.8974 N   0  0  0  0  0  0  0  0  0  0  0  0
  150.9407  138.7404  153.9991 N   0  0  0  0  0  0  0  0  0  0  0  0
  151.1433  139.9214  154.5155 N   0  0  0  0  0  0  0  0  0  0  0  0
  151.8871  142.6889  159.1187 C   0  0  0  0  0  0  0  0  0  0  0  0
  152.1273  141.7881  161.7818 H   0  0  0  0  0  0  0  0  0  0  0  0
  153.7060  142.5039  162.0979 H   0  0  0  0  0  0  0  0  0  0  0  0
  153.5343  141.2688  160.8571 H   0  0  0  0  0  0  0  0  0  0  0  0
  153.7277  143.5204  159.8397 H   0  0  0  0  0  0  0  0  0  0  0  0
  151.1938  144.1887  161.4007 H   0  0  0  0  0  0  0  0  0  0  0  0
  152.7792  144.8659  161.6835 H   0  0  0  0  0  0  0  0  0  0  0  0
  151.3586  146.4091  160.3341 H   0  0  0  0  0  0  0  0  0  0  0  0
  152.7884  145.9251  159.4547 H   0  0  0  0  0  0  0  0  0  0  0  0
  149.9810  144.7696  159.1110 H   0  0  0  0  0  0  0  0  0  0  0  0
  150.8179  145.8014  157.9741 H   0  0  0  0  0  0  0  0  0  0  0  0
  152.5450  144.0827  157.6063 H   0  0  0  0  0  0  0  0  0  0  0  0
  149.9898  143.8980  156.6986 H   0  0  0  0  0  0  0  0  0  0  0  0
  148.7583  141.8409  155.7770 H   0  0  0  0  0  0  0  0  0  0  0  0
  149.8404  142.5220  154.5722 H   0  0  0  0  0  0  0  0  0  0  0  0
  147.9474  139.6833  154.4679 H   0  0  0  0  0  0  0  0  0  0  0  0
  152.3785  141.8363  158.6484 H   0  0  0  0  0  0  0  0  0  0  0  0
  150.9459  142.3151  159.5252 H   0  0  0  0  0  0  0  0  0  0  0  0
  1  2  1  0  0  0  0
  1 17  1  0  0  0  0
  1 18  1  0  0  0  0
  1 19  1  0  0  0  0
  2 16  1  0  0  0  0
  2  3  1  0  0  0  0
  2 20  1  0  0  0  0
  3  4  1  0  0  0  0
  3 21  1  0  0  0  0
  3 22  1  0  0  0  0
  4  5  1  0  0  0  0
  4 23  1  0  0  0  0
  4 24  1  0  0  0  0
  5  6  1  0  0  0  0
  5 25  1  0  0  0  0
  5 26  1  0  0  0  0
  6  7  1  0  0  0  0
  6 16  1  0  0  0  0
  6 27  1  0  0  0  0
  7  8  1  0  0  0  0
  7 28  1  0  0  0  0
  8  9  2  0  0  0  0
  8 10  1  0  0  0  0
 10 11  1  0  0  0  0
 10 29  1  0  0  0  0
 10 30  1  0  0  0  0
 11 15  1  0  0  0  0
 11 12  1  0  0  0  0
 12 13  2  0  0  0  0
 12 31  1  0  0  0  0
 13 14  1  0  0  0  0
 14 15  2  0  0  0  0
 16 32  1  0  0  0  0
 16 33  1  0  0  0  0
M  END
> <s_m_source_file>
AV-unprocessed.smi

> <i_m_source_file_index>
1258

> <i_lp_mmshare_version>
43012

> <i_f3d_flags>
0

> <s_epik_input>
W0NIM11bQ0BASF0xW0NIMl1bQ0gyXVtDSDJdW0NASF0oW0NIMl0xKVtOSF1DKD1PKVtDSDJdbjJbY0hdbm5uMg==

> <s_epik_cmdline>
J2VwaWtfcHl0aG9uJywgJy1waCcsICc3LjAnLCAnLXRuJywgJzgnLCAnLW1hJywgJzIwMCcsICctbWV0YWxfYmluZGluZycsICctaW1hZScsICc8aW5maWxlLm1hZT4nLCAnLW9tYWUnLCAnPG91dGZpbGUubWFlPic=

> <r_lp_tautomer_probability>
1

> <r_epik_Ionization_Penalty>
5.03816e-07

> <r_epik_Ionization_Penalty_Charging>
0

> <r_epik_Ionization_Penalty_Neutral>
5.03816e-07

> <r_epik_State_Penalty>
-0

> <r_epik_Charging_Adjusted_Penalty>
0

> <i_epik_Tot_Q>
0

> <i_epik_Tot_abs_Q>
0

> <r_epik_Metal_State_Penalty>
-0

> <b_epik_Metal_Only>
0

> <s_lp_Force_Field>
OPLS_2005

> <r_lp_Energy>
11.1566

> <b_lp_Chiralities_Consistent>
1

> <s_lp_Variant>
AV-unprocessed.smi:1258-3

> <Gold.Version>
5.8.1

> <Gold.Id.Protein>
6NUR|6NUR_protein|mol2

> <Gold.PLP.Fitness>
43.4569

> <Gold.PLP.PLP>
-38.4701

> <Gold.PLP.part.hbond>
-2.0000

> <Gold.PLP.part.metal>
0.0000

> <Gold.PLP.part.buried>
-4.6239

> <Gold.PLP.part.nonpolar>
-32.3983

> <Gold.PLP.part.repulsive>
0.7972

> <Gold.PLP.ligand.clash>
0.0000

> <Gold.PLP.ligand.torsion>
0.5083

> <Gold.PLP.Chemscore.Hbond>
2.0000

> <Gold.PLP.Chemscore.CHOScore>
0.0000

> <Gold.PLP.Chemscore.Metal>
0.0000

> <Gold.Chemscore.Hbonds>
donor molecule, donor type, donor heavy atom, donor atom, acceptor molecule, acceptor atom, score
      L1  H     7    28       P1  8028  1.00
      P1  H  7989  7998       L1    15  0.86

> <Gold.PLP.Chemscore.Internal.Correction>
0.0034

> <Gold.Rescore>
     Score         DG    S(hbond)    S(metal)    S(lipo)     H(rot)  DE(clash)    DE(int)     intcor
     14.06     -17.44       1.94        0.00      88.71       1.92       0.24       3.14       ----

> <Gold.Chemscore.Fitness>
14.0625

> <Gold.Chemscore.DG>
-17.4444

> <Gold.Chemscore.ZeroCoef>
-5.4800

> <Gold.Chemscore.Hbond>
1.9439

> <Gold.Chemscore.Metal>
0.0000

> <Gold.Chemscore.Lipo>
88.7106

> <Gold.Chemscore.Internal_Hbond>
0.0000

> <Gold.Chemscore.DEClash>
0.2417

> <Gold.Chemscore.DEInternal>
3.1403

> <Gold.Chemscore.Rot>
1.9169

> <Gold.Chemscore.Internal.Correction>
   9.000000E+99

> <Gold.Chemscore.Hbonds>
donor molecule, donor type, donor heavy atom, donor atom, acceptor molecule, acceptor atom, score
      L1  H     7    28       P1  8028  1.00
      P1  H  7989  7998       L1    15  0.20

> <Gold.Chemscore.Hbond.Weighted>
-6.4925

> <Gold.Chemscore.Metal.Weighted>
-0.0000

> <Gold.Chemscore.Lipo.Weighted>
-10.3791

> <Gold.Chemscore.Internal_Hbond.Weighted>
0.0000

> <Gold.Chemscore.DEClash.Weighted>
0.2417

> <Gold.Chemscore.DEInternal.Weighted>
3.1403

> <Gold.Chemscore.Rot.Weighted>
4.9073

> <Gold.Chemscore.Internal.Correction.Weighted>
   9.000000E+99

> <Gold.Protein.RotatedTorsions>
[ 6907 6896 6895 6894 ] final   60.88 input  -60.11 | X-H torsion
[ 7974 7965 7964 7962 ] final  176.68 input  175.53 | X-H torsion
[ 8008 7997 7996 7995 ] final   95.42 input   59.86 | X-H torsion
[ 10167 10162 10161 10158 ] final    8.84 input  -65.29 | X-H torsion
[ 10718 10713 10712 10709 ] final   59.91 input   66.30 | X-H torsion
[ 10763 10752 10751 10750 ] final -162.65 input  -60.55 | X-H torsion
[ 11005 11000 10999 10996 ] final  -66.13 input  -57.11 | X-H torsion

> <Gold.Protein.ActiveResidues>
 VAL166  LYS551  ARG553  GLY616  TRP617  ASP618  TYR619  PRO620  LYS621  CYS622 
 ASP623  PHE694  ASN695  SER759  ASP760  ASP761  ALA762  ILE779  LEU786  VAL792 
 PHE793  MET794  SER795  GLU796  ALA797  LYS798  CYS799  TRP800  GLU811  SER814 

> <Gold.Protein.RotatedAtoms>
  152.4041  134.6237  160.0057 H   0  0  0  0  0  0  0  0  0  0  0  0  # atno 6907 bound_to 6896
  151.6434  133.3319  159.3143 H   0  0  0  0  0  0  0  0  0  0  0  0  # atno 6908 bound_to 6896
  150.7937  134.7023  159.6602 H   0  0  0  0  0  0  0  0  0  0  0  0  # atno 6909 bound_to 6896
  144.7180  140.0134  143.6440 H   0  0  0  0  0  0  0  0  0  0  0  0  # atno 7974 bound_to 7965
  156.0687  140.3286  155.7549 H   0  0  0  0  0  0  0  0  0  0  0  0  # atno 8008 bound_to 7997
  155.5340  140.0596  157.2900 H   0  0  0  0  0  0  0  0  0  0  0  0  # atno 8009 bound_to 7997
  154.4518  140.1922  156.0513 H   0  0  0  0  0  0  0  0  0  0  0  0  # atno 8010 bound_to 7997
  140.6290  143.8036  150.7271 H   0  0  0  0  0  0  0  0  0  0  0  0  # atno 10167 bound_to 10162
  157.5712  130.8909  149.9270 H   0  0  0  0  0  0  0  0  0  0  0  0  # atno 10718 bound_to 10713
  154.7195  135.3022  154.9071 H   0  0  0  0  0  0  0  0  0  0  0  0  # atno 10763 bound_to 10752
  153.9947  135.6714  153.4760 H   0  0  0  0  0  0  0  0  0  0  0  0  # atno 10764 bound_to 10752
  153.0821  135.5003  154.8441 H   0  0  0  0  0  0  0  0  0  0  0  0  # atno 10765 bound_to 10752
  141.1474  133.6694  156.6093 H   0  0  0  0  0  0  0  0  0  0  0  0  # atno 11005 bound_to 11000
  146.0240  139.3276  143.0795 LP  0  0  0  0  0  0  0  0  0  0  0  0  # atno 17320 bound_to 7965
  145.8534  140.9516  143.0738 LP  0  0  0  0  0  0  0  0  0  0  0  0  # atno 17321 bound_to 7965
  140.1643  143.4249  152.2045 LP  0  0  0  0  0  0  0  0  0  0  0  0  # atno 17342 bound_to 10162
  139.5507  144.7335  151.4445 LP  0  0  0  0  0  0  0  0  0  0  0  0  # atno 17343 bound_to 10162
  156.0758  130.3679  150.0682 LP  0  0  0  0  0  0  0  0  0  0  0  0  # atno 17370 bound_to 10713
  156.8834  130.9564  151.3597 LP  0  0  0  0  0  0  0  0  0  0  0  0  # atno 17371 bound_to 10713
  140.3627  134.7673  157.4545 LP  0  0  0  0  0  0  0  0  0  0  0  0  # atno 17394 bound_to 11000
  140.0772  134.5781  155.8578 LP  0  0  0  0  0  0  0  0  0  0  0  0  # atno 17395 bound_to 11000

$$$$
