AV-unprocessed.smi:2671|AV-procd|sdf|10353|dock1
  -GOLD-   2272014373D 1   1.00000     0.00000
 Structure written by MMmdl.
 29 30  0  0  0  0  0  0  0  0  1 V2000
  149.8106  138.6390  153.1012 O   0  0  0  0  0  0  0  0  0  0  0  0
  149.4960  139.6450  153.9663 C   0  0  0  0  0  0  0  0  0  0  0  0
  148.1567  140.0692  154.0896 C   0  0  0  0  0  0  0  0  0  0  0  0
  147.9068  141.1164  155.0063 C   0  0  0  0  0  0  0  0  0  0  0  0
  146.5097  141.6705  155.2401 C   0  0  0  0  0  0  0  0  0  0  0  0
  145.6513  140.6662  155.4186 F   0  0  0  0  0  0  0  0  0  0  0  0
  146.4688  142.4580  156.3158 F   0  0  0  0  0  0  0  0  0  0  0  0
  146.1261  142.3823  154.1805 F   0  0  0  0  0  0  0  0  0  0  0  0
  148.9061  141.6773  155.7252 N   0  0  0  0  0  0  0  0  0  0  0  0
  150.1330  141.1942  155.5256 C   0  0  0  0  0  0  0  0  0  0  0  0
  151.4173  141.9692  156.4941 S   0  0  0  0  0  0  0  0  0  0  0  0
  150.6284  142.1834  158.1190 C   0  0  0  0  0  0  0  0  0  0  0  0
  151.4394  143.1182  159.0262 C   0  0  1  0  0  0  0  0  0  0  0  0
  151.7083  144.5047  158.4386 C   0  0  0  0  0  0  0  0  0  0  0  0
  151.8434  145.3985  159.6629 C   0  0  0  0  0  0  0  0  0  0  0  0
  151.3496  144.5274  160.8210 C   0  0  0  0  0  0  0  0  0  0  0  0
  150.7064  143.4235  160.2010 O   0  0  0  0  0  0  0  0  0  0  0  0
  150.4843  140.2135  154.6895 N   0  0  0  0  0  0  0  0  0  0  0  0
  149.7606  138.9008  152.1951 H   0  0  0  0  0  0  0  0  0  0  0  0
  147.3665  139.6139  153.5110 H   0  0  0  0  0  0  0  0  0  0  0  0
  149.6180  142.5714  157.9855 H   0  0  0  0  0  0  0  0  0  0  0  0
  150.5388  141.2065  158.5950 H   0  0  0  0  0  0  0  0  0  0  0  0
  152.3785  142.6435  159.3170 H   0  0  0  0  0  0  0  0  0  0  0  0
  152.5931  144.5237  157.8016 H   0  0  0  0  0  0  0  0  0  0  0  0
  150.8582  144.8349  157.8399 H   0  0  0  0  0  0  0  0  0  0  0  0
  152.8757  145.7104  159.8250 H   0  0  0  0  0  0  0  0  0  0  0  0
  151.2348  146.2965  159.5513 H   0  0  0  0  0  0  0  0  0  0  0  0
  152.1905  144.1647  161.4137 H   0  0  0  0  0  0  0  0  0  0  0  0
  150.6690  145.0589  161.4865 H   0  0  0  0  0  0  0  0  0  0  0  0
  1  2  1  0  0  0  0
  1 19  1  0  0  0  0
  2 18  1  0  0  0  0
  2  3  2  0  0  0  0
  3  4  1  0  0  0  0
  3 20  1  0  0  0  0
  4  5  1  0  0  0  0
  4  9  2  0  0  0  0
  5  6  1  0  0  0  0
  5  7  1  0  0  0  0
  5  8  1  0  0  0  0
  9 10  1  0  0  0  0
 10 11  1  0  0  0  0
 10 18  2  0  0  0  0
 11 12  1  0  0  0  0
 12 13  1  0  0  0  0
 12 21  1  0  0  0  0
 12 22  1  0  0  0  0
 13 17  1  0  0  0  0
 13 14  1  0  0  0  0
 13 23  1  0  0  0  0
 14 15  1  0  0  0  0
 14 24  1  0  0  0  0
 14 25  1  0  0  0  0
 15 16  1  0  0  0  0
 15 26  1  0  0  0  0
 15 27  1  0  0  0  0
 16 17  1  0  0  0  0
 16 28  1  0  0  0  0
 16 29  1  0  0  0  0
M  END
> <s_m_source_file>
AV-unprocessed.smi

> <i_m_source_file_index>
2671

> <i_lp_mmshare_version>
43012

> <i_f3d_flags>
0

> <s_epik_input>
W09IXWMxW2NIXWMoQyhGKShGKUYpbmMobjEpU1tDSDJdW0NAQEhdMltDSDJdW0NIMl1bQ0gyXU8y

> <s_epik_cmdline>
J2VwaWtfcHl0aG9uJywgJy1waCcsICc3LjAnLCAnLXRuJywgJzgnLCAnLW1hJywgJzIwMCcsICctbWV0YWxfYmluZGluZycsICctaW1hZScsICc8aW5maWxlLm1hZT4nLCAnLW9tYWUnLCAnPG91dGZpbGUubWFlPic=

> <r_lp_tautomer_probability>
0.0660145

> <r_epik_Ionization_Penalty>
3.60098

> <r_epik_Ionization_Penalty_Charging>
0

> <r_epik_Ionization_Penalty_Neutral>
3.60098

> <r_epik_State_Penalty>
2.71709

> <r_epik_Charging_Adjusted_Penalty>
2.71709

> <i_epik_Tot_Q>
0

> <i_epik_Tot_abs_Q>
0

> <r_epik_Metal_State_Penalty>
3.44057

> <b_epik_Metal_Only>
0

> <s_lp_Force_Field>
OPLS_2005

> <r_lp_Energy>
10.3894

> <b_lp_Chiralities_Consistent>
1

> <s_lp_Variant>
AV-unprocessed.smi:2671-8

> <Gold.Version>
5.8.1

> <Gold.Id.Protein>
6NUR|6NUR_protein|mol2

> <Gold.PLP.Fitness>
41.3143

> <Gold.PLP.PLP>
-36.9272

> <Gold.PLP.part.hbond>
-4.0000

> <Gold.PLP.part.metal>
0.0000

> <Gold.PLP.part.buried>
-3.0054

> <Gold.PLP.part.nonpolar>
-29.8835

> <Gold.PLP.part.repulsive>
0.9631

> <Gold.PLP.ligand.clash>
0.0000

> <Gold.PLP.ligand.torsion>
0.7273

> <Gold.PLP.Chemscore.Hbond>
1.9280

> <Gold.PLP.Chemscore.CHOScore>
0.0000

> <Gold.PLP.Chemscore.Metal>
0.0000

> <Gold.Chemscore.Hbonds>
donor molecule, donor type, donor heavy atom, donor atom, acceptor molecule, acceptor atom, score
      L1  H     1    19       P1  7957  0.98
      P1  H  7989  7998       L1    18  1.00

> <Gold.PLP.Chemscore.Internal.Correction>
0.0576

> <Gold.Rescore>
     Score         DG    S(hbond)    S(metal)    S(lipo)     H(rot)  DE(clash)    DE(int)     intcor
     11.86     -13.01       1.45        0.00      72.50       2.27       0.50       0.65       ----

> <Gold.Chemscore.Fitness>
11.8596

> <Gold.Chemscore.DG>
-13.0112

> <Gold.Chemscore.ZeroCoef>
-5.4800

> <Gold.Chemscore.Hbond>
1.4513

> <Gold.Chemscore.Metal>
0.0000

> <Gold.Chemscore.Lipo>
72.4977

> <Gold.Chemscore.Internal_Hbond>
0.0000

> <Gold.Chemscore.DEClash>
0.4977

> <Gold.Chemscore.DEInternal>
0.6540

> <Gold.Chemscore.Rot>
2.2650

> <Gold.Chemscore.Internal.Correction>
   9.000000E+99

> <Gold.Chemscore.Hbonds>
donor molecule, donor type, donor heavy atom, donor atom, acceptor molecule, acceptor atom, score
      L1  H     1    19       P1  7957  0.30
      P1  H  7989  7998       L1    18  0.32

> <Gold.Chemscore.Hbond.Weighted>
-4.8474

> <Gold.Chemscore.Metal.Weighted>
-0.0000

> <Gold.Chemscore.Lipo.Weighted>
-8.4822

> <Gold.Chemscore.Internal_Hbond.Weighted>
0.0000

> <Gold.Chemscore.DEClash.Weighted>
0.4977

> <Gold.Chemscore.DEInternal.Weighted>
0.6540

> <Gold.Chemscore.Rot.Weighted>
5.7984

> <Gold.Chemscore.Internal.Correction.Weighted>
   9.000000E+99

> <Gold.Protein.RotatedTorsions>
[ 6907 6896 6895 6894 ] final  139.44 input  -60.11 | X-H torsion
[ 7974 7965 7964 7962 ] final   91.86 input  175.53 | X-H torsion
[ 8008 7997 7996 7995 ] final  -27.62 input   59.86 | X-H torsion
[ 10167 10162 10161 10158 ] final -175.75 input  -65.29 | X-H torsion
[ 10718 10713 10712 10709 ] final  -15.44 input   66.30 | X-H torsion
[ 10763 10752 10751 10750 ] final  157.23 input  -60.55 | X-H torsion
[ 11005 11000 10999 10996 ] final  -55.51 input  -57.11 | X-H torsion

> <Gold.Protein.ActiveResidues>
 VAL166  LYS551  ARG553  GLY616  TRP617  ASP618  TYR619  PRO620  LYS621  CYS622 
 ASP623  PHE694  ASN695  SER759  ASP760  ASP761  ALA762  ILE779  LEU786  VAL792 
 PHE793  MET794  SER795  GLU796  ALA797  LYS798  CYS799  TRP800  GLU811  SER814 

> <Gold.Protein.RotatedAtoms>
  152.2549  133.5247  159.5347 H   0  0  0  0  0  0  0  0  0  0  0  0  # atno 6907 bound_to 6896
  150.7106  134.0909  159.3940 H   0  0  0  0  0  0  0  0  0  0  0  0  # atno 6908 bound_to 6896
  151.8828  135.0447  160.0541 H   0  0  0  0  0  0  0  0  0  0  0  0  # atno 6909 bound_to 6896
  145.5000  139.2276  143.2782 H   0  0  0  0  0  0  0  0  0  0  0  0  # atno 7974 bound_to 7965
  154.4369  140.1867  156.0961 H   0  0  0  0  0  0  0  0  0  0  0  0  # atno 8008 bound_to 7997
  156.0328  140.3328  155.7133 H   0  0  0  0  0  0  0  0  0  0  0  0  # atno 8009 bound_to 7997
  155.5814  140.0622  157.2773 H   0  0  0  0  0  0  0  0  0  0  0  0  # atno 8010 bound_to 7997
  139.5564  144.1977  152.1167 H   0  0  0  0  0  0  0  0  0  0  0  0  # atno 10167 bound_to 10162
  156.6017  130.4826  149.6237 H   0  0  0  0  0  0  0  0  0  0  0  0  # atno 10718 bound_to 10713
  154.1970  135.2792  155.3003 H   0  0  0  0  0  0  0  0  0  0  0  0  # atno 10763 bound_to 10752
  154.5884  135.5567  153.7257 H   0  0  0  0  0  0  0  0  0  0  0  0  # atno 10764 bound_to 10752
  153.0097  135.6362  154.2108 H   0  0  0  0  0  0  0  0  0  0  0  0  # atno 10765 bound_to 10752
  141.1077  133.6612  156.4480 H   0  0  0  0  0  0  0  0  0  0  0  0  # atno 11005 bound_to 11000
  146.2232  140.5800  142.9008 LP  0  0  0  0  0  0  0  0  0  0  0  0  # atno 17320 bound_to 7965
  144.7785  140.5791  143.6621 LP  0  0  0  0  0  0  0  0  0  0  0  0  # atno 17321 bound_to 7965
  140.1483  144.5139  150.6703 LP  0  0  0  0  0  0  0  0  0  0  0  0  # atno 17342 bound_to 10162
  140.6838  143.2339  151.5315 LP  0  0  0  0  0  0  0  0  0  0  0  0  # atno 17343 bound_to 10162
  156.2464  130.6881  151.1604 LP  0  0  0  0  0  0  0  0  0  0  0  0  # atno 17370 bound_to 10713
  157.7278  131.0637  150.5850 LP  0  0  0  0  0  0  0  0  0  0  0  0  # atno 17371 bound_to 10713
  140.4859  134.6621  157.5190 LP  0  0  0  0  0  0  0  0  0  0  0  0  # atno 17394 bound_to 11000
  139.9955  134.6918  155.9617 LP  0  0  0  0  0  0  0  0  0  0  0  0  # atno 17395 bound_to 11000

$$$$
