AV-unprocessed.smi:1079|AV-procd|sdf|4704|dock5
  -GOLD-   22720 3223D 1   1.00000     0.00000
 Structure written by MMmdl.
 44 45  0  0  0  0  0  0  0  0  1 V2000
  147.9161  136.3823  162.6006 C   0  0  0  0  0  0  0  0  0  0  0  0
  148.5332  136.4319  161.3270 O   0  0  0  0  0  0  0  0  0  0  0  0
  147.6410  136.1022  160.2751 C   0  0  0  0  0  0  0  0  0  0  0  0
  148.4363  135.8933  158.9755 C   0  0  0  0  0  0  0  0  0  0  0  0
  148.5489  137.1008  158.1794 N   0  0  0  0  0  0  0  0  0  0  0  0
  149.7639  137.7223  157.8734 C   0  0  0  0  0  0  0  0  0  0  0  0
  150.9303  137.1542  158.3648 N   0  0  0  0  0  0  0  0  0  0  0  0
  149.8162  138.8745  157.1406 C   0  0  0  0  0  0  0  0  0  0  0  0
  151.0419  139.4793  156.8030 N   0  0  0  0  0  0  0  0  0  0  0  0
  151.8389  140.0351  157.9078 C   0  0  0  0  0  0  0  0  0  0  0  0
  151.8997  141.5530  157.8837 C   0  0  0  0  0  0  0  0  0  0  0  0
  151.1659  142.2733  156.9176 C   0  0  0  0  0  0  0  0  0  0  0  0
  151.2084  143.6806  156.8991 C   0  0  0  0  0  0  0  0  0  0  0  0
  151.9865  144.3739  157.8462 C   0  0  0  0  0  0  0  0  0  0  0  0
  152.7209  143.6590  158.8120 C   0  0  0  0  0  0  0  0  0  0  0  0
  152.6780  142.2513  158.8310 C   0  0  0  0  0  0  0  0  0  0  0  0
  151.4653  139.5803  155.5160 C   0  0  0  0  0  0  0  0  0  0  0  0
  150.5454  139.1122  154.3820 C   0  0  0  0  0  0  0  0  0  0  0  0
  152.5562  140.0627  155.2114 O   0  0  0  0  0  0  0  0  0  0  0  0
  148.5846  139.4872  156.6230 C   0  0  0  0  0  0  0  0  0  0  0  0
  148.5233  140.4994  155.9262 O   0  0  0  0  0  0  0  0  0  0  0  0
  147.4097  138.8299  156.9771 N   0  0  0  0  0  0  0  0  0  0  0  0
  147.3297  137.6721  157.7421 C   0  0  0  0  0  0  0  0  0  0  0  0
  146.2239  137.1978  158.0045 O   0  0  0  0  0  0  0  0  0  0  0  0
  146.5412  139.2297  156.6526 H   0  0  0  0  0  0  0  0  0  0  0  0
  148.6439  136.6405  163.3699 H   0  0  0  0  0  0  0  0  0  0  0  0
  147.5368  135.3827  162.8170 H   0  0  0  0  0  0  0  0  0  0  0  0
  147.0909  137.0925  162.6663 H   0  0  0  0  0  0  0  0  0  0  0  0
  147.1070  135.1846  160.5258 H   0  0  0  0  0  0  0  0  0  0  0  0
  146.8934  136.8867  160.1483 H   0  0  0  0  0  0  0  0  0  0  0  0
  149.4447  135.5335  159.1758 H   0  0  0  0  0  0  0  0  0  0  0  0
  147.9844  135.1247  158.3458 H   0  0  0  0  0  0  0  0  0  0  0  0
  150.9121  136.3160  158.9281 H   0  0  0  0  0  0  0  0  0  0  0  0
  151.8378  137.4436  158.0286 H   0  0  0  0  0  0  0  0  0  0  0  0
  151.4592  139.6979  158.8738 H   0  0  0  0  0  0  0  0  0  0  0  0
  152.8609  139.6566  157.8603 H   0  0  0  0  0  0  0  0  0  0  0  0
  150.5638  141.7470  156.1913 H   0  0  0  0  0  0  0  0  0  0  0  0
  150.6435  144.2283  156.1594 H   0  0  0  0  0  0  0  0  0  0  0  0
  152.0189  145.4533  157.8320 H   0  0  0  0  0  0  0  0  0  0  0  0
  153.3168  144.1903  159.5395 H   0  0  0  0  0  0  0  0  0  0  0  0
  153.2411  141.7098  159.5769 H   0  0  0  0  0  0  0  0  0  0  0  0
  149.5422  139.5255  154.4909 H   0  0  0  0  0  0  0  0  0  0  0  0
  150.4778  138.0246  154.3617 H   0  0  0  0  0  0  0  0  0  0  0  0
  150.9337  139.4389  153.4166 H   0  0  0  0  0  0  0  0  0  0  0  0
  1  2  1  0  0  0  0
  1 26  1  0  0  0  0
  1 27  1  0  0  0  0
  1 28  1  0  0  0  0
  2  3  1  0  0  0  0
  3  4  1  0  0  0  0
  3 29  1  0  0  0  0
  3 30  1  0  0  0  0
  4  5  1  0  0  0  0
  4 31  1  0  0  0  0
  4 32  1  0  0  0  0
  5 23  1  0  0  0  0
  5  6  1  0  0  0  0
  6  7  1  0  0  0  0
  6  8  2  0  0  0  0
  7 33  1  0  0  0  0
  7 34  1  0  0  0  0
  8  9  1  0  0  0  0
  8 20  1  0  0  0  0
  9 10  1  0  0  0  0
  9 17  1  0  0  0  0
 10 11  1  0  0  0  0
 10 35  1  0  0  0  0
 10 36  1  0  0  0  0
 11 16  1  0  0  0  0
 11 12  2  0  0  0  0
 12 13  1  0  0  0  0
 12 37  1  0  0  0  0
 13 14  2  0  0  0  0
 13 38  1  0  0  0  0
 14 15  1  0  0  0  0
 14 39  1  0  0  0  0
 15 16  2  0  0  0  0
 15 40  1  0  0  0  0
 16 41  1  0  0  0  0
 17 18  1  0  0  0  0
 17 19  2  0  0  0  0
 18 42  1  0  0  0  0
 18 43  1  0  0  0  0
 18 44  1  0  0  0  0
 20 21  2  0  0  0  0
 20 22  1  0  0  0  0
 22 25  1  0  0  0  0
 22 23  1  0  0  0  0
 23 24  2  0  0  0  0
M  END
> <s_m_source_file>
AV-unprocessed.smi

> <i_m_source_file_index>
1079

> <i_lp_mmshare_version>
43012

> <i_f3d_flags>
0

> <s_epik_input>
W0NIM11PW0NIMl1bQ0gyXW4xYyhbTkgyXSljKGMoPU8pW25IXWMxPU8pTihDKD1PKVtDSDNdKVtDSDJdYzJbY0hdW2NIXVtjSF1bY0hdW2NIXTI=

> <s_epik_cmdline>
J2VwaWtfcHl0aG9uJywgJy1waCcsICc3LjAnLCAnLXRuJywgJzgnLCAnLW1hJywgJzIwMCcsICctbWV0YWxfYmluZGluZycsICctaW1hZScsICc8aW5maWxlLm1hZT4nLCAnLW9tYWUnLCAnPG91dGZpbGUubWFlPic=

> <r_lp_tautomer_probability>
1

> <r_epik_Ionization_Penalty>
1.40243e-05

> <r_epik_Ionization_Penalty_Charging>
7.95939e-06

> <r_epik_Ionization_Penalty_Neutral>
6.06489e-06

> <r_epik_State_Penalty>
-0

> <r_epik_Charging_Adjusted_Penalty>
7.95939e-06

> <i_epik_Tot_Q>
0

> <i_epik_Tot_abs_Q>
0

> <r_epik_Metal_State_Penalty>
0.00752988

> <b_epik_Metal_Only>
0

> <s_epik_Chemistry_Notes>
This compound has an imine and may undergo hydrolysis.

> <s_lp_Force_Field>
OPLS_2005

> <r_lp_Energy>
29.3793

> <b_lp_Chiralities_Consistent>
1

> <s_lp_Variant>
AV-unprocessed.smi:1079-1

> <Gold.Version>
5.8.1

> <Gold.Id.Protein>
6NUR|6NUR_protein|mol2

> <Gold.PLP.Fitness>
46.8071

> <Gold.PLP.PLP>
-42.1427

> <Gold.PLP.part.hbond>
-3.0000

> <Gold.PLP.part.metal>
0.0000

> <Gold.PLP.part.buried>
-3.9660

> <Gold.PLP.part.nonpolar>
-35.4661

> <Gold.PLP.part.repulsive>
0.2671

> <Gold.PLP.ligand.clash>
0.0000

> <Gold.PLP.ligand.torsion>
1.5538

> <Gold.PLP.Chemscore.Hbond>
1.7943

> <Gold.PLP.Chemscore.CHOScore>
0.0000

> <Gold.PLP.Chemscore.Metal>
0.0000

> <Gold.Chemscore.Hbonds>
donor molecule, donor type, donor heavy atom, donor atom, acceptor molecule, acceptor atom, score
      P1  H  6931  6943       L1     2  0.15
      P1  H  7989  7998       L1    19  0.21
      P1  H  7997  8008       L1    19  1.00

> <Gold.PLP.Chemscore.Internal.Correction>
2.3892

> <Gold.Rescore>
     Score         DG    S(hbond)    S(metal)    S(lipo)     H(rot)  DE(clash)    DE(int)     intcor
     13.64     -15.84       1.00        0.00     104.18       2.02       0.14       2.07       ----

> <Gold.Chemscore.Fitness>
13.6358

> <Gold.Chemscore.DG>
-15.8440

> <Gold.Chemscore.ZeroCoef>
-5.4800

> <Gold.Chemscore.Hbond>
0.9994

> <Gold.Chemscore.Metal>
0.0000

> <Gold.Chemscore.Lipo>
104.1837

> <Gold.Chemscore.Internal_Hbond>
0.0000

> <Gold.Chemscore.DEClash>
0.1408

> <Gold.Chemscore.DEInternal>
2.0674

> <Gold.Chemscore.Rot>
2.0170

> <Gold.Chemscore.Internal.Correction>
   9.000000E+99

> <Gold.Chemscore.Hbonds>
donor molecule, donor type, donor heavy atom, donor atom, acceptor molecule, acceptor atom, score
      P1  H  7989  7998       L1    19  0.01
      P1  H  7997  8008       L1    19  0.95

> <Gold.Chemscore.Hbond.Weighted>
-3.3381

> <Gold.Chemscore.Metal.Weighted>
-0.0000

> <Gold.Chemscore.Lipo.Weighted>
-12.1895

> <Gold.Chemscore.Internal_Hbond.Weighted>
0.0000

> <Gold.Chemscore.DEClash.Weighted>
0.1408

> <Gold.Chemscore.DEInternal.Weighted>
2.0674

> <Gold.Chemscore.Rot.Weighted>
5.1636

> <Gold.Chemscore.Internal.Correction.Weighted>
   9.000000E+99

> <Gold.Protein.RotatedTorsions>
[ 6907 6896 6895 6894 ] final   -1.71 input  -60.11 | X-H torsion
[ 7974 7965 7964 7962 ] final  110.05 input  175.53 | X-H torsion
[ 8008 7997 7996 7995 ] final  -25.10 input   59.86 | X-H torsion
[ 10167 10162 10161 10158 ] final   14.01 input  -65.29 | X-H torsion
[ 10718 10713 10712 10709 ] final -101.69 input   66.30 | X-H torsion
[ 10763 10752 10751 10750 ] final  169.66 input  -60.55 | X-H torsion
[ 11005 11000 10999 10996 ] final   85.15 input  -57.11 | X-H torsion

> <Gold.Protein.ActiveResidues>
 VAL166  LYS551  ARG553  GLY616  TRP617  ASP618  TYR619  PRO620  LYS621  CYS622 
 ASP623  PHE694  ASN695  SER759  ASP760  ASP761  ALA762  ILE779  LEU786  VAL792 
 PHE793  MET794  SER795  GLU796  ALA797  LYS798  CYS799  TRP800  GLU811  SER814 

> <Gold.Protein.RotatedAtoms>
  151.5416  135.1068  159.9927 H   0  0  0  0  0  0  0  0  0  0  0  0  # atno 6907 bound_to 6896
  152.4533  133.7668  159.6787 H   0  0  0  0  0  0  0  0  0  0  0  0  # atno 6908 bound_to 6896
  150.8468  133.7783  159.3065 H   0  0  0  0  0  0  0  0  0  0  0  0  # atno 6909 bound_to 6896
  145.2599  139.2706  143.4022 H   0  0  0  0  0  0  0  0  0  0  0  0  # atno 7974 bound_to 7965
  154.4493  140.1935  156.0568 H   0  0  0  0  0  0  0  0  0  0  0  0  # atno 8008 bound_to 7997
  156.0613  140.3296  155.7438 H   0  0  0  0  0  0  0  0  0  0  0  0  # atno 8009 bound_to 7997
  155.5407  140.0586  157.2861 H   0  0  0  0  0  0  0  0  0  0  0  0  # atno 8010 bound_to 7997
  140.5964  143.8692  150.6922 H   0  0  0  0  0  0  0  0  0  0  0  0  # atno 10167 bound_to 10162
  156.0203  130.5385  150.6999 H   0  0  0  0  0  0  0  0  0  0  0  0  # atno 10718 bound_to 10713
  154.3864  135.2753  155.2181 H   0  0  0  0  0  0  0  0  0  0  0  0  # atno 10763 bound_to 10752
  154.4266  135.5987  153.6046 H   0  0  0  0  0  0  0  0  0  0  0  0  # atno 10764 bound_to 10752
  152.9833  135.5985  154.4113 H   0  0  0  0  0  0  0  0  0  0  0  0  # atno 10765 bound_to 10752
  139.8979  134.8266  156.2543 H   0  0  0  0  0  0  0  0  0  0  0  0  # atno 11005 bound_to 11000
  146.3278  140.3014  142.8621 LP  0  0  0  0  0  0  0  0  0  0  0  0  # atno 17320 bound_to 7965
  144.9427  140.8096  143.5620 LP  0  0  0  0  0  0  0  0  0  0  0  0  # atno 17321 bound_to 7965
  140.2227  143.3796  152.1629 LP  0  0  0  0  0  0  0  0  0  0  0  0  # atno 17342 bound_to 10162
  139.5261  144.7104  151.5224 LP  0  0  0  0  0  0  0  0  0  0  0  0  # atno 17343 bound_to 10162
  157.4662  131.0888  151.0692 LP  0  0  0  0  0  0  0  0  0  0  0  0  # atno 17370 bound_to 10713
  157.1166  130.6044  149.5495 LP  0  0  0  0  0  0  0  0  0  0  0  0  # atno 17371 bound_to 10713
  141.0204  133.7045  156.1258 LP  0  0  0  0  0  0  0  0  0  0  0  0  # atno 17394 bound_to 11000
  140.7242  134.4325  157.5572 LP  0  0  0  0  0  0  0  0  0  0  0  0  # atno 17395 bound_to 11000

$$$$
