AV-unprocessed.smi:3156|AV-procd|sdf|12032|dock3
  -GOLD-   2272017453D 1   1.00000     0.00000
 Structure written by MMmdl.
 41 42  0  0  0  0  0  0  0  0  2 V2000
  149.1801  139.6667  157.1796 C   0  0  0  0  0  0  0  0  0  0  0  0
  149.0660  141.0558  156.5262 C   0  0  1  0  0  0  0  0  0  0  0  0
  149.8633  142.0183  157.3189 N   0  3  0  0  0  0  0  0  0  0  0  0
  151.3243  141.7971  157.2842 C   0  0  0  0  0  0  0  0  0  0  0  0
  152.0111  142.3912  158.5228 C   0  0  1  0  0  0  0  0  0  0  0  0
  151.4475  143.7763  158.9039 C   0  0  0  0  0  0  0  0  0  0  0  0
  152.0893  144.2828  160.2007 C   0  0  0  0  0  0  0  0  0  0  0  0
  151.9443  143.2226  161.2973 C   0  0  0  0  0  0  0  0  0  0  0  0
  152.4731  141.8673  160.8023 C   0  0  0  0  0  0  0  0  0  0  0  0
  151.7975  141.4897  159.6061 O   0  0  0  0  0  0  0  0  0  0  0  0
  149.5211  141.0649  155.0410 C   0  0  2  0  0  0  0  0  0  0  0  0
  148.3521  141.2330  154.0515 C   0  0  0  0  0  0  0  0  0  0  0  0
  150.2928  139.8771  154.6977 N   0  0  0  0  0  0  0  0  0  0  0  0
  151.4738  139.4337  155.2572 C   0  0  0  0  0  0  0  0  0  0  0  0
  151.8269  138.2850  154.6089 C   0  0  0  0  0  0  0  0  0  0  0  0
  150.7887  138.1029  153.6536 C   0  0  0  0  0  0  0  0  0  0  0  0
  149.8735  139.0567  153.7077 N   0  0  0  0  0  0  0  0  0  0  0  0
  148.5290  138.9363  156.6992 H   0  0  0  0  0  0  0  0  0  0  0  0
  148.8926  139.7056  158.2308 H   0  0  0  0  0  0  0  0  0  0  0  0
  150.2013  139.2876  157.1281 H   0  0  0  0  0  0  0  0  0  0  0  0
  148.0139  141.3439  156.5723 H   0  0  0  0  0  0  0  0  0  0  0  0
  149.6827  142.9458  156.9622 H   0  0  0  0  0  0  0  0  0  0  0  0
  151.5462  140.7324  157.2058 H   0  0  0  0  0  0  0  0  0  0  0  0
  151.7185  142.2703  156.3838 H   0  0  0  0  0  0  0  0  0  0  0  0
  153.0840  142.4621  158.3342 H   0  0  0  0  0  0  0  0  0  0  0  0
  151.6199  144.4951  158.1022 H   0  0  0  0  0  0  0  0  0  0  0  0
  150.3666  143.7102  159.0358 H   0  0  0  0  0  0  0  0  0  0  0  0
  153.1461  144.4932  160.0309 H   0  0  0  0  0  0  0  0  0  0  0  0
  151.6284  145.2202  160.5138 H   0  0  0  0  0  0  0  0  0  0  0  0
  152.4794  143.5323  162.1955 H   0  0  0  0  0  0  0  0  0  0  0  0
  150.8947  143.1243  161.5770 H   0  0  0  0  0  0  0  0  0  0  0  0
  153.5494  141.9097  160.6276 H   0  0  0  0  0  0  0  0  0  0  0  0
  152.3047  141.1008  161.5590 H   0  0  0  0  0  0  0  0  0  0  0  0
  150.1884  141.9172  154.9027 H   0  0  0  0  0  0  0  0  0  0  0  0
  147.8528  142.1934  154.1799 H   0  0  0  0  0  0  0  0  0  0  0  0
  147.6046  140.4492  154.1780 H   0  0  0  0  0  0  0  0  0  0  0  0
  148.7046  141.1906  153.0203 H   0  0  0  0  0  0  0  0  0  0  0  0
  151.9601  139.9662  156.0613 H   0  0  0  0  0  0  0  0  0  0  0  0
  152.6962  137.6696  154.7879 H   0  0  0  0  0  0  0  0  0  0  0  0
  150.6741  137.3127  152.9263 H   0  0  0  0  0  0  0  0  0  0  0  0
  149.5488  141.9768  158.2778 H   0  0  0  0  0  0  0  0  0  0  0  0
  1  2  1  0  0  0  0
  1 18  1  0  0  0  0
  1 19  1  0  0  0  0
  1 20  1  0  0  0  0
  2  3  1  0  0  0  0
  2 11  1  0  0  0  0
  2 21  1  0  0  0  0
  3  4  1  0  0  0  0
  3 22  1  0  0  0  0
  3 41  1  0  0  0  0
  4  5  1  0  0  0  0
  4 23  1  0  0  0  0
  4 24  1  0  0  0  0
  5 10  1  0  0  0  0
  5  6  1  0  0  0  0
  5 25  1  0  0  0  0
  6  7  1  0  0  0  0
  6 26  1  0  0  0  0
  6 27  1  0  0  0  0
  7  8  1  0  0  0  0
  7 28  1  0  0  0  0
  7 29  1  0  0  0  0
  8  9  1  0  0  0  0
  8 30  1  0  0  0  0
  8 31  1  0  0  0  0
  9 10  1  0  0  0  0
  9 32  1  0  0  0  0
  9 33  1  0  0  0  0
 11 12  1  0  0  0  0
 11 13  1  0  0  0  0
 11 34  1  0  0  0  0
 12 35  1  0  0  0  0
 12 36  1  0  0  0  0
 12 37  1  0  0  0  0
 13 17  1  0  0  0  0
 13 14  1  0  0  0  0
 14 15  2  0  0  0  0
 14 38  1  0  0  0  0
 15 16  1  0  0  0  0
 15 39  1  0  0  0  0
 16 17  2  0  0  0  0
 16 40  1  0  0  0  0
M  CHG  1   3   1
M  END
> <s_m_source_file>
AV-unprocessed.smi

> <i_m_source_file_index>
3156

> <i_lp_mmshare_version>
43012

> <i_f3d_flags>
0

> <s_epik_input>
bjFbY0hdW2NIXVtjSF1uMVtDQEBIXShbQ0gzXSlbQ0BIXShbQ0gzXSlbTkhdW0NIMl1bQ0BASF0yW0NIMl1bQ0gyXVtDSDJdW0NIMl1PMg==

> <s_epik_cmdline>
J2VwaWtfcHl0aG9uJywgJy1waCcsICc3LjAnLCAnLXRuJywgJzgnLCAnLW1hJywgJzIwMCcsICctbWV0YWxfYmluZGluZycsICctaW1hZScsICc8aW5maWxlLm1hZT4nLCAnLW9tYWUnLCAnPG91dGZpbGUubWFlPic=

> <r_lp_tautomer_probability>
1

> <r_epik_Ionization_Penalty>
0.00658015

> <r_epik_Ionization_Penalty_Charging>
0.00656881

> <r_epik_Ionization_Penalty_Neutral>
1.13431e-05

> <r_epik_State_Penalty>
0.0048654

> <r_epik_Charging_Adjusted_Penalty>
0.0114342

> <i_epik_Tot_Q>
1

> <i_epik_Tot_abs_Q>
1

> <r_epik_Metal_State_Penalty>
-0

> <b_epik_Metal_Only>
0

> <s_lp_Force_Field>
OPLS_2005

> <r_lp_Energy>
19.0125

> <b_lp_Chiralities_Consistent>
1

> <s_lp_Variant>
AV-unprocessed.smi:3156-4

> <Gold.Version>
5.8.1

> <Gold.Id.Protein>
6NUR|6NUR_protein|mol2

> <Gold.PLP.Fitness>
49.2920

> <Gold.PLP.PLP>
-43.1900

> <Gold.PLP.part.hbond>
-1.0000

> <Gold.PLP.part.metal>
0.0000

> <Gold.PLP.part.buried>
-4.8975

> <Gold.PLP.part.nonpolar>
-37.4512

> <Gold.PLP.part.repulsive>
0.2192

> <Gold.PLP.ligand.clash>
0.0000

> <Gold.PLP.ligand.torsion>
1.6729

> <Gold.PLP.Chemscore.Hbond>
2.0000

> <Gold.PLP.Chemscore.CHOScore>
1.1209

> <Gold.PLP.Chemscore.Metal>
0.0000

> <Gold.Chemscore.Hbonds>
donor molecule, donor type, donor heavy atom, donor atom, acceptor molecule, acceptor atom, score
      L1  H     3    22       P1  8028  0.46
      L1  C    16    40       P1  7948  0.10
      L1  C    16    40       P1  7949  0.55

> <Gold.PLP.Chemscore.Internal.Correction>
0.0850

> <Gold.Rescore>
     Score         DG    S(hbond)    S(metal)    S(lipo)     H(rot)  DE(clash)    DE(int)     intcor
     14.38     -17.50       1.00        0.00     109.03       1.59       0.02       3.10       ----

> <Gold.Chemscore.Fitness>
14.3770

> <Gold.Chemscore.DG>
-17.4958

> <Gold.Chemscore.ZeroCoef>
-5.4800

> <Gold.Chemscore.Hbond>
0.9999

> <Gold.Chemscore.Metal>
0.0000

> <Gold.Chemscore.Lipo>
109.0283

> <Gold.Chemscore.Internal_Hbond>
0.0000

> <Gold.Chemscore.DEClash>
0.0212

> <Gold.Chemscore.DEInternal>
3.0977

> <Gold.Chemscore.Rot>
1.5938

> <Gold.Chemscore.Internal.Correction>
   9.000000E+99

> <Gold.Chemscore.Hbonds>
donor molecule, donor type, donor heavy atom, donor atom, acceptor molecule, acceptor atom, score
      L1  H     3    22       P1  8028  0.25

> <Gold.Chemscore.Hbond.Weighted>
-3.3397

> <Gold.Chemscore.Metal.Weighted>
-0.0000

> <Gold.Chemscore.Lipo.Weighted>
-12.7563

> <Gold.Chemscore.Internal_Hbond.Weighted>
0.0000

> <Gold.Chemscore.DEClash.Weighted>
0.0212

> <Gold.Chemscore.DEInternal.Weighted>
3.0977

> <Gold.Chemscore.Rot.Weighted>
4.0802

> <Gold.Chemscore.Internal.Correction.Weighted>
   9.000000E+99

> <Gold.Protein.RotatedTorsions>
[ 6907 6896 6895 6894 ] final  -20.71 input  -60.11 | X-H torsion
[ 7974 7965 7964 7962 ] final  147.23 input  175.53 | X-H torsion
[ 8008 7997 7996 7995 ] final   40.13 input   59.86 | X-H torsion
[ 10167 10162 10161 10158 ] final -166.03 input  -65.29 | X-H torsion
[ 10718 10713 10712 10709 ] final  100.92 input   66.30 | X-H torsion
[ 10763 10752 10751 10750 ] final  110.79 input  -60.55 | X-H torsion
[ 11005 11000 10999 10996 ] final -167.77 input  -57.11 | X-H torsion

> <Gold.Protein.ActiveResidues>
 VAL166  LYS551  ARG553  GLY616  TRP617  ASP618  TYR619  PRO620  LYS621  CYS622 
 ASP623  PHE694  ASN695  SER759  ASP760  ASP761  ALA762  ILE779  LEU786  VAL792 
 PHE793  MET794  SER795  GLU796  ALA797  LYS798  CYS799  TRP800  GLU811  SER814 

> <Gold.Protein.RotatedAtoms>
  151.2441  135.0599  159.9036 H   0  0  0  0  0  0  0  0  0  0  0  0  # atno 6907 bound_to 6896
  152.5389  134.0402  159.8074 H   0  0  0  0  0  0  0  0  0  0  0  0  # atno 6908 bound_to 6896
  151.0600  133.5503  159.2666 H   0  0  0  0  0  0  0  0  0  0  0  0  # atno 6909 bound_to 6896
  144.8608  139.6003  143.5931 H   0  0  0  0  0  0  0  0  0  0  0  0  # atno 7974 bound_to 7965
  155.2480  140.3350  155.4285 H   0  0  0  0  0  0  0  0  0  0  0  0  # atno 8008 bound_to 7997
  156.2228  140.1816  156.7481 H   0  0  0  0  0  0  0  0  0  0  0  0  # atno 8009 bound_to 7997
  154.5851  140.0647  156.9145 H   0  0  0  0  0  0  0  0  0  0  0  0  # atno 8010 bound_to 7997
  139.6142  144.0753  152.1872 H   0  0  0  0  0  0  0  0  0  0  0  0  # atno 10167 bound_to 10162
  157.6842  131.0712  150.5174 H   0  0  0  0  0  0  0  0  0  0  0  0  # atno 10718 bound_to 10713
  153.4540  135.3737  155.2300 H   0  0  0  0  0  0  0  0  0  0  0  0  # atno 10763 bound_to 10752
  154.8756  135.3892  154.4004 H   0  0  0  0  0  0  0  0  0  0  0  0  # atno 10764 bound_to 10752
  153.4568  135.7086  153.6139 H   0  0  0  0  0  0  0  0  0  0  0  0  # atno 10765 bound_to 10752
  140.5495  134.5442  157.5119 H   0  0  0  0  0  0  0  0  0  0  0  0  # atno 11005 bound_to 11000
  146.2859  139.7002  142.9196 LP  0  0  0  0  0  0  0  0  0  0  0  0  # atno 17320 bound_to 7965
  145.4316  141.0415  143.2907 LP  0  0  0  0  0  0  0  0  0  0  0  0  # atno 17321 bound_to 7965
  140.0379  144.6030  150.7435 LP  0  0  0  0  0  0  0  0  0  0  0  0  # atno 17342 bound_to 10162
  140.7340  143.2723  151.3849 LP  0  0  0  0  0  0  0  0  0  0  0  0  # atno 17343 bound_to 10162
  156.5489  130.4226  149.6117 LP  0  0  0  0  0  0  0  0  0  0  0  0  # atno 17370 bound_to 10713
  156.2920  130.7129  151.1980 LP  0  0  0  0  0  0  0  0  0  0  0  0  # atno 17371 bound_to 10713
  139.9462  134.7697  156.0556 LP  0  0  0  0  0  0  0  0  0  0  0  0  # atno 17394 bound_to 11000
  141.1180  133.6621  156.3143 LP  0  0  0  0  0  0  0  0  0  0  0  0  # atno 17395 bound_to 11000

$$$$
