AV-unprocessed.smi:22|AV-procd|sdf|172|dock1
  -GOLD-   2262015423D 1   1.00000     0.00000
 Structure written by MMmdl.
 56 59  0  0  0  0  0  0  0  0  2 V2000
  146.2848  133.2037  150.9570 C   0  0  0  0  0  0  0  0  0  0  0  0
  145.1257  133.5832  150.1068 N   0  3  1  0  0  0  0  0  0  0  0  0
  144.4481  132.3921  149.5120 C   0  0  0  0  0  0  0  0  0  0  0  0
  143.8162  132.6492  148.1301 C   0  0  0  0  0  0  0  0  0  0  0  0
  143.0024  133.8028  148.1708 O   0  0  0  0  0  0  0  0  0  0  0  0
  144.2291  134.5566  150.8128 C   0  0  0  0  0  0  0  0  0  0  0  0
  144.9439  135.7943  151.4135 C   0  0  0  0  0  0  0  0  0  0  0  0
  143.9595  136.7186  152.1485 C   0  0  0  0  0  0  0  0  0  0  0  0
  143.2184  135.9873  153.1730 N   0  0  0  0  0  0  0  0  0  0  0  0
  142.5815  136.7734  154.0793 C   0  0  0  0  0  0  0  0  0  0  0  0
  143.3034  137.5818  154.9016 N   0  0  0  0  0  0  0  0  0  0  0  0
  142.6884  138.3501  155.8053 C   0  0  0  0  0  0  0  0  0  0  0  0
  141.3825  138.4654  156.0513 N   0  0  0  0  0  0  0  0  0  0  0  0
  140.6505  137.6668  155.2234 C   0  0  0  0  0  0  0  0  0  0  0  0
  141.1644  136.7961  154.2207 C   0  0  0  0  0  0  0  0  0  0  0  0
  140.1164  136.1479  153.5775 N   0  0  0  0  0  0  0  0  0  0  0  0
  139.0469  136.6001  154.1735 C   0  0  0  0  0  0  0  0  0  0  0  0
  139.2747  137.5243  155.1681 N   0  0  0  0  0  0  0  0  0  0  0  0
  138.2760  138.1923  155.9898 C   0  0  0  0  0  0  0  0  0  0  0  0
  137.0238  137.3278  156.2759 C   0  0  2  0  0  0  0  0  0  0  0  0
  137.4343  136.0845  156.8150 O   0  0  0  0  0  0  0  0  0  0  0  0
  136.1905  137.0728  155.0175 C   0  0  0  0  0  0  0  0  0  0  0  0
  134.9349  137.9073  155.2401 C   0  0  0  0  0  0  0  0  0  0  0  0
  134.7476  137.8193  156.6410 O   0  0  0  0  0  0  0  0  0  0  0  0
  136.0226  137.9918  157.2421 C   0  0  0  0  0  0  0  0  0  0  0  0
  142.5082  134.8063  152.6838 C   0  0  0  0  0  0  0  0  0  0  0  0
  143.4660  133.8492  151.9573 C   0  0  0  0  0  0  0  0  0  0  0  0
  145.9811  132.5028  151.7356 H   0  0  0  0  0  0  0  0  0  0  0  0
  146.7344  134.0654  151.4474 H   0  0  0  0  0  0  0  0  0  0  0  0
  147.0780  132.7438  150.3691 H   0  0  0  0  0  0  0  0  0  0  0  0
  145.1623  131.5703  149.4424 H   0  0  0  0  0  0  0  0  0  0  0  0
  143.6384  132.0565  150.1590 H   0  0  0  0  0  0  0  0  0  0  0  0
  144.5604  132.7402  147.3398 H   0  0  0  0  0  0  0  0  0  0  0  0
  143.1862  131.8022  147.8570 H   0  0  0  0  0  0  0  0  0  0  0  0
  142.4967  133.7878  148.9699 H   0  0  0  0  0  0  0  0  0  0  0  0
  143.5064  134.9311  150.0851 H   0  0  0  0  0  0  0  0  0  0  0  0
  145.7220  135.4776  152.1097 H   0  0  0  0  0  0  0  0  0  0  0  0
  145.4299  136.3815  150.6342 H   0  0  0  0  0  0  0  0  0  0  0  0
  144.5090  137.5567  152.5756 H   0  0  0  0  0  0  0  0  0  0  0  0
  143.2482  137.1437  151.4391 H   0  0  0  0  0  0  0  0  0  0  0  0
  143.3350  138.9604  156.4183 H   0  0  0  0  0  0  0  0  0  0  0  0
  138.0556  136.2703  153.8983 H   0  0  0  0  0  0  0  0  0  0  0  0
  138.7494  138.4892  156.9266 H   0  0  0  0  0  0  0  0  0  0  0  0
  137.9872  139.1177  155.4895 H   0  0  0  0  0  0  0  0  0  0  0  0
  137.4360  135.4429  156.1210 H   0  0  0  0  0  0  0  0  0  0  0  0
  136.7049  137.3387  154.0934 H   0  0  0  0  0  0  0  0  0  0  0  0
  135.9075  136.0215  154.9410 H   0  0  0  0  0  0  0  0  0  0  0  0
  135.0986  138.9474  154.9531 H   0  0  0  0  0  0  0  0  0  0  0  0
  134.0728  137.5273  154.6915 H   0  0  0  0  0  0  0  0  0  0  0  0
  136.0489  137.5812  158.2524 H   0  0  0  0  0  0  0  0  0  0  0  0
  136.2032  139.0644  157.3183 H   0  0  0  0  0  0  0  0  0  0  0  0
  142.0394  134.2815  153.5175 H   0  0  0  0  0  0  0  0  0  0  0  0
  141.7103  135.1172  152.0078 H   0  0  0  0  0  0  0  0  0  0  0  0
  142.8904  133.0009  151.5897 H   0  0  0  0  0  0  0  0  0  0  0  0
  144.1804  133.4424  152.6748 H   0  0  0  0  0  0  0  0  0  0  0  0
  145.5028  134.0889  149.3173 H   0  0  0  0  0  0  0  0  0  0  0  0
  1  2  1  0  0  0  0
  1 28  1  0  0  0  0
  1 29  1  0  0  0  0
  1 30  1  0  0  0  0
  2  3  1  0  0  0  0
  2  6  1  0  0  0  0
  2 56  1  0  0  0  0
  3  4  1  0  0  0  0
  3 31  1  0  0  0  0
  3 32  1  0  0  0  0
  4  5  1  0  0  0  0
  4 33  1  0  0  0  0
  4 34  1  0  0  0  0
  5 35  1  0  0  0  0
  6 27  1  0  0  0  0
  6  7  1  0  0  0  0
  6 36  1  0  0  0  0
  7  8  1  0  0  0  0
  7 37  1  0  0  0  0
  7 38  1  0  0  0  0
  8  9  1  0  0  0  0
  8 39  1  0  0  0  0
  8 40  1  0  0  0  0
  9 10  1  0  0  0  0
  9 26  1  0  0  0  0
 10 15  1  0  0  0  0
 10 11  2  0  0  0  0
 11 12  1  0  0  0  0
 12 13  2  0  0  0  0
 12 41  1  0  0  0  0
 13 14  1  0  0  0  0
 14 18  1  0  0  0  0
 14 15  2  0  0  0  0
 15 16  1  0  0  0  0
 16 17  2  0  0  0  0
 17 18  1  0  0  0  0
 17 42  1  0  0  0  0
 18 19  1  0  0  0  0
 19 20  1  0  0  0  0
 19 43  1  0  0  0  0
 19 44  1  0  0  0  0
 20 25  1  0  0  0  0
 20 21  1  0  0  0  0
 20 22  1  0  0  0  0
 21 45  1  0  0  0  0
 22 23  1  0  0  0  0
 22 46  1  0  0  0  0
 22 47  1  0  0  0  0
 23 24  1  0  0  0  0
 23 48  1  0  0  0  0
 23 49  1  0  0  0  0
 24 25  1  0  0  0  0
 25 50  1  0  0  0  0
 25 51  1  0  0  0  0
 26 27  1  0  0  0  0
 26 52  1  0  0  0  0
 26 53  1  0  0  0  0
 27 54  1  0  0  0  0
 27 55  1  0  0  0  0
M  CHG  1   2   1
M  END
> <s_m_source_file>
AV-unprocessed.smi

> <i_m_source_file_index>
22

> <i_lp_mmshare_version>
43012

> <i_f3d_flags>
0

> <s_epik_input>
W09IXVtDSDJdW0NIMl1OKFtDSDNdKVtDSF0xW0NIMl1bQ0gyXU4oW0NIMl1bQ0gyXTEpYyhuW2NIXW4yKWMoYzIzKW5bY0hdbjNbQ0gyXVtDQEBdNChbT0hdKVtDSDJdW0NIMl1PW0NIMl00

> <s_epik_cmdline>
J2VwaWtfcHl0aG9uJywgJy1waCcsICc3LjAnLCAnLXRuJywgJzgnLCAnLW1hJywgJzIwMCcsICctbWV0YWxfYmluZGluZycsICctaW1hZScsICc8aW5maWxlLm1hZT4nLCAnLW9tYWUnLCAnPG91dGZpbGUubWFlPic=

> <r_lp_tautomer_probability>
1

> <r_epik_Ionization_Penalty>
0.00317524

> <r_epik_Ionization_Penalty_Charging>
0.00191487

> <r_epik_Ionization_Penalty_Neutral>
0.00126037

> <r_epik_State_Penalty>
-0

> <r_epik_Charging_Adjusted_Penalty>
0.00191487

> <i_epik_Tot_Q>
1

> <i_epik_Tot_abs_Q>
1

> <r_epik_Metal_State_Penalty>
-0

> <b_epik_Metal_Only>
0

> <s_lp_Force_Field>
OPLS_2005

> <r_lp_Energy>
50.3895

> <b_lp_Chiralities_Consistent>
1

> <s_lp_Variant>
AV-unprocessed.smi:22-4

> <Gold.Version>
5.8.1

> <Gold.Id.Protein>
6NUR|6NUR_protein|mol2

> <Gold.PLP.Fitness>
48.2550

> <Gold.PLP.PLP>
-41.4251

> <Gold.PLP.part.hbond>
-5.0148

> <Gold.PLP.part.metal>
0.0000

> <Gold.PLP.part.buried>
-5.1896

> <Gold.PLP.part.nonpolar>
-31.1786

> <Gold.PLP.part.repulsive>
0.5093

> <Gold.PLP.ligand.clash>
0.0000

> <Gold.PLP.ligand.torsion>
1.1262

> <Gold.PLP.Chemscore.Hbond>
2.7840

> <Gold.PLP.Chemscore.CHOScore>
0.0000

> <Gold.PLP.Chemscore.Metal>
0.0000

> <Gold.Chemscore.Hbonds>
donor molecule, donor type, donor heavy atom, donor atom, acceptor molecule, acceptor atom, score
      L1  H     2    56       P1  7921  1.00
      L1  H     5    35       P1 10186  0.74
      P1  H 10192 10197       L1     5  1.00

> <Gold.PLP.Chemscore.Internal.Correction>
0.7304

> <Gold.Rescore>
     Score         DG    S(hbond)    S(metal)    S(lipo)     H(rot)  DE(clash)    DE(int)     intcor
      8.55     -13.34       2.20        0.00      86.65       3.76       1.46       3.33       ----

> <Gold.Chemscore.Fitness>
8.5519

> <Gold.Chemscore.DG>
-13.3443

> <Gold.Chemscore.ZeroCoef>
-5.4800

> <Gold.Chemscore.Hbond>
2.1998

> <Gold.Chemscore.Metal>
0.0000

> <Gold.Chemscore.Lipo>
86.6507

> <Gold.Chemscore.Internal_Hbond>
0.0000

> <Gold.Chemscore.DEClash>
1.4618

> <Gold.Chemscore.DEInternal>
3.3306

> <Gold.Chemscore.Rot>
3.7583

> <Gold.Chemscore.Internal.Correction>
   9.000000E+99

> <Gold.Chemscore.Hbonds>
donor molecule, donor type, donor heavy atom, donor atom, acceptor molecule, acceptor atom, score
      L1  H     2    56       P1  7921  0.78
      L1  H     5    35       P1 10186  0.74
      P1  H 10192 10197       L1     5  0.25

> <Gold.Chemscore.Hbond.Weighted>
-7.3474

> <Gold.Chemscore.Metal.Weighted>
-0.0000

> <Gold.Chemscore.Lipo.Weighted>
-10.1381

> <Gold.Chemscore.Internal_Hbond.Weighted>
0.0000

> <Gold.Chemscore.DEClash.Weighted>
1.4618

> <Gold.Chemscore.DEInternal.Weighted>
3.3306

> <Gold.Chemscore.Rot.Weighted>
9.6213

> <Gold.Chemscore.Internal.Correction.Weighted>
   9.000000E+99

> <Gold.Protein.RotatedTorsions>
[ 6907 6896 6895 6894 ] final  -31.09 input  -60.11 | X-H torsion
[ 7974 7965 7964 7962 ] final  -95.94 input  175.53 | X-H torsion
[ 8008 7997 7996 7995 ] final  124.01 input   59.86 | X-H torsion
[ 10167 10162 10161 10158 ] final   54.44 input  -65.29 | X-H torsion
[ 10718 10713 10712 10709 ] final -125.64 input   66.30 | X-H torsion
[ 10763 10752 10751 10750 ] final  129.51 input  -60.55 | X-H torsion
[ 11005 11000 10999 10996 ] final   57.57 input  -57.11 | X-H torsion

> <Gold.Protein.ActiveResidues>
 VAL166  LYS551  ARG553  GLY616  TRP617  ASP618  TYR619  PRO620  LYS621  CYS622 
 ASP623  PHE694  ASN695  SER759  ASP760  ASP761  ALA762  ILE779  LEU786  VAL792 
 PHE793  MET794  SER795  GLU796  ALA797  LYS798  CYS799  TRP800  GLU811  SER814 

> <Gold.Protein.RotatedAtoms>
  151.0967  134.9948  159.8428 H   0  0  0  0  0  0  0  0  0  0  0  0  # atno 6907 bound_to 6896
  152.5434  134.1999  159.8718 H   0  0  0  0  0  0  0  0  0  0  0  0  # atno 6908 bound_to 6896
  151.2039  133.4550  159.2630 H   0  0  0  0  0  0  0  0  0  0  0  0  # atno 6909 bound_to 6896
  145.3534  140.9480  143.2541 H   0  0  0  0  0  0  0  0  0  0  0  0  # atno 7974 bound_to 7965
  156.2786  140.2750  156.1719 H   0  0  0  0  0  0  0  0  0  0  0  0  # atno 8008 bound_to 7997
  155.0646  140.0387  157.2606 H   0  0  0  0  0  0  0  0  0  0  0  0  # atno 8009 bound_to 7997
  154.7089  140.2664  155.6653 H   0  0  0  0  0  0  0  0  0  0  0  0  # atno 8010 bound_to 7997
  140.2301  144.3696  150.6417 H   0  0  0  0  0  0  0  0  0  0  0  0  # atno 10167 bound_to 10162
  156.1693  130.6656  151.0158 H   0  0  0  0  0  0  0  0  0  0  0  0  # atno 10718 bound_to 10713
  153.7429  135.3221  155.3307 H   0  0  0  0  0  0  0  0  0  0  0  0  # atno 10763 bound_to 10752
  154.8289  135.4549  154.1008 H   0  0  0  0  0  0  0  0  0  0  0  0  # atno 10764 bound_to 10752
  153.2188  135.6945  153.8106 H   0  0  0  0  0  0  0  0  0  0  0  0  # atno 10765 bound_to 10752
  140.0442  134.5829  155.9343 H   0  0  0  0  0  0  0  0  0  0  0  0  # atno 11005 bound_to 11000
  144.8700  139.5052  143.6772 LP  0  0  0  0  0  0  0  0  0  0  0  0  # atno 17320 bound_to 7965
  146.2958  139.7274  142.9127 LP  0  0  0  0  0  0  0  0  0  0  0  0  # atno 17321 bound_to 7965
  140.6191  143.2175  151.6731 LP  0  0  0  0  0  0  0  0  0  0  0  0  # atno 17342 bound_to 10162
  139.5113  144.3514  152.0648 LP  0  0  0  0  0  0  0  0  0  0  0  0  # atno 17343 bound_to 10162
  157.6791  131.0843  150.7417 LP  0  0  0  0  0  0  0  0  0  0  0  0  # atno 17370 bound_to 10713
  156.7477  130.4759  149.5463 LP  0  0  0  0  0  0  0  0  0  0  0  0  # atno 17371 bound_to 10713
  141.1899  133.6566  156.5387 LP  0  0  0  0  0  0  0  0  0  0  0  0  # atno 17394 bound_to 11000
  140.4019  134.7349  157.4785 LP  0  0  0  0  0  0  0  0  0  0  0  0  # atno 17395 bound_to 11000

$$$$
