AV-unprocessed.smi:2588|AV-procd|sdf|10148|dock10
  -GOLD-   2272014163D 1   1.00000     0.00000
 Structure written by MMmdl.
 40 41  0  0  0  0  0  0  0  0  2 V2000
  146.0686  134.5883  151.1806 C   0  0  0  0  0  0  0  0  0  0  0  0
  146.9861  133.5536  151.8662 C   0  0  0  0  0  0  0  0  0  0  0  0
  146.2018  132.2321  152.0138 C   0  0  0  0  0  0  0  0  0  0  0  0
  147.5338  134.0543  153.1705 N   0  3  2  0  0  0  0  0  0  0  0  0
  148.2644  133.0038  153.9400 C   0  0  0  0  0  0  0  0  0  0  0  0
  148.9032  133.5608  155.2231 C   0  0  0  0  0  0  0  0  0  0  0  0
  147.8531  134.2188  156.1249 C   0  0  1  0  0  0  0  0  0  0  0  0
  148.4937  134.7866  157.3072 N   0  0  0  0  0  0  0  0  0  0  0  0
  147.8673  135.4967  158.2582 C   0  0  0  0  0  0  0  0  0  0  0  0
  146.6657  135.7648  158.2152 O   0  0  0  0  0  0  0  0  0  0  0  0
  148.7453  135.9913  159.4159 C   0  0  0  0  0  0  0  0  0  0  0  0
  148.1713  135.7201  160.7350 N   0  0  0  0  0  0  0  0  0  0  0  0
  147.8922  136.7768  161.5447 N   0  0  0  0  0  0  0  0  0  0  0  0
  147.3946  136.3936  162.6619 C   0  0  0  0  0  0  0  0  0  0  0  0
  147.2020  134.6483  162.8724 S   0  0  0  0  0  0  0  0  0  0  0  0
  147.8878  134.4524  161.2359 C   0  0  0  0  0  0  0  0  0  0  0  0
  148.0568  133.3606  160.6961 O   0  0  0  0  0  0  0  0  0  0  0  0
  147.1217  135.3009  155.3178 C   0  0  0  0  0  0  0  0  0  0  0  0
  146.5119  134.7220  154.0303 C   0  0  0  0  0  0  0  0  0  0  0  0
  145.5833  134.1611  150.3025 H   0  0  0  0  0  0  0  0  0  0  0  0
  146.6158  135.4590  150.8220 H   0  0  0  0  0  0  0  0  0  0  0  0
  145.2822  134.9308  151.8543 H   0  0  0  0  0  0  0  0  0  0  0  0
  147.8290  133.3623  151.2000 H   0  0  0  0  0  0  0  0  0  0  0  0
  145.7078  131.9620  151.0797 H   0  0  0  0  0  0  0  0  0  0  0  0
  145.4304  132.3088  152.7809 H   0  0  0  0  0  0  0  0  0  0  0  0
  146.8501  131.3919  152.2606 H   0  0  0  0  0  0  0  0  0  0  0  0
  147.5801  132.1899  154.1853 H   0  0  0  0  0  0  0  0  0  0  0  0
  149.0688  132.5738  153.3466 H   0  0  0  0  0  0  0  0  0  0  0  0
  149.4048  132.7554  155.7612 H   0  0  0  0  0  0  0  0  0  0  0  0
  149.6760  134.2846  154.9591 H   0  0  0  0  0  0  0  0  0  0  0  0
  147.1377  133.4553  156.4381 H   0  0  0  0  0  0  0  0  0  0  0  0
  149.4833  134.6181  157.4181 H   0  0  0  0  0  0  0  0  0  0  0  0
  149.7267  135.5181  159.3549 H   0  0  0  0  0  0  0  0  0  0  0  0
  148.9120  137.0624  159.2912 H   0  0  0  0  0  0  0  0  0  0  0  0
  147.0838  137.0392  163.4831 H   0  0  0  0  0  0  0  0  0  0  0  0
  146.3327  135.7523  155.9207 H   0  0  0  0  0  0  0  0  0  0  0  0
  147.8129  136.1058  155.0629 H   0  0  0  0  0  0  0  0  0  0  0  0
  146.0434  135.5528  153.5059 H   0  0  0  0  0  0  0  0  0  0  0  0
  145.7214  134.0110  154.2757 H   0  0  0  0  0  0  0  0  0  0  0  0
  148.2139  134.7641  152.9382 H   0  0  0  0  0  0  0  0  0  0  0  0
  1  2  1  0  0  0  0
  1 20  1  0  0  0  0
  1 21  1  0  0  0  0
  1 22  1  0  0  0  0
  2  3  1  0  0  0  0
  2  4  1  0  0  0  0
  2 23  1  0  0  0  0
  3 24  1  0  0  0  0
  3 25  1  0  0  0  0
  3 26  1  0  0  0  0
  4 19  1  0  0  0  0
  4  5  1  0  0  0  0
  4 40  1  0  0  0  0
  5  6  1  0  0  0  0
  5 27  1  0  0  0  0
  5 28  1  0  0  0  0
  6  7  1  0  0  0  0
  6 29  1  0  0  0  0
  6 30  1  0  0  0  0
  7  8  1  0  0  0  0
  7 18  1  0  0  0  0
  7 31  1  0  0  0  0
  8  9  1  0  0  0  0
  8 32  1  0  0  0  0
  9 10  2  0  0  0  0
  9 11  1  0  0  0  0
 11 12  1  0  0  0  0
 11 33  1  0  0  0  0
 11 34  1  0  0  0  0
 12 16  1  0  0  0  0
 12 13  1  0  0  0  0
 13 14  2  0  0  0  0
 14 15  1  0  0  0  0
 14 35  1  0  0  0  0
 15 16  1  0  0  0  0
 16 17  2  0  0  0  0
 18 19  1  0  0  0  0
 18 36  1  0  0  0  0
 18 37  1  0  0  0  0
 19 38  1  0  0  0  0
 19 39  1  0  0  0  0
M  CHG  1   4   1
M  END
> <s_m_source_file>
AV-unprocessed.smi

> <i_m_source_file_index>
2588

> <i_lp_mmshare_version>
43012

> <i_f3d_flags>
0

> <s_epik_input>
W0NIM11bQ0hdKFtDSDNdKU4xW0NIMl1bQ0gyXVtDSF0oW0NIMl1bQ0gyXTEpW05IXUMoPU8pW0NIMl1uMm5bY0hdc2MyPU8=

> <s_epik_cmdline>
J2VwaWtfcHl0aG9uJywgJy1waCcsICc3LjAnLCAnLXRuJywgJzgnLCAnLW1hJywgJzIwMCcsICctbWV0YWxfYmluZGluZycsICctaW1hZScsICc8aW5maWxlLm1hZT4nLCAnLW9tYWUnLCAnPG91dGZpbGUubWFlPic=

> <r_lp_tautomer_probability>
1

> <r_epik_Ionization_Penalty>
0.00923155

> <r_epik_Ionization_Penalty_Charging>
0.00923117

> <r_epik_Ionization_Penalty_Neutral>
3.88423e-07

> <r_epik_State_Penalty>
0.0069994

> <r_epik_Charging_Adjusted_Penalty>
0.0162306

> <i_epik_Tot_Q>
1

> <i_epik_Tot_abs_Q>
1

> <r_epik_Metal_State_Penalty>
0.0069994

> <b_epik_Metal_Only>
0

> <s_lp_Force_Field>
OPLS_2005

> <r_lp_Energy>
22.17

> <b_lp_Chiralities_Consistent>
1

> <s_lp_Variant>
AV-unprocessed.smi:2588-1

> <Gold.Version>
5.8.1

> <Gold.Id.Protein>
6NUR|6NUR_protein|mol2

> <Gold.PLP.Fitness>
40.4808

> <Gold.PLP.PLP>
-29.5510

> <Gold.PLP.part.hbond>
-3.0000

> <Gold.PLP.part.metal>
0.0000

> <Gold.PLP.part.buried>
-3.6320

> <Gold.PLP.part.nonpolar>
-22.7174

> <Gold.PLP.part.repulsive>
0.0425

> <Gold.PLP.ligand.clash>
0.0000

> <Gold.PLP.ligand.torsion>
0.3144

> <Gold.PLP.Chemscore.Hbond>
3.8400

> <Gold.PLP.Chemscore.CHOScore>
0.0000

> <Gold.PLP.Chemscore.Metal>
0.0000

> <Gold.Chemscore.Hbonds>
donor molecule, donor type, donor heavy atom, donor atom, acceptor molecule, acceptor atom, score
      L1  H     4    40       P1  7948  2.00
      P1  H  6931  6943       L1    13  1.00

> <Gold.PLP.Chemscore.Internal.Correction>
0.0386

> <Gold.Rescore>
     Score         DG    S(hbond)    S(metal)    S(lipo)     H(rot)  DE(clash)    DE(int)     intcor
     14.02     -14.27       2.19        0.00      53.64       1.88       0.02       0.23       ----

> <Gold.Chemscore.Fitness>
14.0178

> <Gold.Chemscore.DG>
-14.2739

> <Gold.Chemscore.ZeroCoef>
-5.4800

> <Gold.Chemscore.Hbond>
2.1914

> <Gold.Chemscore.Metal>
0.0000

> <Gold.Chemscore.Lipo>
53.6409

> <Gold.Chemscore.Internal_Hbond>
0.0000

> <Gold.Chemscore.DEClash>
0.0243

> <Gold.Chemscore.DEInternal>
0.2318

> <Gold.Chemscore.Rot>
1.8756

> <Gold.Chemscore.Internal.Correction>
   9.000000E+99

> <Gold.Chemscore.Hbonds>
donor molecule, donor type, donor heavy atom, donor atom, acceptor molecule, acceptor atom, score
      L1  H     4    40       P1  7948  0.68
      P1  H  6931  6943       L1    13  0.60
      P1  H  6934  6947       L1    13  0.05

> <Gold.Chemscore.Hbond.Weighted>
-7.3194

> <Gold.Chemscore.Metal.Weighted>
-0.0000

> <Gold.Chemscore.Lipo.Weighted>
-6.2760

> <Gold.Chemscore.Internal_Hbond.Weighted>
0.0000

> <Gold.Chemscore.DEClash.Weighted>
0.0243

> <Gold.Chemscore.DEInternal.Weighted>
0.2318

> <Gold.Chemscore.Rot.Weighted>
4.8015

> <Gold.Chemscore.Internal.Correction.Weighted>
   9.000000E+99

> <Gold.Protein.RotatedTorsions>
[ 6907 6896 6895 6894 ] final  149.24 input  -60.11 | X-H torsion
[ 7974 7965 7964 7962 ] final -132.28 input  175.53 | X-H torsion
[ 8008 7997 7996 7995 ] final   -2.08 input   59.86 | X-H torsion
[ 10167 10162 10161 10158 ] final  -10.16 input  -65.29 | X-H torsion
[ 10718 10713 10712 10709 ] final   52.06 input   66.30 | X-H torsion
[ 10763 10752 10751 10750 ] final -149.78 input  -60.55 | X-H torsion
[ 11005 11000 10999 10996 ] final   21.47 input  -57.11 | X-H torsion

> <Gold.Protein.ActiveResidues>
 VAL166  LYS551  ARG553  GLY616  TRP617  ASP618  TYR619  PRO620  LYS621  CYS622 
 ASP623  PHE694  ASN695  SER759  ASP760  ASP761  ALA762  ILE779  LEU786  VAL792 
 PHE793  MET794  SER795  GLU796  ALA797  LYS798  CYS799  TRP800  GLU811  SER814 

> <Gold.Protein.RotatedAtoms>
  152.1307  133.4406  159.4719 H   0  0  0  0  0  0  0  0  0  0  0  0  # atno 6907 bound_to 6896
  150.6878  134.2424  159.4487 H   0  0  0  0  0  0  0  0  0  0  0  0  # atno 6908 bound_to 6896
  152.0307  134.9769  160.0623 H   0  0  0  0  0  0  0  0  0  0  0  0  # atno 6909 bound_to 6896
  144.9300  140.7117  143.4912 H   0  0  0  0  0  0  0  0  0  0  0  0  # atno 7974 bound_to 7965
  154.6397  140.2543  155.7336 H   0  0  0  0  0  0  0  0  0  0  0  0  # atno 8008 bound_to 7997
  156.2522  140.2890  156.0705 H   0  0  0  0  0  0  0  0  0  0  0  0  # atno 8009 bound_to 7997
  155.1616  140.0384  157.2834 H   0  0  0  0  0  0  0  0  0  0  0  0  # atno 8010 bound_to 7997
  140.7107  143.5778  150.9024 H   0  0  0  0  0  0  0  0  0  0  0  0  # atno 10167 bound_to 10162
  157.5040  130.8456  149.8351 H   0  0  0  0  0  0  0  0  0  0  0  0  # atno 10718 bound_to 10713
  154.8157  135.3300  154.7181 H   0  0  0  0  0  0  0  0  0  0  0  0  # atno 10763 bound_to 10752
  153.7822  135.6917  153.4891 H   0  0  0  0  0  0  0  0  0  0  0  0  # atno 10764 bound_to 10752
  153.1972  135.4529  155.0170 H   0  0  0  0  0  0  0  0  0  0  0  0  # atno 10765 bound_to 10752
  140.3912  134.1817  155.7662 H   0  0  0  0  0  0  0  0  0  0  0  0  # atno 11005 bound_to 11000
  145.3158  139.1804  143.4614 LP  0  0  0  0  0  0  0  0  0  0  0  0  # atno 17320 bound_to 7965
  146.3243  140.3168  142.8630 LP  0  0  0  0  0  0  0  0  0  0  0  0  # atno 17321 bound_to 7965
  139.9504  143.6279  152.3030 LP  0  0  0  0  0  0  0  0  0  0  0  0  # atno 17342 bound_to 10162
  139.6795  144.7656  151.1634 LP  0  0  0  0  0  0  0  0  0  0  0  0  # atno 17343 bound_to 10162
  156.0246  130.3784  150.1860 LP  0  0  0  0  0  0  0  0  0  0  0  0  # atno 17370 bound_to 10713
  157.0049  130.9933  151.3381 LP  0  0  0  0  0  0  0  0  0  0  0  0  # atno 17371 bound_to 10713
  141.1890  133.8248  157.0974 LP  0  0  0  0  0  0  0  0  0  0  0  0  # atno 17394 bound_to 11000
  140.0405  134.9857  157.0952 LP  0  0  0  0  0  0  0  0  0  0  0  0  # atno 17395 bound_to 11000

$$$$
