AV-unprocessed.smi:1231|AV-procd|sdf|5165|dock7
  -GOLD-   22720 4233D 1   1.00000     0.00000
 Structure written by MMmdl.
 43 44  0  0  0  0  0  0  0  0  2 V2000
  148.7802  140.5960  154.6599 C   0  0  0  0  0  0  0  0  0  0  0  0
  149.5410  139.3251  154.2669 C   0  0  2  0  0  0  0  0  0  0  0  0
  149.0140  138.0797  155.0040 C   0  0  0  0  0  0  0  0  0  0  0  0
  149.8184  136.8862  154.6509 N   0  3  2  0  0  0  0  0  0  0  0  0
  149.3060  135.6506  155.2937 C   0  0  0  0  0  0  0  0  0  0  0  0
  149.9480  134.3753  154.7133 C   0  0  0  0  0  0  0  0  0  0  0  0
  149.3612  134.0173  153.4274 N   0  0  0  0  0  0  0  0  0  0  0  0
  148.1442  133.4779  153.2655 C   0  0  0  0  0  0  0  0  0  0  0  0
  147.3852  133.2317  154.2035 O   0  0  0  0  0  0  0  0  0  0  0  0
  147.8786  133.2512  151.9670 N   0  0  0  0  0  0  0  0  0  0  0  0
  146.6963  132.7099  151.3955 C   0  0  0  0  0  0  0  0  0  0  0  0
  146.1087  131.6521  152.1257 C   0  0  0  0  0  0  0  0  0  0  0  0
  144.9321  131.0474  151.6430 C   0  0  0  0  0  0  0  0  0  0  0  0
  144.3740  131.5151  150.4400 C   0  0  0  0  0  0  0  0  0  0  0  0
  145.0232  132.5709  149.7740 C   0  0  0  0  0  0  0  0  0  0  0  0
  146.1503  133.1528  150.2354 N   0  0  0  0  0  0  0  0  0  0  0  0
  151.2568  137.1390  154.9144 C   0  0  0  0  0  0  0  0  0  0  0  0
  151.7247  138.4127  154.1847 C   0  0  2  0  0  0  0  0  0  0  0  0
  153.1852  138.7553  154.4983 C   0  0  0  0  0  0  0  0  0  0  0  0
  150.9140  139.5090  154.5931 O   0  0  0  0  0  0  0  0  0  0  0  0
  147.7209  140.5102  154.4166 H   0  0  0  0  0  0  0  0  0  0  0  0
  149.1723  141.4643  154.1298 H   0  0  0  0  0  0  0  0  0  0  0  0
  148.8634  140.7930  155.7291 H   0  0  0  0  0  0  0  0  0  0  0  0
  149.4437  139.1835  153.1889 H   0  0  0  0  0  0  0  0  0  0  0  0
  149.0497  138.2355  156.0838 H   0  0  0  0  0  0  0  0  0  0  0  0
  147.9695  137.9112  154.7383 H   0  0  0  0  0  0  0  0  0  0  0  0
  149.4562  135.7135  156.3725 H   0  0  0  0  0  0  0  0  0  0  0  0
  148.2281  135.5872  155.1373 H   0  0  0  0  0  0  0  0  0  0  0  0
  151.0170  134.5311  154.5666 H   0  0  0  0  0  0  0  0  0  0  0  0
  149.8477  133.5301  155.3949 H   0  0  0  0  0  0  0  0  0  0  0  0
  149.9233  134.1842  152.6053 H   0  0  0  0  0  0  0  0  0  0  0  0
  148.6050  133.4940  151.3099 H   0  0  0  0  0  0  0  0  0  0  0  0
  146.5505  131.3048  153.0484 H   0  0  0  0  0  0  0  0  0  0  0  0
  144.4665  130.2388  152.1871 H   0  0  0  0  0  0  0  0  0  0  0  0
  143.4725  131.0767  150.0382 H   0  0  0  0  0  0  0  0  0  0  0  0
  144.6278  132.9591  148.8470 H   0  0  0  0  0  0  0  0  0  0  0  0
  151.4173  137.2409  155.9892 H   0  0  0  0  0  0  0  0  0  0  0  0
  151.8583  136.2939  154.5819 H   0  0  0  0  0  0  0  0  0  0  0  0
  151.6258  138.2754  153.1063 H   0  0  0  0  0  0  0  0  0  0  0  0
  153.8526  137.9498  154.1909 H   0  0  0  0  0  0  0  0  0  0  0  0
  153.3318  138.9220  155.5658 H   0  0  0  0  0  0  0  0  0  0  0  0
  153.4941  139.6606  153.9746 H   0  0  0  0  0  0  0  0  0  0  0  0
  149.7158  136.7597  153.6541 H   0  0  0  0  0  0  0  0  0  0  0  0
  1  2  1  0  0  0  0
  1 21  1  0  0  0  0
  1 22  1  0  0  0  0
  1 23  1  0  0  0  0
  2 20  1  0  0  0  0
  2  3  1  0  0  0  0
  2 24  1  0  0  0  0
  3  4  1  0  0  0  0
  3 25  1  0  0  0  0
  3 26  1  0  0  0  0
  4  5  1  0  0  0  0
  4 17  1  0  0  0  0
  4 43  1  0  0  0  0
  5  6  1  0  0  0  0
  5 27  1  0  0  0  0
  5 28  1  0  0  0  0
  6  7  1  0  0  0  0
  6 29  1  0  0  0  0
  6 30  1  0  0  0  0
  7  8  1  0  0  0  0
  7 31  1  0  0  0  0
  8  9  2  0  0  0  0
  8 10  1  0  0  0  0
 10 11  1  0  0  0  0
 10 32  1  0  0  0  0
 11 16  1  0  0  0  0
 11 12  2  0  0  0  0
 12 13  1  0  0  0  0
 12 33  1  0  0  0  0
 13 14  2  0  0  0  0
 13 34  1  0  0  0  0
 14 15  1  0  0  0  0
 14 35  1  0  0  0  0
 15 16  2  0  0  0  0
 15 36  1  0  0  0  0
 17 18  1  0  0  0  0
 17 37  1  0  0  0  0
 17 38  1  0  0  0  0
 18 19  1  0  0  0  0
 18 20  1  0  0  0  0
 18 39  1  0  0  0  0
 19 40  1  0  0  0  0
 19 41  1  0  0  0  0
 19 42  1  0  0  0  0
M  CHG  1   4   1
M  END
> <s_m_source_file>
AV-unprocessed.smi

> <i_m_source_file_index>
1231

> <i_lp_mmshare_version>
43012

> <i_f3d_flags>
0

> <s_epik_input>
W0NIM11bQ0BASF0xW0NIMl1OKFtDSDJdW0NASF0oTzEpW0NIM10pW0NIMl1bQ0gyXVtOSF1DKD1PKVtOSF1jMltjSF1bY0hdW2NIXVtjSF1uMg==

> <s_epik_cmdline>
J2VwaWtfcHl0aG9uJywgJy1waCcsICc3LjAnLCAnLXRuJywgJzgnLCAnLW1hJywgJzIwMCcsICctbWV0YWxfYmluZGluZycsICctaW1hZScsICc8aW5maWxlLm1hZT4nLCAnLW9tYWUnLCAnPG91dGZpbGUubWFlPic=

> <r_epik_Ionization_Penalty>
0.602565

> <r_epik_Ionization_Penalty_Charging>
0.602531

> <r_epik_Ionization_Penalty_Neutral>
3.43186e-05

> <r_epik_State_Penalty>
0.617039

> <r_epik_Charging_Adjusted_Penalty>
1.21957

> <i_epik_Tot_Q>
1

> <i_epik_Tot_abs_Q>
1

> <r_epik_Metal_State_Penalty>
0.617041

> <b_epik_Metal_Only>
0

> <s_lp_Force_Field>
OPLS_2005

> <r_lp_Energy>
15.064

> <b_lp_Chiralities_Consistent>
1

> <s_lp_Variant>
AV-unprocessed.smi:1231-6

> <Gold.Version>
5.8.1

> <Gold.Id.Protein>
6NUR|6NUR_protein|mol2

> <Gold.PLP.Fitness>
45.4315

> <Gold.PLP.PLP>
-35.0997

> <Gold.PLP.part.hbond>
-3.9555

> <Gold.PLP.part.metal>
0.0000

> <Gold.PLP.part.buried>
-0.3502

> <Gold.PLP.part.nonpolar>
-29.9662

> <Gold.PLP.part.repulsive>
1.0947

> <Gold.PLP.ligand.clash>
0.0000

> <Gold.PLP.ligand.torsion>
0.5037

> <Gold.PLP.Chemscore.Hbond>
3.0000

> <Gold.PLP.Chemscore.CHOScore>
0.7712

> <Gold.PLP.Chemscore.Metal>
0.0000

> <Gold.Chemscore.Hbonds>
donor molecule, donor type, donor heavy atom, donor atom, acceptor molecule, acceptor atom, score
      L1  H     4    43       P1  7948  2.00
      P1  H  7989  7998       L1    20  0.95
      L1  C    15    36       P1  7921  0.48

> <Gold.PLP.Chemscore.Internal.Correction>
0.0257

> <Gold.Rescore>
     Score         DG    S(hbond)    S(metal)    S(lipo)     H(rot)  DE(clash)    DE(int)     intcor
     13.80     -16.02       1.24        0.00      88.75       1.55       0.43       1.79       ----

> <Gold.Chemscore.Fitness>
13.8032

> <Gold.Chemscore.DG>
-16.0217

> <Gold.Chemscore.ZeroCoef>
-5.4800

> <Gold.Chemscore.Hbond>
1.2389

> <Gold.Chemscore.Metal>
0.0000

> <Gold.Chemscore.Lipo>
88.7474

> <Gold.Chemscore.Internal_Hbond>
0.0000

> <Gold.Chemscore.DEClash>
0.4288

> <Gold.Chemscore.DEInternal>
1.7898

> <Gold.Chemscore.Rot>
1.5546

> <Gold.Chemscore.Internal.Correction>
   9.000000E+99

> <Gold.Chemscore.Hbonds>
donor molecule, donor type, donor heavy atom, donor atom, acceptor molecule, acceptor atom, score
      L1  H     4    43       P1  7948  0.59
      P1  H  7989  7998       L1    20  0.15

> <Gold.Chemscore.Hbond.Weighted>
-4.1380

> <Gold.Chemscore.Metal.Weighted>
-0.0000

> <Gold.Chemscore.Lipo.Weighted>
-10.3834

> <Gold.Chemscore.Internal_Hbond.Weighted>
0.0000

> <Gold.Chemscore.DEClash.Weighted>
0.4288

> <Gold.Chemscore.DEInternal.Weighted>
1.7898

> <Gold.Chemscore.Rot.Weighted>
3.9797

> <Gold.Chemscore.Internal.Correction.Weighted>
   9.000000E+99

> <Gold.Protein.RotatedTorsions>
[ 6907 6896 6895 6894 ] final  141.23 input  -60.11 | X-H torsion
[ 7974 7965 7964 7962 ] final  140.77 input  175.53 | X-H torsion
[ 8008 7997 7996 7995 ] final  -21.95 input   59.86 | X-H torsion
[ 10167 10162 10161 10158 ] final -150.81 input  -65.29 | X-H torsion
[ 10718 10713 10712 10709 ] final  -14.66 input   66.30 | X-H torsion
[ 10763 10752 10751 10750 ] final  -66.53 input  -60.55 | X-H torsion
[ 11005 11000 10999 10996 ] final  -89.31 input  -57.11 | X-H torsion

> <Gold.Protein.ActiveResidues>
 VAL166  LYS551  ARG553  GLY616  TRP617  ASP618  TYR619  PRO620  LYS621  CYS622 
 ASP623  PHE694  ASN695  SER759  ASP760  ASP761  ALA762  ILE779  LEU786  VAL792 
 PHE793  MET794  SER795  GLU796  ALA797  LYS798  CYS799  TRP800  GLU811  SER814 

> <Gold.Protein.RotatedAtoms>
  152.2335  133.5077  159.5228 H   0  0  0  0  0  0  0  0  0  0  0  0  # atno 6907 bound_to 6896
  150.7044  134.1185  159.4035 H   0  0  0  0  0  0  0  0  0  0  0  0  # atno 6908 bound_to 6896
  151.9106  135.0340  160.0565 H   0  0  0  0  0  0  0  0  0  0  0  0  # atno 6909 bound_to 6896
  144.9156  139.5235  143.5688 H   0  0  0  0  0  0  0  0  0  0  0  0  # atno 7974 bound_to 7965
  154.4674  140.2021  156.0084 H   0  0  0  0  0  0  0  0  0  0  0  0  # atno 8008 bound_to 7997
  156.0950  140.3252  155.7837 H   0  0  0  0  0  0  0  0  0  0  0  0  # atno 8009 bound_to 7997
  155.4893  140.0545  157.2947 H   0  0  0  0  0  0  0  0  0  0  0  0  # atno 8010 bound_to 7997
  139.7322  143.8790  152.2538 H   0  0  0  0  0  0  0  0  0  0  0  0  # atno 10167 bound_to 10162
  156.6128  130.4854  149.6195 H   0  0  0  0  0  0  0  0  0  0  0  0  # atno 10718 bound_to 10713
  154.3612  135.6115  153.5692 H   0  0  0  0  0  0  0  0  0  0  0  0  # atno 10763 bound_to 10752
  152.9793  135.5815  154.4630 H   0  0  0  0  0  0  0  0  0  0  0  0  # atno 10764 bound_to 10752
  154.4368  135.2849  155.1852 H   0  0  0  0  0  0  0  0  0  0  0  0  # atno 10765 bound_to 10752
  141.1587  133.7622  156.9576 H   0  0  0  0  0  0  0  0  0  0  0  0  # atno 11005 bound_to 11000
  146.3180  139.7996  142.8968 LP  0  0  0  0  0  0  0  0  0  0  0  0  # atno 17320 bound_to 7965
  145.3381  141.0281  143.3408 LP  0  0  0  0  0  0  0  0  0  0  0  0  # atno 17321 bound_to 7965
  139.8717  144.7065  150.8980 LP  0  0  0  0  0  0  0  0  0  0  0  0  # atno 17342 bound_to 10162
  140.7773  143.3733  151.1609 LP  0  0  0  0  0  0  0  0  0  0  0  0  # atno 17343 bound_to 10162
  156.2376  130.6832  151.1524 LP  0  0  0  0  0  0  0  0  0  0  0  0  # atno 17370 bound_to 10713
  157.7249  131.0656  150.5974 LP  0  0  0  0  0  0  0  0  0  0  0  0  # atno 17371 bound_to 10713
  140.1215  134.9414  157.2210 LP  0  0  0  0  0  0  0  0  0  0  0  0  # atno 17394 bound_to 11000
  140.3066  134.3071  155.7276 LP  0  0  0  0  0  0  0  0  0  0  0  0  # atno 17395 bound_to 11000

$$$$
