AV-unprocessed.smi:2468|AV-procd|sdf|9730|dock7
  -GOLD-   2272013373D 1   1.00000     0.00000
 Structure written by MMmdl.
 32 33  0  0  0  0  0  0  0  0  1 V2000
  152.2459  144.6216  161.4508 C   0  0  0  0  0  0  0  0  0  0  0  0
  152.5801  143.2804  160.8249 C   0  0  0  0  0  0  0  0  0  0  0  0
  153.4280  142.5008  161.5307 N   0  0  0  0  0  0  0  0  0  0  0  0
  153.7514  141.2940  161.0231 C   0  0  0  0  0  0  0  0  0  0  0  0
  153.2558  140.8109  159.7972 C   0  0  0  0  0  0  0  0  0  0  0  0
  152.3804  141.6319  159.0463 C   0  0  0  0  0  0  0  0  0  0  0  0
  151.8040  141.2370  157.8068 N   0  0  0  0  0  0  0  0  0  0  0  0
  152.0295  140.1253  157.0830 C   0  0  0  0  0  0  0  0  0  0  0  0
  152.8472  139.2534  157.3779 O   0  0  0  0  0  0  0  0  0  0  0  0
  151.2151  140.0047  155.7834 C   0  0  1  0  0  0  0  0  0  0  0  0
  152.1188  139.6390  154.7387 O   0  0  0  0  0  0  0  0  0  0  0  0
  151.7951  138.3551  154.2097 C   0  0  0  0  0  0  0  0  0  0  0  0
  150.8871  137.6993  155.2439 C   0  0  0  0  0  0  0  0  0  0  0  0
  150.1357  138.9010  155.7791 C   0  0  1  0  0  0  0  0  0  0  0  0
  149.3820  138.6483  157.0976 C   0  0  0  0  0  0  0  0  0  0  0  0
  152.0253  142.8921  159.5828 C   0  0  0  0  0  0  0  0  0  0  0  0
  150.9378  143.9410  158.7355 Cl  0  0  0  0  0  0  0  0  0  0  0  0
  152.5457  145.4338  160.7882 H   0  0  0  0  0  0  0  0  0  0  0  0
  152.7567  144.7587  162.4047 H   0  0  0  0  0  0  0  0  0  0  0  0
  151.1730  144.6994  161.6288 H   0  0  0  0  0  0  0  0  0  0  0  0
  154.4212  140.6896  161.6168 H   0  0  0  0  0  0  0  0  0  0  0  0
  153.5450  139.8245  159.4695 H   0  0  0  0  0  0  0  0  0  0  0  0
  151.1803  141.9129  157.3897 H   0  0  0  0  0  0  0  0  0  0  0  0
  150.7639  140.9689  155.5436 H   0  0  0  0  0  0  0  0  0  0  0  0
  151.2610  138.4920  153.2687 H   0  0  0  0  0  0  0  0  0  0  0  0
  152.6918  137.7688  154.0082 H   0  0  0  0  0  0  0  0  0  0  0  0
  150.2320  136.9424  154.8119 H   0  0  0  0  0  0  0  0  0  0  0  0
  151.4807  137.2295  156.0291 H   0  0  0  0  0  0  0  0  0  0  0  0
  149.3918  139.1838  155.0321 H   0  0  0  0  0  0  0  0  0  0  0  0
  150.0401  138.2741  157.8821 H   0  0  0  0  0  0  0  0  0  0  0  0
  148.5949  137.9076  156.9549 H   0  0  0  0  0  0  0  0  0  0  0  0
  148.9123  139.5630  157.4602 H   0  0  0  0  0  0  0  0  0  0  0  0
  1  2  1  0  0  0  0
  1 18  1  0  0  0  0
  1 19  1  0  0  0  0
  1 20  1  0  0  0  0
  2 16  1  0  0  0  0
  2  3  2  0  0  0  0
  3  4  1  0  0  0  0
  4  5  2  0  0  0  0
  4 21  1  0  0  0  0
  5  6  1  0  0  0  0
  5 22  1  0  0  0  0
  6  7  1  0  0  0  0
  6 16  2  0  0  0  0
  7  8  1  0  0  0  0
  7 23  1  0  0  0  0
  8  9  2  0  0  0  0
  8 10  1  0  0  0  0
 10 14  1  0  0  0  0
 10 11  1  0  0  0  0
 10 24  1  0  0  0  0
 11 12  1  0  0  0  0
 12 13  1  0  0  0  0
 12 25  1  0  0  0  0
 12 26  1  0  0  0  0
 13 14  1  0  0  0  0
 13 27  1  0  0  0  0
 13 28  1  0  0  0  0
 14 15  1  0  0  0  0
 14 29  1  0  0  0  0
 15 30  1  0  0  0  0
 15 31  1  0  0  0  0
 15 32  1  0  0  0  0
 16 17  1  0  0  0  0
M  END
> <s_m_source_file>
AV-unprocessed.smi

> <i_m_source_file_index>
2468

> <i_lp_mmshare_version>
43012

> <i_f3d_flags>
0

> <s_epik_input>
W0NIM11jMW5bY0hdW2NIXWMoYzFDbClbTkhdQyg9TylbQ0BASF0yT1tDSDJdW0NIMl1bQ0BIXTJbQ0gzXQ==

> <s_epik_cmdline>
J2VwaWtfcHl0aG9uJywgJy1waCcsICc3LjAnLCAnLXRuJywgJzgnLCAnLW1hJywgJzIwMCcsICctbWV0YWxfYmluZGluZycsICctaW1hZScsICc8aW5maWxlLm1hZT4nLCAnLW9tYWUnLCAnPG91dGZpbGUubWFlPic=

> <r_epik_Ionization_Penalty>
0.000361027

> <r_epik_Ionization_Penalty_Charging>
0

> <r_epik_Ionization_Penalty_Neutral>
0.000361027

> <r_epik_State_Penalty>
0.000217849

> <r_epik_Charging_Adjusted_Penalty>
0.000217849

> <i_epik_Tot_Q>
0

> <i_epik_Tot_abs_Q>
0

> <r_epik_Metal_State_Penalty>
-0

> <b_epik_Metal_Only>
0

> <s_lp_Force_Field>
OPLS_2005

> <r_lp_Energy>
25.7151

> <b_lp_Chiralities_Consistent>
1

> <s_lp_Variant>
AV-unprocessed.smi:2468-2

> <Gold.Version>
5.8.1

> <Gold.Id.Protein>
6NUR|6NUR_protein|mol2

> <Gold.PLP.Fitness>
37.9768

> <Gold.PLP.PLP>
-33.0200

> <Gold.PLP.part.hbond>
-2.0000

> <Gold.PLP.part.metal>
0.0000

> <Gold.PLP.part.buried>
-3.9061

> <Gold.PLP.part.nonpolar>
-26.5463

> <Gold.PLP.part.repulsive>
0.1538

> <Gold.PLP.ligand.clash>
0.0000

> <Gold.PLP.ligand.torsion>
0.2533

> <Gold.PLP.Chemscore.Hbond>
1.8160

> <Gold.PLP.Chemscore.CHOScore>
0.0000

> <Gold.PLP.Chemscore.Metal>
0.0000

> <Gold.Chemscore.Hbonds>
donor molecule, donor type, donor heavy atom, donor atom, acceptor molecule, acceptor atom, score
      P1  H  7989  7998       L1    11  0.83
      P1  H  7997  8010       L1     9  1.00

> <Gold.PLP.Chemscore.Internal.Correction>
0.0153

> <Gold.Rescore>
     Score         DG    S(hbond)    S(metal)    S(lipo)     H(rot)  DE(clash)    DE(int)     intcor
     17.82     -19.54       1.67        0.00      94.42       1.00       0.08       1.64       ----

> <Gold.Chemscore.Fitness>
17.8221

> <Gold.Chemscore.DG>
-19.5436

> <Gold.Chemscore.ZeroCoef>
-5.4800

> <Gold.Chemscore.Hbond>
1.6695

> <Gold.Chemscore.Metal>
0.0000

> <Gold.Chemscore.Lipo>
94.4215

> <Gold.Chemscore.Internal_Hbond>
0.0000

> <Gold.Chemscore.DEClash>
0.0804

> <Gold.Chemscore.DEInternal>
1.6412

> <Gold.Chemscore.Rot>
1.0000

> <Gold.Chemscore.Internal.Correction>
   9.000000E+99

> <Gold.Chemscore.Hbonds>
donor molecule, donor type, donor heavy atom, donor atom, acceptor molecule, acceptor atom, score
      P1  H  7989  7998       L1    11  0.13
      P1  H  7997  8010       L1     9  0.44

> <Gold.Chemscore.Hbond.Weighted>
-5.5763

> <Gold.Chemscore.Metal.Weighted>
-0.0000

> <Gold.Chemscore.Lipo.Weighted>
-11.0473

> <Gold.Chemscore.Internal_Hbond.Weighted>
0.0000

> <Gold.Chemscore.DEClash.Weighted>
0.0804

> <Gold.Chemscore.DEInternal.Weighted>
1.6412

> <Gold.Chemscore.Rot.Weighted>
2.5600

> <Gold.Chemscore.Internal.Correction.Weighted>
   9.000000E+99

> <Gold.Protein.RotatedTorsions>
[ 6907 6896 6895 6894 ] final   97.59 input  -60.11 | X-H torsion
[ 7974 7965 7964 7962 ] final   48.97 input  175.53 | X-H torsion
[ 8008 7997 7996 7995 ] final   38.48 input   59.86 | X-H torsion
[ 10167 10162 10161 10158 ] final  -74.52 input  -65.29 | X-H torsion
[ 10718 10713 10712 10709 ] final    2.26 input   66.30 | X-H torsion
[ 10763 10752 10751 10750 ] final  152.81 input  -60.55 | X-H torsion
[ 11005 11000 10999 10996 ] final   11.46 input  -57.11 | X-H torsion

> <Gold.Protein.ActiveResidues>
 VAL166  LYS551  ARG553  GLY616  TRP617  ASP618  TYR619  PRO620  LYS621  CYS622 
 ASP623  PHE694  ASN695  SER759  ASP760  ASP761  ALA762  ILE779  LEU786  VAL792 
 PHE793  MET794  SER795  GLU796  ALA797  LYS798  CYS799  TRP800  GLU811  SER814 

> <Gold.Protein.RotatedAtoms>
  152.5421  134.0710  159.8193 H   0  0  0  0  0  0  0  0  0  0  0  0  # atno 6907 bound_to 6896
  151.0824  133.5372  159.2627 H   0  0  0  0  0  0  0  0  0  0  0  0  # atno 6908 bound_to 6896
  151.2194  135.0521  159.8997 H   0  0  0  0  0  0  0  0  0  0  0  0  # atno 6909 bound_to 6896
  146.0153  139.4590  142.9930 H   0  0  0  0  0  0  0  0  0  0  0  0  # atno 7974 bound_to 7965
  155.2209  140.3331  155.4316 H   0  0  0  0  0  0  0  0  0  0  0  0  # atno 8008 bound_to 7997
  156.2334  140.1861  156.7231 H   0  0  0  0  0  0  0  0  0  0  0  0  # atno 8009 bound_to 7997
  154.6016  140.0622  156.9362 H   0  0  0  0  0  0  0  0  0  0  0  0  # atno 8010 bound_to 7997
  140.5020  143.2359  151.7737 H   0  0  0  0  0  0  0  0  0  0  0  0  # atno 10167 bound_to 10162
  156.8604  130.5584  149.5663 H   0  0  0  0  0  0  0  0  0  0  0  0  # atno 10718 bound_to 10713
  154.1261  135.2829  155.3197 H   0  0  0  0  0  0  0  0  0  0  0  0  # atno 10763 bound_to 10752
  154.6389  135.5409  153.7769 H   0  0  0  0  0  0  0  0  0  0  0  0  # atno 10764 bound_to 10752
  153.0297  135.6481  154.1413 H   0  0  0  0  0  0  0  0  0  0  0  0  # atno 10765 bound_to 10752
  140.5029  134.0728  155.7798 H   0  0  0  0  0  0  0  0  0  0  0  0  # atno 11005 bound_to 11000
  145.7278  141.0053  143.1368 LP  0  0  0  0  0  0  0  0  0  0  0  0  # atno 17320 bound_to 7965
  144.6968  139.8947  143.7455 LP  0  0  0  0  0  0  0  0  0  0  0  0  # atno 17321 bound_to 7965
  139.4874  144.4509  151.9655 LP  0  0  0  0  0  0  0  0  0  0  0  0  # atno 17342 bound_to 10162
  140.3598  144.2986  150.5935 LP  0  0  0  0  0  0  0  0  0  0  0  0  # atno 17343 bound_to 10162
  156.0780  130.5797  150.9510 LP  0  0  0  0  0  0  0  0  0  0  0  0  # atno 17370 bound_to 10713
  157.6253  131.0926  150.8545 LP  0  0  0  0  0  0  0  0  0  0  0  0  # atno 17371 bound_to 10713
  141.1426  133.9112  157.2291 LP  0  0  0  0  0  0  0  0  0  0  0  0  # atno 17394 bound_to 11000
  139.9703  135.0130  156.9494 LP  0  0  0  0  0  0  0  0  0  0  0  0  # atno 17395 bound_to 11000

$$$$
