AV-unprocessed.smi:3263|AV-procd|sdf|12493|dock4
  -GOLD-   2272018393D 1   1.00000     0.00000
 Structure written by MMmdl.
 42 44  0  0  0  0  0  0  0  0  2 V2000
  150.6639  140.4328  155.2192 O   0  0  0  0  0  0  0  0  0  0  0  0
  150.3553  141.5556  155.6194 C   0  0  0  0  0  0  0  0  0  0  0  0
  151.3870  142.4332  156.3356 C   0  0  0  0  0  0  0  0  0  0  0  0
  150.9879  142.7610  157.7921 C   0  0  1  0  0  0  0  0  0  0  0  0
  151.5437  141.7941  158.8622 C   0  0  0  0  0  0  0  0  0  0  0  0
  152.1596  142.7505  159.9009 C   0  0  1  0  0  0  0  0  0  0  0  0
  153.4711  143.3271  159.3376 C   0  0  0  0  0  0  0  0  0  0  0  0
  152.9729  144.3114  158.2638 C   0  0  0  0  0  0  0  0  0  0  0  0
  151.4406  144.1411  158.3250 C   0  0  2  0  0  0  0  0  0  0  0  0
  151.2281  143.9556  159.8247 C   0  0  0  0  0  0  0  0  0  0  0  0
  149.1303  142.0799  155.4597 N   0  0  0  0  0  0  0  0  0  0  0  0
  148.0211  141.4153  154.7864 C   0  0  0  0  0  0  0  0  0  0  0  0
  146.9284  142.4171  154.3761 C   0  0  0  0  0  0  0  0  0  0  0  0
  145.8330  142.5302  155.4180 C   0  0  0  0  0  0  0  0  0  0  0  0
  146.0704  143.0533  156.7077 C   0  0  0  0  0  0  0  0  0  0  0  0
  145.0045  143.1246  157.6288 C   0  0  0  0  0  0  0  0  0  0  0  0
  143.7262  142.6708  157.2423 C   0  0  0  0  0  0  0  0  0  0  0  0
  143.5459  142.1562  155.9423 C   0  0  0  0  0  0  0  0  0  0  0  0
  144.5918  142.1047  155.0883 N   0  3  0  0  0  0  0  0  0  0  0  0
  152.3564  141.9353  156.3062 H   0  0  0  0  0  0  0  0  0  0  0  0
  151.4951  143.3587  155.7688 H   0  0  0  0  0  0  0  0  0  0  0  0
  149.8980  142.7434  157.8548 H   0  0  0  0  0  0  0  0  0  0  0  0
  150.7364  141.2055  159.2999 H   0  0  0  0  0  0  0  0  0  0  0  0
  152.2837  141.0970  158.4664 H   0  0  0  0  0  0  0  0  0  0  0  0
  152.2664  142.3100  160.8924 H   0  0  0  0  0  0  0  0  0  0  0  0
  154.0297  143.8554  160.1112 H   0  0  0  0  0  0  0  0  0  0  0  0
  154.1208  142.5544  158.9251 H   0  0  0  0  0  0  0  0  0  0  0  0
  153.2501  145.3314  158.5339 H   0  0  0  0  0  0  0  0  0  0  0  0
  153.3957  144.1156  157.2796 H   0  0  0  0  0  0  0  0  0  0  0  0
  150.8918  144.9764  157.8889 H   0  0  0  0  0  0  0  0  0  0  0  0
  150.1964  143.7226  160.0944 H   0  0  0  0  0  0  0  0  0  0  0  0
  151.5692  144.8043  160.4205 H   0  0  0  0  0  0  0  0  0  0  0  0
  148.9585  143.0070  155.8220 H   0  0  0  0  0  0  0  0  0  0  0  0
  148.3904  140.8700  153.9162 H   0  0  0  0  0  0  0  0  0  0  0  0
  147.6063  140.6705  155.4663 H   0  0  0  0  0  0  0  0  0  0  0  0
  147.3686  143.4012  154.2087 H   0  0  0  0  0  0  0  0  0  0  0  0
  146.4758  142.1196  153.4290 H   0  0  0  0  0  0  0  0  0  0  0  0
  147.0558  143.3947  156.9901 H   0  0  0  0  0  0  0  0  0  0  0  0
  145.1653  143.5216  158.6205 H   0  0  0  0  0  0  0  0  0  0  0  0
  142.8969  142.7169  157.9331 H   0  0  0  0  0  0  0  0  0  0  0  0
  142.6045  141.7868  155.5626 H   0  0  0  0  0  0  0  0  0  0  0  0
  144.4392  141.7281  154.1520 H   0  0  0  0  0  0  0  0  0  0  0  0
  1  2  2  0  0  0  0
  2  3  1  0  0  0  0
  2 11  1  0  0  0  0
  3  4  1  0  0  0  0
  3 20  1  0  0  0  0
  3 21  1  0  0  0  0
  4  9  1  0  0  0  0
  4  5  1  0  0  0  0
  4 22  1  0  0  0  0
  5  6  1  0  0  0  0
  5 23  1  0  0  0  0
  5 24  1  0  0  0  0
  6 10  1  0  0  0  0
  6  7  1  0  0  0  0
  6 25  1  0  0  0  0
  7  8  1  0  0  0  0
  7 26  1  0  0  0  0
  7 27  1  0  0  0  0
  8  9  1  0  0  0  0
  8 28  1  0  0  0  0
  8 29  1  0  0  0  0
  9 10  1  0  0  0  0
  9 30  1  0  0  0  0
 10 31  1  0  0  0  0
 10 32  1  0  0  0  0
 11 12  1  0  0  0  0
 11 33  1  0  0  0  0
 12 13  1  0  0  0  0
 12 34  1  0  0  0  0
 12 35  1  0  0  0  0
 13 14  1  0  0  0  0
 13 36  1  0  0  0  0
 13 37  1  0  0  0  0
 14 19  1  0  0  0  0
 14 15  2  0  0  0  0
 15 16  1  0  0  0  0
 15 38  1  0  0  0  0
 16 17  2  0  0  0  0
 16 39  1  0  0  0  0
 17 18  1  0  0  0  0
 17 40  1  0  0  0  0
 18 19  2  0  0  0  0
 18 41  1  0  0  0  0
 19 42  1  0  0  0  0
M  CHG  1  19   1
M  END
> <s_m_source_file>
AV-unprocessed.smi

> <i_m_source_file_index>
3263

> <i_lp_mmshare_version>
43012

> <i_f3d_flags>
0

> <s_epik_input>
W0NIMl0xW0NIMl1bQ0BASF0oW0NIMl0yKVtDQEBIXShbQ0gyXVtDQEhdMTIpW0NIMl1DKD1PKVtOSF1bQ0gyXVtDSDJdYzNbY0hdW2NIXVtjSF1bY0hdbjM=

> <s_epik_cmdline>
J2VwaWtfcHl0aG9uJywgJy1waCcsICc3LjAnLCAnLXRuJywgJzgnLCAnLW1hJywgJzIwMCcsICctbWV0YWxfYmluZGluZycsICctaW1hZScsICc8aW5maWxlLm1hZT4nLCAnLW9tYWUnLCAnPG91dGZpbGUubWFlPic=

> <r_epik_Ionization_Penalty>
1.83579

> <r_epik_Ionization_Penalty_Charging>
1.83579

> <r_epik_Ionization_Penalty_Neutral>
2.47288e-08

> <r_epik_State_Penalty>
1.95213

> <r_epik_Charging_Adjusted_Penalty>
3.78793

> <i_epik_Tot_Q>
1

> <i_epik_Tot_abs_Q>
1

> <r_epik_Metal_State_Penalty>
1.97847

> <b_epik_Metal_Only>
0

> <s_lp_Force_Field>
OPLS_2005

> <r_lp_Energy>
51.7701

> <b_lp_Chiralities_Consistent>
1

> <s_lp_Variant>
AV-unprocessed.smi:3263-8

> <Gold.Version>
5.8.1

> <Gold.Id.Protein>
6NUR|6NUR_protein|mol2

> <Gold.PLP.Fitness>
48.7232

> <Gold.PLP.PLP>
-38.3077

> <Gold.PLP.part.hbond>
-3.0000

> <Gold.PLP.part.metal>
0.0000

> <Gold.PLP.part.buried>
-6.6565

> <Gold.PLP.part.nonpolar>
-29.1708

> <Gold.PLP.part.repulsive>
0.2110

> <Gold.PLP.ligand.clash>
0.0000

> <Gold.PLP.ligand.torsion>
0.8169

> <Gold.PLP.Chemscore.Hbond>
4.0000

> <Gold.PLP.Chemscore.CHOScore>
0.0000

> <Gold.PLP.Chemscore.Metal>
0.0000

> <Gold.Chemscore.Hbonds>
donor molecule, donor type, donor heavy atom, donor atom, acceptor molecule, acceptor atom, score
      L1  H    11    33       P1  8028  1.00
      L1  H    19    42       P1 10175  0.96
      P1  H  7989  7998       L1     1  1.00

> <Gold.PLP.Chemscore.Internal.Correction>
0.0492

> <Gold.Rescore>
     Score         DG    S(hbond)    S(metal)    S(lipo)     H(rot)  DE(clash)    DE(int)     intcor
     20.10     -22.03       2.52        0.00     103.60       1.56       1.43       0.50       ----

> <Gold.Chemscore.Fitness>
20.0968

> <Gold.Chemscore.DG>
-22.0296

> <Gold.Chemscore.ZeroCoef>
-5.4800

> <Gold.Chemscore.Hbond>
2.5247

> <Gold.Chemscore.Metal>
0.0000

> <Gold.Chemscore.Lipo>
103.5981

> <Gold.Chemscore.Internal_Hbond>
0.0000

> <Gold.Chemscore.DEClash>
1.4296

> <Gold.Chemscore.DEInternal>
0.5032

> <Gold.Chemscore.Rot>
1.5640

> <Gold.Chemscore.Internal.Correction>
   9.000000E+99

> <Gold.Chemscore.Hbonds>
donor molecule, donor type, donor heavy atom, donor atom, acceptor molecule, acceptor atom, score
      L1  H    11    33       P1  8028  0.96
      L1  H    19    42       P1 10175  0.07
      P1  H  7989  7998       L1     1  0.27

> <Gold.Chemscore.Hbond.Weighted>
-8.4324

> <Gold.Chemscore.Metal.Weighted>
-0.0000

> <Gold.Chemscore.Lipo.Weighted>
-12.1210

> <Gold.Chemscore.Internal_Hbond.Weighted>
0.0000

> <Gold.Chemscore.DEClash.Weighted>
1.4296

> <Gold.Chemscore.DEInternal.Weighted>
0.5032

> <Gold.Chemscore.Rot.Weighted>
4.0038

> <Gold.Chemscore.Internal.Correction.Weighted>
   9.000000E+99

> <Gold.Protein.RotatedTorsions>
[ 6907 6896 6895 6894 ] final   76.82 input  -60.11 | X-H torsion
[ 7974 7965 7964 7962 ] final  101.15 input  175.53 | X-H torsion
[ 8008 7997 7996 7995 ] final -168.26 input   59.86 | X-H torsion
[ 10167 10162 10161 10158 ] final   91.61 input  -65.29 | X-H torsion
[ 10718 10713 10712 10709 ] final  152.05 input   66.30 | X-H torsion
[ 10763 10752 10751 10750 ] final  -74.85 input  -60.55 | X-H torsion
[ 11005 11000 10999 10996 ] final  129.93 input  -57.11 | X-H torsion

> <Gold.Protein.ActiveResidues>
 VAL166  LYS551  ARG553  GLY616  TRP617  ASP618  TYR619  PRO620  LYS621  CYS622 
 ASP623  PHE694  ASN695  SER759  ASP760  ASP761  ALA762  ILE779  LEU786  VAL792 
 PHE793  MET794  SER795  GLU796  ALA797  LYS798  CYS799  TRP800  GLU811  SER814 

> <Gold.Protein.RotatedAtoms>
  152.5090  134.3911  159.9383 H   0  0  0  0  0  0  0  0  0  0  0  0  # atno 6907 bound_to 6896
  151.3871  133.3795  159.2724 H   0  0  0  0  0  0  0  0  0  0  0  0  # atno 6908 bound_to 6896
  150.9461  134.8886  159.7701 H   0  0  0  0  0  0  0  0  0  0  0  0  # atno 6909 bound_to 6896
  145.3762  139.2388  143.3428 H   0  0  0  0  0  0  0  0  0  0  0  0  # atno 7974 bound_to 7965
  155.8890  140.1021  157.1432 H   0  0  0  0  0  0  0  0  0  0  0  0  # atno 8008 bound_to 7997
  154.4013  140.1314  156.4356 H   0  0  0  0  0  0  0  0  0  0  0  0  # atno 8009 bound_to 7997
  155.7555  140.3464  155.5174 H   0  0  0  0  0  0  0  0  0  0  0  0  # atno 8010 bound_to 7997
  139.8357  144.6665  150.9344 H   0  0  0  0  0  0  0  0  0  0  0  0  # atno 10167 bound_to 10162
  157.2629  131.0801  151.1653 H   0  0  0  0  0  0  0  0  0  0  0  0  # atno 10718 bound_to 10713
  154.4787  135.5850  153.6374 H   0  0  0  0  0  0  0  0  0  0  0  0  # atno 10763 bound_to 10752
  152.9844  135.6084  154.3274 H   0  0  0  0  0  0  0  0  0  0  0  0  # atno 10764 bound_to 10752
  154.3163  135.2844  155.2521 H   0  0  0  0  0  0  0  0  0  0  0  0  # atno 10765 bound_to 10752
  139.9643  134.9594  156.9220 H   0  0  0  0  0  0  0  0  0  0  0  0  # atno 11005 bound_to 11000
  146.2863  140.4421  142.8756 LP  0  0  0  0  0  0  0  0  0  0  0  0  # atno 17320 bound_to 7965
  144.8541  140.7044  143.6149 LP  0  0  0  0  0  0  0  0  0  0  0  0  # atno 17321 bound_to 7965
  140.7803  143.3959  151.1231 LP  0  0  0  0  0  0  0  0  0  0  0  0  # atno 17342 bound_to 10162
  139.7609  143.8637  152.3100 LP  0  0  0  0  0  0  0  0  0  0  0  0  # atno 17343 bound_to 10162
  157.3156  130.6911  149.6240 LP  0  0  0  0  0  0  0  0  0  0  0  0  # atno 17370 bound_to 10713
  155.9664  130.4350  150.5075 LP  0  0  0  0  0  0  0  0  0  0  0  0  # atno 17371 bound_to 10713
  140.5430  134.0701  155.7347 LP  0  0  0  0  0  0  0  0  0  0  0  0  # atno 17394 bound_to 11000
  141.1322  133.9282  157.2510 LP  0  0  0  0  0  0  0  0  0  0  0  0  # atno 17395 bound_to 11000

$$$$
