AV-unprocessed.smi:2698|AV-procd|sdf|10421|dock5
  -GOLD-   2272014463D 1   1.00000     0.00000
 Structure written by MMmdl.
 33 33  0  0  0  0  0  0  0  0  2 V2000
  152.2413  144.8454  157.9122 C   0  0  0  0  0  0  0  0  0  0  0  0
  151.3913  143.6875  158.4694 C   0  0  0  0  0  0  0  0  0  0  0  0
  152.1367  142.9982  159.6234 C   0  0  0  0  0  0  0  0  0  0  0  0
  150.9858  142.6540  157.3898 C   0  0  0  0  0  0  0  0  0  0  0  0
  149.6862  141.8892  157.6803 C   0  0  0  0  0  0  0  0  0  0  0  0
  149.7117  140.7230  158.0732 O   0  0  0  0  0  0  0  0  0  0  0  0
  148.5468  142.5708  157.4835 N   0  0  0  0  0  0  0  0  0  0  0  0
  147.1946  142.0676  157.7112 C   0  0  2  0  0  0  0  0  0  0  0  0
  146.3530  142.1496  156.4191 C   0  0  0  0  0  0  0  0  0  0  0  0
  146.9492  141.4307  155.2336 C   0  0  0  0  0  0  0  0  0  0  0  0
  148.1105  141.7187  154.5453 C   0  0  0  0  0  0  0  0  0  0  0  0
  148.2075  140.7772  153.5367 N   0  0  0  0  0  0  0  0  0  0  0  0
  147.1433  139.9804  153.6433 C   0  0  0  0  0  0  0  0  0  0  0  0
  146.3425  140.3140  154.6467 N   0  0  0  0  0  0  0  0  0  0  0  0
  146.5766  142.7782  158.9215 C   0  0  0  0  0  0  0  0  0  0  0  0
  147.1675  142.6580  160.0178 O   0  0  0  0  0  0  0  0  0  0  0  0
  145.5277  143.4322  158.7323 O   0  5  0  0  0  0  0  0  0  0  0  0
  148.9406  140.7108  152.8454 H   0  0  0  0  0  0  0  0  0  0  0  0
  153.1561  144.4756  157.4483 H   0  0  0  0  0  0  0  0  0  0  0  0
  152.5301  145.5337  158.7070 H   0  0  0  0  0  0  0  0  0  0  0  0
  151.7057  145.4313  157.1668 H   0  0  0  0  0  0  0  0  0  0  0  0
  150.4810  144.1168  158.8911 H   0  0  0  0  0  0  0  0  0  0  0  0
  153.0621  142.5370  159.2766 H   0  0  0  0  0  0  0  0  0  0  0  0
  151.5259  142.2179  160.0785 H   0  0  0  0  0  0  0  0  0  0  0  0
  152.3929  143.7102  160.4084 H   0  0  0  0  0  0  0  0  0  0  0  0
  150.8973  143.1392  156.4173 H   0  0  0  0  0  0  0  0  0  0  0  0
  151.7858  141.9193  157.2842 H   0  0  0  0  0  0  0  0  0  0  0  0
  148.6147  143.5272  157.1662 H   0  0  0  0  0  0  0  0  0  0  0  0
  147.2732  141.0123  157.9816 H   0  0  0  0  0  0  0  0  0  0  0  0
  145.3616  141.7337  156.6034 H   0  0  0  0  0  0  0  0  0  0  0  0
  146.1963  143.1908  156.1355 H   0  0  0  0  0  0  0  0  0  0  0  0
  148.8448  142.4987  154.6840 H   0  0  0  0  0  0  0  0  0  0  0  0
  146.9520  139.1494  152.9806 H   0  0  0  0  0  0  0  0  0  0  0  0
  1  2  1  0  0  0  0
  1 19  1  0  0  0  0
  1 20  1  0  0  0  0
  1 21  1  0  0  0  0
  2  3  1  0  0  0  0
  2  4  1  0  0  0  0
  2 22  1  0  0  0  0
  3 23  1  0  0  0  0
  3 24  1  0  0  0  0
  3 25  1  0  0  0  0
  4  5  1  0  0  0  0
  4 26  1  0  0  0  0
  4 27  1  0  0  0  0
  5  6  2  0  0  0  0
  5  7  1  0  0  0  0
  7  8  1  0  0  0  0
  7 28  1  0  0  0  0
  8  9  1  0  0  0  0
  8 15  1  0  0  0  0
  8 29  1  0  0  0  0
  9 10  1  0  0  0  0
  9 30  1  0  0  0  0
  9 31  1  0  0  0  0
 10 14  1  0  0  0  0
 10 11  2  0  0  0  0
 11 12  1  0  0  0  0
 11 32  1  0  0  0  0
 12 18  1  0  0  0  0
 12 13  1  0  0  0  0
 13 14  2  0  0  0  0
 13 33  1  0  0  0  0
 15 16  2  0  0  0  0
 15 17  1  0  0  0  0
M  CHG  1  17  -1
M  END
> <s_m_source_file>
AV-unprocessed.smi

> <i_m_source_file_index>
2698

> <i_lp_mmshare_version>
43012

> <i_f3d_flags>
0

> <s_epik_input>
W0NIM11bQ0hdKFtDSDNdKVtDSDJdQyg9TylbTkhdW0NAQEhdKEMoPU8pW09IXSlbQ0gyXWMxW2NIXVtuSF1bY0hdbjE=

> <s_epik_cmdline>
J2VwaWtfcHl0aG9uJywgJy1waCcsICc3LjAnLCAnLXRuJywgJzgnLCAnLW1hJywgJzIwMCcsICctbWV0YWxfYmluZGluZycsICctaW1hZScsICc8aW5maWxlLm1hZT4nLCAnLW9tYWUnLCAnPG91dGZpbGUubWFlPic=

> <r_lp_tautomer_probability>
0.5

> <r_epik_Ionization_Penalty>
0.818672

> <r_epik_Ionization_Penalty_Charging>
0.818672

> <r_epik_Ionization_Penalty_Neutral>
7.99661e-08

> <r_epik_State_Penalty>
0.927032

> <r_epik_Charging_Adjusted_Penalty>
1.7457

> <i_epik_Tot_Q>
-1

> <i_epik_Tot_abs_Q>
1

> <r_epik_Metal_State_Penalty>
0.525537

> <b_epik_Metal_Only>
0

> <s_lp_Force_Field>
OPLS_2005

> <r_lp_Energy>
1.77679

> <b_lp_Chiralities_Consistent>
1

> <s_lp_Variant>
AV-unprocessed.smi:2698-5

> <Gold.Version>
5.8.1

> <Gold.Id.Protein>
6NUR|6NUR_protein|mol2

> <Gold.PLP.Fitness>
46.6643

> <Gold.PLP.PLP>
-29.3225

> <Gold.PLP.part.hbond>
-4.0000

> <Gold.PLP.part.metal>
0.0000

> <Gold.PLP.part.buried>
-5.2916

> <Gold.PLP.part.nonpolar>
-22.5811

> <Gold.PLP.part.repulsive>
0.4510

> <Gold.PLP.ligand.clash>
0.0000

> <Gold.PLP.ligand.torsion>
0.5960

> <Gold.PLP.Chemscore.Hbond>
5.1380

> <Gold.PLP.Chemscore.CHOScore>
1.0000

> <Gold.PLP.Chemscore.Metal>
0.0000

> <Gold.Chemscore.Hbonds>
donor molecule, donor type, donor heavy atom, donor atom, acceptor molecule, acceptor atom, score
      L1  H     7    28       P1  8028  0.82
      L1  H    12    18       P1  7957  1.00
      P1  H  6933  6944       L1    16  1.50
      P1  H  6934  6946       L1    16  1.57
      L1  C    11    32       P1  8028  1.00

> <Gold.PLP.Chemscore.Internal.Correction>
0.1199

> <Gold.Rescore>
     Score         DG    S(hbond)    S(metal)    S(lipo)     H(rot)  DE(clash)    DE(int)     intcor
     14.71     -15.69       3.13        0.00      63.90       3.01       0.12       0.86       ----

> <Gold.Chemscore.Fitness>
14.7054

> <Gold.Chemscore.DG>
-15.6909

> <Gold.Chemscore.ZeroCoef>
-5.4800

> <Gold.Chemscore.Hbond>
3.1294

> <Gold.Chemscore.Metal>
0.0000

> <Gold.Chemscore.Lipo>
63.8966

> <Gold.Chemscore.Internal_Hbond>
0.0000

> <Gold.Chemscore.DEClash>
0.1232

> <Gold.Chemscore.DEInternal>
0.8623

> <Gold.Chemscore.Rot>
3.0145

> <Gold.Chemscore.Internal.Correction>
   9.000000E+99

> <Gold.Chemscore.Hbonds>
donor molecule, donor type, donor heavy atom, donor atom, acceptor molecule, acceptor atom, score
      L1  H     7    28       P1  8028  0.13
      L1  H    12    18       P1  7957  0.95
      P1  H  6933  6944       L1    16  0.73
      P1  H  6934  6946       L1    16  0.61

> <Gold.Chemscore.Hbond.Weighted>
-10.4521

> <Gold.Chemscore.Metal.Weighted>
-0.0000

> <Gold.Chemscore.Lipo.Weighted>
-7.4759

> <Gold.Chemscore.Internal_Hbond.Weighted>
0.0000

> <Gold.Chemscore.DEClash.Weighted>
0.1232

> <Gold.Chemscore.DEInternal.Weighted>
0.8623

> <Gold.Chemscore.Rot.Weighted>
7.7171

> <Gold.Chemscore.Internal.Correction.Weighted>
   9.000000E+99

> <Gold.Protein.RotatedTorsions>
[ 6907 6896 6895 6894 ] final  119.73 input  -60.11 | X-H torsion
[ 7974 7965 7964 7962 ] final  152.94 input  175.53 | X-H torsion
[ 8008 7997 7996 7995 ] final  -97.56 input   59.86 | X-H torsion
[ 10167 10162 10161 10158 ] final  -43.40 input  -65.29 | X-H torsion
[ 10718 10713 10712 10709 ] final   39.47 input   66.30 | X-H torsion
[ 10763 10752 10751 10750 ] final -175.54 input  -60.55 | X-H torsion
[ 11005 11000 10999 10996 ] final    0.58 input  -57.11 | X-H torsion

> <Gold.Protein.ActiveResidues>
 VAL166  LYS551  ARG553  GLY616  TRP617  ASP618  TYR619  PRO620  LYS621  CYS622 
 ASP623  PHE694  ASN695  SER759  ASP760  ASP761  ALA762  ILE779  LEU786  VAL792 
 PHE793  MET794  SER795  GLU796  ALA797  LYS798  CYS799  TRP800  GLU811  SER814 

> <Gold.Protein.RotatedAtoms>
  152.4451  133.7520  159.6699 H   0  0  0  0  0  0  0  0  0  0  0  0  # atno 6907 bound_to 6896
  150.8349  133.8020  159.3090 H   0  0  0  0  0  0  0  0  0  0  0  0  # atno 6908 bound_to 6896
  151.5662  135.1066  160.0036 H   0  0  0  0  0  0  0  0  0  0  0  0  # atno 6909 bound_to 6896
  144.8188  139.6734  143.6109 H   0  0  0  0  0  0  0  0  0  0  0  0  # atno 7974 bound_to 7965
  154.7894  140.0462  157.1189 H   0  0  0  0  0  0  0  0  0  0  0  0  # atno 8008 bound_to 7997
  154.9609  140.3077  155.5011 H   0  0  0  0  0  0  0  0  0  0  0  0  # atno 8009 bound_to 7997
  156.2948  140.2271  156.4694 H   0  0  0  0  0  0  0  0  0  0  0  0  # atno 8010 bound_to 7997
  140.6935  143.2985  151.3347 H   0  0  0  0  0  0  0  0  0  0  0  0  # atno 10167 bound_to 10162
  157.3709  130.7700  149.7118 H   0  0  0  0  0  0  0  0  0  0  0  0  # atno 10718 bound_to 10713
  154.5831  135.2838  155.0712 H   0  0  0  0  0  0  0  0  0  0  0  0  # atno 10763 bound_to 10752
  154.2041  135.6419  153.5099 H   0  0  0  0  0  0  0  0  0  0  0  0  # atno 10764 bound_to 10752
  153.0095  135.5476  154.6492 H   0  0  0  0  0  0  0  0  0  0  0  0  # atno 10765 bound_to 10752
  140.6249  133.9627  155.8244 H   0  0  0  0  0  0  0  0  0  0  0  0  # atno 11005 bound_to 11000
  146.2493  139.6165  142.9438 LP  0  0  0  0  0  0  0  0  0  0  0  0  # atno 17320 bound_to 7965
  145.5152  141.0434  143.2466 LP  0  0  0  0  0  0  0  0  0  0  0  0  # atno 17321 bound_to 7965
  139.6363  144.0624  152.2518 LP  0  0  0  0  0  0  0  0  0  0  0  0  # atno 17342 bound_to 10162
  140.0115  144.6220  150.7643 LP  0  0  0  0  0  0  0  0  0  0  0  0  # atno 17343 bound_to 10162
  155.9755  130.4088  150.3843 LP  0  0  0  0  0  0  0  0  0  0  0  0  # atno 17370 bound_to 10713
  157.1934  131.0420  151.2688 LP  0  0  0  0  0  0  0  0  0  0  0  0  # atno 17371 bound_to 10713
  141.0716  134.0197  157.3518 LP  0  0  0  0  0  0  0  0  0  0  0  0  # atno 17394 bound_to 11000
  139.9138  135.0194  156.7801 LP  0  0  0  0  0  0  0  0  0  0  0  0  # atno 17395 bound_to 11000

$$$$
