AV-unprocessed.smi:281|AV-procd|sdf|2108|dock2
  -GOLD-   2262021403D 1   1.00000     0.00000
 Structure written by MMmdl.
 55 59  0  0  0  0  0  0  0  0  1 V2000
  148.0308  137.1653  158.9600 C   0  0  0  0  0  0  0  0  0  0  0  0
  148.4552  137.0582  157.4917 C   0  0  1  0  0  0  0  0  0  0  0  0
  147.2447  137.0022  156.5437 C   0  0  0  0  0  0  0  0  0  0  0  0
  147.7011  137.0052  155.1609 N   0  0  0  0  0  0  0  0  0  0  0  0
  146.7368  136.7812  154.2446 C   0  0  0  0  0  0  0  0  0  0  0  0
  146.4718  137.7849  153.3736 N   0  0  0  0  0  0  0  0  0  0  0  0
  145.5226  137.6293  152.4455 C   0  0  0  0  0  0  0  0  0  0  0  0
  144.7377  136.5727  152.2223 N   0  0  0  0  0  0  0  0  0  0  0  0
  145.0006  135.5630  153.1013 C   0  0  0  0  0  0  0  0  0  0  0  0
  145.9722  135.5848  154.1410 C   0  0  0  0  0  0  0  0  0  0  0  0
  145.9401  134.3867  154.8441 N   0  0  0  0  0  0  0  0  0  0  0  0
  145.0084  133.6935  154.2492 C   0  0  0  0  0  0  0  0  0  0  0  0
  144.4010  134.3180  153.1829 N   0  0  0  0  0  0  0  0  0  0  0  0
  143.3442  133.7783  152.3401 C   0  0  0  0  0  0  0  0  0  0  0  0
  143.8269  132.6731  151.3690 C   0  0  2  0  0  0  0  0  0  0  0  0
  142.7094  132.1562  150.6697 O   0  0  0  0  0  0  0  0  0  0  0  0
  144.5367  131.5259  152.0926 C   0  0  0  0  0  0  0  0  0  0  0  0
  145.9945  131.6817  151.6756 C   0  0  0  0  0  0  0  0  0  0  0  0
  145.8892  132.1650  150.3487 O   0  0  0  0  0  0  0  0  0  0  0  0
  144.8761  133.1599  150.3493 C   0  0  0  0  0  0  0  0  0  0  0  0
  148.5344  138.1570  154.8477 C   0  0  0  0  0  0  0  0  0  0  0  0
  149.7320  138.2428  155.8277 C   0  0  1  0  0  0  0  0  0  0  0  0
  150.7801  137.1621  155.5787 C   0  0  0  0  0  0  0  0  0  0  0  0
  151.6397  137.7637  154.4734 C   0  0  0  0  0  0  0  0  0  0  0  0
  151.6111  139.1687  154.6912 O   0  0  0  0  0  0  0  0  0  0  0  0
  150.6066  139.4999  155.6466 C   0  0  1  0  0  0  0  0  0  0  0  0
  149.8855  140.7970  155.2526 C   0  0  0  0  0  0  0  0  0  0  0  0
  149.2518  138.2012  157.1758 O   0  0  0  0  0  0  0  0  0  0  0  0
  147.4292  136.3063  159.2585 H   0  0  0  0  0  0  0  0  0  0  0  0
  147.4407  138.0652  159.1359 H   0  0  0  0  0  0  0  0  0  0  0  0
  148.9013  137.2044  159.6151 H   0  0  0  0  0  0  0  0  0  0  0  0
  149.0523  136.1530  157.3750 H   0  0  0  0  0  0  0  0  0  0  0  0
  146.6549  136.1051  156.7369 H   0  0  0  0  0  0  0  0  0  0  0  0
  146.5979  137.8610  156.7248 H   0  0  0  0  0  0  0  0  0  0  0  0
  145.3700  138.4718  151.7873 H   0  0  0  0  0  0  0  0  0  0  0  0
  144.7403  132.6986  154.5738 H   0  0  0  0  0  0  0  0  0  0  0  0
  142.5583  133.3888  152.9889 H   0  0  0  0  0  0  0  0  0  0  0  0
  142.8971  134.6021  151.7821 H   0  0  0  0  0  0  0  0  0  0  0  0
  142.1034  132.8634  150.5089 H   0  0  0  0  0  0  0  0  0  0  0  0
  144.4128  131.5516  153.1760 H   0  0  0  0  0  0  0  0  0  0  0  0
  144.1703  130.5578  151.7465 H   0  0  0  0  0  0  0  0  0  0  0  0
  146.5044  132.4193  152.2979 H   0  0  0  0  0  0  0  0  0  0  0  0
  146.5501  130.7450  151.7217 H   0  0  0  0  0  0  0  0  0  0  0  0
  144.4732  133.3237  149.3490 H   0  0  0  0  0  0  0  0  0  0  0  0
  145.3371  134.0929  150.6752 H   0  0  0  0  0  0  0  0  0  0  0  0
  148.8813  138.1019  153.8149 H   0  0  0  0  0  0  0  0  0  0  0  0
  147.9165  139.0519  154.9287 H   0  0  0  0  0  0  0  0  0  0  0  0
  151.3893  137.0239  156.4731 H   0  0  0  0  0  0  0  0  0  0  0  0
  150.3639  136.1915  155.3075 H   0  0  0  0  0  0  0  0  0  0  0  0
  152.6598  137.3794  154.4838 H   0  0  0  0  0  0  0  0  0  0  0  0
  151.2090  137.5525  153.4941 H   0  0  0  0  0  0  0  0  0  0  0  0
  151.1379  139.6774  156.5834 H   0  0  0  0  0  0  0  0  0  0  0  0
  149.1006  141.0417  155.9686 H   0  0  0  0  0  0  0  0  0  0  0  0
  149.4329  140.7223  154.2636 H   0  0  0  0  0  0  0  0  0  0  0  0
  150.5840  141.6334  155.2280 H   0  0  0  0  0  0  0  0  0  0  0  0
  1  2  1  0  0  0  0
  1 29  1  0  0  0  0
  1 30  1  0  0  0  0
  1 31  1  0  0  0  0
  2 28  1  0  0  0  0
  2  3  1  0  0  0  0
  2 32  1  0  0  0  0
  3  4  1  0  0  0  0
  3 33  1  0  0  0  0
  3 34  1  0  0  0  0
  4  5  1  0  0  0  0
  4 21  1  0  0  0  0
  5 10  1  0  0  0  0
  5  6  2  0  0  0  0
  6  7  1  0  0  0  0
  7  8  2  0  0  0  0
  7 35  1  0  0  0  0
  8  9  1  0  0  0  0
  9 13  1  0  0  0  0
  9 10  2  0  0  0  0
 10 11  1  0  0  0  0
 11 12  2  0  0  0  0
 12 13  1  0  0  0  0
 12 36  1  0  0  0  0
 13 14  1  0  0  0  0
 14 15  1  0  0  0  0
 14 37  1  0  0  0  0
 14 38  1  0  0  0  0
 15 20  1  0  0  0  0
 15 16  1  0  0  0  0
 15 17  1  0  0  0  0
 16 39  1  0  0  0  0
 17 18  1  0  0  0  0
 17 40  1  0  0  0  0
 17 41  1  0  0  0  0
 18 19  1  0  0  0  0
 18 42  1  0  0  0  0
 18 43  1  0  0  0  0
 19 20  1  0  0  0  0
 20 44  1  0  0  0  0
 20 45  1  0  0  0  0
 21 22  1  0  0  0  0
 21 46  1  0  0  0  0
 21 47  1  0  0  0  0
 22 26  1  0  0  0  0
 22 23  1  0  0  0  0
 22 28  1  0  0  0  0
 23 24  1  0  0  0  0
 23 48  1  0  0  0  0
 23 49  1  0  0  0  0
 24 25  1  0  0  0  0
 24 50  1  0  0  0  0
 24 51  1  0  0  0  0
 25 26  1  0  0  0  0
 26 27  1  0  0  0  0
 26 52  1  0  0  0  0
 27 53  1  0  0  0  0
 27 54  1  0  0  0  0
 27 55  1  0  0  0  0
M  END
> <s_m_source_file>
AV-unprocessed.smi

> <i_m_source_file_index>
281

> <i_lp_mmshare_version>
43012

> <i_f3d_flags>
0

> <s_epik_input>
W0NIM11bQ0BASF0xT1tDSDJdW0NIMl1bQ0BAXTEyW0NIMl1OKFtDSDJdW0NASF0oTzIpW0NIM10pYyhuW2NIXW4zKWMoYzM0KW5bY0hdbjRbQ0gyXVtDQEBdNShbT0hdKVtDSDJdW0NIMl1PW0NIMl01

> <s_epik_cmdline>
J2VwaWtfcHl0aG9uJywgJy1waCcsICc3LjAnLCAnLXRuJywgJzgnLCAnLW1hJywgJzIwMCcsICctbWV0YWxfYmluZGluZycsICctaW1hZScsICc8aW5maWxlLm1hZT4nLCAnLW9tYWUnLCAnPG91dGZpbGUubWFlPic=

> <r_lp_tautomer_probability>
1

> <r_epik_Ionization_Penalty>
0.00571331

> <r_epik_Ionization_Penalty_Charging>
0

> <r_epik_Ionization_Penalty_Neutral>
0.00571331

> <r_epik_State_Penalty>
0.00399586

> <r_epik_Charging_Adjusted_Penalty>
0.00399586

> <i_epik_Tot_Q>
0

> <i_epik_Tot_abs_Q>
0

> <r_epik_Metal_State_Penalty>
-0

> <b_epik_Metal_Only>
0

> <s_lp_Force_Field>
OPLS_2005

> <r_lp_Energy>
55.9706

> <b_lp_Chiralities_Consistent>
1

> <s_lp_Variant>
AV-unprocessed.smi:281-8

> <Gold.Version>
5.8.1

> <Gold.Id.Protein>
6NUR|6NUR_protein|mol2

> <Gold.PLP.Fitness>
43.0163

> <Gold.PLP.PLP>
-29.5170

> <Gold.PLP.part.hbond>
-3.0000

> <Gold.PLP.part.metal>
0.0000

> <Gold.PLP.part.buried>
-3.0463

> <Gold.PLP.part.nonpolar>
-25.2195

> <Gold.PLP.part.repulsive>
0.8387

> <Gold.PLP.ligand.clash>
0.0000

> <Gold.PLP.ligand.torsion>
0.3371

> <Gold.PLP.Chemscore.Hbond>
2.0000

> <Gold.PLP.Chemscore.CHOScore>
2.6789

> <Gold.PLP.Chemscore.Metal>
0.0000

> <Gold.Chemscore.Hbonds>
donor molecule, donor type, donor heavy atom, donor atom, acceptor molecule, acceptor atom, score
      L1  H    16    39       P1 10186  0.76
      P1  H  7989  7998       L1    25  0.91
      L1  C     7    35       P1 10171  0.96
      L1  C     7    35       P1 10175  0.51
      L1  C    12    36       P1 10957  1.00

> <Gold.PLP.Chemscore.Internal.Correction>
0.1367

> <Gold.Rescore>
     Score         DG    S(hbond)    S(metal)    S(lipo)     H(rot)  DE(clash)    DE(int)     intcor
     14.91     -15.33       1.96        0.00      73.92       2.09       0.19       0.23       ----

> <Gold.Chemscore.Fitness>
14.9112

> <Gold.Chemscore.DG>
-15.3317

> <Gold.Chemscore.ZeroCoef>
-5.4800

> <Gold.Chemscore.Hbond>
1.9643

> <Gold.Chemscore.Metal>
0.0000

> <Gold.Chemscore.Lipo>
73.9187

> <Gold.Chemscore.Internal_Hbond>
0.0000

> <Gold.Chemscore.DEClash>
0.1857

> <Gold.Chemscore.DEInternal>
0.2349

> <Gold.Chemscore.Rot>
2.0927

> <Gold.Chemscore.Internal.Correction>
   9.000000E+99

> <Gold.Chemscore.Hbonds>
donor molecule, donor type, donor heavy atom, donor atom, acceptor molecule, acceptor atom, score
      L1  H    16    39       P1 10186  0.77
      P1  H  7989  7998       L1    25  0.34

> <Gold.Chemscore.Hbond.Weighted>
-6.5606

> <Gold.Chemscore.Metal.Weighted>
-0.0000

> <Gold.Chemscore.Lipo.Weighted>
-8.6485

> <Gold.Chemscore.Internal_Hbond.Weighted>
0.0000

> <Gold.Chemscore.DEClash.Weighted>
0.1857

> <Gold.Chemscore.DEInternal.Weighted>
0.2349

> <Gold.Chemscore.Rot.Weighted>
5.3573

> <Gold.Chemscore.Internal.Correction.Weighted>
   9.000000E+99

> <Gold.Protein.RotatedTorsions>
[ 6907 6896 6895 6894 ] final    4.16 input  -60.11 | X-H torsion
[ 7974 7965 7964 7962 ] final -127.03 input  175.53 | X-H torsion
[ 8008 7997 7996 7995 ] final   66.87 input   59.86 | X-H torsion
[ 10167 10162 10161 10158 ] final  175.78 input  -65.29 | X-H torsion
[ 10718 10713 10712 10709 ] final  -74.44 input   66.30 | X-H torsion
[ 10763 10752 10751 10750 ] final    5.47 input  -60.55 | X-H torsion
[ 11005 11000 10999 10996 ] final  -33.39 input  -57.11 | X-H torsion

> <Gold.Protein.ActiveResidues>
 VAL166  LYS551  ARG553  GLY616  TRP617  ASP618  TYR619  PRO620  LYS621  CYS622 
 ASP623  PHE694  ASN695  SER759  ASP760  ASP761  ALA762  ILE779  LEU786  VAL792 
 PHE793  MET794  SER795  GLU796  ALA797  LYS798  CYS799  TRP800  GLU811  SER814 

> <Gold.Protein.RotatedAtoms>
  151.6368  135.1017  160.0132 H   0  0  0  0  0  0  0  0  0  0  0  0  # atno 6907 bound_to 6896
  152.4076  133.6909  159.6378 H   0  0  0  0  0  0  0  0  0  0  0  0  # atno 6908 bound_to 6896
  150.7969  133.8599  159.3270 H   0  0  0  0  0  0  0  0  0  0  0  0  # atno 6909 bound_to 6896
  144.9813  140.7642  143.4611 H   0  0  0  0  0  0  0  0  0  0  0  0  # atno 7974 bound_to 7965
  155.6841  140.3496  155.4867 H   0  0  0  0  0  0  0  0  0  0  0  0  # atno 8008 bound_to 7997
  155.9581  140.1132  157.0942 H   0  0  0  0  0  0  0  0  0  0  0  0  # atno 8009 bound_to 7997
  154.4137  140.1181  156.5129 H   0  0  0  0  0  0  0  0  0  0  0  0  # atno 8010 bound_to 7997
  139.5190  144.2991  152.0394 H   0  0  0  0  0  0  0  0  0  0  0  0  # atno 10167 bound_to 10162
  156.0242  130.4417  150.2893 H   0  0  0  0  0  0  0  0  0  0  0  0  # atno 10718 bound_to 10713
  153.2591  135.6921  153.7598 H   0  0  0  0  0  0  0  0  0  0  0  0  # atno 10763 bound_to 10752
  153.6664  135.3352  155.3142 H   0  0  0  0  0  0  0  0  0  0  0  0  # atno 10764 bound_to 10752
  154.8423  135.4489  154.1575 H   0  0  0  0  0  0  0  0  0  0  0  0  # atno 10765 bound_to 10752
  140.9631  133.7153  156.1401 H   0  0  0  0  0  0  0  0  0  0  0  0  # atno 11005 bound_to 11000
  145.2417  139.2069  143.4989 LP  0  0  0  0  0  0  0  0  0  0  0  0  # atno 17320 bound_to 7965
  146.3408  140.2314  142.8593 LP  0  0  0  0  0  0  0  0  0  0  0  0  # atno 17321 bound_to 7965
  140.2440  144.4240  150.6248 LP  0  0  0  0  0  0  0  0  0  0  0  0  # atno 17342 bound_to 10162
  140.6271  143.2182  151.6573 LP  0  0  0  0  0  0  0  0  0  0  0  0  # atno 17343 bound_to 10162
  157.0996  131.0192  151.3090 LP  0  0  0  0  0  0  0  0  0  0  0  0  # atno 17370 bound_to 10713
  157.4790  130.7754  149.7396 LP  0  0  0  0  0  0  0  0  0  0  0  0  # atno 17371 bound_to 10713
  140.7439  134.4120  157.5551 LP  0  0  0  0  0  0  0  0  0  0  0  0  # atno 17394 bound_to 11000
  139.8885  134.8855  156.2471 LP  0  0  0  0  0  0  0  0  0  0  0  0  # atno 17395 bound_to 11000

$$$$
