AV-unprocessed.smi:3172|AV-procd|sdf|12115|dock6
  -GOLD-   2272017553D 1   1.00000     0.00000
 Structure written by MMmdl.
 43 44  0  0  0  0  0  0  0  0  2 V2000
  154.1630  142.3651  161.3470 C   0  0  0  0  0  0  0  0  0  0  0  0
  153.1934  142.1372  160.2292 C   0  0  0  0  0  0  0  0  0  0  0  0
  153.0614  140.8862  159.6323 N   0  0  0  0  0  0  0  0  0  0  0  0
  152.1301  141.0729  158.7088 C   0  0  0  0  0  0  0  0  0  0  0  0
  151.6563  142.3249  158.6402 N   0  0  0  0  0  0  0  0  0  0  0  0
  150.6575  142.8185  157.7052 C   0  0  0  0  0  0  0  0  0  0  0  0
  150.1874  141.7208  156.7324 C   0  0  2  0  0  0  0  0  0  0  0  0
  151.3255  141.2627  155.8098 C   0  0  0  0  0  0  0  0  0  0  0  0
  149.0420  142.2057  155.9275 N   0  3  0  0  0  0  0  0  0  0  0  0
  148.6851  141.3750  154.7571 C   0  0  0  0  0  0  0  0  0  0  0  0
  147.2998  141.7893  154.2262 C   0  0  0  0  0  0  0  0  0  0  0  0
  146.8719  140.9219  153.0313 C   0  0  0  0  0  0  0  0  0  0  0  0
  146.8843  139.4294  153.3961 C   0  0  0  0  0  0  0  0  0  0  0  0
  148.2587  139.0022  153.9331 C   0  0  0  0  0  0  0  0  0  0  0  0
  148.6890  139.8743  155.1234 C   0  0  0  0  0  0  0  0  0  0  0  0
  152.3292  143.0327  159.6352 C   0  0  0  0  0  0  0  0  0  0  0  0
  152.1018  144.4820  159.9254 C   0  0  0  0  0  0  0  0  0  0  0  0
  153.6599  142.3360  162.3137 H   0  0  0  0  0  0  0  0  0  0  0  0
  154.6496  143.3363  161.2563 H   0  0  0  0  0  0  0  0  0  0  0  0
  154.9462  141.6066  161.3582 H   0  0  0  0  0  0  0  0  0  0  0  0
  151.7940  140.2807  158.0557 H   0  0  0  0  0  0  0  0  0  0  0  0
  149.8131  143.2171  158.2701 H   0  0  0  0  0  0  0  0  0  0  0  0
  151.0845  143.6586  157.1570 H   0  0  0  0  0  0  0  0  0  0  0  0
  149.8764  140.8608  157.3249 H   0  0  0  0  0  0  0  0  0  0  0  0
  152.1683  140.8823  156.3875 H   0  0  0  0  0  0  0  0  0  0  0  0
  151.6905  142.0833  155.1913 H   0  0  0  0  0  0  0  0  0  0  0  0
  150.9986  140.4635  155.1439 H   0  0  0  0  0  0  0  0  0  0  0  0
  148.2276  142.2505  156.5234 H   0  0  0  0  0  0  0  0  0  0  0  0
  149.4162  141.5569  153.9677 H   0  0  0  0  0  0  0  0  0  0  0  0
  146.5566  141.7018  155.0202 H   0  0  0  0  0  0  0  0  0  0  0  0
  147.3118  142.8385  153.9284 H   0  0  0  0  0  0  0  0  0  0  0  0
  145.8758  141.2139  152.6972 H   0  0  0  0  0  0  0  0  0  0  0  0
  147.5441  141.0987  152.1905 H   0  0  0  0  0  0  0  0  0  0  0  0
  146.1197  139.2303  154.1481 H   0  0  0  0  0  0  0  0  0  0  0  0
  146.6229  138.8301  152.5236 H   0  0  0  0  0  0  0  0  0  0  0  0
  148.2302  137.9538  154.2320 H   0  0  0  0  0  0  0  0  0  0  0  0
  149.0015  139.0767  153.1380 H   0  0  0  0  0  0  0  0  0  0  0  0
  149.6773  139.5580  155.4566 H   0  0  0  0  0  0  0  0  0  0  0  0
  148.0148  139.6983  155.9631 H   0  0  0  0  0  0  0  0  0  0  0  0
  152.4924  144.7490  160.9073 H   0  0  0  0  0  0  0  0  0  0  0  0
  151.0399  144.7265  159.9187 H   0  0  0  0  0  0  0  0  0  0  0  0
  152.6015  145.1090  159.1876 H   0  0  0  0  0  0  0  0  0  0  0  0
  149.2580  143.1410  155.6131 H   0  0  0  0  0  0  0  0  0  0  0  0
  1  2  1  0  0  0  0
  1 18  1  0  0  0  0
  1 19  1  0  0  0  0
  1 20  1  0  0  0  0
  2 16  2  0  0  0  0
  2  3  1  0  0  0  0
  3  4  2  0  0  0  0
  4  5  1  0  0  0  0
  4 21  1  0  0  0  0
  5  6  1  0  0  0  0
  5 16  1  0  0  0  0
  6  7  1  0  0  0  0
  6 22  1  0  0  0  0
  6 23  1  0  0  0  0
  7  8  1  0  0  0  0
  7  9  1  0  0  0  0
  7 24  1  0  0  0  0
  8 25  1  0  0  0  0
  8 26  1  0  0  0  0
  8 27  1  0  0  0  0
  9 10  1  0  0  0  0
  9 28  1  0  0  0  0
  9 43  1  0  0  0  0
 10 15  1  0  0  0  0
 10 11  1  0  0  0  0
 10 29  1  0  0  0  0
 11 12  1  0  0  0  0
 11 30  1  0  0  0  0
 11 31  1  0  0  0  0
 12 13  1  0  0  0  0
 12 32  1  0  0  0  0
 12 33  1  0  0  0  0
 13 14  1  0  0  0  0
 13 34  1  0  0  0  0
 13 35  1  0  0  0  0
 14 15  1  0  0  0  0
 14 36  1  0  0  0  0
 14 37  1  0  0  0  0
 15 38  1  0  0  0  0
 15 39  1  0  0  0  0
 16 17  1  0  0  0  0
 17 40  1  0  0  0  0
 17 41  1  0  0  0  0
 17 42  1  0  0  0  0
M  CHG  1   9   1
M  END
> <s_m_source_file>
AV-unprocessed.smi

> <i_m_source_file_index>
3172

> <i_lp_mmshare_version>
43012

> <i_f3d_flags>
0

> <s_epik_input>
W0NIM11jMW5bY0hdbihjMVtDSDNdKVtDSDJdW0NASF0oW0NIM10pW05IXVtDSF0yW0NIMl1bQ0gyXVtDSDJdW0NIMl1bQ0gyXTI=

> <s_epik_cmdline>
J2VwaWtfcHl0aG9uJywgJy1waCcsICc3LjAnLCAnLXRuJywgJzgnLCAnLW1hJywgJzIwMCcsICctbWV0YWxfYmluZGluZycsICctaW1hZScsICc8aW5maWxlLm1hZT4nLCAnLW9tYWUnLCAnPG91dGZpbGUubWFlPic=

> <r_lp_tautomer_probability>
1

> <r_epik_Ionization_Penalty>
0.328572

> <r_epik_Ionization_Penalty_Charging>
0.328572

> <r_epik_Ionization_Penalty_Neutral>
3.58496e-13

> <r_epik_State_Penalty>
0.596179

> <r_epik_Charging_Adjusted_Penalty>
0.924751

> <i_epik_Tot_Q>
1

> <i_epik_Tot_abs_Q>
1

> <r_epik_Metal_State_Penalty>
0.00102252

> <b_epik_Metal_Only>
0

> <s_lp_Force_Field>
OPLS_2005

> <r_lp_Energy>
15.8324

> <b_lp_Chiralities_Consistent>
1

> <s_lp_Variant>
AV-unprocessed.smi:3172-3

> <Gold.Version>
5.8.1

> <Gold.Id.Protein>
6NUR|6NUR_protein|mol2

> <Gold.PLP.Fitness>
43.0349

> <Gold.PLP.PLP>
-37.4827

> <Gold.PLP.part.hbond>
-1.0000

> <Gold.PLP.part.metal>
0.0000

> <Gold.PLP.part.buried>
-2.9778

> <Gold.PLP.part.nonpolar>
-31.4630

> <Gold.PLP.part.repulsive>
0.0966

> <Gold.PLP.ligand.clash>
0.0000

> <Gold.PLP.ligand.torsion>
0.2394

> <Gold.PLP.Chemscore.Hbond>
2.0000

> <Gold.PLP.Chemscore.CHOScore>
0.0000

> <Gold.PLP.Chemscore.Metal>
0.0000

> <Gold.Chemscore.Hbonds>
donor molecule, donor type, donor heavy atom, donor atom, acceptor molecule, acceptor atom, score
      L1  H     9    43       P1  8028  1.92

> <Gold.PLP.Chemscore.Internal.Correction>
0.0311

> <Gold.Rescore>
     Score         DG    S(hbond)    S(metal)    S(lipo)     H(rot)  DE(clash)    DE(int)     intcor
     16.25     -16.61       0.99        0.00      99.54       1.50       0.12       0.23       ----

> <Gold.Chemscore.Fitness>
16.2520

> <Gold.Chemscore.DG>
-16.6051

> <Gold.Chemscore.ZeroCoef>
-5.4800

> <Gold.Chemscore.Hbond>
0.9936

> <Gold.Chemscore.Metal>
0.0000

> <Gold.Chemscore.Lipo>
99.5409

> <Gold.Chemscore.Internal_Hbond>
0.0000

> <Gold.Chemscore.DEClash>
0.1200

> <Gold.Chemscore.DEInternal>
0.2331

> <Gold.Chemscore.Rot>
1.4999

> <Gold.Chemscore.Internal.Correction>
   9.000000E+99

> <Gold.Chemscore.Hbonds>
donor molecule, donor type, donor heavy atom, donor atom, acceptor molecule, acceptor atom, score
      L1  H     9    43       P1  8028  0.91

> <Gold.Chemscore.Hbond.Weighted>
-3.3185

> <Gold.Chemscore.Metal.Weighted>
-0.0000

> <Gold.Chemscore.Lipo.Weighted>
-11.6463

> <Gold.Chemscore.Internal_Hbond.Weighted>
0.0000

> <Gold.Chemscore.DEClash.Weighted>
0.1200

> <Gold.Chemscore.DEInternal.Weighted>
0.2331

> <Gold.Chemscore.Rot.Weighted>
3.8397

> <Gold.Chemscore.Internal.Correction.Weighted>
   9.000000E+99

> <Gold.Protein.RotatedTorsions>
[ 6907 6896 6895 6894 ] final  141.02 input  -60.11 | X-H torsion
[ 7974 7965 7964 7962 ] final   55.56 input  175.53 | X-H torsion
[ 8008 7997 7996 7995 ] final  121.03 input   59.86 | X-H torsion
[ 10167 10162 10161 10158 ] final   90.48 input  -65.29 | X-H torsion
[ 10718 10713 10712 10709 ] final -123.69 input   66.30 | X-H torsion
[ 10763 10752 10751 10750 ] final -177.17 input  -60.55 | X-H torsion
[ 11005 11000 10999 10996 ] final    6.42 input  -57.11 | X-H torsion

> <Gold.Protein.ActiveResidues>
 VAL166  LYS551  ARG553  GLY616  TRP617  ASP618  TYR619  PRO620  LYS621  CYS622 
 ASP623  PHE694  ASN695  SER759  ASP760  ASP761  ALA762  ILE779  LEU786  VAL792 
 PHE793  MET794  SER795  GLU796  ALA797  LYS798  CYS799  TRP800  GLU811  SER814 

> <Gold.Protein.RotatedAtoms>
  152.2361  133.5097  159.5242 H   0  0  0  0  0  0  0  0  0  0  0  0  # atno 6907 bound_to 6896
  150.7051  134.1152  159.4023 H   0  0  0  0  0  0  0  0  0  0  0  0  # atno 6908 bound_to 6896
  151.9073  135.0353  160.0562 H   0  0  0  0  0  0  0  0  0  0  0  0  # atno 6909 bound_to 6896
  145.9490  139.3956  143.0317 H   0  0  0  0  0  0  0  0  0  0  0  0  # atno 7974 bound_to 7965
  156.2669  140.2817  156.1243 H   0  0  0  0  0  0  0  0  0  0  0  0  # atno 8008 bound_to 7997
  155.1122  140.0391  157.2744 H   0  0  0  0  0  0  0  0  0  0  0  0  # atno 8009 bound_to 7997
  154.6734  140.2593  155.6989 H   0  0  0  0  0  0  0  0  0  0  0  0  # atno 8010 bound_to 7997
  139.8469  144.6613  150.9216 H   0  0  0  0  0  0  0  0  0  0  0  0  # atno 10167 bound_to 10162
  156.1524  130.6544  150.9932 H   0  0  0  0  0  0  0  0  0  0  0  0  # atno 10718 bound_to 10713
  154.5634  135.2822  155.0898 H   0  0  0  0  0  0  0  0  0  0  0  0  # atno 10763 bound_to 10752
  154.2298  135.6376  153.5175 H   0  0  0  0  0  0  0  0  0  0  0  0  # atno 10764 bound_to 10752
  153.0035  135.5534  154.6235 H   0  0  0  0  0  0  0  0  0  0  0  0  # atno 10765 bound_to 10752
  140.5597  134.0204  155.7967 H   0  0  0  0  0  0  0  0  0  0  0  0  # atno 11005 bound_to 11000
  145.8196  140.9685  143.0906 LP  0  0  0  0  0  0  0  0  0  0  0  0  # atno 17320 bound_to 7965
  144.6792  140.0025  143.7484 LP  0  0  0  0  0  0  0  0  0  0  0  0  # atno 17321 bound_to 7965
  140.7792  143.3862  151.1390 LP  0  0  0  0  0  0  0  0  0  0  0  0  # atno 17342 bound_to 10162
  139.7503  143.8789  152.3075 LP  0  0  0  0  0  0  0  0  0  0  0  0  # atno 17343 bound_to 10162
  157.6667  131.0870  150.7710 LP  0  0  0  0  0  0  0  0  0  0  0  0  # atno 17370 bound_to 10713
  156.7777  130.4849  149.5406 LP  0  0  0  0  0  0  0  0  0  0  0  0  # atno 17371 bound_to 10713
  141.1122  133.9598  157.2889 LP  0  0  0  0  0  0  0  0  0  0  0  0  # atno 17394 bound_to 11000
  139.9414  135.0190  156.8719 LP  0  0  0  0  0  0  0  0  0  0  0  0  # atno 17395 bound_to 11000

$$$$
