AV-unprocessed.smi:2604|AV-procd|sdf|10191|dock1
  -GOLD-   2272014203D 1   1.00000     0.00000
 Structure written by MMmdl.
 26 27  0  0  0  0  0  0  0  0  2 V2000
  141.7739  137.3809  153.5034 C   0  0  0  0  0  0  0  0  0  0  0  0
  140.6905  136.6480  154.0266 C   0  0  0  0  0  0  0  0  0  0  0  0
  140.6135  135.3012  153.9709 N   0  0  0  0  0  0  0  0  0  0  0  0
  141.6294  134.6321  153.3855 C   0  0  0  0  0  0  0  0  0  0  0  0
  142.7626  135.2661  152.8299 C   0  0  0  0  0  0  0  0  0  0  0  0
  143.8632  134.4452  152.1757 C   0  0  2  0  0  0  0  0  0  0  0  0
  144.2268  134.9453  150.7585 C   0  0  0  0  0  0  0  0  0  0  0  0
  145.3115  134.1382  150.2083 N   0  0  0  0  0  0  0  0  0  0  0  0
  144.8600  132.7548  150.0929 C   0  0  0  0  0  0  0  0  0  0  0  0
  144.5228  132.1982  151.4890 C   0  0  0  0  0  0  0  0  0  0  0  0
  143.4724  133.0199  152.1239 N   0  3  0  0  0  0  0  0  0  0  0  0
  142.8291  136.6755  152.8940 C   0  0  0  0  0  0  0  0  0  0  0  0
  141.7928  138.4589  153.5668 H   0  0  0  0  0  0  0  0  0  0  0  0
  139.8628  137.1566  154.4986 H   0  0  0  0  0  0  0  0  0  0  0  0
  141.5302  133.5569  153.3575 H   0  0  0  0  0  0  0  0  0  0  0  0
  144.7526  134.5193  152.8045 H   0  0  0  0  0  0  0  0  0  0  0  0
  143.3690  134.9066  150.0860 H   0  0  0  0  0  0  0  0  0  0  0  0
  144.5535  135.9849  150.8013 H   0  0  0  0  0  0  0  0  0  0  0  0
  145.5649  134.4896  149.2950 H   0  0  0  0  0  0  0  0  0  0  0  0
  143.9949  132.6977  149.4305 H   0  0  0  0  0  0  0  0  0  0  0  0
  145.6527  132.1620  149.6359 H   0  0  0  0  0  0  0  0  0  0  0  0
  144.1722  131.1688  151.4130 H   0  0  0  0  0  0  0  0  0  0  0  0
  145.4106  132.1880  152.1233 H   0  0  0  0  0  0  0  0  0  0  0  0
  143.3020  132.6833  153.0606 H   0  0  0  0  0  0  0  0  0  0  0  0
  143.6680  137.2136  152.4780 H   0  0  0  0  0  0  0  0  0  0  0  0
  142.6243  132.9362  151.5821 H   0  0  0  0  0  0  0  0  0  0  0  0
  1 12  1  0  0  0  0
  1  2  2  0  0  0  0
  1 13  1  0  0  0  0
  2  3  1  0  0  0  0
  2 14  1  0  0  0  0
  3  4  2  0  0  0  0
  4  5  1  0  0  0  0
  4 15  1  0  0  0  0
  5  6  1  0  0  0  0
  5 12  2  0  0  0  0
  6 11  1  0  0  0  0
  6  7  1  0  0  0  0
  6 16  1  0  0  0  0
  7  8  1  0  0  0  0
  7 17  1  0  0  0  0
  7 18  1  0  0  0  0
  8  9  1  0  0  0  0
  8 19  1  0  0  0  0
  9 10  1  0  0  0  0
  9 20  1  0  0  0  0
  9 21  1  0  0  0  0
 10 11  1  0  0  0  0
 10 22  1  0  0  0  0
 10 23  1  0  0  0  0
 11 24  1  0  0  0  0
 11 26  1  0  0  0  0
 12 25  1  0  0  0  0
M  CHG  1  11   1
M  END
> <s_m_source_file>
AV-unprocessed.smi

> <i_m_source_file_index>
2604

> <i_lp_mmshare_version>
43012

> <i_f3d_flags>
0

> <s_epik_input>
W2NIXTFbY0hdW2NIXW5bY0hdYzFbQ0BASF0yW0NIMl1bTkhdW0NIMl1bQ0gyXVtOSF0y

> <s_epik_cmdline>
J2VwaWtfcHl0aG9uJywgJy1waCcsICc3LjAnLCAnLXRuJywgJzgnLCAnLW1hJywgJzIwMCcsICctbWV0YWxfYmluZGluZycsICctaW1hZScsICc8aW5maWxlLm1hZT4nLCAnLW9tYWUnLCAnPG91dGZpbGUubWFlPic=

> <r_epik_Ionization_Penalty>
0.0278512

> <r_epik_Ionization_Penalty_Charging>
0.015072

> <r_epik_Ionization_Penalty_Neutral>
0.0127792

> <r_epik_State_Penalty>
0.548815

> <r_epik_Charging_Adjusted_Penalty>
0.563887

> <i_epik_Tot_Q>
1

> <i_epik_Tot_abs_Q>
1

> <r_epik_Metal_State_Penalty>
0.542887

> <b_epik_Metal_Only>
0

> <s_lp_Force_Field>
OPLS_2005

> <r_lp_Energy>
7.72855

> <b_lp_Chiralities_Consistent>
1

> <s_lp_Variant>
AV-unprocessed.smi:2604-3

> <Gold.Version>
5.8.1

> <Gold.Id.Protein>
6NUR|6NUR_protein|mol2

> <Gold.PLP.Fitness>
40.6585

> <Gold.PLP.PLP>
-25.9200

> <Gold.PLP.part.hbond>
-3.3530

> <Gold.PLP.part.metal>
0.0000

> <Gold.PLP.part.buried>
-6.5005

> <Gold.PLP.part.nonpolar>
-17.8361

> <Gold.PLP.part.repulsive>
0.1669

> <Gold.PLP.ligand.clash>
0.0000

> <Gold.PLP.ligand.torsion>
0.1106

> <Gold.PLP.Chemscore.Hbond>
3.9825

> <Gold.PLP.Chemscore.CHOScore>
1.0000

> <Gold.PLP.Chemscore.Metal>
0.0000

> <Gold.Chemscore.Hbonds>
donor molecule, donor type, donor heavy atom, donor atom, acceptor molecule, acceptor atom, score
      L1  H     8    19       P1  7921  1.00
      L1  H    11    24       P1 10957  1.98
      P1  H 11000 11005       L1     3  1.00
      L1  C     4    15       P1 10957  1.00

> <Gold.PLP.Chemscore.Internal.Correction>
0.0121

> <Gold.Rescore>
     Score         DG    S(hbond)    S(metal)    S(lipo)     H(rot)  DE(clash)    DE(int)     intcor
     15.33     -15.41       1.88        0.00      53.05       1.00       0.00       0.09       ----

> <Gold.Chemscore.Fitness>
15.3263

> <Gold.Chemscore.DG>
-15.4114

> <Gold.Chemscore.ZeroCoef>
-5.4800

> <Gold.Chemscore.Hbond>
1.8816

> <Gold.Chemscore.Metal>
0.0000

> <Gold.Chemscore.Lipo>
53.0497

> <Gold.Chemscore.Internal_Hbond>
0.0000

> <Gold.Chemscore.DEClash>
0.0000

> <Gold.Chemscore.DEInternal>
0.0851

> <Gold.Chemscore.Rot>
1.0000

> <Gold.Chemscore.Internal.Correction>
   9.000000E+99

> <Gold.Chemscore.Hbonds>
donor molecule, donor type, donor heavy atom, donor atom, acceptor molecule, acceptor atom, score
      L1  H     8    19       P1  7921  0.94
      L1  H    11    24       P1 10957  0.24
      P1  H 11000 11005       L1     3  0.51

> <Gold.Chemscore.Hbond.Weighted>
-6.2846

> <Gold.Chemscore.Metal.Weighted>
-0.0000

> <Gold.Chemscore.Lipo.Weighted>
-6.2068

> <Gold.Chemscore.Internal_Hbond.Weighted>
0.0000

> <Gold.Chemscore.DEClash.Weighted>
0.0000

> <Gold.Chemscore.DEInternal.Weighted>
0.0851

> <Gold.Chemscore.Rot.Weighted>
2.5600

> <Gold.Chemscore.Internal.Correction.Weighted>
   9.000000E+99

> <Gold.Protein.RotatedTorsions>
[ 6907 6896 6895 6894 ] final   58.22 input  -60.11 | X-H torsion
[ 7974 7965 7964 7962 ] final  136.36 input  175.53 | X-H torsion
[ 8008 7997 7996 7995 ] final  163.03 input   59.86 | X-H torsion
[ 10167 10162 10161 10158 ] final  132.00 input  -65.29 | X-H torsion
[ 10718 10713 10712 10709 ] final  -59.43 input   66.30 | X-H torsion
[ 10763 10752 10751 10750 ] final  165.83 input  -60.55 | X-H torsion
[ 11005 11000 10999 10996 ] final   36.81 input  -57.11 | X-H torsion

> <Gold.Protein.ActiveResidues>
 VAL166  LYS551  ARG553  GLY616  TRP617  ASP618  TYR619  PRO620  LYS621  CYS622 
 ASP623  PHE694  ASN695  SER759  ASP760  ASP761  ALA762  ILE779  LEU786  VAL792 
 PHE793  MET794  SER795  GLU796  ALA797  LYS798  CYS799  TRP800  GLU811  SER814 

> <Gold.Protein.RotatedAtoms>
  152.3804  134.6599  160.0144 H   0  0  0  0  0  0  0  0  0  0  0  0  # atno 6907 bound_to 6896
  151.6865  133.3306  159.3240 H   0  0  0  0  0  0  0  0  0  0  0  0  # atno 6908 bound_to 6896
  150.7742  134.6672  159.6416 H   0  0  0  0  0  0  0  0  0  0  0  0  # atno 6909 bound_to 6896
  144.9572  139.4751  143.5497 H   0  0  0  0  0  0  0  0  0  0  0  0  # atno 7974 bound_to 7965
  156.1987  140.1734  156.7944 H   0  0  0  0  0  0  0  0  0  0  0  0  # atno 8008 bound_to 7997
  154.5563  140.0708  156.8780 H   0  0  0  0  0  0  0  0  0  0  0  0  # atno 8009 bound_to 7997
  155.2932  140.3356  155.4254 H   0  0  0  0  0  0  0  0  0  0  0  0  # atno 8010 bound_to 7997
  139.5359  144.6681  151.4789 H   0  0  0  0  0  0  0  0  0  0  0  0  # atno 10167 bound_to 10162
  156.1062  130.4180  150.0715 H   0  0  0  0  0  0  0  0  0  0  0  0  # atno 10718 bound_to 10713
  154.3299  135.2755  155.2477 H   0  0  0  0  0  0  0  0  0  0  0  0  # atno 10763 bound_to 10752
  154.4793  135.5862  153.6381 H   0  0  0  0  0  0  0  0  0  0  0  0  # atno 10764 bound_to 10752
  152.9867  135.6107  154.3491 H   0  0  0  0  0  0  0  0  0  0  0  0  # atno 10765 bound_to 10752
  140.2288  134.3552  155.7973 H   0  0  0  0  0  0  0  0  0  0  0  0  # atno 11005 bound_to 11000
  146.3341  139.8698  142.8842 LP  0  0  0  0  0  0  0  0  0  0  0  0  # atno 17320 bound_to 7965
  145.2754  141.0122  143.3748 LP  0  0  0  0  0  0  0  0  0  0  0  0  # atno 17321 bound_to 7965
  140.6564  143.8590  150.6840 LP  0  0  0  0  0  0  0  0  0  0  0  0  # atno 17342 bound_to 10162
  140.1970  143.3990  152.1820 LP  0  0  0  0  0  0  0  0  0  0  0  0  # atno 17343 bound_to 10162
  156.8690  130.9517  151.3611 LP  0  0  0  0  0  0  0  0  0  0  0  0  # atno 17370 bound_to 10713
  157.6239  130.8676  149.9155 LP  0  0  0  0  0  0  0  0  0  0  0  0  # atno 17371 bound_to 10713
  141.2219  133.7234  156.8697 LP  0  0  0  0  0  0  0  0  0  0  0  0  # atno 17394 bound_to 11000
  140.1772  134.9058  157.2905 LP  0  0  0  0  0  0  0  0  0  0  0  0  # atno 17395 bound_to 11000

$$$$
