AV-unprocessed.smi:203|AV-procd|sdf|1589|dock10
  -GOLD-   2262019483D 1   1.00000     0.00000
 Structure written by MMmdl.
 57 61  0  0  0  0  0  0  0  0  1 V2000
  146.4715  139.4836  158.1356 O   0  0  0  0  0  0  0  0  0  0  0  0
  147.3497  138.6288  158.2229 C   0  0  0  0  0  0  0  0  0  0  0  0
  147.1023  137.1466  158.0013 C   0  0  0  0  0  0  0  0  0  0  0  0
  148.4232  136.4864  158.4477 C   0  0  2  0  0  0  0  0  0  0  0  0
  148.3146  135.6445  159.7588 C   0  0  1  0  0  0  0  0  0  0  0  0
  147.6968  136.4446  160.9365 C   0  0  0  0  0  0  0  0  0  0  0  0
  147.5977  135.5966  162.2111 C   0  0  0  0  0  0  0  0  0  0  0  0
  146.8044  134.3178  161.9240 C   0  0  0  0  0  0  0  0  0  0  0  0
  147.4435  133.5434  160.7643 C   0  0  0  0  0  0  0  0  0  0  0  0
  147.5767  134.3817  159.5728 N   0  0  0  0  0  0  0  0  0  0  0  0
  147.9386  133.6305  158.5087 C   0  0  0  0  0  0  0  0  0  0  0  0
  149.2092  133.1581  158.4871 N   0  0  0  0  0  0  0  0  0  0  0  0
  149.6203  132.3980  157.4675 C   0  0  0  0  0  0  0  0  0  0  0  0
  148.9366  132.0026  156.3910 N   0  0  0  0  0  0  0  0  0  0  0  0
  147.6609  132.4856  156.4078 C   0  0  0  0  0  0  0  0  0  0  0  0
  147.0830  133.3022  157.4195 C   0  0  0  0  0  0  0  0  0  0  0  0
  145.7645  133.5993  157.0950 N   0  0  0  0  0  0  0  0  0  0  0  0
  145.5748  132.9955  155.9536 C   0  0  0  0  0  0  0  0  0  0  0  0
  146.6607  132.3028  155.4691 N   0  0  0  0  0  0  0  0  0  0  0  0
  146.7247  131.5489  154.2298 C   0  0  0  0  0  0  0  0  0  0  0  0
  146.7816  132.4646  152.9880 C   0  0  1  0  0  0  0  0  0  0  0  0
  148.1193  132.6654  152.5774 O   0  0  0  0  0  0  0  0  0  0  0  0
  145.9687  131.9527  151.7806 C   0  0  2  0  0  0  0  0  0  0  0  0
  145.9334  132.9142  150.5885 C   0  0  0  0  0  0  0  0  0  0  0  0
  144.5946  132.6318  149.9203 C   0  0  0  0  0  0  0  0  0  0  0  0
  143.8985  131.6539  150.8676 C   0  0  0  0  0  0  0  0  0  0  0  0
  144.5932  131.7957  152.0962 O   0  0  0  0  0  0  0  0  0  0  0  0
  149.4342  137.6489  158.5476 C   0  0  0  0  0  0  0  0  0  0  0  0
  148.6287  138.8541  158.5161 N   0  0  0  0  0  0  0  0  0  0  0  0
  146.2336  136.7998  158.5613 H   0  0  0  0  0  0  0  0  0  0  0  0
  146.9134  136.9685  156.9422 H   0  0  0  0  0  0  0  0  0  0  0  0
  148.7762  135.8421  157.6420 H   0  0  0  0  0  0  0  0  0  0  0  0
  149.3290  135.3769  160.0563 H   0  0  0  0  0  0  0  0  0  0  0  0
  148.2851  137.3357  161.1524 H   0  0  0  0  0  0  0  0  0  0  0  0
  146.6989  136.7957  160.6738 H   0  0  0  0  0  0  0  0  0  0  0  0
  148.5973  135.3421  162.5654 H   0  0  0  0  0  0  0  0  0  0  0  0
  147.1179  136.1668  163.0068 H   0  0  0  0  0  0  0  0  0  0  0  0
  146.7645  133.6911  162.8153 H   0  0  0  0  0  0  0  0  0  0  0  0
  145.7738  134.5715  161.6726 H   0  0  0  0  0  0  0  0  0  0  0  0
  148.4268  133.1791  161.0649 H   0  0  0  0  0  0  0  0  0  0  0  0
  146.8360  132.6661  160.5361 H   0  0  0  0  0  0  0  0  0  0  0  0
  150.6435  132.0569  157.5225 H   0  0  0  0  0  0  0  0  0  0  0  0
  144.6316  133.0401  155.4285 H   0  0  0  0  0  0  0  0  0  0  0  0
  147.5962  130.8944  154.2688 H   0  0  0  0  0  0  0  0  0  0  0  0
  145.8516  130.8975  154.1860 H   0  0  0  0  0  0  0  0  0  0  0  0
  146.4020  133.4506  153.2586 H   0  0  0  0  0  0  0  0  0  0  0  0
  148.1947  132.4058  151.6716 H   0  0  0  0  0  0  0  0  0  0  0  0
  146.3636  130.9940  151.4372 H   0  0  0  0  0  0  0  0  0  0  0  0
  145.9618  133.9527  150.9189 H   0  0  0  0  0  0  0  0  0  0  0  0
  146.7778  132.7599  149.9161 H   0  0  0  0  0  0  0  0  0  0  0  0
  144.0210  133.5539  149.8209 H   0  0  0  0  0  0  0  0  0  0  0  0
  144.7127  132.2014  148.9253 H   0  0  0  0  0  0  0  0  0  0  0  0
  142.8353  131.8651  150.9836 H   0  0  0  0  0  0  0  0  0  0  0  0
  144.0064  130.6283  150.5107 H   0  0  0  0  0  0  0  0  0  0  0  0
  150.0539  137.6072  159.4433 H   0  0  0  0  0  0  0  0  0  0  0  0
  150.1033  137.6549  157.6862 H   0  0  0  0  0  0  0  0  0  0  0  0
  149.0130  139.7699  158.6998 H   0  0  0  0  0  0  0  0  0  0  0  0
  1  2  2  0  0  0  0
  2 29  1  0  0  0  0
  2  3  1  0  0  0  0
  3  4  1  0  0  0  0
  3 30  1  0  0  0  0
  3 31  1  0  0  0  0
  4  5  1  0  0  0  0
  4 28  1  0  0  0  0
  4 32  1  0  0  0  0
  5 10  1  0  0  0  0
  5  6  1  0  0  0  0
  5 33  1  0  0  0  0
  6  7  1  0  0  0  0
  6 34  1  0  0  0  0
  6 35  1  0  0  0  0
  7  8  1  0  0  0  0
  7 36  1  0  0  0  0
  7 37  1  0  0  0  0
  8  9  1  0  0  0  0
  8 38  1  0  0  0  0
  8 39  1  0  0  0  0
  9 10  1  0  0  0  0
  9 40  1  0  0  0  0
  9 41  1  0  0  0  0
 10 11  1  0  0  0  0
 11 16  1  0  0  0  0
 11 12  2  0  0  0  0
 12 13  1  0  0  0  0
 13 14  2  0  0  0  0
 13 42  1  0  0  0  0
 14 15  1  0  0  0  0
 15 19  1  0  0  0  0
 15 16  2  0  0  0  0
 16 17  1  0  0  0  0
 17 18  2  0  0  0  0
 18 19  1  0  0  0  0
 18 43  1  0  0  0  0
 19 20  1  0  0  0  0
 20 21  1  0  0  0  0
 20 44  1  0  0  0  0
 20 45  1  0  0  0  0
 21 22  1  0  0  0  0
 21 23  1  0  0  0  0
 21 46  1  0  0  0  0
 22 47  1  0  0  0  0
 23 27  1  0  0  0  0
 23 24  1  0  0  0  0
 23 48  1  0  0  0  0
 24 25  1  0  0  0  0
 24 49  1  0  0  0  0
 24 50  1  0  0  0  0
 25 26  1  0  0  0  0
 25 51  1  0  0  0  0
 25 52  1  0  0  0  0
 26 27  1  0  0  0  0
 26 53  1  0  0  0  0
 26 54  1  0  0  0  0
 28 29  1  0  0  0  0
 28 55  1  0  0  0  0
 28 56  1  0  0  0  0
 29 57  1  0  0  0  0
M  END
> <s_m_source_file>
AV-unprocessed.smi

> <i_m_source_file_index>
203

> <i_lp_mmshare_version>
43012

> <i_f3d_flags>
0

> <s_epik_input>
Tz1DMVtDSDJdW0NASF0oW0NIMl1bTkhdMSlbQ0BASF0yW0NIMl1bQ0gyXVtDSDJdW0NIMl1OMmMobltjSF1uMyljKGMzNCluW2NIXW40W0NIMl1bQ0BIXShbT0hdKVtDQEBIXTVbQ0gyXVtDSDJdW0NIMl1PNQ==

> <s_epik_cmdline>
J2VwaWtfcHl0aG9uJywgJy1waCcsICc3LjAnLCAnLXRuJywgJzgnLCAnLW1hJywgJzIwMCcsICctbWV0YWxfYmluZGluZycsICctaW1hZScsICc8aW5maWxlLm1hZT4nLCAnLW9tYWUnLCAnPG91dGZpbGUubWFlPic=

> <r_lp_tautomer_probability>
1

> <r_epik_Ionization_Penalty>
0.00175146

> <r_epik_Ionization_Penalty_Charging>
0

> <r_epik_Ionization_Penalty_Neutral>
0.00175146

> <r_epik_State_Penalty>
0.00109045

> <r_epik_Charging_Adjusted_Penalty>
0.00109045

> <i_epik_Tot_Q>
0

> <i_epik_Tot_abs_Q>
0

> <r_epik_Metal_State_Penalty>
-0

> <b_epik_Metal_Only>
0

> <s_lp_Force_Field>
OPLS_2005

> <r_lp_Energy>
57.3309

> <b_lp_Chiralities_Consistent>
1

> <s_lp_Variant>
AV-unprocessed.smi:203-8

> <Gold.Version>
5.8.1

> <Gold.Id.Protein>
6NUR|6NUR_protein|mol2

> <Gold.PLP.Fitness>
41.9404

> <Gold.PLP.PLP>
-34.6827

> <Gold.PLP.part.hbond>
-2.9270

> <Gold.PLP.part.metal>
0.0000

> <Gold.PLP.part.buried>
-5.8317

> <Gold.PLP.part.nonpolar>
-27.4587

> <Gold.PLP.part.repulsive>
0.3946

> <Gold.PLP.ligand.clash>
0.0000

> <Gold.PLP.ligand.torsion>
0.8999

> <Gold.PLP.Chemscore.Hbond>
2.0000

> <Gold.PLP.Chemscore.CHOScore>
0.9343

> <Gold.PLP.Chemscore.Metal>
0.0000

> <Gold.Chemscore.Hbonds>
donor molecule, donor type, donor heavy atom, donor atom, acceptor molecule, acceptor atom, score
      L1  H    22    47       P1 10747  0.48
      P1  H  6896  6908       L1    12  1.00
      L1  C    18    43       P1 10957  1.00

> <Gold.PLP.Chemscore.Internal.Correction>
0.2545

> <Gold.Rescore>
     Score         DG    S(hbond)    S(metal)    S(lipo)     H(rot)  DE(clash)    DE(int)     intcor
     14.24     -15.05       1.90        0.00      86.94       2.72       0.02       0.80       ----

> <Gold.Chemscore.Fitness>
14.2380

> <Gold.Chemscore.DG>
-15.0539

> <Gold.Chemscore.ZeroCoef>
-5.4800

> <Gold.Chemscore.Hbond>
1.9036

> <Gold.Chemscore.Metal>
0.0000

> <Gold.Chemscore.Lipo>
86.9378

> <Gold.Chemscore.Internal_Hbond>
0.0000

> <Gold.Chemscore.DEClash>
0.0189

> <Gold.Chemscore.DEInternal>
0.7971

> <Gold.Chemscore.Rot>
2.7171

> <Gold.Chemscore.Internal.Correction>
   9.000000E+99

> <Gold.Chemscore.Hbonds>
donor molecule, donor type, donor heavy atom, donor atom, acceptor molecule, acceptor atom, score
      L1  H    22    47       P1 10747  0.48
      P1  H  6896  6908       L1    12  0.55

> <Gold.Chemscore.Hbond.Weighted>
-6.3579

> <Gold.Chemscore.Metal.Weighted>
-0.0000

> <Gold.Chemscore.Lipo.Weighted>
-10.1717

> <Gold.Chemscore.Internal_Hbond.Weighted>
0.0000

> <Gold.Chemscore.DEClash.Weighted>
0.0189

> <Gold.Chemscore.DEInternal.Weighted>
0.7971

> <Gold.Chemscore.Rot.Weighted>
6.9557

> <Gold.Chemscore.Internal.Correction.Weighted>
   9.000000E+99

> <Gold.Protein.RotatedTorsions>
[ 6907 6896 6895 6894 ] final  121.85 input  -60.11 | X-H torsion
[ 7974 7965 7964 7962 ] final  -94.94 input  175.53 | X-H torsion
[ 8008 7997 7996 7995 ] final  108.23 input   59.86 | X-H torsion
[ 10167 10162 10161 10158 ] final  101.18 input  -65.29 | X-H torsion
[ 10718 10713 10712 10709 ] final  -29.32 input   66.30 | X-H torsion
[ 10763 10752 10751 10750 ] final  -41.51 input  -60.55 | X-H torsion
[ 11005 11000 10999 10996 ] final -117.84 input  -57.11 | X-H torsion

> <Gold.Protein.ActiveResidues>
 VAL166  LYS551  ARG553  GLY616  TRP617  ASP618  TYR619  PRO620  LYS621  CYS622 
 ASP623  PHE694  ASN695  SER759  ASP760  ASP761  ALA762  ILE779  LEU786  VAL792 
 PHE793  MET794  SER795  GLU796  ALA797  LYS798  CYS799  TRP800  GLU811  SER814 

> <Gold.Protein.RotatedAtoms>
  152.4289  133.7244  159.6551 H   0  0  0  0  0  0  0  0  0  0  0  0  # atno 6907 bound_to 6896
  150.8167  133.8313  159.3163 H   0  0  0  0  0  0  0  0  0  0  0  0  # atno 6908 bound_to 6896
  151.6007  135.1049  160.0111 H   0  0  0  0  0  0  0  0  0  0  0  0  # atno 6909 bound_to 6896
  145.3666  140.9499  143.2470 H   0  0  0  0  0  0  0  0  0  0  0  0  # atno 7974 bound_to 7965
  156.1886  140.3080  155.9288 H   0  0  0  0  0  0  0  0  0  0  0  0  # atno 8008 bound_to 7997
  155.3224  140.0456  157.3057 H   0  0  0  0  0  0  0  0  0  0  0  0  # atno 8009 bound_to 7997
  154.5425  140.2266  155.8626 H   0  0  0  0  0  0  0  0  0  0  0  0  # atno 8010 bound_to 7997
  139.7461  144.6997  151.0502 H   0  0  0  0  0  0  0  0  0  0  0  0  # atno 10167 bound_to 10162
  156.4140  130.4413  149.7231 H   0  0  0  0  0  0  0  0  0  0  0  0  # atno 10718 bound_to 10713
  153.9636  135.6736  153.4745 H   0  0  0  0  0  0  0  0  0  0  0  0  # atno 10763 bound_to 10752
  153.0826  135.4915  154.8530 H   0  0  0  0  0  0  0  0  0  0  0  0  # atno 10764 bound_to 10752
  154.7258  135.3127  154.8933 H   0  0  0  0  0  0  0  0  0  0  0  0  # atno 10765 bound_to 10752
  141.0327  133.9957  157.3119 H   0  0  0  0  0  0  0  0  0  0  0  0  # atno 11005 bound_to 11000
  144.8607  139.5182  143.6813 LP  0  0  0  0  0  0  0  0  0  0  0  0  # atno 17320 bound_to 7965
  146.2904  139.7122  142.9165 LP  0  0  0  0  0  0  0  0  0  0  0  0  # atno 17321 bound_to 7965
  140.7792  143.4865  150.9948 LP  0  0  0  0  0  0  0  0  0  0  0  0  # atno 17342 bound_to 10162
  139.8553  143.7384  152.3176 LP  0  0  0  0  0  0  0  0  0  0  0  0  # atno 17343 bound_to 10162
  156.4199  130.7763  151.2780 LP  0  0  0  0  0  0  0  0  0  0  0  0  # atno 17370 bound_to 10713
  157.7507  131.0186  150.3633 LP  0  0  0  0  0  0  0  0  0  0  0  0  # atno 17371 bound_to 10713
  139.9219  135.0200  156.8094 LP  0  0  0  0  0  0  0  0  0  0  0  0  # atno 17394 bound_to 11000
  140.6378  133.9846  155.7693 LP  0  0  0  0  0  0  0  0  0  0  0  0  # atno 17395 bound_to 11000

$$$$
