AV-unprocessed.smi:2201|AV-procd|sdf|8928|dock8
  -GOLD-   2272012143D 1   1.00000     0.00000
 Structure written by MMmdl.
 30 30  0  0  0  0  0  0  0  0  2 V2000
  146.6046  135.2999  162.3552 C   0  0  0  0  0  0  0  0  0  0  0  0
  147.2686  134.7905  161.0545 C   0  0  0  0  0  0  0  0  0  0  0  0
  148.0956  133.5307  161.4008 C   0  0  0  0  0  0  0  0  0  0  0  0
  146.1484  134.4218  160.0551 C   0  0  0  0  0  0  0  0  0  0  0  0
  148.1861  135.8911  160.4506 C   0  0  0  0  0  0  0  0  0  0  0  0
  148.2245  137.0099  160.9687 O   0  0  0  0  0  0  0  0  0  0  0  0
  148.8729  135.4643  159.3598 N   0  5  0  0  0  0  0  0  0  0  0  0
  149.0915  136.3077  158.3396 C   0  0  0  0  0  0  0  0  0  0  0  0
  149.9204  136.0291  157.3278 N   0  0  0  0  0  0  0  0  0  0  0  0
  150.0055  137.0495  156.3758 C   0  0  0  0  0  0  0  0  0  0  0  0
  150.9064  136.8967  155.1822 C   0  0  0  0  0  0  0  0  0  0  0  0
  150.7850  138.0891  154.2262 C   0  0  0  0  0  0  0  0  0  0  0  0
  150.0471  137.9302  153.1229 N   0  0  0  0  0  0  0  0  0  0  0  0
  151.3728  139.1408  154.4703 O   0  0  0  0  0  0  0  0  0  0  0  0
  149.1996  138.1205  156.6651 C   0  0  0  0  0  0  0  0  0  0  0  0
  148.3233  137.8847  158.1499 S   0  0  0  0  0  0  0  0  0  0  0  0
  145.9566  134.5395  162.7920 H   0  0  0  0  0  0  0  0  0  0  0  0
  145.9880  136.1816  162.1750 H   0  0  0  0  0  0  0  0  0  0  0  0
  147.3472  135.5615  163.1105 H   0  0  0  0  0  0  0  0  0  0  0  0
  148.9365  133.7727  162.0522 H   0  0  0  0  0  0  0  0  0  0  0  0
  148.4977  133.0458  160.5104 H   0  0  0  0  0  0  0  0  0  0  0  0
  147.4857  132.7893  161.9175 H   0  0  0  0  0  0  0  0  0  0  0  0
  145.4447  133.7152  160.4960 H   0  0  0  0  0  0  0  0  0  0  0  0
  146.5419  133.9558  159.1509 H   0  0  0  0  0  0  0  0  0  0  0  0
  145.5798  135.3017  159.7519 H   0  0  0  0  0  0  0  0  0  0  0  0
  151.9445  136.7969  155.5022 H   0  0  0  0  0  0  0  0  0  0  0  0
  150.6662  135.9858  154.6330 H   0  0  0  0  0  0  0  0  0  0  0  0
  149.9692  138.6851  152.4568 H   0  0  0  0  0  0  0  0  0  0  0  0
  149.5943  137.0454  152.9462 H   0  0  0  0  0  0  0  0  0  0  0  0
  149.0702  139.0309  156.0998 H   0  0  0  0  0  0  0  0  0  0  0  0
  1  2  1  0  0  0  0
  1 17  1  0  0  0  0
  1 18  1  0  0  0  0
  1 19  1  0  0  0  0
  2  3  1  0  0  0  0
  2  4  1  0  0  0  0
  2  5  1  0  0  0  0
  3 20  1  0  0  0  0
  3 21  1  0  0  0  0
  3 22  1  0  0  0  0
  4 23  1  0  0  0  0
  4 24  1  0  0  0  0
  4 25  1  0  0  0  0
  5  6  2  0  0  0  0
  5  7  1  0  0  0  0
  7  8  1  0  0  0  0
  8 16  1  0  0  0  0
  8  9  2  0  0  0  0
  9 10  1  0  0  0  0
 10 11  1  0  0  0  0
 10 15  2  0  0  0  0
 11 12  1  0  0  0  0
 11 26  1  0  0  0  0
 11 27  1  0  0  0  0
 12 13  1  0  0  0  0
 12 14  2  0  0  0  0
 13 28  1  0  0  0  0
 13 29  1  0  0  0  0
 15 16  1  0  0  0  0
 15 30  1  0  0  0  0
M  CHG  1   7  -1
M  END
> <s_m_source_file>
AV-unprocessed.smi

> <i_m_source_file_index>
2201

> <i_lp_mmshare_version>
43012

> <i_f3d_flags>
0

> <s_epik_input>
W0NIM11DKFtDSDNdKShbQ0gzXSlDKD1PKVtOSF1jMW5jKFtjSF1zMSlbQ0gyXUMoPU8pW05IMl0=

> <s_epik_cmdline>
J2VwaWtfcHl0aG9uJywgJy1waCcsICc3LjAnLCAnLXRuJywgJzgnLCAnLW1hJywgJzIwMCcsICctbWV0YWxfYmluZGluZycsICctaW1hZScsICc8aW5maWxlLm1hZT4nLCAnLW9tYWUnLCAnPG91dGZpbGUubWFlPic=

> <r_lp_tautomer_probability>
1

> <r_epik_Ionization_Penalty>
5.6718

> <r_epik_Ionization_Penalty_Charging>
5.12968

> <r_epik_Ionization_Penalty_Neutral>
0.54212

> <r_epik_State_Penalty>
5.12958

> <r_epik_Charging_Adjusted_Penalty>
10.2593

> <i_epik_Tot_Q>
-1

> <i_epik_Tot_abs_Q>
1

> <r_epik_Metal_State_Penalty>
1.2135

> <b_epik_Metal_Only>
1

> <s_lp_Force_Field>
OPLS_2005

> <r_lp_Energy>
3.19374

> <b_lp_Chiralities_Consistent>
1

> <s_lp_Variant>
AV-unprocessed.smi:2201-2

> <Gold.Version>
5.8.1

> <Gold.Id.Protein>
6NUR|6NUR_protein|mol2

> <Gold.PLP.Fitness>
40.3388

> <Gold.PLP.PLP>
-23.5759

> <Gold.PLP.part.hbond>
-5.8170

> <Gold.PLP.part.metal>
0.0000

> <Gold.PLP.part.buried>
-3.9893

> <Gold.PLP.part.nonpolar>
-13.3937

> <Gold.PLP.part.repulsive>
0.1644

> <Gold.PLP.ligand.clash>
0.0000

> <Gold.PLP.ligand.torsion>
0.6268

> <Gold.PLP.Chemscore.Hbond>
6.0000

> <Gold.PLP.Chemscore.CHOScore>
0.0000

> <Gold.PLP.Chemscore.Metal>
0.0000

> <Gold.Chemscore.Hbonds>
donor molecule, donor type, donor heavy atom, donor atom, acceptor molecule, acceptor atom, score
      L1  H    13    28       P1  7957  1.00
      L1  H    13    29       P1  7948  0.69
      P1  H  6896  6908       L1     7  2.00
      P1  H  6931  6943       L1     6  1.00
      P1  H  6934  6947       L1     6  0.28
      P1  H  7989  7998       L1    14  1.00

> <Gold.PLP.Chemscore.Internal.Correction>
0.0165

> <Gold.Rescore>
     Score         DG    S(hbond)    S(metal)    S(lipo)     H(rot)  DE(clash)    DE(int)     intcor
     19.02     -19.93       4.50        0.00      36.07       1.88       0.14       0.76       ----

> <Gold.Chemscore.Fitness>
19.0211

> <Gold.Chemscore.DG>
-19.9303

> <Gold.Chemscore.ZeroCoef>
-5.4800

> <Gold.Chemscore.Hbond>
4.5041

> <Gold.Chemscore.Metal>
0.0000

> <Gold.Chemscore.Lipo>
36.0682

> <Gold.Chemscore.Internal_Hbond>
0.0000

> <Gold.Chemscore.DEClash>
0.1448

> <Gold.Chemscore.DEInternal>
0.7644

> <Gold.Chemscore.Rot>
1.8802

> <Gold.Chemscore.Internal.Correction>
   9.000000E+99

> <Gold.Chemscore.Hbonds>
donor molecule, donor type, donor heavy atom, donor atom, acceptor molecule, acceptor atom, score
      L1  H    13    28       P1  7957  0.26
      L1  H    13    29       P1  7948  0.36
      P1  H  6896  6908       L1     7  0.37
      P1  H  6931  6943       L1     6  0.96
      P1  H  6934  6947       L1     6  0.30
      P1  H  7989  7998       L1    14  0.96

> <Gold.Chemscore.Hbond.Weighted>
-15.0436

> <Gold.Chemscore.Metal.Weighted>
-0.0000

> <Gold.Chemscore.Lipo.Weighted>
-4.2200

> <Gold.Chemscore.Internal_Hbond.Weighted>
0.0000

> <Gold.Chemscore.DEClash.Weighted>
0.1448

> <Gold.Chemscore.DEInternal.Weighted>
0.7644

> <Gold.Chemscore.Rot.Weighted>
4.8132

> <Gold.Chemscore.Internal.Correction.Weighted>
   9.000000E+99

> <Gold.Protein.RotatedTorsions>
[ 6907 6896 6895 6894 ] final  166.14 input  -60.11 | X-H torsion
[ 7974 7965 7964 7962 ] final   36.33 input  175.53 | X-H torsion
[ 8008 7997 7996 7995 ] final   -6.69 input   59.86 | X-H torsion
[ 10167 10162 10161 10158 ] final  177.17 input  -65.29 | X-H torsion
[ 10718 10713 10712 10709 ] final  103.05 input   66.30 | X-H torsion
[ 10763 10752 10751 10750 ] final -167.47 input  -60.55 | X-H torsion
[ 11005 11000 10999 10996 ] final  119.41 input  -57.11 | X-H torsion

> <Gold.Protein.ActiveResidues>
 VAL166  LYS551  ARG553  GLY616  TRP617  ASP618  TYR619  PRO620  LYS621  CYS622 
 ASP623  PHE694  ASN695  SER759  ASP760  ASP761  ALA762  ILE779  LEU786  VAL792 
 PHE793  MET794  SER795  GLU796  ALA797  LYS798  CYS799  TRP800  GLU811  SER814 

> <Gold.Protein.RotatedAtoms>
  151.8835  133.3500  159.3773 H   0  0  0  0  0  0  0  0  0  0  0  0  # atno 6907 bound_to 6896
  150.7121  134.4995  159.5564 H   0  0  0  0  0  0  0  0  0  0  0  0  # atno 6908 bound_to 6896
  152.2551  134.8092  160.0490 H   0  0  0  0  0  0  0  0  0  0  0  0  # atno 6909 bound_to 6896
  146.1219  139.6031  142.9284 H   0  0  0  0  0  0  0  0  0  0  0  0  # atno 7974 bound_to 7965
  154.5912  140.2426  155.7918 H   0  0  0  0  0  0  0  0  0  0  0  0  # atno 8008 bound_to 7997
  156.2248  140.2986  155.9995 H   0  0  0  0  0  0  0  0  0  0  0  0  # atno 8009 bound_to 7997
  155.2371  140.0405  157.2960 H   0  0  0  0  0  0  0  0  0  0  0  0  # atno 8010 bound_to 7997
  139.5243  144.2829  152.0531 H   0  0  0  0  0  0  0  0  0  0  0  0  # atno 10167 bound_to 10162
  157.6784  131.0769  150.5497 H   0  0  0  0  0  0  0  0  0  0  0  0  # atno 10718 bound_to 10713
  154.6729  135.2942  154.9718 H   0  0  0  0  0  0  0  0  0  0  0  0  # atno 10763 bound_to 10752
  154.0739  135.6614  153.4832 H   0  0  0  0  0  0  0  0  0  0  0  0  # atno 10764 bound_to 10752
  153.0498  135.5181  154.7734 H   0  0  0  0  0  0  0  0  0  0  0  0  # atno 10765 bound_to 10752
  139.9145  134.9628  156.7651 H   0  0  0  0  0  0  0  0  0  0  0  0  # atno 11005 bound_to 11000
  145.5448  141.0418  143.2311 LP  0  0  0  0  0  0  0  0  0  0  0  0  # atno 17320 bound_to 7965
  144.7605  139.6968  143.7236 LP  0  0  0  0  0  0  0  0  0  0  0  0  # atno 17321 bound_to 7965
  140.2283  144.4394  150.6311 LP  0  0  0  0  0  0  0  0  0  0  0  0  # atno 17342 bound_to 10162
  140.6372  143.2197  151.6369 LP  0  0  0  0  0  0  0  0  0  0  0  0  # atno 17343 bound_to 10162
  156.5802  130.4302  149.5981 LP  0  0  0  0  0  0  0  0  0  0  0  0  # atno 17370 bound_to 10713
  156.2668  130.6994  151.1779 LP  0  0  0  0  0  0  0  0  0  0  0  0  # atno 17371 bound_to 10713
  140.6666  133.9597  155.7833 LP  0  0  0  0  0  0  0  0  0  0  0  0  # atno 17394 bound_to 11000
  141.0607  134.0351  157.3662 LP  0  0  0  0  0  0  0  0  0  0  0  0  # atno 17395 bound_to 11000

$$$$
