AV-unprocessed.smi:109|AV-procd|sdf|1057|dock4
  -GOLD-   2262018123D 1   1.00000     0.00000
 Structure written by MMmdl.
 58 61  0  0  0  0  0  0  0  0  1 V2000
  149.7968  145.6265  159.8954 O   0  0  0  0  0  0  0  0  0  0  0  0
  151.0207  145.1994  159.3370 C   0  0  0  0  0  0  0  0  0  0  0  0
  150.7766  144.0113  158.3913 C   0  0  0  0  0  0  0  0  0  0  0  0
  151.9692  143.0292  158.2718 C   0  0  2  0  0  0  0  0  0  0  0  0
  151.6887  142.0411  157.2268 N   0  0  0  0  0  0  0  0  0  0  0  0
  150.4830  141.4407  157.1030 C   0  0  0  0  0  0  0  0  0  0  0  0
  149.5140  141.5913  158.0430 N   0  0  0  0  0  0  0  0  0  0  0  0
  148.3384  140.9728  157.8989 C   0  0  0  0  0  0  0  0  0  0  0  0
  147.9318  140.1743  156.9098 N   0  0  0  0  0  0  0  0  0  0  0  0
  148.8986  140.0232  155.9588 C   0  0  0  0  0  0  0  0  0  0  0  0
  150.1902  140.6202  155.9829 C   0  0  0  0  0  0  0  0  0  0  0  0
  150.9040  140.2416  154.8534 N   0  0  0  0  0  0  0  0  0  0  0  0
  150.0795  139.4638  154.2044 C   0  0  0  0  0  0  0  0  0  0  0  0
  148.8503  139.2791  154.7978 N   0  0  0  0  0  0  0  0  0  0  0  0
  147.7182  138.4365  154.3074 C   0  0  1  0  0  0  0  0  0  0  0  0
  147.3814  137.5393  155.3233 O   0  0  0  0  0  0  0  0  0  0  0  0
  145.9687  137.3800  155.3830 C   0  0  2  0  0  0  0  0  0  0  0  0
  145.5595  136.2318  154.4352 C   0  0  0  0  0  0  0  0  0  0  0  0
  144.1549  136.0902  154.3984 O   0  0  0  0  0  0  0  0  0  0  0  0
  145.4649  138.7826  155.0159 C   0  0  2  0  0  0  0  0  0  0  0  0
  144.1168  138.8418  154.5847 O   0  0  0  0  0  0  0  0  0  0  0  0
  146.4771  139.2900  153.9898 C   0  0  2  0  0  0  0  0  0  0  0  0
  146.0387  139.0754  152.6608 O   0  0  0  0  0  0  0  0  0  0  0  0
  152.2979  142.2944  159.6041 C   0  0  0  0  0  0  0  0  0  0  0  0
  152.8347  143.2412  160.7079 C   0  0  0  0  0  0  0  0  0  0  0  0
  153.1887  142.4940  162.0044 C   0  0  0  0  0  0  0  0  0  0  0  0
  154.1959  141.3673  161.7463 C   0  0  0  0  0  0  0  0  0  0  0  0
  153.6649  140.4053  160.6771 C   0  0  0  0  0  0  0  0  0  0  0  0
  153.3235  141.1534  159.3789 C   0  0  0  0  0  0  0  0  0  0  0  0
  148.1168  137.9051  153.4417 H   0  0  0  0  0  0  0  0  0  0  0  0
  145.6921  137.1211  156.4059 H   0  0  0  0  0  0  0  0  0  0  0  0
  145.5417  139.4062  155.9067 H   0  0  0  0  0  0  0  0  0  0  0  0
  146.6802  140.3536  154.1237 H   0  0  0  0  0  0  0  0  0  0  0  0
  149.9521  145.9011  160.7862 H   0  0  0  0  0  0  0  0  0  0  0  0
  151.4714  146.0402  158.8099 H   0  0  0  0  0  0  0  0  0  0  0  0
  151.6970  144.9155  160.1437 H   0  0  0  0  0  0  0  0  0  0  0  0
  149.9033  143.4865  158.7743 H   0  0  0  0  0  0  0  0  0  0  0  0
  150.5037  144.3797  157.4014 H   0  0  0  0  0  0  0  0  0  0  0  0
  152.8538  143.6127  158.0167 H   0  0  0  0  0  0  0  0  0  0  0  0
  152.4623  141.8316  156.6120 H   0  0  0  0  0  0  0  0  0  0  0  0
  147.6224  141.1396  158.6903 H   0  0  0  0  0  0  0  0  0  0  0  0
  150.3490  138.9982  153.2673 H   0  0  0  0  0  0  0  0  0  0  0  0
  145.9441  136.3752  153.4260 H   0  0  0  0  0  0  0  0  0  0  0  0
  145.9718  135.2905  154.7994 H   0  0  0  0  0  0  0  0  0  0  0  0
  143.8195  136.6110  153.6845 H   0  0  0  0  0  0  0  0  0  0  0  0
  144.0662  139.4221  153.8400 H   0  0  0  0  0  0  0  0  0  0  0  0
  145.4163  139.7531  152.4435 H   0  0  0  0  0  0  0  0  0  0  0  0
  151.3751  141.8456  159.9758 H   0  0  0  0  0  0  0  0  0  0  0  0
  153.7141  143.7724  160.3414 H   0  0  0  0  0  0  0  0  0  0  0  0
  152.0970  143.9995  160.9641 H   0  0  0  0  0  0  0  0  0  0  0  0
  153.5946  143.1930  162.7361 H   0  0  0  0  0  0  0  0  0  0  0  0
  152.2811  142.0792  162.4449 H   0  0  0  0  0  0  0  0  0  0  0  0
  155.1467  141.7912  161.4211 H   0  0  0  0  0  0  0  0  0  0  0  0
  154.3961  140.8258  162.6711 H   0  0  0  0  0  0  0  0  0  0  0  0
  154.4053  139.6306  160.4758 H   0  0  0  0  0  0  0  0  0  0  0  0
  152.7763  139.8946  161.0504 H   0  0  0  0  0  0  0  0  0  0  0  0
  152.9454  140.4287  158.6579 H   0  0  0  0  0  0  0  0  0  0  0  0
  154.2376  141.5630  158.9465 H   0  0  0  0  0  0  0  0  0  0  0  0
  1  2  1  0  0  0  0
  1 34  1  0  0  0  0
  2  3  1  0  0  0  0
  2 35  1  0  0  0  0
  2 36  1  0  0  0  0
  3  4  1  0  0  0  0
  3 37  1  0  0  0  0
  3 38  1  0  0  0  0
  4  5  1  0  0  0  0
  4 24  1  0  0  0  0
  4 39  1  0  0  0  0
  5  6  1  0  0  0  0
  5 40  1  0  0  0  0
  6 11  1  0  0  0  0
  6  7  2  0  0  0  0
  7  8  1  0  0  0  0
  8  9  2  0  0  0  0
  8 41  1  0  0  0  0
  9 10  1  0  0  0  0
 10 14  1  0  0  0  0
 10 11  2  0  0  0  0
 11 12  1  0  0  0  0
 12 13  2  0  0  0  0
 13 14  1  0  0  0  0
 13 42  1  0  0  0  0
 14 15  1  0  0  0  0
 15 30  1  0  0  0  0
 15 22  1  0  0  0  0
 15 16  1  0  0  0  0
 16 17  1  0  0  0  0
 17 31  1  0  0  0  0
 17 18  1  0  0  0  0
 17 20  1  0  0  0  0
 18 19  1  0  0  0  0
 18 43  1  0  0  0  0
 18 44  1  0  0  0  0
 19 45  1  0  0  0  0
 20 32  1  0  0  0  0
 20 21  1  0  0  0  0
 20 22  1  0  0  0  0
 21 46  1  0  0  0  0
 22 33  1  0  0  0  0
 22 23  1  0  0  0  0
 23 47  1  0  0  0  0
 24 29  1  0  0  0  0
 24 25  1  0  0  0  0
 24 48  1  0  0  0  0
 25 26  1  0  0  0  0
 25 49  1  0  0  0  0
 25 50  1  0  0  0  0
 26 27  1  0  0  0  0
 26 51  1  0  0  0  0
 26 52  1  0  0  0  0
 27 28  1  0  0  0  0
 27 53  1  0  0  0  0
 27 54  1  0  0  0  0
 28 29  1  0  0  0  0
 28 55  1  0  0  0  0
 28 56  1  0  0  0  0
 29 57  1  0  0  0  0
 29 58  1  0  0  0  0
M  END
> <s_m_source_file>
AV-unprocessed.smi

> <i_m_source_file_index>
109

> <i_lp_mmshare_version>
43012

> <i_f3d_flags>
0

> <s_epik_input>
W0NIMl0xW0NIMl1bQ0gyXVtDSDJdW0NIMl1bQ0hdMVtDQEhdKFtDSDJdW0NIMl1bT0hdKVtOSF1jKG5bY0hdbjIpYyhjMjMpbltjSF1uM1tDQEBIXTRPW0NASF0oW0NIMl1bT0hdKVtDQEBIXShbT0hdKVtDQEhdNFtPSF0=

> <s_epik_cmdline>
J2VwaWtfcHl0aG9uJywgJy1waCcsICc3LjAnLCAnLXRuJywgJzgnLCAnLW1hJywgJzIwMCcsICctbWV0YWxfYmluZGluZycsICctaW1hZScsICc8aW5maWxlLm1hZT4nLCAnLW9tYWUnLCAnPG91dGZpbGUubWFlPic=

> <r_lp_tautomer_probability>
1

> <r_epik_Ionization_Penalty>
0.000793976

> <r_epik_Ionization_Penalty_Charging>
0

> <r_epik_Ionization_Penalty_Neutral>
0.000793976

> <r_epik_State_Penalty>
-0

> <r_epik_Charging_Adjusted_Penalty>
0

> <i_epik_Tot_Q>
0

> <i_epik_Tot_abs_Q>
0

> <r_epik_Metal_State_Penalty>
-0

> <b_epik_Metal_Only>
0

> <s_epik_Chemistry_Notes>
This compound contains an acetal/aminal-like group ( X-CH(R)-Y where X, Y are N, S, or O) that may be acid/base labile, releasing an aldehyde.

> <s_lp_Force_Field>
OPLS_2005

> <r_lp_Energy>
58.5181

> <b_lp_Chiralities_Consistent>
1

> <s_lp_Variant>
AV-unprocessed.smi:109-27

> <Gold.Version>
5.8.1

> <Gold.Id.Protein>
6NUR|6NUR_protein|mol2

> <Gold.PLP.Fitness>
51.2234

> <Gold.PLP.PLP>
-41.3195

> <Gold.PLP.part.hbond>
-4.5110

> <Gold.PLP.part.metal>
0.0000

> <Gold.PLP.part.buried>
-1.9819

> <Gold.PLP.part.nonpolar>
-35.2392

> <Gold.PLP.part.repulsive>
0.2735

> <Gold.PLP.ligand.clash>
0.0000

> <Gold.PLP.ligand.torsion>
0.6157

> <Gold.PLP.Chemscore.Hbond>
2.7500

> <Gold.PLP.Chemscore.CHOScore>
0.7675

> <Gold.PLP.Chemscore.Metal>
0.0000

> <Gold.Chemscore.Hbonds>
donor molecule, donor type, donor heavy atom, donor atom, acceptor molecule, acceptor atom, score
      L1  H    21    46       P1 10175  1.00
      L1  H    23    47       P1 10175  1.00
      P1  H  7989  7998       L1    12  0.80
      L1  C    13    42       P1  7957  0.80

> <Gold.PLP.Chemscore.Internal.Correction>
0.5828

> <Gold.Rescore>
     Score         DG    S(hbond)    S(metal)    S(lipo)     H(rot)  DE(clash)    DE(int)     intcor
      7.38     -11.51       2.49        0.00     100.19       5.47       1.14       2.99       ----

> <Gold.Chemscore.Fitness>
7.3842

> <Gold.Chemscore.DG>
-11.5115

> <Gold.Chemscore.ZeroCoef>
-5.4800

> <Gold.Chemscore.Hbond>
2.4859

> <Gold.Chemscore.Metal>
0.0000

> <Gold.Chemscore.Lipo>
100.1881

> <Gold.Chemscore.Internal_Hbond>
0.0000

> <Gold.Chemscore.DEClash>
1.1362

> <Gold.Chemscore.DEInternal>
2.9912

> <Gold.Chemscore.Rot>
5.4662

> <Gold.Chemscore.Internal.Correction>
   9.000000E+99

> <Gold.Chemscore.Hbonds>
donor molecule, donor type, donor heavy atom, donor atom, acceptor molecule, acceptor atom, score
      L1  H    21    46       P1 10175  1.00
      L1  H    23    47       P1 10175  0.95
      P1  H  7989  7998       L1    12  0.12

> <Gold.Chemscore.Hbond.Weighted>
-8.3030

> <Gold.Chemscore.Metal.Weighted>
-0.0000

> <Gold.Chemscore.Lipo.Weighted>
-11.7220

> <Gold.Chemscore.Internal_Hbond.Weighted>
0.0000

> <Gold.Chemscore.DEClash.Weighted>
1.1362

> <Gold.Chemscore.DEInternal.Weighted>
2.9912

> <Gold.Chemscore.Rot.Weighted>
13.9935

> <Gold.Chemscore.Internal.Correction.Weighted>
   9.000000E+99

> <Gold.Protein.RotatedTorsions>
[ 6907 6896 6895 6894 ] final  -30.28 input  -60.11 | X-H torsion
[ 7974 7965 7964 7962 ] final  -20.02 input  175.53 | X-H torsion
[ 8008 7997 7996 7995 ] final   84.30 input   59.86 | X-H torsion
[ 10167 10162 10161 10158 ] final  154.82 input  -65.29 | X-H torsion
[ 10718 10713 10712 10709 ] final -117.48 input   66.30 | X-H torsion
[ 10763 10752 10751 10750 ] final  -31.43 input  -60.55 | X-H torsion
[ 11005 11000 10999 10996 ] final  -91.97 input  -57.11 | X-H torsion

> <Gold.Protein.ActiveResidues>
 VAL166  LYS551  ARG553  GLY616  TRP617  ASP618  TYR619  PRO620  LYS621  CYS622 
 ASP623  PHE694  ASN695  SER759  ASP760  ASP761  ALA762  ILE779  LEU786  VAL792 
 PHE793  MET794  SER795  GLU796  ALA797  LYS798  CYS799  TRP800  GLU811  SER814 

> <Gold.Protein.RotatedAtoms>
  151.1076  135.0008  159.8478 H   0  0  0  0  0  0  0  0  0  0  0  0  # atno 6907 bound_to 6896
  152.5441  134.1874  159.8670 H   0  0  0  0  0  0  0  0  0  0  0  0  # atno 6908 bound_to 6896
  151.1922  133.4616  159.2628 H   0  0  0  0  0  0  0  0  0  0  0  0  # atno 6909 bound_to 6896
  146.1810  140.4144  142.8494 H   0  0  0  0  0  0  0  0  0  0  0  0  # atno 7974 bound_to 7965
  155.9353  140.3412  155.6282 H   0  0  0  0  0  0  0  0  0  0  0  0  # atno 8008 bound_to 7997
  155.7107  140.0771  157.2391 H   0  0  0  0  0  0  0  0  0  0  0  0  # atno 8009 bound_to 7997
  154.4092  140.1623  156.2280 H   0  0  0  0  0  0  0  0  0  0  0  0  # atno 8010 bound_to 7997
  139.4822  144.5153  151.7962 H   0  0  0  0  0  0  0  0  0  0  0  0  # atno 10167 bound_to 10162
  156.1037  130.6193  150.9169 H   0  0  0  0  0  0  0  0  0  0  0  0  # atno 10718 bound_to 10713
  153.7973  135.6893  153.4861 H   0  0  0  0  0  0  0  0  0  0  0  0  # atno 10763 bound_to 10752
  153.1711  135.4542  154.9902 H   0  0  0  0  0  0  0  0  0  0  0  0  # atno 10764 bound_to 10752
  154.8021  135.3342  154.7464 H   0  0  0  0  0  0  0  0  0  0  0  0  # atno 10765 bound_to 10752
  141.1533  133.7790  156.9954 H   0  0  0  0  0  0  0  0  0  0  0  0  # atno 11005 bound_to 11000
  144.8316  140.6715  143.6287 LP  0  0  0  0  0  0  0  0  0  0  0  0  # atno 17320 bound_to 7965
  145.4075  139.1586  143.4144 LP  0  0  0  0  0  0  0  0  0  0  0  0  # atno 17321 bound_to 7965
  140.4660  144.1654  150.5912 LP  0  0  0  0  0  0  0  0  0  0  0  0  # atno 17342 bound_to 10162
  140.4433  143.2517  151.9444 LP  0  0  0  0  0  0  0  0  0  0  0  0  # atno 17343 bound_to 10162
  157.6211  131.0929  150.8621 LP  0  0  0  0  0  0  0  0  0  0  0  0  # atno 17370 bound_to 10713
  156.8744  130.5157  149.5294 LP  0  0  0  0  0  0  0  0  0  0  0  0  # atno 17371 bound_to 10713
  140.0975  134.9555  157.1872 LP  0  0  0  0  0  0  0  0  0  0  0  0  # atno 17394 bound_to 11000
  140.3362  134.2754  155.7219 LP  0  0  0  0  0  0  0  0  0  0  0  0  # atno 17395 bound_to 11000

$$$$
