AV-unprocessed.smi:1005|AV-procd|sdf|4379|dock3
  -GOLD-   22720 2293D 1   1.00000     0.00000
 Structure written by MMmdl.
 58 60  0  0  0  0  0  0  0  0  4 V2000
  152.1512  143.8115  161.3108 C   0  0  0  0  0  0  0  0  0  0  0  0
  151.9370  142.8980  160.1157 C   0  0  0  0  0  0  0  0  0  0  0  0
  151.1704  143.3768  159.0297 C   0  0  0  0  0  0  0  0  0  0  0  0
  150.9959  142.5197  157.9496 C   0  0  0  0  0  0  0  0  0  0  0  0
  150.3074  142.6934  156.7474 N   0  3  0  0  0  0  0  0  0  0  0  0
  150.4197  141.5663  155.9917 C   0  0  0  0  0  0  0  0  0  0  0  0
  151.1739  140.6751  156.6917 N   0  0  0  0  0  0  0  0  0  0  0  0
  151.5904  139.3116  156.3306 C   0  0  0  0  0  0  0  0  0  0  0  0
  151.9306  139.1628  154.8340 C   0  0  1  0  0  0  0  0  0  0  0  0
  153.3061  139.4224  154.6314 O   0  0  0  0  0  0  0  0  0  0  0  0
  151.6159  137.7443  154.3164 C   0  0  0  0  0  0  0  0  0  0  0  0
  150.1633  137.4324  154.3322 N   0  3  1  0  0  0  0  0  0  0  0  0
  149.7404  136.7681  155.5873 C   0  0  0  0  0  0  0  0  0  0  0  0
  148.2495  136.4008  155.5215 C   0  0  0  0  0  0  0  0  0  0  0  0
  147.4831  137.5721  155.2677 O   0  0  0  0  0  0  0  0  0  0  0  0
  147.8090  138.1753  154.0195 C   0  0  1  0  0  0  0  0  0  0  0  0
  146.8741  139.3825  153.8164 C   0  0  0  0  0  0  0  0  0  0  0  0
  145.4365  139.0086  153.8497 N   0  3  0  0  0  0  0  0  0  0  0  0
  144.8603  139.0072  155.2146 C   0  0  0  0  0  0  0  0  0  0  0  0
  145.1768  137.7297  153.1521 C   0  0  0  0  0  0  0  0  0  0  0  0
  149.2917  138.6002  154.0497 C   0  0  0  0  0  0  0  0  0  0  0  0
  151.5515  141.2255  157.9234 C   0  0  0  0  0  0  0  0  0  0  0  0
  152.3069  140.7372  158.9875 C   0  0  0  0  0  0  0  0  0  0  0  0
  152.4963  141.5940  160.0956 C   0  0  0  0  0  0  0  0  0  0  0  0
  153.3173  141.0886  161.2697 C   0  0  0  0  0  0  0  0  0  0  0  0
  151.6974  144.7902  161.1518 H   0  0  0  0  0  0  0  0  0  0  0  0
  153.2152  143.9651  161.4914 H   0  0  0  0  0  0  0  0  0  0  0  0
  151.7060  143.3791  162.2070 H   0  0  0  0  0  0  0  0  0  0  0  0
  150.7400  144.3676  159.0394 H   0  0  0  0  0  0  0  0  0  0  0  0
  149.9872  141.4093  155.0139 H   0  0  0  0  0  0  0  0  0  0  0  0
  152.4276  139.0120  156.9615 H   0  0  0  0  0  0  0  0  0  0  0  0
  150.7640  138.6483  156.5890 H   0  0  0  0  0  0  0  0  0  0  0  0
  151.3601  139.9059  154.2779 H   0  0  0  0  0  0  0  0  0  0  0  0
  153.6109  138.8844  153.9161 H   0  0  0  0  0  0  0  0  0  0  0  0
  151.9911  137.6605  153.2949 H   0  0  0  0  0  0  0  0  0  0  0  0
  152.1531  136.9951  154.9000 H   0  0  0  0  0  0  0  0  0  0  0  0
  150.3314  135.8659  155.7496 H   0  0  0  0  0  0  0  0  0  0  0  0
  149.9263  137.4308  156.4343 H   0  0  0  0  0  0  0  0  0  0  0  0
  148.0647  135.6541  154.7473 H   0  0  0  0  0  0  0  0  0  0  0  0
  147.9271  135.9652  156.4674 H   0  0  0  0  0  0  0  0  0  0  0  0
  147.6674  137.4521  153.2156 H   0  0  0  0  0  0  0  0  0  0  0  0
  147.0800  140.1092  154.6042 H   0  0  0  0  0  0  0  0  0  0  0  0
  147.0939  139.8853  152.8732 H   0  0  0  0  0  0  0  0  0  0  0  0
  145.3624  138.2763  155.8499 H   0  0  0  0  0  0  0  0  0  0  0  0
  143.8000  138.7541  155.1822 H   0  0  0  0  0  0  0  0  0  0  0  0
  144.9428  139.9848  155.6878 H   0  0  0  0  0  0  0  0  0  0  0  0
  145.6863  136.9028  153.6484 H   0  0  0  0  0  0  0  0  0  0  0  0
  145.5213  137.7740  152.1184 H   0  0  0  0  0  0  0  0  0  0  0  0
  144.1085  137.5106  153.1320 H   0  0  0  0  0  0  0  0  0  0  0  0
  149.4500  139.3647  154.8124 H   0  0  0  0  0  0  0  0  0  0  0  0
  149.5551  139.0467  153.0917 H   0  0  0  0  0  0  0  0  0  0  0  0
  152.7378  139.7472  158.9739 H   0  0  0  0  0  0  0  0  0  0  0  0
  153.6204  140.0509  161.1280 H   0  0  0  0  0  0  0  0  0  0  0  0
  152.7406  141.1417  162.1934 H   0  0  0  0  0  0  0  0  0  0  0  0
  154.2205  141.6874  161.3896 H   0  0  0  0  0  0  0  0  0  0  0  0
  144.9428  139.7146  153.3217 H   0  0  0  0  0  0  0  0  0  0  0  0
  150.0129  136.7603  153.5924 H   0  0  0  0  0  0  0  0  0  0  0  0
  149.7955  143.5188  156.4622 H   0  0  0  0  0  0  0  0  0  0  0  0
  1  2  1  0  0  0  0
  1 26  1  0  0  0  0
  1 27  1  0  0  0  0
  1 28  1  0  0  0  0
  2 24  1  0  0  0  0
  2  3  2  0  0  0  0
  3  4  1  0  0  0  0
  3 29  1  0  0  0  0
  4 22  2  0  0  0  0
  4  5  1  0  0  0  0
  5  6  2  0  0  0  0
  5 58  1  0  0  0  0
  6  7  1  0  0  0  0
  6 30  1  0  0  0  0
  7  8  1  0  0  0  0
  7 22  1  0  0  0  0
  8  9  1  0  0  0  0
  8 31  1  0  0  0  0
  8 32  1  0  0  0  0
  9 10  1  0  0  0  0
  9 11  1  0  0  0  0
  9 33  1  0  0  0  0
 10 34  1  0  0  0  0
 11 12  1  0  0  0  0
 11 35  1  0  0  0  0
 11 36  1  0  0  0  0
 12 21  1  0  0  0  0
 12 13  1  0  0  0  0
 12 57  1  0  0  0  0
 13 14  1  0  0  0  0
 13 37  1  0  0  0  0
 13 38  1  0  0  0  0
 14 15  1  0  0  0  0
 14 39  1  0  0  0  0
 14 40  1  0  0  0  0
 15 16  1  0  0  0  0
 16 17  1  0  0  0  0
 16 21  1  0  0  0  0
 16 41  1  0  0  0  0
 17 18  1  0  0  0  0
 17 42  1  0  0  0  0
 17 43  1  0  0  0  0
 18 19  1  0  0  0  0
 18 20  1  0  0  0  0
 18 56  1  0  0  0  0
 19 44  1  0  0  0  0
 19 45  1  0  0  0  0
 19 46  1  0  0  0  0
 20 47  1  0  0  0  0
 20 48  1  0  0  0  0
 20 49  1  0  0  0  0
 21 50  1  0  0  0  0
 21 51  1  0  0  0  0
 22 23  1  0  0  0  0
 23 24  2  0  0  0  0
 23 52  1  0  0  0  0
 24 25  1  0  0  0  0
 25 53  1  0  0  0  0
 25 54  1  0  0  0  0
 25 55  1  0  0  0  0
M  CHG  1   5   1
M  CHG  1  12   1
M  CHG  1  18   1
M  END
> <s_m_source_file>
AV-unprocessed.smi

> <i_m_source_file_index>
1005

> <i_lp_mmshare_version>
43012

> <i_f3d_flags>
0

> <s_epik_input>
W0NIM11jKFtjSF0xKWMoW0NIM10pW2NIXWMoYzEyKW4oW2NIXW4yKVtDSDJdW0NASF0oW09IXSlbQ0gyXU4zW0NIMl1bQ0gyXU9bQ0BIXShbQ0gyXTMpW0NIMl1OKFtDSDNdKVtDSDNd

> <s_epik_cmdline>
J2VwaWtfcHl0aG9uJywgJy1waCcsICc3LjAnLCAnLXRuJywgJzgnLCAnLW1hJywgJzIwMCcsICctbWV0YWxfYmluZGluZycsICctaW1hZScsICc8aW5maWxlLm1hZT4nLCAnLW9tYWUnLCAnPG91dGZpbGUubWFlPic=

> <r_epik_Ionization_Penalty>
2.30802

> <r_epik_Ionization_Penalty_Charging>
2.30798

> <r_epik_Ionization_Penalty_Neutral>
3.4851e-05

> <r_epik_State_Penalty>
2.52618

> <r_epik_Charging_Adjusted_Penalty>
4.83416

> <i_epik_Tot_Q>
3

> <i_epik_Tot_abs_Q>
3

> <r_epik_Metal_State_Penalty>
6.53149

> <b_epik_Metal_Only>
0

> <s_lp_Force_Field>
OPLS_2005

> <r_lp_Energy>
42.4596

> <b_lp_Chiralities_Consistent>
1

> <s_lp_Variant>
AV-unprocessed.smi:1005-18

> <Gold.Version>
5.8.1

> <Gold.Id.Protein>
6NUR|6NUR_protein|mol2

> <Gold.PLP.Fitness>
63.4605

> <Gold.PLP.PLP>
-45.0827

> <Gold.PLP.part.hbond>
-5.0000

> <Gold.PLP.part.metal>
0.0000

> <Gold.PLP.part.buried>
-0.7950

> <Gold.PLP.part.nonpolar>
-37.9068

> <Gold.PLP.part.repulsive>
0.1437

> <Gold.PLP.ligand.clash>
0.0000

> <Gold.PLP.ligand.torsion>
1.3553

> <Gold.PLP.Chemscore.Hbond>
6.9825

> <Gold.PLP.Chemscore.CHOScore>
0.0000

> <Gold.PLP.Chemscore.Metal>
0.0000

> <Gold.Chemscore.Hbonds>
donor molecule, donor type, donor heavy atom, donor atom, acceptor molecule, acceptor atom, score
      L1  H     5    58       P1  8028  2.00
      L1  H    12    57       P1  7948  1.75
      L1  H    18    56       P1 10175  2.00
      P1  H  7997  8010       L1    10  1.00

> <Gold.PLP.Chemscore.Internal.Correction>
0.1410

> <Gold.Rescore>
     Score         DG    S(hbond)    S(metal)    S(lipo)     H(rot)  DE(clash)    DE(int)     intcor
     21.95     -24.07       3.05        0.00     127.83       2.56       0.79       1.34       ----

> <Gold.Chemscore.Fitness>
21.9523

> <Gold.Chemscore.DG>
-24.0738

> <Gold.Chemscore.ZeroCoef>
-5.4800

> <Gold.Chemscore.Hbond>
3.0487

> <Gold.Chemscore.Metal>
0.0000

> <Gold.Chemscore.Lipo>
127.8312

> <Gold.Chemscore.Internal_Hbond>
0.0000

> <Gold.Chemscore.DEClash>
0.7857

> <Gold.Chemscore.DEInternal>
1.3358

> <Gold.Chemscore.Rot>
2.5566

> <Gold.Chemscore.Internal.Correction>
   9.000000E+99

> <Gold.Chemscore.Hbonds>
donor molecule, donor type, donor heavy atom, donor atom, acceptor molecule, acceptor atom, score
      L1  H     5    58       P1  8028  1.00
      L1  H    12    57       P1  7948  0.18
      L1  H    18    56       P1 10175  0.99
      P1  H  7997  8010       L1    10  0.76

> <Gold.Chemscore.Hbond.Weighted>
-10.1825

> <Gold.Chemscore.Metal.Weighted>
-0.0000

> <Gold.Chemscore.Lipo.Weighted>
-14.9563

> <Gold.Chemscore.Internal_Hbond.Weighted>
0.0000

> <Gold.Chemscore.DEClash.Weighted>
0.7857

> <Gold.Chemscore.DEInternal.Weighted>
1.3358

> <Gold.Chemscore.Rot.Weighted>
6.5450

> <Gold.Chemscore.Internal.Correction.Weighted>
   9.000000E+99

> <Gold.Protein.RotatedTorsions>
[ 6907 6896 6895 6894 ] final -169.05 input  -60.11 | X-H torsion
[ 7974 7965 7964 7962 ] final   70.92 input  175.53 | X-H torsion
[ 8008 7997 7996 7995 ] final  132.11 input   59.86 | X-H torsion
[ 10167 10162 10161 10158 ] final  165.79 input  -65.29 | X-H torsion
[ 10718 10713 10712 10709 ] final  -27.64 input   66.30 | X-H torsion
[ 10763 10752 10751 10750 ] final  141.70 input  -60.55 | X-H torsion
[ 11005 11000 10999 10996 ] final  110.50 input  -57.11 | X-H torsion

> <Gold.Protein.ActiveResidues>
 VAL166  LYS551  ARG553  GLY616  TRP617  ASP618  TYR619  PRO620  LYS621  CYS622 
 ASP623  PHE694  ASN695  SER759  ASP760  ASP761  ALA762  ILE779  LEU786  VAL792 
 PHE793  MET794  SER795  GLU796  ALA797  LYS798  CYS799  TRP800  GLU811  SER814 

> <Gold.Protein.RotatedAtoms>
  151.4854  133.3537  159.2844 H   0  0  0  0  0  0  0  0  0  0  0  0  # atno 6907 bound_to 6896
  150.8869  134.8270  159.7276 H   0  0  0  0  0  0  0  0  0  0  0  0  # atno 6908 bound_to 6896
  152.4799  134.4759  159.9702 H   0  0  0  0  0  0  0  0  0  0  0  0  # atno 6909 bound_to 6896
  145.7723  139.2849  143.1314 H   0  0  0  0  0  0  0  0  0  0  0  0  # atno 7974 bound_to 7965
  156.2978  140.2554  156.3036 H   0  0  0  0  0  0  0  0  0  0  0  0  # atno 8008 bound_to 7997
  154.9394  140.0396  157.2108 H   0  0  0  0  0  0  0  0  0  0  0  0  # atno 8009 bound_to 7997
  154.8141  140.2849  155.5837 H   0  0  0  0  0  0  0  0  0  0  0  0  # atno 8010 bound_to 7997
  139.4912  144.4095  151.9316 H   0  0  0  0  0  0  0  0  0  0  0  0  # atno 10167 bound_to 10162
  156.4356  130.4454  149.7088 H   0  0  0  0  0  0  0  0  0  0  0  0  # atno 10718 bound_to 10713
  153.9435  135.2977  155.3441 H   0  0  0  0  0  0  0  0  0  0  0  0  # atno 10763 bound_to 10752
  154.7464  135.5001  153.9215 H   0  0  0  0  0  0  0  0  0  0  0  0  # atno 10764 bound_to 10752
  153.1030  135.6739  153.9745 H   0  0  0  0  0  0  0  0  0  0  0  0  # atno 10765 bound_to 10752
  139.8883  134.9485  156.6289 H   0  0  0  0  0  0  0  0  0  0  0  0  # atno 11005 bound_to 11000
  146.0158  140.8394  142.9948 LP  0  0  0  0  0  0  0  0  0  0  0  0  # atno 17320 bound_to 7965
  144.6810  140.2556  143.7326 LP  0  0  0  0  0  0  0  0  0  0  0  0  # atno 17321 bound_to 7965
  140.3536  144.3059  150.5945 LP  0  0  0  0  0  0  0  0  0  0  0  0  # atno 17342 bound_to 10162
  140.5464  143.2214  151.8000 LP  0  0  0  0  0  0  0  0  0  0  0  0  # atno 17343 bound_to 10162
  156.3973  130.7657  151.2662 LP  0  0  0  0  0  0  0  0  0  0  0  0  # atno 17370 bound_to 10713
  157.7507  131.0250  150.3901 LP  0  0  0  0  0  0  0  0  0  0  0  0  # atno 17371 bound_to 10713
  140.7682  133.8761  155.8471 LP  0  0  0  0  0  0  0  0  0  0  0  0  # atno 17394 bound_to 11000
  140.9865  134.1336  157.4448 LP  0  0  0  0  0  0  0  0  0  0  0  0  # atno 17395 bound_to 11000

$$$$
