AV-unprocessed.smi:732|AV-procd|sdf|3527|dock4
  -GOLD-   22720 0523D 1   1.00000     0.00000
 Structure written by MMmdl.
 34 36  0  0  0  0  0  0  0  0  1 V2000
  156.1946  135.1226  157.3722 C   0  0  0  0  0  0  0  0  0  0  0  0
  155.3321  135.8372  158.3558 C   0  0  0  0  0  0  0  0  0  0  0  0
  155.1458  137.1615  158.6373 C   0  0  0  0  0  0  0  0  0  0  0  0
  154.1899  137.1339  159.6873 C   0  0  0  0  0  0  0  0  0  0  0  0
  153.7226  138.3358  160.2772 N   0  0  0  0  0  0  0  0  0  0  0  0
  154.0176  139.5958  159.9141 C   0  0  0  0  0  0  0  0  0  0  0  0
  154.7724  139.9095  158.9930 O   0  0  0  0  0  0  0  0  0  0  0  0
  153.3756  140.4846  160.6844 N   0  0  0  0  0  0  0  0  0  0  0  0
  153.4509  141.9030  160.5504 C   0  0  2  0  0  0  0  0  0  0  0  0
  152.2003  142.6985  160.8639 C   0  0  1  0  0  0  0  0  0  0  0  0
  152.2512  144.1185  161.3969 C   0  0  0  0  0  0  0  0  0  0  0  0
  151.6024  145.1070  160.4080 C   0  0  0  0  0  0  0  0  0  0  0  0
  152.0684  144.9354  158.9395 C   0  0  0  0  0  0  0  0  0  0  0  0
  153.0881  143.7993  158.7293 C   0  0  0  0  0  0  0  0  0  0  0  0
  152.6454  142.5296  159.4322 C   0  0  1  0  0  0  0  0  0  0  0  0
  153.8239  135.9043  160.0158 N   0  0  0  0  0  0  0  0  0  0  0  0
  154.5544  135.0669  159.1644 O   0  0  0  0  0  0  0  0  0  0  0  0
  156.2485  135.6727  156.4327 H   0  0  0  0  0  0  0  0  0  0  0  0
  155.8034  134.1277  157.1578 H   0  0  0  0  0  0  0  0  0  0  0  0
  157.2080  135.0112  157.7582 H   0  0  0  0  0  0  0  0  0  0  0  0
  155.6201  138.0103  158.1675 H   0  0  0  0  0  0  0  0  0  0  0  0
  153.0847  138.2243  161.0510 H   0  0  0  0  0  0  0  0  0  0  0  0
  152.7785  140.1322  161.4180 H   0  0  0  0  0  0  0  0  0  0  0  0
  154.4015  142.3771  160.7912 H   0  0  0  0  0  0  0  0  0  0  0  0
  151.3033  142.1466  161.1401 H   0  0  0  0  0  0  0  0  0  0  0  0
  151.7584  144.1605  162.3685 H   0  0  0  0  0  0  0  0  0  0  0  0
  153.2919  144.3995  161.5635 H   0  0  0  0  0  0  0  0  0  0  0  0
  150.5198  144.9794  160.4465 H   0  0  0  0  0  0  0  0  0  0  0  0
  151.7911  146.1285  160.7396 H   0  0  0  0  0  0  0  0  0  0  0  0
  151.1941  144.7405  158.3173 H   0  0  0  0  0  0  0  0  0  0  0  0
  152.4888  145.8720  158.5722 H   0  0  0  0  0  0  0  0  0  0  0  0
  153.2327  143.5966  157.6679 H   0  0  0  0  0  0  0  0  0  0  0  0
  154.0588  144.1039  159.1228 H   0  0  0  0  0  0  0  0  0  0  0  0
  152.0202  141.8754  158.8269 H   0  0  0  0  0  0  0  0  0  0  0  0
  1  2  1  0  0  0  0
  1 18  1  0  0  0  0
  1 19  1  0  0  0  0
  1 20  1  0  0  0  0
  2 17  1  0  0  0  0
  2  3  2  0  0  0  0
  3  4  1  0  0  0  0
  3 21  1  0  0  0  0
  4  5  1  0  0  0  0
  4 16  2  0  0  0  0
  5  6  1  0  0  0  0
  5 22  1  0  0  0  0
  6  7  2  0  0  0  0
  6  8  1  0  0  0  0
  8  9  1  0  0  0  0
  8 23  1  0  0  0  0
  9 15  1  0  0  0  0
  9 10  1  0  0  0  0
  9 24  1  0  0  0  0
 10 15  1  0  0  0  0
 10 11  1  0  0  0  0
 10 25  1  0  0  0  0
 11 12  1  0  0  0  0
 11 26  1  0  0  0  0
 11 27  1  0  0  0  0
 12 13  1  0  0  0  0
 12 28  1  0  0  0  0
 12 29  1  0  0  0  0
 13 14  1  0  0  0  0
 13 30  1  0  0  0  0
 13 31  1  0  0  0  0
 14 15  1  0  0  0  0
 14 32  1  0  0  0  0
 14 33  1  0  0  0  0
 15 34  1  0  0  0  0
 16 17  1  0  0  0  0
M  END
> <s_m_source_file>
AV-unprocessed.smi

> <i_m_source_file_index>
732

> <i_lp_mmshare_version>
43012

> <i_f3d_flags>
0

> <s_epik_input>
W0NIM11jMVtjSF1jKG5vMSlbTkhdQyg9TylbTkhdW0NASF0yW0NAQEhdKFtDQEBIXTIzKVtDSDJdW0NIMl1bQ0gyXVtDSDJdMw==

> <s_epik_cmdline>
J2VwaWtfcHl0aG9uJywgJy1waCcsICc3LjAnLCAnLXRuJywgJzgnLCAnLW1hJywgJzIwMCcsICctbWV0YWxfYmluZGluZycsICctaW1hZScsICc8aW5maWxlLm1hZT4nLCAnLW9tYWUnLCAnPG91dGZpbGUubWFlPic=

> <r_lp_tautomer_probability>
1

> <r_epik_Ionization_Penalty>
2.39506e-05

> <r_epik_Ionization_Penalty_Charging>
0

> <r_epik_Ionization_Penalty_Neutral>
2.39506e-05

> <r_epik_State_Penalty>
-0

> <r_epik_Charging_Adjusted_Penalty>
0

> <i_epik_Tot_Q>
0

> <i_epik_Tot_abs_Q>
0

> <r_epik_Metal_State_Penalty>
-0

> <b_epik_Metal_Only>
0

> <s_lp_Force_Field>
OPLS_2005

> <r_lp_Energy>
33.499

> <b_lp_Chiralities_Consistent>
1

> <s_lp_Variant>
AV-unprocessed.smi:732-1

> <Gold.Version>
5.8.1

> <Gold.Id.Protein>
6NUR|6NUR_protein|mol2

> <Gold.PLP.Fitness>
39.4986

> <Gold.PLP.PLP>
-34.0608

> <Gold.PLP.part.hbond>
-2.4086

> <Gold.PLP.part.metal>
0.0000

> <Gold.PLP.part.buried>
-3.8841

> <Gold.PLP.part.nonpolar>
-28.5750

> <Gold.PLP.part.repulsive>
0.1243

> <Gold.PLP.ligand.clash>
0.0000

> <Gold.PLP.ligand.torsion>
0.2976

> <Gold.PLP.Chemscore.Hbond>
2.0000

> <Gold.PLP.Chemscore.CHOScore>
0.0000

> <Gold.PLP.Chemscore.Metal>
0.0000

> <Gold.Chemscore.Hbonds>
donor molecule, donor type, donor heavy atom, donor atom, acceptor molecule, acceptor atom, score
      P1  H  6896  6907       L1    16  0.95
      P1  H  7997  8010       L1     7  1.00

> <Gold.PLP.Chemscore.Internal.Correction>
0.0331

> <Gold.Rescore>
     Score         DG    S(hbond)    S(metal)    S(lipo)     H(rot)  DE(clash)    DE(int)     intcor
     17.86     -19.58       1.83        0.00      90.07       1.00       0.02       1.70       ----

> <Gold.Chemscore.Fitness>
17.8554

> <Gold.Chemscore.DG>
-19.5765

> <Gold.Chemscore.ZeroCoef>
-5.4800

> <Gold.Chemscore.Hbond>
1.8317

> <Gold.Chemscore.Metal>
0.0000

> <Gold.Chemscore.Lipo>
90.0746

> <Gold.Chemscore.Internal_Hbond>
0.0000

> <Gold.Chemscore.DEClash>
0.0174

> <Gold.Chemscore.DEInternal>
1.7037

> <Gold.Chemscore.Rot>
1.0000

> <Gold.Chemscore.Internal.Correction>
   9.000000E+99

> <Gold.Chemscore.Hbonds>
donor molecule, donor type, donor heavy atom, donor atom, acceptor molecule, acceptor atom, score
      P1  H  6896  6907       L1    16  0.21
      P1  H  7997  8010       L1     7  0.95

> <Gold.Chemscore.Hbond.Weighted>
-6.1178

> <Gold.Chemscore.Metal.Weighted>
-0.0000

> <Gold.Chemscore.Lipo.Weighted>
-10.5387

> <Gold.Chemscore.Internal_Hbond.Weighted>
0.0000

> <Gold.Chemscore.DEClash.Weighted>
0.0174

> <Gold.Chemscore.DEInternal.Weighted>
1.7037

> <Gold.Chemscore.Rot.Weighted>
2.5600

> <Gold.Chemscore.Internal.Correction.Weighted>
   9.000000E+99

> <Gold.Protein.RotatedTorsions>
[ 6907 6896 6895 6894 ] final   36.10 input  -60.11 | X-H torsion
[ 7974 7965 7964 7962 ] final  177.21 input  175.53 | X-H torsion
[ 8008 7997 7996 7995 ] final  -12.05 input   59.86 | X-H torsion
[ 10167 10162 10161 10158 ] final   59.55 input  -65.29 | X-H torsion
[ 10718 10713 10712 10709 ] final   30.42 input   66.30 | X-H torsion
[ 10763 10752 10751 10750 ] final   36.12 input  -60.55 | X-H torsion
[ 11005 11000 10999 10996 ] final  130.43 input  -57.11 | X-H torsion

> <Gold.Protein.ActiveResidues>
 VAL166  LYS551  ARG553  GLY616  TRP617  ASP618  TYR619  PRO620  LYS621  CYS622 
 ASP623  PHE694  ASN695  SER759  ASP760  ASP761  ALA762  ILE779  LEU786  VAL792 
 PHE793  MET794  SER795  GLU796  ALA797  LYS798  CYS799  TRP800  GLU811  SER814 

> <Gold.Protein.RotatedAtoms>
  152.1251  134.9177  160.0561 H   0  0  0  0  0  0  0  0  0  0  0  0  # atno 6907 bound_to 6896
  152.0303  133.3929  159.4302 H   0  0  0  0  0  0  0  0  0  0  0  0  # atno 6908 bound_to 6896
  150.6852  134.3450  159.4928 H   0  0  0  0  0  0  0  0  0  0  0  0  # atno 6909 bound_to 6896
  144.7172  140.0212  143.6440 H   0  0  0  0  0  0  0  0  0  0  0  0  # atno 7974 bound_to 7965
  154.5411  140.2286  155.8639 H   0  0  0  0  0  0  0  0  0  0  0  0  # atno 8008 bound_to 7997
  156.1859  140.3089  155.9200 H   0  0  0  0  0  0  0  0  0  0  0  0  # atno 8009 bound_to 7997
  155.3255  140.0442  157.3031 H   0  0  0  0  0  0  0  0  0  0  0  0  # atno 8010 bound_to 7997
  140.1752  144.4237  150.6641 H   0  0  0  0  0  0  0  0  0  0  0  0  # atno 10167 bound_to 10162
  157.2594  130.7153  149.6446 H   0  0  0  0  0  0  0  0  0  0  0  0  # atno 10718 bound_to 10713
  153.0090  135.6314  154.1935 H   0  0  0  0  0  0  0  0  0  0  0  0  # atno 10763 bound_to 10752
  154.1678  135.2820  155.3092 H   0  0  0  0  0  0  0  0  0  0  0  0  # atno 10764 bound_to 10752
  154.5932  135.5611  153.7360 H   0  0  0  0  0  0  0  0  0  0  0  0  # atno 10765 bound_to 10752
  139.9671  134.9587  156.9292 H   0  0  0  0  0  0  0  0  0  0  0  0  # atno 11005 bound_to 11000
  146.0179  139.3225  143.0831 LP  0  0  0  0  0  0  0  0  0  0  0  0  # atno 17320 bound_to 7965
  145.8604  140.9478  143.0703 LP  0  0  0  0  0  0  0  0  0  0  0  0  # atno 17321 bound_to 7965
  140.6556  143.2236  151.5977 LP  0  0  0  0  0  0  0  0  0  0  0  0  # atno 17342 bound_to 10162
  139.5320  144.2889  152.1169 LP  0  0  0  0  0  0  0  0  0  0  0  0  # atno 17343 bound_to 10162
  155.9664  130.4402  150.5291 LP  0  0  0  0  0  0  0  0  0  0  0  0  # atno 17370 bound_to 10713
  157.3192  131.0678  151.1944 LP  0  0  0  0  0  0  0  0  0  0  0  0  # atno 17371 bound_to 10713
  140.5372  134.0755  155.7331 LP  0  0  0  0  0  0  0  0  0  0  0  0  # atno 17394 bound_to 11000
  141.1351  133.9235  157.2451 LP  0  0  0  0  0  0  0  0  0  0  0  0  # atno 17395 bound_to 11000

$$$$
