AV-unprocessed.smi:1034|AV-procd|sdf|4514|dock10
  -GOLD-   22720 2523D 1   1.00000     0.00000
 Structure written by MMmdl.
 39 40  0  0  0  0  0  0  0  0  1 V2000
  149.1884  132.4088  149.9432 O   0  0  0  0  0  0  0  0  0  0  0  0
  149.0747  133.4836  150.5331 C   0  0  0  0  0  0  0  0  0  0  0  0
  150.1097  134.2941  150.7965 N   0  0  0  0  0  0  0  0  0  0  0  0
  151.4936  134.0366  150.4167 C   0  0  0  0  0  0  0  0  0  0  0  0
  152.3956  135.2473  150.7074 C   0  0  0  0  0  0  0  0  0  0  0  0
  154.1312  134.9611  150.1396 S   0  0  0  0  0  0  0  0  0  0  0  0
  154.4242  133.5251  150.2651 O   0  0  0  0  0  0  0  0  0  0  0  0
  154.3247  135.6358  148.8464 O   0  0  0  0  0  0  0  0  0  0  0  0
  155.1078  135.7980  151.3162 N   0  0  0  0  0  0  0  0  0  0  0  0
  155.8700  135.0476  152.3369 C   0  0  0  0  0  0  0  0  0  0  0  0
  155.1683  135.0151  153.7044 C   0  0  0  0  0  0  0  0  0  0  0  0
  154.9078  136.6831  154.3583 S   0  0  0  0  0  0  0  0  0  0  0  0
  154.0138  137.3600  152.9381 C   0  0  0  0  0  0  0  0  0  0  0  0
  154.8233  137.2099  151.6388 C   0  0  0  0  0  0  0  0  0  0  0  0
  147.9229  134.0017  150.9948 N   0  0  0  0  0  0  0  0  0  0  0  0
  146.6144  133.4575  150.8992 C   0  0  0  0  0  0  0  0  0  0  0  0
  146.3150  132.8345  149.6665 C   0  0  0  0  0  0  0  0  0  0  0  0
  145.0445  132.2593  149.4716 C   0  0  0  0  0  0  0  0  0  0  0  0
  144.1038  132.3236  150.5149 C   0  0  0  0  0  0  0  0  0  0  0  0
  144.4816  132.9640  151.7095 C   0  0  0  0  0  0  0  0  0  0  0  0
  145.6993  133.5148  151.8990 N   0  0  0  0  0  0  0  0  0  0  0  0
  149.9254  135.1578  151.2856 H   0  0  0  0  0  0  0  0  0  0  0  0
  151.8664  133.1492  150.9312 H   0  0  0  0  0  0  0  0  0  0  0  0
  151.5075  133.8034  149.3526 H   0  0  0  0  0  0  0  0  0  0  0  0
  152.0141  136.1569  150.2514 H   0  0  0  0  0  0  0  0  0  0  0  0
  152.4318  135.4225  151.7829 H   0  0  0  0  0  0  0  0  0  0  0  0
  156.0598  134.0315  151.9940 H   0  0  0  0  0  0  0  0  0  0  0  0
  156.8503  135.5134  152.4451 H   0  0  0  0  0  0  0  0  0  0  0  0
  154.2138  134.4958  153.6443 H   0  0  0  0  0  0  0  0  0  0  0  0
  155.7767  134.4599  154.4184 H   0  0  0  0  0  0  0  0  0  0  0  0
  153.0491  136.8616  152.8602 H   0  0  0  0  0  0  0  0  0  0  0  0
  153.8084  138.4131  153.1296 H   0  0  0  0  0  0  0  0  0  0  0  0
  155.7693  137.7443  151.7317 H   0  0  0  0  0  0  0  0  0  0  0  0
  154.2897  137.6781  150.8120 H   0  0  0  0  0  0  0  0  0  0  0  0
  147.9880  134.8946  151.4607 H   0  0  0  0  0  0  0  0  0  0  0  0
  147.0495  132.7928  148.8751 H   0  0  0  0  0  0  0  0  0  0  0  0
  144.7970  131.7766  148.5378 H   0  0  0  0  0  0  0  0  0  0  0  0
  143.1193  131.8939  150.4033 H   0  0  0  0  0  0  0  0  0  0  0  0
  143.7888  133.0351  152.5350 H   0  0  0  0  0  0  0  0  0  0  0  0
  1  2  2  0  0  0  0
  2  3  1  0  0  0  0
  2 15  1  0  0  0  0
  3  4  1  0  0  0  0
  3 22  1  0  0  0  0
  4  5  1  0  0  0  0
  4 23  1  0  0  0  0
  4 24  1  0  0  0  0
  5  6  1  0  0  0  0
  5 25  1  0  0  0  0
  5 26  1  0  0  0  0
  6  7  2  0  0  0  0
  6  8  2  0  0  0  0
  6  9  1  0  0  0  0
  9 14  1  0  0  0  0
  9 10  1  0  0  0  0
 10 11  1  0  0  0  0
 10 27  1  0  0  0  0
 10 28  1  0  0  0  0
 11 12  1  0  0  0  0
 11 29  1  0  0  0  0
 11 30  1  0  0  0  0
 12 13  1  0  0  0  0
 13 14  1  0  0  0  0
 13 31  1  0  0  0  0
 13 32  1  0  0  0  0
 14 33  1  0  0  0  0
 14 34  1  0  0  0  0
 15 16  1  0  0  0  0
 15 35  1  0  0  0  0
 16 21  1  0  0  0  0
 16 17  2  0  0  0  0
 17 18  1  0  0  0  0
 17 36  1  0  0  0  0
 18 19  2  0  0  0  0
 18 37  1  0  0  0  0
 19 20  1  0  0  0  0
 19 38  1  0  0  0  0
 20 21  2  0  0  0  0
 20 39  1  0  0  0  0
M  END
> <s_m_source_file>
AV-unprocessed.smi

> <i_m_source_file_index>
1034

> <i_lp_mmshare_version>
43012

> <i_f3d_flags>
0

> <s_epik_input>
bjFbY0hdW2NIXVtjSF1bY0hdYzFbTkhdQyg9TylbTkhdW0NIMl1bQ0gyXVMoPU8pKD1PKU4yW0NIMl1bQ0gyXVNbQ0gyXVtDSDJdMg==

> <s_epik_cmdline>
J2VwaWtfcHl0aG9uJywgJy1waCcsICc3LjAnLCAnLXRuJywgJzgnLCAnLW1hJywgJzIwMCcsICctbWV0YWxfYmluZGluZycsICctaW1hZScsICc8aW5maWxlLm1hZT4nLCAnLW9tYWUnLCAnPG91dGZpbGUubWFlPic=

> <r_lp_tautomer_probability>
1

> <r_epik_Ionization_Penalty>
3.90463e-05

> <r_epik_Ionization_Penalty_Charging>
0

> <r_epik_Ionization_Penalty_Neutral>
3.90463e-05

> <r_epik_State_Penalty>
-0

> <r_epik_Charging_Adjusted_Penalty>
0

> <i_epik_Tot_Q>
0

> <i_epik_Tot_abs_Q>
0

> <r_epik_Metal_State_Penalty>
-0

> <b_epik_Metal_Only>
0

> <s_lp_Force_Field>
OPLS_2005

> <r_lp_Energy>
-0.604615

> <b_lp_Chiralities_Consistent>
1

> <s_lp_Variant>
AV-unprocessed.smi:1034-1

> <Gold.Version>
5.8.1

> <Gold.Id.Protein>
6NUR|6NUR_protein|mol2

> <Gold.PLP.Fitness>
44.7722

> <Gold.PLP.PLP>
-32.0941

> <Gold.PLP.part.hbond>
-4.1167

> <Gold.PLP.part.metal>
0.0000

> <Gold.PLP.part.buried>
-5.5395

> <Gold.PLP.part.nonpolar>
-23.1011

> <Gold.PLP.part.repulsive>
0.2129

> <Gold.PLP.ligand.clash>
0.0000

> <Gold.PLP.ligand.torsion>
1.9106

> <Gold.PLP.Chemscore.Hbond>
3.7920

> <Gold.PLP.Chemscore.CHOScore>
0.9999

> <Gold.PLP.Chemscore.Metal>
0.0000

> <Gold.Chemscore.Hbonds>
donor molecule, donor type, donor heavy atom, donor atom, acceptor molecule, acceptor atom, score
      L1  H    15    35       P1  7948  0.64
      L1  C    20    39       P1 10957  0.32

> <Gold.PLP.Chemscore.Internal.Correction>
2.1237

> <Gold.Rescore>
     Score         DG    S(hbond)    S(metal)    S(lipo)     H(rot)  DE(clash)    DE(int)     intcor
     19.08     -21.62       3.62        0.00      70.20       1.63       0.00       2.55       ----

> <Gold.Chemscore.Fitness>
19.0753

> <Gold.Chemscore.DG>
-21.6232

> <Gold.Chemscore.ZeroCoef>
-5.4800

> <Gold.Chemscore.Hbond>
3.6246

> <Gold.Chemscore.Metal>
0.0000

> <Gold.Chemscore.Lipo>
70.1987

> <Gold.Chemscore.Internal_Hbond>
0.0000

> <Gold.Chemscore.DEClash>
0.0000

> <Gold.Chemscore.DEInternal>
2.5479

> <Gold.Chemscore.Rot>
1.6313

> <Gold.Chemscore.Internal.Correction>
   9.000000E+99

> <Gold.Chemscore.Hbonds>
donor molecule, donor type, donor heavy atom, donor atom, acceptor molecule, acceptor atom, score
      L1  H    15    35       P1  7948  0.06

> <Gold.Chemscore.Hbond.Weighted>
-12.1061

> <Gold.Chemscore.Metal.Weighted>
-0.0000

> <Gold.Chemscore.Lipo.Weighted>
-8.2132

> <Gold.Chemscore.Internal_Hbond.Weighted>
0.0000

> <Gold.Chemscore.DEClash.Weighted>
0.0000

> <Gold.Chemscore.DEInternal.Weighted>
2.5479

> <Gold.Chemscore.Rot.Weighted>
4.1761

> <Gold.Chemscore.Internal.Correction.Weighted>
   9.000000E+99

> <Gold.Protein.RotatedTorsions>
[ 6907 6896 6895 6894 ] final   59.68 input  -60.11 | X-H torsion
[ 7974 7965 7964 7962 ] final  -34.45 input  175.53 | X-H torsion
[ 8008 7997 7996 7995 ] final  129.94 input   59.86 | X-H torsion
[ 10167 10162 10161 10158 ] final -103.85 input  -65.29 | X-H torsion
[ 10718 10713 10712 10709 ] final   99.05 input   66.30 | X-H torsion
[ 10763 10752 10751 10750 ] final  107.13 input  -60.55 | X-H torsion
[ 11005 11000 10999 10996 ] final  -85.62 input  -57.11 | X-H torsion

> <Gold.Protein.ActiveResidues>
 VAL166  LYS551  ARG553  GLY616  TRP617  ASP618  TYR619  PRO620  LYS621  CYS622 
 ASP623  PHE694  ASN695  SER759  ASP760  ASP761  ALA762  ILE779  LEU786  VAL792 
 PHE793  MET794  SER795  GLU796  ALA797  LYS798  CYS799  TRP800  GLU811  SER814 

> <Gold.Protein.RotatedAtoms>
  152.3936  134.6401  160.0097 H   0  0  0  0  0  0  0  0  0  0  0  0  # atno 6907 bound_to 6896
  151.6628  133.3311  159.3186 H   0  0  0  0  0  0  0  0  0  0  0  0  # atno 6908 bound_to 6896
  150.7848  134.6866  159.6518 H   0  0  0  0  0  0  0  0  0  0  0  0  # atno 6909 bound_to 6896
  146.0828  140.6040  142.8900 H   0  0  0  0  0  0  0  0  0  0  0  0  # atno 7974 bound_to 7965
  156.2946  140.2608  156.2681 H   0  0  0  0  0  0  0  0  0  0  0  0  # atno 8008 bound_to 7997
  154.9722  140.0391  157.2258 H   0  0  0  0  0  0  0  0  0  0  0  0  # atno 8009 bound_to 7997
  154.7848  140.2801  155.6040 H   0  0  0  0  0  0  0  0  0  0  0  0  # atno 8010 bound_to 7997
  140.2155  143.3714  152.1014 H   0  0  0  0  0  0  0  0  0  0  0  0  # atno 10167 bound_to 10162
  157.6884  131.0658  150.4889 H   0  0  0  0  0  0  0  0  0  0  0  0  # atno 10718 bound_to 10713
  153.4025  135.3854  155.1997 H   0  0  0  0  0  0  0  0  0  0  0  0  # atno 10763 bound_to 10752
  154.8730  135.3774  154.4601 H   0  0  0  0  0  0  0  0  0  0  0  0  # atno 10764 bound_to 10752
  153.5100  135.7087  153.5848 H   0  0  0  0  0  0  0  0  0  0  0  0  # atno 10765 bound_to 10752
  141.1639  133.7409  156.9042 H   0  0  0  0  0  0  0  0  0  0  0  0  # atno 11005 bound_to 11000
  144.7305  140.4656  143.6941 LP  0  0  0  0  0  0  0  0  0  0  0  0  # atno 17320 bound_to 7965
  145.6186  139.1521  143.3035 LP  0  0  0  0  0  0  0  0  0  0  0  0  # atno 17321 bound_to 7965
  139.5163  144.6976  151.5586 LP  0  0  0  0  0  0  0  0  0  0  0  0  # atno 17342 bound_to 10162
  140.6293  143.9108  150.6591 LP  0  0  0  0  0  0  0  0  0  0  0  0  # atno 17343 bound_to 10162
  156.5217  130.4163  149.6247 LP  0  0  0  0  0  0  0  0  0  0  0  0  # atno 17370 bound_to 10713
  156.3148  130.7249  151.2149 LP  0  0  0  0  0  0  0  0  0  0  0  0  # atno 17371 bound_to 10713
  140.1562  134.9197  157.2656 LP  0  0  0  0  0  0  0  0  0  0  0  0  # atno 17394 bound_to 11000
  140.2665  134.3510  155.7388 LP  0  0  0  0  0  0  0  0  0  0  0  0  # atno 17395 bound_to 11000

$$$$
