AV-unprocessed.smi:2307|AV-procd|sdf|9251|dock4
  -GOLD-   2272012473D 1   1.00000     0.00000
 Structure written by MMmdl.
 38 39  0  0  0  0  0  0  0  0  1 V2000
  152.2267  145.0271  160.3001 C   0  0  0  0  0  0  0  0  0  0  0  0
  151.9643  143.7556  159.5127 C   0  0  0  0  0  0  0  0  0  0  0  0
  151.0612  143.8776  158.4526 N   0  0  0  0  0  0  0  0  0  0  0  0
  150.7787  142.8473  157.7242 C   0  0  0  0  0  0  0  0  0  0  0  0
  151.3601  141.5921  157.9653 N   0  0  0  0  0  0  0  0  0  0  0  0
  150.9557  140.5015  157.0625 C   0  0  0  0  0  0  0  0  0  0  0  0
  150.4918  141.0233  155.6847 C   0  0  1  0  0  0  0  0  0  0  0  0
  150.9025  140.1050  154.6906 O   0  0  0  0  0  0  0  0  0  0  0  0
  148.9850  141.2297  155.6617 C   0  0  0  0  0  0  0  0  0  0  0  0
  148.2369  141.0728  156.8461 C   0  0  0  0  0  0  0  0  0  0  0  0
  146.8405  141.2513  156.8323 C   0  0  0  0  0  0  0  0  0  0  0  0
  146.1650  141.5867  155.6411 C   0  0  0  0  0  0  0  0  0  0  0  0
  144.7962  141.7424  155.7245 O   0  0  0  0  0  0  0  0  0  0  0  0
  144.2294  142.9783  155.7803 C   0  0  0  0  0  0  0  0  0  0  0  0
  144.7459  143.6634  156.8290 F   0  0  0  0  0  0  0  0  0  0  0  0
  144.4920  143.7070  154.6663 F   0  0  0  0  0  0  0  0  0  0  0  0
  142.8882  142.9129  155.9743 F   0  0  0  0  0  0  0  0  0  0  0  0
  146.9204  141.7382  154.4509 C   0  0  0  0  0  0  0  0  0  0  0  0
  148.3172  141.5588  154.4631 C   0  0  0  0  0  0  0  0  0  0  0  0
  152.2429  141.3832  158.9848 C   0  0  0  0  0  0  0  0  0  0  0  0
  152.7352  140.2731  159.1966 O   0  0  0  0  0  0  0  0  0  0  0  0
  152.5569  142.5654  159.8034 C   0  0  0  0  0  0  0  0  0  0  0  0
  153.5477  142.3726  160.9447 C   0  0  0  0  0  0  0  0  0  0  0  0
  153.2828  145.2938  160.2539 H   0  0  0  0  0  0  0  0  0  0  0  0
  151.9451  144.8945  161.3450 H   0  0  0  0  0  0  0  0  0  0  0  0
  151.6529  145.8660  159.9038 H   0  0  0  0  0  0  0  0  0  0  0  0
  150.0770  142.8881  156.8893 H   0  0  0  0  0  0  0  0  0  0  0  0
  151.7345  139.7450  156.9451 H   0  0  0  0  0  0  0  0  0  0  0  0
  150.1320  139.9647  157.5375 H   0  0  0  0  0  0  0  0  0  0  0  0
  150.9673  141.9796  155.4627 H   0  0  0  0  0  0  0  0  0  0  0  0
  150.2170  139.4648  154.5739 H   0  0  0  0  0  0  0  0  0  0  0  0
  148.7306  140.8115  157.7707 H   0  0  0  0  0  0  0  0  0  0  0  0
  146.2808  141.1283  157.7479 H   0  0  0  0  0  0  0  0  0  0  0  0
  146.4512  141.9907  153.5127 H   0  0  0  0  0  0  0  0  0  0  0  0
  148.8743  141.6727  153.5448 H   0  0  0  0  0  0  0  0  0  0  0  0
  153.1736  141.6260  161.6464 H   0  0  0  0  0  0  0  0  0  0  0  0
  153.7379  143.2849  161.5076 H   0  0  0  0  0  0  0  0  0  0  0  0
  154.5042  142.0220  160.5559 H   0  0  0  0  0  0  0  0  0  0  0  0
  1  2  1  0  0  0  0
  1 24  1  0  0  0  0
  1 25  1  0  0  0  0
  1 26  1  0  0  0  0
  2 22  2  0  0  0  0
  2  3  1  0  0  0  0
  3  4  2  0  0  0  0
  4  5  1  0  0  0  0
  4 27  1  0  0  0  0
  5  6  1  0  0  0  0
  5 20  1  0  0  0  0
  6  7  1  0  0  0  0
  6 28  1  0  0  0  0
  6 29  1  0  0  0  0
  7  8  1  0  0  0  0
  7  9  1  0  0  0  0
  7 30  1  0  0  0  0
  8 31  1  0  0  0  0
  9 19  1  0  0  0  0
  9 10  2  0  0  0  0
 10 11  1  0  0  0  0
 10 32  1  0  0  0  0
 11 12  2  0  0  0  0
 11 33  1  0  0  0  0
 12 13  1  0  0  0  0
 12 18  1  0  0  0  0
 13 14  1  0  0  0  0
 14 15  1  0  0  0  0
 14 16  1  0  0  0  0
 14 17  1  0  0  0  0
 18 19  2  0  0  0  0
 18 34  1  0  0  0  0
 19 35  1  0  0  0  0
 20 21  2  0  0  0  0
 20 22  1  0  0  0  0
 22 23  1  0  0  0  0
 23 36  1  0  0  0  0
 23 37  1  0  0  0  0
 23 38  1  0  0  0  0
M  END
> <s_m_source_file>
AV-unprocessed.smi

> <i_m_source_file_index>
2307

> <i_lp_mmshare_version>
43012

> <i_f3d_flags>
0

> <s_epik_input>
W0NIM11jMW5bY0hdbihjKD1PKWMxW0NIM10pW0NIMl1bQ0BIXShbT0hdKWMyW2NIXVtjSF1jKE9DKEYpKEYpRilbY0hdW2NIXTI=

> <s_epik_cmdline>
J2VwaWtfcHl0aG9uJywgJy1waCcsICc3LjAnLCAnLXRuJywgJzgnLCAnLW1hJywgJzIwMCcsICctbWV0YWxfYmluZGluZycsICctaW1hZScsICc8aW5maWxlLm1hZT4nLCAnLW9tYWUnLCAnPG91dGZpbGUubWFlPic=

> <r_lp_tautomer_probability>
1

> <r_epik_Ionization_Penalty>
5.07003e-05

> <r_epik_Ionization_Penalty_Charging>
7.56727e-08

> <r_epik_Ionization_Penalty_Neutral>
5.06246e-05

> <r_epik_State_Penalty>
-0

> <r_epik_Charging_Adjusted_Penalty>
7.56727e-08

> <i_epik_Tot_Q>
0

> <i_epik_Tot_abs_Q>
0

> <r_epik_Metal_State_Penalty>
-0

> <b_epik_Metal_Only>
0

> <s_lp_Force_Field>
OPLS_2005

> <r_lp_Energy>
18.0652

> <b_lp_Chiralities_Consistent>
1

> <s_lp_Variant>
AV-unprocessed.smi:2307-2

> <Gold.Version>
5.8.1

> <Gold.Id.Protein>
6NUR|6NUR_protein|mol2

> <Gold.PLP.Fitness>
50.3450

> <Gold.PLP.PLP>
-46.5705

> <Gold.PLP.part.hbond>
-1.0000

> <Gold.PLP.part.metal>
0.0000

> <Gold.PLP.part.buried>
-7.0154

> <Gold.PLP.part.nonpolar>
-38.8831

> <Gold.PLP.part.repulsive>
0.2891

> <Gold.PLP.ligand.clash>
0.0000

> <Gold.PLP.ligand.torsion>
1.1935

> <Gold.PLP.Chemscore.Hbond>
1.0000

> <Gold.PLP.Chemscore.CHOScore>
1.0000

> <Gold.PLP.Chemscore.Metal>
0.0000

> <Gold.Chemscore.Hbonds>
donor molecule, donor type, donor heavy atom, donor atom, acceptor molecule, acceptor atom, score
      P1  H  7989  7998       L1     8  1.00
      L1  C     4    27       P1  8028  1.00

> <Gold.PLP.Chemscore.Internal.Correction>
0.1615

> <Gold.Rescore>
     Score         DG    S(hbond)    S(metal)    S(lipo)     H(rot)  DE(clash)    DE(int)     intcor
     10.79     -12.10       0.91        0.00      89.29       2.69       0.03       1.28       ----

> <Gold.Chemscore.Fitness>
10.7929

> <Gold.Chemscore.DG>
-12.1019

> <Gold.Chemscore.ZeroCoef>
-5.4800

> <Gold.Chemscore.Hbond>
0.9131

> <Gold.Chemscore.Metal>
0.0000

> <Gold.Chemscore.Lipo>
89.2928

> <Gold.Chemscore.Internal_Hbond>
0.0000

> <Gold.Chemscore.DEClash>
0.0267

> <Gold.Chemscore.DEInternal>
1.2823

> <Gold.Chemscore.Rot>
2.6856

> <Gold.Chemscore.Internal.Correction>
   9.000000E+99

> <Gold.Chemscore.Hbonds>
donor molecule, donor type, donor heavy atom, donor atom, acceptor molecule, acceptor atom, score
      P1  H  7989  7998       L1     8  0.73

> <Gold.Chemscore.Hbond.Weighted>
-3.0498

> <Gold.Chemscore.Metal.Weighted>
-0.0000

> <Gold.Chemscore.Lipo.Weighted>
-10.4473

> <Gold.Chemscore.Internal_Hbond.Weighted>
0.0000

> <Gold.Chemscore.DEClash.Weighted>
0.0267

> <Gold.Chemscore.DEInternal.Weighted>
1.2823

> <Gold.Chemscore.Rot.Weighted>
6.8751

> <Gold.Chemscore.Internal.Correction.Weighted>
   9.000000E+99

> <Gold.Protein.RotatedTorsions>
[ 6907 6896 6895 6894 ] final   44.25 input  -60.11 | X-H torsion
[ 7974 7965 7964 7962 ] final  110.78 input  175.53 | X-H torsion
[ 8008 7997 7996 7995 ] final  107.37 input   59.86 | X-H torsion
[ 10167 10162 10161 10158 ] final  -17.68 input  -65.29 | X-H torsion
[ 10718 10713 10712 10709 ] final   18.05 input   66.30 | X-H torsion
[ 10763 10752 10751 10750 ] final   40.89 input  -60.55 | X-H torsion
[ 11005 11000 10999 10996 ] final  -51.24 input  -57.11 | X-H torsion

> <Gold.Protein.ActiveResidues>
 VAL166  LYS551  ARG553  GLY616  TRP617  ASP618  TYR619  PRO620  LYS621  CYS622 
 ASP623  PHE694  ASN695  SER759  ASP760  ASP761  ALA762  ILE779  LEU786  VAL792 
 PHE793  MET794  SER795  GLU796  ALA797  LYS798  CYS799  TRP800  GLU811  SER814 

> <Gold.Protein.RotatedAtoms>
  152.2302  134.8329  160.0474 H   0  0  0  0  0  0  0  0  0  0  0  0  # atno 6907 bound_to 6896
  151.9080  133.3549  159.3862 H   0  0  0  0  0  0  0  0  0  0  0  0  # atno 6908 bound_to 6896
  150.7023  134.4686  159.5459 H   0  0  0  0  0  0  0  0  0  0  0  0  # atno 6909 bound_to 6896
  145.2506  139.2741  143.4069 H   0  0  0  0  0  0  0  0  0  0  0  0  # atno 7974 bound_to 7965
  156.1819  140.3096  155.9165 H   0  0  0  0  0  0  0  0  0  0  0  0  # atno 8008 bound_to 7997
  155.3365  140.0463  157.3061 H   0  0  0  0  0  0  0  0  0  0  0  0  # atno 8009 bound_to 7997
  154.5352  140.2243  155.8745 H   0  0  0  0  0  0  0  0  0  0  0  0  # atno 8010 bound_to 7997
  140.7250  143.4991  150.9892 H   0  0  0  0  0  0  0  0  0  0  0  0  # atno 10167 bound_to 10162
  157.0908  130.6427  149.5848 H   0  0  0  0  0  0  0  0  0  0  0  0  # atno 10718 bound_to 10713
  152.9923  135.6178  154.2699 H   0  0  0  0  0  0  0  0  0  0  0  0  # atno 10763 bound_to 10752
  154.2432  135.2788  155.2847 H   0  0  0  0  0  0  0  0  0  0  0  0  # atno 10764 bound_to 10752
  154.5351  135.5777  153.6849 H   0  0  0  0  0  0  0  0  0  0  0  0  # atno 10765 bound_to 10752
  141.0860  133.6642  156.3848 H   0  0  0  0  0  0  0  0  0  0  0  0  # atno 11005 bound_to 11000
  146.3303  140.2896  142.8614 LP  0  0  0  0  0  0  0  0  0  0  0  0  # atno 17320 bound_to 7965
  144.9506  140.8174  143.5574 LP  0  0  0  0  0  0  0  0  0  0  0  0  # atno 17321 bound_to 7965
  139.8700  143.7205  152.3167 LP  0  0  0  0  0  0  0  0  0  0  0  0  # atno 17342 bound_to 10162
  139.7450  144.7549  151.0593 LP  0  0  0  0  0  0  0  0  0  0  0  0  # atno 17343 bound_to 10162
  155.9898  130.4947  150.7232 LP  0  0  0  0  0  0  0  0  0  0  0  0  # atno 17370 bound_to 10713
  157.4723  131.0894  151.0629 LP  0  0  0  0  0  0  0  0  0  0  0  0  # atno 17371 bound_to 10713
  140.5362  134.6165  157.5365 LP  0  0  0  0  0  0  0  0  0  0  0  0  # atno 17394 bound_to 11000
  139.9678  134.7343  156.0102 LP  0  0  0  0  0  0  0  0  0  0  0  0  # atno 17395 bound_to 11000

$$$$
