AV-unprocessed.smi:1295|AV-procd|sdf|5409|dock10
  -GOLD-   22720 4563D 1   1.00000     0.00000
 Structure written by MMmdl.
 42 43  0  0  0  0  0  0  0  0  2 V2000
  150.4473  134.9071  155.1280 C   0  0  0  0  0  0  0  0  0  0  0  0
  150.7487  136.3879  155.2135 C   0  0  0  0  0  0  0  0  0  0  0  0
  149.8675  137.2289  154.8255 N   0  0  0  0  0  0  0  0  0  0  0  0
  150.1416  138.6047  154.9075 C   0  0  0  0  0  0  0  0  0  0  0  0
  149.0389  139.5308  154.4238 C   0  0  0  0  0  0  0  0  0  0  0  0
  151.3312  139.0595  155.3959 C   0  0  0  0  0  0  0  0  0  0  0  0
  151.6750  140.5445  155.5053 C   0  0  0  0  0  0  0  0  0  0  0  0
  151.0552  141.2815  156.6942 C   0  0  0  0  0  0  0  0  0  0  0  0
  149.8324  141.3779  156.7968 O   0  0  0  0  0  0  0  0  0  0  0  0
  151.9173  141.7997  157.5828 N   0  0  0  0  0  0  0  0  0  0  0  0
  151.5656  142.5800  158.7680 C   0  0  2  0  0  0  0  0  0  0  0  0
  150.9955  143.9363  158.3084 C   0  0  0  0  0  0  0  0  0  0  0  0
  150.6623  144.8483  159.4977 C   0  0  0  0  0  0  0  0  0  0  0  0
  151.8894  145.0478  160.3968 C   0  0  0  0  0  0  0  0  0  0  0  0
  152.4448  143.6983  160.8752 C   0  0  0  0  0  0  0  0  0  0  0  0
  152.7939  142.7676  159.6960 C   0  0  1  0  0  0  0  0  0  0  0  0
  153.3571  141.4328  160.2162 C   0  0  0  0  0  0  0  0  0  0  0  0
  152.3190  138.0573  155.8343 C   0  0  0  0  0  0  0  0  0  0  0  0
  153.4040  138.4126  156.2928 O   0  0  0  0  0  0  0  0  0  0  0  0
  151.9814  136.7417  155.7140 N   0  5  0  0  0  0  0  0  0  0  0  0
  149.3935  134.7326  154.9071 H   0  0  0  0  0  0  0  0  0  0  0  0
  150.6825  134.4156  156.0726 H   0  0  0  0  0  0  0  0  0  0  0  0
  151.0446  134.4475  154.3404 H   0  0  0  0  0  0  0  0  0  0  0  0
  149.3810  140.1219  153.5742 H   0  0  0  0  0  0  0  0  0  0  0  0
  148.7302  140.2097  155.2190 H   0  0  0  0  0  0  0  0  0  0  0  0
  148.1605  138.9668  154.1075 H   0  0  0  0  0  0  0  0  0  0  0  0
  152.7545  140.6934  155.5401 H   0  0  0  0  0  0  0  0  0  0  0  0
  151.3607  141.0336  154.5827 H   0  0  0  0  0  0  0  0  0  0  0  0
  152.9026  141.6615  157.4113 H   0  0  0  0  0  0  0  0  0  0  0  0
  150.7841  142.0695  159.3341 H   0  0  0  0  0  0  0  0  0  0  0  0
  151.7148  144.4399  157.6608 H   0  0  0  0  0  0  0  0  0  0  0  0
  150.0987  143.7782  157.7076 H   0  0  0  0  0  0  0  0  0  0  0  0
  150.3039  145.8129  159.1376 H   0  0  0  0  0  0  0  0  0  0  0  0
  149.8489  144.4115  160.0785 H   0  0  0  0  0  0  0  0  0  0  0  0
  152.6621  145.5902  159.8503 H   0  0  0  0  0  0  0  0  0  0  0  0
  151.6248  145.6662  161.2550 H   0  0  0  0  0  0  0  0  0  0  0  0
  153.3291  143.8687  161.4900 H   0  0  0  0  0  0  0  0  0  0  0  0
  151.7109  143.2138  161.5207 H   0  0  0  0  0  0  0  0  0  0  0  0
  153.5831  143.2517  159.1186 H   0  0  0  0  0  0  0  0  0  0  0  0
  152.5998  140.8721  160.7648 H   0  0  0  0  0  0  0  0  0  0  0  0
  154.1997  141.5979  160.8881 H   0  0  0  0  0  0  0  0  0  0  0  0
  153.7145  140.8011  159.4030 H   0  0  0  0  0  0  0  0  0  0  0  0
  1  2  1  0  0  0  0
  1 21  1  0  0  0  0
  1 22  1  0  0  0  0
  1 23  1  0  0  0  0
  2 20  1  0  0  0  0
  2  3  2  0  0  0  0
  3  4  1  0  0  0  0
  4  5  1  0  0  0  0
  4  6  2  0  0  0  0
  5 24  1  0  0  0  0
  5 25  1  0  0  0  0
  5 26  1  0  0  0  0
  6  7  1  0  0  0  0
  6 18  1  0  0  0  0
  7  8  1  0  0  0  0
  7 27  1  0  0  0  0
  7 28  1  0  0  0  0
  8  9  2  0  0  0  0
  8 10  1  0  0  0  0
 10 11  1  0  0  0  0
 10 29  1  0  0  0  0
 11 16  1  0  0  0  0
 11 12  1  0  0  0  0
 11 30  1  0  0  0  0
 12 13  1  0  0  0  0
 12 31  1  0  0  0  0
 12 32  1  0  0  0  0
 13 14  1  0  0  0  0
 13 33  1  0  0  0  0
 13 34  1  0  0  0  0
 14 15  1  0  0  0  0
 14 35  1  0  0  0  0
 14 36  1  0  0  0  0
 15 16  1  0  0  0  0
 15 37  1  0  0  0  0
 15 38  1  0  0  0  0
 16 17  1  0  0  0  0
 16 39  1  0  0  0  0
 17 40  1  0  0  0  0
 17 41  1  0  0  0  0
 17 42  1  0  0  0  0
 18 19  2  0  0  0  0
 18 20  1  0  0  0  0
M  CHG  1  20  -1
M  END
> <s_m_source_file>
AV-unprocessed.smi

> <i_m_source_file_index>
1295

> <i_lp_mmshare_version>
43012

> <i_f3d_flags>
0

> <s_epik_input>
W0NIM11jMW5jKFtDSDNdKWMoYyg9TylbbkhdMSlbQ0gyXUMoPU8pW05IXVtDQEBIXTJbQ0gyXVtDSDJdW0NIMl1bQ0gyXVtDQEhdMltDSDNd

> <s_epik_cmdline>
J2VwaWtfcHl0aG9uJywgJy1waCcsICc3LjAnLCAnLXRuJywgJzgnLCAnLW1hJywgJzIwMCcsICctbWV0YWxfYmluZGluZycsICctaW1hZScsICc8aW5maWxlLm1hZT4nLCAnLW9tYWUnLCAnPG91dGZpbGUubWFlPic=

> <r_lp_tautomer_probability>
0.839158

> <r_epik_Ionization_Penalty>
6.67742

> <r_epik_Ionization_Penalty_Charging>
7.78154e-08

> <r_epik_Ionization_Penalty_Neutral>
6.67742

> <r_epik_State_Penalty>
4.51991

> <r_epik_Charging_Adjusted_Penalty>
4.51991

> <i_epik_Tot_Q>
-1

> <i_epik_Tot_abs_Q>
1

> <r_epik_Metal_State_Penalty>
0.853272

> <b_epik_Metal_Only>
1

> <s_lp_Force_Field>
OPLS_2005

> <r_lp_Energy>
15.3241

> <b_lp_Chiralities_Consistent>
1

> <s_lp_Variant>
AV-unprocessed.smi:1295-9

> <Gold.Version>
5.8.1

> <Gold.Id.Protein>
6NUR|6NUR_protein|mol2

> <Gold.PLP.Fitness>
47.8568

> <Gold.PLP.PLP>
-39.9193

> <Gold.PLP.part.hbond>
-2.0000

> <Gold.PLP.part.metal>
0.0000

> <Gold.PLP.part.buried>
-2.5818

> <Gold.PLP.part.nonpolar>
-34.9224

> <Gold.PLP.part.repulsive>
0.3833

> <Gold.PLP.ligand.clash>
0.0000

> <Gold.PLP.ligand.torsion>
0.3539

> <Gold.PLP.Chemscore.Hbond>
2.8800

> <Gold.PLP.Chemscore.CHOScore>
0.0000

> <Gold.PLP.Chemscore.Metal>
0.0000

> <Gold.Chemscore.Hbonds>
donor molecule, donor type, donor heavy atom, donor atom, acceptor molecule, acceptor atom, score
      P1  H  7997  8008       L1    19  0.86
      P1  H 10752 10764       L1    20  1.70

> <Gold.PLP.Chemscore.Internal.Correction>
0.0052

> <Gold.Rescore>
     Score         DG    S(hbond)    S(metal)    S(lipo)     H(rot)  DE(clash)    DE(int)     intcor
     17.62     -19.19       1.47        0.00     106.77       1.45       1.21       0.35       ----

> <Gold.Chemscore.Fitness>
17.6244

> <Gold.Chemscore.DG>
-19.1885

> <Gold.Chemscore.ZeroCoef>
-5.4800

> <Gold.Chemscore.Hbond>
1.4719

> <Gold.Chemscore.Metal>
0.0000

> <Gold.Chemscore.Lipo>
106.7651

> <Gold.Chemscore.Internal_Hbond>
0.0000

> <Gold.Chemscore.DEClash>
1.2092

> <Gold.Chemscore.DEInternal>
0.3549

> <Gold.Chemscore.Rot>
1.4450

> <Gold.Chemscore.Internal.Correction>
   9.000000E+99

> <Gold.Chemscore.Hbonds>
donor molecule, donor type, donor heavy atom, donor atom, acceptor molecule, acceptor atom, score
      P1  H  7997  8008       L1    19  0.84
      P1  H 10752 10764       L1    20  0.14

> <Gold.Chemscore.Hbond.Weighted>
-4.9162

> <Gold.Chemscore.Metal.Weighted>
-0.0000

> <Gold.Chemscore.Lipo.Weighted>
-12.4915

> <Gold.Chemscore.Internal_Hbond.Weighted>
0.0000

> <Gold.Chemscore.DEClash.Weighted>
1.2092

> <Gold.Chemscore.DEInternal.Weighted>
0.3549

> <Gold.Chemscore.Rot.Weighted>
3.6992

> <Gold.Chemscore.Internal.Correction.Weighted>
   9.000000E+99

> <Gold.Protein.RotatedTorsions>
[ 6907 6896 6895 6894 ] final -153.77 input  -60.11 | X-H torsion
[ 7974 7965 7964 7962 ] final   93.01 input  175.53 | X-H torsion
[ 8008 7997 7996 7995 ] final  -49.17 input   59.86 | X-H torsion
[ 10167 10162 10161 10158 ] final  -30.54 input  -65.29 | X-H torsion
[ 10718 10713 10712 10709 ] final   85.77 input   66.30 | X-H torsion
[ 10763 10752 10751 10750 ] final  -55.12 input  -60.55 | X-H torsion
[ 11005 11000 10999 10996 ] final  -22.72 input  -57.11 | X-H torsion

> <Gold.Protein.ActiveResidues>
 VAL166  LYS551  ARG553  GLY616  TRP617  ASP618  TYR619  PRO620  LYS621  CYS622 
 ASP623  PHE694  ASN695  SER759  ASP760  ASP761  ALA762  ILE779  LEU786  VAL792 
 PHE793  MET794  SER795  GLU796  ALA797  LYS798  CYS799  TRP800  GLU811  SER814 

> <Gold.Protein.RotatedAtoms>
  151.2476  133.4367  159.2609 H   0  0  0  0  0  0  0  0  0  0  0  0  # atno 6907 bound_to 6896
  151.0647  134.9760  159.8289 H   0  0  0  0  0  0  0  0  0  0  0  0  # atno 6908 bound_to 6896
  152.5403  134.2424  159.8920 H   0  0  0  0  0  0  0  0  0  0  0  0  # atno 6909 bound_to 6896
  145.4847  139.2277  143.2863 H   0  0  0  0  0  0  0  0  0  0  0  0  # atno 7974 bound_to 7965
  154.4040  140.1303  156.4458 H   0  0  0  0  0  0  0  0  0  0  0  0  # atno 8008 bound_to 7997
  155.7414  140.3490  155.5086 H   0  0  0  0  0  0  0  0  0  0  0  0  # atno 8009 bound_to 7997
  155.9035  140.1023  157.1322 H   0  0  0  0  0  0  0  0  0  0  0  0  # atno 8010 bound_to 7997
  140.7248  143.3841  151.1547 H   0  0  0  0  0  0  0  0  0  0  0  0  # atno 10167 bound_to 10162
  157.6919  131.0188  150.2872 H   0  0  0  0  0  0  0  0  0  0  0  0  # atno 10718 bound_to 10713
  154.1858  135.6436  153.5046 H   0  0  0  0  0  0  0  0  0  0  0  0  # atno 10763 bound_to 10752
  153.0047  135.5417  154.6467 H   0  0  0  0  0  0  0  0  0  0  0  0  # atno 10764 bound_to 10752
  154.5843  135.2928  155.0674 H   0  0  0  0  0  0  0  0  0  0  0  0  # atno 10765 bound_to 10752
  140.8683  133.7738  156.0156 H   0  0  0  0  0  0  0  0  0  0  0  0  # atno 11005 bound_to 11000
  146.2320  140.5636  142.8971 LP  0  0  0  0  0  0  0  0  0  0  0  0  # atno 17320 bound_to 7965
  144.7868  140.5953  143.6568 LP  0  0  0  0  0  0  0  0  0  0  0  0  # atno 17321 bound_to 7965
  139.7435  143.8888  152.3057 LP  0  0  0  0  0  0  0  0  0  0  0  0  # atno 17342 bound_to 10162
  139.8717  144.7064  150.8980 LP  0  0  0  0  0  0  0  0  0  0  0  0  # atno 17343 bound_to 10162
  156.3409  130.3815  149.7410 LP  0  0  0  0  0  0  0  0  0  0  0  0  # atno 17370 bound_to 10713
  156.4919  130.8089  151.3098 LP  0  0  0  0  0  0  0  0  0  0  0  0  # atno 17371 bound_to 10713
  140.8603  134.2849  157.5237 LP  0  0  0  0  0  0  0  0  0  0  0  0  # atno 17394 bound_to 11000
  139.8710  134.9514  156.4085 LP  0  0  0  0  0  0  0  0  0  0  0  0  # atno 17395 bound_to 11000

$$$$
