AV-unprocessed.smi:3348|AV-procd|sdf|12920|dock1
  -GOLD-   2272019343D 1   1.00000     0.00000
 Structure written by MMmdl.
 47 48  0  0  0  0  0  0  0  0  2 V2000
  144.0057  136.1841  152.2073 C   0  0  0  0  0  0  0  0  0  0  0  0
  145.3997  135.9141  151.6259 C   0  0  1  0  0  0  0  0  0  0  0  0
  145.3074  135.1292  150.3019 C   0  0  0  0  0  0  0  0  0  0  0  0
  144.9982  133.7249  150.5066 N   0  0  0  0  0  0  0  0  0  0  0  0
  143.8038  133.1584  150.8996 C   0  0  0  0  0  0  0  0  0  0  0  0
  143.9974  131.8084  150.9647 C   0  0  0  0  0  0  0  0  0  0  0  0
  145.3591  131.6424  150.5868 C   0  0  0  0  0  0  0  0  0  0  0  0
  145.9562  132.7916  150.3147 N   0  0  0  0  0  0  0  0  0  0  0  0
  146.1086  137.1977  151.4257 N   0  3  0  0  0  0  0  0  0  0  0  0
  145.9153  138.1883  152.5044 C   0  0  0  0  0  0  0  0  0  0  0  0
  147.1267  139.1176  152.6136 C   0  0  0  0  0  0  0  0  0  0  0  0
  146.8838  140.0595  153.6469 O   0  0  0  0  0  0  0  0  0  0  0  0
  147.8079  141.1418  153.6839 C   0  0  2  0  0  0  0  0  0  0  0  0
  149.0872  140.6429  154.3812 C   0  0  0  0  0  0  0  0  0  0  0  0
  148.8430  140.3138  155.8636 C   0  0  0  0  0  0  0  0  0  0  0  0
  148.2390  141.5137  156.6080 C   0  0  0  0  0  0  0  0  0  0  0  0
  146.9525  142.0039  155.9249 C   0  0  0  0  0  0  0  0  0  0  0  0
  147.1934  142.3434  154.4405 C   0  0  2  0  0  0  0  0  0  0  0  0
  145.9208  142.8797  153.7670 C   0  0  0  0  0  0  0  0  0  0  0  0
  143.4709  135.2525  152.3941 H   0  0  0  0  0  0  0  0  0  0  0  0
  143.3997  136.7842  151.5273 H   0  0  0  0  0  0  0  0  0  0  0  0
  144.0727  136.7196  153.1549 H   0  0  0  0  0  0  0  0  0  0  0  0
  145.9445  135.3065  152.3511 H   0  0  0  0  0  0  0  0  0  0  0  0
  144.5271  135.5546  149.6692 H   0  0  0  0  0  0  0  0  0  0  0  0
  146.2389  135.2090  149.7388 H   0  0  0  0  0  0  0  0  0  0  0  0
  142.9262  133.7559  151.0989 H   0  0  0  0  0  0  0  0  0  0  0  0
  143.2756  131.0535  151.2389 H   0  0  0  0  0  0  0  0  0  0  0  0
  145.9274  130.7277  150.5037 H   0  0  0  0  0  0  0  0  0  0  0  0
  147.0962  137.0010  151.3443 H   0  0  0  0  0  0  0  0  0  0  0  0
  145.0088  138.7653  152.3180 H   0  0  0  0  0  0  0  0  0  0  0  0
  145.7771  137.6633  153.4504 H   0  0  0  0  0  0  0  0  0  0  0  0
  148.0180  138.5367  152.8545 H   0  0  0  0  0  0  0  0  0  0  0  0
  147.3081  139.6166  151.6607 H   0  0  0  0  0  0  0  0  0  0  0  0
  148.0785  141.4562  152.6737 H   0  0  0  0  0  0  0  0  0  0  0  0
  149.4757  139.7651  153.8640 H   0  0  0  0  0  0  0  0  0  0  0  0
  149.8603  141.4087  154.3066 H   0  0  0  0  0  0  0  0  0  0  0  0
  148.1720  139.4578  155.9451 H   0  0  0  0  0  0  0  0  0  0  0  0
  149.7792  140.0169  156.3366 H   0  0  0  0  0  0  0  0  0  0  0  0
  148.0294  141.2417  157.6428 H   0  0  0  0  0  0  0  0  0  0  0  0
  148.9666  142.3254  156.6431 H   0  0  0  0  0  0  0  0  0  0  0  0
  146.1792  141.2392  156.0106 H   0  0  0  0  0  0  0  0  0  0  0  0
  146.5757  142.8819  156.4508 H   0  0  0  0  0  0  0  0  0  0  0  0
  147.9271  143.1506  154.4091 H   0  0  0  0  0  0  0  0  0  0  0  0
  145.1170  142.1435  153.7863 H   0  0  0  0  0  0  0  0  0  0  0  0
  146.1088  143.1458  152.7267 H   0  0  0  0  0  0  0  0  0  0  0  0
  145.5589  143.7746  154.2738 H   0  0  0  0  0  0  0  0  0  0  0  0
  145.7918  137.6100  150.5596 H   0  0  0  0  0  0  0  0  0  0  0  0
  1  2  1  0  0  0  0
  1 20  1  0  0  0  0
  1 21  1  0  0  0  0
  1 22  1  0  0  0  0
  2  3  1  0  0  0  0
  2  9  1  0  0  0  0
  2 23  1  0  0  0  0
  3  4  1  0  0  0  0
  3 24  1  0  0  0  0
  3 25  1  0  0  0  0
  4  8  1  0  0  0  0
  4  5  1  0  0  0  0
  5  6  2  0  0  0  0
  5 26  1  0  0  0  0
  6  7  1  0  0  0  0
  6 27  1  0  0  0  0
  7  8  2  0  0  0  0
  7 28  1  0  0  0  0
  9 10  1  0  0  0  0
  9 29  1  0  0  0  0
  9 47  1  0  0  0  0
 10 11  1  0  0  0  0
 10 30  1  0  0  0  0
 10 31  1  0  0  0  0
 11 12  1  0  0  0  0
 11 32  1  0  0  0  0
 11 33  1  0  0  0  0
 12 13  1  0  0  0  0
 13 18  1  0  0  0  0
 13 14  1  0  0  0  0
 13 34  1  0  0  0  0
 14 15  1  0  0  0  0
 14 35  1  0  0  0  0
 14 36  1  0  0  0  0
 15 16  1  0  0  0  0
 15 37  1  0  0  0  0
 15 38  1  0  0  0  0
 16 17  1  0  0  0  0
 16 39  1  0  0  0  0
 16 40  1  0  0  0  0
 17 18  1  0  0  0  0
 17 41  1  0  0  0  0
 17 42  1  0  0  0  0
 18 19  1  0  0  0  0
 18 43  1  0  0  0  0
 19 44  1  0  0  0  0
 19 45  1  0  0  0  0
 19 46  1  0  0  0  0
M  CHG  1   9   1
M  END
> <s_m_source_file>
AV-unprocessed.smi

> <i_m_source_file_index>
3348

> <i_lp_mmshare_version>
43012

> <i_f3d_flags>
0

> <s_epik_input>
bjFbY0hdW2NIXVtjSF1uMVtDSDJdW0NAQEhdKFtDSDNdKVtOSF1bQ0gyXVtDSDJdT1tDQEBIXTJbQ0gyXVtDSDJdW0NIMl1bQ0gyXVtDQEhdMltDSDNd

> <s_epik_cmdline>
J2VwaWtfcHl0aG9uJywgJy1waCcsICc3LjAnLCAnLXRuJywgJzgnLCAnLW1hJywgJzIwMCcsICctbWV0YWxfYmluZGluZycsICctaW1hZScsICc8aW5maWxlLm1hZT4nLCAnLW9tYWUnLCAnPG91dGZpbGUubWFlPic=

> <r_lp_tautomer_probability>
1

> <r_epik_Ionization_Penalty>
0.00925088

> <r_epik_Ionization_Penalty_Charging>
0.00924645

> <r_epik_Ionization_Penalty_Neutral>
4.42413e-06

> <r_epik_State_Penalty>
0.0070118

> <r_epik_Charging_Adjusted_Penalty>
0.0162583

> <i_epik_Tot_Q>
1

> <i_epik_Tot_abs_Q>
1

> <r_epik_Metal_State_Penalty>
0.00701222

> <b_epik_Metal_Only>
0

> <s_lp_Force_Field>
OPLS_2005

> <r_lp_Energy>
18.0188

> <b_lp_Chiralities_Consistent>
1

> <s_lp_Variant>
AV-unprocessed.smi:3348-6

> <Gold.Version>
5.8.1

> <Gold.Id.Protein>
6NUR|6NUR_protein|mol2

> <Gold.PLP.Fitness>
46.2226

> <Gold.PLP.PLP>
-37.8461

> <Gold.PLP.part.hbond>
-1.8302

> <Gold.PLP.part.metal>
0.0000

> <Gold.PLP.part.buried>
-1.0389

> <Gold.PLP.part.nonpolar>
-36.0670

> <Gold.PLP.part.repulsive>
0.4185

> <Gold.PLP.ligand.clash>
0.0000

> <Gold.PLP.ligand.torsion>
0.8280

> <Gold.PLP.Chemscore.Hbond>
2.2815

> <Gold.PLP.Chemscore.CHOScore>
1.0000

> <Gold.PLP.Chemscore.Metal>
0.0000

> <Gold.Chemscore.Hbonds>
donor molecule, donor type, donor heavy atom, donor atom, acceptor molecule, acceptor atom, score
      L1  H     9    29       P1  7948  1.95
      L1  H     9    47       P1 10171  0.29
      L1  C     5    26       P1 10186  0.96

> <Gold.PLP.Chemscore.Internal.Correction>
0.1880

> <Gold.Rescore>
     Score         DG    S(hbond)    S(metal)    S(lipo)     H(rot)  DE(clash)    DE(int)     intcor
     14.58     -16.67       1.23        0.00     100.26       1.82       1.30       0.80       ----

> <Gold.Chemscore.Fitness>
14.5780

> <Gold.Chemscore.DG>
-16.6734

> <Gold.Chemscore.ZeroCoef>
-5.4800

> <Gold.Chemscore.Hbond>
1.2312

> <Gold.Chemscore.Metal>
0.0000

> <Gold.Chemscore.Lipo>
100.2631

> <Gold.Chemscore.Internal_Hbond>
0.0000

> <Gold.Chemscore.DEClash>
1.3003

> <Gold.Chemscore.DEInternal>
0.7950

> <Gold.Chemscore.Rot>
1.8163

> <Gold.Chemscore.Internal.Correction>
   9.000000E+99

> <Gold.Chemscore.Hbonds>
donor molecule, donor type, donor heavy atom, donor atom, acceptor molecule, acceptor atom, score
      L1  H     9    29       P1  7948  0.92
      L1  H     9    47       P1 10171  0.29

> <Gold.Chemscore.Hbond.Weighted>
-4.1123

> <Gold.Chemscore.Metal.Weighted>
-0.0000

> <Gold.Chemscore.Lipo.Weighted>
-11.7308

> <Gold.Chemscore.Internal_Hbond.Weighted>
0.0000

> <Gold.Chemscore.DEClash.Weighted>
1.3003

> <Gold.Chemscore.DEInternal.Weighted>
0.7950

> <Gold.Chemscore.Rot.Weighted>
4.6497

> <Gold.Chemscore.Internal.Correction.Weighted>
   9.000000E+99

> <Gold.Protein.RotatedTorsions>
[ 6907 6896 6895 6894 ] final  147.63 input  -60.11 | X-H torsion
[ 7974 7965 7964 7962 ] final -113.64 input  175.53 | X-H torsion
[ 8008 7997 7996 7995 ] final -144.34 input   59.86 | X-H torsion
[ 10167 10162 10161 10158 ] final  168.42 input  -65.29 | X-H torsion
[ 10718 10713 10712 10709 ] final   87.98 input   66.30 | X-H torsion
[ 10763 10752 10751 10750 ] final -155.33 input  -60.55 | X-H torsion
[ 11005 11000 10999 10996 ] final  -15.51 input  -57.11 | X-H torsion

> <Gold.Protein.ActiveResidues>
 VAL166  LYS551  ARG553  GLY616  TRP617  ASP618  TYR619  PRO620  LYS621  CYS622 
 ASP623  PHE694  ASN695  SER759  ASP760  ASP761  ALA762  ILE779  LEU786  VAL792 
 PHE793  MET794  SER795  GLU796  ALA797  LYS798  CYS799  TRP800  GLU811  SER814 

> <Gold.Protein.RotatedAtoms>
  152.1522  133.4529  159.4818 H   0  0  0  0  0  0  0  0  0  0  0  0  # atno 6907 bound_to 6896
  150.6897  134.2175  159.4393 H   0  0  0  0  0  0  0  0  0  0  0  0  # atno 6908 bound_to 6896
  152.0073  134.9895  160.0617 H   0  0  0  0  0  0  0  0  0  0  0  0  # atno 6909 bound_to 6896
  145.1296  140.8717  143.3765 H   0  0  0  0  0  0  0  0  0  0  0  0  # atno 7974 bound_to 7965
  155.5254  140.0595  157.2899 H   0  0  0  0  0  0  0  0  0  0  0  0  # atno 8008 bound_to 7997
  154.4503  140.1945  156.0485 H   0  0  0  0  0  0  0  0  0  0  0  0  # atno 8009 bound_to 7997
  156.0690  140.3262  155.7556 H   0  0  0  0  0  0  0  0  0  0  0  0  # atno 8010 bound_to 7997
  139.4967  144.3816  151.9616 H   0  0  0  0  0  0  0  0  0  0  0  0  # atno 10167 bound_to 10162
  157.6945  131.0277  150.3205 H   0  0  0  0  0  0  0  0  0  0  0  0  # atno 10718 bound_to 10713
  154.7794  135.3170  154.8021 H   0  0  0  0  0  0  0  0  0  0  0  0  # atno 10763 bound_to 10752
  153.8736  135.6842  153.4776 H   0  0  0  0  0  0  0  0  0  0  0  0  # atno 10764 bound_to 10752
  153.1427  135.4732  154.9457 H   0  0  0  0  0  0  0  0  0  0  0  0  # atno 10765 bound_to 10752
  140.7974  133.8240  155.9437 H   0  0  0  0  0  0  0  0  0  0  0  0  # atno 11005 bound_to 11000
  145.0649  139.3076  143.5861 LP  0  0  0  0  0  0  0  0  0  0  0  0  # atno 17320 bound_to 7965
  146.3515  140.0104  142.8667 LP  0  0  0  0  0  0  0  0  0  0  0  0  # atno 17321 bound_to 7965
  140.3253  144.3380  150.6000 LP  0  0  0  0  0  0  0  0  0  0  0  0  # atno 17342 bound_to 10162
  140.5690  143.2183  151.7633 LP  0  0  0  0  0  0  0  0  0  0  0  0  # atno 17343 bound_to 10162
  156.3693  130.3860  149.7188 LP  0  0  0  0  0  0  0  0  0  0  0  0  # atno 17370 bound_to 10713
  156.4608  130.7951  151.2971 LP  0  0  0  0  0  0  0  0  0  0  0  0  # atno 17371 bound_to 10713
  140.9329  134.1999  157.4851 LP  0  0  0  0  0  0  0  0  0  0  0  0  # atno 17394 bound_to 11000
  139.8725  134.9840  156.5222 LP  0  0  0  0  0  0  0  0  0  0  0  0  # atno 17395 bound_to 11000

$$$$
