AV-unprocessed.smi:1983|AV-procd|sdf|8036|dock6
  -GOLD-   2272010233D 1   1.00000     0.00000
 Structure written by MMmdl.
 50 51  0  0  0  0  0  0  0  0  2 V2000
  146.2028  134.0981  152.0895 C   0  0  0  0  0  0  0  0  0  0  0  0
  145.5011  135.4314  152.3897 C   0  0  2  0  0  0  0  0  0  0  0  0
  144.4061  135.7609  151.3558 C   0  0  0  0  0  0  0  0  0  0  0  0
  144.9780  135.9673  150.0817 O   0  0  0  0  0  0  0  0  0  0  0  0
  146.5008  136.4955  152.4329 N   0  0  0  0  0  0  0  0  0  0  0  0
  146.2505  137.7858  152.6964 C   0  0  0  0  0  0  0  0  0  0  0  0
  145.1285  138.2439  152.9126 O   0  0  0  0  0  0  0  0  0  0  0  0
  147.3711  138.5212  152.6908 N   0  0  0  0  0  0  0  0  0  0  0  0
  147.4296  139.9532  152.9697 C   0  0  0  0  0  0  0  0  0  0  0  0
  148.3687  140.3556  154.1007 C   0  0  0  0  0  0  0  0  0  0  0  0
  149.1369  139.4111  154.8186 C   0  0  0  0  0  0  0  0  0  0  0  0
  149.9779  139.8448  155.8644 C   0  0  0  0  0  0  0  0  0  0  0  0
  150.0410  141.2219  156.1959 C   0  0  0  0  0  0  0  0  0  0  0  0
  150.8513  141.7497  157.2251 N   0  0  0  0  0  0  0  0  0  0  0  0
  151.6147  140.8172  158.0473 C   0  0  0  0  0  0  0  0  0  0  0  0
  152.6911  141.5639  158.8549 C   0  0  2  0  0  0  0  0  0  0  0  0
  153.4141  140.6368  159.8376 C   0  0  0  0  0  0  0  0  0  0  0  0
  152.0838  142.6144  159.6045 O   0  0  0  0  0  0  0  0  0  0  0  0
  151.3742  143.5748  158.8201 C   0  0  1  0  0  0  0  0  0  0  0  0
  152.3177  144.4690  157.9957 C   0  0  0  0  0  0  0  0  0  0  0  0
  150.2940  142.8764  157.9718 C   0  0  0  0  0  0  0  0  0  0  0  0
  149.2815  142.0854  155.4785 N   0  3  0  0  0  0  0  0  0  0  0  0
  148.4667  141.7126  154.4683 C   0  0  0  0  0  0  0  0  0  0  0  0
  145.4952  133.2686  152.0972 H   0  0  0  0  0  0  0  0  0  0  0  0
  146.9681  133.8803  152.8353 H   0  0  0  0  0  0  0  0  0  0  0  0
  146.6854  134.1134  151.1116 H   0  0  0  0  0  0  0  0  0  0  0  0
  145.0431  135.3561  153.3783 H   0  0  0  0  0  0  0  0  0  0  0  0
  143.6964  134.9378  151.2672 H   0  0  0  0  0  0  0  0  0  0  0  0
  143.8388  136.6441  151.6510 H   0  0  0  0  0  0  0  0  0  0  0  0
  144.5463  136.7020  149.6732 H   0  0  0  0  0  0  0  0  0  0  0  0
  147.4581  136.2213  152.2671 H   0  0  0  0  0  0  0  0  0  0  0  0
  148.2474  138.0548  152.5059 H   0  0  0  0  0  0  0  0  0  0  0  0
  147.7055  140.4897  152.0600 H   0  0  0  0  0  0  0  0  0  0  0  0
  146.4246  140.2869  153.2284 H   0  0  0  0  0  0  0  0  0  0  0  0
  149.0873  138.3588  154.5808 H   0  0  0  0  0  0  0  0  0  0  0  0
  150.5507  139.1046  156.4022 H   0  0  0  0  0  0  0  0  0  0  0  0
  150.9332  140.2916  158.7178 H   0  0  0  0  0  0  0  0  0  0  0  0
  152.1030  140.0709  157.4201 H   0  0  0  0  0  0  0  0  0  0  0  0
  153.4358  141.9795  158.1757 H   0  0  0  0  0  0  0  0  0  0  0  0
  153.9094  139.8184  159.3144 H   0  0  0  0  0  0  0  0  0  0  0  0
  152.7185  140.2028  160.5567 H   0  0  0  0  0  0  0  0  0  0  0  0
  154.1749  141.1810  160.3978 H   0  0  0  0  0  0  0  0  0  0  0  0
  150.8653  144.2278  159.5297 H   0  0  0  0  0  0  0  0  0  0  0  0
  151.7635  145.2793  157.5214 H   0  0  0  0  0  0  0  0  0  0  0  0
  152.8247  143.9191  157.2032 H   0  0  0  0  0  0  0  0  0  0  0  0
  153.0796  144.9202  158.6318 H   0  0  0  0  0  0  0  0  0  0  0  0
  149.8271  143.6105  157.3151 H   0  0  0  0  0  0  0  0  0  0  0  0
  149.5079  142.4943  158.6244 H   0  0  0  0  0  0  0  0  0  0  0  0
  147.9201  142.5102  153.9864 H   0  0  0  0  0  0  0  0  0  0  0  0
  149.3296  143.0771  155.7133 H   0  0  0  0  0  0  0  0  0  0  0  0
  1  2  1  0  0  0  0
  1 24  1  0  0  0  0
  1 25  1  0  0  0  0
  1 26  1  0  0  0  0
  2  3  1  0  0  0  0
  2  5  1  0  0  0  0
  2 27  1  0  0  0  0
  3  4  1  0  0  0  0
  3 28  1  0  0  0  0
  3 29  1  0  0  0  0
  4 30  1  0  0  0  0
  5  6  1  0  0  0  0
  5 31  1  0  0  0  0
  6  7  2  0  0  0  0
  6  8  1  0  0  0  0
  8  9  1  0  0  0  0
  8 32  1  0  0  0  0
  9 10  1  0  0  0  0
  9 33  1  0  0  0  0
  9 34  1  0  0  0  0
 10 23  1  0  0  0  0
 10 11  2  0  0  0  0
 11 12  1  0  0  0  0
 11 35  1  0  0  0  0
 12 13  2  0  0  0  0
 12 36  1  0  0  0  0
 13 14  1  0  0  0  0
 13 22  1  0  0  0  0
 14 21  1  0  0  0  0
 14 15  1  0  0  0  0
 15 16  1  0  0  0  0
 15 37  1  0  0  0  0
 15 38  1  0  0  0  0
 16 17  1  0  0  0  0
 16 18  1  0  0  0  0
 16 39  1  0  0  0  0
 17 40  1  0  0  0  0
 17 41  1  0  0  0  0
 17 42  1  0  0  0  0
 18 19  1  0  0  0  0
 19 20  1  0  0  0  0
 19 21  1  0  0  0  0
 19 43  1  0  0  0  0
 20 44  1  0  0  0  0
 20 45  1  0  0  0  0
 20 46  1  0  0  0  0
 21 47  1  0  0  0  0
 21 48  1  0  0  0  0
 22 23  2  0  0  0  0
 22 50  1  0  0  0  0
 23 49  1  0  0  0  0
M  CHG  1  22   1
M  END
> <s_m_source_file>
AV-unprocessed.smi

> <i_m_source_file_index>
1983

> <i_lp_mmshare_version>
43012

> <i_f3d_flags>
0

> <s_epik_input>
W09IXVtDSDJdW0NAQEhdKFtDSDNdKVtOSF1DKD1PKVtOSF1bQ0gyXWMxW2NIXVtjSF1jKG5bY0hdMSlOMltDSDJdW0NAQEhdKFtDSDNdKU9bQ0BASF0oW0NIM10pW0NIMl0y

> <s_epik_cmdline>
J2VwaWtfcHl0aG9uJywgJy1waCcsICc3LjAnLCAnLXRuJywgJzgnLCAnLW1hJywgJzIwMCcsICctbWV0YWxfYmluZGluZycsICctaW1hZScsICc8aW5maWxlLm1hZT4nLCAnLW9tYWUnLCAnPG91dGZpbGUubWFlPic=

> <r_lp_tautomer_probability>
0.999994

> <r_epik_Ionization_Penalty>
2.55677

> <r_epik_Ionization_Penalty_Charging>
2.55673

> <r_epik_Ionization_Penalty_Neutral>
3.71772e-05

> <r_epik_State_Penalty>
2.72571

> <r_epik_Charging_Adjusted_Penalty>
5.28244

> <i_epik_Tot_Q>
1

> <i_epik_Tot_abs_Q>
1

> <r_epik_Metal_State_Penalty>
2.73364

> <b_epik_Metal_Only>
0

> <s_lp_Force_Field>
OPLS_2005

> <r_lp_Energy>
21.0227

> <b_lp_Chiralities_Consistent>
1

> <s_lp_Variant>
AV-unprocessed.smi:1983-9

> <Gold.Version>
5.8.1

> <Gold.Id.Protein>
6NUR|6NUR_protein|mol2

> <Gold.PLP.Fitness>
53.0630

> <Gold.PLP.PLP>
-38.9418

> <Gold.PLP.part.hbond>
-5.7010

> <Gold.PLP.part.metal>
0.0000

> <Gold.PLP.part.buried>
-4.4469

> <Gold.PLP.part.nonpolar>
-32.9280

> <Gold.PLP.part.repulsive>
3.1005

> <Gold.PLP.ligand.clash>
0.0000

> <Gold.PLP.ligand.torsion>
0.3756

> <Gold.PLP.Chemscore.Hbond>
4.8160

> <Gold.PLP.Chemscore.CHOScore>
0.0000

> <Gold.PLP.Chemscore.Metal>
0.0000

> <Gold.Chemscore.Hbonds>
donor molecule, donor type, donor heavy atom, donor atom, acceptor molecule, acceptor atom, score
      L1  H     4    30       P1 10171  1.00
      L1  H     5    31       P1  7948  1.00
      L1  H     8    32       P1  7948  0.81
      L1  H    22    50       P1  8028  2.00

> <Gold.PLP.Chemscore.Internal.Correction>
0.4245

> <Gold.Rescore>
     Score         DG    S(hbond)    S(metal)    S(lipo)     H(rot)  DE(clash)    DE(int)     intcor
     19.35     -23.25       3.81        0.00     101.38       2.66       2.47       1.42       ----

> <Gold.Chemscore.Fitness>
19.3540

> <Gold.Chemscore.DG>
-23.2497

> <Gold.Chemscore.ZeroCoef>
-5.4800

> <Gold.Chemscore.Hbond>
3.8106

> <Gold.Chemscore.Metal>
0.0000

> <Gold.Chemscore.Lipo>
101.3805

> <Gold.Chemscore.Internal_Hbond>
0.0000

> <Gold.Chemscore.DEClash>
2.4733

> <Gold.Chemscore.DEInternal>
1.4224

> <Gold.Chemscore.Rot>
2.6637

> <Gold.Chemscore.Internal.Correction>
   9.000000E+99

> <Gold.Chemscore.Hbonds>
donor molecule, donor type, donor heavy atom, donor atom, acceptor molecule, acceptor atom, score
      L1  H     4    30       P1 10171  0.92
      L1  H     5    31       P1  7948  0.93
      L1  H     8    32       P1  7948  0.75
      L1  H    22    50       P1  8028  0.98

> <Gold.Chemscore.Hbond.Weighted>
-12.7273

> <Gold.Chemscore.Metal.Weighted>
-0.0000

> <Gold.Chemscore.Lipo.Weighted>
-11.8615

> <Gold.Chemscore.Internal_Hbond.Weighted>
0.0000

> <Gold.Chemscore.DEClash.Weighted>
2.4733

> <Gold.Chemscore.DEInternal.Weighted>
1.4224

> <Gold.Chemscore.Rot.Weighted>
6.8191

> <Gold.Chemscore.Internal.Correction.Weighted>
   9.000000E+99

> <Gold.Protein.RotatedTorsions>
[ 6907 6896 6895 6894 ] final  127.39 input  -60.11 | X-H torsion
[ 7974 7965 7964 7962 ] final   88.71 input  175.53 | X-H torsion
[ 8008 7997 7996 7995 ] final   91.63 input   59.86 | X-H torsion
[ 10167 10162 10161 10158 ] final  171.45 input  -65.29 | X-H torsion
[ 10718 10713 10712 10709 ] final    7.87 input   66.30 | X-H torsion
[ 10763 10752 10751 10750 ] final -132.63 input  -60.55 | X-H torsion
[ 11005 11000 10999 10996 ] final  -81.87 input  -57.11 | X-H torsion

> <Gold.Protein.ActiveResidues>
 VAL166  LYS551  ARG553  GLY616  TRP617  ASP618  TYR619  PRO620  LYS621  CYS622 
 ASP623  PHE694  ASN695  SER759  ASP760  ASP761  ALA762  ILE779  LEU786  VAL792 
 PHE793  MET794  SER795  GLU796  ALA797  LYS798  CYS799  TRP800  GLU811  SER814 

> <Gold.Protein.RotatedAtoms>
  152.3817  133.6555  159.6166 H   0  0  0  0  0  0  0  0  0  0  0  0  # atno 6907 bound_to 6896
  150.7746  133.9102  159.3376 H   0  0  0  0  0  0  0  0  0  0  0  0  # atno 6908 bound_to 6896
  151.6907  135.0948  160.0284 H   0  0  0  0  0  0  0  0  0  0  0  0  # atno 6909 bound_to 6896
  145.5420  139.2289  143.2560 H   0  0  0  0  0  0  0  0  0  0  0  0  # atno 7974 bound_to 7965
  156.0259  140.3335  155.7088 H   0  0  0  0  0  0  0  0  0  0  0  0  # atno 8008 bound_to 7997
  155.5955  140.0650  157.2765 H   0  0  0  0  0  0  0  0  0  0  0  0  # atno 8009 bound_to 7997
  154.4334  140.1819  156.1106 H   0  0  0  0  0  0  0  0  0  0  0  0  # atno 8010 bound_to 7997
  139.5047  144.3484  151.9948 H   0  0  0  0  0  0  0  0  0  0  0  0  # atno 10167 bound_to 10162
  156.9432  130.5869  149.5653 H   0  0  0  0  0  0  0  0  0  0  0  0  # atno 10718 bound_to 10713
  154.8741  135.3792  154.4440 H   0  0  0  0  0  0  0  0  0  0  0  0  # atno 10763 bound_to 10752
  153.5123  135.7029  153.5780 H   0  0  0  0  0  0  0  0  0  0  0  0  # atno 10764 bound_to 10752
  153.4064  135.3935  155.1987 H   0  0  0  0  0  0  0  0  0  0  0  0  # atno 10765 bound_to 10752
  141.1665  133.7217  156.8487 H   0  0  0  0  0  0  0  0  0  0  0  0  # atno 11005 bound_to 11000
  146.1974  140.6241  142.9118 LP  0  0  0  0  0  0  0  0  0  0  0  0  # atno 17320 bound_to 7965
  144.7572  140.5335  143.6761 LP  0  0  0  0  0  0  0  0  0  0  0  0  # atno 17321 bound_to 7965
  140.2921  144.3742  150.6085 LP  0  0  0  0  0  0  0  0  0  0  0  0  # atno 17342 bound_to 10162
  140.5938  143.2167  151.7202 LP  0  0  0  0  0  0  0  0  0  0  0  0  # atno 17343 bound_to 10162
  156.0395  130.5479  150.8736 LP  0  0  0  0  0  0  0  0  0  0  0  0  # atno 17370 bound_to 10713
  157.5771  131.0946  150.9329 LP  0  0  0  0  0  0  0  0  0  0  0  0  # atno 17371 bound_to 10713
  140.1931  134.8951  157.3083 LP  0  0  0  0  0  0  0  0  0  0  0  0  # atno 17394 bound_to 11000
  140.2269  134.3956  155.7540 LP  0  0  0  0  0  0  0  0  0  0  0  0  # atno 17395 bound_to 11000

$$$$
