AV-unprocessed.smi:232|AV-procd|sdf|1772|dock7
  -GOLD-   2262020313D 1   1.00000     0.00000
 Structure written by MMmdl.
 52 55  0  0  0  0  0  0  0  0  1 V2000
  150.4167  142.9895  158.2541 C   0  0  0  0  0  0  0  0  0  0  0  0
  150.7614  141.5039  158.4180 C   0  0  0  0  0  0  0  0  0  0  0  0
  152.2423  141.2605  158.7793 C   0  0  1  0  0  0  0  0  0  0  0  0
  152.7813  142.2107  159.8604 C   0  0  0  0  0  0  0  0  0  0  0  0
  153.7917  141.3753  160.6556 C   0  0  0  0  0  0  0  0  0  0  0  0
  153.8017  140.0138  159.9535 C   0  0  1  0  0  0  0  0  0  0  0  0
  154.0869  138.8368  160.9003 C   0  0  0  0  0  0  0  0  0  0  0  0
  152.4974  139.9246  159.3069 N   0  0  0  0  0  0  0  0  0  0  0  0
  152.3341  138.9192  158.4144 C   0  0  0  0  0  0  0  0  0  0  0  0
  152.9276  138.9752  157.1924 N   0  0  0  0  0  0  0  0  0  0  0  0
  152.7453  137.9826  156.3158 C   0  0  0  0  0  0  0  0  0  0  0  0
  152.0211  136.8690  156.4526 N   0  0  0  0  0  0  0  0  0  0  0  0
  151.4238  136.8147  157.6780 C   0  0  0  0  0  0  0  0  0  0  0  0
  151.5286  137.7888  158.7093 C   0  0  0  0  0  0  0  0  0  0  0  0
  150.7841  137.3980  159.8148 N   0  0  0  0  0  0  0  0  0  0  0  0
  150.2629  136.2564  159.4558 C   0  0  0  0  0  0  0  0  0  0  0  0
  150.5927  135.8330  158.1881 N   0  0  0  0  0  0  0  0  0  0  0  0
  150.1445  134.6135  157.5395 C   0  0  0  0  0  0  0  0  0  0  0  0
  150.9867  133.3894  157.9509 C   0  0  1  0  0  0  0  0  0  0  0  0
  150.5125  132.8915  159.1878 O   0  0  0  0  0  0  0  0  0  0  0  0
  150.9342  132.2615  156.9034 C   0  0  2  0  0  0  0  0  0  0  0  0
  149.5182  131.8465  156.4946 C   0  0  0  0  0  0  0  0  0  0  0  0
  149.7307  130.4195  156.0464 C   0  0  0  0  0  0  0  0  0  0  0  0
  150.7469  129.9287  157.0711 C   0  0  0  0  0  0  0  0  0  0  0  0
  151.5229  131.0703  157.4254 O   0  0  0  0  0  0  0  0  0  0  0  0
  149.3725  143.1145  157.9674 H   0  0  0  0  0  0  0  0  0  0  0  0
  151.0307  143.4526  157.4813 H   0  0  0  0  0  0  0  0  0  0  0  0
  150.5711  143.5409  159.1817 H   0  0  0  0  0  0  0  0  0  0  0  0
  150.1174  141.0602  159.1784 H   0  0  0  0  0  0  0  0  0  0  0  0
  150.5200  140.9976  157.4829 H   0  0  0  0  0  0  0  0  0  0  0  0
  152.8477  141.3861  157.8792 H   0  0  0  0  0  0  0  0  0  0  0  0
  153.2357  143.0981  159.4187 H   0  0  0  0  0  0  0  0  0  0  0  0
  151.9830  142.5439  160.5250 H   0  0  0  0  0  0  0  0  0  0  0  0
  154.7839  141.8270  160.6741 H   0  0  0  0  0  0  0  0  0  0  0  0
  153.4519  141.2786  161.6877 H   0  0  0  0  0  0  0  0  0  0  0  0
  154.5766  140.0416  159.1857 H   0  0  0  0  0  0  0  0  0  0  0  0
  155.0461  138.9657  161.4022 H   0  0  0  0  0  0  0  0  0  0  0  0
  154.1248  137.8913  160.3582 H   0  0  0  0  0  0  0  0  0  0  0  0
  153.3170  138.7502  161.6678 H   0  0  0  0  0  0  0  0  0  0  0  0
  153.2516  138.0977  155.3688 H   0  0  0  0  0  0  0  0  0  0  0  0
  149.6146  135.6892  160.1080 H   0  0  0  0  0  0  0  0  0  0  0  0
  149.0917  134.4546  157.7768 H   0  0  0  0  0  0  0  0  0  0  0  0
  150.1998  134.7658  156.4610 H   0  0  0  0  0  0  0  0  0  0  0  0
  152.0236  133.6982  158.0908 H   0  0  0  0  0  0  0  0  0  0  0  0
  149.8948  132.1973  159.0150 H   0  0  0  0  0  0  0  0  0  0  0  0
  151.4960  132.5443  156.0114 H   0  0  0  0  0  0  0  0  0  0  0  0
  148.8455  131.8690  157.3533 H   0  0  0  0  0  0  0  0  0  0  0  0
  149.0968  132.4814  155.7145 H   0  0  0  0  0  0  0  0  0  0  0  0
  148.8140  129.8294  156.0361 H   0  0  0  0  0  0  0  0  0  0  0  0
  150.1640  130.4012  155.0452 H   0  0  0  0  0  0  0  0  0  0  0  0
  150.2394  129.5652  157.9656 H   0  0  0  0  0  0  0  0  0  0  0  0
  151.3723  129.1232  156.6855 H   0  0  0  0  0  0  0  0  0  0  0  0
  1  2  1  0  0  0  0
  1 26  1  0  0  0  0
  1 27  1  0  0  0  0
  1 28  1  0  0  0  0
  2  3  1  0  0  0  0
  2 29  1  0  0  0  0
  2 30  1  0  0  0  0
  3  8  1  0  0  0  0
  3  4  1  0  0  0  0
  3 31  1  0  0  0  0
  4  5  1  0  0  0  0
  4 32  1  0  0  0  0
  4 33  1  0  0  0  0
  5  6  1  0  0  0  0
  5 34  1  0  0  0  0
  5 35  1  0  0  0  0
  6  7  1  0  0  0  0
  6  8  1  0  0  0  0
  6 36  1  0  0  0  0
  7 37  1  0  0  0  0
  7 38  1  0  0  0  0
  7 39  1  0  0  0  0
  8  9  1  0  0  0  0
  9 14  1  0  0  0  0
  9 10  2  0  0  0  0
 10 11  1  0  0  0  0
 11 12  2  0  0  0  0
 11 40  1  0  0  0  0
 12 13  1  0  0  0  0
 13 17  1  0  0  0  0
 13 14  2  0  0  0  0
 14 15  1  0  0  0  0
 15 16  2  0  0  0  0
 16 17  1  0  0  0  0
 16 41  1  0  0  0  0
 17 18  1  0  0  0  0
 18 19  1  0  0  0  0
 18 42  1  0  0  0  0
 18 43  1  0  0  0  0
 19 20  1  0  0  0  0
 19 21  1  0  0  0  0
 19 44  1  0  0  0  0
 20 45  1  0  0  0  0
 21 25  1  0  0  0  0
 21 22  1  0  0  0  0
 21 46  1  0  0  0  0
 22 23  1  0  0  0  0
 22 47  1  0  0  0  0
 22 48  1  0  0  0  0
 23 24  1  0  0  0  0
 23 49  1  0  0  0  0
 23 50  1  0  0  0  0
 24 25  1  0  0  0  0
 24 51  1  0  0  0  0
 24 52  1  0  0  0  0
M  END
> <s_m_source_file>
AV-unprocessed.smi

> <i_m_source_file_index>
232

> <i_lp_mmshare_version>
43012

> <i_f3d_flags>
0

> <s_epik_input>
W0NIM11bQ0gyXVtDQEBIXTFbQ0gyXVtDSDJdW0NAQEhdKFtDSDNdKU4xYyhuW2NIXW4yKWMoYzIzKW5bY0hdbjNbQ0gyXVtDQEhdKFtPSF0pW0NAQEhdNFtDSDJdW0NIMl1bQ0gyXU80

> <s_epik_cmdline>
J2VwaWtfcHl0aG9uJywgJy1waCcsICc3LjAnLCAnLXRuJywgJzgnLCAnLW1hJywgJzIwMCcsICctbWV0YWxfYmluZGluZycsICctaW1hZScsICc8aW5maWxlLm1hZT4nLCAnLW9tYWUnLCAnPG91dGZpbGUubWFlPic=

> <r_lp_tautomer_probability>
1

> <r_epik_Ionization_Penalty>
0.00258048

> <r_epik_Ionization_Penalty_Charging>
0

> <r_epik_Ionization_Penalty_Neutral>
0.00258048

> <r_epik_State_Penalty>
0.00168551

> <r_epik_Charging_Adjusted_Penalty>
0.00168551

> <i_epik_Tot_Q>
0

> <i_epik_Tot_abs_Q>
0

> <r_epik_Metal_State_Penalty>
-0

> <b_epik_Metal_Only>
0

> <s_lp_Force_Field>
OPLS_2005

> <r_lp_Energy>
51.197

> <b_lp_Chiralities_Consistent>
1

> <s_lp_Variant>
AV-unprocessed.smi:232-6

> <Gold.Version>
5.8.1

> <Gold.Id.Protein>
6NUR|6NUR_protein|mol2

> <Gold.PLP.Fitness>
43.2451

> <Gold.PLP.PLP>
-37.4014

> <Gold.PLP.part.hbond>
-3.0000

> <Gold.PLP.part.metal>
0.0000

> <Gold.PLP.part.buried>
-5.9999

> <Gold.PLP.part.nonpolar>
-29.4790

> <Gold.PLP.part.repulsive>
0.0284

> <Gold.PLP.ligand.clash>
0.0000

> <Gold.PLP.ligand.torsion>
1.0058

> <Gold.PLP.Chemscore.Hbond>
2.6037

> <Gold.PLP.Chemscore.CHOScore>
0.0000

> <Gold.PLP.Chemscore.Metal>
0.0000

> <Gold.Chemscore.Hbonds>
donor molecule, donor type, donor heavy atom, donor atom, acceptor molecule, acceptor atom, score
      P1  H  7997  8009       L1    10  1.00
      P1  H 10752 10763       L1    12  0.23

> <Gold.PLP.Chemscore.Internal.Correction>
0.0441

> <Gold.Rescore>
     Score         DG    S(hbond)    S(metal)    S(lipo)     H(rot)  DE(clash)    DE(int)     intcor
     16.43     -17.33       2.35        0.00      87.31       2.43       0.09       0.81       ----

> <Gold.Chemscore.Fitness>
16.4250

> <Gold.Chemscore.DG>
-17.3289

> <Gold.Chemscore.ZeroCoef>
-5.4800

> <Gold.Chemscore.Hbond>
2.3485

> <Gold.Chemscore.Metal>
0.0000

> <Gold.Chemscore.Lipo>
87.3120

> <Gold.Chemscore.Internal_Hbond>
0.0000

> <Gold.Chemscore.DEClash>
0.0930

> <Gold.Chemscore.DEInternal>
0.8109

> <Gold.Chemscore.Rot>
2.4260

> <Gold.Chemscore.Internal.Correction>
   9.000000E+99

> <Gold.Chemscore.Hbonds>
donor molecule, donor type, donor heavy atom, donor atom, acceptor molecule, acceptor atom, score
      P1  H  7997  8009       L1    10  0.53
      P1  H 10752 10763       L1    12  0.06

> <Gold.Chemscore.Hbond.Weighted>
-7.8441

> <Gold.Chemscore.Metal.Weighted>
-0.0000

> <Gold.Chemscore.Lipo.Weighted>
-10.2155

> <Gold.Chemscore.Internal_Hbond.Weighted>
0.0000

> <Gold.Chemscore.DEClash.Weighted>
0.0930

> <Gold.Chemscore.DEInternal.Weighted>
0.8109

> <Gold.Chemscore.Rot.Weighted>
6.2107

> <Gold.Chemscore.Internal.Correction.Weighted>
   9.000000E+99

> <Gold.Protein.RotatedTorsions>
[ 6907 6896 6895 6894 ] final  110.22 input  -60.11 | X-H torsion
[ 7974 7965 7964 7962 ] final  145.74 input  175.53 | X-H torsion
[ 8008 7997 7996 7995 ] final -167.81 input   59.86 | X-H torsion
[ 10167 10162 10161 10158 ] final  156.55 input  -65.29 | X-H torsion
[ 10718 10713 10712 10709 ] final  116.97 input   66.30 | X-H torsion
[ 10763 10752 10751 10750 ] final   70.80 input  -60.55 | X-H torsion
[ 11005 11000 10999 10996 ] final    1.14 input  -57.11 | X-H torsion

> <Gold.Protein.ActiveResidues>
 VAL166  LYS551  ARG553  GLY616  TRP617  ASP618  TYR619  PRO620  LYS621  CYS622 
 ASP623  PHE694  ASN695  SER759  ASP760  ASP761  ALA762  ILE779  LEU786  VAL792 
 PHE793  MET794  SER795  GLU796  ALA797  LYS798  CYS799  TRP800  GLU811  SER814 

> <Gold.Protein.RotatedAtoms>
  152.5030  133.8832  159.7356 H   0  0  0  0  0  0  0  0  0  0  0  0  # atno 6907 bound_to 6896
  150.9289  133.6781  159.2822 H   0  0  0  0  0  0  0  0  0  0  0  0  # atno 6908 bound_to 6896
  151.4133  135.0992  159.9644 H   0  0  0  0  0  0  0  0  0  0  0  0  # atno 6909 bound_to 6896
  144.8728  139.5820  143.5879 H   0  0  0  0  0  0  0  0  0  0  0  0  # atno 7974 bound_to 7965
  155.8829  140.1012  157.1473 H   0  0  0  0  0  0  0  0  0  0  0  0  # atno 8008 bound_to 7997
  154.4007  140.1325  156.4282 H   0  0  0  0  0  0  0  0  0  0  0  0  # atno 8009 bound_to 7997
  155.7622  140.3463  155.5206 H   0  0  0  0  0  0  0  0  0  0  0  0  # atno 8010 bound_to 7997
  139.4821  144.4998  151.8185 H   0  0  0  0  0  0  0  0  0  0  0  0  # atno 10167 bound_to 10162
  157.6127  131.1032  150.7548 H   0  0  0  0  0  0  0  0  0  0  0  0  # atno 10718 bound_to 10713
  153.0362  135.5160  154.7496 H   0  0  0  0  0  0  0  0  0  0  0  0  # atno 10763 bound_to 10752
  154.6470  135.2920  155.0035 H   0  0  0  0  0  0  0  0  0  0  0  0  # atno 10764 bound_to 10752
  154.0933  135.6647  153.4908 H   0  0  0  0  0  0  0  0  0  0  0  0  # atno 10765 bound_to 10752
  140.6187  133.9681  155.8214 H   0  0  0  0  0  0  0  0  0  0  0  0  # atno 11005 bound_to 11000
  146.2942  139.7227  142.9139 LP  0  0  0  0  0  0  0  0  0  0  0  0  # atno 17320 bound_to 7965
  145.4099  141.0395  143.3023 LP  0  0  0  0  0  0  0  0  0  0  0  0  # atno 17321 bound_to 7965
  140.4490  144.1881  150.5896 LP  0  0  0  0  0  0  0  0  0  0  0  0  # atno 17342 bound_to 10162
  140.4604  143.2451  151.9227 LP  0  0  0  0  0  0  0  0  0  0  0  0  # atno 17343 bound_to 10162
  156.7922  130.4894  149.5383 LP  0  0  0  0  0  0  0  0  0  0  0  0  # atno 17370 bound_to 10713
  156.1236  130.6127  151.0230 LP  0  0  0  0  0  0  0  0  0  0  0  0  # atno 17371 bound_to 10713
  141.0757  134.0138  157.3460 LP  0  0  0  0  0  0  0  0  0  0  0  0  # atno 17394 bound_to 11000
  139.9162  135.0197  156.7890 LP  0  0  0  0  0  0  0  0  0  0  0  0  # atno 17395 bound_to 11000

$$$$
