AV-unprocessed.smi:1268|AV-procd|sdf|5326|dock2
  -GOLD-   22720 4453D 1   1.00000     0.00000
 Structure written by MMmdl.
 39 40  0  0  0  0  0  0  0  0  3 V2000
  152.9004  139.2591  155.9155 O   0  0  0  0  0  0  0  0  0  0  0  0
  152.0284  139.5126  156.7505 C   0  0  0  0  0  0  0  0  0  0  0  0
  150.7755  139.7715  156.3496 N   0  0  0  0  0  0  0  0  0  0  0  0
  150.3082  139.7787  154.9669 C   0  0  0  0  0  0  0  0  0  0  0  0
  149.3607  138.5967  154.6756 C   0  0  1  0  0  0  0  0  0  0  0  0
  149.0644  138.5995  153.2928 O   0  0  0  0  0  0  0  0  0  0  0  0
  150.0230  137.2455  155.0085 C   0  0  0  0  0  0  0  0  0  0  0  0
  149.1797  136.0882  154.6142 N   0  3  0  0  0  0  0  0  0  0  0  0
  147.7919  136.1636  155.1464 C   0  0  0  0  0  0  0  0  0  0  0  0
  146.9255  135.0168  154.5990 C   0  0  0  0  0  0  0  0  0  0  0  0
  147.5548  133.6536  154.9137 C   0  0  0  0  0  0  0  0  0  0  0  0
  148.9963  133.6094  154.3904 C   0  0  0  0  0  0  0  0  0  0  0  0
  149.8196  134.7869  154.9390 C   0  0  0  0  0  0  0  0  0  0  0  0
  152.1899  139.5549  158.0917 N   0  5  0  0  0  0  0  0  0  0  0  0
  152.3302  140.7366  158.7146 C   0  0  0  0  0  0  0  0  0  0  0  0
  152.9744  140.8753  159.8789 N   0  0  0  0  0  0  0  0  0  0  0  0
  153.0054  142.1917  160.3429 C   0  0  0  0  0  0  0  0  0  0  0  0
  152.3761  143.0770  159.5087 C   0  0  0  0  0  0  0  0  0  0  0  0
  151.7231  142.2793  158.1063 S   0  0  0  0  0  0  0  0  0  0  0  0
  150.0943  139.9802  157.0650 H   0  0  0  0  0  0  0  0  0  0  0  0
  149.8260  140.7328  154.7506 H   0  0  0  0  0  0  0  0  0  0  0  0
  151.1821  139.7314  154.3148 H   0  0  0  0  0  0  0  0  0  0  0  0
  148.4346  138.7112  155.2377 H   0  0  0  0  0  0  0  0  0  0  0  0
  148.8879  137.7093  153.0260 H   0  0  0  0  0  0  0  0  0  0  0  0
  150.9872  137.1979  154.4993 H   0  0  0  0  0  0  0  0  0  0  0  0
  150.2418  137.1774  156.0754 H   0  0  0  0  0  0  0  0  0  0  0  0
  147.8170  136.1251  156.2365 H   0  0  0  0  0  0  0  0  0  0  0  0
  147.3298  137.1128  154.8776 H   0  0  0  0  0  0  0  0  0  0  0  0
  145.9227  135.0711  155.0238 H   0  0  0  0  0  0  0  0  0  0  0  0
  146.8108  135.1282  153.5199 H   0  0  0  0  0  0  0  0  0  0  0  0
  147.5475  133.4829  155.9911 H   0  0  0  0  0  0  0  0  0  0  0  0
  146.9655  132.8531  154.4655 H   0  0  0  0  0  0  0  0  0  0  0  0
  149.4644  132.6646  154.6686 H   0  0  0  0  0  0  0  0  0  0  0  0
  148.9914  133.6428  153.2999 H   0  0  0  0  0  0  0  0  0  0  0  0
  150.8211  134.7510  154.5082 H   0  0  0  0  0  0  0  0  0  0  0  0
  149.9351  134.6966  156.0203 H   0  0  0  0  0  0  0  0  0  0  0  0
  153.4997  142.4085  161.2782 H   0  0  0  0  0  0  0  0  0  0  0  0
  152.2582  144.1429  159.6309 H   0  0  0  0  0  0  0  0  0  0  0  0
  149.1129  136.1249  153.6068 H   0  0  0  0  0  0  0  0  0  0  0  0
  1  2  2  0  0  0  0
  2  3  1  0  0  0  0
  2 14  1  0  0  0  0
  3  4  1  0  0  0  0
  3 20  1  0  0  0  0
  4  5  1  0  0  0  0
  4 21  1  0  0  0  0
  4 22  1  0  0  0  0
  5  6  1  0  0  0  0
  5  7  1  0  0  0  0
  5 23  1  0  0  0  0
  6 24  1  0  0  0  0
  7  8  1  0  0  0  0
  7 25  1  0  0  0  0
  7 26  1  0  0  0  0
  8 13  1  0  0  0  0
  8  9  1  0  0  0  0
  8 39  1  0  0  0  0
  9 10  1  0  0  0  0
  9 27  1  0  0  0  0
  9 28  1  0  0  0  0
 10 11  1  0  0  0  0
 10 29  1  0  0  0  0
 10 30  1  0  0  0  0
 11 12  1  0  0  0  0
 11 31  1  0  0  0  0
 11 32  1  0  0  0  0
 12 13  1  0  0  0  0
 12 33  1  0  0  0  0
 12 34  1  0  0  0  0
 13 35  1  0  0  0  0
 13 36  1  0  0  0  0
 14 15  1  0  0  0  0
 15 19  1  0  0  0  0
 15 16  2  0  0  0  0
 16 17  1  0  0  0  0
 17 18  2  0  0  0  0
 17 37  1  0  0  0  0
 18 19  1  0  0  0  0
 18 38  1  0  0  0  0
M  CHG  1   8   1
M  CHG  1  14  -1
M  END
> <s_m_source_file>
AV-unprocessed.smi

> <i_m_source_file_index>
1268

> <i_lp_mmshare_version>
43012

> <i_f3d_flags>
0

> <s_epik_input>
czFbY0hdW2NIXW5jMVtOSF1DKD1PKVtOSF1bQ0gyXVtDQEhdKFtPSF0pW0NIMl1OMltDSDJdW0NIMl1bQ0gyXVtDSDJdW0NIMl0y

> <s_epik_cmdline>
J2VwaWtfcHl0aG9uJywgJy1waCcsICc3LjAnLCAnLXRuJywgJzgnLCAnLW1hJywgJzIwMCcsICctbWV0YWxfYmluZGluZycsICctaW1hZScsICc8aW5maWxlLm1hZT4nLCAnLW9tYWUnLCAnPG91dGZpbGUubWFlPic=

> <r_lp_tautomer_probability>
0.999

> <r_epik_Ionization_Penalty>
6.36291

> <r_epik_Ionization_Penalty_Charging>
5.4816

> <r_epik_Ionization_Penalty_Neutral>
0.881305

> <r_epik_State_Penalty>
5.4805

> <r_epik_Charging_Adjusted_Penalty>
10.9621

> <i_epik_Tot_Q>
0

> <i_epik_Tot_abs_Q>
2

> <r_epik_Metal_State_Penalty>
1.48871

> <b_epik_Metal_Only>
1

> <s_lp_Force_Field>
OPLS_2005

> <r_lp_Energy>
8.43067

> <b_lp_Chiralities_Consistent>
1

> <s_lp_Variant>
AV-unprocessed.smi:1268-4

> <Gold.Version>
5.8.1

> <Gold.Id.Protein>
6NUR|6NUR_protein|mol2

> <Gold.PLP.Fitness>
42.9448

> <Gold.PLP.PLP>
-32.7486

> <Gold.PLP.part.hbond>
-3.9448

> <Gold.PLP.part.metal>
0.0000

> <Gold.PLP.part.buried>
-3.0857

> <Gold.PLP.part.nonpolar>
-24.6945

> <Gold.PLP.part.repulsive>
0.1095

> <Gold.PLP.ligand.clash>
0.0000

> <Gold.PLP.ligand.torsion>
0.9481

> <Gold.PLP.Chemscore.Hbond>
4.0000

> <Gold.PLP.Chemscore.CHOScore>
0.0000

> <Gold.PLP.Chemscore.Metal>
0.0000

> <Gold.Chemscore.Hbonds>
donor molecule, donor type, donor heavy atom, donor atom, acceptor molecule, acceptor atom, score
      L1  H     6    24       P1  7948  1.00
      L1  H     8    39       P1  7948  2.00
      P1  H  7997  8009       L1     1  1.00

> <Gold.PLP.Chemscore.Internal.Correction>
0.0924

> <Gold.Rescore>
     Score         DG    S(hbond)    S(metal)    S(lipo)     H(rot)  DE(clash)    DE(int)     intcor
     15.90     -16.81       2.91        0.00      68.12       2.48       0.00       0.91       ----

> <Gold.Chemscore.Fitness>
15.9029

> <Gold.Chemscore.DG>
-16.8149

> <Gold.Chemscore.ZeroCoef>
-5.4800

> <Gold.Chemscore.Hbond>
2.9110

> <Gold.Chemscore.Metal>
0.0000

> <Gold.Chemscore.Lipo>
68.1164

> <Gold.Chemscore.Internal_Hbond>
0.0000

> <Gold.Chemscore.DEClash>
0.0021

> <Gold.Chemscore.DEInternal>
0.9099

> <Gold.Chemscore.Rot>
2.4834

> <Gold.Chemscore.Internal.Correction>
   9.000000E+99

> <Gold.Chemscore.Hbonds>
donor molecule, donor type, donor heavy atom, donor atom, acceptor molecule, acceptor atom, score
      L1  H     6    24       P1  7948  0.98
      L1  H     8    39       P1  7948  0.94
      P1  H  7997  8009       L1     1  0.60

> <Gold.Chemscore.Hbond.Weighted>
-9.7228

> <Gold.Chemscore.Metal.Weighted>
-0.0000

> <Gold.Chemscore.Lipo.Weighted>
-7.9696

> <Gold.Chemscore.Internal_Hbond.Weighted>
0.0000

> <Gold.Chemscore.DEClash.Weighted>
0.0021

> <Gold.Chemscore.DEInternal.Weighted>
0.9099

> <Gold.Chemscore.Rot.Weighted>
6.3575

> <Gold.Chemscore.Internal.Correction.Weighted>
   9.000000E+99

> <Gold.Protein.RotatedTorsions>
[ 6907 6896 6895 6894 ] final   96.99 input  -60.11 | X-H torsion
[ 7974 7965 7964 7962 ] final  112.93 input  175.53 | X-H torsion
[ 8008 7997 7996 7995 ] final -169.50 input   59.86 | X-H torsion
[ 10167 10162 10161 10158 ] final   -5.84 input  -65.29 | X-H torsion
[ 10718 10713 10712 10709 ] final  -39.62 input   66.30 | X-H torsion
[ 10763 10752 10751 10750 ] final -101.57 input  -60.55 | X-H torsion
[ 11005 11000 10999 10996 ] final  123.88 input  -57.11 | X-H torsion

> <Gold.Protein.ActiveResidues>
 VAL166  LYS551  ARG553  GLY616  TRP617  ASP618  TYR619  PRO620  LYS621  CYS622 
 ASP623  PHE694  ASN695  SER759  ASP760  ASP761  ALA762  ILE779  LEU786  VAL792 
 PHE793  MET794  SER795  GLU796  ALA797  LYS798  CYS799  TRP800  GLU811  SER814 

> <Gold.Protein.RotatedAtoms>
  152.5429  134.0801  159.8231 H   0  0  0  0  0  0  0  0  0  0  0  0  # atno 6907 bound_to 6896
  151.0904  133.5313  159.2622 H   0  0  0  0  0  0  0  0  0  0  0  0  # atno 6908 bound_to 6896
  151.2106  135.0488  159.8964 H   0  0  0  0  0  0  0  0  0  0  0  0  # atno 6909 bound_to 6896
  145.2234  139.2852  143.4206 H   0  0  0  0  0  0  0  0  0  0  0  0  # atno 7974 bound_to 7965
  155.9058  140.1049  157.1316 H   0  0  0  0  0  0  0  0  0  0  0  0  # atno 8008 bound_to 7997
  154.4032  140.1284  156.4559 H   0  0  0  0  0  0  0  0  0  0  0  0  # atno 8009 bound_to 7997
  155.7368  140.3467  155.5088 H   0  0  0  0  0  0  0  0  0  0  0  0  # atno 8010 bound_to 7997
  140.6977  143.6262  150.8566 H   0  0  0  0  0  0  0  0  0  0  0  0  # atno 10167 bound_to 10162
  156.2904  130.4227  149.8244 H   0  0  0  0  0  0  0  0  0  0  0  0  # atno 10718 bound_to 10713
  154.7668  135.4893  153.9570 H   0  0  0  0  0  0  0  0  0  0  0  0  # atno 10763 bound_to 10752
  153.1317  135.6754  153.9174 H   0  0  0  0  0  0  0  0  0  0  0  0  # atno 10764 bound_to 10752
  153.8876  135.3125  155.3425 H   0  0  0  0  0  0  0  0  0  0  0  0  # atno 10765 bound_to 10752
  139.9333  134.9641  156.8325 H   0  0  0  0  0  0  0  0  0  0  0  0  # atno 11005 bound_to 11000
  146.3370  140.2547  142.8600 LP  0  0  0  0  0  0  0  0  0  0  0  0  # atno 17320 bound_to 7965
  144.9744  140.8400  143.5435 LP  0  0  0  0  0  0  0  0  0  0  0  0  # atno 17321 bound_to 7965
  139.9981  143.5773  152.2885 LP  0  0  0  0  0  0  0  0  0  0  0  0  # atno 17342 bound_to 10162
  139.6453  144.7657  151.2256 LP  0  0  0  0  0  0  0  0  0  0  0  0  # atno 17343 bound_to 10162
  156.5659  130.8404  151.3342 LP  0  0  0  0  0  0  0  0  0  0  0  0  # atno 17370 bound_to 10713
  157.7341  130.9740  150.2010 LP  0  0  0  0  0  0  0  0  0  0  0  0  # atno 17371 bound_to 10713
  140.6144  134.0052  155.7591 LP  0  0  0  0  0  0  0  0  0  0  0  0  # atno 17394 bound_to 11000
  141.0933  133.9883  157.3201 LP  0  0  0  0  0  0  0  0  0  0  0  0  # atno 17395 bound_to 11000

$$$$
