AV-unprocessed.smi:1786|AV-procd|sdf|7203|dock10
  -GOLD-   22720 8443D 1   1.00000     0.00000
 Structure written by MMmdl.
 44 45  0  0  0  0  0  0  0  0  2 V2000
  146.0448  132.2501  153.2160 C   0  0  0  0  0  0  0  0  0  0  0  0
  146.9346  133.2692  152.4718 C   0  0  1  0  0  0  0  0  0  0  0  0
  146.5019  133.4645  151.0034 C   0  0  0  0  0  0  0  0  0  0  0  0
  145.2009  134.2720  150.8870 C   0  0  0  0  0  0  0  0  0  0  0  0
  145.3394  135.6025  151.6368 C   0  0  0  0  0  0  0  0  0  0  0  0
  145.7711  135.3774  153.0951 C   0  0  0  0  0  0  0  0  0  0  0  0
  147.0321  134.5893  153.1646 N   0  3  1  0  0  0  0  0  0  0  0  0
  147.6083  134.5055  154.5313 C   0  0  0  0  0  0  0  0  0  0  0  0
  149.1044  134.1397  154.5103 C   0  0  0  0  0  0  0  0  0  0  0  0
  149.9352  135.2966  154.1983 N   0  0  0  0  0  0  0  0  0  0  0  0
  150.5413  136.0746  155.1080 C   0  0  0  0  0  0  0  0  0  0  0  0
  150.4315  135.8981  156.3220 O   0  0  0  0  0  0  0  0  0  0  0  0
  151.3762  137.2376  154.5532 C   0  0  0  0  0  0  0  0  0  0  0  0
  150.7140  138.5458  154.6879 N   0  0  0  0  0  0  0  0  0  0  0  0
  149.4261  138.6748  154.1304 C   0  0  0  0  0  0  0  0  0  0  0  0
  148.7353  139.8237  154.1977 C   0  0  0  0  0  0  0  0  0  0  0  0
  149.3461  140.9494  154.8640 C   0  0  0  0  0  0  0  0  0  0  0  0
  150.5757  140.8359  155.4042 C   0  0  0  0  0  0  0  0  0  0  0  0
  151.3332  139.5810  155.3355 C   0  0  0  0  0  0  0  0  0  0  0  0
  152.4551  139.4661  155.8299 O   0  0  0  0  0  0  0  0  0  0  0  0
  146.0251  131.2986  152.6843 H   0  0  0  0  0  0  0  0  0  0  0  0
  145.0136  132.5883  153.3100 H   0  0  0  0  0  0  0  0  0  0  0  0
  146.4177  132.0436  154.2189 H   0  0  0  0  0  0  0  0  0  0  0  0
  147.9415  132.8498  152.4452 H   0  0  0  0  0  0  0  0  0  0  0  0
  147.2927  133.9878  150.4642 H   0  0  0  0  0  0  0  0  0  0  0  0
  146.3888  132.4989  150.5091 H   0  0  0  0  0  0  0  0  0  0  0  0
  144.9659  134.4558  149.8382 H   0  0  0  0  0  0  0  0  0  0  0  0
  144.3659  133.7013  151.2940 H   0  0  0  0  0  0  0  0  0  0  0  0
  146.0738  136.2316  151.1319 H   0  0  0  0  0  0  0  0  0  0  0  0
  144.3949  136.1467  151.6074 H   0  0  0  0  0  0  0  0  0  0  0  0
  145.9076  136.3486  153.5697 H   0  0  0  0  0  0  0  0  0  0  0  0
  144.9808  134.8729  153.6517 H   0  0  0  0  0  0  0  0  0  0  0  0
  147.4478  135.4449  155.0624 H   0  0  0  0  0  0  0  0  0  0  0  0
  147.0753  133.7375  155.0936 H   0  0  0  0  0  0  0  0  0  0  0  0
  149.4070  133.7130  155.4684 H   0  0  0  0  0  0  0  0  0  0  0  0
  149.3086  133.3816  153.7553 H   0  0  0  0  0  0  0  0  0  0  0  0
  150.0737  135.5124  153.2213 H   0  0  0  0  0  0  0  0  0  0  0  0
  152.3475  137.2594  155.0513 H   0  0  0  0  0  0  0  0  0  0  0  0
  151.5979  137.0262  153.5064 H   0  0  0  0  0  0  0  0  0  0  0  0
  149.0380  137.7855  153.6554 H   0  0  0  0  0  0  0  0  0  0  0  0
  147.7475  139.9029  153.7679 H   0  0  0  0  0  0  0  0  0  0  0  0
  148.8141  141.8869  154.9306 H   0  0  0  0  0  0  0  0  0  0  0  0
  151.0163  141.6885  155.8999 H   0  0  0  0  0  0  0  0  0  0  0  0
  147.7093  135.1101  152.6254 H   0  0  0  0  0  0  0  0  0  0  0  0
  1  2  1  0  0  0  0
  1 21  1  0  0  0  0
  1 22  1  0  0  0  0
  1 23  1  0  0  0  0
  2  7  1  0  0  0  0
  2  3  1  0  0  0  0
  2 24  1  0  0  0  0
  3  4  1  0  0  0  0
  3 25  1  0  0  0  0
  3 26  1  0  0  0  0
  4  5  1  0  0  0  0
  4 27  1  0  0  0  0
  4 28  1  0  0  0  0
  5  6  1  0  0  0  0
  5 29  1  0  0  0  0
  5 30  1  0  0  0  0
  6  7  1  0  0  0  0
  6 31  1  0  0  0  0
  6 32  1  0  0  0  0
  7  8  1  0  0  0  0
  7 44  1  0  0  0  0
  8  9  1  0  0  0  0
  8 33  1  0  0  0  0
  8 34  1  0  0  0  0
  9 10  1  0  0  0  0
  9 35  1  0  0  0  0
  9 36  1  0  0  0  0
 10 11  1  0  0  0  0
 10 37  1  0  0  0  0
 11 12  2  0  0  0  0
 11 13  1  0  0  0  0
 13 14  1  0  0  0  0
 13 38  1  0  0  0  0
 13 39  1  0  0  0  0
 14 19  1  0  0  0  0
 14 15  1  0  0  0  0
 15 16  2  0  0  0  0
 15 40  1  0  0  0  0
 16 17  1  0  0  0  0
 16 41  1  0  0  0  0
 17 18  2  0  0  0  0
 17 42  1  0  0  0  0
 18 19  1  0  0  0  0
 18 43  1  0  0  0  0
 19 20  2  0  0  0  0
M  CHG  1   7   1
M  END
> <s_m_source_file>
AV-unprocessed.smi

> <i_m_source_file_index>
1786

> <i_lp_mmshare_version>
43012

> <i_f3d_flags>
0

> <s_epik_input>
W0NIM11bQ0BASF0xW0NIMl1bQ0gyXVtDSDJdW0NIMl1OMVtDSDJdW0NIMl1bTkhdQyg9TylbQ0gyXW4yW2NIXVtjSF1bY0hdW2NIXWMyPU8=

> <s_epik_cmdline>
J2VwaWtfcHl0aG9uJywgJy1waCcsICc3LjAnLCAnLXRuJywgJzgnLCAnLW1hJywgJzIwMCcsICctbWV0YWxfYmluZGluZycsICctaW1hZScsICc8aW5maWxlLm1hZT4nLCAnLW9tYWUnLCAnPG91dGZpbGUubWFlPic=

> <r_lp_tautomer_probability>
1

> <r_epik_Ionization_Penalty>
0.00237247

> <r_epik_Ionization_Penalty_Charging>
0.00237238

> <r_epik_Ionization_Penalty_Neutral>
8.2065e-08

> <r_epik_State_Penalty>
0.00163922

> <r_epik_Charging_Adjusted_Penalty>
0.0040116

> <i_epik_Tot_Q>
1

> <i_epik_Tot_abs_Q>
1

> <r_epik_Metal_State_Penalty>
-0

> <b_epik_Metal_Only>
0

> <s_lp_Force_Field>
OPLS_2005

> <r_lp_Energy>
28.482

> <b_lp_Chiralities_Consistent>
1

> <s_lp_Variant>
AV-unprocessed.smi:1786-2

> <Gold.Version>
5.8.1

> <Gold.Id.Protein>
6NUR|6NUR_protein|mol2

> <Gold.PLP.Fitness>
47.5611

> <Gold.PLP.PLP>
-36.3501

> <Gold.PLP.part.hbond>
-3.5305

> <Gold.PLP.part.metal>
0.0000

> <Gold.PLP.part.buried>
-3.1021

> <Gold.PLP.part.nonpolar>
-30.8455

> <Gold.PLP.part.repulsive>
0.0611

> <Gold.PLP.ligand.clash>
0.0000

> <Gold.PLP.ligand.torsion>
0.5891

> <Gold.PLP.Chemscore.Hbond>
3.1440

> <Gold.PLP.Chemscore.CHOScore>
0.9664

> <Gold.PLP.Chemscore.Metal>
0.0000

> <Gold.Chemscore.Hbonds>
donor molecule, donor type, donor heavy atom, donor atom, acceptor molecule, acceptor atom, score
      L1  H     7    44       P1  7948  2.00
      P1  H  7997  8009       L1    20  0.98
      L1  C    15    40       P1  7948  1.00

> <Gold.PLP.Chemscore.Internal.Correction>
0.0580

> <Gold.Rescore>
     Score         DG    S(hbond)    S(metal)    S(lipo)     H(rot)  DE(clash)    DE(int)     intcor
     15.37     -15.87       2.00        0.00      72.37       1.86       0.02       0.48       ----

> <Gold.Chemscore.Fitness>
15.3663

> <Gold.Chemscore.DG>
-15.8662

> <Gold.Chemscore.ZeroCoef>
-5.4800

> <Gold.Chemscore.Hbond>
1.9992

> <Gold.Chemscore.Metal>
0.0000

> <Gold.Chemscore.Lipo>
72.3689

> <Gold.Chemscore.Internal_Hbond>
0.0000

> <Gold.Chemscore.DEClash>
0.0189

> <Gold.Chemscore.DEInternal>
0.4810

> <Gold.Chemscore.Rot>
1.8586

> <Gold.Chemscore.Internal.Correction>
   9.000000E+99

> <Gold.Chemscore.Hbonds>
donor molecule, donor type, donor heavy atom, donor atom, acceptor molecule, acceptor atom, score
      L1  H     7    44       P1  7948  0.99
      P1  H  7997  8009       L1    20  0.91

> <Gold.Chemscore.Hbond.Weighted>
-6.6772

> <Gold.Chemscore.Metal.Weighted>
-0.0000

> <Gold.Chemscore.Lipo.Weighted>
-8.4672

> <Gold.Chemscore.Internal_Hbond.Weighted>
0.0000

> <Gold.Chemscore.DEClash.Weighted>
0.0189

> <Gold.Chemscore.DEInternal.Weighted>
0.4810

> <Gold.Chemscore.Rot.Weighted>
4.7581

> <Gold.Chemscore.Internal.Correction.Weighted>
   9.000000E+99

> <Gold.Protein.RotatedTorsions>
[ 6907 6896 6895 6894 ] final  -15.75 input  -60.11 | X-H torsion
[ 7974 7965 7964 7962 ] final  157.46 input  175.53 | X-H torsion
[ 8008 7997 7996 7995 ] final -154.59 input   59.86 | X-H torsion
[ 10167 10162 10161 10158 ] final  -76.57 input  -65.29 | X-H torsion
[ 10718 10713 10712 10709 ] final  -48.05 input   66.30 | X-H torsion
[ 10763 10752 10751 10750 ] final -139.00 input  -60.55 | X-H torsion
[ 11005 11000 10999 10996 ] final -145.50 input  -57.11 | X-H torsion

> <Gold.Protein.ActiveResidues>
 VAL166  LYS551  ARG553  GLY616  TRP617  ASP618  TYR619  PRO620  LYS621  CYS622 
 ASP623  PHE694  ASN695  SER759  ASP760  ASP761  ALA762  ILE779  LEU786  VAL792 
 PHE793  MET794  SER795  GLU796  ALA797  LYS798  CYS799  TRP800  GLU811  SER814 

> <Gold.Protein.RotatedAtoms>
  151.3191  135.0814  159.9299 H   0  0  0  0  0  0  0  0  0  0  0  0  # atno 6907 bound_to 6896
  152.5261  133.9657  159.7749 H   0  0  0  0  0  0  0  0  0  0  0  0  # atno 6908 bound_to 6896
  150.9975  133.6036  159.2729 H   0  0  0  0  0  0  0  0  0  0  0  0  # atno 6909 bound_to 6896
  144.7902  139.7344  143.6224 H   0  0  0  0  0  0  0  0  0  0  0  0  # atno 7974 bound_to 7965
  155.6888  140.0753  157.2456 H   0  0  0  0  0  0  0  0  0  0  0  0  # atno 8008 bound_to 7997
  154.4092  140.1668  156.2116 H   0  0  0  0  0  0  0  0  0  0  0  0  # atno 8009 bound_to 7997
  155.9470  140.3380  155.6378 H   0  0  0  0  0  0  0  0  0  0  0  0  # atno 8010 bound_to 7997
  140.4845  143.2394  151.8005 H   0  0  0  0  0  0  0  0  0  0  0  0  # atno 10167 bound_to 10162
  156.2025  130.4157  149.9222 H   0  0  0  0  0  0  0  0  0  0  0  0  # atno 10718 bound_to 10713
  154.8621  135.3595  154.5476 H   0  0  0  0  0  0  0  0  0  0  0  0  # atno 10763 bound_to 10752
  153.6096  135.7010  153.5357 H   0  0  0  0  0  0  0  0  0  0  0  0  # atno 10764 bound_to 10752
  153.3221  135.4148  155.1386 H   0  0  0  0  0  0  0  0  0  0  0  0  # atno 10765 bound_to 10752
  140.7916  134.2962  157.5011 H   0  0  0  0  0  0  0  0  0  0  0  0  # atno 11005 bound_to 11000
  146.2151  139.5534  142.9656 LP  0  0  0  0  0  0  0  0  0  0  0  0  # atno 17320 bound_to 7965
  145.5815  141.0382  143.2119 LP  0  0  0  0  0  0  0  0  0  0  0  0  # atno 17321 bound_to 7965
  139.4839  144.4730  151.9402 LP  0  0  0  0  0  0  0  0  0  0  0  0  # atno 17342 bound_to 10162
  140.3815  144.2730  150.5908 LP  0  0  0  0  0  0  0  0  0  0  0  0  # atno 17343 bound_to 10162
  156.6926  130.8902  151.3590 LP  0  0  0  0  0  0  0  0  0  0  0  0  # atno 17370 bound_to 10713
  157.6994  130.9316  150.0739 LP  0  0  0  0  0  0  0  0  0  0  0  0  # atno 17371 bound_to 10713
  139.8730  134.9378  156.3696 LP  0  0  0  0  0  0  0  0  0  0  0  0  # atno 17394 bound_to 11000
  140.9384  133.7531  156.0114 LP  0  0  0  0  0  0  0  0  0  0  0  0  # atno 17395 bound_to 11000

$$$$
