AV-unprocessed.smi:2562|AV-procd|sdf|10043|dock3
  -GOLD-   2272014 83D 1   1.00000     0.00000
 Structure written by MMmdl.
 31 32  0  0  0  0  0  0  0  0  2 V2000
  151.8822  145.2818  159.2046 C   0  0  0  0  0  0  0  0  0  0  0  0
  151.4507  144.2987  158.1109 C   0  0  0  0  0  0  0  0  0  0  0  0
  151.8424  142.8495  158.4332 C   0  0  0  0  0  0  0  0  0  0  0  0
  151.4404  141.8944  157.3577 C   0  0  0  0  0  0  0  0  0  0  0  0
  151.9755  140.6767  157.2486 N   0  0  0  0  0  0  0  0  0  0  0  0
  151.4055  140.0298  156.2098 N   0  0  0  0  0  0  0  0  0  0  0  0
  150.5524  140.9429  155.7472 C   0  0  0  0  0  0  0  0  0  0  0  0
  149.6493  140.6333  154.5944 C   0  0  1  0  0  0  0  0  0  0  0  0
  149.7702  139.1670  154.1370 C   0  0  0  0  0  0  0  0  0  0  0  0
  148.7878  138.8905  153.0710 N   0  3  0  0  0  0  0  0  0  0  0  0
  147.4166  139.2355  153.4968 C   0  0  0  0  0  0  0  0  0  0  0  0
  147.3637  140.6938  153.9863 C   0  0  0  0  0  0  0  0  0  0  0  0
  148.3147  140.8873  155.0282 O   0  0  0  0  0  0  0  0  0  0  0  0
  150.5112  142.1247  156.4365 N   0  0  0  0  0  0  0  0  0  0  0  0
  152.6875  140.2633  157.8342 H   0  0  0  0  0  0  0  0  0  0  0  0
  151.5929  146.3007  158.9469 H   0  0  0  0  0  0  0  0  0  0  0  0
  152.9637  145.2679  159.3426 H   0  0  0  0  0  0  0  0  0  0  0  0
  151.4185  145.0363  160.1604 H   0  0  0  0  0  0  0  0  0  0  0  0
  150.3704  144.3640  157.9761 H   0  0  0  0  0  0  0  0  0  0  0  0
  151.8997  144.5972  157.1628 H   0  0  0  0  0  0  0  0  0  0  0  0
  152.9213  142.7767  158.5749 H   0  0  0  0  0  0  0  0  0  0  0  0
  151.3843  142.5376  159.3728 H   0  0  0  0  0  0  0  0  0  0  0  0
  149.8916  141.3061  153.7689 H   0  0  0  0  0  0  0  0  0  0  0  0
  150.7743  138.9586  153.7664 H   0  0  0  0  0  0  0  0  0  0  0  0
  149.5873  138.4901  154.9733 H   0  0  0  0  0  0  0  0  0  0  0  0
  149.0243  139.4463  152.2613 H   0  0  0  0  0  0  0  0  0  0  0  0
  146.7299  139.0844  152.6637 H   0  0  0  0  0  0  0  0  0  0  0  0
  147.1080  138.5593  154.2952 H   0  0  0  0  0  0  0  0  0  0  0  0
  147.5613  141.3865  153.1666 H   0  0  0  0  0  0  0  0  0  0  0  0
  146.3694  140.9273  154.3672 H   0  0  0  0  0  0  0  0  0  0  0  0
  148.8267  137.9122  152.8220 H   0  0  0  0  0  0  0  0  0  0  0  0
  1  2  1  0  0  0  0
  1 16  1  0  0  0  0
  1 17  1  0  0  0  0
  1 18  1  0  0  0  0
  2  3  1  0  0  0  0
  2 19  1  0  0  0  0
  2 20  1  0  0  0  0
  3 21  1  0  0  0  0
  3 22  1  0  0  0  0
  3  4  1  0  0  0  0
  4 14  2  0  0  0  0
  4  5  1  0  0  0  0
  5  6  1  0  0  0  0
  5 15  1  0  0  0  0
  6  7  2  0  0  0  0
  7 14  1  0  0  0  0
  7  8  1  0  0  0  0
  8 13  1  0  0  0  0
  8  9  1  0  0  0  0
  8 23  1  0  0  0  0
  9 10  1  0  0  0  0
  9 24  1  0  0  0  0
  9 25  1  0  0  0  0
 10 11  1  0  0  0  0
 10 26  1  0  0  0  0
 10 31  1  0  0  0  0
 11 12  1  0  0  0  0
 11 27  1  0  0  0  0
 11 28  1  0  0  0  0
 12 13  1  0  0  0  0
 12 29  1  0  0  0  0
 12 30  1  0  0  0  0
M  CHG  1  10   1
M  END
> <s_m_source_file>
AV-unprocessed.smi

> <i_m_source_file_index>
2562

> <i_lp_mmshare_version>
43012

> <i_f3d_flags>
0

> <s_epik_input>
W0NIM11bQ0gyXVtDSDJdYzFuW25IXWMobjEpW0NAQEhdMltDSDJdW05IXVtDSDJdW0NIMl1PMg==

> <s_epik_cmdline>
J2VwaWtfcHl0aG9uJywgJy1waCcsICc3LjAnLCAnLXRuJywgJzgnLCAnLW1hJywgJzIwMCcsICctbWV0YWxfYmluZGluZycsICctaW1hZScsICc8aW5maWxlLm1hZT4nLCAnLW9tYWUnLCAnPG91dGZpbGUubWFlPic=

> <r_lp_tautomer_probability>
0.948284

> <r_epik_Ionization_Penalty>
0.10647

> <r_epik_Ionization_Penalty_Charging>
0.100865

> <r_epik_Ionization_Penalty_Neutral>
0.0056057

> <r_epik_State_Penalty>
0.375056

> <r_epik_Charging_Adjusted_Penalty>
0.47592

> <i_epik_Tot_Q>
1

> <i_epik_Tot_abs_Q>
1

> <r_epik_Metal_State_Penalty>
0.497514

> <b_epik_Metal_Only>
0

> <s_lp_Force_Field>
OPLS_2005

> <r_lp_Energy>
10.4144

> <b_lp_Chiralities_Consistent>
1

> <s_lp_Variant>
AV-unprocessed.smi:2562-2

> <Gold.Version>
5.8.1

> <Gold.Id.Protein>
6NUR|6NUR_protein|mol2

> <Gold.PLP.Fitness>
37.2322

> <Gold.PLP.PLP>
-28.9636

> <Gold.PLP.part.hbond>
-2.0000

> <Gold.PLP.part.metal>
0.0000

> <Gold.PLP.part.buried>
-4.6357

> <Gold.PLP.part.nonpolar>
-23.5214

> <Gold.PLP.part.repulsive>
0.3902

> <Gold.PLP.ligand.clash>
0.0000

> <Gold.PLP.ligand.torsion>
0.3501

> <Gold.PLP.Chemscore.Hbond>
2.9840

> <Gold.PLP.Chemscore.CHOScore>
0.0000

> <Gold.PLP.Chemscore.Metal>
0.0000

> <Gold.Chemscore.Hbonds>
donor molecule, donor type, donor heavy atom, donor atom, acceptor molecule, acceptor atom, score
      L1  H    10    26       P1  7957  0.60
      L1  H    10    31       P1  7948  2.00

> <Gold.PLP.Chemscore.Internal.Correction>
0.0169

> <Gold.Rescore>
     Score         DG    S(hbond)    S(metal)    S(lipo)     H(rot)  DE(clash)    DE(int)     intcor
     15.56     -15.70       1.96        0.00      64.51       1.51       0.01       0.12       ----

> <Gold.Chemscore.Fitness>
15.5597

> <Gold.Chemscore.DG>
-15.6955

> <Gold.Chemscore.ZeroCoef>
-5.4800

> <Gold.Chemscore.Hbond>
1.9574

> <Gold.Chemscore.Metal>
0.0000

> <Gold.Chemscore.Lipo>
64.5053

> <Gold.Chemscore.Internal_Hbond>
0.0000

> <Gold.Chemscore.DEClash>
0.0143

> <Gold.Chemscore.DEInternal>
0.1215

> <Gold.Chemscore.Rot>
1.5115

> <Gold.Chemscore.Internal.Correction>
   9.000000E+99

> <Gold.Chemscore.Hbonds>
donor molecule, donor type, donor heavy atom, donor atom, acceptor molecule, acceptor atom, score
      L1  H    10    26       P1  7957  0.60
      L1  H    10    31       P1  7948  1.00

> <Gold.Chemscore.Hbond.Weighted>
-6.5378

> <Gold.Chemscore.Metal.Weighted>
-0.0000

> <Gold.Chemscore.Lipo.Weighted>
-7.5471

> <Gold.Chemscore.Internal_Hbond.Weighted>
0.0000

> <Gold.Chemscore.DEClash.Weighted>
0.0143

> <Gold.Chemscore.DEInternal.Weighted>
0.1215

> <Gold.Chemscore.Rot.Weighted>
3.8695

> <Gold.Chemscore.Internal.Correction.Weighted>
   9.000000E+99

> <Gold.Protein.RotatedTorsions>
[ 6907 6896 6895 6894 ] final -175.78 input  -60.11 | X-H torsion
[ 7974 7965 7964 7962 ] final  -30.96 input  175.53 | X-H torsion
[ 8008 7997 7996 7995 ] final -137.30 input   59.86 | X-H torsion
[ 10167 10162 10161 10158 ] final   -1.12 input  -65.29 | X-H torsion
[ 10718 10713 10712 10709 ] final  134.25 input   66.30 | X-H torsion
[ 10763 10752 10751 10750 ] final   42.04 input  -60.55 | X-H torsion
[ 11005 11000 10999 10996 ] final -166.41 input  -57.11 | X-H torsion

> <Gold.Protein.ActiveResidues>
 VAL166  LYS551  ARG553  GLY616  TRP617  ASP618  TYR619  PRO620  LYS621  CYS622 
 ASP623  PHE694  ASN695  SER759  ASP760  ASP761  ALA762  ILE779  LEU786  VAL792 
 PHE793  MET794  SER795  GLU796  ALA797  LYS798  CYS799  TRP800  GLU811  SER814 

> <Gold.Protein.RotatedAtoms>
  151.5941  133.3363  159.3033 H   0  0  0  0  0  0  0  0  0  0  0  0  # atno 6907 bound_to 6896
  150.8244  134.7471  159.6811 H   0  0  0  0  0  0  0  0  0  0  0  0  # atno 6908 bound_to 6896
  152.4334  134.5739  159.9980 H   0  0  0  0  0  0  0  0  0  0  0  0  # atno 6909 bound_to 6896
  146.1104  140.5606  142.8780 H   0  0  0  0  0  0  0  0  0  0  0  0  # atno 7974 bound_to 7965
  155.4095  140.0511  157.3032 H   0  0  0  0  0  0  0  0  0  0  0  0  # atno 8008 bound_to 7997
  154.4953  140.2136  155.9420 H   0  0  0  0  0  0  0  0  0  0  0  0  # atno 8009 bound_to 7997
  156.1397  140.3156  155.8481 H   0  0  0  0  0  0  0  0  0  0  0  0  # atno 8010 bound_to 7997
  140.6796  143.6813  150.8103 H   0  0  0  0  0  0  0  0  0  0  0  0  # atno 10167 bound_to 10162
  157.4691  131.1079  150.9824 H   0  0  0  0  0  0  0  0  0  0  0  0  # atno 10718 bound_to 10713
  152.9893  135.6144  154.2885 H   0  0  0  0  0  0  0  0  0  0  0  0  # atno 10763 bound_to 10752
  154.2611  135.2782  155.2779 H   0  0  0  0  0  0  0  0  0  0  0  0  # atno 10764 bound_to 10752
  154.5205  135.5816  153.6734 H   0  0  0  0  0  0  0  0  0  0  0  0  # atno 10765 bound_to 10752
  140.5648  134.5297  157.5150 H   0  0  0  0  0  0  0  0  0  0  0  0  # atno 11005 bound_to 11000
  144.7506  140.5182  143.6804 LP  0  0  0  0  0  0  0  0  0  0  0  0  # atno 17320 bound_to 7965
  145.5676  139.1482  143.3306 LP  0  0  0  0  0  0  0  0  0  0  0  0  # atno 17321 bound_to 7965
  140.0512  143.5248  152.2673 LP  0  0  0  0  0  0  0  0  0  0  0  0  # atno 17342 bound_to 10162
  139.6110  144.7608  151.2951 LP  0  0  0  0  0  0  0  0  0  0  0  0  # atno 17343 bound_to 10162
  157.0595  130.5820  149.5383 LP  0  0  0  0  0  0  0  0  0  0  0  0  # atno 17370 bound_to 10713
  156.0065  130.5152  150.7846 LP  0  0  0  0  0  0  0  0  0  0  0  0  # atno 17371 bound_to 10713
  139.9390  134.7822  156.0727 LP  0  0  0  0  0  0  0  0  0  0  0  0  # atno 17394 bound_to 11000
  141.1092  133.6649  156.2938 LP  0  0  0  0  0  0  0  0  0  0  0  0  # atno 17395 bound_to 11000

$$$$
