AV-unprocessed.smi:2806|AV-procd|sdf|10815|dock8
  -GOLD-   2272015253D 1   1.00000     0.00000
 Structure written by MMmdl.
 47 48  0  0  0  0  0  0  0  0  1 V2000
  146.1044  142.0829  154.4592 C   0  0  0  0  0  0  0  0  0  0  0  0
  145.4352  142.6079  155.7409 C   0  0  0  0  0  0  0  0  0  0  0  0
  144.8418  143.9979  155.4516 C   0  0  0  0  0  0  0  0  0  0  0  0
  144.3195  141.6307  156.1545 C   0  0  0  0  0  0  0  0  0  0  0  0
  146.7206  142.6895  157.0402 S   0  0  0  0  0  0  0  0  0  0  0  0
  145.8961  143.3851  158.5094 C   0  0  0  0  0  0  0  0  0  0  0  0
  146.8551  143.7799  159.6335 C   0  0  0  0  0  0  0  0  0  0  0  0
  146.8075  143.2077  160.7226 O   0  0  0  0  0  0  0  0  0  0  0  0
  147.7336  144.7537  159.3514 N   0  0  0  0  0  0  0  0  0  0  0  0
  148.7742  145.2192  160.2599 C   0  0  0  0  0  0  0  0  0  0  0  0
  150.1416  144.6488  159.9255 C   0  0  0  0  0  0  0  0  0  0  0  0
  150.7203  144.8657  158.6602 C   0  0  0  0  0  0  0  0  0  0  0  0
  151.9901  144.3165  158.4051 C   0  0  0  0  0  0  0  0  0  0  0  0
  152.6789  143.5919  159.3116 N   0  0  0  0  0  0  0  0  0  0  0  0
  152.1331  143.3792  160.5348 C   0  0  0  0  0  0  0  0  0  0  0  0
  152.8647  142.6152  161.4698 N   0  0  0  0  0  0  0  0  0  0  0  0
  153.9512  141.7738  160.9713 C   0  0  0  0  0  0  0  0  0  0  0  0
  154.4196  140.8005  162.0662 C   0  0  0  0  0  0  0  0  0  0  0  0
  154.7794  141.5294  163.2351 O   0  0  0  0  0  0  0  0  0  0  0  0
  153.6772  142.2576  163.7661 C   0  0  0  0  0  0  0  0  0  0  0  0
  153.1829  143.2812  162.7300 C   0  0  0  0  0  0  0  0  0  0  0  0
  150.8589  143.8923  160.8760 C   0  0  0  0  0  0  0  0  0  0  0  0
  145.3898  141.9999  153.6395 H   0  0  0  0  0  0  0  0  0  0  0  0
  146.5404  141.0953  154.6150 H   0  0  0  0  0  0  0  0  0  0  0  0
  146.9048  142.7470  154.1305 H   0  0  0  0  0  0  0  0  0  0  0  0
  145.6222  144.7365  155.2648 H   0  0  0  0  0  0  0  0  0  0  0  0
  144.2302  144.3564  156.2782 H   0  0  0  0  0  0  0  0  0  0  0  0
  144.1982  143.9721  154.5723 H   0  0  0  0  0  0  0  0  0  0  0  0
  143.5997  141.4924  155.3469 H   0  0  0  0  0  0  0  0  0  0  0  0
  143.7615  141.9875  157.0190 H   0  0  0  0  0  0  0  0  0  0  0  0
  144.7250  140.6496  156.4038 H   0  0  0  0  0  0  0  0  0  0  0  0
  145.2597  144.2224  158.2271 H   0  0  0  0  0  0  0  0  0  0  0  0
  145.2329  142.6166  158.9067 H   0  0  0  0  0  0  0  0  0  0  0  0
  147.7048  145.1731  158.4335 H   0  0  0  0  0  0  0  0  0  0  0  0
  148.8273  146.3059  160.1919 H   0  0  0  0  0  0  0  0  0  0  0  0
  148.5052  144.9877  161.2920 H   0  0  0  0  0  0  0  0  0  0  0  0
  150.2092  145.4408  157.9024 H   0  0  0  0  0  0  0  0  0  0  0  0
  152.4656  144.4614  157.4464 H   0  0  0  0  0  0  0  0  0  0  0  0
  153.6214  141.2053  160.1008 H   0  0  0  0  0  0  0  0  0  0  0  0
  154.7813  142.4064  160.6538 H   0  0  0  0  0  0  0  0  0  0  0  0
  153.6385  140.0759  162.3024 H   0  0  0  0  0  0  0  0  0  0  0  0
  155.2844  140.2345  161.7199 H   0  0  0  0  0  0  0  0  0  0  0  0
  152.8760  141.5725  164.0489 H   0  0  0  0  0  0  0  0  0  0  0  0
  153.9948  142.7684  164.6753 H   0  0  0  0  0  0  0  0  0  0  0  0
  153.9606  144.0227  162.5445 H   0  0  0  0  0  0  0  0  0  0  0  0
  152.3248  143.8141  163.1366 H   0  0  0  0  0  0  0  0  0  0  0  0
  150.4218  143.7025  161.8450 H   0  0  0  0  0  0  0  0  0  0  0  0
  1  2  1  0  0  0  0
  1 23  1  0  0  0  0
  1 24  1  0  0  0  0
  1 25  1  0  0  0  0
  2  3  1  0  0  0  0
  2  4  1  0  0  0  0
  2  5  1  0  0  0  0
  3 26  1  0  0  0  0
  3 27  1  0  0  0  0
  3 28  1  0  0  0  0
  4 29  1  0  0  0  0
  4 30  1  0  0  0  0
  4 31  1  0  0  0  0
  5  6  1  0  0  0  0
  6  7  1  0  0  0  0
  6 32  1  0  0  0  0
  6 33  1  0  0  0  0
  7  8  2  0  0  0  0
  7  9  1  0  0  0  0
  9 10  1  0  0  0  0
  9 34  1  0  0  0  0
 10 11  1  0  0  0  0
 10 35  1  0  0  0  0
 10 36  1  0  0  0  0
 11 22  1  0  0  0  0
 11 12  2  0  0  0  0
 12 13  1  0  0  0  0
 12 37  1  0  0  0  0
 13 14  2  0  0  0  0
 13 38  1  0  0  0  0
 14 15  1  0  0  0  0
 15 16  1  0  0  0  0
 15 22  2  0  0  0  0
 16 21  1  0  0  0  0
 16 17  1  0  0  0  0
 17 18  1  0  0  0  0
 17 39  1  0  0  0  0
 17 40  1  0  0  0  0
 18 19  1  0  0  0  0
 18 41  1  0  0  0  0
 18 42  1  0  0  0  0
 19 20  1  0  0  0  0
 20 21  1  0  0  0  0
 20 43  1  0  0  0  0
 20 44  1  0  0  0  0
 21 45  1  0  0  0  0
 21 46  1  0  0  0  0
 22 47  1  0  0  0  0
M  END
> <s_m_source_file>
AV-unprocessed.smi

> <i_m_source_file_index>
2806

> <i_lp_mmshare_version>
43012

> <i_f3d_flags>
0

> <s_epik_input>
W0NIM11DKFtDSDNdKShbQ0gzXSlTW0NIMl1DKD1PKVtOSF1bQ0gyXWMxW2NIXVtjSF1uYyhbY0hdMSlOMltDSDJdW0NIMl1PW0NIMl1bQ0gyXTI=

> <s_epik_cmdline>
J2VwaWtfcHl0aG9uJywgJy1waCcsICc3LjAnLCAnLXRuJywgJzgnLCAnLW1hJywgJzIwMCcsICctbWV0YWxfYmluZGluZycsICctaW1hZScsICc8aW5maWxlLm1hZT4nLCAnLW9tYWUnLCAnPG91dGZpbGUubWFlPic=

> <r_lp_tautomer_probability>
1

> <r_epik_Ionization_Penalty>
0.00423361

> <r_epik_Ionization_Penalty_Charging>
0

> <r_epik_Ionization_Penalty_Neutral>
0.00423361

> <r_epik_State_Penalty>
0.00304279

> <r_epik_Charging_Adjusted_Penalty>
0.00304279

> <i_epik_Tot_Q>
0

> <i_epik_Tot_abs_Q>
0

> <r_epik_Metal_State_Penalty>
-0

> <b_epik_Metal_Only>
0

> <s_lp_Force_Field>
OPLS_2005

> <r_lp_Energy>
13.38

> <b_lp_Chiralities_Consistent>
1

> <s_lp_Variant>
AV-unprocessed.smi:2806-1

> <Gold.Version>
5.8.1

> <Gold.Id.Protein>
6NUR|6NUR_protein|mol2

> <Gold.PLP.Fitness>
48.7907

> <Gold.PLP.PLP>
-41.0995

> <Gold.PLP.part.hbond>
-4.0000

> <Gold.PLP.part.metal>
0.0000

> <Gold.PLP.part.buried>
-6.0449

> <Gold.PLP.part.nonpolar>
-32.2368

> <Gold.PLP.part.repulsive>
0.1699

> <Gold.PLP.ligand.clash>
0.0000

> <Gold.PLP.ligand.torsion>
0.4321

> <Gold.PLP.Chemscore.Hbond>
2.7213

> <Gold.PLP.Chemscore.CHOScore>
0.0000

> <Gold.PLP.Chemscore.Metal>
0.0000

> <Gold.Chemscore.Hbonds>
donor molecule, donor type, donor heavy atom, donor atom, acceptor molecule, acceptor atom, score
      L1  H     9    34       P1  8029  0.67
      P1  H  6933  6944       L1     8  1.00
      P1  H  6934  6946       L1     8  0.19

> <Gold.PLP.Chemscore.Internal.Correction>
0.3915

> <Gold.Rescore>
     Score         DG    S(hbond)    S(metal)    S(lipo)     H(rot)  DE(clash)    DE(int)     intcor
     16.29     -19.65       1.88        0.00     105.36       1.73       2.87       0.49       ----

> <Gold.Chemscore.Fitness>
16.2907

> <Gold.Chemscore.DG>
-19.6504

> <Gold.Chemscore.ZeroCoef>
-5.4800

> <Gold.Chemscore.Hbond>
1.8785

> <Gold.Chemscore.Metal>
0.0000

> <Gold.Chemscore.Lipo>
105.3592

> <Gold.Chemscore.Internal_Hbond>
0.0000

> <Gold.Chemscore.DEClash>
2.8661

> <Gold.Chemscore.DEInternal>
0.4936

> <Gold.Chemscore.Rot>
1.7308

> <Gold.Chemscore.Internal.Correction>
   9.000000E+99

> <Gold.Chemscore.Hbonds>
donor molecule, donor type, donor heavy atom, donor atom, acceptor molecule, acceptor atom, score
      L1  H     9    34       P1  8029  0.67
      P1  H  6933  6944       L1     8  0.90
      P1  H  6934  6946       L1     8  0.18

> <Gold.Chemscore.Hbond.Weighted>
-6.2743

> <Gold.Chemscore.Metal.Weighted>
-0.0000

> <Gold.Chemscore.Lipo.Weighted>
-12.3270

> <Gold.Chemscore.Internal_Hbond.Weighted>
0.0000

> <Gold.Chemscore.DEClash.Weighted>
2.8661

> <Gold.Chemscore.DEInternal.Weighted>
0.4936

> <Gold.Chemscore.Rot.Weighted>
4.4309

> <Gold.Chemscore.Internal.Correction.Weighted>
   9.000000E+99

> <Gold.Protein.RotatedTorsions>
[ 6907 6896 6895 6894 ] final  127.30 input  -60.11 | X-H torsion
[ 7974 7965 7964 7962 ] final -155.39 input  175.53 | X-H torsion
[ 8008 7997 7996 7995 ] final  -35.94 input   59.86 | X-H torsion
[ 10167 10162 10161 10158 ] final  149.45 input  -65.29 | X-H torsion
[ 10718 10713 10712 10709 ] final -139.87 input   66.30 | X-H torsion
[ 10763 10752 10751 10750 ] final   88.08 input  -60.55 | X-H torsion
[ 11005 11000 10999 10996 ] final   39.69 input  -57.11 | X-H torsion

> <Gold.Protein.ActiveResidues>
 VAL166  LYS551  ARG553  GLY616  TRP617  ASP618  TYR619  PRO620  LYS621  CYS622 
 ASP623  PHE694  ASN695  SER759  ASP760  ASP761  ALA762  ILE779  LEU786  VAL792 
 PHE793  MET794  SER795  GLU796  ALA797  LYS798  CYS799  TRP800  GLU811  SER814 

> <Gold.Protein.RotatedAtoms>
  152.3825  133.6566  159.6172 H   0  0  0  0  0  0  0  0  0  0  0  0  # atno 6907 bound_to 6896
  150.7752  133.9090  159.3372 H   0  0  0  0  0  0  0  0  0  0  0  0  # atno 6908 bound_to 6896
  151.6892  135.0950  160.0282 H   0  0  0  0  0  0  0  0  0  0  0  0  # atno 6909 bound_to 6896
  144.7642  140.4255  143.5954 H   0  0  0  0  0  0  0  0  0  0  0  0  # atno 7974 bound_to 7965
  154.4084  140.1644  156.2294 H   0  0  0  0  0  0  0  0  0  0  0  0  # atno 8008 bound_to 7997
  155.9296  140.3415  155.6215 H   0  0  0  0  0  0  0  0  0  0  0  0  # atno 8009 bound_to 7997
  155.7123  140.0758  157.2357 H   0  0  0  0  0  0  0  0  0  0  0  0  # atno 8010 bound_to 7997
  139.4861  144.5601  151.7247 H   0  0  0  0  0  0  0  0  0  0  0  0  # atno 10167 bound_to 10162
  156.3157  130.7506  151.1592 H   0  0  0  0  0  0  0  0  0  0  0  0  # atno 10718 bound_to 10713
  153.1732  135.4520  154.9930 H   0  0  0  0  0  0  0  0  0  0  0  0  # atno 10763 bound_to 10752
  154.7980  135.3245  154.7622 H   0  0  0  0  0  0  0  0  0  0  0  0  # atno 10764 bound_to 10752
  153.8095  135.6956  153.4898 H   0  0  0  0  0  0  0  0  0  0  0  0  # atno 10765 bound_to 10752
  140.2003  134.3878  155.8100 H   0  0  0  0  0  0  0  0  0  0  0  0  # atno 11005 bound_to 11000
  145.6522  139.1567  143.2855 LP  0  0  0  0  0  0  0  0  0  0  0  0  # atno 17320 bound_to 7965
  146.1734  140.6610  142.9222 LP  0  0  0  0  0  0  0  0  0  0  0  0  # atno 17321 bound_to 7965
  140.5169  144.0939  150.6011 LP  0  0  0  0  0  0  0  0  0  0  0  0  # atno 17342 bound_to 10162
  140.3884  143.2765  152.0089 LP  0  0  0  0  0  0  0  0  0  0  0  0  # atno 17343 bound_to 10162
  157.7401  131.0521  150.5189 LP  0  0  0  0  0  0  0  0  0  0  0  0  # atno 17370 bound_to 10713
  156.5335  130.4190  149.6190 LP  0  0  0  0  0  0  0  0  0  0  0  0  # atno 17371 bound_to 10713
  141.2227  133.7090  156.8246 LP  0  0  0  0  0  0  0  0  0  0  0  0  # atno 17394 bound_to 11000
  140.2061  134.8861  157.3223 LP  0  0  0  0  0  0  0  0  0  0  0  0  # atno 17395 bound_to 11000

$$$$
