AV-unprocessed.smi:2452|AV-procd|sdf|9685|dock3
  -GOLD-   2272013323D 1   1.00000     0.00000
 Structure written by MMmdl.
 34 35  0  0  0  0  0  0  0  0  1 V2000
  149.0434  140.1570  154.2451 C   0  0  0  0  0  0  0  0  0  0  0  0
  150.4020  139.6753  154.6728 C   0  0  0  0  0  0  0  0  0  0  0  0
  151.3039  140.5618  155.0681 N   0  0  0  0  0  0  0  0  0  0  0  0
  152.4820  139.8474  155.3350 O   0  0  0  0  0  0  0  0  0  0  0  0
  152.2610  138.5288  155.0931 C   0  0  0  0  0  0  0  0  0  0  0  0
  153.4080  137.5995  155.3034 C   0  0  0  0  0  0  0  0  0  0  0  0
  150.9644  138.3653  154.7039 C   0  0  0  0  0  0  0  0  0  0  0  0
  150.3805  137.1265  154.3393 N   0  0  0  0  0  0  0  0  0  0  0  0
  150.5274  135.9531  154.9727 C   0  0  0  0  0  0  0  0  0  0  0  0
  151.2661  135.7631  155.9388 O   0  0  0  0  0  0  0  0  0  0  0  0
  149.7812  134.9937  154.4086 N   0  0  0  0  0  0  0  0  0  0  0  0
  149.7029  133.6144  154.8760 C   0  0  0  0  0  0  0  0  0  0  0  0
  148.9554  132.7183  153.8741 C   0  0  2  0  0  0  0  0  0  0  0  0
  147.7057  133.3617  153.2816 C   0  0  0  0  0  0  0  0  0  0  0  0
  146.8975  132.1625  152.8186 C   0  0  0  0  0  0  0  0  0  0  0  0
  147.4334  131.0053  153.6682 C   0  0  0  0  0  0  0  0  0  0  0  0
  148.4216  131.5733  154.5200 O   0  0  0  0  0  0  0  0  0  0  0  0
  148.6413  139.5410  153.4408 H   0  0  0  0  0  0  0  0  0  0  0  0
  149.0814  141.1833  153.8784 H   0  0  0  0  0  0  0  0  0  0  0  0
  148.3381  140.1295  155.0755 H   0  0  0  0  0  0  0  0  0  0  0  0
  153.2180  136.6308  154.8414 H   0  0  0  0  0  0  0  0  0  0  0  0
  153.5823  137.4386  156.3672 H   0  0  0  0  0  0  0  0  0  0  0  0
  154.3209  138.0068  154.8687 H   0  0  0  0  0  0  0  0  0  0  0  0
  149.8538  137.1190  153.4785 H   0  0  0  0  0  0  0  0  0  0  0  0
  149.2079  135.2378  153.6145 H   0  0  0  0  0  0  0  0  0  0  0  0
  150.7169  133.2438  155.0282 H   0  0  0  0  0  0  0  0  0  0  0  0
  149.2118  133.5836  155.8502 H   0  0  0  0  0  0  0  0  0  0  0  0
  149.6176  132.3970  153.0677 H   0  0  0  0  0  0  0  0  0  0  0  0
  147.1545  133.8991  154.0546 H   0  0  0  0  0  0  0  0  0  0  0  0
  147.9300  134.0615  152.4761 H   0  0  0  0  0  0  0  0  0  0  0  0
  145.8276  132.3196  152.9583 H   0  0  0  0  0  0  0  0  0  0  0  0
  147.0734  131.9640  151.7607 H   0  0  0  0  0  0  0  0  0  0  0  0
  146.6512  130.5289  154.2601 H   0  0  0  0  0  0  0  0  0  0  0  0
  147.8913  130.2442  153.0352 H   0  0  0  0  0  0  0  0  0  0  0  0
  1  2  1  0  0  0  0
  1 18  1  0  0  0  0
  1 19  1  0  0  0  0
  1 20  1  0  0  0  0
  2  7  1  0  0  0  0
  2  3  2  0  0  0  0
  3  4  1  0  0  0  0
  4  5  1  0  0  0  0
  5  6  1  0  0  0  0
  5  7  2  0  0  0  0
  6 21  1  0  0  0  0
  6 22  1  0  0  0  0
  6 23  1  0  0  0  0
  7  8  1  0  0  0  0
  8  9  1  0  0  0  0
  8 24  1  0  0  0  0
  9 10  2  0  0  0  0
  9 11  1  0  0  0  0
 11 12  1  0  0  0  0
 11 25  1  0  0  0  0
 12 13  1  0  0  0  0
 12 26  1  0  0  0  0
 12 27  1  0  0  0  0
 13 17  1  0  0  0  0
 13 14  1  0  0  0  0
 13 28  1  0  0  0  0
 14 15  1  0  0  0  0
 14 29  1  0  0  0  0
 14 30  1  0  0  0  0
 15 16  1  0  0  0  0
 15 31  1  0  0  0  0
 15 32  1  0  0  0  0
 16 17  1  0  0  0  0
 16 33  1  0  0  0  0
 16 34  1  0  0  0  0
M  END
> <s_m_source_file>
AV-unprocessed.smi

> <i_m_source_file_index>
2452

> <i_lp_mmshare_version>
43012

> <i_f3d_flags>
0

> <s_epik_input>
W0NIM11jMW5vYyhbQ0gzXSljMVtOSF1DKD1PKVtOSF1bQ0gyXVtDQEBIXTJbQ0gyXVtDSDJdW0NIMl1PMg==

> <s_epik_cmdline>
J2VwaWtfcHl0aG9uJywgJy1waCcsICc3LjAnLCAnLXRuJywgJzgnLCAnLW1hJywgJzIwMCcsICctbWV0YWxfYmluZGluZycsICctaW1hZScsICc8aW5maWxlLm1hZT4nLCAnLW9tYWUnLCAnPG91dGZpbGUubWFlPic=

> <r_lp_tautomer_probability>
1

> <r_epik_Ionization_Penalty>
3.28451e-05

> <r_epik_Ionization_Penalty_Charging>
0

> <r_epik_Ionization_Penalty_Neutral>
3.28451e-05

> <r_epik_State_Penalty>
-0

> <r_epik_Charging_Adjusted_Penalty>
0

> <i_epik_Tot_Q>
0

> <i_epik_Tot_abs_Q>
0

> <r_epik_Metal_State_Penalty>
-0

> <b_epik_Metal_Only>
0

> <s_lp_Force_Field>
OPLS_2005

> <r_lp_Energy>
18.3338

> <b_lp_Chiralities_Consistent>
1

> <s_lp_Variant>
AV-unprocessed.smi:2452-1

> <Gold.Version>
5.8.1

> <Gold.Id.Protein>
6NUR|6NUR_protein|mol2

> <Gold.PLP.Fitness>
41.1753

> <Gold.PLP.PLP>
-29.5612

> <Gold.PLP.part.hbond>
-7.2073

> <Gold.PLP.part.metal>
0.0000

> <Gold.PLP.part.buried>
3.1151

> <Gold.PLP.part.nonpolar>
-25.4066

> <Gold.PLP.part.repulsive>
0.2683

> <Gold.PLP.ligand.clash>
0.0000

> <Gold.PLP.ligand.torsion>
0.5737

> <Gold.PLP.Chemscore.Hbond>
4.1601

> <Gold.PLP.Chemscore.CHOScore>
0.0000

> <Gold.PLP.Chemscore.Metal>
0.0000

> <Gold.Chemscore.Hbonds>
donor molecule, donor type, donor heavy atom, donor atom, acceptor molecule, acceptor atom, score
      L1  H     8    24       P1  7948  1.00
      L1  H    11    25       P1  7948  0.99
      P1  H  7989  7998       L1     3  0.36
      P1  H  7997  8009       L1     4  0.94
      P1  H 10752 10765       L1    10  0.83

> <Gold.PLP.Chemscore.Internal.Correction>
0.2814

> <Gold.Rescore>
     Score         DG    S(hbond)    S(metal)    S(lipo)     H(rot)  DE(clash)    DE(int)     intcor
     14.43     -18.93       2.82        0.00      61.27       1.23       2.02       2.48       ----

> <Gold.Chemscore.Fitness>
14.4258

> <Gold.Chemscore.DG>
-18.9260

> <Gold.Chemscore.ZeroCoef>
-5.4800

> <Gold.Chemscore.Hbond>
2.8250

> <Gold.Chemscore.Metal>
0.0000

> <Gold.Chemscore.Lipo>
61.2720

> <Gold.Chemscore.Internal_Hbond>
0.0000

> <Gold.Chemscore.DEClash>
2.0219

> <Gold.Chemscore.DEInternal>
2.4783

> <Gold.Chemscore.Rot>
1.2337

> <Gold.Chemscore.Internal.Correction>
   9.000000E+99

> <Gold.Chemscore.Hbonds>
donor molecule, donor type, donor heavy atom, donor atom, acceptor molecule, acceptor atom, score
      L1  H     8    24       P1  7948  0.46
      L1  H    11    25       P1  7948  0.31
      P1  H  7997  8009       L1     4  0.74
      P1  H 10752 10765       L1    10  0.36

> <Gold.Chemscore.Hbond.Weighted>
-9.4353

> <Gold.Chemscore.Metal.Weighted>
-0.0000

> <Gold.Chemscore.Lipo.Weighted>
-7.1688

> <Gold.Chemscore.Internal_Hbond.Weighted>
0.0000

> <Gold.Chemscore.DEClash.Weighted>
2.0219

> <Gold.Chemscore.DEInternal.Weighted>
2.4783

> <Gold.Chemscore.Rot.Weighted>
3.1582

> <Gold.Chemscore.Internal.Correction.Weighted>
   9.000000E+99

> <Gold.Protein.RotatedTorsions>
[ 6907 6896 6895 6894 ] final  149.29 input  -60.11 | X-H torsion
[ 7974 7965 7964 7962 ] final -133.97 input  175.53 | X-H torsion
[ 8008 7997 7996 7995 ] final -149.05 input   59.86 | X-H torsion
[ 10167 10162 10161 10158 ] final  144.77 input  -65.29 | X-H torsion
[ 10718 10713 10712 10709 ] final  139.52 input   66.30 | X-H torsion
[ 10763 10752 10751 10750 ] final -148.01 input  -60.55 | X-H torsion
[ 11005 11000 10999 10996 ] final  167.52 input  -57.11 | X-H torsion

> <Gold.Protein.ActiveResidues>
 VAL166  LYS551  ARG553  GLY616  TRP617  ASP618  TYR619  PRO620  LYS621  CYS622 
 ASP623  PHE694  ASN695  SER759  ASP760  ASP761  ALA762  ILE779  LEU786  VAL792 
 PHE793  MET794  SER795  GLU796  ALA797  LYS798  CYS799  TRP800  GLU811  SER814 

> <Gold.Protein.RotatedAtoms>
  152.1300  133.4402  159.4715 H   0  0  0  0  0  0  0  0  0  0  0  0  # atno 6907 bound_to 6896
  150.6877  134.2432  159.4490 H   0  0  0  0  0  0  0  0  0  0  0  0  # atno 6908 bound_to 6896
  152.0315  134.9764  160.0623 H   0  0  0  0  0  0  0  0  0  0  0  0  # atno 6909 bound_to 6896
  144.9145  140.6937  143.5004 H   0  0  0  0  0  0  0  0  0  0  0  0  # atno 7974 bound_to 7965
  155.6014  140.0662  157.2732 H   0  0  0  0  0  0  0  0  0  0  0  0  # atno 8008 bound_to 7997
  154.4278  140.1817  156.1225 H   0  0  0  0  0  0  0  0  0  0  0  0  # atno 8009 bound_to 7997
  156.0156  140.3322  155.6989 H   0  0  0  0  0  0  0  0  0  0  0  0  # atno 8010 bound_to 7997
  139.4940  144.5948  151.6605 H   0  0  0  0  0  0  0  0  0  0  0  0  # atno 10167 bound_to 10162
  157.4134  131.1030  151.0430 H   0  0  0  0  0  0  0  0  0  0  0  0  # atno 10718 bound_to 10713
  154.8255  135.3345  154.6908 H   0  0  0  0  0  0  0  0  0  0  0  0  # atno 10763 bound_to 10752
  153.7534  135.6937  153.4945 H   0  0  0  0  0  0  0  0  0  0  0  0  # atno 10764 bound_to 10752
  153.2160  135.4465  155.0385 H   0  0  0  0  0  0  0  0  0  0  0  0  # atno 10765 bound_to 10752
  140.2777  134.7776  157.3731 H   0  0  0  0  0  0  0  0  0  0  0  0  # atno 11005 bound_to 11000
  145.3399  139.1735  143.4491 LP  0  0  0  0  0  0  0  0  0  0  0  0  # atno 17320 bound_to 7965
  146.3175  140.3439  142.8650 LP  0  0  0  0  0  0  0  0  0  0  0  0  # atno 17321 bound_to 7965
  140.5584  144.0310  150.6158 LP  0  0  0  0  0  0  0  0  0  0  0  0  # atno 17342 bound_to 10162
  140.3387  143.3033  152.0611 LP  0  0  0  0  0  0  0  0  0  0  0  0  # atno 17343 bound_to 10162
  157.1386  130.6133  149.5549 LP  0  0  0  0  0  0  0  0  0  0  0  0  # atno 17370 bound_to 10713
  155.9858  130.4889  150.7047 LP  0  0  0  0  0  0  0  0  0  0  0  0  # atno 17371 bound_to 10713
  140.1313  134.5091  155.8103 LP  0  0  0  0  0  0  0  0  0  0  0  0  # atno 17394 bound_to 11000
  141.2168  133.6791  156.7044 LP  0  0  0  0  0  0  0  0  0  0  0  0  # atno 17395 bound_to 11000

$$$$
