AV-unprocessed.smi:149|AV-procd|sdf|1239|dock8
  -GOLD-   2262018453D 1   1.00000     0.00000
 Structure written by MMmdl.
 59 63  0  0  0  0  0  0  0  0  1 V2000
  152.5902  130.2358  155.3814 C   0  0  0  0  0  0  0  0  0  0  0  0
  151.4679  129.8423  156.3642 C   0  0  1  0  0  0  0  0  0  0  0  0
  150.3551  130.9027  156.3587 C   0  0  0  0  0  0  0  0  0  0  0  0
  149.3049  130.3811  155.4960 N   0  0  0  0  0  0  0  0  0  0  0  0
  148.4927  131.2129  154.7940 C   0  0  0  0  0  0  0  0  0  0  0  0
  148.4941  132.5385  155.0969 N   0  0  0  0  0  0  0  0  0  0  0  0
  147.7144  133.3900  154.4252 C   0  0  0  0  0  0  0  0  0  0  0  0
  146.8702  133.1350  153.4248 N   0  0  0  0  0  0  0  0  0  0  0  0
  146.8666  131.8088  153.1074 C   0  0  0  0  0  0  0  0  0  0  0  0
  147.6432  130.7889  153.7294 C   0  0  0  0  0  0  0  0  0  0  0  0
  147.3904  129.5689  153.1108 N   0  0  0  0  0  0  0  0  0  0  0  0
  146.5168  129.8508  152.1838 C   0  0  0  0  0  0  0  0  0  0  0  0
  146.1250  131.1687  152.1299 N   0  0  0  0  0  0  0  0  0  0  0  0
  145.2181  131.7588  151.1897 C   0  0  0  0  0  0  0  0  0  0  0  0
  145.5505  133.0818  150.4956 C   0  0  0  0  0  0  0  0  0  0  0  0
  144.0463  133.4351  150.4650 C   0  0  0  0  0  0  0  0  0  0  0  0
  143.7335  134.9097  150.7736 C   0  0  0  0  0  0  0  0  0  0  0  0
  144.3910  135.3561  151.9416 O   0  0  0  0  0  0  0  0  0  0  0  0
  143.3367  133.0263  149.1565 C   0  0  0  0  0  0  0  0  0  0  0  0
  143.3680  134.0529  148.1862 O   0  0  0  0  0  0  0  0  0  0  0  0
  143.9317  132.4479  151.6495 C   0  0  0  0  0  0  0  0  0  0  0  0
  149.6820  129.0725  154.9854 C   0  0  0  0  0  0  0  0  0  0  0  0
  150.7180  128.5447  155.9862 C   0  0  1  0  0  0  0  0  0  0  0  0
  151.5427  127.4229  155.5174 N   0  0  0  0  0  0  0  0  0  0  0  0
  150.7340  126.2664  155.1328 C   0  0  0  0  0  0  0  0  0  0  0  0
  151.6009  125.0872  154.6572 C   0  0  0  0  0  0  0  0  0  0  0  0
  152.5276  124.7313  155.6771 O   0  0  0  0  0  0  0  0  0  0  0  0
  153.3668  125.8167  156.0549 C   0  0  0  0  0  0  0  0  0  0  0  0
  152.5002  126.9925  156.5366 C   0  0  0  0  0  0  0  0  0  0  0  0
  152.2145  130.3385  154.3632 H   0  0  0  0  0  0  0  0  0  0  0  0
  153.3932  129.4998  155.3642 H   0  0  0  0  0  0  0  0  0  0  0  0
  153.0361  131.1895  155.6645 H   0  0  0  0  0  0  0  0  0  0  0  0
  151.8974  129.7606  157.3631 H   0  0  0  0  0  0  0  0  0  0  0  0
  149.9464  131.0315  157.3615 H   0  0  0  0  0  0  0  0  0  0  0  0
  150.7251  131.8707  156.0186 H   0  0  0  0  0  0  0  0  0  0  0  0
  147.7759  134.4234  154.7329 H   0  0  0  0  0  0  0  0  0  0  0  0
  146.1305  129.0974  151.5127 H   0  0  0  0  0  0  0  0  0  0  0  0
  144.9977  130.9815  150.4560 H   0  0  0  0  0  0  0  0  0  0  0  0
  146.1383  133.7454  151.1329 H   0  0  0  0  0  0  0  0  0  0  0  0
  146.0178  132.9722  149.5163 H   0  0  0  0  0  0  0  0  0  0  0  0
  144.0562  135.5533  149.9548 H   0  0  0  0  0  0  0  0  0  0  0  0
  142.6614  135.0733  150.8862 H   0  0  0  0  0  0  0  0  0  0  0  0
  145.1583  134.8217  152.0780 H   0  0  0  0  0  0  0  0  0  0  0  0
  143.7864  132.1291  148.7299 H   0  0  0  0  0  0  0  0  0  0  0  0
  142.2899  132.7803  149.3366 H   0  0  0  0  0  0  0  0  0  0  0  0
  144.2678  134.3001  148.0383 H   0  0  0  0  0  0  0  0  0  0  0  0
  143.0487  131.8084  151.6358 H   0  0  0  0  0  0  0  0  0  0  0  0
  144.0417  132.9386  152.6185 H   0  0  0  0  0  0  0  0  0  0  0  0
  148.8128  128.4169  154.9212 H   0  0  0  0  0  0  0  0  0  0  0  0
  150.1152  129.1710  153.9888 H   0  0  0  0  0  0  0  0  0  0  0  0
  150.1670  128.2211  156.8716 H   0  0  0  0  0  0  0  0  0  0  0  0
  150.1197  125.9468  155.9760 H   0  0  0  0  0  0  0  0  0  0  0  0
  150.0476  126.5349  154.3300 H   0  0  0  0  0  0  0  0  0  0  0  0
  150.9751  124.2247  154.4274 H   0  0  0  0  0  0  0  0  0  0  0  0
  152.1373  125.3470  153.7434 H   0  0  0  0  0  0  0  0  0  0  0  0
  154.0372  125.4891  156.8495 H   0  0  0  0  0  0  0  0  0  0  0  0
  153.9905  126.1163  155.2112 H   0  0  0  0  0  0  0  0  0  0  0  0
  153.1543  127.8164  156.8192 H   0  0  0  0  0  0  0  0  0  0  0  0
  151.9681  126.6975  157.4424 H   0  0  0  0  0  0  0  0  0  0  0  0
  1  2  1  0  0  0  0
  1 30  1  0  0  0  0
  1 31  1  0  0  0  0
  1 32  1  0  0  0  0
  2 23  1  0  0  0  0
  2  3  1  0  0  0  0
  2 33  1  0  0  0  0
  3  4  1  0  0  0  0
  3 34  1  0  0  0  0
  3 35  1  0  0  0  0
  4  5  1  0  0  0  0
  4 22  1  0  0  0  0
  5 10  1  0  0  0  0
  5  6  2  0  0  0  0
  6  7  1  0  0  0  0
  7  8  2  0  0  0  0
  7 36  1  0  0  0  0
  8  9  1  0  0  0  0
  9 13  1  0  0  0  0
  9 10  2  0  0  0  0
 10 11  1  0  0  0  0
 11 12  2  0  0  0  0
 12 13  1  0  0  0  0
 12 37  1  0  0  0  0
 13 14  1  0  0  0  0
 14 21  1  0  0  0  0
 14 15  1  0  0  0  0
 14 38  1  0  0  0  0
 15 16  1  0  0  0  0
 15 39  1  0  0  0  0
 15 40  1  0  0  0  0
 16 17  1  0  0  0  0
 16 19  1  0  0  0  0
 16 21  1  0  0  0  0
 17 18  1  0  0  0  0
 17 41  1  0  0  0  0
 17 42  1  0  0  0  0
 18 43  1  0  0  0  0
 19 20  1  0  0  0  0
 19 44  1  0  0  0  0
 19 45  1  0  0  0  0
 20 46  1  0  0  0  0
 21 47  1  0  0  0  0
 21 48  1  0  0  0  0
 22 23  1  0  0  0  0
 22 49  1  0  0  0  0
 22 50  1  0  0  0  0
 23 24  1  0  0  0  0
 23 51  1  0  0  0  0
 24 29  1  0  0  0  0
 24 25  1  0  0  0  0
 25 26  1  0  0  0  0
 25 52  1  0  0  0  0
 25 53  1  0  0  0  0
 26 27  1  0  0  0  0
 26 54  1  0  0  0  0
 26 55  1  0  0  0  0
 27 28  1  0  0  0  0
 28 29  1  0  0  0  0
 28 56  1  0  0  0  0
 28 57  1  0  0  0  0
 29 58  1  0  0  0  0
 29 59  1  0  0  0  0
M  END
> <s_m_source_file>
AV-unprocessed.smi

> <i_m_source_file_index>
149

> <i_lp_mmshare_version>
43012

> <i_f3d_flags>
0

> <s_epik_input>
W0NIMl0xW0NIMl1PW0NIMl1bQ0gyXU4xW0NAQEhdMltDSDJdTihbQ0gyXVtDQEhdMltDSDNdKWMobltjSF1uMyljKGMzNCluW2NIXW40W0NIXShbQ0gyXTUpW0NIMl1DNShbQ0gyXVtPSF0pW0NIMl1bT0hd

> <s_epik_cmdline>
J2VwaWtfcHl0aG9uJywgJy1waCcsICc3LjAnLCAnLXRuJywgJzgnLCAnLW1hJywgJzIwMCcsICctbWV0YWxfYmluZGluZycsICctaW1hZScsICc8aW5maWxlLm1hZT4nLCAnLW9tYWUnLCAnPG91dGZpbGUubWFlPic=

> <r_lp_tautomer_probability>
1

> <r_epik_Ionization_Penalty>
0.41918

> <r_epik_Ionization_Penalty_Charging>
0

> <r_epik_Ionization_Penalty_Neutral>
0.41918

> <r_epik_State_Penalty>
0.654916

> <r_epik_Charging_Adjusted_Penalty>
0.654916

> <i_epik_Tot_Q>
0

> <i_epik_Tot_abs_Q>
0

> <r_epik_Metal_State_Penalty>
0.653217

> <b_epik_Metal_Only>
0

> <s_lp_Force_Field>
OPLS_2005

> <r_lp_Energy>
77.678

> <b_lp_Chiralities_Consistent>
1

> <s_lp_Variant>
AV-unprocessed.smi:149-6

> <Gold.Version>
5.8.1

> <Gold.Id.Protein>
6NUR|6NUR_protein|mol2

> <Gold.PLP.Fitness>
49.1198

> <Gold.PLP.PLP>
-41.4520

> <Gold.PLP.part.hbond>
-3.7521

> <Gold.PLP.part.metal>
0.0000

> <Gold.PLP.part.buried>
-0.9476

> <Gold.PLP.part.nonpolar>
-36.4120

> <Gold.PLP.part.repulsive>
0.4231

> <Gold.PLP.ligand.clash>
0.0000

> <Gold.PLP.ligand.torsion>
0.7243

> <Gold.PLP.Chemscore.Hbond>
1.8450

> <Gold.PLP.Chemscore.CHOScore>
0.9394

> <Gold.PLP.Chemscore.Metal>
0.0000

> <Gold.Chemscore.Hbonds>
donor molecule, donor type, donor heavy atom, donor atom, acceptor molecule, acceptor atom, score
      L1  H    20    46       P1  7921  1.00
      P1  H 10192 10197       L1    20  0.99

> <Gold.PLP.Chemscore.Internal.Correction>
0.7632

> <Gold.Rescore>
     Score         DG    S(hbond)    S(metal)    S(lipo)     H(rot)  DE(clash)    DE(int)     intcor
      9.03     -13.45       1.86        0.00      81.49       3.04       1.04       3.38       ----

> <Gold.Chemscore.Fitness>
9.0295

> <Gold.Chemscore.DG>
-13.4484

> <Gold.Chemscore.ZeroCoef>
-5.4800

> <Gold.Chemscore.Hbond>
1.8605

> <Gold.Chemscore.Metal>
0.0000

> <Gold.Chemscore.Lipo>
81.4871

> <Gold.Chemscore.Internal_Hbond>
0.0000

> <Gold.Chemscore.DEClash>
1.0402

> <Gold.Chemscore.DEInternal>
3.3787

> <Gold.Chemscore.Rot>
3.0390

> <Gold.Chemscore.Internal.Correction>
   9.000000E+99

> <Gold.Chemscore.Hbonds>
donor molecule, donor type, donor heavy atom, donor atom, acceptor molecule, acceptor atom, score
      L1  H    20    46       P1  7921  0.99
      P1  H 10192 10197       L1    20  0.82

> <Gold.Chemscore.Hbond.Weighted>
-6.2142

> <Gold.Chemscore.Metal.Weighted>
-0.0000

> <Gold.Chemscore.Lipo.Weighted>
-9.5340

> <Gold.Chemscore.Internal_Hbond.Weighted>
0.0000

> <Gold.Chemscore.DEClash.Weighted>
1.0402

> <Gold.Chemscore.DEInternal.Weighted>
3.3787

> <Gold.Chemscore.Rot.Weighted>
7.7798

> <Gold.Chemscore.Internal.Correction.Weighted>
   9.000000E+99

> <Gold.Protein.RotatedTorsions>
[ 6907 6896 6895 6894 ] final  -36.45 input  -60.11 | X-H torsion
[ 7974 7965 7964 7962 ] final -146.73 input  175.53 | X-H torsion
[ 8008 7997 7996 7995 ] final   -0.09 input   59.86 | X-H torsion
[ 10167 10162 10161 10158 ] final  176.78 input  -65.29 | X-H torsion
[ 10718 10713 10712 10709 ] final   46.52 input   66.30 | X-H torsion
[ 10763 10752 10751 10750 ] final -179.67 input  -60.55 | X-H torsion
[ 11005 11000 10999 10996 ] final -141.66 input  -57.11 | X-H torsion

> <Gold.Protein.ActiveResidues>
 VAL166  LYS551  ARG553  GLY616  TRP617  ASP618  TYR619  PRO620  LYS621  CYS622 
 ASP623  PHE694  ASN695  SER759  ASP760  ASP761  ALA762  ILE779  LEU786  VAL792 
 PHE793  MET794  SER795  GLU796  ALA797  LYS798  CYS799  TRP800  GLU811  SER814 

> <Gold.Protein.RotatedAtoms>
  151.0270  134.9511  159.8090 H   0  0  0  0  0  0  0  0  0  0  0  0  # atno 6907 bound_to 6896
  152.5337  134.2829  159.9024 H   0  0  0  0  0  0  0  0  0  0  0  0  # atno 6908 bound_to 6896
  151.2837  133.4155  159.2662 H   0  0  0  0  0  0  0  0  0  0  0  0  # atno 6909 bound_to 6896
  144.8140  140.5418  143.5623 H   0  0  0  0  0  0  0  0  0  0  0  0  # atno 7974 bound_to 7965
  154.6620  140.2593  155.7098 H   0  0  0  0  0  0  0  0  0  0  0  0  # atno 8008 bound_to 7997
  156.2622  140.2846  156.1018 H   0  0  0  0  0  0  0  0  0  0  0  0  # atno 8009 bound_to 7997
  155.1294  140.0378  157.2761 H   0  0  0  0  0  0  0  0  0  0  0  0  # atno 8010 bound_to 7997
  139.5227  144.2875  152.0492 H   0  0  0  0  0  0  0  0  0  0  0  0  # atno 10167 bound_to 10162
  157.4490  130.8127  149.7769 H   0  0  0  0  0  0  0  0  0  0  0  0  # atno 10718 bound_to 10713
  154.5321  135.2800  155.1171 H   0  0  0  0  0  0  0  0  0  0  0  0  # atno 10763 bound_to 10752
  154.2687  135.6308  153.5305 H   0  0  0  0  0  0  0  0  0  0  0  0  # atno 10764 bound_to 10752
  152.9959  135.5623  154.5837 H   0  0  0  0  0  0  0  0  0  0  0  0  # atno 10765 bound_to 10752
  140.8302  134.2526  157.4860 H   0  0  0  0  0  0  0  0  0  0  0  0  # atno 11005 bound_to 11000
  145.5258  139.1476  143.3527 LP  0  0  0  0  0  0  0  0  0  0  0  0  # atno 17320 bound_to 7965
  146.2441  140.5399  142.8921 LP  0  0  0  0  0  0  0  0  0  0  0  0  # atno 17321 bound_to 7965
  140.2328  144.4351  150.6293 LP  0  0  0  0  0  0  0  0  0  0  0  0  # atno 17342 bound_to 10162
  140.6344  143.2192  151.6427 LP  0  0  0  0  0  0  0  0  0  0  0  0  # atno 17343 bound_to 10162
  155.9979  130.3897  150.2722 LP  0  0  0  0  0  0  0  0  0  0  0  0  # atno 17370 bound_to 10713
  157.0892  131.0165  151.3128 LP  0  0  0  0  0  0  0  0  0  0  0  0  # atno 17371 bound_to 10713
  139.8705  134.9582  156.4292 LP  0  0  0  0  0  0  0  0  0  0  0  0  # atno 17394 bound_to 11000
  140.9006  133.7782  155.9676 LP  0  0  0  0  0  0  0  0  0  0  0  0  # atno 17395 bound_to 11000

$$$$
