AV-unprocessed.smi:2515|AV-procd|sdf|9897|dock3
  -GOLD-   2272013533D 1   1.00000     0.00000
 Structure written by MMmdl.
 36 37  0  0  0  0  0  0  0  0  1 V2000
  150.4226  130.0840  159.8359 N   0  0  0  0  0  0  0  0  0  0  0  0
  150.2871  130.7948  158.9333 C   0  0  0  0  0  0  0  0  0  0  0  0
  150.1241  131.6721  157.8235 C   0  0  0  0  0  0  0  0  0  0  0  0
  150.4825  133.0176  157.8874 N   0  0  0  0  0  0  0  0  0  0  0  0
  150.1958  133.5094  156.6849 C   0  0  0  0  0  0  0  0  0  0  0  0
  150.4064  134.8257  156.3013 N   0  0  0  0  0  0  0  0  0  0  0  0
  149.6723  132.6115  155.8269 N   0  0  0  0  0  0  0  0  0  0  0  0
  149.2558  132.8158  154.4449 C   0  0  0  0  0  0  0  0  0  0  0  0
  148.0535  133.7704  154.3564 C   0  0  0  0  0  0  0  0  0  0  0  0
  147.5801  133.9051  152.9847 N   0  0  0  0  0  0  0  0  0  0  0  0
  146.5430  133.2310  152.4636 C   0  0  0  0  0  0  0  0  0  0  0  0
  145.8827  132.4152  153.1083 O   0  0  0  0  0  0  0  0  0  0  0  0
  146.2006  133.5332  150.9941 C   0  0  0  0  0  0  0  0  0  0  0  0
  145.6715  134.9628  150.8014 C   0  0  0  0  0  0  0  0  0  0  0  0
  144.1461  134.8907  150.9627 C   0  0  0  0  0  0  0  0  0  0  0  0
  143.7568  133.4145  150.7989 C   0  0  0  0  0  0  0  0  0  0  0  0
  145.0508  132.6599  150.4707 C   0  0  0  0  0  0  0  0  0  0  0  0
  149.6326  131.4279  156.5590 C   0  0  0  0  0  0  0  0  0  0  0  0
  149.1673  130.1913  156.0630 C   0  0  0  0  0  0  0  0  0  0  0  0
  148.7851  129.1777  155.6576 N   0  0  0  0  0  0  0  0  0  0  0  0
  150.8025  135.5009  156.9394 H   0  0  0  0  0  0  0  0  0  0  0  0
  150.1616  135.1546  155.3786 H   0  0  0  0  0  0  0  0  0  0  0  0
  150.1029  133.2077  153.8810 H   0  0  0  0  0  0  0  0  0  0  0  0
  149.0143  131.8534  153.9927 H   0  0  0  0  0  0  0  0  0  0  0  0
  147.2331  133.3943  154.9682 H   0  0  0  0  0  0  0  0  0  0  0  0
  148.3121  134.7527  154.7563 H   0  0  0  0  0  0  0  0  0  0  0  0
  148.0723  134.5564  152.3903 H   0  0  0  0  0  0  0  0  0  0  0  0
  147.0953  133.3790  150.3886 H   0  0  0  0  0  0  0  0  0  0  0  0
  146.1184  135.6803  151.4915 H   0  0  0  0  0  0  0  0  0  0  0  0
  145.9143  135.3007  149.7930 H   0  0  0  0  0  0  0  0  0  0  0  0
  143.8510  135.2440  151.9518 H   0  0  0  0  0  0  0  0  0  0  0  0
  143.6444  135.5233  150.2297 H   0  0  0  0  0  0  0  0  0  0  0  0
  143.3332  133.0413  151.7323 H   0  0  0  0  0  0  0  0  0  0  0  0
  143.0038  133.2735  150.0228 H   0  0  0  0  0  0  0  0  0  0  0  0
  145.1455  132.5549  149.3890 H   0  0  0  0  0  0  0  0  0  0  0  0
  145.0525  131.6525  150.8900 H   0  0  0  0  0  0  0  0  0  0  0  0
  1  2  3  0  0  0  0
  2  3  1  0  0  0  0
  3 18  2  0  0  0  0
  3  4  1  0  0  0  0
  4  5  2  0  0  0  0
  5  6  1  0  0  0  0
  5  7  1  0  0  0  0
  6 21  1  0  0  0  0
  6 22  1  0  0  0  0
  7  8  1  0  0  0  0
  7 18  1  0  0  0  0
  8  9  1  0  0  0  0
  8 23  1  0  0  0  0
  8 24  1  0  0  0  0
  9 10  1  0  0  0  0
  9 25  1  0  0  0  0
  9 26  1  0  0  0  0
 10 11  1  0  0  0  0
 10 27  1  0  0  0  0
 11 12  2  0  0  0  0
 11 13  1  0  0  0  0
 13 17  1  0  0  0  0
 13 14  1  0  0  0  0
 13 28  1  0  0  0  0
 14 15  1  0  0  0  0
 14 29  1  0  0  0  0
 14 30  1  0  0  0  0
 15 16  1  0  0  0  0
 15 31  1  0  0  0  0
 15 32  1  0  0  0  0
 16 17  1  0  0  0  0
 16 33  1  0  0  0  0
 16 34  1  0  0  0  0
 17 35  1  0  0  0  0
 17 36  1  0  0  0  0
 18 19  1  0  0  0  0
 19 20  3  0  0  0  0
M  END
> <s_m_source_file>
AV-unprocessed.smi

> <i_m_source_file_index>
2515

> <i_lp_mmshare_version>
43012

> <i_f3d_flags>
0

> <s_epik_input>
TiNDYzFuYyhbTkgyXSluKGMxQyNOKVtDSDJdW0NIMl1bTkhdQyg9TylbQ0hdMltDSDJdW0NIMl1bQ0gyXVtDSDJdMg==

> <s_epik_cmdline>
J2VwaWtfcHl0aG9uJywgJy1waCcsICc3LjAnLCAnLXRuJywgJzgnLCAnLW1hJywgJzIwMCcsICctbWV0YWxfYmluZGluZycsICctaW1hZScsICc8aW5maWxlLm1hZT4nLCAnLW9tYWUnLCAnPG91dGZpbGUubWFlPic=

> <r_lp_tautomer_probability>
1

> <r_epik_Ionization_Penalty>
0.000275801

> <r_epik_Ionization_Penalty_Charging>
2.18328e-09

> <r_epik_Ionization_Penalty_Neutral>
0.000275798

> <r_epik_State_Penalty>
-0

> <r_epik_Charging_Adjusted_Penalty>
2.18328e-09

> <i_epik_Tot_Q>
0

> <i_epik_Tot_abs_Q>
0

> <r_epik_Metal_State_Penalty>
-0

> <b_epik_Metal_Only>
0

> <s_lp_Force_Field>
OPLS_2005

> <r_lp_Energy>
23.1048

> <b_lp_Chiralities_Consistent>
1

> <s_lp_Variant>
AV-unprocessed.smi:2515-1

> <Gold.Version>
5.8.1

> <Gold.Id.Protein>
6NUR|6NUR_protein|mol2

> <Gold.PLP.Fitness>
39.4205

> <Gold.PLP.PLP>
-33.8955

> <Gold.PLP.part.hbond>
-2.0000

> <Gold.PLP.part.metal>
0.0000

> <Gold.PLP.part.buried>
-5.9551

> <Gold.PLP.part.nonpolar>
-27.0192

> <Gold.PLP.part.repulsive>
0.3044

> <Gold.PLP.ligand.clash>
0.0000

> <Gold.PLP.ligand.torsion>
0.2536

> <Gold.PLP.Chemscore.Hbond>
2.0000

> <Gold.PLP.Chemscore.CHOScore>
0.0000

> <Gold.PLP.Chemscore.Metal>
0.0000

> <Gold.Chemscore.Hbonds>
donor molecule, donor type, donor heavy atom, donor atom, acceptor molecule, acceptor atom, score
      L1  H    10    27       P1  7948  1.00
      P1  H  6896  6907       L1     4  0.99

> <Gold.PLP.Chemscore.Internal.Correction>
0.0323

> <Gold.Rescore>
     Score         DG    S(hbond)    S(metal)    S(lipo)     H(rot)  DE(clash)    DE(int)     intcor
     12.49     -12.77       1.85        0.00      58.28       2.23       0.03       0.25       ----

> <Gold.Chemscore.Fitness>
12.4905

> <Gold.Chemscore.DG>
-12.7702

> <Gold.Chemscore.ZeroCoef>
-5.4800

> <Gold.Chemscore.Hbond>
1.8477

> <Gold.Chemscore.Metal>
0.0000

> <Gold.Chemscore.Lipo>
58.2835

> <Gold.Chemscore.Internal_Hbond>
0.0000

> <Gold.Chemscore.DEClash>
0.0280

> <Gold.Chemscore.DEInternal>
0.2517

> <Gold.Chemscore.Rot>
2.2267

> <Gold.Chemscore.Internal.Correction>
   9.000000E+99

> <Gold.Chemscore.Hbonds>
donor molecule, donor type, donor heavy atom, donor atom, acceptor molecule, acceptor atom, score
      L1  H    10    27       P1  7948  0.34
      P1  H  6896  6907       L1     4  0.85

> <Gold.Chemscore.Hbond.Weighted>
-6.1715

> <Gold.Chemscore.Metal.Weighted>
-0.0000

> <Gold.Chemscore.Lipo.Weighted>
-6.8192

> <Gold.Chemscore.Internal_Hbond.Weighted>
0.0000

> <Gold.Chemscore.DEClash.Weighted>
0.0280

> <Gold.Chemscore.DEInternal.Weighted>
0.2517

> <Gold.Chemscore.Rot.Weighted>
5.7004

> <Gold.Chemscore.Internal.Correction.Weighted>
   9.000000E+99

> <Gold.Protein.RotatedTorsions>
[ 6907 6896 6895 6894 ] final -147.51 input  -60.11 | X-H torsion
[ 7974 7965 7964 7962 ] final   77.49 input  175.53 | X-H torsion
[ 8008 7997 7996 7995 ] final   81.65 input   59.86 | X-H torsion
[ 10167 10162 10161 10158 ] final  176.61 input  -65.29 | X-H torsion
[ 10718 10713 10712 10709 ] final -138.09 input   66.30 | X-H torsion
[ 10763 10752 10751 10750 ] final  -13.30 input  -60.55 | X-H torsion
[ 11005 11000 10999 10996 ] final   35.06 input  -57.11 | X-H torsion

> <Gold.Protein.ActiveResidues>
 VAL166  LYS551  ARG553  GLY616  TRP617  ASP618  TYR619  PRO620  LYS621  CYS622 
 ASP623  PHE694  ASN695  SER759  ASP760  ASP761  ALA762  ILE779  LEU786  VAL792 
 PHE793  MET794  SER795  GLU796  ALA797  LYS798  CYS799  TRP800  GLU811  SER814 

> <Gold.Protein.RotatedAtoms>
  151.1567  133.4872  159.2594 H   0  0  0  0  0  0  0  0  0  0  0  0  # atno 6907 bound_to 6896
  151.1497  135.0221  159.8673 H   0  0  0  0  0  0  0  0  0  0  0  0  # atno 6908 bound_to 6896
  152.5463  134.1452  159.8548 H   0  0  0  0  0  0  0  0  0  0  0  0  # atno 6909 bound_to 6896
  145.6894  139.2547  143.1768 H   0  0  0  0  0  0  0  0  0  0  0  0  # atno 7974 bound_to 7965
  155.9000  140.3434  155.6019 H   0  0  0  0  0  0  0  0  0  0  0  0  # atno 8008 bound_to 7997
  155.7511  140.0820  157.2219 H   0  0  0  0  0  0  0  0  0  0  0  0  # atno 8009 bound_to 7997
  154.4042  140.1553  156.2712 H   0  0  0  0  0  0  0  0  0  0  0  0  # atno 8010 bound_to 7997
  139.5221  144.2895  152.0476 H   0  0  0  0  0  0  0  0  0  0  0  0  # atno 10167 bound_to 10162
  156.2955  130.7399  151.1436 H   0  0  0  0  0  0  0  0  0  0  0  0  # atno 10718 bound_to 10713
  153.5112  135.7016  153.5780 H   0  0  0  0  0  0  0  0  0  0  0  0  # atno 10763 bound_to 10752
  153.3869  135.3906  155.1896 H   0  0  0  0  0  0  0  0  0  0  0  0  # atno 10764 bound_to 10752
  154.8703  135.3849  154.4592 H   0  0  0  0  0  0  0  0  0  0  0  0  # atno 10765 bound_to 10752
  140.2465  134.3353  155.7906 H   0  0  0  0  0  0  0  0  0  0  0  0  # atno 11005 bound_to 11000
  146.0895  140.7672  142.9602 LP  0  0  0  0  0  0  0  0  0  0  0  0  # atno 17320 bound_to 7965
  144.7001  140.3615  143.7163 LP  0  0  0  0  0  0  0  0  0  0  0  0  # atno 17321 bound_to 7965
  140.2347  144.4332  150.6285 LP  0  0  0  0  0  0  0  0  0  0  0  0  # atno 17342 bound_to 10162
  140.6332  143.2190  151.6452 LP  0  0  0  0  0  0  0  0  0  0  0  0  # atno 17343 bound_to 10162
  157.7354  131.0572  150.5472 LP  0  0  0  0  0  0  0  0  0  0  0  0  # atno 17370 bound_to 10713
  156.5593  130.4251  149.6070 LP  0  0  0  0  0  0  0  0  0  0  0  0  # atno 17371 bound_to 10713
  141.2205  133.7329  156.8969 LP  0  0  0  0  0  0  0  0  0  0  0  0  # atno 17394 bound_to 11000
  140.1601  134.9172  157.2703 LP  0  0  0  0  0  0  0  0  0  0  0  0  # atno 17395 bound_to 11000

$$$$
