AV-unprocessed.smi:2313|AV-procd|sdf|9264|dock2
  -GOLD-   2272012483D 1   1.00000     0.00000
 Structure written by MMmdl.
 37 38  0  0  0  0  0  0  0  0  1 V2000
  153.1067  143.1007  162.9259 C   0  0  0  0  0  0  0  0  0  0  0  0
  152.7175  143.0661  161.4597 C   0  0  0  0  0  0  0  0  0  0  0  0
  151.9373  144.1451  160.8903 C   0  0  0  0  0  0  0  0  0  0  0  0
  151.6083  144.1026  159.5905 C   0  0  0  0  0  0  0  0  0  0  0  0
  151.9965  143.0370  158.7599 N   0  0  0  0  0  0  0  0  0  0  0  0
  151.5719  143.0952  157.3511 C   0  0  0  0  0  0  0  0  0  0  0  0
  150.6468  141.9370  156.9523 C   0  0  0  0  0  0  0  0  0  0  0  0
  151.0324  140.7711  157.0384 O   0  0  0  0  0  0  0  0  0  0  0  0
  149.4152  142.2880  156.5446 N   0  0  0  0  0  0  0  0  0  0  0  0
  148.3160  141.4187  156.1036 C   0  0  1  0  0  0  0  0  0  0  0  0
  148.8605  140.6190  154.9086 C   0  0  0  0  0  0  0  0  0  0  0  0
  147.9288  140.4507  157.1491 C   0  0  0  0  0  0  0  0  0  0  0  0
  147.6272  139.6931  157.9706 N   0  0  0  0  0  0  0  0  0  0  0  0
  147.0471  142.1500  155.6596 C   0  0  0  0  0  0  0  0  0  0  0  0
  145.9681  141.4729  154.8447 C   0  0  0  0  0  0  0  0  0  0  0  0
  146.7777  142.5984  154.2400 C   0  0  0  0  0  0  0  0  0  0  0  0
  152.7248  141.9803  159.2305 C   0  0  0  0  0  0  0  0  0  0  0  0
  153.0532  141.0444  158.4985 O   0  0  0  0  0  0  0  0  0  0  0  0
  153.0858  142.0398  160.6560 C   0  0  0  0  0  0  0  0  0  0  0  0
  153.8568  140.9419  161.1446 C   0  0  0  0  0  0  0  0  0  0  0  0
  154.5001  140.0600  161.5298 N   0  0  0  0  0  0  0  0  0  0  0  0
  152.6926  143.9782  163.4231 H   0  0  0  0  0  0  0  0  0  0  0  0
  154.1915  143.1327  163.0308 H   0  0  0  0  0  0  0  0  0  0  0  0
  152.7356  142.2144  163.4415 H   0  0  0  0  0  0  0  0  0  0  0  0
  151.6179  144.9760  161.5025 H   0  0  0  0  0  0  0  0  0  0  0  0
  151.0225  144.8724  159.1093 H   0  0  0  0  0  0  0  0  0  0  0  0
  151.0483  144.0302  157.1481 H   0  0  0  0  0  0  0  0  0  0  0  0
  152.4450  143.1098  156.6958 H   0  0  0  0  0  0  0  0  0  0  0  0
  149.2149  143.2772  156.5258 H   0  0  0  0  0  0  0  0  0  0  0  0
  148.1178  139.9147  154.5317 H   0  0  0  0  0  0  0  0  0  0  0  0
  149.7435  140.0420  155.1870 H   0  0  0  0  0  0  0  0  0  0  0  0
  149.1394  141.2751  154.0832 H   0  0  0  0  0  0  0  0  0  0  0  0
  146.6830  142.8398  156.4193 H   0  0  0  0  0  0  0  0  0  0  0  0
  146.1551  140.4673  154.4738 H   0  0  0  0  0  0  0  0  0  0  0  0
  144.9345  141.6834  155.1114 H   0  0  0  0  0  0  0  0  0  0  0  0
  146.2797  143.5565  154.1066 H   0  0  0  0  0  0  0  0  0  0  0  0
  147.4821  142.3354  153.4561 H   0  0  0  0  0  0  0  0  0  0  0  0
  1  2  1  0  0  0  0
  1 22  1  0  0  0  0
  1 23  1  0  0  0  0
  1 24  1  0  0  0  0
  2 19  2  0  0  0  0
  2  3  1  0  0  0  0
  3  4  2  0  0  0  0
  3 25  1  0  0  0  0
  4  5  1  0  0  0  0
  4 26  1  0  0  0  0
  5  6  1  0  0  0  0
  5 17  1  0  0  0  0
  6  7  1  0  0  0  0
  6 27  1  0  0  0  0
  6 28  1  0  0  0  0
  7  8  2  0  0  0  0
  7  9  1  0  0  0  0
  9 10  1  0  0  0  0
  9 29  1  0  0  0  0
 10 11  1  0  0  0  0
 10 12  1  0  0  0  0
 10 14  1  0  0  0  0
 11 30  1  0  0  0  0
 11 31  1  0  0  0  0
 11 32  1  0  0  0  0
 12 13  3  0  0  0  0
 14 16  1  0  0  0  0
 14 15  1  0  0  0  0
 14 33  1  0  0  0  0
 15 16  1  0  0  0  0
 15 34  1  0  0  0  0
 15 35  1  0  0  0  0
 16 36  1  0  0  0  0
 16 37  1  0  0  0  0
 17 18  2  0  0  0  0
 17 19  1  0  0  0  0
 19 20  1  0  0  0  0
 20 21  3  0  0  0  0
M  END
> <s_m_source_file>
AV-unprocessed.smi

> <i_m_source_file_index>
2313

> <i_lp_mmshare_version>
43012

> <i_f3d_flags>
0

> <s_epik_input>
W0NIM11jMVtjSF1bY0hdbihjKD1PKWMxQyNOKVtDSDJdQyg9TylbTkhdW0NAQF0oW0NIM10pKEMjTilbQ0hdMltDSDJdW0NIMl0y

> <s_epik_cmdline>
J2VwaWtfcHl0aG9uJywgJy1waCcsICc3LjAnLCAnLXRuJywgJzgnLCAnLW1hJywgJzIwMCcsICctbWV0YWxfYmluZGluZycsICctaW1hZScsICc8aW5maWxlLm1hZT4nLCAnLW9tYWUnLCAnPG91dGZpbGUubWFlPic=

> <r_lp_tautomer_probability>
1

> <r_epik_Ionization_Penalty>
4.65501e-07

> <r_epik_Ionization_Penalty_Charging>
2.39086e-10

> <r_epik_Ionization_Penalty_Neutral>
4.65262e-07

> <r_epik_State_Penalty>
-0

> <r_epik_Charging_Adjusted_Penalty>
2.39086e-10

> <i_epik_Tot_Q>
0

> <i_epik_Tot_abs_Q>
0

> <r_epik_Metal_State_Penalty>
-0

> <b_epik_Metal_Only>
0

> <s_lp_Force_Field>
OPLS_2005

> <r_lp_Energy>
24.9024

> <b_lp_Chiralities_Consistent>
1

> <s_lp_Variant>
AV-unprocessed.smi:2313-1

> <Gold.Version>
5.8.1

> <Gold.Id.Protein>
6NUR|6NUR_protein|mol2

> <Gold.PLP.Fitness>
48.1017

> <Gold.PLP.PLP>
-44.5556

> <Gold.PLP.part.hbond>
-2.7184

> <Gold.PLP.part.metal>
0.0000

> <Gold.PLP.part.buried>
-2.8562

> <Gold.PLP.part.nonpolar>
-38.6615

> <Gold.PLP.part.repulsive>
0.0554

> <Gold.PLP.ligand.clash>
0.0000

> <Gold.PLP.ligand.torsion>
0.7934

> <Gold.PLP.Chemscore.Hbond>
1.2122

> <Gold.PLP.Chemscore.CHOScore>
0.0000

> <Gold.PLP.Chemscore.Metal>
0.0000

> <Gold.Chemscore.Hbonds>
donor molecule, donor type, donor heavy atom, donor atom, acceptor molecule, acceptor atom, score
      L1  H     9    29       P1  8028  1.00
      P1  H  7997  8008       L1    18  0.13

> <Gold.PLP.Chemscore.Internal.Correction>
1.4964

> <Gold.Rescore>
     Score         DG    S(hbond)    S(metal)    S(lipo)     H(rot)  DE(clash)    DE(int)     intcor
     10.23     -16.16       1.28        0.00      93.98       1.80       0.59       5.34       ----

> <Gold.Chemscore.Fitness>
10.2255

> <Gold.Chemscore.DG>
-16.1580

> <Gold.Chemscore.ZeroCoef>
-5.4800

> <Gold.Chemscore.Hbond>
1.2810

> <Gold.Chemscore.Metal>
0.0000

> <Gold.Chemscore.Lipo>
93.9837

> <Gold.Chemscore.Internal_Hbond>
0.0000

> <Gold.Chemscore.DEClash>
0.5949

> <Gold.Chemscore.DEInternal>
5.3376

> <Gold.Chemscore.Rot>
1.7955

> <Gold.Chemscore.Internal.Correction>
   9.000000E+99

> <Gold.Chemscore.Hbonds>
donor molecule, donor type, donor heavy atom, donor atom, acceptor molecule, acceptor atom, score
      L1  H     9    29       P1  8028  0.95
      P1  H  7997  8008       L1    18  0.14

> <Gold.Chemscore.Hbond.Weighted>
-4.2785

> <Gold.Chemscore.Metal.Weighted>
-0.0000

> <Gold.Chemscore.Lipo.Weighted>
-10.9961

> <Gold.Chemscore.Internal_Hbond.Weighted>
0.0000

> <Gold.Chemscore.DEClash.Weighted>
0.5949

> <Gold.Chemscore.DEInternal.Weighted>
5.3376

> <Gold.Chemscore.Rot.Weighted>
4.5965

> <Gold.Chemscore.Internal.Correction.Weighted>
   9.000000E+99

> <Gold.Protein.RotatedTorsions>
[ 6907 6896 6895 6894 ] final   66.79 input  -60.11 | X-H torsion
[ 7974 7965 7964 7962 ] final   79.11 input  175.53 | X-H torsion
[ 8008 7997 7996 7995 ] final  -88.13 input   59.86 | X-H torsion
[ 10167 10162 10161 10158 ] final -169.35 input  -65.29 | X-H torsion
[ 10718 10713 10712 10709 ] final   46.88 input   66.30 | X-H torsion
[ 10763 10752 10751 10750 ] final  -19.37 input  -60.55 | X-H torsion
[ 11005 11000 10999 10996 ] final -112.88 input  -57.11 | X-H torsion

> <Gold.Protein.ActiveResidues>
 VAL166  LYS551  ARG553  GLY616  TRP617  ASP618  TYR619  PRO620  LYS621  CYS622 
 ASP623  PHE694  ASN695  SER759  ASP760  ASP761  ALA762  ILE779  LEU786  VAL792 
 PHE793  MET794  SER795  GLU796  ALA797  LYS798  CYS799  TRP800  GLU811  SER814 

> <Gold.Protein.RotatedAtoms>
  152.4506  134.5401  159.9836 H   0  0  0  0  0  0  0  0  0  0  0  0  # atno 6907 bound_to 6896
  151.5475  133.3417  159.2955 H   0  0  0  0  0  0  0  0  0  0  0  0  # atno 6908 bound_to 6896
  150.8434  134.7766  159.7014 H   0  0  0  0  0  0  0  0  0  0  0  0  # atno 6909 bound_to 6896
  145.6684  139.2490  143.1882 H   0  0  0  0  0  0  0  0  0  0  0  0  # atno 7974 bound_to 7965
  154.6713  140.0557  157.0168 H   0  0  0  0  0  0  0  0  0  0  0  0  # atno 8008 bound_to 7997
  155.1085  140.3236  155.4509 H   0  0  0  0  0  0  0  0  0  0  0  0  # atno 8009 bound_to 7997
  156.2658  140.2018  156.6210 H   0  0  0  0  0  0  0  0  0  0  0  0  # atno 8010 bound_to 7997
  139.5928  144.1176  152.1654 H   0  0  0  0  0  0  0  0  0  0  0  0  # atno 10167 bound_to 10162
  157.4527  130.8148  149.7805 H   0  0  0  0  0  0  0  0  0  0  0  0  # atno 10718 bound_to 10713
  153.6038  135.6998  153.5374 H   0  0  0  0  0  0  0  0  0  0  0  0  # atno 10763 bound_to 10752
  153.3074  135.4111  155.1306 H   0  0  0  0  0  0  0  0  0  0  0  0  # atno 10764 bound_to 10752
  154.8577  135.3664  154.5574 H   0  0  0  0  0  0  0  0  0  0  0  0  # atno 10765 bound_to 10752
  141.0648  133.9477  157.2599 H   0  0  0  0  0  0  0  0  0  0  0  0  # atno 11005 bound_to 11000
  146.1066  140.7479  142.9523 LP  0  0  0  0  0  0  0  0  0  0  0  0  # atno 17320 bound_to 7965
  144.7065  140.3872  143.7114 LP  0  0  0  0  0  0  0  0  0  0  0  0  # atno 17321 bound_to 7965
  140.0755  144.5744  150.7160 LP  0  0  0  0  0  0  0  0  0  0  0  0  # atno 17342 bound_to 10162
  140.7187  143.2568  151.4349 LP  0  0  0  0  0  0  0  0  0  0  0  0  # atno 17343 bound_to 10162
  155.9994  130.3889  150.2665 LP  0  0  0  0  0  0  0  0  0  0  0  0  # atno 17370 bound_to 10713
  157.0838  131.0151  151.3147 LP  0  0  0  0  0  0  0  0  0  0  0  0  # atno 17371 bound_to 10713
  139.9466  135.0183  156.8870 LP  0  0  0  0  0  0  0  0  0  0  0  0  # atno 17394 bound_to 11000
  140.5795  134.0365  155.7459 LP  0  0  0  0  0  0  0  0  0  0  0  0  # atno 17395 bound_to 11000

$$$$
