AV-unprocessed.smi:2405|AV-procd|sdf|9514|dock4
  -GOLD-   2272013143D 1   1.00000     0.00000
 Structure written by MMmdl.
 36 37  0  0  0  0  0  0  0  0  2 V2000
  151.4031  144.4077  159.8531 C   0  0  0  0  0  0  0  0  0  0  0  0
  151.9170  143.1735  159.1042 C   0  0  0  0  0  0  0  0  0  0  0  0
  152.4500  142.1261  160.0235 C   0  0  0  0  0  0  0  0  0  0  0  0
  153.0076  140.9894  159.5993 N   0  0  0  0  0  0  0  0  0  0  0  0
  153.4524  140.1808  160.6504 C   0  0  0  0  0  0  0  0  0  0  0  0
  154.0897  138.8537  160.3575 C   0  0  0  0  0  0  0  0  0  0  0  0
  153.0503  137.8824  159.7969 C   0  0  0  0  0  0  0  0  0  0  0  0
  152.7322  136.8814  160.4393 O   0  0  0  0  0  0  0  0  0  0  0  0
  152.5330  138.1882  158.5976 N   0  0  0  0  0  0  0  0  0  0  0  0
  151.5351  137.4001  157.8819 C   0  0  2  0  0  0  0  0  0  0  0  0
  152.1057  136.8096  156.5756 C   0  0  0  0  0  0  0  0  0  0  0  0
  151.1372  137.2230  155.4616 C   0  0  0  0  0  0  0  0  0  0  0  0
  150.4939  138.5291  155.9496 C   0  0  2  0  0  0  0  0  0  0  0  0
  151.3746  139.7474  155.5967 C   0  0  0  0  0  0  0  0  0  0  0  0
  150.8418  140.6368  154.8974 O   0  0  0  0  0  0  0  0  0  0  0  0
  152.5484  139.7913  156.0288 O   0  5  0  0  0  0  0  0  0  0  0  0
  150.3470  138.2874  157.4640 C   0  0  0  0  0  0  0  0  0  0  0  0
  153.2425  140.7399  161.8871 C   0  0  0  0  0  0  0  0  0  0  0  0
  152.4690  142.2967  161.7747 S   0  0  0  0  0  0  0  0  0  0  0  0
  151.0203  145.1535  159.1562 H   0  0  0  0  0  0  0  0  0  0  0  0
  152.1985  144.8732  160.4356 H   0  0  0  0  0  0  0  0  0  0  0  0
  150.5960  144.1446  160.5371 H   0  0  0  0  0  0  0  0  0  0  0  0
  151.1138  142.7390  158.5087 H   0  0  0  0  0  0  0  0  0  0  0  0
  152.7029  143.4623  158.4053 H   0  0  0  0  0  0  0  0  0  0  0  0
  154.9069  138.9597  159.6425 H   0  0  0  0  0  0  0  0  0  0  0  0
  154.5266  138.4310  161.2629 H   0  0  0  0  0  0  0  0  0  0  0  0
  152.8608  139.0260  158.1365 H   0  0  0  0  0  0  0  0  0  0  0  0
  151.1687  136.6035  158.5320 H   0  0  0  0  0  0  0  0  0  0  0  0
  153.0931  137.2227  156.3628 H   0  0  0  0  0  0  0  0  0  0  0  0
  152.2175  135.7264  156.6316 H   0  0  0  0  0  0  0  0  0  0  0  0
  151.6381  137.3103  154.4962 H   0  0  0  0  0  0  0  0  0  0  0  0
  150.3630  136.4629  155.3498 H   0  0  0  0  0  0  0  0  0  0  0  0
  149.5188  138.6815  155.4858 H   0  0  0  0  0  0  0  0  0  0  0  0
  149.4205  137.7382  157.6356 H   0  0  0  0  0  0  0  0  0  0  0  0
  150.2631  139.2016  158.0541 H   0  0  0  0  0  0  0  0  0  0  0  0
  153.4935  140.3288  162.8537 H   0  0  0  0  0  0  0  0  0  0  0  0
  1  2  1  0  0  0  0
  1 20  1  0  0  0  0
  1 21  1  0  0  0  0
  1 22  1  0  0  0  0
  2  3  1  0  0  0  0
  2 23  1  0  0  0  0
  2 24  1  0  0  0  0
  3 19  1  0  0  0  0
  3  4  2  0  0  0  0
  4  5  1  0  0  0  0
  5  6  1  0  0  0  0
  5 18  2  0  0  0  0
  6  7  1  0  0  0  0
  6 25  1  0  0  0  0
  6 26  1  0  0  0  0
  7  8  2  0  0  0  0
  7  9  1  0  0  0  0
  9 10  1  0  0  0  0
  9 27  1  0  0  0  0
 10 17  1  0  0  0  0
 10 11  1  0  0  0  0
 10 28  1  0  0  0  0
 11 12  1  0  0  0  0
 11 29  1  0  0  0  0
 11 30  1  0  0  0  0
 12 13  1  0  0  0  0
 12 31  1  0  0  0  0
 12 32  1  0  0  0  0
 13 14  1  0  0  0  0
 13 17  1  0  0  0  0
 13 33  1  0  0  0  0
 14 15  2  0  0  0  0
 14 16  1  0  0  0  0
 17 34  1  0  0  0  0
 17 35  1  0  0  0  0
 18 19  1  0  0  0  0
 18 36  1  0  0  0  0
M  CHG  1  16  -1
M  END
> <s_m_source_file>
AV-unprocessed.smi

> <i_m_source_file_index>
2405

> <i_lp_mmshare_version>
43012

> <i_f3d_flags>
0

> <s_epik_input>
W0NIM11bQ0gyXWMxbmMoW2NIXXMxKVtDSDJdQyg9TylbTkhdW0NAQEhdMltDSDJdW0NIMl1bQ0BIXShbQ0gyXTIpQyg9TylbT0hd

> <s_epik_cmdline>
J2VwaWtfcHl0aG9uJywgJy1waCcsICc3LjAnLCAnLXRuJywgJzgnLCAnLW1hJywgJzIwMCcsICctbWV0YWxfYmluZGluZycsICctaW1hZScsICc8aW5maWxlLm1hZT4nLCAnLW9tYWUnLCAnPG91dGZpbGUubWFlPic=

> <r_epik_Ionization_Penalty>
0.000544611

> <r_epik_Ionization_Penalty_Charging>
0.000481685

> <r_epik_Ionization_Penalty_Neutral>
6.29266e-05

> <r_epik_State_Penalty>
0.00029893

> <r_epik_Charging_Adjusted_Penalty>
0.000780614

> <i_epik_Tot_Q>
-1

> <i_epik_Tot_abs_Q>
1

> <r_epik_Metal_State_Penalty>
-0

> <b_epik_Metal_Only>
0

> <s_lp_Force_Field>
OPLS_2005

> <r_lp_Energy>
7.32439

> <b_lp_Chiralities_Consistent>
1

> <s_lp_Variant>
AV-unprocessed.smi:2405-3

> <Gold.Version>
5.8.1

> <Gold.Id.Protein>
6NUR|6NUR_protein|mol2

> <Gold.PLP.Fitness>
44.8386

> <Gold.PLP.PLP>
-34.5208

> <Gold.PLP.part.hbond>
-2.2974

> <Gold.PLP.part.metal>
0.0000

> <Gold.PLP.part.buried>
-4.9508

> <Gold.PLP.part.nonpolar>
-27.5233

> <Gold.PLP.part.repulsive>
0.1739

> <Gold.PLP.ligand.clash>
0.0000

> <Gold.PLP.ligand.torsion>
0.1655

> <Gold.PLP.Chemscore.Hbond>
3.5363

> <Gold.PLP.Chemscore.CHOScore>
0.0000

> <Gold.PLP.Chemscore.Metal>
0.0000

> <Gold.Chemscore.Hbonds>
donor molecule, donor type, donor heavy atom, donor atom, acceptor molecule, acceptor atom, score
      P1  H  6896  6908       L1     8  1.00
      P1  H  7989  7998       L1    15  0.96
      P1  H  7997  8009       L1    16  2.00

> <Gold.PLP.Chemscore.Internal.Correction>
0.0402

> <Gold.Rescore>
     Score         DG    S(hbond)    S(metal)    S(lipo)     H(rot)  DE(clash)    DE(int)     intcor
     19.17     -20.35       2.95        0.00      87.95       2.06       0.02       1.16       ----

> <Gold.Chemscore.Fitness>
19.1742

> <Gold.Chemscore.DG>
-20.3509

> <Gold.Chemscore.ZeroCoef>
-5.4800

> <Gold.Chemscore.Hbond>
2.9532

> <Gold.Chemscore.Metal>
0.0000

> <Gold.Chemscore.Lipo>
87.9459

> <Gold.Chemscore.Internal_Hbond>
0.0000

> <Gold.Chemscore.DEClash>
0.0210

> <Gold.Chemscore.DEInternal>
1.1557

> <Gold.Chemscore.Rot>
2.0635

> <Gold.Chemscore.Internal.Correction>
   9.000000E+99

> <Gold.Chemscore.Hbonds>
donor molecule, donor type, donor heavy atom, donor atom, acceptor molecule, acceptor atom, score
      P1  H  6896  6908       L1     8  0.97
      P1  H  7989  7998       L1    15  0.78
      P1  H  7997  8009       L1    16  1.00

> <Gold.Chemscore.Hbond.Weighted>
-9.8637

> <Gold.Chemscore.Metal.Weighted>
-0.0000

> <Gold.Chemscore.Lipo.Weighted>
-10.2897

> <Gold.Chemscore.Internal_Hbond.Weighted>
0.0000

> <Gold.Chemscore.DEClash.Weighted>
0.0210

> <Gold.Chemscore.DEInternal.Weighted>
1.1557

> <Gold.Chemscore.Rot.Weighted>
5.2825

> <Gold.Chemscore.Internal.Correction.Weighted>
   9.000000E+99

> <Gold.Protein.RotatedTorsions>
[ 6907 6896 6895 6894 ] final  -97.84 input  -60.11 | X-H torsion
[ 7974 7965 7964 7962 ] final -126.55 input  175.53 | X-H torsion
[ 8008 7997 7996 7995 ] final -165.98 input   59.86 | X-H torsion
[ 10167 10162 10161 10158 ] final  178.80 input  -65.29 | X-H torsion
[ 10718 10713 10712 10709 ] final  -30.94 input   66.30 | X-H torsion
[ 10763 10752 10751 10750 ] final -121.28 input  -60.55 | X-H torsion
[ 11005 11000 10999 10996 ] final   72.49 input  -57.11 | X-H torsion

> <Gold.Protein.ActiveResidues>
 VAL166  LYS551  ARG553  GLY616  TRP617  ASP618  TYR619  PRO620  LYS621  CYS622 
 ASP623  PHE694  ASN695  SER759  ASP760  ASP761  ALA762  ILE779  LEU786  VAL792 
 PHE793  MET794  SER795  GLU796  ALA797  LYS798  CYS799  TRP800  GLU811  SER814 

> <Gold.Protein.RotatedAtoms>
  150.7028  134.1286  159.4060 H   0  0  0  0  0  0  0  0  0  0  0  0  # atno 6907 bound_to 6896
  151.9272  135.0270  160.0536 H   0  0  0  0  0  0  0  0  0  0  0  0  # atno 6908 bound_to 6896
  152.2206  133.4946  159.5197 H   0  0  0  0  0  0  0  0  0  0  0  0  # atno 6909 bound_to 6896
  144.9861  140.7688  143.4582 H   0  0  0  0  0  0  0  0  0  0  0  0  # atno 7974 bound_to 7965
  155.8575  140.0973  157.1635 H   0  0  0  0  0  0  0  0  0  0  0  0  # atno 8008 bound_to 7997
  154.3988  140.1371  156.3982 H   0  0  0  0  0  0  0  0  0  0  0  0  # atno 8009 bound_to 7997
  155.7894  140.3456  155.5343 H   0  0  0  0  0  0  0  0  0  0  0  0  # atno 8010 bound_to 7997
  139.5309  144.2636  152.0686 H   0  0  0  0  0  0  0  0  0  0  0  0  # atno 10167 bound_to 10162
  156.3935  130.4377  149.7376 H   0  0  0  0  0  0  0  0  0  0  0  0  # atno 10718 bound_to 10713
  154.8664  135.4173  154.2594 H   0  0  0  0  0  0  0  0  0  0  0  0  # atno 10763 bound_to 10752
  153.3525  135.6999  153.6782 H   0  0  0  0  0  0  0  0  0  0  0  0  # atno 10764 bound_to 10752
  153.5716  135.3590  155.2812 H   0  0  0  0  0  0  0  0  0  0  0  0  # atno 10765 bound_to 10752
  139.9488  134.7264  156.0913 H   0  0  0  0  0  0  0  0  0  0  0  0  # atno 11005 bound_to 11000
  145.2351  139.2097  143.5022 LP  0  0  0  0  0  0  0  0  0  0  0  0  # atno 17320 bound_to 7965
  146.3420  140.2236  142.8592 LP  0  0  0  0  0  0  0  0  0  0  0  0  # atno 17321 bound_to 7965
  140.2100  144.4572  150.6390 LP  0  0  0  0  0  0  0  0  0  0  0  0  # atno 17342 bound_to 10162
  140.6487  143.2219  151.6128 LP  0  0  0  0  0  0  0  0  0  0  0  0  # atno 17343 bound_to 10162
  156.4420  130.7866  151.2887 LP  0  0  0  0  0  0  0  0  0  0  0  0  # atno 17370 bound_to 10713
  157.7500  131.0122  150.3374 LP  0  0  0  0  0  0  0  0  0  0  0  0  # atno 17371 bound_to 10713
  141.1146  133.6632  156.3062 LP  0  0  0  0  0  0  0  0  0  0  0  0  # atno 17394 bound_to 11000
  140.5769  134.5785  157.5470 LP  0  0  0  0  0  0  0  0  0  0  0  0  # atno 17395 bound_to 11000

$$$$
