AV-unprocessed.smi:2178|AV-procd|sdf|8852|dock3
  -GOLD-   2272012 43D 1   1.00000     0.00000
 Structure written by MMmdl.
 46 48  0  0  0  0  0  0  0  0  1 V2000
  154.7483  139.9111  160.8434 C   0  0  0  0  0  0  0  0  0  0  0  0
  154.2429  141.1160  161.6157 C   0  0  0  0  0  0  0  0  0  0  0  0
  154.5903  141.2590  162.9748 C   0  0  0  0  0  0  0  0  0  0  0  0
  154.1179  142.3575  163.7164 C   0  0  0  0  0  0  0  0  0  0  0  0
  153.2909  143.3166  163.1037 C   0  0  0  0  0  0  0  0  0  0  0  0
  152.9392  143.1858  161.7444 C   0  0  0  0  0  0  0  0  0  0  0  0
  152.0403  144.2228  161.0973 C   0  0  0  0  0  0  0  0  0  0  0  0
  153.4272  142.0915  160.9930 C   0  0  0  0  0  0  0  0  0  0  0  0
  153.0817  141.9703  159.6718 O   0  0  0  0  0  0  0  0  0  0  0  0
  151.7837  141.4310  159.4681 C   0  0  0  0  0  0  0  0  0  0  0  0
  151.5768  141.1889  157.9657 C   0  0  2  0  0  0  0  0  0  0  0  0
  151.5323  142.4415  157.3103 O   0  0  0  0  0  0  0  0  0  0  0  0
  150.2696  140.4218  157.6819 C   0  0  0  0  0  0  0  0  0  0  0  0
  149.9546  140.3534  156.2610 N   0  0  0  0  0  0  0  0  0  0  0  0
  150.6712  139.7597  155.2733 C   0  0  0  0  0  0  0  0  0  0  0  0
  151.9597  139.0434  155.5393 C   0  0  0  0  0  0  0  0  0  0  0  0
  152.9953  139.4433  154.6678 O   0  0  0  0  0  0  0  0  0  0  0  0
  150.1536  139.8465  154.0476 N   0  0  0  0  0  0  0  0  0  0  0  0
  148.9907  140.5610  154.2593 C   0  0  0  0  0  0  0  0  0  0  0  0
  147.9944  140.9818  153.3497 C   0  0  0  0  0  0  0  0  0  0  0  0
  146.8763  141.7121  153.8031 C   0  0  0  0  0  0  0  0  0  0  0  0
  146.7386  142.0306  155.1696 C   0  0  0  0  0  0  0  0  0  0  0  0
  147.7195  141.6203  156.0929 C   0  0  0  0  0  0  0  0  0  0  0  0
  148.8344  140.8925  155.6351 C   0  0  0  0  0  0  0  0  0  0  0  0
  154.9160  139.0648  161.5101 H   0  0  0  0  0  0  0  0  0  0  0  0
  155.6912  140.1476  160.3503 H   0  0  0  0  0  0  0  0  0  0  0  0
  154.0306  139.5988  160.0842 H   0  0  0  0  0  0  0  0  0  0  0  0
  155.2187  140.5233  163.4550 H   0  0  0  0  0  0  0  0  0  0  0  0
  154.3851  142.4612  164.7578 H   0  0  0  0  0  0  0  0  0  0  0  0
  152.9265  144.1527  163.6827 H   0  0  0  0  0  0  0  0  0  0  0  0
  151.2403  143.7405  160.5349 H   0  0  0  0  0  0  0  0  0  0  0  0
  152.6148  144.8475  160.4132 H   0  0  0  0  0  0  0  0  0  0  0  0
  151.5813  144.8709  161.8446 H   0  0  0  0  0  0  0  0  0  0  0  0
  151.7228  140.4823  160.0038 H   0  0  0  0  0  0  0  0  0  0  0  0
  151.0019  142.0738  159.8757 H   0  0  0  0  0  0  0  0  0  0  0  0
  152.4194  140.6196  157.5723 H   0  0  0  0  0  0  0  0  0  0  0  0
  151.2211  142.3087  156.4280 H   0  0  0  0  0  0  0  0  0  0  0  0
  150.3329  139.4066  158.0739 H   0  0  0  0  0  0  0  0  0  0  0  0
  149.4338  140.8909  158.2027 H   0  0  0  0  0  0  0  0  0  0  0  0
  152.2739  139.2377  156.5655 H   0  0  0  0  0  0  0  0  0  0  0  0
  151.8122  137.9672  155.4565 H   0  0  0  0  0  0  0  0  0  0  0  0
  152.6480  140.0799  154.0620 H   0  0  0  0  0  0  0  0  0  0  0  0
  148.0910  140.7420  152.3012 H   0  0  0  0  0  0  0  0  0  0  0  0
  146.1211  142.0293  153.0989 H   0  0  0  0  0  0  0  0  0  0  0  0
  145.8794  142.5907  155.5085 H   0  0  0  0  0  0  0  0  0  0  0  0
  147.6169  141.8642  157.1396 H   0  0  0  0  0  0  0  0  0  0  0  0
  1  2  1  0  0  0  0
  1 25  1  0  0  0  0
  1 26  1  0  0  0  0
  1 27  1  0  0  0  0
  2  8  1  0  0  0  0
  2  3  2  0  0  0  0
  3  4  1  0  0  0  0
  3 28  1  0  0  0  0
  4  5  2  0  0  0  0
  4 29  1  0  0  0  0
  5  6  1  0  0  0  0
  5 30  1  0  0  0  0
  6  7  1  0  0  0  0
  6  8  2  0  0  0  0
  7 31  1  0  0  0  0
  7 32  1  0  0  0  0
  7 33  1  0  0  0  0
  8  9  1  0  0  0  0
  9 10  1  0  0  0  0
 10 11  1  0  0  0  0
 10 34  1  0  0  0  0
 10 35  1  0  0  0  0
 11 12  1  0  0  0  0
 11 13  1  0  0  0  0
 11 36  1  0  0  0  0
 12 37  1  0  0  0  0
 13 14  1  0  0  0  0
 13 38  1  0  0  0  0
 13 39  1  0  0  0  0
 14 24  1  0  0  0  0
 14 15  1  0  0  0  0
 15 16  1  0  0  0  0
 15 18  2  0  0  0  0
 16 17  1  0  0  0  0
 16 40  1  0  0  0  0
 16 41  1  0  0  0  0
 17 42  1  0  0  0  0
 18 19  1  0  0  0  0
 19 24  2  0  0  0  0
 19 20  1  0  0  0  0
 20 21  2  0  0  0  0
 20 43  1  0  0  0  0
 21 22  1  0  0  0  0
 21 44  1  0  0  0  0
 22 23  2  0  0  0  0
 22 45  1  0  0  0  0
 23 24  1  0  0  0  0
 23 46  1  0  0  0  0
M  END
> <s_m_source_file>
AV-unprocessed.smi

> <i_m_source_file_index>
2178

> <i_lp_mmshare_version>
43012

> <i_f3d_flags>
0

> <s_epik_input>
W0NIM11jMVtjSF1bY0hdW2NIXWMoW0NIM10pYzFPW0NIMl1bQ0BIXShbT0hdKVtDSDJdbihjKG4yKVtDSDJdW09IXSljKGMyMylbY0hdW2NIXVtjSF1bY0hdMw==

> <s_epik_cmdline>
J2VwaWtfcHl0aG9uJywgJy1waCcsICc3LjAnLCAnLXRuJywgJzgnLCAnLW1hJywgJzIwMCcsICctbWV0YWxfYmluZGluZycsICctaW1hZScsICc8aW5maWxlLm1hZT4nLCAnLW9tYWUnLCAnPG91dGZpbGUubWFlPic=

> <r_lp_tautomer_probability>
1

> <r_epik_Ionization_Penalty>
0.0555874

> <r_epik_Ionization_Penalty_Charging>
0

> <r_epik_Ionization_Penalty_Neutral>
0.0555874

> <r_epik_State_Penalty>
0.0478234

> <r_epik_Charging_Adjusted_Penalty>
0.0478234

> <i_epik_Tot_Q>
0

> <i_epik_Tot_abs_Q>
0

> <r_epik_Metal_State_Penalty>
4.98044e-05

> <b_epik_Metal_Only>
0

> <s_lp_Force_Field>
OPLS_2005

> <r_lp_Energy>
19.7692

> <b_lp_Chiralities_Consistent>
1

> <s_lp_Variant>
AV-unprocessed.smi:2178-1

> <Gold.Version>
5.8.1

> <Gold.Id.Protein>
6NUR|6NUR_protein|mol2

> <Gold.PLP.Fitness>
54.6881

> <Gold.PLP.PLP>
-50.7159

> <Gold.PLP.part.hbond>
-3.0000

> <Gold.PLP.part.metal>
0.0000

> <Gold.PLP.part.buried>
-1.0944

> <Gold.PLP.part.nonpolar>
-46.5046

> <Gold.PLP.part.repulsive>
1.1222

> <Gold.PLP.ligand.clash>
0.0000

> <Gold.PLP.ligand.torsion>
0.4699

> <Gold.PLP.Chemscore.Hbond>
1.5952

> <Gold.PLP.Chemscore.CHOScore>
0.0000

> <Gold.PLP.Chemscore.Metal>
0.0000

> <Gold.Chemscore.Hbonds>
donor molecule, donor type, donor heavy atom, donor atom, acceptor molecule, acceptor atom, score
      P1  H  7989  7998       L1    18  0.55
      P1  H  7997  8008       L1    17  0.93

> <Gold.PLP.Chemscore.Internal.Correction>
0.1264

> <Gold.Rescore>
     Score         DG    S(hbond)    S(metal)    S(lipo)     H(rot)  DE(clash)    DE(int)     intcor
     17.18     -18.59       1.12        0.00     144.79       2.96       0.95       0.46       ----

> <Gold.Chemscore.Fitness>
17.1778

> <Gold.Chemscore.DG>
-18.5917

> <Gold.Chemscore.ZeroCoef>
-5.4800

> <Gold.Chemscore.Hbond>
1.1194

> <Gold.Chemscore.Metal>
0.0000

> <Gold.Chemscore.Lipo>
144.7896

> <Gold.Chemscore.Internal_Hbond>
0.0000

> <Gold.Chemscore.DEClash>
0.9529

> <Gold.Chemscore.DEInternal>
0.4609

> <Gold.Chemscore.Rot>
2.9561

> <Gold.Chemscore.Internal.Correction>
   9.000000E+99

> <Gold.Chemscore.Hbonds>
donor molecule, donor type, donor heavy atom, donor atom, acceptor molecule, acceptor atom, score
      P1  H  7989  7998       L1    18  0.03
      P1  H  7997  8008       L1    17  0.31

> <Gold.Chemscore.Hbond.Weighted>
-3.7389

> <Gold.Chemscore.Metal.Weighted>
-0.0000

> <Gold.Chemscore.Lipo.Weighted>
-16.9404

> <Gold.Chemscore.Internal_Hbond.Weighted>
0.0000

> <Gold.Chemscore.DEClash.Weighted>
0.9529

> <Gold.Chemscore.DEInternal.Weighted>
0.4609

> <Gold.Chemscore.Rot.Weighted>
7.5677

> <Gold.Chemscore.Internal.Correction.Weighted>
   9.000000E+99

> <Gold.Protein.RotatedTorsions>
[ 6907 6896 6895 6894 ] final   80.26 input  -60.11 | X-H torsion
[ 7974 7965 7964 7962 ] final -129.04 input  175.53 | X-H torsion
[ 8008 7997 7996 7995 ] final  -21.17 input   59.86 | X-H torsion
[ 10167 10162 10161 10158 ] final   -7.31 input  -65.29 | X-H torsion
[ 10718 10713 10712 10709 ] final -147.40 input   66.30 | X-H torsion
[ 10763 10752 10751 10750 ] final   79.35 input  -60.55 | X-H torsion
[ 11005 11000 10999 10996 ] final   56.03 input  -57.11 | X-H torsion

> <Gold.Protein.ActiveResidues>
 VAL166  LYS551  ARG553  GLY616  TRP617  ASP618  TYR619  PRO620  LYS621  CYS622 
 ASP623  PHE694  ASN695  SER759  ASP760  ASP761  ALA762  ILE779  LEU786  VAL792 
 PHE793  MET794  SER795  GLU796  ALA797  LYS798  CYS799  TRP800  GLU811  SER814 

> <Gold.Protein.RotatedAtoms>
  152.5228  134.3385  159.9208 H   0  0  0  0  0  0  0  0  0  0  0  0  # atno 6907 bound_to 6896
  151.3335  133.3984  159.2672 H   0  0  0  0  0  0  0  0  0  0  0  0  # atno 6908 bound_to 6896
  150.9861  134.9224  159.7930 H   0  0  0  0  0  0  0  0  0  0  0  0  # atno 6909 bound_to 6896
  144.9611  140.7448  143.4728 H   0  0  0  0  0  0  0  0  0  0  0  0  # atno 7974 bound_to 7965
  154.4723  140.2042  155.9965 H   0  0  0  0  0  0  0  0  0  0  0  0  # atno 8008 bound_to 7997
  156.1031  140.3241  155.7939 H   0  0  0  0  0  0  0  0  0  0  0  0  # atno 8009 bound_to 7997
  155.4764  140.0535  157.2964 H   0  0  0  0  0  0  0  0  0  0  0  0  # atno 8010 bound_to 7997
  140.7025  143.6095  150.8718 H   0  0  0  0  0  0  0  0  0  0  0  0  # atno 10167 bound_to 10162
  156.4071  130.7963  151.2178 H   0  0  0  0  0  0  0  0  0  0  0  0  # atno 10718 bound_to 10713
  153.0946  135.4843  154.8754 H   0  0  0  0  0  0  0  0  0  0  0  0  # atno 10763 bound_to 10752
  154.7309  135.3060  154.8895 H   0  0  0  0  0  0  0  0  0  0  0  0  # atno 10764 bound_to 10752
  153.9531  135.6821  153.4797 H   0  0  0  0  0  0  0  0  0  0  0  0  # atno 10765 bound_to 10752
  140.0561  134.5668  155.9206 H   0  0  0  0  0  0  0  0  0  0  0  0  # atno 11005 bound_to 11000
  145.2698  139.1959  143.4847 LP  0  0  0  0  0  0  0  0  0  0  0  0  # atno 17320 bound_to 7965
  146.3353  140.2642  142.8603 LP  0  0  0  0  0  0  0  0  0  0  0  0  # atno 17321 bound_to 7965
  139.9818  143.5943  152.2940 LP  0  0  0  0  0  0  0  0  0  0  0  0  # atno 17342 bound_to 10162
  139.6567  144.7662  151.2043 LP  0  0  0  0  0  0  0  0  0  0  0  0  # atno 17343 bound_to 10162
  157.7506  131.0269  150.3982 LP  0  0  0  0  0  0  0  0  0  0  0  0  # atno 17370 bound_to 10713
  156.4273  130.3965  149.6784 LP  0  0  0  0  0  0  0  0  0  0  0  0  # atno 17371 bound_to 10713
  141.1952  133.6586  156.5633 LP  0  0  0  0  0  0  0  0  0  0  0  0  # atno 17394 bound_to 11000
  140.3842  134.7497  157.4681 LP  0  0  0  0  0  0  0  0  0  0  0  0  # atno 17395 bound_to 11000

$$$$
