AV-unprocessed.smi:2244|AV-procd|sdf|9072|dock6
  -GOLD-   2272012273D 1   1.00000     0.00000
 Structure written by MMmdl.
 49 51  0  0  0  0  0  0  0  0  1 V2000
  147.6309  128.3679  155.6058 C   0  0  0  0  0  0  0  0  0  0  0  0
  148.9373  128.8491  154.9350 C   0  0  0  0  0  0  0  0  0  0  0  0
  150.1051  128.4750  155.8711 C   0  0  0  0  0  0  0  0  0  0  0  0
  149.0752  128.0939  153.5965 C   0  0  0  0  0  0  0  0  0  0  0  0
  148.9417  130.3670  154.6793 C   0  0  0  0  0  0  0  0  0  0  0  0
  148.0473  131.0046  153.7903 C   0  0  0  0  0  0  0  0  0  0  0  0
  148.1545  132.3975  153.6416 C   0  0  0  0  0  0  0  0  0  0  0  0
  149.1391  133.0824  154.3821 C   0  0  0  0  0  0  0  0  0  0  0  0
  149.1836  134.4897  154.1591 N   0  0  0  0  0  0  0  0  0  0  0  0
  149.5357  135.5119  154.9676 C   0  0  0  0  0  0  0  0  0  0  0  0
  149.9062  135.3063  156.1224 O   0  0  0  0  0  0  0  0  0  0  0  0
  149.4640  136.7437  154.4369 N   0  0  0  0  0  0  0  0  0  0  0  0
  149.7838  137.9867  155.1312 C   0  0  2  0  0  0  0  0  0  0  0  0
  149.3844  139.1843  154.2587 C   0  0  0  0  0  0  0  0  0  0  0  0
  149.8152  140.5041  154.9167 C   0  0  0  0  0  0  0  0  0  0  0  0
  151.2180  140.4983  155.1738 O   0  0  0  0  0  0  0  0  0  0  0  0
  151.6768  139.4473  156.0257 C   0  0  1  0  0  0  0  0  0  0  0  0
  151.2233  139.6464  157.4659 C   0  0  0  0  0  0  0  0  0  0  0  0
  151.6177  140.8872  158.2309 C   0  0  0  0  0  0  0  0  0  0  0  0
  152.2077  139.5486  158.6076 C   0  0  0  0  0  0  0  0  0  0  0  0
  151.2880  138.0724  155.4474 C   0  0  0  0  0  0  0  0  0  0  0  0
  149.9643  132.4024  155.2186 N   0  0  0  0  0  0  0  0  0  0  0  0
  149.8685  131.0782  155.3664 N   0  0  0  0  0  0  0  0  0  0  0  0
  147.6462  127.2901  155.7728 H   0  0  0  0  0  0  0  0  0  0  0  0
  146.7579  128.5815  154.9879 H   0  0  0  0  0  0  0  0  0  0  0  0
  147.4798  128.8378  156.5783 H   0  0  0  0  0  0  0  0  0  0  0  0
  150.0297  128.9989  156.8247 H   0  0  0  0  0  0  0  0  0  0  0  0
  151.0723  128.7257  155.4344 H   0  0  0  0  0  0  0  0  0  0  0  0
  150.1166  127.4054  156.0840 H   0  0  0  0  0  0  0  0  0  0  0  0
  149.0568  127.0137  153.7458 H   0  0  0  0  0  0  0  0  0  0  0  0
  150.0121  128.3310  153.0911 H   0  0  0  0  0  0  0  0  0  0  0  0
  148.2612  128.3451  152.9152 H   0  0  0  0  0  0  0  0  0  0  0  0
  147.2976  130.4685  153.2292 H   0  0  0  0  0  0  0  0  0  0  0  0
  147.4925  132.9255  152.9705 H   0  0  0  0  0  0  0  0  0  0  0  0
  148.9426  134.7683  153.2192 H   0  0  0  0  0  0  0  0  0  0  0  0
  149.1513  136.8251  153.4795 H   0  0  0  0  0  0  0  0  0  0  0  0
  149.2114  138.0277  156.0593 H   0  0  0  0  0  0  0  0  0  0  0  0
  149.8551  139.1028  153.2777 H   0  0  0  0  0  0  0  0  0  0  0  0
  148.3071  139.1872  154.0888 H   0  0  0  0  0  0  0  0  0  0  0  0
  149.5894  141.3393  154.2534 H   0  0  0  0  0  0  0  0  0  0  0  0
  149.2557  140.6808  155.8354 H   0  0  0  0  0  0  0  0  0  0  0  0
  152.7657  139.5111  156.0212 H   0  0  0  0  0  0  0  0  0  0  0  0
  150.2272  139.2656  157.6797 H   0  0  0  0  0  0  0  0  0  0  0  0
  152.2702  141.6024  157.7341 H   0  0  0  0  0  0  0  0  0  0  0  0
  150.8772  141.3187  158.9012 H   0  0  0  0  0  0  0  0  0  0  0  0
  151.8611  139.0867  159.5297 H   0  0  0  0  0  0  0  0  0  0  0  0
  153.2534  139.3732  158.3632 H   0  0  0  0  0  0  0  0  0  0  0  0
  151.5838  137.2803  156.1364 H   0  0  0  0  0  0  0  0  0  0  0  0
  151.8562  137.9070  154.5306 H   0  0  0  0  0  0  0  0  0  0  0  0
  1  2  1  0  0  0  0
  1 24  1  0  0  0  0
  1 25  1  0  0  0  0
  1 26  1  0  0  0  0
  2  3  1  0  0  0  0
  2  4  1  0  0  0  0
  2  5  1  0  0  0  0
  3 27  1  0  0  0  0
  3 28  1  0  0  0  0
  3 29  1  0  0  0  0
  4 30  1  0  0  0  0
  4 31  1  0  0  0  0
  4 32  1  0  0  0  0
  5 23  1  0  0  0  0
  5  6  2  0  0  0  0
  6  7  1  0  0  0  0
  6 33  1  0  0  0  0
  7  8  2  0  0  0  0
  7 34  1  0  0  0  0
  8  9  1  0  0  0  0
  8 22  1  0  0  0  0
  9 10  1  0  0  0  0
  9 35  1  0  0  0  0
 10 11  2  0  0  0  0
 10 12  1  0  0  0  0
 12 13  1  0  0  0  0
 12 36  1  0  0  0  0
 13 21  1  0  0  0  0
 13 14  1  0  0  0  0
 13 37  1  0  0  0  0
 14 15  1  0  0  0  0
 14 38  1  0  0  0  0
 14 39  1  0  0  0  0
 15 16  1  0  0  0  0
 15 40  1  0  0  0  0
 15 41  1  0  0  0  0
 16 17  1  0  0  0  0
 17 18  1  0  0  0  0
 17 21  1  0  0  0  0
 17 42  1  0  0  0  0
 18 20  1  0  0  0  0
 18 19  1  0  0  0  0
 18 43  1  0  0  0  0
 19 20  1  0  0  0  0
 19 44  1  0  0  0  0
 19 45  1  0  0  0  0
 20 46  1  0  0  0  0
 20 47  1  0  0  0  0
 21 48  1  0  0  0  0
 21 49  1  0  0  0  0
 22 23  2  0  0  0  0
M  END
> <s_m_source_file>
AV-unprocessed.smi

> <i_m_source_file_index>
2244

> <i_lp_mmshare_version>
43012

> <i_f3d_flags>
0

> <s_epik_input>
W0NIM11DKFtDSDNdKShbQ0gzXSljMVtjSF1bY0hdYyhubjEpW05IXUMoPU8pW05IXVtDQEBIXTJbQ0gyXVtDSDJdT1tDQEhdKFtDSDJdMilbQ0hdM1tDSDJdW0NIMl0z

> <s_epik_cmdline>
J2VwaWtfcHl0aG9uJywgJy1waCcsICc3LjAnLCAnLXRuJywgJzgnLCAnLW1hJywgJzIwMCcsICctbWV0YWxfYmluZGluZycsICctaW1hZScsICc8aW5maWxlLm1hZT4nLCAnLW9tYWUnLCAnPG91dGZpbGUubWFlPic=

> <r_lp_tautomer_probability>
1

> <r_epik_Ionization_Penalty>
0.011369

> <r_epik_Ionization_Penalty_Charging>
0

> <r_epik_Ionization_Penalty_Neutral>
0.011369

> <r_epik_State_Penalty>
0.00456331

> <r_epik_Charging_Adjusted_Penalty>
0.00456331

> <i_epik_Tot_Q>
0

> <i_epik_Tot_abs_Q>
0

> <r_epik_Metal_State_Penalty>
-0

> <b_epik_Metal_Only>
0

> <s_lp_Force_Field>
OPLS_2005

> <r_lp_Energy>
29.5867

> <b_lp_Chiralities_Consistent>
1

> <s_lp_Variant>
AV-unprocessed.smi:2244-1

> <Gold.Version>
5.8.1

> <Gold.Id.Protein>
6NUR|6NUR_protein|mol2

> <Gold.PLP.Fitness>
40.5976

> <Gold.PLP.PLP>
-33.2741

> <Gold.PLP.part.hbond>
-3.0000

> <Gold.PLP.part.metal>
0.0000

> <Gold.PLP.part.buried>
-4.0790

> <Gold.PLP.part.nonpolar>
-26.9838

> <Gold.PLP.part.repulsive>
0.1172

> <Gold.PLP.ligand.clash>
0.0000

> <Gold.PLP.ligand.torsion>
0.9841

> <Gold.PLP.Chemscore.Hbond>
2.7376

> <Gold.PLP.Chemscore.CHOScore>
0.0000

> <Gold.PLP.Chemscore.Metal>
0.0000

> <Gold.Chemscore.Hbonds>
donor molecule, donor type, donor heavy atom, donor atom, acceptor molecule, acceptor atom, score
      L1  H     9    35       P1  7948  0.80
      L1  H    12    36       P1  7948  1.00
      P1  H  7989  7998       L1    16  0.66

> <Gold.PLP.Chemscore.Internal.Correction>
1.0789

> <Gold.Rescore>
     Score         DG    S(hbond)    S(metal)    S(lipo)     H(rot)  DE(clash)    DE(int)     intcor
     15.26     -16.50       1.78        0.00      71.89       1.30       0.01       1.23       ----

> <Gold.Chemscore.Fitness>
15.2566

> <Gold.Chemscore.DG>
-16.4998

> <Gold.Chemscore.ZeroCoef>
-5.4800

> <Gold.Chemscore.Hbond>
1.7775

> <Gold.Chemscore.Metal>
0.0000

> <Gold.Chemscore.Lipo>
71.8926

> <Gold.Chemscore.Internal_Hbond>
0.0000

> <Gold.Chemscore.DEClash>
0.0126

> <Gold.Chemscore.DEInternal>
1.2306

> <Gold.Chemscore.Rot>
1.3002

> <Gold.Chemscore.Internal.Correction>
   9.000000E+99

> <Gold.Chemscore.Hbonds>
donor molecule, donor type, donor heavy atom, donor atom, acceptor molecule, acceptor atom, score
      L1  H     9    35       P1  7948  0.13
      L1  H    12    36       P1  7948  0.96
      P1  H  7989  7998       L1    16  0.07

> <Gold.Chemscore.Hbond.Weighted>
-5.9367

> <Gold.Chemscore.Metal.Weighted>
-0.0000

> <Gold.Chemscore.Lipo.Weighted>
-8.4114

> <Gold.Chemscore.Internal_Hbond.Weighted>
0.0000

> <Gold.Chemscore.DEClash.Weighted>
0.0126

> <Gold.Chemscore.DEInternal.Weighted>
1.2306

> <Gold.Chemscore.Rot.Weighted>
3.3284

> <Gold.Chemscore.Internal.Correction.Weighted>
   9.000000E+99

> <Gold.Protein.RotatedTorsions>
[ 6907 6896 6895 6894 ] final   -5.00 input  -60.11 | X-H torsion
[ 7974 7965 7964 7962 ] final   89.79 input  175.53 | X-H torsion
[ 8008 7997 7996 7995 ] final  -30.42 input   59.86 | X-H torsion
[ 10167 10162 10161 10158 ] final   91.36 input  -65.29 | X-H torsion
[ 10718 10713 10712 10709 ] final  169.00 input   66.30 | X-H torsion
[ 10763 10752 10751 10750 ] final  -54.85 input  -60.55 | X-H torsion
[ 11005 11000 10999 10996 ] final   36.80 input  -57.11 | X-H torsion

> <Gold.Protein.ActiveResidues>
 VAL166  LYS551  ARG553  GLY616  TRP617  ASP618  TYR619  PRO620  LYS621  CYS622 
 ASP623  PHE694  ASN695  SER759  ASP760  ASP761  ALA762  ILE779  LEU786  VAL792 
 PHE793  MET794  SER795  GLU796  ALA797  LYS798  CYS799  TRP800  GLU811  SER814 

> <Gold.Protein.RotatedAtoms>
  151.4886  135.1056  159.9796 H   0  0  0  0  0  0  0  0  0  0  0  0  # atno 6907 bound_to 6896
  152.4750  133.8114  159.7016 H   0  0  0  0  0  0  0  0  0  0  0  0  # atno 6908 bound_to 6896
  150.8782  133.7346  159.2966 H   0  0  0  0  0  0  0  0  0  0  0  0  # atno 6909 bound_to 6896
  145.5276  139.2282  143.2636 H   0  0  0  0  0  0  0  0  0  0  0  0  # atno 7974 bound_to 7965
  154.4251  140.1792  156.1404 H   0  0  0  0  0  0  0  0  0  0  0  0  # atno 8008 bound_to 7997
  155.9996  140.3361  155.6808 H   0  0  0  0  0  0  0  0  0  0  0  0  # atno 8009 bound_to 7997
  155.6260  140.0665  157.2654 H   0  0  0  0  0  0  0  0  0  0  0  0  # atno 8010 bound_to 7997
  139.8382  144.6654  150.9315 H   0  0  0  0  0  0  0  0  0  0  0  0  # atno 10167 bound_to 10162
  157.0289  131.0254  151.2751 H   0  0  0  0  0  0  0  0  0  0  0  0  # atno 10718 bound_to 10713
  154.1813  135.6443  153.5035 H   0  0  0  0  0  0  0  0  0  0  0  0  # atno 10763 bound_to 10752
  153.0058  135.5407  154.6511 H   0  0  0  0  0  0  0  0  0  0  0  0  # atno 10764 bound_to 10752
  154.5876  135.2931  155.0641 H   0  0  0  0  0  0  0  0  0  0  0  0  # atno 10765 bound_to 10752
  140.2289  134.3551  155.7972 H   0  0  0  0  0  0  0  0  0  0  0  0  # atno 11005 bound_to 11000
  146.2065  140.6091  142.9079 LP  0  0  0  0  0  0  0  0  0  0  0  0  # atno 17320 bound_to 7965
  144.7643  140.5493  143.6714 LP  0  0  0  0  0  0  0  0  0  0  0  0  # atno 17321 bound_to 7965
  140.7800  143.3937  151.1267 LP  0  0  0  0  0  0  0  0  0  0  0  0  # atno 17342 bound_to 10162
  139.7585  143.8671  152.3094 LP  0  0  0  0  0  0  0  0  0  0  0  0  # atno 17343 bound_to 10162
  157.5192  130.7987  149.7790 LP  0  0  0  0  0  0  0  0  0  0  0  0  # atno 17370 bound_to 10713
  156.0076  130.3848  150.2376 LP  0  0  0  0  0  0  0  0  0  0  0  0  # atno 17371 bound_to 10713
  141.2219  133.7235  156.8699 LP  0  0  0  0  0  0  0  0  0  0  0  0  # atno 17394 bound_to 11000
  140.1771  134.9059  157.2903 LP  0  0  0  0  0  0  0  0  0  0  0  0  # atno 17395 bound_to 11000

$$$$
