AV-unprocessed.smi:135|AV-procd|sdf|1170|dock3
  -GOLD-   2262018313D 1   1.00000     0.00000
 Structure written by MMmdl.
 51 54  0  0  0  0  0  0  0  0  1 V2000
  147.2279  137.3116  157.7301 O   0  0  0  0  0  0  0  0  0  0  0  0
  148.4001  137.5775  157.9957 C   0  0  0  0  0  0  0  0  0  0  0  0
  149.1367  136.8119  159.1062 C   0  0  0  0  0  0  0  0  0  0  0  0
  148.3901  135.6383  159.6095 N   0  0  0  0  0  0  0  0  0  0  0  0
  148.6557  134.3713  159.0337 C   0  0  0  0  0  0  0  0  0  0  0  0
  149.4928  134.2395  158.1394 O   0  0  0  0  0  0  0  0  0  0  0  0
  147.8750  133.2607  159.5672 C   0  0  0  0  0  0  0  0  0  0  0  0
  148.0702  132.0202  159.0889 F   0  0  0  0  0  0  0  0  0  0  0  0
  146.9592  133.4574  160.5378 C   0  0  0  0  0  0  0  0  0  0  0  0
  146.6993  134.7035  161.0806 N   0  0  0  0  0  0  0  0  0  0  0  0
  145.6683  134.9079  162.1710 C   0  0  1  0  0  0  0  0  0  0  0  0
  144.5506  135.8543  161.6926 C   0  0  0  0  0  0  0  0  0  0  0  0
  143.2914  135.0746  162.0150 C   0  0  0  0  0  0  0  0  0  0  0  0
  143.7724  133.6367  161.8930 C   0  0  0  0  0  0  0  0  0  0  0  0
  145.0622  133.6869  162.4883 O   0  0  0  0  0  0  0  0  0  0  0  0
  147.4210  135.8275  160.6231 C   0  0  0  0  0  0  0  0  0  0  0  0
  147.2037  136.9459  161.0943 O   0  0  0  0  0  0  0  0  0  0  0  0
  149.1310  138.5350  157.3972 N   0  0  0  0  0  0  0  0  0  0  0  0
  148.8074  139.4203  156.3285 C   0  0  0  0  0  0  0  0  0  0  0  0
  147.5988  139.3613  155.5895 C   0  0  0  0  0  0  0  0  0  0  0  0
  147.3522  140.2790  154.5504 C   0  0  0  0  0  0  0  0  0  0  0  0
  148.3045  141.2648  154.2362 C   0  0  0  0  0  0  0  0  0  0  0  0
  149.5095  141.3272  154.9579 C   0  0  0  0  0  0  0  0  0  0  0  0
  149.7697  140.4052  155.9920 C   0  0  0  0  0  0  0  0  0  0  0  0
  150.9589  140.5008  156.6725 O   0  0  0  0  0  0  0  0  0  0  0  0
  151.0980  141.5201  157.5826 C   0  0  0  0  0  0  0  0  0  0  0  0
  151.4784  141.2722  158.9210 C   0  0  0  0  0  0  0  0  0  0  0  0
  151.6119  142.3407  159.8288 C   0  0  0  0  0  0  0  0  0  0  0  0
  151.3716  143.6614  159.4036 C   0  0  0  0  0  0  0  0  0  0  0  0
  151.0004  143.9138  158.0688 C   0  0  0  0  0  0  0  0  0  0  0  0
  150.8674  142.8456  157.1608 C   0  0  0  0  0  0  0  0  0  0  0  0
  150.1188  136.5096  158.7373 H   0  0  0  0  0  0  0  0  0  0  0  0
  149.3638  137.5139  159.9098 H   0  0  0  0  0  0  0  0  0  0  0  0
  146.4187  132.5927  160.8909 H   0  0  0  0  0  0  0  0  0  0  0  0
  146.2234  135.2725  163.0371 H   0  0  0  0  0  0  0  0  0  0  0  0
  144.6052  136.8150  162.2052 H   0  0  0  0  0  0  0  0  0  0  0  0
  144.6298  136.0208  160.6172 H   0  0  0  0  0  0  0  0  0  0  0  0
  142.9757  135.2771  163.0393 H   0  0  0  0  0  0  0  0  0  0  0  0
  142.4613  135.3061  161.3472 H   0  0  0  0  0  0  0  0  0  0  0  0
  143.1212  132.9276  162.4044 H   0  0  0  0  0  0  0  0  0  0  0  0
  143.8509  133.3413  160.8457 H   0  0  0  0  0  0  0  0  0  0  0  0
  150.0662  138.6468  157.7612 H   0  0  0  0  0  0  0  0  0  0  0  0
  146.8395  138.6234  155.7885 H   0  0  0  0  0  0  0  0  0  0  0  0
  146.4280  140.2262  153.9944 H   0  0  0  0  0  0  0  0  0  0  0  0
  148.1120  141.9701  153.4413 H   0  0  0  0  0  0  0  0  0  0  0  0
  150.2423  142.0823  154.7141 H   0  0  0  0  0  0  0  0  0  0  0  0
  151.6680  140.2634  159.2574 H   0  0  0  0  0  0  0  0  0  0  0  0
  151.8995  142.1468  160.8516 H   0  0  0  0  0  0  0  0  0  0  0  0
  151.4748  144.4803  160.1003 H   0  0  0  0  0  0  0  0  0  0  0  0
  150.8188  144.9268  157.7411 H   0  0  0  0  0  0  0  0  0  0  0  0
  150.5825  143.0437  156.1378 H   0  0  0  0  0  0  0  0  0  0  0  0
  1  2  2  0  0  0  0
  2  3  1  0  0  0  0
  2 18  1  0  0  0  0
  3  4  1  0  0  0  0
  3 32  1  0  0  0  0
  3 33  1  0  0  0  0
  4 16  1  0  0  0  0
  4  5  1  0  0  0  0
  5  6  2  0  0  0  0
  5  7  1  0  0  0  0
  7  8  1  0  0  0  0
  7  9  2  0  0  0  0
  9 10  1  0  0  0  0
  9 34  1  0  0  0  0
 10 11  1  0  0  0  0
 10 16  1  0  0  0  0
 11 15  1  0  0  0  0
 11 12  1  0  0  0  0
 11 35  1  0  0  0  0
 12 13  1  0  0  0  0
 12 36  1  0  0  0  0
 12 37  1  0  0  0  0
 13 14  1  0  0  0  0
 13 38  1  0  0  0  0
 13 39  1  0  0  0  0
 14 15  1  0  0  0  0
 14 40  1  0  0  0  0
 14 41  1  0  0  0  0
 16 17  2  0  0  0  0
 18 19  1  0  0  0  0
 18 42  1  0  0  0  0
 19 24  1  0  0  0  0
 19 20  2  0  0  0  0
 20 21  1  0  0  0  0
 20 43  1  0  0  0  0
 21 22  2  0  0  0  0
 21 44  1  0  0  0  0
 22 23  1  0  0  0  0
 22 45  1  0  0  0  0
 23 24  2  0  0  0  0
 23 46  1  0  0  0  0
 24 25  1  0  0  0  0
 25 26  1  0  0  0  0
 26 31  1  0  0  0  0
 26 27  2  0  0  0  0
 27 28  1  0  0  0  0
 27 47  1  0  0  0  0
 28 29  2  0  0  0  0
 28 48  1  0  0  0  0
 29 30  1  0  0  0  0
 29 49  1  0  0  0  0
 30 31  2  0  0  0  0
 30 50  1  0  0  0  0
 31 51  1  0  0  0  0
M  END
> <s_m_source_file>
AV-unprocessed.smi

> <i_m_source_file_index>
135

> <i_lp_mmshare_version>
43012

> <i_f3d_flags>
0

> <s_epik_input>
TzFbQ0gyXVtDSDJdW0NIMl1bQ0BIXTFuKGMyPU8pW2NIXWMoRiljKD1PKW4yW0NIMl1DKD1PKVtOSF1jM1tjSF1bY0hdW2NIXVtjSF1jM09jNFtjSF1bY0hdW2NIXVtjSF1bY0hdNA==

> <s_epik_cmdline>
J2VwaWtfcHl0aG9uJywgJy1waCcsICc3LjAnLCAnLXRuJywgJzgnLCAnLW1hJywgJzIwMCcsICctbWV0YWxfYmluZGluZycsICctaW1hZScsICc8aW5maWxlLm1hZT4nLCAnLW9tYWUnLCAnPG91dGZpbGUubWFlPic=

> <r_lp_tautomer_probability>
1

> <r_epik_Ionization_Penalty>
1.89877e-06

> <r_epik_Ionization_Penalty_Charging>
3.88729e-08

> <r_epik_Ionization_Penalty_Neutral>
1.8599e-06

> <r_epik_State_Penalty>
-0

> <r_epik_Charging_Adjusted_Penalty>
3.88729e-08

> <i_epik_Tot_Q>
0

> <i_epik_Tot_abs_Q>
0

> <r_epik_Metal_State_Penalty>
-0

> <b_epik_Metal_Only>
0

> <s_epik_Chemistry_Notes>
This compound contains an acetal/aminal-like group ( X-CH(R)-Y where X, Y are N, S, or O) that may be acid/base labile, releasing an aldehyde.

> <s_lp_Force_Field>
OPLS_2005

> <r_lp_Energy>
40.6736

> <b_lp_Chiralities_Consistent>
1

> <s_lp_Variant>
AV-unprocessed.smi:135-2

> <Gold.Version>
5.8.1

> <Gold.Id.Protein>
6NUR|6NUR_protein|mol2

> <Gold.PLP.Fitness>
58.3696

> <Gold.PLP.PLP>
-52.1460

> <Gold.PLP.part.hbond>
-4.0000

> <Gold.PLP.part.metal>
0.0000

> <Gold.PLP.part.buried>
-6.7343

> <Gold.PLP.part.nonpolar>
-41.9609

> <Gold.PLP.part.repulsive>
0.1237

> <Gold.PLP.ligand.clash>
0.0000

> <Gold.PLP.ligand.torsion>
0.6742

> <Gold.PLP.Chemscore.Hbond>
2.4920

> <Gold.PLP.Chemscore.CHOScore>
0.0000

> <Gold.PLP.Chemscore.Metal>
0.0000

> <Gold.Chemscore.Hbonds>
donor molecule, donor type, donor heavy atom, donor atom, acceptor molecule, acceptor atom, score
      P1  H  6896  6908       L1     6  0.60
      P1  H  6931  6943       L1    17  0.10
      P1  H  6934  6947       L1    17  0.88

> <Gold.PLP.Chemscore.Internal.Correction>
0.0960

> <Gold.Rescore>
     Score         DG    S(hbond)    S(metal)    S(lipo)     H(rot)  DE(clash)    DE(int)     intcor
     17.10     -20.83       2.22        0.00     112.52       2.04       0.28       3.44       ----

> <Gold.Chemscore.Fitness>
17.1041

> <Gold.Chemscore.DG>
-20.8278

> <Gold.Chemscore.ZeroCoef>
-5.4800

> <Gold.Chemscore.Hbond>
2.2152

> <Gold.Chemscore.Metal>
0.0000

> <Gold.Chemscore.Lipo>
112.5246

> <Gold.Chemscore.Internal_Hbond>
0.0000

> <Gold.Chemscore.DEClash>
0.2792

> <Gold.Chemscore.DEInternal>
3.4445

> <Gold.Chemscore.Rot>
2.0377

> <Gold.Chemscore.Internal.Correction>
   9.000000E+99

> <Gold.Chemscore.Hbonds>
donor molecule, donor type, donor heavy atom, donor atom, acceptor molecule, acceptor atom, score
      P1  H  6896  6908       L1     6  0.04
      P1  H  6931  6943       L1    17  0.12
      P1  H  6934  6947       L1    17  0.85

> <Gold.Chemscore.Hbond.Weighted>
-7.3989

> <Gold.Chemscore.Metal.Weighted>
-0.0000

> <Gold.Chemscore.Lipo.Weighted>
-13.1654

> <Gold.Chemscore.Internal_Hbond.Weighted>
0.0000

> <Gold.Chemscore.DEClash.Weighted>
0.2792

> <Gold.Chemscore.DEInternal.Weighted>
3.4445

> <Gold.Chemscore.Rot.Weighted>
5.2165

> <Gold.Chemscore.Internal.Correction.Weighted>
   9.000000E+99

> <Gold.Protein.RotatedTorsions>
[ 6907 6896 6895 6894 ] final  124.75 input  -60.11 | X-H torsion
[ 7974 7965 7964 7962 ] final   71.87 input  175.53 | X-H torsion
[ 8008 7997 7996 7995 ] final  104.62 input   59.86 | X-H torsion
[ 10167 10162 10161 10158 ] final   60.31 input  -65.29 | X-H torsion
[ 10718 10713 10712 10709 ] final   51.40 input   66.30 | X-H torsion
[ 10763 10752 10751 10750 ] final   38.43 input  -60.55 | X-H torsion
[ 11005 11000 10999 10996 ] final   99.39 input  -57.11 | X-H torsion

> <Gold.Protein.ActiveResidues>
 VAL166  LYS551  ARG553  GLY616  TRP617  ASP618  TYR619  PRO620  LYS621  CYS622 
 ASP623  PHE694  ASN695  SER759  ASP760  ASP761  ALA762  ILE779  LEU786  VAL792 
 PHE793  MET794  SER795  GLU796  ALA797  LYS798  CYS799  TRP800  GLU811  SER814 

> <Gold.Protein.RotatedAtoms>
  152.4051  133.6876  159.6349 H   0  0  0  0  0  0  0  0  0  0  0  0  # atno 6907 bound_to 6896
  150.7937  133.8723  159.3271 H   0  0  0  0  0  0  0  0  0  0  0  0  # atno 6908 bound_to 6896
  151.6479  135.1007  160.0206 H   0  0  0  0  0  0  0  0  0  0  0  0  # atno 6909 bound_to 6896
  145.7604  139.2798  143.1379 H   0  0  0  0  0  0  0  0  0  0  0  0  # atno 7974 bound_to 7965
  156.1588  140.3144  155.8772 H   0  0  0  0  0  0  0  0  0  0  0  0  # atno 8008 bound_to 7997
  155.3824  140.0488  157.3060 H   0  0  0  0  0  0  0  0  0  0  0  0  # atno 8009 bound_to 7997
  154.5127  140.2170  155.9137 H   0  0  0  0  0  0  0  0  0  0  0  0  # atno 8010 bound_to 7997
  140.1670  144.4314  150.6680 H   0  0  0  0  0  0  0  0  0  0  0  0  # atno 10167 bound_to 10162
  157.4977  130.8417  149.8279 H   0  0  0  0  0  0  0  0  0  0  0  0  # atno 10718 bound_to 10713
  153.0001  135.6249  154.2304 H   0  0  0  0  0  0  0  0  0  0  0  0  # atno 10763 bound_to 10752
  154.2046  135.2802  155.2981 H   0  0  0  0  0  0  0  0  0  0  0  0  # atno 10764 bound_to 10752
  154.5656  135.5692  153.7106 H   0  0  0  0  0  0  0  0  0  0  0  0  # atno 10765 bound_to 10752
  139.8771  134.9093  156.4598 H   0  0  0  0  0  0  0  0  0  0  0  0  # atno 11005 bound_to 11000
  146.0270  140.8294  142.9895 LP  0  0  0  0  0  0  0  0  0  0  0  0  # atno 17320 bound_to 7965
  144.6831  140.2712  143.7305 LP  0  0  0  0  0  0  0  0  0  0  0  0  # atno 17321 bound_to 7965
  140.6607  143.2251  151.5863 LP  0  0  0  0  0  0  0  0  0  0  0  0  # atno 17342 bound_to 10162
  139.5355  144.2793  152.1242 LP  0  0  0  0  0  0  0  0  0  0  0  0  # atno 17343 bound_to 10162
  156.0210  130.3795  150.1961 LP  0  0  0  0  0  0  0  0  0  0  0  0  # atno 17370 bound_to 10713
  157.0151  130.9962  151.3355 LP  0  0  0  0  0  0  0  0  0  0  0  0  # atno 17371 bound_to 10713
  140.8872  133.7875  155.9531 LP  0  0  0  0  0  0  0  0  0  0  0  0  # atno 17394 bound_to 11000
  140.8792  134.2632  157.5152 LP  0  0  0  0  0  0  0  0  0  0  0  0  # atno 17395 bound_to 11000

$$$$
