AV-unprocessed.smi:1165|AV-procd|sdf|4933|dock9
  -GOLD-   22720 3513D 1   1.00000     0.00000
 Structure written by MMmdl.
 40 41  0  0  0  0  0  0  0  0  2 V2000
  152.4842  135.6636  155.1787 C   0  0  0  0  0  0  0  0  0  0  0  0
  153.1864  136.3593  156.3593 C   0  0  1  0  0  0  0  0  0  0  0  0
  153.3507  137.8773  156.1550 C   0  0  0  0  0  0  0  0  0  0  0  0
  152.0755  138.5820  156.3543 N   0  0  0  0  0  0  0  0  0  0  0  0
  151.9596  140.2257  155.7892 S   0  0  0  0  0  0  0  0  0  0  0  0
  153.1515  140.4308  154.9519 O   0  0  0  0  0  0  0  0  0  0  0  0
  150.6444  140.3605  155.1394 O   0  0  0  0  0  0  0  0  0  0  0  0
  152.0661  140.9916  157.2228 N   0  5  0  0  0  0  0  0  0  0  0  0
  151.0000  141.8682  157.6980 C   0  0  0  0  0  0  0  0  0  0  0  0
  151.5870  143.2044  158.2010 C   0  0  0  0  0  0  0  0  0  0  0  0
  152.2783  143.1234  159.5582 C   0  0  0  0  0  0  0  0  0  0  0  0
  151.8159  143.8818  160.6558 C   0  0  0  0  0  0  0  0  0  0  0  0
  152.4905  143.7785  161.8875 C   0  0  0  0  0  0  0  0  0  0  0  0
  153.6059  142.9221  161.9705 C   0  0  0  0  0  0  0  0  0  0  0  0
  154.0652  142.1975  160.9279 N   0  0  0  0  0  0  0  0  0  0  0  0
  153.4105  142.3004  159.7511 C   0  0  0  0  0  0  0  0  0  0  0  0
  151.4287  138.2372  157.6320 C   0  0  0  0  0  0  0  0  0  0  0  0
  151.2814  136.7128  157.7723 C   0  0  2  0  0  0  0  0  0  0  0  0
  150.7371  136.3159  159.1493 C   0  0  0  0  0  0  0  0  0  0  0  0
  152.5479  136.0846  157.6043 O   0  0  0  0  0  0  0  0  0  0  0  0
  153.0721  135.7666  154.2663 H   0  0  0  0  0  0  0  0  0  0  0  0
  151.5008  136.0871  154.9754 H   0  0  0  0  0  0  0  0  0  0  0  0
  152.3590  134.5981  155.3716 H   0  0  0  0  0  0  0  0  0  0  0  0
  154.1840  135.9252  156.4310 H   0  0  0  0  0  0  0  0  0  0  0  0
  154.0793  138.2745  156.8625 H   0  0  0  0  0  0  0  0  0  0  0  0
  153.7397  138.0746  155.1565 H   0  0  0  0  0  0  0  0  0  0  0  0
  150.2633  142.0751  156.9214 H   0  0  0  0  0  0  0  0  0  0  0  0
  150.4474  141.4027  158.5147 H   0  0  0  0  0  0  0  0  0  0  0  0
  152.3133  143.5686  157.4737 H   0  0  0  0  0  0  0  0  0  0  0  0
  150.8042  143.9633  158.2424 H   0  0  0  0  0  0  0  0  0  0  0  0
  150.9550  144.5267  160.5567 H   0  0  0  0  0  0  0  0  0  0  0  0
  152.1584  144.3400  162.7480 H   0  0  0  0  0  0  0  0  0  0  0  0
  154.1458  142.8181  162.9000 H   0  0  0  0  0  0  0  0  0  0  0  0
  153.8016  141.7069  158.9378 H   0  0  0  0  0  0  0  0  0  0  0  0
  152.0292  138.6408  158.4481 H   0  0  0  0  0  0  0  0  0  0  0  0
  150.4481  138.7070  157.7003 H   0  0  0  0  0  0  0  0  0  0  0  0
  150.5849  136.3454  157.0183 H   0  0  0  0  0  0  0  0  0  0  0  0
  149.7589  136.7629  159.3279 H   0  0  0  0  0  0  0  0  0  0  0  0
  151.4049  136.6424  159.9468 H   0  0  0  0  0  0  0  0  0  0  0  0
  150.6274  135.2342  159.2280 H   0  0  0  0  0  0  0  0  0  0  0  0
  1  2  1  0  0  0  0
  1 21  1  0  0  0  0
  1 22  1  0  0  0  0
  1 23  1  0  0  0  0
  2 20  1  0  0  0  0
  2  3  1  0  0  0  0
  2 24  1  0  0  0  0
  3  4  1  0  0  0  0
  3 25  1  0  0  0  0
  3 26  1  0  0  0  0
  4  5  1  0  0  0  0
  4 17  1  0  0  0  0
  5  6  2  0  0  0  0
  5  7  2  0  0  0  0
  5  8  1  0  0  0  0
  8  9  1  0  0  0  0
  9 10  1  0  0  0  0
  9 27  1  0  0  0  0
  9 28  1  0  0  0  0
 10 11  1  0  0  0  0
 10 29  1  0  0  0  0
 10 30  1  0  0  0  0
 11 16  1  0  0  0  0
 11 12  2  0  0  0  0
 12 13  1  0  0  0  0
 12 31  1  0  0  0  0
 13 14  2  0  0  0  0
 13 32  1  0  0  0  0
 14 15  1  0  0  0  0
 14 33  1  0  0  0  0
 15 16  2  0  0  0  0
 16 34  1  0  0  0  0
 17 18  1  0  0  0  0
 17 35  1  0  0  0  0
 17 36  1  0  0  0  0
 18 19  1  0  0  0  0
 18 20  1  0  0  0  0
 18 37  1  0  0  0  0
 19 38  1  0  0  0  0
 19 39  1  0  0  0  0
 19 40  1  0  0  0  0
M  CHG  1   8  -1
M  END
> <s_m_source_file>
AV-unprocessed.smi

> <i_m_source_file_index>
1165

> <i_lp_mmshare_version>
43012

> <i_f3d_flags>
0

> <s_epik_input>
W0NIM11bQ0BASF0xW0NIMl1OKFtDSDJdW0NASF0oTzEpW0NIM10pUyg9TykoPU8pW05IXVtDSDJdW0NIMl1jMltjSF1bY0hdW2NIXW5bY0hdMg==

> <s_epik_cmdline>
J2VwaWtfcHl0aG9uJywgJy1waCcsICc3LjAnLCAnLXRuJywgJzgnLCAnLW1hJywgJzIwMCcsICctbWV0YWxfYmluZGluZycsICctaW1hZScsICc8aW5maWxlLm1hZT4nLCAnLW9tYWUnLCAnPG91dGZpbGUubWFlPic=

> <r_epik_Ionization_Penalty>
1.23471

> <r_epik_Ionization_Penalty_Charging>
1.20871

> <r_epik_Ionization_Penalty_Neutral>
0.025996

> <r_epik_State_Penalty>
1.46261

> <r_epik_Charging_Adjusted_Penalty>
2.67132

> <i_epik_Tot_Q>
-1

> <i_epik_Tot_abs_Q>
1

> <r_epik_Metal_State_Penalty>
0.521406

> <b_epik_Metal_Only>
0

> <s_lp_Force_Field>
OPLS_2005

> <r_lp_Energy>
6.37225

> <b_lp_Chiralities_Consistent>
1

> <s_lp_Variant>
AV-unprocessed.smi:1165-6

> <Gold.Version>
5.8.1

> <Gold.Id.Protein>
6NUR|6NUR_protein|mol2

> <Gold.PLP.Fitness>
46.5185

> <Gold.PLP.PLP>
-39.2894

> <Gold.PLP.part.hbond>
-3.0058

> <Gold.PLP.part.metal>
0.0000

> <Gold.PLP.part.buried>
-6.9738

> <Gold.PLP.part.nonpolar>
-29.0612

> <Gold.PLP.part.repulsive>
0.0657

> <Gold.PLP.ligand.clash>
0.0000

> <Gold.PLP.ligand.torsion>
1.4195

> <Gold.PLP.Chemscore.Hbond>
2.8247

> <Gold.PLP.Chemscore.CHOScore>
0.0000

> <Gold.PLP.Chemscore.Metal>
0.0000

> <Gold.Chemscore.Hbonds>
donor molecule, donor type, donor heavy atom, donor atom, acceptor molecule, acceptor atom, score
      P1  H  7989  7998       L1     7  0.35
      P1  H  7997  8009       L1     6  0.85

> <Gold.PLP.Chemscore.Internal.Correction>
1.5940

> <Gold.Rescore>
     Score         DG    S(hbond)    S(metal)    S(lipo)     H(rot)  DE(clash)    DE(int)     intcor
     19.30     -20.61       2.35        0.00      94.59       1.47       0.00       1.31       ----

> <Gold.Chemscore.Fitness>
19.2985

> <Gold.Chemscore.DG>
-20.6146

> <Gold.Chemscore.ZeroCoef>
-5.4800

> <Gold.Chemscore.Hbond>
2.3469

> <Gold.Chemscore.Metal>
0.0000

> <Gold.Chemscore.Lipo>
94.5914

> <Gold.Chemscore.Internal_Hbond>
0.0000

> <Gold.Chemscore.DEClash>
0.0021

> <Gold.Chemscore.DEInternal>
1.3140

> <Gold.Chemscore.Rot>
1.4731

> <Gold.Chemscore.Internal.Correction>
   9.000000E+99

> <Gold.Chemscore.Hbonds>
donor molecule, donor type, donor heavy atom, donor atom, acceptor molecule, acceptor atom, score
      P1  H  7989  7998       L1     7  0.01
      P1  H  7997  8009       L1     6  0.25

> <Gold.Chemscore.Hbond.Weighted>
-7.8386

> <Gold.Chemscore.Metal.Weighted>
-0.0000

> <Gold.Chemscore.Lipo.Weighted>
-11.0672

> <Gold.Chemscore.Internal_Hbond.Weighted>
0.0000

> <Gold.Chemscore.DEClash.Weighted>
0.0021

> <Gold.Chemscore.DEInternal.Weighted>
1.3140

> <Gold.Chemscore.Rot.Weighted>
3.7712

> <Gold.Chemscore.Internal.Correction.Weighted>
   9.000000E+99

> <Gold.Protein.RotatedTorsions>
[ 6907 6896 6895 6894 ] final -178.72 input  -60.11 | X-H torsion
[ 7974 7965 7964 7962 ] final   94.59 input  175.53 | X-H torsion
[ 8008 7997 7996 7995 ] final -149.88 input   59.86 | X-H torsion
[ 10167 10162 10161 10158 ] final  111.71 input  -65.29 | X-H torsion
[ 10718 10713 10712 10709 ] final -160.58 input   66.30 | X-H torsion
[ 10763 10752 10751 10750 ] final   81.02 input  -60.55 | X-H torsion
[ 11005 11000 10999 10996 ] final  106.23 input  -57.11 | X-H torsion

> <Gold.Protein.ActiveResidues>
 VAL166  LYS551  ARG553  GLY616  TRP617  ASP618  TYR619  PRO620  LYS621  CYS622 
 ASP623  PHE694  ASN695  SER759  ASP760  ASP761  ALA762  ILE779  LEU786  VAL792 
 PHE793  MET794  SER795  GLU796  ALA797  LYS798  CYS799  TRP800  GLU811  SER814 

> <Gold.Protein.RotatedAtoms>
  151.6419  133.3325  159.3131 H   0  0  0  0  0  0  0  0  0  0  0  0  # atno 6907 bound_to 6896
  150.8004  134.7097  159.6606 H   0  0  0  0  0  0  0  0  0  0  0  0  # atno 6908 bound_to 6896
  152.4095  134.6153  160.0088 H   0  0  0  0  0  0  0  0  0  0  0  0  # atno 6909 bound_to 6896
  145.4636  139.2285  143.2974 H   0  0  0  0  0  0  0  0  0  0  0  0  # atno 7974 bound_to 7965
  155.6147  140.0675  157.2696 H   0  0  0  0  0  0  0  0  0  0  0  0  # atno 8008 bound_to 7997
  154.4244  140.1795  156.1357 H   0  0  0  0  0  0  0  0  0  0  0  0  # atno 8009 bound_to 7997
  156.0057  140.3332  155.6893 H   0  0  0  0  0  0  0  0  0  0  0  0  # atno 8010 bound_to 7997
  139.6591  144.7129  151.1900 H   0  0  0  0  0  0  0  0  0  0  0  0  # atno 10167 bound_to 10162
  156.5842  130.8742  151.2872 H   0  0  0  0  0  0  0  0  0  0  0  0  # atno 10718 bound_to 10713
  153.1082  135.4781  154.8988 H   0  0  0  0  0  0  0  0  0  0  0  0  # atno 10763 bound_to 10752
  154.7452  135.3092  154.8660 H   0  0  0  0  0  0  0  0  0  0  0  0  # atno 10764 bound_to 10752
  153.9256  135.6850  153.4800 H   0  0  0  0  0  0  0  0  0  0  0  0  # atno 10765 bound_to 10752
  139.8811  134.9362  156.5635 H   0  0  0  0  0  0  0  0  0  0  0  0  # atno 11005 bound_to 11000
  146.2437  140.5407  142.8923 LP  0  0  0  0  0  0  0  0  0  0  0  0  # atno 17320 bound_to 7965
  144.7988  140.6173  143.6492 LP  0  0  0  0  0  0  0  0  0  0  0  0  # atno 17321 bound_to 7965
  140.7572  143.6024  150.8686 LP  0  0  0  0  0  0  0  0  0  0  0  0  # atno 17342 bound_to 10162
  139.9680  143.6089  152.2982 LP  0  0  0  0  0  0  0  0  0  0  0  0  # atno 17343 bound_to 10162
  157.7319  130.9707  150.1904 LP  0  0  0  0  0  0  0  0  0  0  0  0  # atno 17370 bound_to 10713
  156.2606  130.3710  149.8135 LP  0  0  0  0  0  0  0  0  0  0  0  0  # atno 17371 bound_to 10713
  140.8151  133.8398  155.8845 LP  0  0  0  0  0  0  0  0  0  0  0  0  # atno 17394 bound_to 11000
  140.9470  134.1828  157.4756 LP  0  0  0  0  0  0  0  0  0  0  0  0  # atno 17395 bound_to 11000

$$$$
