AV-unprocessed.smi:2872|AV-procd|sdf|11034|dock1
  -GOLD-   2272015493D 1   1.00000     0.00000
 Structure written by MMmdl.
 39 41  0  0  0  0  0  0  0  0  1 V2000
  153.9058  135.9368  159.3858 O   0  0  0  0  0  0  0  0  0  0  0  0
  154.4945  136.5534  158.4993 C   0  0  0  0  0  0  0  0  0  0  0  0
  155.3193  137.5886  158.7129 N   0  0  0  0  0  0  0  0  0  0  0  0
  155.6413  138.1489  160.0213 C   0  0  0  0  0  0  0  0  0  0  0  0
  154.8744  139.4250  160.2137 C   0  0  0  0  0  0  0  0  0  0  0  0
  154.2492  140.0324  159.2044 N   0  0  0  0  0  0  0  0  0  0  0  0
  153.6835  141.1346  159.8150 C   0  0  0  0  0  0  0  0  0  0  0  0
  152.8892  142.1743  159.2811 C   0  0  0  0  0  0  0  0  0  0  0  0
  152.4117  143.2074  160.1143 C   0  0  0  0  0  0  0  0  0  0  0  0
  152.7206  143.2157  161.4899 C   0  0  0  0  0  0  0  0  0  0  0  0
  153.5120  142.1900  162.0417 C   0  0  0  0  0  0  0  0  0  0  0  0
  153.9871  141.1620  161.2057 C   0  0  0  0  0  0  0  0  0  0  0  0
  154.7679  140.0317  161.4229 N   0  0  0  0  0  0  0  0  0  0  0  0
  155.3276  139.6086  162.6967 C   0  0  0  0  0  0  0  0  0  0  0  0
  155.7481  140.8099  163.5510 C   0  0  0  0  0  0  0  0  0  0  0  0
  155.7923  140.4059  164.9121 O   0  0  0  0  0  0  0  0  0  0  0  0
  155.5701  141.3600  165.8819 C   0  0  0  0  0  0  0  0  0  0  0  0
  155.4807  140.9091  167.2153 C   0  0  0  0  0  0  0  0  0  0  0  0
  155.2530  141.8147  168.2695 C   0  0  0  0  0  0  0  0  0  0  0  0
  155.1122  143.1882  167.9987 C   0  0  0  0  0  0  0  0  0  0  0  0
  155.2011  143.6528  166.6735 C   0  0  0  0  0  0  0  0  0  0  0  0
  155.4287  142.7467  165.6192 C   0  0  0  0  0  0  0  0  0  0  0  0
  154.4164  136.3296  157.4242 H   0  0  0  0  0  0  0  0  0  0  0  0
  155.7504  138.0247  157.9109 H   0  0  0  0  0  0  0  0  0  0  0  0
  155.4001  137.4459  160.8208 H   0  0  0  0  0  0  0  0  0  0  0  0
  156.7123  138.3402  160.0851 H   0  0  0  0  0  0  0  0  0  0  0  0
  152.6462  142.1763  158.2288 H   0  0  0  0  0  0  0  0  0  0  0  0
  151.8045  143.9967  159.6960 H   0  0  0  0  0  0  0  0  0  0  0  0
  152.3498  144.0099  162.1213 H   0  0  0  0  0  0  0  0  0  0  0  0
  153.7496  142.1927  163.0950 H   0  0  0  0  0  0  0  0  0  0  0  0
  154.6012  138.9941  163.2283 H   0  0  0  0  0  0  0  0  0  0  0  0
  156.1875  138.9666  162.5030 H   0  0  0  0  0  0  0  0  0  0  0  0
  156.7292  141.1638  163.2300 H   0  0  0  0  0  0  0  0  0  0  0  0
  155.0329  141.6238  163.4227 H   0  0  0  0  0  0  0  0  0  0  0  0
  155.5872  139.8564  167.4323 H   0  0  0  0  0  0  0  0  0  0  0  0
  155.1865  141.4552  169.2857 H   0  0  0  0  0  0  0  0  0  0  0  0
  154.9369  143.8841  168.8059 H   0  0  0  0  0  0  0  0  0  0  0  0
  155.0948  144.7070  166.4643 H   0  0  0  0  0  0  0  0  0  0  0  0
  155.4911  143.1419  164.6168 H   0  0  0  0  0  0  0  0  0  0  0  0
  1  2  2  0  0  0  0
  2  3  1  0  0  0  0
  2 23  1  0  0  0  0
  3  4  1  0  0  0  0
  3 24  1  0  0  0  0
  4  5  1  0  0  0  0
  4 25  1  0  0  0  0
  4 26  1  0  0  0  0
  5 13  1  0  0  0  0
  5  6  2  0  0  0  0
  6  7  1  0  0  0  0
  7 12  2  0  0  0  0
  7  8  1  0  0  0  0
  8  9  2  0  0  0  0
  8 27  1  0  0  0  0
  9 10  1  0  0  0  0
  9 28  1  0  0  0  0
 10 11  2  0  0  0  0
 10 29  1  0  0  0  0
 11 12  1  0  0  0  0
 11 30  1  0  0  0  0
 12 13  1  0  0  0  0
 13 14  1  0  0  0  0
 14 15  1  0  0  0  0
 14 31  1  0  0  0  0
 14 32  1  0  0  0  0
 15 16  1  0  0  0  0
 15 33  1  0  0  0  0
 15 34  1  0  0  0  0
 16 17  1  0  0  0  0
 17 22  1  0  0  0  0
 17 18  2  0  0  0  0
 18 19  1  0  0  0  0
 18 35  1  0  0  0  0
 19 20  2  0  0  0  0
 19 36  1  0  0  0  0
 20 21  1  0  0  0  0
 20 37  1  0  0  0  0
 21 22  2  0  0  0  0
 21 38  1  0  0  0  0
 22 39  1  0  0  0  0
M  END
> <s_m_source_file>
AV-unprocessed.smi

> <i_m_source_file_index>
2872

> <i_lp_mmshare_version>
43012

> <i_f3d_flags>
0

> <s_epik_input>
Tz1bQ0hdW05IXVtDSDJdYyhuMSluKGMoYzEyKVtjSF1bY0hdW2NIXVtjSF0yKVtDSDJdW0NIMl1PYzNbY0hdW2NIXVtjSF1bY0hdW2NIXTM=

> <s_epik_cmdline>
J2VwaWtfcHl0aG9uJywgJy1waCcsICc3LjAnLCAnLXRuJywgJzgnLCAnLW1hJywgJzIwMCcsICctbWV0YWxfYmluZGluZycsICctaW1hZScsICc8aW5maWxlLm1hZT4nLCAnLW9tYWUnLCAnPG91dGZpbGUubWFlPic=

> <r_lp_tautomer_probability>
1

> <r_epik_Ionization_Penalty>
0.0659793

> <r_epik_Ionization_Penalty_Charging>
0

> <r_epik_Ionization_Penalty_Neutral>
0.0659793

> <r_epik_State_Penalty>
0.0575748

> <r_epik_Charging_Adjusted_Penalty>
0.0575748

> <i_epik_Tot_Q>
0

> <i_epik_Tot_abs_Q>
0

> <r_epik_Metal_State_Penalty>
0.0517641

> <b_epik_Metal_Only>
0

> <s_lp_Force_Field>
OPLS_2005

> <r_lp_Energy>
12.8976

> <b_lp_Chiralities_Consistent>
1

> <s_lp_Variant>
AV-unprocessed.smi:2872-1

> <Gold.Version>
5.8.1

> <Gold.Id.Protein>
6NUR|6NUR_protein|mol2

> <Gold.PLP.Fitness>
50.1930

> <Gold.PLP.PLP>
-45.9422

> <Gold.PLP.part.hbond>
-2.0000

> <Gold.PLP.part.metal>
0.0000

> <Gold.PLP.part.buried>
-3.1742

> <Gold.PLP.part.nonpolar>
-39.3902

> <Gold.PLP.part.repulsive>
0.0706

> <Gold.PLP.ligand.clash>
0.0000

> <Gold.PLP.ligand.torsion>
0.9252

> <Gold.PLP.Chemscore.Hbond>
1.9825

> <Gold.PLP.Chemscore.CHOScore>
0.0000

> <Gold.PLP.Chemscore.Metal>
0.0000

> <Gold.Chemscore.Hbonds>
donor molecule, donor type, donor heavy atom, donor atom, acceptor molecule, acceptor atom, score
      P1  H  6896  6909       L1     1  0.99
      P1  H  7997  8009       L1     6  0.99

> <Gold.PLP.Chemscore.Internal.Correction>
0.1537

> <Gold.Rescore>
     Score         DG    S(hbond)    S(metal)    S(lipo)     H(rot)  DE(clash)    DE(int)     intcor
     17.49     -19.62       1.92        0.00     118.91       2.42       0.01       2.11       ----

> <Gold.Chemscore.Fitness>
17.4920

> <Gold.Chemscore.DG>
-19.6174

> <Gold.Chemscore.ZeroCoef>
-5.4800

> <Gold.Chemscore.Hbond>
1.9226

> <Gold.Chemscore.Metal>
0.0000

> <Gold.Chemscore.Lipo>
118.9112

> <Gold.Chemscore.Internal_Hbond>
0.0000

> <Gold.Chemscore.DEClash>
0.0149

> <Gold.Chemscore.DEInternal>
2.1106

> <Gold.Chemscore.Rot>
2.4205

> <Gold.Chemscore.Internal.Correction>
   9.000000E+99

> <Gold.Chemscore.Hbonds>
donor molecule, donor type, donor heavy atom, donor atom, acceptor molecule, acceptor atom, score
      P1  H  6896  6909       L1     1  0.91
      P1  H  7997  8009       L1     6  0.87

> <Gold.Chemscore.Hbond.Weighted>
-6.4213

> <Gold.Chemscore.Metal.Weighted>
-0.0000

> <Gold.Chemscore.Lipo.Weighted>
-13.9126

> <Gold.Chemscore.Internal_Hbond.Weighted>
0.0000

> <Gold.Chemscore.DEClash.Weighted>
0.0149

> <Gold.Chemscore.DEInternal.Weighted>
2.1106

> <Gold.Chemscore.Rot.Weighted>
6.1965

> <Gold.Chemscore.Internal.Correction.Weighted>
   9.000000E+99

> <Gold.Protein.RotatedTorsions>
[ 6907 6896 6895 6894 ] final  166.96 input  -60.11 | X-H torsion
[ 7974 7965 7964 7962 ] final -152.70 input  175.53 | X-H torsion
[ 8008 7997 7996 7995 ] final  129.79 input   59.86 | X-H torsion
[ 10167 10162 10161 10158 ] final   83.70 input  -65.29 | X-H torsion
[ 10718 10713 10712 10709 ] final -151.92 input   66.30 | X-H torsion
[ 10763 10752 10751 10750 ] final   -9.35 input  -60.55 | X-H torsion
[ 11005 11000 10999 10996 ] final   91.28 input  -57.11 | X-H torsion

> <Gold.Protein.ActiveResidues>
 VAL166  LYS551  ARG553  GLY616  TRP617  ASP618  TYR619  PRO620  LYS621  CYS622 
 ASP623  PHE694  ASN695  SER759  ASP760  ASP761  ALA762  ILE779  LEU786  VAL792 
 PHE793  MET794  SER795  GLU796  ALA797  LYS798  CYS799  TRP800  GLU811  SER814 

> <Gold.Protein.RotatedAtoms>
  151.8708  133.3475  159.3733 H   0  0  0  0  0  0  0  0  0  0  0  0  # atno 6907 bound_to 6896
  150.7153  134.5115  159.5619 H   0  0  0  0  0  0  0  0  0  0  0  0  # atno 6908 bound_to 6896
  152.2647  134.7997  160.0475 H   0  0  0  0  0  0  0  0  0  0  0  0  # atno 6909 bound_to 6896
  144.7780  140.4626  143.5860 H   0  0  0  0  0  0  0  0  0  0  0  0  # atno 7974 bound_to 7965
  156.2943  140.2612  156.2656 H   0  0  0  0  0  0  0  0  0  0  0  0  # atno 8008 bound_to 7997
  154.9745  140.0390  157.2268 H   0  0  0  0  0  0  0  0  0  0  0  0  # atno 8009 bound_to 7997
  154.7828  140.2798  155.6055 H   0  0  0  0  0  0  0  0  0  0  0  0  # atno 8010 bound_to 7997
  139.9156  144.6244  150.8492 H   0  0  0  0  0  0  0  0  0  0  0  0  # atno 10167 bound_to 10162
  156.4657  130.8234  151.2464 H   0  0  0  0  0  0  0  0  0  0  0  0  # atno 10718 bound_to 10713
  153.4535  135.7015  153.6094 H   0  0  0  0  0  0  0  0  0  0  0  0  # atno 10763 bound_to 10752
  153.4418  135.3778  155.2233 H   0  0  0  0  0  0  0  0  0  0  0  0  # atno 10764 bound_to 10752
  154.8728  135.3976  154.3951 H   0  0  0  0  0  0  0  0  0  0  0  0  # atno 10765 bound_to 10752
  139.8841  134.8664  156.3405 H   0  0  0  0  0  0  0  0  0  0  0  0  # atno 11005 bound_to 11000
  145.6131  139.1515  143.3064 LP  0  0  0  0  0  0  0  0  0  0  0  0  # atno 17320 bound_to 7965
  146.1971  140.6246  142.9119 LP  0  0  0  0  0  0  0  0  0  0  0  0  # atno 17321 bound_to 7965
  140.7675  143.3334  151.2362 LP  0  0  0  0  0  0  0  0  0  0  0  0  # atno 17342 bound_to 10162
  139.6905  143.9700  152.2856 LP  0  0  0  0  0  0  0  0  0  0  0  0  # atno 17343 bound_to 10162
  157.7495  131.0093  150.3261 LP  0  0  0  0  0  0  0  0  0  0  0  0  # atno 17370 bound_to 10713
  156.3671  130.3857  149.7205 LP  0  0  0  0  0  0  0  0  0  0  0  0  # atno 17371 bound_to 10713
  140.9662  133.7357  156.0470 LP  0  0  0  0  0  0  0  0  0  0  0  0  # atno 17394 bound_to 11000
  140.7928  134.3598  157.5460 LP  0  0  0  0  0  0  0  0  0  0  0  0  # atno 17395 bound_to 11000

$$$$
