AV-unprocessed.smi:1965|AV-procd|sdf|7945|dock6
  -GOLD-   2272010113D 1   1.00000     0.00000
 Structure written by MMmdl.
 36 38  0  0  0  0  0  0  0  0  3 V2000
  148.5063  135.0265  157.7623 O   0  0  0  0  0  0  0  0  0  0  0  0
  148.3013  136.2305  157.9114 C   0  0  0  0  0  0  0  0  0  0  0  0
  148.3705  136.8592  159.1137 N   0  5  0  0  0  0  0  0  0  0  0  0
  148.0371  136.2529  160.2682 C   0  0  0  0  0  0  0  0  0  0  0  0
  147.7630  136.9207  161.3948 N   0  0  0  0  0  0  0  0  0  0  0  0
  147.4459  136.0883  162.4700 C   0  0  0  0  0  0  0  0  0  0  0  0
  147.4772  134.7559  162.1537 C   0  0  0  0  0  0  0  0  0  0  0  0
  147.9035  134.5056  160.4851 S   0  0  0  0  0  0  0  0  0  0  0  0
  147.9901  136.9744  156.8339 N   0  0  0  0  0  0  0  0  0  0  0  0
  147.8976  136.4970  155.4602 C   0  0  1  0  0  0  0  0  0  0  0  0
  147.0448  135.2255  155.2855 C   0  0  0  0  0  0  0  0  0  0  0  0
  146.2875  135.4234  153.9574 C   0  0  0  0  0  0  0  0  0  0  0  0
  146.7836  136.7017  153.4116 N   0  3  1  0  0  0  0  0  0  0  0  0
  145.8939  137.4307  152.4813 C   0  0  0  0  0  0  0  0  0  0  0  0
  146.6157  138.6947  151.9707 C   0  0  0  0  0  0  0  0  0  0  0  0
  147.1404  139.5647  153.1317 C   0  0  0  0  0  0  0  0  0  0  0  0
  147.9865  138.7301  154.1124 C   0  0  0  0  0  0  0  0  0  0  0  0
  147.1758  137.5093  154.5752 C   0  0  2  0  0  0  0  0  0  0  0  0
  147.2095  136.5302  163.4265 H   0  0  0  0  0  0  0  0  0  0  0  0
  147.2729  133.9112  162.7944 H   0  0  0  0  0  0  0  0  0  0  0  0
  147.8180  137.9573  156.9879 H   0  0  0  0  0  0  0  0  0  0  0  0
  148.8993  136.3205  155.0626 H   0  0  0  0  0  0  0  0  0  0  0  0
  147.6705  134.3324  155.2694 H   0  0  0  0  0  0  0  0  0  0  0  0
  146.3315  135.1106  156.1034 H   0  0  0  0  0  0  0  0  0  0  0  0
  146.4628  134.6096  153.2534 H   0  0  0  0  0  0  0  0  0  0  0  0
  145.2144  135.4847  154.1451 H   0  0  0  0  0  0  0  0  0  0  0  0
  145.6294  136.7834  151.6448 H   0  0  0  0  0  0  0  0  0  0  0  0
  144.9661  137.6994  152.9887 H   0  0  0  0  0  0  0  0  0  0  0  0
  147.4537  138.3995  151.3378 H   0  0  0  0  0  0  0  0  0  0  0  0
  145.9452  139.2787  151.3397 H   0  0  0  0  0  0  0  0  0  0  0  0
  147.7280  140.3969  152.7426 H   0  0  0  0  0  0  0  0  0  0  0  0
  146.2967  140.0052  153.6647 H   0  0  0  0  0  0  0  0  0  0  0  0
  148.9086  138.4079  153.6267 H   0  0  0  0  0  0  0  0  0  0  0  0
  148.2783  139.3377  154.9698 H   0  0  0  0  0  0  0  0  0  0  0  0
  146.2697  137.8478  155.0839 H   0  0  0  0  0  0  0  0  0  0  0  0
  147.6361  136.4893  152.9134 H   0  0  0  0  0  0  0  0  0  0  0  0
  1  2  2  0  0  0  0
  2  3  1  0  0  0  0
  2  9  1  0  0  0  0
  3  4  1  0  0  0  0
  4  8  1  0  0  0  0
  4  5  2  0  0  0  0
  5  6  1  0  0  0  0
  6  7  2  0  0  0  0
  6 19  1  0  0  0  0
  7  8  1  0  0  0  0
  7 20  1  0  0  0  0
  9 10  1  0  0  0  0
  9 21  1  0  0  0  0
 10 18  1  0  0  0  0
 10 11  1  0  0  0  0
 10 22  1  0  0  0  0
 11 12  1  0  0  0  0
 11 23  1  0  0  0  0
 11 24  1  0  0  0  0
 12 13  1  0  0  0  0
 12 25  1  0  0  0  0
 12 26  1  0  0  0  0
 13 18  1  0  0  0  0
 13 14  1  0  0  0  0
 13 36  1  0  0  0  0
 14 15  1  0  0  0  0
 14 27  1  0  0  0  0
 14 28  1  0  0  0  0
 15 16  1  0  0  0  0
 15 29  1  0  0  0  0
 15 30  1  0  0  0  0
 16 17  1  0  0  0  0
 16 31  1  0  0  0  0
 16 32  1  0  0  0  0
 17 18  1  0  0  0  0
 17 33  1  0  0  0  0
 17 34  1  0  0  0  0
 18 35  1  0  0  0  0
M  CHG  1   3  -1
M  CHG  1  13   1
M  END
> <s_m_source_file>
AV-unprocessed.smi

> <i_m_source_file_index>
1965

> <i_lp_mmshare_version>
43012

> <i_f3d_flags>
0

> <s_epik_input>
czFbY0hdW2NIXW5jMVtOSF1DKD1PKVtOSF1bQ0BIXShbQ0gyXVtDSDJdMilbQ0BASF0oTjIzKVtDSDJdW0NIMl1bQ0gyXVtDSDJdMw==

> <s_epik_cmdline>
J2VwaWtfcHl0aG9uJywgJy1waCcsICc3LjAnLCAnLXRuJywgJzgnLCAnLW1hJywgJzIwMCcsICctbWV0YWxfYmluZGluZycsICctaW1hZScsICc8aW5maWxlLm1hZT4nLCAnLW9tYWUnLCAnPG91dGZpbGUubWFlPic=

> <r_lp_tautomer_probability>
1

> <r_epik_Ionization_Penalty>
7.4116

> <r_epik_Ionization_Penalty_Charging>
6.13869

> <r_epik_Ionization_Penalty_Neutral>
1.27291

> <r_epik_State_Penalty>
6.13761

> <r_epik_Charging_Adjusted_Penalty>
12.2763

> <i_epik_Tot_Q>
0

> <i_epik_Tot_abs_Q>
2

> <r_epik_Metal_State_Penalty>
2.08142

> <b_epik_Metal_Only>
1

> <s_lp_Force_Field>
OPLS_2005

> <r_lp_Energy>
26.2693

> <b_lp_Chiralities_Consistent>
1

> <s_lp_Variant>
AV-unprocessed.smi:1965-14

> <Gold.Version>
5.8.1

> <Gold.Id.Protein>
6NUR|6NUR_protein|mol2

> <Gold.PLP.Fitness>
37.2689

> <Gold.PLP.PLP>
-26.6720

> <Gold.PLP.part.hbond>
-3.0000

> <Gold.PLP.part.metal>
0.0000

> <Gold.PLP.part.buried>
-3.1410

> <Gold.PLP.part.nonpolar>
-20.9878

> <Gold.PLP.part.repulsive>
0.0000

> <Gold.PLP.ligand.clash>
0.0000

> <Gold.PLP.ligand.torsion>
0.4333

> <Gold.PLP.Chemscore.Hbond>
3.8160

> <Gold.PLP.Chemscore.CHOScore>
0.0000

> <Gold.PLP.Chemscore.Metal>
0.0000

> <Gold.Chemscore.Hbonds>
donor molecule, donor type, donor heavy atom, donor atom, acceptor molecule, acceptor atom, score
      L1  H    13    36       P1  7948  2.00
      P1  H  6931  6943       L1     5  1.00
      P1  H  6934  6947       L1     5  0.42

> <Gold.PLP.Chemscore.Internal.Correction>
0.0157

> <Gold.Rescore>
     Score         DG    S(hbond)    S(metal)    S(lipo)     H(rot)  DE(clash)    DE(int)     intcor
     14.18     -17.35       2.28        0.00      58.26       1.00       0.01       3.16       ----

> <Gold.Chemscore.Fitness>
14.1800

> <Gold.Chemscore.DG>
-17.3488

> <Gold.Chemscore.ZeroCoef>
-5.4800

> <Gold.Chemscore.Hbond>
2.2791

> <Gold.Chemscore.Metal>
0.0000

> <Gold.Chemscore.Lipo>
58.2620

> <Gold.Chemscore.Internal_Hbond>
0.0000

> <Gold.Chemscore.DEClash>
0.0126

> <Gold.Chemscore.DEInternal>
3.1562

> <Gold.Chemscore.Rot>
1.0000

> <Gold.Chemscore.Internal.Correction>
   9.000000E+99

> <Gold.Chemscore.Hbonds>
donor molecule, donor type, donor heavy atom, donor atom, acceptor molecule, acceptor atom, score
      L1  H    13    36       P1  7948  1.00
      P1  H  6931  6943       L1     5  0.72
      P1  H  6934  6947       L1     5  0.33

> <Gold.Chemscore.Hbond.Weighted>
-7.6121

> <Gold.Chemscore.Metal.Weighted>
-0.0000

> <Gold.Chemscore.Lipo.Weighted>
-6.8167

> <Gold.Chemscore.Internal_Hbond.Weighted>
0.0000

> <Gold.Chemscore.DEClash.Weighted>
0.0126

> <Gold.Chemscore.DEInternal.Weighted>
3.1562

> <Gold.Chemscore.Rot.Weighted>
2.5600

> <Gold.Chemscore.Internal.Correction.Weighted>
   9.000000E+99

> <Gold.Protein.RotatedTorsions>
[ 6907 6896 6895 6894 ] final   20.77 input  -60.11 | X-H torsion
[ 7974 7965 7964 7962 ] final  112.47 input  175.53 | X-H torsion
[ 8008 7997 7996 7995 ] final  145.65 input   59.86 | X-H torsion
[ 10167 10162 10161 10158 ] final -149.49 input  -65.29 | X-H torsion
[ 10718 10713 10712 10709 ] final    5.88 input   66.30 | X-H torsion
[ 10763 10752 10751 10750 ] final   26.55 input  -60.55 | X-H torsion
[ 11005 11000 10999 10996 ] final  139.49 input  -57.11 | X-H torsion

> <Gold.Protein.ActiveResidues>
 VAL166  LYS551  ARG553  GLY616  TRP617  ASP618  TYR619  PRO620  LYS621  CYS622 
 ASP623  PHE694  ASN695  SER759  ASP760  ASP761  ALA762  ILE779  LEU786  VAL792 
 PHE793  MET794  SER795  GLU796  ALA797  LYS798  CYS799  TRP800  GLU811  SER814 

> <Gold.Protein.RotatedAtoms>
  151.9015  135.0376  160.0506 H   0  0  0  0  0  0  0  0  0  0  0  0  # atno 6907 bound_to 6896
  152.2354  133.5087  159.5248 H   0  0  0  0  0  0  0  0  0  0  0  0  # atno 6908 bound_to 6896
  150.7037  134.1077  159.4031 H   0  0  0  0  0  0  0  0  0  0  0  0  # atno 6909 bound_to 6896
  145.2292  139.2827  143.4177 H   0  0  0  0  0  0  0  0  0  0  0  0  # atno 7974 bound_to 7965
  156.2877  140.2203  156.5250 H   0  0  0  0  0  0  0  0  0  0  0  0  # atno 8008 bound_to 7997
  154.7497  140.0481  157.0904 H   0  0  0  0  0  0  0  0  0  0  0  0  # atno 8009 bound_to 7997
  155.0126  140.3114  155.4827 H   0  0  0  0  0  0  0  0  0  0  0  0  # atno 8010 bound_to 7997
  139.7438  143.8622  152.2569 H   0  0  0  0  0  0  0  0  0  0  0  0  # atno 10167 bound_to 10162
  156.9139  130.5766  149.5647 H   0  0  0  0  0  0  0  0  0  0  0  0  # atno 10718 bound_to 10713
  153.0615  135.6557  154.0452 H   0  0  0  0  0  0  0  0  0  0  0  0  # atno 10763 bound_to 10752
  154.0119  135.2927  155.3393 H   0  0  0  0  0  0  0  0  0  0  0  0  # atno 10764 bound_to 10752
  154.6955  135.5266  153.8520 H   0  0  0  0  0  0  0  0  0  0  0  0  # atno 10765 bound_to 10752
  140.0259  134.9375  157.0566 H   0  0  0  0  0  0  0  0  0  0  0  0  # atno 11005 bound_to 11000
  146.3357  140.2621  142.8602 LP  0  0  0  0  0  0  0  0  0  0  0  0  # atno 17320 bound_to 7965
  144.9693  140.8352  143.5465 LP  0  0  0  0  0  0  0  0  0  0  0  0  # atno 17321 bound_to 7965
  139.8580  144.7131  150.9134 LP  0  0  0  0  0  0  0  0  0  0  0  0  # atno 17342 bound_to 10162
  140.7789  143.3842  151.1423 LP  0  0  0  0  0  0  0  0  0  0  0  0  # atno 17343 bound_to 10162
  156.0523  130.5590  150.9015 LP  0  0  0  0  0  0  0  0  0  0  0  0  # atno 17370 bound_to 10713
  157.5950  131.0943  150.9056 LP  0  0  0  0  0  0  0  0  0  0  0  0  # atno 17371 bound_to 10713
  140.4308  134.1782  155.7168 LP  0  0  0  0  0  0  0  0  0  0  0  0  # atno 17394 bound_to 11000
  141.1802  133.8430  157.1284 LP  0  0  0  0  0  0  0  0  0  0  0  0  # atno 17395 bound_to 11000

$$$$
