AV-unprocessed.smi:3157|AV-procd|sdf|12037|dock10
  -GOLD-   2272017453D 1   1.00000     0.00000
 Structure written by MMmdl.
 40 41  0  0  0  0  0  0  0  0  2 V2000
  147.7980  141.7387  156.3081 C   0  0  0  0  0  0  0  0  0  0  0  0
  149.1953  141.1449  156.0448 C   0  0  2  0  0  0  0  0  0  0  0  0
  150.2289  142.1876  156.2471 N   0  3  0  0  0  0  0  0  0  0  0  0
  151.1249  141.9770  157.4029 C   0  0  0  0  0  0  0  0  0  0  0  0
  151.1145  143.1963  158.3385 C   0  0  0  0  0  0  0  0  0  0  0  0
  151.7993  144.4279  157.7418 C   0  0  0  0  0  0  0  0  0  0  0  0
  152.1216  145.3240  158.9424 C   0  0  0  0  0  0  0  0  0  0  0  0
  152.1837  144.3968  160.1659 C   0  0  0  0  0  0  0  0  0  0  0  0
  151.8738  142.9861  159.6526 C   0  0  0  0  0  0  0  0  0  0  0  0
  149.3293  140.5431  154.6214 C   0  0  2  0  0  0  0  0  0  0  0  0
  148.0357  139.8859  154.1045 C   0  0  0  0  0  0  0  0  0  0  0  0
  150.4255  139.5812  154.5701 N   0  0  0  0  0  0  0  0  0  0  0  0
  150.3952  138.2507  154.2004 C   0  0  0  0  0  0  0  0  0  0  0  0
  151.6589  137.7561  154.3490 C   0  0  0  0  0  0  0  0  0  0  0  0
  152.4030  138.8688  154.8302 C   0  0  0  0  0  0  0  0  0  0  0  0
  151.6606  139.9549  154.9714 N   0  0  0  0  0  0  0  0  0  0  0  0
  147.0209  140.9765  156.2585 H   0  0  0  0  0  0  0  0  0  0  0  0
  147.5531  142.5130  155.5803 H   0  0  0  0  0  0  0  0  0  0  0  0
  147.7293  142.1849  157.2998 H   0  0  0  0  0  0  0  0  0  0  0  0
  149.3725  140.3442  156.7648 H   0  0  0  0  0  0  0  0  0  0  0  0
  150.8092  142.2024  155.4198 H   0  0  0  0  0  0  0  0  0  0  0  0
  150.8343  141.0800  157.9498 H   0  0  0  0  0  0  0  0  0  0  0  0
  152.1380  141.8116  157.0335 H   0  0  0  0  0  0  0  0  0  0  0  0
  150.0821  143.4644  158.5705 H   0  0  0  0  0  0  0  0  0  0  0  0
  152.7284  144.1356  157.2498 H   0  0  0  0  0  0  0  0  0  0  0  0
  151.1795  144.9333  157.0006 H   0  0  0  0  0  0  0  0  0  0  0  0
  153.0544  145.8690  158.7940 H   0  0  0  0  0  0  0  0  0  0  0  0
  151.3316  146.0629  159.0818 H   0  0  0  0  0  0  0  0  0  0  0  0
  153.1567  144.4349  160.6569 H   0  0  0  0  0  0  0  0  0  0  0  0
  151.4368  144.7038  160.8990 H   0  0  0  0  0  0  0  0  0  0  0  0
  151.3066  142.3985  160.3754 H   0  0  0  0  0  0  0  0  0  0  0  0
  152.8095  142.4584  159.4623 H   0  0  0  0  0  0  0  0  0  0  0  0
  149.5721  141.3537  153.9311 H   0  0  0  0  0  0  0  0  0  0  0  0
  147.2443  140.6194  153.9529 H   0  0  0  0  0  0  0  0  0  0  0  0
  147.6632  139.1310  154.7974 H   0  0  0  0  0  0  0  0  0  0  0  0
  148.2028  139.4000  153.1424 H   0  0  0  0  0  0  0  0  0  0  0  0
  149.4875  137.7701  153.8659 H   0  0  0  0  0  0  0  0  0  0  0  0
  152.0000  136.7516  154.1466 H   0  0  0  0  0  0  0  0  0  0  0  0
  153.4516  138.9181  155.0843 H   0  0  0  0  0  0  0  0  0  0  0  0
  149.7759  143.0863  156.3312 H   0  0  0  0  0  0  0  0  0  0  0  0
  1  2  1  0  0  0  0
  1 17  1  0  0  0  0
  1 18  1  0  0  0  0
  1 19  1  0  0  0  0
  2  3  1  0  0  0  0
  2 10  1  0  0  0  0
  2 20  1  0  0  0  0
  3  4  1  0  0  0  0
  3 21  1  0  0  0  0
  3 40  1  0  0  0  0
  4  5  1  0  0  0  0
  4 22  1  0  0  0  0
  4 23  1  0  0  0  0
  5  9  1  0  0  0  0
  5  6  1  0  0  0  0
  5 24  1  0  0  0  0
  6  7  1  0  0  0  0
  6 25  1  0  0  0  0
  6 26  1  0  0  0  0
  7  8  1  0  0  0  0
  7 27  1  0  0  0  0
  7 28  1  0  0  0  0
  8  9  1  0  0  0  0
  8 29  1  0  0  0  0
  8 30  1  0  0  0  0
  9 31  1  0  0  0  0
  9 32  1  0  0  0  0
 10 11  1  0  0  0  0
 10 12  1  0  0  0  0
 10 33  1  0  0  0  0
 11 34  1  0  0  0  0
 11 35  1  0  0  0  0
 11 36  1  0  0  0  0
 12 16  1  0  0  0  0
 12 13  1  0  0  0  0
 13 14  2  0  0  0  0
 13 37  1  0  0  0  0
 14 15  1  0  0  0  0
 14 38  1  0  0  0  0
 15 16  2  0  0  0  0
 15 39  1  0  0  0  0
M  CHG  1   3   1
M  END
> <s_m_source_file>
AV-unprocessed.smi

> <i_m_source_file_index>
3157

> <i_lp_mmshare_version>
43012

> <i_f3d_flags>
0

> <s_epik_input>
bjFbY0hdW2NIXVtjSF1uMVtDQEBIXShbQ0gzXSlbQ0BIXShbQ0gzXSlbTkhdW0NIMl1bQ0hdMltDSDJdW0NIMl1bQ0gyXVtDSDJdMg==

> <s_epik_cmdline>
J2VwaWtfcHl0aG9uJywgJy1waCcsICc3LjAnLCAnLXRuJywgJzgnLCAnLW1hJywgJzIwMCcsICctbWV0YWxfYmluZGluZycsICctaW1hZScsICc8aW5maWxlLm1hZT4nLCAnLW9tYWUnLCAnPG91dGZpbGUubWFlPic=

> <r_lp_tautomer_probability>
1

> <r_epik_Ionization_Penalty>
0.00132192

> <r_epik_Ionization_Penalty_Charging>
0.0013111

> <r_epik_Ionization_Penalty_Neutral>
1.08112e-05

> <r_epik_State_Penalty>
-0

> <r_epik_Charging_Adjusted_Penalty>
0.0013111

> <i_epik_Tot_Q>
1

> <i_epik_Tot_abs_Q>
1

> <r_epik_Metal_State_Penalty>
-0

> <b_epik_Metal_Only>
0

> <s_lp_Force_Field>
OPLS_2005

> <r_lp_Energy>
31.0944

> <b_lp_Chiralities_Consistent>
1

> <s_lp_Variant>
AV-unprocessed.smi:3157-1

> <Gold.Version>
5.8.1

> <Gold.Id.Protein>
6NUR|6NUR_protein|mol2

> <Gold.PLP.Fitness>
48.4377

> <Gold.PLP.PLP>
-41.6395

> <Gold.PLP.part.hbond>
-2.0000

> <Gold.PLP.part.metal>
0.0000

> <Gold.PLP.part.buried>
-3.7149

> <Gold.PLP.part.nonpolar>
-36.2732

> <Gold.PLP.part.repulsive>
0.1486

> <Gold.PLP.ligand.clash>
0.0000

> <Gold.PLP.ligand.torsion>
1.6100

> <Gold.PLP.Chemscore.Hbond>
2.3000

> <Gold.PLP.Chemscore.CHOScore>
1.0000

> <Gold.PLP.Chemscore.Metal>
0.0000

> <Gold.Chemscore.Hbonds>
donor molecule, donor type, donor heavy atom, donor atom, acceptor molecule, acceptor atom, score
      L1  H     3    40       P1  8028  2.00
      P1  H  7989  7998       L1    16  0.20
      L1  C    13    37       P1  7948  0.94

> <Gold.PLP.Chemscore.Internal.Correction>
0.1181

> <Gold.Rescore>
     Score         DG    S(hbond)    S(metal)    S(lipo)     H(rot)  DE(clash)    DE(int)     intcor
     16.38     -18.29       0.99        0.00     114.08       1.50       0.03       1.88       ----

> <Gold.Chemscore.Fitness>
16.3794

> <Gold.Chemscore.DG>
-18.2855

> <Gold.Chemscore.ZeroCoef>
-5.4800

> <Gold.Chemscore.Hbond>
0.9912

> <Gold.Chemscore.Metal>
0.0000

> <Gold.Chemscore.Lipo>
114.0752

> <Gold.Chemscore.Internal_Hbond>
0.0000

> <Gold.Chemscore.DEClash>
0.0253

> <Gold.Chemscore.DEInternal>
1.8808

> <Gold.Chemscore.Rot>
1.5047

> <Gold.Chemscore.Internal.Correction>
   9.000000E+99

> <Gold.Chemscore.Hbonds>
donor molecule, donor type, donor heavy atom, donor atom, acceptor molecule, acceptor atom, score
      L1  H     3    40       P1  8028  0.96

> <Gold.Chemscore.Hbond.Weighted>
-3.3106

> <Gold.Chemscore.Metal.Weighted>
-0.0000

> <Gold.Chemscore.Lipo.Weighted>
-13.3468

> <Gold.Chemscore.Internal_Hbond.Weighted>
0.0000

> <Gold.Chemscore.DEClash.Weighted>
0.0253

> <Gold.Chemscore.DEInternal.Weighted>
1.8808

> <Gold.Chemscore.Rot.Weighted>
3.8520

> <Gold.Chemscore.Internal.Correction.Weighted>
   9.000000E+99

> <Gold.Protein.RotatedTorsions>
[ 6907 6896 6895 6894 ] final -120.62 input  -60.11 | X-H torsion
[ 7974 7965 7964 7962 ] final  -51.88 input  175.53 | X-H torsion
[ 8008 7997 7996 7995 ] final  -18.07 input   59.86 | X-H torsion
[ 10167 10162 10161 10158 ] final  107.84 input  -65.29 | X-H torsion
[ 10718 10713 10712 10709 ] final -120.71 input   66.30 | X-H torsion
[ 10763 10752 10751 10750 ] final  126.62 input  -60.55 | X-H torsion
[ 11005 11000 10999 10996 ] final  -89.36 input  -57.11 | X-H torsion

> <Gold.Protein.ActiveResidues>
 VAL166  LYS551  ARG553  GLY616  TRP617  ASP618  TYR619  PRO620  LYS621  CYS622 
 ASP623  PHE694  ASN695  SER759  ASP760  ASP761  ALA762  ILE779  LEU786  VAL792 
 PHE793  MET794  SER795  GLU796  ALA797  LYS798  CYS799  TRP800  GLU811  SER814 

> <Gold.Protein.RotatedAtoms>
  150.8409  133.7937  159.3060 H   0  0  0  0  0  0  0  0  0  0  0  0  # atno 6907 bound_to 6896
  151.5639  135.1063  159.9988 H   0  0  0  0  0  0  0  0  0  0  0  0  # atno 6908 bound_to 6896
  152.4473  133.7519  159.6754 H   0  0  0  0  0  0  0  0  0  0  0  0  # atno 6909 bound_to 6896
  145.9141  140.7890  142.9680 H   0  0  0  0  0  0  0  0  0  0  0  0  # atno 7974 bound_to 7965
  154.4932  140.2125  155.9503 H   0  0  0  0  0  0  0  0  0  0  0  0  # atno 8008 bound_to 7997
  156.1334  140.3193  155.8352 H   0  0  0  0  0  0  0  0  0  0  0  0  # atno 8009 bound_to 7997
  155.4254  140.0500  157.3013 H   0  0  0  0  0  0  0  0  0  0  0  0  # atno 8010 bound_to 7997
  139.6895  144.7109  151.1374 H   0  0  0  0  0  0  0  0  0  0  0  0  # atno 10167 bound_to 10162
  156.1279  130.6373  150.9573 H   0  0  0  0  0  0  0  0  0  0  0  0  # atno 10718 bound_to 10713
  153.6963  135.3290  155.3214 H   0  0  0  0  0  0  0  0  0  0  0  0  # atno 10763 bound_to 10752
  154.8426  135.4443  154.1457 H   0  0  0  0  0  0  0  0  0  0  0  0  # atno 10764 bound_to 10752
  153.2512  135.6981  153.7755 H   0  0  0  0  0  0  0  0  0  0  0  0  # atno 10765 bound_to 10752
  141.1586  133.7625  156.9584 H   0  0  0  0  0  0  0  0  0  0  0  0  # atno 11005 bound_to 11000
  144.6746  140.1872  143.7400 LP  0  0  0  0  0  0  0  0  0  0  0  0  # atno 17320 bound_to 7965
  145.8633  139.2234  143.1703 LP  0  0  0  0  0  0  0  0  0  0  0  0  # atno 17321 bound_to 7965
  140.7678  143.5580  150.9130 LP  0  0  0  0  0  0  0  0  0  0  0  0  # atno 17342 bound_to 10162
  139.9257  143.6553  152.3087 LP  0  0  0  0  0  0  0  0  0  0  0  0  # atno 17343 bound_to 10162
  157.6459  131.0904  150.8153 LP  0  0  0  0  0  0  0  0  0  0  0  0  # atno 17370 bound_to 10713
  156.8241  130.4994  149.5339 LP  0  0  0  0  0  0  0  0  0  0  0  0  # atno 17371 bound_to 10713
  140.1210  134.9417  157.2203 LP  0  0  0  0  0  0  0  0  0  0  0  0  # atno 17394 bound_to 11000
  140.3072  134.3064  155.7275 LP  0  0  0  0  0  0  0  0  0  0  0  0  # atno 17395 bound_to 11000

$$$$
