AV-unprocessed.smi:1047|AV-procd|sdf|4600|dock2
  -GOLD-   22720 3 93D 1   1.00000     0.00000
 Structure written by MMmdl.
 57 59  0  0  0  0  0  0  0  0  3 V2000
  144.9252  132.8972  161.8687 C   0  0  0  0  0  0  0  0  0  0  0  0
  146.1562  133.3497  162.6664 C   0  0  0  0  0  0  0  0  0  0  0  0
  146.5504  134.7470  162.3591 N   0  3  1  0  0  0  0  0  0  0  0  0
  147.4131  135.3633  163.3974 C   0  0  0  0  0  0  0  0  0  0  0  0
  147.7366  136.8215  163.0308 C   0  0  0  0  0  0  0  0  0  0  0  0
  148.3605  136.8724  161.7541 O   0  0  0  0  0  0  0  0  0  0  0  0
  147.5278  136.3477  160.7256 C   0  0  1  0  0  0  0  0  0  0  0  0
  148.2182  136.5609  159.3677 C   0  0  0  0  0  0  0  0  0  0  0  0
  148.6491  137.9445  159.1846 N   0  0  0  0  0  0  0  0  0  0  0  0
  149.6292  138.1140  158.1167 C   0  0  0  0  0  0  0  0  0  0  0  0
  151.0218  138.4399  158.6831 C   0  0  1  0  0  0  0  0  0  0  0  0
  151.6949  137.2244  158.9471 O   0  0  0  0  0  0  0  0  0  0  0  0
  151.8542  139.2807  157.6955 C   0  0  0  0  0  0  0  0  0  0  0  0
  151.3184  140.6371  157.5073 N   0  0  0  0  0  0  0  0  0  0  0  0
  150.5135  141.1211  156.5225 C   0  0  0  0  0  0  0  0  0  0  0  0
  150.2924  142.4392  156.7827 N   0  3  0  0  0  0  0  0  0  0  0  0
  150.9646  142.8026  157.9513 C   0  0  0  0  0  0  0  0  0  0  0  0
  151.0421  144.0222  158.6131 C   0  0  0  0  0  0  0  0  0  0  0  0
  151.8153  144.0670  159.7950 C   0  0  0  0  0  0  0  0  0  0  0  0
  151.9229  145.3860  160.5414 C   0  0  0  0  0  0  0  0  0  0  0  0
  152.4770  142.9085  160.2782 C   0  0  0  0  0  0  0  0  0  0  0  0
  153.2990  142.9655  161.5547 C   0  0  0  0  0  0  0  0  0  0  0  0
  152.3874  141.6780  159.5889 C   0  0  0  0  0  0  0  0  0  0  0  0
  151.6240  141.6511  158.4238 C   0  0  0  0  0  0  0  0  0  0  0  0
  147.1807  134.8734  161.0238 C   0  0  0  0  0  0  0  0  0  0  0  0
  144.7171  131.8428  162.0522 H   0  0  0  0  0  0  0  0  0  0  0  0
  145.0838  133.0197  160.7970 H   0  0  0  0  0  0  0  0  0  0  0  0
  144.0304  133.4547  162.1439 H   0  0  0  0  0  0  0  0  0  0  0  0
  145.9861  133.2338  163.7379 H   0  0  0  0  0  0  0  0  0  0  0  0
  146.9814  132.6833  162.4111 H   0  0  0  0  0  0  0  0  0  0  0  0
  146.9179  135.3408  164.3676 H   0  0  0  0  0  0  0  0  0  0  0  0
  148.3368  134.7907  163.4962 H   0  0  0  0  0  0  0  0  0  0  0  0
  146.8325  137.4326  163.0319 H   0  0  0  0  0  0  0  0  0  0  0  0
  148.4124  137.2532  163.7692 H   0  0  0  0  0  0  0  0  0  0  0  0
  146.6029  136.9273  160.7118 H   0  0  0  0  0  0  0  0  0  0  0  0
  149.0781  135.8943  159.2911 H   0  0  0  0  0  0  0  0  0  0  0  0
  147.5333  136.2751  158.5684 H   0  0  0  0  0  0  0  0  0  0  0  0
  147.8421  138.5338  159.0058 H   0  0  0  0  0  0  0  0  0  0  0  0
  149.6700  137.2281  157.4813 H   0  0  0  0  0  0  0  0  0  0  0  0
  149.3082  138.9363  157.4759 H   0  0  0  0  0  0  0  0  0  0  0  0
  150.9244  138.9946  159.6177 H   0  0  0  0  0  0  0  0  0  0  0  0
  152.6208  137.3579  158.8147 H   0  0  0  0  0  0  0  0  0  0  0  0
  152.8981  139.3409  158.0038 H   0  0  0  0  0  0  0  0  0  0  0  0
  151.8552  138.8027  156.7148 H   0  0  0  0  0  0  0  0  0  0  0  0
  150.1211  140.5613  155.6857 H   0  0  0  0  0  0  0  0  0  0  0  0
  150.5327  144.8988  158.2405 H   0  0  0  0  0  0  0  0  0  0  0  0
  152.9648  145.6965  160.6238 H   0  0  0  0  0  0  0  0  0  0  0  0
  151.5079  145.2934  161.5454 H   0  0  0  0  0  0  0  0  0  0  0  0
  151.3799  146.1801  160.0278 H   0  0  0  0  0  0  0  0  0  0  0  0
  153.7258  141.9920  161.7984 H   0  0  0  0  0  0  0  0  0  0  0  0
  152.6788  143.2763  162.3959 H   0  0  0  0  0  0  0  0  0  0  0  0
  154.1212  143.6735  161.4500 H   0  0  0  0  0  0  0  0  0  0  0  0
  152.8899  140.7977  159.9608 H   0  0  0  0  0  0  0  0  0  0  0  0
  148.0764  134.2509  160.9943 H   0  0  0  0  0  0  0  0  0  0  0  0
  146.5021  134.4949  160.2582 H   0  0  0  0  0  0  0  0  0  0  0  0
  145.6978  135.2874  162.3225 H   0  0  0  0  0  0  0  0  0  0  0  0
  149.7230  143.0435  156.2041 H   0  0  0  0  0  0  0  0  0  0  0  0
  1  2  1  0  0  0  0
  1 26  1  0  0  0  0
  1 27  1  0  0  0  0
  1 28  1  0  0  0  0
  2  3  1  0  0  0  0
  2 29  1  0  0  0  0
  2 30  1  0  0  0  0
  3 25  1  0  0  0  0
  3  4  1  0  0  0  0
  3 56  1  0  0  0  0
  4  5  1  0  0  0  0
  4 31  1  0  0  0  0
  4 32  1  0  0  0  0
  5  6  1  0  0  0  0
  5 33  1  0  0  0  0
  5 34  1  0  0  0  0
  6  7  1  0  0  0  0
  7  8  1  0  0  0  0
  7 25  1  0  0  0  0
  7 35  1  0  0  0  0
  8  9  1  0  0  0  0
  8 36  1  0  0  0  0
  8 37  1  0  0  0  0
  9 10  1  0  0  0  0
  9 38  1  0  0  0  0
 10 11  1  0  0  0  0
 10 39  1  0  0  0  0
 10 40  1  0  0  0  0
 11 12  1  0  0  0  0
 11 13  1  0  0  0  0
 11 41  1  0  0  0  0
 12 42  1  0  0  0  0
 13 14  1  0  0  0  0
 13 43  1  0  0  0  0
 13 44  1  0  0  0  0
 14 24  1  0  0  0  0
 14 15  1  0  0  0  0
 15 16  2  0  0  0  0
 15 45  1  0  0  0  0
 16 17  1  0  0  0  0
 16 57  1  0  0  0  0
 17 24  2  0  0  0  0
 17 18  1  0  0  0  0
 18 19  2  0  0  0  0
 18 46  1  0  0  0  0
 19 20  1  0  0  0  0
 19 21  1  0  0  0  0
 20 47  1  0  0  0  0
 20 48  1  0  0  0  0
 20 49  1  0  0  0  0
 21 22  1  0  0  0  0
 21 23  2  0  0  0  0
 22 50  1  0  0  0  0
 22 51  1  0  0  0  0
 22 52  1  0  0  0  0
 23 24  1  0  0  0  0
 23 53  1  0  0  0  0
 25 54  1  0  0  0  0
 25 55  1  0  0  0  0
M  CHG  1   3   1
M  CHG  1  16   1
M  END
> <s_m_source_file>
AV-unprocessed.smi

> <i_m_source_file_index>
1047

> <i_lp_mmshare_version>
43012

> <i_f3d_flags>
0

> <s_epik_input>
W0NIM11bQ0gyXU4xW0NIMl1bQ0gyXU9bQ0BIXShbQ0gyXTEpW0NIMl1bTkhdW0NIMl1bQ0BIXShbT0hdKVtDSDJdbihbY0hdbjIpYyhjMjMpW2NIXWMoW0NIM10pYyhbY0hdMylbQ0gzXQ==

> <s_epik_cmdline>
J2VwaWtfcHl0aG9uJywgJy1waCcsICc3LjAnLCAnLXRuJywgJzgnLCAnLW1hJywgJzIwMCcsICctbWV0YWxfYmluZGluZycsICctaW1hZScsICc8aW5maWxlLm1hZT4nLCAnLW9tYWUnLCAnPG91dGZpbGUubWFlPic=

> <r_epik_Ionization_Penalty>
2.03028

> <r_epik_Ionization_Penalty_Charging>
1.21256

> <r_epik_Ionization_Penalty_Neutral>
0.817715

> <r_epik_State_Penalty>
2.54959

> <r_epik_Charging_Adjusted_Penalty>
3.76215

> <i_epik_Tot_Q>
2

> <i_epik_Tot_abs_Q>
2

> <r_epik_Metal_State_Penalty>
6.52811

> <b_epik_Metal_Only>
0

> <s_lp_Force_Field>
OPLS_2005

> <r_lp_Energy>
36.9073

> <b_lp_Chiralities_Consistent>
1

> <s_lp_Variant>
AV-unprocessed.smi:1047-41

> <Gold.Version>
5.8.1

> <Gold.Id.Protein>
6NUR|6NUR_protein|mol2

> <Gold.PLP.Fitness>
60.9057

> <Gold.PLP.PLP>
-53.5412

> <Gold.PLP.part.hbond>
-3.9187

> <Gold.PLP.part.metal>
0.0000

> <Gold.PLP.part.buried>
-8.1671

> <Gold.PLP.part.nonpolar>
-42.7045

> <Gold.PLP.part.repulsive>
0.1131

> <Gold.PLP.ligand.clash>
0.0000

> <Gold.PLP.ligand.torsion>
1.2612

> <Gold.PLP.Chemscore.Hbond>
3.2259

> <Gold.PLP.Chemscore.CHOScore>
0.0000

> <Gold.PLP.Chemscore.Metal>
0.0000

> <Gold.Chemscore.Hbonds>
donor molecule, donor type, donor heavy atom, donor atom, acceptor molecule, acceptor atom, score
      L1  H    16    57       P1  8028  2.00
      P1  H  6896  6909       L1    12  0.32
      P1  H  6931  6943       L1     6  0.85

> <Gold.PLP.Chemscore.Internal.Correction>
0.2093

> <Gold.Rescore>
     Score         DG    S(hbond)    S(metal)    S(lipo)     H(rot)  DE(clash)    DE(int)     intcor
     18.37     -20.26       1.49        0.00     143.07       2.71       0.38       1.52       ----

> <Gold.Chemscore.Fitness>
18.3655

> <Gold.Chemscore.DG>
-20.2614

> <Gold.Chemscore.ZeroCoef>
-5.4800

> <Gold.Chemscore.Hbond>
1.4901

> <Gold.Chemscore.Metal>
0.0000

> <Gold.Chemscore.Lipo>
143.0691

> <Gold.Chemscore.Internal_Hbond>
0.0000

> <Gold.Chemscore.DEClash>
0.3780

> <Gold.Chemscore.DEInternal>
1.5179

> <Gold.Chemscore.Rot>
2.7088

> <Gold.Chemscore.Internal.Correction>
   9.000000E+99

> <Gold.Chemscore.Hbonds>
donor molecule, donor type, donor heavy atom, donor atom, acceptor molecule, acceptor atom, score
      L1  H    16    57       P1  8028  0.97
      P1  H  6896  6909       L1    12  0.19
      P1  H  6931  6943       L1     6  0.14

> <Gold.Chemscore.Hbond.Weighted>
-4.9770

> <Gold.Chemscore.Metal.Weighted>
-0.0000

> <Gold.Chemscore.Lipo.Weighted>
-16.7391

> <Gold.Chemscore.Internal_Hbond.Weighted>
0.0000

> <Gold.Chemscore.DEClash.Weighted>
0.3780

> <Gold.Chemscore.DEInternal.Weighted>
1.5179

> <Gold.Chemscore.Rot.Weighted>
6.9346

> <Gold.Chemscore.Internal.Correction.Weighted>
   9.000000E+99

> <Gold.Protein.RotatedTorsions>
[ 6907 6896 6895 6894 ] final  112.63 input  -60.11 | X-H torsion
[ 7974 7965 7964 7962 ] final -149.73 input  175.53 | X-H torsion
[ 8008 7997 7996 7995 ] final   25.71 input   59.86 | X-H torsion
[ 10167 10162 10161 10158 ] final   20.44 input  -65.29 | X-H torsion
[ 10718 10713 10712 10709 ] final -123.73 input   66.30 | X-H torsion
[ 10763 10752 10751 10750 ] final  165.82 input  -60.55 | X-H torsion
[ 11005 11000 10999 10996 ] final  164.82 input  -57.11 | X-H torsion

> <Gold.Protein.ActiveResidues>
 VAL166  LYS551  ARG553  GLY616  TRP617  ASP618  TYR619  PRO620  LYS621  CYS622 
 ASP623  PHE694  ASN695  SER759  ASP760  ASP761  ALA762  ILE779  LEU786  VAL792 
 PHE793  MET794  SER795  GLU796  ALA797  LYS798  CYS799  TRP800  GLU811  SER814 

> <Gold.Protein.RotatedAtoms>
  152.4906  133.8488  159.7190 H   0  0  0  0  0  0  0  0  0  0  0  0  # atno 6907 bound_to 6896
  150.9031  133.7083  159.2880 H   0  0  0  0  0  0  0  0  0  0  0  0  # atno 6908 bound_to 6896
  151.4518  135.1034  159.9752 H   0  0  0  0  0  0  0  0  0  0  0  0  # atno 6909 bound_to 6896
  144.7950  140.5026  143.5746 H   0  0  0  0  0  0  0  0  0  0  0  0  # atno 7974 bound_to 7965
  155.0160  140.3142  155.4811 H   0  0  0  0  0  0  0  0  0  0  0  0  # atno 8008 bound_to 7997
  156.2901  140.2206  156.5218 H   0  0  0  0  0  0  0  0  0  0  0  0  # atno 8009 bound_to 7997
  154.7493  140.0467  157.0867 H   0  0  0  0  0  0  0  0  0  0  0  0  # atno 8010 bound_to 7997
  140.5503  143.9521  150.6574 H   0  0  0  0  0  0  0  0  0  0  0  0  # atno 10167 bound_to 10162
  156.1527  130.6546  150.9937 H   0  0  0  0  0  0  0  0  0  0  0  0  # atno 10718 bound_to 10713
  154.3297  135.2755  155.2478 H   0  0  0  0  0  0  0  0  0  0  0  0  # atno 10763 bound_to 10752
  154.4795  135.5862  153.6383 H   0  0  0  0  0  0  0  0  0  0  0  0  # atno 10764 bound_to 10752
  152.9868  135.6108  154.3488 H   0  0  0  0  0  0  0  0  0  0  0  0  # atno 10765 bound_to 10752
  140.2498  134.7986  157.3491 H   0  0  0  0  0  0  0  0  0  0  0  0  # atno 11005 bound_to 11000
  145.5697  139.1483  143.3295 LP  0  0  0  0  0  0  0  0  0  0  0  0  # atno 17320 bound_to 7965
  146.2215  140.5830  142.9015 LP  0  0  0  0  0  0  0  0  0  0  0  0  # atno 17321 bound_to 7965
  140.2945  143.3302  152.1031 LP  0  0  0  0  0  0  0  0  0  0  0  0  # atno 17342 bound_to 10162
  139.5024  144.6735  151.6185 LP  0  0  0  0  0  0  0  0  0  0  0  0  # atno 17343 bound_to 10162
  157.6670  131.0869  150.7705 LP  0  0  0  0  0  0  0  0  0  0  0  0  # atno 17370 bound_to 10713
  156.7772  130.4847  149.5407 LP  0  0  0  0  0  0  0  0  0  0  0  0  # atno 17371 bound_to 10713
  140.1569  134.4778  155.7921 LP  0  0  0  0  0  0  0  0  0  0  0  0  # atno 17394 bound_to 11000
  141.2202  133.6885  156.7477 LP  0  0  0  0  0  0  0  0  0  0  0  0  # atno 17395 bound_to 11000

$$$$
