AV-unprocessed.smi:72|AV-procd|sdf|732|dock5
  -GOLD-   2262017 63D 1   1.00000     0.00000
 Structure written by MMmdl.
 28 29  0  0  0  0  0  0  0  0  2 V2000
  152.7853  139.6642  159.2115 N   0  0  0  0  0  0  0  0  0  0  0  0
  152.0502  139.6639  158.1869 C   0  0  0  0  0  0  0  0  0  0  0  0
  150.6166  139.7981  158.3261 N   0  0  0  0  0  0  0  0  0  0  0  0
  149.9012  139.8020  157.2436 C   0  0  0  0  0  0  0  0  0  0  0  0
  150.5036  139.6807  155.9217 N   0  0  0  0  0  0  0  0  0  0  0  0
  149.6733  139.6891  154.6478 C   0  0  1  0  0  0  0  0  0  0  0  0
  148.5677  138.8421  154.7906 O   0  0  0  0  0  0  0  0  0  0  0  0
  147.3719  139.6084  154.8782 C   0  0  2  0  0  0  0  0  0  0  0  0
  146.1442  138.7569  154.5099 C   0  0  0  0  0  0  0  0  0  0  0  0
  144.9558  139.4887  154.7235 O   0  0  0  0  0  0  0  0  0  0  0  0
  147.6628  140.8319  154.0004 C   0  0  2  0  0  0  0  0  0  0  0  0
  147.4542  140.5427  152.6303 O   0  0  0  0  0  0  0  0  0  0  0  0
  149.1389  141.0949  154.2708 C   0  0  1  0  0  0  0  0  0  0  0  0
  149.2702  142.0573  155.3032 O   0  0  0  0  0  0  0  0  0  0  0  0
  151.9139  139.5456  155.8169 C   0  0  0  0  0  0  0  0  0  0  0  0
  152.4043  139.4489  154.6916 O   0  0  0  0  0  0  0  0  0  0  0  0
  152.6581  139.5335  156.9581 N   0  5  0  0  0  0  0  0  0  0  0  0
  150.3132  139.2539  153.8786 H   0  0  0  0  0  0  0  0  0  0  0  0
  147.2713  139.9430  155.9120 H   0  0  0  0  0  0  0  0  0  0  0  0
  147.0294  141.6804  154.2632 H   0  0  0  0  0  0  0  0  0  0  0  0
  149.6641  141.4659  153.3896 H   0  0  0  0  0  0  0  0  0  0  0  0
  153.7648  139.5648  158.9888 H   0  0  0  0  0  0  0  0  0  0  0  0
  148.8158  139.8956  157.2620 H   0  0  0  0  0  0  0  0  0  0  0  0
  146.1866  138.4158  153.4754 H   0  0  0  0  0  0  0  0  0  0  0  0
  146.1138  137.8641  155.1350 H   0  0  0  0  0  0  0  0  0  0  0  0
  144.5705  139.6871  153.8834 H   0  0  0  0  0  0  0  0  0  0  0  0
  148.2968  140.4819  152.2073 H   0  0  0  0  0  0  0  0  0  0  0  0
  149.0610  142.9079  154.9491 H   0  0  0  0  0  0  0  0  0  0  0  0
  1  2  2  0  0  0  0
  1 22  1  0  0  0  0
  2 17  1  0  0  0  0
  2  3  1  0  0  0  0
  3  4  2  0  0  0  0
  4  5  1  0  0  0  0
  4 23  1  0  0  0  0
  5  6  1  0  0  0  0
  5 15  1  0  0  0  0
  6 18  1  0  0  0  0
  6 13  1  0  0  0  0
  6  7  1  0  0  0  0
  7  8  1  0  0  0  0
  8 19  1  0  0  0  0
  8  9  1  0  0  0  0
  8 11  1  0  0  0  0
  9 10  1  0  0  0  0
  9 24  1  0  0  0  0
  9 25  1  0  0  0  0
 10 26  1  0  0  0  0
 11 20  1  0  0  0  0
 11 12  1  0  0  0  0
 11 13  1  0  0  0  0
 12 27  1  0  0  0  0
 13 21  1  0  0  0  0
 13 14  1  0  0  0  0
 14 28  1  0  0  0  0
 15 16  2  0  0  0  0
 15 17  1  0  0  0  0
M  CHG  1  17  -1
M  END
> <s_m_source_file>
AV-unprocessed.smi

> <i_m_source_file_index>
72

> <i_lp_mmshare_version>
43012

> <i_f3d_flags>
0

> <s_epik_input>
W05IMl1jMW5bY0hdbihjKD1PKW4xKVtDQEBIXTJPW0NASF0oW0NIMl1bT0hdKVtDQEBIXShbT0hdKVtDQEhdMltPSF0=

> <s_epik_cmdline>
J2VwaWtfcHl0aG9uJywgJy1waCcsICc3LjAnLCAnLXRuJywgJzgnLCAnLW1hJywgJzIwMCcsICctbWV0YWxfYmluZGluZycsICctaW1hZScsICc8aW5maWxlLm1hZT4nLCAnLW9tYWUnLCAnPG91dGZpbGUubWFlPic=

> <r_lp_tautomer_probability>
7.17554e-07

> <r_epik_Ionization_Penalty>
12.8705

> <r_epik_Ionization_Penalty_Charging>
5.64144

> <r_epik_Ionization_Penalty_Neutral>
7.22905

> <r_epik_State_Penalty>
3.30104

> <r_epik_Charging_Adjusted_Penalty>
8.94249

> <i_epik_Tot_Q>
-1

> <i_epik_Tot_abs_Q>
1

> <r_epik_Metal_State_Penalty>
0.529074

> <b_epik_Metal_Only>
1

> <s_epik_Chemistry_Notes>
This compound contains an acetal/aminal-like group ( X-CH(R)-Y where X, Y are N, S, or O) that may be acid/base labile, releasing an aldehyde.

> <s_lp_Force_Field>
OPLS_2005

> <r_lp_Energy>
37.8021

> <b_lp_Chiralities_Consistent>
1

> <s_lp_Variant>
AV-unprocessed.smi:72-70

> <Gold.Version>
5.8.1

> <Gold.Id.Protein>
6NUR|6NUR_protein|mol2

> <Gold.PLP.Fitness>
38.1860

> <Gold.PLP.PLP>
-22.7850

> <Gold.PLP.part.hbond>
-5.0000

> <Gold.PLP.part.metal>
0.0000

> <Gold.PLP.part.buried>
-3.2995

> <Gold.PLP.part.nonpolar>
-14.2885

> <Gold.PLP.part.repulsive>
0.1523

> <Gold.PLP.ligand.clash>
0.0000

> <Gold.PLP.ligand.torsion>
0.3597

> <Gold.PLP.Chemscore.Hbond>
5.3600

> <Gold.PLP.Chemscore.CHOScore>
0.0000

> <Gold.PLP.Chemscore.Metal>
0.0000

> <Gold.Chemscore.Hbonds>
donor molecule, donor type, donor heavy atom, donor atom, acceptor molecule, acceptor atom, score
      L1  H    10    26       P1 10175  1.00
      L1  H    12    27       P1  7957  1.00
      L1  H    14    28       P1  8028  0.74
      P1  H  7989  7998       L1    16  0.69
      P1  H  7997  8009       L1    17  2.00

> <Gold.PLP.Chemscore.Internal.Correction>
0.0404

> <Gold.Rescore>
     Score         DG    S(hbond)    S(metal)    S(lipo)     H(rot)  DE(clash)    DE(int)     intcor
     11.34     -12.51       4.55        0.00      18.54       4.04       0.10       1.07       ----

> <Gold.Chemscore.Fitness>
11.3378

> <Gold.Chemscore.DG>
-12.5108

> <Gold.Chemscore.ZeroCoef>
-5.4800

> <Gold.Chemscore.Hbond>
4.5522

> <Gold.Chemscore.Metal>
0.0000

> <Gold.Chemscore.Lipo>
18.5443

> <Gold.Chemscore.Internal_Hbond>
0.0000

> <Gold.Chemscore.DEClash>
0.1025

> <Gold.Chemscore.DEInternal>
1.0704

> <Gold.Chemscore.Rot>
4.0403

> <Gold.Chemscore.Internal.Correction>
   9.000000E+99

> <Gold.Chemscore.Hbonds>
donor molecule, donor type, donor heavy atom, donor atom, acceptor molecule, acceptor atom, score
      L1  H    10    26       P1 10175  1.00
      L1  H    12    27       P1  7957  1.00
      L1  H    14    28       P1  8028  0.73
      P1  H  7989  7998       L1    16  0.53
      P1  H  7997  8009       L1    17  0.39

> <Gold.Chemscore.Hbond.Weighted>
-15.2042

> <Gold.Chemscore.Metal.Weighted>
-0.0000

> <Gold.Chemscore.Lipo.Weighted>
-2.1697

> <Gold.Chemscore.Internal_Hbond.Weighted>
0.0000

> <Gold.Chemscore.DEClash.Weighted>
0.1025

> <Gold.Chemscore.DEInternal.Weighted>
1.0704

> <Gold.Chemscore.Rot.Weighted>
10.3431

> <Gold.Chemscore.Internal.Correction.Weighted>
   9.000000E+99

> <Gold.Protein.RotatedTorsions>
[ 6907 6896 6895 6894 ] final -125.20 input  -60.11 | X-H torsion
[ 7974 7965 7964 7962 ] final  176.02 input  175.53 | X-H torsion
[ 8008 7997 7996 7995 ] final -163.90 input   59.86 | X-H torsion
[ 10167 10162 10161 10158 ] final  -22.52 input  -65.29 | X-H torsion
[ 10718 10713 10712 10709 ] final   80.65 input   66.30 | X-H torsion
[ 10763 10752 10751 10750 ] final  162.44 input  -60.55 | X-H torsion
[ 11005 11000 10999 10996 ] final -113.41 input  -57.11 | X-H torsion

> <Gold.Protein.ActiveResidues>
 VAL166  LYS551  ARG553  GLY616  TRP617  ASP618  TYR619  PRO620  LYS621  CYS622 
 ASP623  PHE694  ASN695  SER759  ASP760  ASP761  ALA762  ILE779  LEU786  VAL792 
 PHE793  MET794  SER795  GLU796  ALA797  LYS798  CYS799  TRP800  GLU811  SER814 

> <Gold.Protein.RotatedAtoms>
  150.8844  133.7328  159.2922 H   0  0  0  0  0  0  0  0  0  0  0  0  # atno 6907 bound_to 6896
  151.4899  135.1055  159.9810 H   0  0  0  0  0  0  0  0  0  0  0  0  # atno 6908 bound_to 6896
  152.4780  133.8139  159.7073 H   0  0  0  0  0  0  0  0  0  0  0  0  # atno 6909 bound_to 6896
  144.7191  140.0034  143.6440 H   0  0  0  0  0  0  0  0  0  0  0  0  # atno 7974 bound_to 7965
  155.8280  140.0929  157.1810 H   0  0  0  0  0  0  0  0  0  0  0  0  # atno 8008 bound_to 7997
  154.3979  140.1424  156.3640 H   0  0  0  0  0  0  0  0  0  0  0  0  # atno 8009 bound_to 7997
  155.8196  140.3447  155.5509 H   0  0  0  0  0  0  0  0  0  0  0  0  # atno 8010 bound_to 7997
  140.7286  143.4527  151.0493 H   0  0  0  0  0  0  0  0  0  0  0  0  # atno 10167 bound_to 10162
  157.6812  130.9969  150.2110 H   0  0  0  0  0  0  0  0  0  0  0  0  # atno 10718 bound_to 10713
  154.2784  135.2764  155.2708 H   0  0  0  0  0  0  0  0  0  0  0  0  # atno 10763 bound_to 10752
  154.5240  135.5748  153.6707 H   0  0  0  0  0  0  0  0  0  0  0  0  # atno 10764 bound_to 10752
  152.9933  135.6211  154.2942 H   0  0  0  0  0  0  0  0  0  0  0  0  # atno 10765 bound_to 10752
  141.0616  133.9526  157.2656 H   0  0  0  0  0  0  0  0  0  0  0  0  # atno 11005 bound_to 11000
  146.0317  139.3340  143.0751 LP  0  0  0  0  0  0  0  0  0  0  0  0  # atno 17320 bound_to 7965
  145.8445  140.9563  143.0782 LP  0  0  0  0  0  0  0  0  0  0  0  0  # atno 17321 bound_to 7965
  139.8204  143.7827  152.3176 LP  0  0  0  0  0  0  0  0  0  0  0  0  # atno 17342 bound_to 10162
  139.7908  144.7411  150.9958 LP  0  0  0  0  0  0  0  0  0  0  0  0  # atno 17343 bound_to 10162
  156.2781  130.3730  149.7963 LP  0  0  0  0  0  0  0  0  0  0  0  0  # atno 17370 bound_to 10713
  156.5660  130.8404  151.3342 LP  0  0  0  0  0  0  0  0  0  0  0  0  # atno 17371 bound_to 10713
  139.9438  135.0187  156.8789 LP  0  0  0  0  0  0  0  0  0  0  0  0  # atno 17394 bound_to 11000
  140.5857  134.0309  155.7480 LP  0  0  0  0  0  0  0  0  0  0  0  0  # atno 17395 bound_to 11000

$$$$
