AV-unprocessed.smi:1964|AV-procd|sdf|7931|dock9
  -GOLD-   2272010103D 1   1.00000     0.00000
 Structure written by MMmdl.
 46 48  0  0  0  0  0  0  0  0  1 V2000
  147.7927  132.6789  160.0984 C   0  0  0  0  0  0  0  0  0  0  0  0
  147.3082  134.0150  160.6909 C   0  0  1  0  0  0  0  0  0  0  0  0
  147.1587  133.9096  162.2221 C   0  0  0  0  0  0  0  0  0  0  0  0
  146.6580  135.2238  162.8405 C   0  0  0  0  0  0  0  0  0  0  0  0
  147.5781  136.3947  162.4688 C   0  0  0  0  0  0  0  0  0  0  0  0
  147.7237  136.5182  160.9453 C   0  0  0  0  0  0  0  0  0  0  0  0
  148.2296  135.2027  160.3166 C   0  0  2  0  0  0  0  0  0  0  0  0
  148.3085  135.3385  158.8658 N   0  0  0  0  0  0  0  0  0  0  0  0
  149.2937  135.9436  158.1812 C   0  0  0  0  0  0  0  0  0  0  0  0
  150.2484  136.4920  158.7300 O   0  0  0  0  0  0  0  0  0  0  0  0
  149.2178  135.9327  156.6439 C   0  0  0  0  0  0  0  0  0  0  0  0
  149.6145  137.2047  155.9953 N   0  0  0  0  0  0  0  0  0  0  0  0
  150.9765  137.3891  155.6441 C   0  0  0  0  0  0  0  0  0  0  0  0
  151.8126  136.5108  155.8611 O   0  0  0  0  0  0  0  0  0  0  0  0
  151.2966  138.6680  155.0147 C   0  0  0  0  0  0  0  0  0  0  0  0
  152.6637  138.9105  154.6914 C   0  0  0  0  0  0  0  0  0  0  0  0
  153.7787  139.1081  154.4529 N   0  0  0  0  0  0  0  0  0  0  0  0
  150.3327  139.5752  154.7555 C   0  0  0  0  0  0  0  0  0  0  0  0
  149.0055  139.3498  155.0490 N   0  0  0  0  0  0  0  0  0  0  0  0
  148.0152  140.3754  154.8815 C   0  0  0  0  0  0  0  0  0  0  0  0
  147.5329  140.7473  153.4927 C   0  0  0  0  0  0  0  0  0  0  0  0
  148.4215  141.6944  154.2606 C   0  0  0  0  0  0  0  0  0  0  0  0
  148.6171  138.1735  155.7258 C   0  0  0  0  0  0  0  0  0  0  0  0
  147.4460  137.9898  156.0663 O   0  0  0  0  0  0  0  0  0  0  0  0
  148.7967  132.4338  160.4457 H   0  0  0  0  0  0  0  0  0  0  0  0
  147.8140  132.7029  159.0087 H   0  0  0  0  0  0  0  0  0  0  0  0
  147.1327  131.8610  160.3887 H   0  0  0  0  0  0  0  0  0  0  0  0
  146.3179  134.2128  160.2770 H   0  0  0  0  0  0  0  0  0  0  0  0
  146.4676  133.1050  162.4752 H   0  0  0  0  0  0  0  0  0  0  0  0
  148.1182  133.6423  162.6674 H   0  0  0  0  0  0  0  0  0  0  0  0
  145.6446  135.4297  162.4941 H   0  0  0  0  0  0  0  0  0  0  0  0
  146.6006  135.1264  163.9250 H   0  0  0  0  0  0  0  0  0  0  0  0
  147.1842  137.3239  162.8814 H   0  0  0  0  0  0  0  0  0  0  0  0
  148.5605  136.2468  162.9193 H   0  0  0  0  0  0  0  0  0  0  0  0
  146.7603  136.7888  160.5103 H   0  0  0  0  0  0  0  0  0  0  0  0
  148.4066  137.3362  160.7130 H   0  0  0  0  0  0  0  0  0  0  0  0
  149.2291  134.9920  160.7025 H   0  0  0  0  0  0  0  0  0  0  0  0
  147.5594  134.9199  158.3341 H   0  0  0  0  0  0  0  0  0  0  0  0
  149.8270  135.1028  156.2830 H   0  0  0  0  0  0  0  0  0  0  0  0
  148.2035  135.6516  156.3563 H   0  0  0  0  0  0  0  0  0  0  0  0
  150.6075  140.5111  154.2905 H   0  0  0  0  0  0  0  0  0  0  0  0
  147.2703  140.4347  155.6732 H   0  0  0  0  0  0  0  0  0  0  0  0
  147.9741  140.2345  152.6398 H   0  0  0  0  0  0  0  0  0  0  0  0
  146.4845  141.0165  153.3823 H   0  0  0  0  0  0  0  0  0  0  0  0
  147.9660  142.5982  154.6602 H   0  0  0  0  0  0  0  0  0  0  0  0
  149.4473  141.8049  153.9138 H   0  0  0  0  0  0  0  0  0  0  0  0
  1  2  1  0  0  0  0
  1 25  1  0  0  0  0
  1 26  1  0  0  0  0
  1 27  1  0  0  0  0
  2  7  1  0  0  0  0
  2  3  1  0  0  0  0
  2 28  1  0  0  0  0
  3  4  1  0  0  0  0
  3 29  1  0  0  0  0
  3 30  1  0  0  0  0
  4  5  1  0  0  0  0
  4 31  1  0  0  0  0
  4 32  1  0  0  0  0
  5  6  1  0  0  0  0
  5 33  1  0  0  0  0
  5 34  1  0  0  0  0
  6  7  1  0  0  0  0
  6 35  1  0  0  0  0
  6 36  1  0  0  0  0
  7  8  1  0  0  0  0
  7 37  1  0  0  0  0
  8  9  1  0  0  0  0
  8 38  1  0  0  0  0
  9 10  2  0  0  0  0
  9 11  1  0  0  0  0
 11 12  1  0  0  0  0
 11 39  1  0  0  0  0
 11 40  1  0  0  0  0
 12 23  1  0  0  0  0
 12 13  1  0  0  0  0
 13 14  2  0  0  0  0
 13 15  1  0  0  0  0
 15 16  1  0  0  0  0
 15 18  2  0  0  0  0
 16 17  3  0  0  0  0
 18 19  1  0  0  0  0
 18 41  1  0  0  0  0
 19 20  1  0  0  0  0
 19 23  1  0  0  0  0
 20 22  1  0  0  0  0
 20 21  1  0  0  0  0
 20 42  1  0  0  0  0
 21 22  1  0  0  0  0
 21 43  1  0  0  0  0
 21 44  1  0  0  0  0
 22 45  1  0  0  0  0
 22 46  1  0  0  0  0
 23 24  2  0  0  0  0
M  END
> <s_m_source_file>
AV-unprocessed.smi

> <i_m_source_file_index>
1964

> <i_lp_mmshare_version>
43012

> <i_f3d_flags>
0

> <s_epik_input>
W0NIM11bQ0BASF0xW0NIMl1bQ0gyXVtDSDJdW0NIMl1bQ0BIXTFbTkhdQyg9TylbQ0gyXW4yYyg9TyljKEMjTilbY0hdbihjMj1PKVtDSF0zW0NIMl1bQ0gyXTM=

> <s_epik_cmdline>
J2VwaWtfcHl0aG9uJywgJy1waCcsICc3LjAnLCAnLXRuJywgJzgnLCAnLW1hJywgJzIwMCcsICctbWV0YWxfYmluZGluZycsICctaW1hZScsICc8aW5maWxlLm1hZT4nLCAnLW9tYWUnLCAnPG91dGZpbGUubWFlPic=

> <r_lp_tautomer_probability>
1

> <r_epik_Ionization_Penalty>
1.91372e-08

> <r_epik_Ionization_Penalty_Charging>
9.0283e-11

> <r_epik_Ionization_Penalty_Neutral>
1.90469e-08

> <r_epik_State_Penalty>
-0

> <r_epik_Charging_Adjusted_Penalty>
9.0283e-11

> <i_epik_Tot_Q>
0

> <i_epik_Tot_abs_Q>
0

> <r_epik_Metal_State_Penalty>
-0

> <b_epik_Metal_Only>
0

> <s_lp_Force_Field>
OPLS_2005

> <r_lp_Energy>
35.2183

> <b_lp_Chiralities_Consistent>
1

> <s_lp_Variant>
AV-unprocessed.smi:1964-4

> <Gold.Version>
5.8.1

> <Gold.Id.Protein>
6NUR|6NUR_protein|mol2

> <Gold.PLP.Fitness>
48.4647

> <Gold.PLP.PLP>
-41.4105

> <Gold.PLP.part.hbond>
-3.0000

> <Gold.PLP.part.metal>
0.0000

> <Gold.PLP.part.buried>
-2.4318

> <Gold.PLP.part.nonpolar>
-35.3409

> <Gold.PLP.part.repulsive>
0.1355

> <Gold.PLP.ligand.clash>
0.0000

> <Gold.PLP.ligand.torsion>
1.0694

> <Gold.PLP.Chemscore.Hbond>
3.0000

> <Gold.PLP.Chemscore.CHOScore>
0.0000

> <Gold.PLP.Chemscore.Metal>
0.0000

> <Gold.Chemscore.Hbonds>
donor molecule, donor type, donor heavy atom, donor atom, acceptor molecule, acceptor atom, score
      P1  H  6896  6907       L1    10  1.00
      P1  H  7997  8009       L1    17  1.00
      P1  H 10752 10765       L1    14  1.00

> <Gold.PLP.Chemscore.Internal.Correction>
0.1930

> <Gold.Rescore>
     Score         DG    S(hbond)    S(metal)    S(lipo)     H(rot)  DE(clash)    DE(int)     intcor
     19.81     -20.64       2.91        0.00      83.83       1.70       0.03       0.79       ----

> <Gold.Chemscore.Fitness>
19.8095

> <Gold.Chemscore.DG>
-20.6354

> <Gold.Chemscore.ZeroCoef>
-5.4800

> <Gold.Chemscore.Hbond>
2.9068

> <Gold.Chemscore.Metal>
0.0000

> <Gold.Chemscore.Lipo>
83.8320

> <Gold.Chemscore.Internal_Hbond>
0.0000

> <Gold.Chemscore.DEClash>
0.0339

> <Gold.Chemscore.DEInternal>
0.7921

> <Gold.Chemscore.Rot>
1.7038

> <Gold.Chemscore.Internal.Correction>
   9.000000E+99

> <Gold.Chemscore.Hbonds>
donor molecule, donor type, donor heavy atom, donor atom, acceptor molecule, acceptor atom, score
      P1  H  6896  6907       L1    10  0.34
      P1  H  7997  8009       L1    17  0.96
      P1  H 10752 10765       L1    14  0.98

> <Gold.Chemscore.Hbond.Weighted>
-9.7089

> <Gold.Chemscore.Metal.Weighted>
-0.0000

> <Gold.Chemscore.Lipo.Weighted>
-9.8083

> <Gold.Chemscore.Internal_Hbond.Weighted>
0.0000

> <Gold.Chemscore.DEClash.Weighted>
0.0339

> <Gold.Chemscore.DEInternal.Weighted>
0.7921

> <Gold.Chemscore.Rot.Weighted>
4.3618

> <Gold.Chemscore.Internal.Correction.Weighted>
   9.000000E+99

> <Gold.Protein.RotatedTorsions>
[ 6907 6896 6895 6894 ] final  -35.11 input  -60.11 | X-H torsion
[ 7974 7965 7964 7962 ] final  -82.68 input  175.53 | X-H torsion
[ 8008 7997 7996 7995 ] final -108.35 input   59.86 | X-H torsion
[ 10167 10162 10161 10158 ] final -147.33 input  -65.29 | X-H torsion
[ 10718 10713 10712 10709 ] final -132.42 input   66.30 | X-H torsion
[ 10763 10752 10751 10750 ] final -145.71 input  -60.55 | X-H torsion
[ 11005 11000 10999 10996 ] final   -6.59 input  -57.11 | X-H torsion

> <Gold.Protein.ActiveResidues>
 VAL166  LYS551  ARG553  GLY616  TRP617  ASP618  TYR619  PRO620  LYS621  CYS622 
 ASP623  PHE694  ASN695  SER759  ASP760  ASP761  ALA762  ILE779  LEU786  VAL792 
 PHE793  MET794  SER795  GLU796  ALA797  LYS798  CYS799  TRP800  GLU811  SER814 

> <Gold.Protein.RotatedAtoms>
  151.0440  134.9627  159.8176 H   0  0  0  0  0  0  0  0  0  0  0  0  # atno 6907 bound_to 6896
  152.5369  134.2622  159.8949 H   0  0  0  0  0  0  0  0  0  0  0  0  # atno 6908 bound_to 6896
  151.2635  133.4247  159.2651 H   0  0  0  0  0  0  0  0  0  0  0  0  # atno 6909 bound_to 6896
  145.5301  140.9522  143.1608 H   0  0  0  0  0  0  0  0  0  0  0  0  # atno 7974 bound_to 7965
  154.9430  140.0402  157.2106 H   0  0  0  0  0  0  0  0  0  0  0  0  # atno 8008 bound_to 7997
  154.8051  140.2858  155.5872 H   0  0  0  0  0  0  0  0  0  0  0  0  # atno 8009 bound_to 7997
  156.2965  140.2548  156.2927 H   0  0  0  0  0  0  0  0  0  0  0  0  # atno 8010 bound_to 7997
  139.7632  143.8346  152.2611 H   0  0  0  0  0  0  0  0  0  0  0  0  # atno 10167 bound_to 10162
  156.2344  130.7057  151.0892 H   0  0  0  0  0  0  0  0  0  0  0  0  # atno 10718 bound_to 10713
  154.8370  135.3406  154.6547 H   0  0  0  0  0  0  0  0  0  0  0  0  # atno 10763 bound_to 10752
  153.7161  135.6961  153.5029 H   0  0  0  0  0  0  0  0  0  0  0  0  # atno 10764 bound_to 10752
  153.2416  135.4383  155.0657 H   0  0  0  0  0  0  0  0  0  0  0  0  # atno 10765 bound_to 10752
  140.7036  133.8969  155.8700 H   0  0  0  0  0  0  0  0  0  0  0  0  # atno 11005 bound_to 11000
  144.7630  139.6910  143.7226 LP  0  0  0  0  0  0  0  0  0  0  0  0  # atno 17320 bound_to 7965
  146.2050  139.5368  142.9718 LP  0  0  0  0  0  0  0  0  0  0  0  0  # atno 17321 bound_to 7965
  139.8359  144.7232  150.9392 LP  0  0  0  0  0  0  0  0  0  0  0  0  # atno 17342 bound_to 10162
  140.7809  143.4027  151.1121 LP  0  0  0  0  0  0  0  0  0  0  0  0  # atno 17343 bound_to 10162
  157.7147  131.0716  150.6370 LP  0  0  0  0  0  0  0  0  0  0  0  0  # atno 17370 bound_to 10713
  156.6439  130.4466  149.5742 LP  0  0  0  0  0  0  0  0  0  0  0  0  # atno 17371 bound_to 10713
  141.0143  134.0977  157.4188 LP  0  0  0  0  0  0  0  0  0  0  0  0  # atno 17394 bound_to 11000
  139.8890  135.0102  156.6654 LP  0  0  0  0  0  0  0  0  0  0  0  0  # atno 17395 bound_to 11000

$$$$
