AV-unprocessed.smi:2241|AV-procd|sdf|9058|dock1
  -GOLD-   2272012263D 1   1.00000     0.00000
 Structure written by MMmdl.
 45 47  0  0  0  0  0  0  0  0  1 V2000
  151.4762  145.1421  159.0724 C   0  0  0  0  0  0  0  0  0  0  0  0
  151.7022  143.6602  158.8525 C   0  0  0  0  0  0  0  0  0  0  0  0
  152.3997  142.8992  159.8108 C   0  0  0  0  0  0  0  0  0  0  0  0
  152.6052  141.5237  159.6005 C   0  0  0  0  0  0  0  0  0  0  0  0
  152.1148  140.9043  158.4346 C   0  0  0  0  0  0  0  0  0  0  0  0
  152.3816  139.2134  158.2027 Cl  0  0  0  0  0  0  0  0  0  0  0  0
  151.4111  141.6525  157.4648 C   0  0  0  0  0  0  0  0  0  0  0  0
  150.9592  140.9782  156.3491 O   0  0  0  0  0  0  0  0  0  0  0  0
  149.9892  141.6079  155.5236 C   0  0  0  0  0  0  0  0  0  0  0  0
  149.2762  140.5281  154.6900 C   0  0  2  0  0  0  0  0  0  0  0  0
  150.2491  139.8453  153.9268 O   0  0  0  0  0  0  0  0  0  0  0  0
  148.2322  141.0922  153.6978 C   0  0  0  0  0  0  0  0  0  0  0  0
  147.0946  141.7493  154.3661 N   0  0  0  0  0  0  0  0  0  0  0  0
  146.6515  142.9676  153.8142 C   0  0  0  0  0  0  0  0  0  0  0  0
  145.6669  143.6322  154.3295 N   0  0  0  0  0  0  0  0  0  0  0  0
  145.0112  143.1381  155.4630 C   0  0  0  0  0  0  0  0  0  0  0  0
  143.8872  143.9804  156.0505 C   0  0  0  0  0  0  0  0  0  0  0  0
  143.6977  145.3807  155.4425 C   0  0  0  0  0  0  0  0  0  0  0  0
  143.4034  145.8851  156.8597 C   0  0  0  0  0  0  0  0  0  0  0  0
  144.2008  144.6843  157.3810 C   0  0  0  0  0  0  0  0  0  0  0  0
  145.3945  141.9666  156.0241 C   0  0  0  0  0  0  0  0  0  0  0  0
  146.4956  141.1884  155.4571 C   0  0  0  0  0  0  0  0  0  0  0  0
  146.8576  140.1112  155.9307 O   0  0  0  0  0  0  0  0  0  0  0  0
  151.2089  143.0392  157.6867 C   0  0  0  0  0  0  0  0  0  0  0  0
  152.1676  145.5408  159.8156 H   0  0  0  0  0  0  0  0  0  0  0  0
  150.4584  145.3197  159.4202 H   0  0  0  0  0  0  0  0  0  0  0  0
  151.6239  145.6949  158.1443 H   0  0  0  0  0  0  0  0  0  0  0  0
  152.7788  143.3660  160.7082 H   0  0  0  0  0  0  0  0  0  0  0  0
  153.1406  140.9423  160.3367 H   0  0  0  0  0  0  0  0  0  0  0  0
  149.2725  142.1064  156.1758 H   0  0  0  0  0  0  0  0  0  0  0  0
  150.4366  142.3650  154.8771 H   0  0  0  0  0  0  0  0  0  0  0  0
  148.7990  139.8069  155.3543 H   0  0  0  0  0  0  0  0  0  0  0  0
  149.8912  139.6793  153.0678 H   0  0  0  0  0  0  0  0  0  0  0  0
  148.7264  141.7624  152.9913 H   0  0  0  0  0  0  0  0  0  0  0  0
  147.8439  140.2804  153.0792 H   0  0  0  0  0  0  0  0  0  0  0  0
  147.1965  143.3118  152.9336 H   0  0  0  0  0  0  0  0  0  0  0  0
  142.9478  143.4263  156.0954 H   0  0  0  0  0  0  0  0  0  0  0  0
  144.6147  145.8090  155.0332 H   0  0  0  0  0  0  0  0  0  0  0  0
  142.8651  145.4665  154.7438 H   0  0  0  0  0  0  0  0  0  0  0  0
  143.8336  146.8585  157.0982 H   0  0  0  0  0  0  0  0  0  0  0  0
  142.3440  145.8347  157.1168 H   0  0  0  0  0  0  0  0  0  0  0  0
  143.7783  144.2030  158.2635 H   0  0  0  0  0  0  0  0  0  0  0  0
  145.2599  144.9143  157.5135 H   0  0  0  0  0  0  0  0  0  0  0  0
  144.8880  141.5950  156.9031 H   0  0  0  0  0  0  0  0  0  0  0  0
  150.6765  143.6499  156.9735 H   0  0  0  0  0  0  0  0  0  0  0  0
  1  2  1  0  0  0  0
  1 25  1  0  0  0  0
  1 26  1  0  0  0  0
  1 27  1  0  0  0  0
  2 24  1  0  0  0  0
  2  3  2  0  0  0  0
  3  4  1  0  0  0  0
  3 28  1  0  0  0  0
  4  5  2  0  0  0  0
  4 29  1  0  0  0  0
  5  6  1  0  0  0  0
  5  7  1  0  0  0  0
  7  8  1  0  0  0  0
  7 24  2  0  0  0  0
  8  9  1  0  0  0  0
  9 10  1  0  0  0  0
  9 30  1  0  0  0  0
  9 31  1  0  0  0  0
 10 11  1  0  0  0  0
 10 12  1  0  0  0  0
 10 32  1  0  0  0  0
 11 33  1  0  0  0  0
 12 13  1  0  0  0  0
 12 34  1  0  0  0  0
 12 35  1  0  0  0  0
 13 22  1  0  0  0  0
 13 14  1  0  0  0  0
 14 15  2  0  0  0  0
 14 36  1  0  0  0  0
 15 16  1  0  0  0  0
 16 17  1  0  0  0  0
 16 21  2  0  0  0  0
 17 20  1  0  0  0  0
 17 18  1  0  0  0  0
 17 37  1  0  0  0  0
 18 19  1  0  0  0  0
 18 38  1  0  0  0  0
 18 39  1  0  0  0  0
 19 20  1  0  0  0  0
 19 40  1  0  0  0  0
 19 41  1  0  0  0  0
 20 42  1  0  0  0  0
 20 43  1  0  0  0  0
 21 22  1  0  0  0  0
 21 44  1  0  0  0  0
 22 23  2  0  0  0  0
 24 45  1  0  0  0  0
M  END
> <s_m_source_file>
AV-unprocessed.smi

> <i_m_source_file_index>
2241

> <i_lp_mmshare_version>
43012

> <i_f3d_flags>
0

> <s_epik_input>
W0NIM11jMVtjSF1bY0hdYyhDbCljKFtjSF0xKU9bQ0gyXVtDQEhdKFtPSF0pW0NIMl1uMltjSF1uYyhbY0hdYzI9TylbQ0hdM1tDSDJdW0NIMl1bQ0gyXTM=

> <s_epik_cmdline>
J2VwaWtfcHl0aG9uJywgJy1waCcsICc3LjAnLCAnLXRuJywgJzgnLCAnLW1hJywgJzIwMCcsICctbWV0YWxfYmluZGluZycsICctaW1hZScsICc8aW5maWxlLm1hZT4nLCAnLW9tYWUnLCAnPG91dGZpbGUubWFlPic=

> <r_lp_tautomer_probability>
1

> <r_epik_Ionization_Penalty>
1.78212e-05

> <r_epik_Ionization_Penalty_Charging>
5.61663e-08

> <r_epik_Ionization_Penalty_Neutral>
1.7765e-05

> <r_epik_State_Penalty>
-0

> <r_epik_Charging_Adjusted_Penalty>
5.61663e-08

> <i_epik_Tot_Q>
0

> <i_epik_Tot_abs_Q>
0

> <r_epik_Metal_State_Penalty>
-0

> <b_epik_Metal_Only>
0

> <s_lp_Force_Field>
OPLS_2005

> <r_lp_Energy>
31.1581

> <b_lp_Chiralities_Consistent>
1

> <s_lp_Variant>
AV-unprocessed.smi:2241-1

> <Gold.Version>
5.8.1

> <Gold.Id.Protein>
6NUR|6NUR_protein|mol2

> <Gold.PLP.Fitness>
53.6994

> <Gold.PLP.PLP>
-48.5073

> <Gold.PLP.part.hbond>
-2.0000

> <Gold.PLP.part.metal>
0.0000

> <Gold.PLP.part.buried>
-5.9215

> <Gold.PLP.part.nonpolar>
-40.7316

> <Gold.PLP.part.repulsive>
0.2584

> <Gold.PLP.ligand.clash>
0.0000

> <Gold.PLP.ligand.torsion>
0.7032

> <Gold.PLP.Chemscore.Hbond>
2.0000

> <Gold.PLP.Chemscore.CHOScore>
0.0000

> <Gold.PLP.Chemscore.Metal>
0.0000

> <Gold.Chemscore.Hbonds>
donor molecule, donor type, donor heavy atom, donor atom, acceptor molecule, acceptor atom, score
      L1  H    11    33       P1  7957  1.00
      P1  H  7989  7998       L1    11  0.94

> <Gold.PLP.Chemscore.Internal.Correction>
0.5985

> <Gold.Rescore>
     Score         DG    S(hbond)    S(metal)    S(lipo)     H(rot)  DE(clash)    DE(int)     intcor
     16.11     -18.67       1.48        0.00     122.61       2.38       0.23       2.34       ----

> <Gold.Chemscore.Fitness>
16.1129

> <Gold.Chemscore.DG>
-18.6743

> <Gold.Chemscore.ZeroCoef>
-5.4800

> <Gold.Chemscore.Hbond>
1.4797

> <Gold.Chemscore.Metal>
0.0000

> <Gold.Chemscore.Lipo>
122.6092

> <Gold.Chemscore.Internal_Hbond>
0.0000

> <Gold.Chemscore.DEClash>
0.2252

> <Gold.Chemscore.DEInternal>
2.3362

> <Gold.Chemscore.Rot>
2.3801

> <Gold.Chemscore.Internal.Correction>
   9.000000E+99

> <Gold.Chemscore.Hbonds>
donor molecule, donor type, donor heavy atom, donor atom, acceptor molecule, acceptor atom, score
      L1  H    11    33       P1  7957  0.97
      P1  H  7989  7998       L1    11  0.17

> <Gold.Chemscore.Hbond.Weighted>
-4.9421

> <Gold.Chemscore.Metal.Weighted>
-0.0000

> <Gold.Chemscore.Lipo.Weighted>
-14.3453

> <Gold.Chemscore.Internal_Hbond.Weighted>
0.0000

> <Gold.Chemscore.DEClash.Weighted>
0.2252

> <Gold.Chemscore.DEInternal.Weighted>
2.3362

> <Gold.Chemscore.Rot.Weighted>
6.0931

> <Gold.Chemscore.Internal.Correction.Weighted>
   9.000000E+99

> <Gold.Protein.RotatedTorsions>
[ 6907 6896 6895 6894 ] final  -28.46 input  -60.11 | X-H torsion
[ 7974 7965 7964 7962 ] final  -16.87 input  175.53 | X-H torsion
[ 8008 7997 7996 7995 ] final  179.40 input   59.86 | X-H torsion
[ 10167 10162 10161 10158 ] final  125.09 input  -65.29 | X-H torsion
[ 10718 10713 10712 10709 ] final  -36.47 input   66.30 | X-H torsion
[ 10763 10752 10751 10750 ] final   77.06 input  -60.55 | X-H torsion
[ 11005 11000 10999 10996 ] final  104.12 input  -57.11 | X-H torsion

> <Gold.Protein.ActiveResidues>
 VAL166  LYS551  ARG553  GLY616  TRP617  ASP618  TYR619  PRO620  LYS621  CYS622 
 ASP623  PHE694  ASN695  SER759  ASP760  ASP761  ALA762  ILE779  LEU786  VAL792 
 PHE793  MET794  SER795  GLU796  ALA797  LYS798  CYS799  TRP800  GLU811  SER814 

> <Gold.Protein.RotatedAtoms>
  151.1327  135.0138  159.8589 H   0  0  0  0  0  0  0  0  0  0  0  0  # atno 6907 bound_to 6896
  152.5451  134.1592  159.8561 H   0  0  0  0  0  0  0  0  0  0  0  0  # atno 6908 bound_to 6896
  151.1660  133.4769  159.2627 H   0  0  0  0  0  0  0  0  0  0  0  0  # atno 6909 bound_to 6896
  146.1968  140.3698  142.8438 H   0  0  0  0  0  0  0  0  0  0  0  0  # atno 7974 bound_to 7965
  156.0439  140.1309  157.0126 H   0  0  0  0  0  0  0  0  0  0  0  0  # atno 8008 bound_to 7997
  154.4403  140.1024  156.6347 H   0  0  0  0  0  0  0  0  0  0  0  0  # atno 8009 bound_to 7997
  155.5626  140.3465  155.4497 H   0  0  0  0  0  0  0  0  0  0  0  0  # atno 8010 bound_to 7997
  139.5705  144.6936  151.3793 H   0  0  0  0  0  0  0  0  0  0  0  0  # atno 10167 bound_to 10162
  156.3265  130.4273  149.7912 H   0  0  0  0  0  0  0  0  0  0  0  0  # atno 10718 bound_to 10713
  153.0771  135.4928  154.8426 H   0  0  0  0  0  0  0  0  0  0  0  0  # atno 10763 bound_to 10752
  154.7102  135.3018  154.9212 H   0  0  0  0  0  0  0  0  0  0  0  0  # atno 10764 bound_to 10752
  153.9908  135.6778  153.4807 H   0  0  0  0  0  0  0  0  0  0  0  0  # atno 10765 bound_to 10752
  139.8789  134.9288  156.5313 H   0  0  0  0  0  0  0  0  0  0  0  0  # atno 11005 bound_to 11000
  144.8597  140.7121  143.6115 LP  0  0  0  0  0  0  0  0  0  0  0  0  # atno 17320 bound_to 7965
  145.3618  139.1680  143.4379 LP  0  0  0  0  0  0  0  0  0  0  0  0  # atno 17321 bound_to 7965
  140.6989  143.7681  150.7371 LP  0  0  0  0  0  0  0  0  0  0  0  0  # atno 17342 bound_to 10162
  140.1185  143.4633  152.2327 LP  0  0  0  0  0  0  0  0  0  0  0  0  # atno 17343 bound_to 10162
  156.5200  130.8211  151.3200 LP  0  0  0  0  0  0  0  0  0  0  0  0  # atno 17370 bound_to 10713
  157.7422  130.9886  150.2500 LP  0  0  0  0  0  0  0  0  0  0  0  0  # atno 17371 bound_to 10713
  140.8379  133.8228  155.9046 LP  0  0  0  0  0  0  0  0  0  0  0  0  # atno 17394 bound_to 11000
  140.9266  134.2075  157.4892 LP  0  0  0  0  0  0  0  0  0  0  0  0  # atno 17395 bound_to 11000

$$$$
