AV-unprocessed.smi:1417|AV-procd|sdf|5768|dock8
  -GOLD-   22720 5413D 1   1.00000     0.00000
 Structure written by MMmdl.
 38 39  0  0  0  0  0  0  0  0  2 V2000
  154.1642  140.8464  161.2118 C   0  0  0  0  0  0  0  0  0  0  0  0
  153.3842  140.9924  159.9500 C   0  0  0  0  0  0  0  0  0  0  0  0
  152.4909  141.9301  159.5157 C   0  0  0  0  0  0  0  0  0  0  0  0
  152.1214  141.4555  158.2275 C   0  0  0  0  0  0  0  0  0  0  0  0
  151.2618  142.0493  157.3852 N   0  5  0  0  0  0  0  0  0  0  0  0
  150.9142  141.4419  156.2270 C   0  0  0  0  0  0  0  0  0  0  0  0
  151.5382  140.5434  155.6573 O   0  0  0  0  0  0  0  0  0  0  0  0
  149.7718  141.9032  155.6968 N   0  0  0  0  0  0  0  0  0  0  0  0
  149.1488  141.4364  154.4609 C   0  0  0  0  0  0  0  0  0  0  0  0
  147.7198  141.9849  154.3229 C   0  0  0  0  0  0  0  0  0  0  0  0
  147.0125  141.3944  153.0897 C   0  0  0  0  0  0  0  0  0  0  0  0
  146.9822  139.9251  153.1589 N   0  0  0  0  0  0  0  0  0  0  0  0
  146.2629  139.3210  152.0137 C   0  0  0  0  0  0  0  0  0  0  0  0
  146.4399  137.8049  151.8746 C   0  0  0  0  0  0  0  0  0  0  0  0
  146.4216  137.0858  152.9998 N   0  0  0  0  0  0  0  0  0  0  0  0
  146.5973  137.2932  150.7683 O   0  0  0  0  0  0  0  0  0  0  0  0
  148.3477  139.3911  153.2029 C   0  0  0  0  0  0  0  0  0  0  0  0
  149.0934  139.9033  154.4472 C   0  0  0  0  0  0  0  0  0  0  0  0
  152.7498  140.3382  157.9013 N   0  0  0  0  0  0  0  0  0  0  0  0
  153.5564  140.0307  159.0037 O   0  0  0  0  0  0  0  0  0  0  0  0
  154.8352  141.6942  161.3500 H   0  0  0  0  0  0  0  0  0  0  0  0
  154.7663  139.9375  161.1998 H   0  0  0  0  0  0  0  0  0  0  0  0
  153.4976  140.7981  162.0728 H   0  0  0  0  0  0  0  0  0  0  0  0
  152.1509  142.8122  160.0369 H   0  0  0  0  0  0  0  0  0  0  0  0
  149.2968  142.6411  156.1960 H   0  0  0  0  0  0  0  0  0  0  0  0
  149.7440  141.7647  153.6065 H   0  0  0  0  0  0  0  0  0  0  0  0
  147.1429  141.7505  155.2189 H   0  0  0  0  0  0  0  0  0  0  0  0
  147.7413  143.0726  154.2464 H   0  0  0  0  0  0  0  0  0  0  0  0
  146.0031  141.8037  153.0529 H   0  0  0  0  0  0  0  0  0  0  0  0
  147.5162  141.7170  152.1768 H   0  0  0  0  0  0  0  0  0  0  0  0
  145.1976  139.5488  152.0865 H   0  0  0  0  0  0  0  0  0  0  0  0
  146.6120  139.7737  151.0845 H   0  0  0  0  0  0  0  0  0  0  0  0
  146.5431  136.0844  152.9565 H   0  0  0  0  0  0  0  0  0  0  0  0
  146.2950  137.5472  153.8889 H   0  0  0  0  0  0  0  0  0  0  0  0
  148.3178  138.3013  153.2362 H   0  0  0  0  0  0  0  0  0  0  0  0
  148.8928  139.6656  152.2979 H   0  0  0  0  0  0  0  0  0  0  0  0
  150.1039  139.4933  154.4654 H   0  0  0  0  0  0  0  0  0  0  0  0
  148.5947  139.5378  155.3466 H   0  0  0  0  0  0  0  0  0  0  0  0
  1  2  1  0  0  0  0
  1 21  1  0  0  0  0
  1 22  1  0  0  0  0
  1 23  1  0  0  0  0
  2 20  1  0  0  0  0
  2  3  2  0  0  0  0
  3  4  1  0  0  0  0
  3 24  1  0  0  0  0
  4  5  1  0  0  0  0
  4 19  2  0  0  0  0
  5  6  1  0  0  0  0
  6  7  2  0  0  0  0
  6  8  1  0  0  0  0
  8  9  1  0  0  0  0
  8 25  1  0  0  0  0
  9 18  1  0  0  0  0
  9 10  1  0  0  0  0
  9 26  1  0  0  0  0
 10 11  1  0  0  0  0
 10 27  1  0  0  0  0
 10 28  1  0  0  0  0
 11 12  1  0  0  0  0
 11 29  1  0  0  0  0
 11 30  1  0  0  0  0
 12 13  1  0  0  0  0
 12 17  1  0  0  0  0
 13 14  1  0  0  0  0
 13 31  1  0  0  0  0
 13 32  1  0  0  0  0
 14 15  1  0  0  0  0
 14 16  2  0  0  0  0
 15 33  1  0  0  0  0
 15 34  1  0  0  0  0
 17 18  1  0  0  0  0
 17 35  1  0  0  0  0
 17 36  1  0  0  0  0
 18 37  1  0  0  0  0
 18 38  1  0  0  0  0
 19 20  1  0  0  0  0
M  CHG  1   5  -1
M  END
> <s_m_source_file>
AV-unprocessed.smi

> <i_m_source_file_index>
1417

> <i_lp_mmshare_version>
43012

> <i_f3d_flags>
0

> <s_epik_input>
W0NIM11jMVtjSF1jKG5vMSlbTkhdQyg9TylbTkhdW0NIXTJbQ0gyXVtDSDJdTihbQ0gyXVtDSDJdMilbQ0gyXUMoPU8pW05IMl0=

> <s_epik_cmdline>
J2VwaWtfcHl0aG9uJywgJy1waCcsICc3LjAnLCAnLXRuJywgJzgnLCAnLW1hJywgJzIwMCcsICctbWV0YWxfYmluZGluZycsICctaW1hZScsICc8aW5maWxlLm1hZT4nLCAnLW9tYWUnLCAnPG91dGZpbGUubWFlPic=

> <r_epik_Ionization_Penalty>
6.76533

> <r_epik_Ionization_Penalty_Charging>
6.59228

> <r_epik_Ionization_Penalty_Neutral>
0.17305

> <r_epik_State_Penalty>
6.73737

> <r_epik_Charging_Adjusted_Penalty>
13.3296

> <i_epik_Tot_Q>
-1

> <i_epik_Tot_abs_Q>
1

> <r_epik_Metal_State_Penalty>
2.67929

> <b_epik_Metal_Only>
1

> <s_lp_Force_Field>
OPLS_2005

> <r_lp_Energy>
4.40981

> <b_lp_Chiralities_Consistent>
1

> <s_lp_Variant>
AV-unprocessed.smi:1417-4

> <Gold.Version>
5.8.1

> <Gold.Id.Protein>
6NUR|6NUR_protein|mol2

> <Gold.PLP.Fitness>
35.9213

> <Gold.PLP.PLP>
-29.6974

> <Gold.PLP.part.hbond>
-6.0000

> <Gold.PLP.part.metal>
0.0000

> <Gold.PLP.part.buried>
6.4443

> <Gold.PLP.part.nonpolar>
-31.6175

> <Gold.PLP.part.repulsive>
2.9341

> <Gold.PLP.ligand.clash>
0.0000

> <Gold.PLP.ligand.torsion>
0.5790

> <Gold.PLP.Chemscore.Hbond>
2.4491

> <Gold.PLP.Chemscore.CHOScore>
0.0000

> <Gold.PLP.Chemscore.Metal>
0.0000

> <Gold.Chemscore.Hbonds>
donor molecule, donor type, donor heavy atom, donor atom, acceptor molecule, acceptor atom, score
      L1  H     8    25       P1  8028  0.39
      P1  H  7954  7966       L1    16  1.00
      P1  H  7989  7998       L1     7  0.50
      P1  H  7997  8010       L1    19  0.34

> <Gold.PLP.Chemscore.Internal.Correction>
0.0345

> <Gold.Rescore>
     Score         DG    S(hbond)    S(metal)    S(lipo)     H(rot)  DE(clash)    DE(int)     intcor
      7.93     -16.27       2.10        0.00      75.96       2.00       5.01       3.33       ----

> <Gold.Chemscore.Fitness>
7.9289

> <Gold.Chemscore.DG>
-16.2698

> <Gold.Chemscore.ZeroCoef>
-5.4800

> <Gold.Chemscore.Hbond>
2.1006

> <Gold.Chemscore.Metal>
0.0000

> <Gold.Chemscore.Lipo>
75.9570

> <Gold.Chemscore.Internal_Hbond>
0.0000

> <Gold.Chemscore.DEClash>
5.0095

> <Gold.Chemscore.DEInternal>
3.3314

> <Gold.Chemscore.Rot>
1.9973

> <Gold.Chemscore.Internal.Correction>
   9.000000E+99

> <Gold.Chemscore.Hbonds>
donor molecule, donor type, donor heavy atom, donor atom, acceptor molecule, acceptor atom, score
      L1  H     8    25       P1  8028  0.39
      P1  H  7954  7966       L1    16  0.86
      P1  H  7989  7998       L1     7  0.39
      P1  H  7997  8010       L1    19  0.03

> <Gold.Chemscore.Hbond.Weighted>
-7.0159

> <Gold.Chemscore.Metal.Weighted>
-0.0000

> <Gold.Chemscore.Lipo.Weighted>
-8.8870

> <Gold.Chemscore.Internal_Hbond.Weighted>
0.0000

> <Gold.Chemscore.DEClash.Weighted>
5.0095

> <Gold.Chemscore.DEInternal.Weighted>
3.3314

> <Gold.Chemscore.Rot.Weighted>
5.1131

> <Gold.Chemscore.Internal.Correction.Weighted>
   9.000000E+99

> <Gold.Protein.RotatedTorsions>
[ 6907 6896 6895 6894 ] final  122.16 input  -60.11 | X-H torsion
[ 7974 7965 7964 7962 ] final  167.95 input  175.53 | X-H torsion
[ 8008 7997 7996 7995 ] final   70.46 input   59.86 | X-H torsion
[ 10167 10162 10161 10158 ] final  -45.26 input  -65.29 | X-H torsion
[ 10718 10713 10712 10709 ] final  -60.43 input   66.30 | X-H torsion
[ 10763 10752 10751 10750 ] final  -89.95 input  -60.55 | X-H torsion
[ 11005 11000 10999 10996 ] final  -42.60 input  -57.11 | X-H torsion

> <Gold.Protein.ActiveResidues>
 VAL166  LYS551  ARG553  GLY616  TRP617  ASP618  TYR619  PRO620  LYS621  CYS622 
 ASP623  PHE694  ASN695  SER759  ASP760  ASP761  ALA762  ILE779  LEU786  VAL792 
 PHE793  MET794  SER795  GLU796  ALA797  LYS798  CYS799  TRP800  GLU811  SER814 

> <Gold.Protein.RotatedAtoms>
  152.4265  133.7204  159.6529 H   0  0  0  0  0  0  0  0  0  0  0  0  # atno 6907 bound_to 6896
  150.8142  133.8357  159.3174 H   0  0  0  0  0  0  0  0  0  0  0  0  # atno 6908 bound_to 6896
  151.6058  135.1046  160.0122 H   0  0  0  0  0  0  0  0  0  0  0  0  # atno 6909 bound_to 6896
  144.7406  139.8836  143.6398 H   0  0  0  0  0  0  0  0  0  0  0  0  # atno 7974 bound_to 7965
  155.7392  140.3490  155.5096 H   0  0  0  0  0  0  0  0  0  0  0  0  # atno 8008 bound_to 7997
  155.9110  140.1050  157.1300 H   0  0  0  0  0  0  0  0  0  0  0  0  # atno 8009 bound_to 7997
  154.4056  140.1268  156.4544 H   0  0  0  0  0  0  0  0  0  0  0  0  # atno 8010 bound_to 7997
  140.6865  143.2888  151.3614 H   0  0  0  0  0  0  0  0  0  0  0  0  # atno 10167 bound_to 10162
  156.0991  130.4189  150.0853 H   0  0  0  0  0  0  0  0  0  0  0  0  # atno 10718 bound_to 10713
  154.6607  135.5322  153.8015 H   0  0  0  0  0  0  0  0  0  0  0  0  # atno 10763 bound_to 10752
  153.0440  135.6505  154.0876 H   0  0  0  0  0  0  0  0  0  0  0  0  # atno 10764 bound_to 10752
  154.0785  135.2949  155.3275 H   0  0  0  0  0  0  0  0  0  0  0  0  # atno 10765 bound_to 10752
  141.0327  133.6813  156.2617 H   0  0  0  0  0  0  0  0  0  0  0  0  # atno 11005 bound_to 11000
  146.1193  139.4209  143.0238 LP  0  0  0  0  0  0  0  0  0  0  0  0  # atno 17320 bound_to 7965
  145.7328  141.0036  143.1343 LP  0  0  0  0  0  0  0  0  0  0  0  0  # atno 17321 bound_to 7965
  139.6228  144.0874  152.2406 LP  0  0  0  0  0  0  0  0  0  0  0  0  # atno 17342 bound_to 10162
  140.0323  144.6071  150.7477 LP  0  0  0  0  0  0  0  0  0  0  0  0  # atno 17343 bound_to 10162
  156.8845  130.9568  151.3595 LP  0  0  0  0  0  0  0  0  0  0  0  0  # atno 17370 bound_to 10713
  157.6158  130.8617  149.9025 LP  0  0  0  0  0  0  0  0  0  0  0  0  # atno 17371 bound_to 10713
  140.6378  134.5197  157.5566 LP  0  0  0  0  0  0  0  0  0  0  0  0  # atno 17394 bound_to 11000
  139.9219  134.8132  156.1186 LP  0  0  0  0  0  0  0  0  0  0  0  0  # atno 17395 bound_to 11000

$$$$
