AV-unprocessed.smi:1762|AV-procd|sdf|7122|dock7
  -GOLD-   22720 8353D 1   1.00000     0.00000
 Structure written by MMmdl.
 52 53  0  0  0  0  0  0  0  0  3 V2000
  147.9873  142.1265  154.8426 C   0  0  0  0  0  0  0  0  0  0  0  0
  148.9467  141.0954  155.4464 C   0  0  1  0  0  0  0  0  0  0  0  0
  149.1317  139.8702  154.5251 C   0  0  0  0  0  0  0  0  0  0  0  0
  150.1313  138.9140  155.0837 N   0  3  2  0  0  0  0  0  0  0  0  0
  149.6366  138.0793  156.2345 C   0  0  1  0  0  0  0  0  0  0  0  0
  148.3918  137.2562  155.8223 C   0  0  0  0  0  0  0  0  0  0  0  0
  148.5452  136.3004  155.0538 O   0  0  0  0  0  0  0  0  0  0  0  0
  147.2570  137.7614  156.3802 N   0  5  0  0  0  0  0  0  0  0  0  0
  146.6776  137.2581  157.6222 C   0  0  0  0  0  0  0  0  0  0  0  0
  147.5691  137.6562  158.8184 C   0  0  0  0  0  0  0  0  0  0  0  0
  147.3501  136.8094  160.0685 C   0  0  0  0  0  0  0  0  0  0  0  0
  147.9079  135.5141  160.1666 C   0  0  0  0  0  0  0  0  0  0  0  0
  147.6759  134.7656  161.3365 C   0  0  0  0  0  0  0  0  0  0  0  0
  146.8952  135.3329  162.3617 C   0  0  0  0  0  0  0  0  0  0  0  0
  146.3758  136.6282  162.1686 C   0  0  0  0  0  0  0  0  0  0  0  0
  146.5901  137.3538  161.0504 N   0  0  0  0  0  0  0  0  0  0  0  0
  150.7301  137.1665  156.8865 C   0  0  0  0  0  0  0  0  0  0  0  0
  151.4425  136.2155  155.9024 C   0  0  0  0  0  0  0  0  0  0  0  0
  150.2101  136.3779  158.1048 C   0  0  0  0  0  0  0  0  0  0  0  0
  151.4019  139.6566  155.3066 C   0  0  0  0  0  0  0  0  0  0  0  0
  151.1827  140.8730  156.2297 C   0  0  1  0  0  0  0  0  0  0  0  0
  152.4676  141.6850  156.4242 C   0  0  0  0  0  0  0  0  0  0  0  0
  150.2082  141.7284  155.6401 O   0  0  0  0  0  0  0  0  0  0  0  0
  147.0000  141.6933  154.6799 H   0  0  0  0  0  0  0  0  0  0  0  0
  148.3543  142.4951  153.8843 H   0  0  0  0  0  0  0  0  0  0  0  0
  147.8681  142.9833  155.5062 H   0  0  0  0  0  0  0  0  0  0  0  0
  148.5458  140.7886  156.4130 H   0  0  0  0  0  0  0  0  0  0  0  0
  148.1719  139.3961  154.3228 H   0  0  0  0  0  0  0  0  0  0  0  0
  149.4937  140.2054  153.5521 H   0  0  0  0  0  0  0  0  0  0  0  0
  149.3450  138.7791  157.0190 H   0  0  0  0  0  0  0  0  0  0  0  0
  145.6738  137.6541  157.7808 H   0  0  0  0  0  0  0  0  0  0  0  0
  146.5725  136.1725  157.6046 H   0  0  0  0  0  0  0  0  0  0  0  0
  148.6202  137.5868  158.5335 H   0  0  0  0  0  0  0  0  0  0  0  0
  147.3961  138.7023  159.0748 H   0  0  0  0  0  0  0  0  0  0  0  0
  148.5051  135.1057  159.3644 H   0  0  0  0  0  0  0  0  0  0  0  0
  148.0902  133.7743  161.4458 H   0  0  0  0  0  0  0  0  0  0  0  0
  146.6991  134.7887  163.2735 H   0  0  0  0  0  0  0  0  0  0  0  0
  145.7716  137.0941  162.9330 H   0  0  0  0  0  0  0  0  0  0  0  0
  151.4920  137.8213  157.3070 H   0  0  0  0  0  0  0  0  0  0  0  0
  150.7754  135.4347  155.5375 H   0  0  0  0  0  0  0  0  0  0  0  0
  152.2817  135.7172  156.3882 H   0  0  0  0  0  0  0  0  0  0  0  0
  151.8391  136.7440  155.0362 H   0  0  0  0  0  0  0  0  0  0  0  0
  149.4913  135.6094  157.8189 H   0  0  0  0  0  0  0  0  0  0  0  0
  149.7236  137.0390  158.8227 H   0  0  0  0  0  0  0  0  0  0  0  0
  151.0286  135.8783  158.6239 H   0  0  0  0  0  0  0  0  0  0  0  0
  152.2011  139.0174  155.6749 H   0  0  0  0  0  0  0  0  0  0  0  0
  151.7564  140.0080  154.3365 H   0  0  0  0  0  0  0  0  0  0  0  0
  150.8334  140.5466  157.2104 H   0  0  0  0  0  0  0  0  0  0  0  0
  153.2512  141.0768  156.8768 H   0  0  0  0  0  0  0  0  0  0  0  0
  152.2924  142.5407  157.0766 H   0  0  0  0  0  0  0  0  0  0  0  0
  152.8443  142.0631  155.4733 H   0  0  0  0  0  0  0  0  0  0  0  0
  150.3189  138.2444  154.3509 H   0  0  0  0  0  0  0  0  0  0  0  0
  1  2  1  0  0  0  0
  1 24  1  0  0  0  0
  1 25  1  0  0  0  0
  1 26  1  0  0  0  0
  2 23  1  0  0  0  0
  2  3  1  0  0  0  0
  2 27  1  0  0  0  0
  3  4  1  0  0  0  0
  3 28  1  0  0  0  0
  3 29  1  0  0  0  0
  4  5  1  0  0  0  0
  4 20  1  0  0  0  0
  4 52  1  0  0  0  0
  5  6  1  0  0  0  0
  5 17  1  0  0  0  0
  5 30  1  0  0  0  0
  6  7  2  0  0  0  0
  6  8  1  0  0  0  0
  8  9  1  0  0  0  0
  9 10  1  0  0  0  0
  9 31  1  0  0  0  0
  9 32  1  0  0  0  0
 10 11  1  0  0  0  0
 10 33  1  0  0  0  0
 10 34  1  0  0  0  0
 11 16  1  0  0  0  0
 11 12  2  0  0  0  0
 12 13  1  0  0  0  0
 12 35  1  0  0  0  0
 13 14  2  0  0  0  0
 13 36  1  0  0  0  0
 14 15  1  0  0  0  0
 14 37  1  0  0  0  0
 15 16  2  0  0  0  0
 15 38  1  0  0  0  0
 17 18  1  0  0  0  0
 17 19  1  0  0  0  0
 17 39  1  0  0  0  0
 18 40  1  0  0  0  0
 18 41  1  0  0  0  0
 18 42  1  0  0  0  0
 19 43  1  0  0  0  0
 19 44  1  0  0  0  0
 19 45  1  0  0  0  0
 20 21  1  0  0  0  0
 20 46  1  0  0  0  0
 20 47  1  0  0  0  0
 21 22  1  0  0  0  0
 21 23  1  0  0  0  0
 21 48  1  0  0  0  0
 22 49  1  0  0  0  0
 22 50  1  0  0  0  0
 22 51  1  0  0  0  0
M  CHG  1   4   1
M  CHG  1   8  -1
M  END
> <s_m_source_file>
AV-unprocessed.smi

> <i_m_source_file_index>
1762

> <i_lp_mmshare_version>
43012

> <i_f3d_flags>
0

> <s_epik_input>
W0NIM11bQ0BASF0xW0NIMl1OKFtDSDJdW0NASF0oTzEpW0NIM10pW0NAQEhdKFtDSF0oW0NIM10pW0NIM10pQyg9TylbTkhdW0NIMl1bQ0gyXWMyW2NIXVtjSF1bY0hdW2NIXW4y

> <s_epik_cmdline>
J2VwaWtfcHl0aG9uJywgJy1waCcsICc3LjAnLCAnLXRuJywgJzgnLCAnLW1hJywgJzIwMCcsICctbWV0YWxfYmluZGluZycsICctaW1hZScsICc8aW5maWxlLm1hZT4nLCAnLW9tYWUnLCAnPG91dGZpbGUubWFlPic=

> <r_epik_Ionization_Penalty>
7.82966

> <r_epik_Ionization_Penalty_Charging>
7.7461

> <r_epik_Ionization_Penalty_Neutral>
0.0835571

> <r_epik_State_Penalty>
8.52273

> <r_epik_Charging_Adjusted_Penalty>
16.2688

> <i_epik_Tot_Q>
0

> <i_epik_Tot_abs_Q>
2

> <r_epik_Metal_State_Penalty>
4.47451

> <b_epik_Metal_Only>
1

> <s_lp_Force_Field>
OPLS_2005

> <r_lp_Energy>
22.3574

> <b_lp_Chiralities_Consistent>
1

> <s_lp_Variant>
AV-unprocessed.smi:1762-24

> <Gold.Version>
5.8.1

> <Gold.Id.Protein>
6NUR|6NUR_protein|mol2

> <Gold.PLP.Fitness>
51.4708

> <Gold.PLP.PLP>
-39.8129

> <Gold.PLP.part.hbond>
-4.0000

> <Gold.PLP.part.metal>
0.0000

> <Gold.PLP.part.buried>
-4.1508

> <Gold.PLP.part.nonpolar>
-32.5781

> <Gold.PLP.part.repulsive>
0.1319

> <Gold.PLP.ligand.clash>
0.0000

> <Gold.PLP.ligand.torsion>
1.3937

> <Gold.PLP.Chemscore.Hbond>
4.6980

> <Gold.PLP.Chemscore.CHOScore>
0.0000

> <Gold.PLP.Chemscore.Metal>
0.0000

> <Gold.Chemscore.Hbonds>
donor molecule, donor type, donor heavy atom, donor atom, acceptor molecule, acceptor atom, score
      P1  H  6934  6947       L1    16  0.95

> <Gold.PLP.Chemscore.Internal.Correction>
0.3512

> <Gold.Rescore>
     Score         DG    S(hbond)    S(metal)    S(lipo)     H(rot)  DE(clash)    DE(int)     intcor
     20.90     -22.54       2.84        0.00      99.67       1.60       0.05       1.59       ----

> <Gold.Chemscore.Fitness>
20.9005

> <Gold.Chemscore.DG>
-22.5377

> <Gold.Chemscore.ZeroCoef>
-5.4800

> <Gold.Chemscore.Hbond>
2.8428

> <Gold.Chemscore.Metal>
0.0000

> <Gold.Chemscore.Lipo>
99.6721

> <Gold.Chemscore.Internal_Hbond>
0.0000

> <Gold.Chemscore.DEClash>
0.0503

> <Gold.Chemscore.DEInternal>
1.5869

> <Gold.Chemscore.Rot>
1.6012

> <Gold.Chemscore.Internal.Correction>
   9.000000E+99

> <Gold.Chemscore.Hbonds>
donor molecule, donor type, donor heavy atom, donor atom, acceptor molecule, acceptor atom, score
      P1  H  6934  6947       L1    16  0.22

> <Gold.Chemscore.Hbond.Weighted>
-9.4950

> <Gold.Chemscore.Metal.Weighted>
-0.0000

> <Gold.Chemscore.Lipo.Weighted>
-11.6616

> <Gold.Chemscore.Internal_Hbond.Weighted>
0.0000

> <Gold.Chemscore.DEClash.Weighted>
0.0503

> <Gold.Chemscore.DEInternal.Weighted>
1.5869

> <Gold.Chemscore.Rot.Weighted>
4.0990

> <Gold.Chemscore.Internal.Correction.Weighted>
   9.000000E+99

> <Gold.Protein.RotatedTorsions>
[ 6907 6896 6895 6894 ] final -163.18 input  -60.11 | X-H torsion
[ 7974 7965 7964 7962 ] final  138.53 input  175.53 | X-H torsion
[ 8008 7997 7996 7995 ] final  121.97 input   59.86 | X-H torsion
[ 10167 10162 10161 10158 ] final  -71.02 input  -65.29 | X-H torsion
[ 10718 10713 10712 10709 ] final  -65.68 input   66.30 | X-H torsion
[ 10763 10752 10751 10750 ] final   78.76 input  -60.55 | X-H torsion
[ 11005 11000 10999 10996 ] final  115.84 input  -57.11 | X-H torsion

> <Gold.Protein.ActiveResidues>
 VAL166  LYS551  ARG553  GLY616  TRP617  ASP618  TYR619  PRO620  LYS621  CYS622 
 ASP623  PHE694  ASN695  SER759  ASP760  ASP761  ALA762  ILE779  LEU786  VAL792 
 PHE793  MET794  SER795  GLU796  ALA797  LYS798  CYS799  TRP800  GLU811  SER814 

> <Gold.Protein.RotatedAtoms>
  151.3920  133.3785  159.2721 H   0  0  0  0  0  0  0  0  0  0  0  0  # atno 6907 bound_to 6896
  150.9497  134.8900  159.7675 H   0  0  0  0  0  0  0  0  0  0  0  0  # atno 6908 bound_to 6896
  152.5107  134.3875  159.9425 H   0  0  0  0  0  0  0  0  0  0  0  0  # atno 6909 bound_to 6896
  144.9364  139.4984  143.5593 H   0  0  0  0  0  0  0  0  0  0  0  0  # atno 7974 bound_to 7965
  156.2708  140.2796  156.1392 H   0  0  0  0  0  0  0  0  0  0  0  0  # atno 8008 bound_to 7997
  155.0971  140.0389  157.2703 H   0  0  0  0  0  0  0  0  0  0  0  0  # atno 8009 bound_to 7997
  154.6844  140.2615  155.6881 H   0  0  0  0  0  0  0  0  0  0  0  0  # atno 8010 bound_to 7997
  140.5306  143.2322  151.7268 H   0  0  0  0  0  0  0  0  0  0  0  0  # atno 10167 bound_to 10162
  156.0656  130.4251  150.1599 H   0  0  0  0  0  0  0  0  0  0  0  0  # atno 10718 bound_to 10713
  153.0900  135.4865  154.8670 H   0  0  0  0  0  0  0  0  0  0  0  0  # atno 10763 bound_to 10752
  154.7257  135.3049  154.8977 H   0  0  0  0  0  0  0  0  0  0  0  0  # atno 10764 bound_to 10752
  153.9628  135.6810  153.4798 H   0  0  0  0  0  0  0  0  0  0  0  0  # atno 10765 bound_to 10752
  139.9022  134.9590  156.7107 H   0  0  0  0  0  0  0  0  0  0  0  0  # atno 11005 bound_to 11000
  146.3268  139.8351  142.8901 LP  0  0  0  0  0  0  0  0  0  0  0  0  # atno 17320 bound_to 7965
  145.3060  141.0207  143.3581 LP  0  0  0  0  0  0  0  0  0  0  0  0  # atno 17321 bound_to 7965
  139.4953  144.4119  152.0071 LP  0  0  0  0  0  0  0  0  0  0  0  0  # atno 17342 bound_to 10162
  140.3221  144.3415  150.6007 LP  0  0  0  0  0  0  0  0  0  0  0  0  # atno 17343 bound_to 10162
  156.9659  130.9819  151.3469 LP  0  0  0  0  0  0  0  0  0  0  0  0  # atno 17370 bound_to 10713
  157.5695  130.8300  149.8372 LP  0  0  0  0  0  0  0  0  0  0  0  0  # atno 17371 bound_to 10713
  140.7078  133.9250  155.8065 LP  0  0  0  0  0  0  0  0  0  0  0  0  # atno 17394 bound_to 11000
  141.0323  134.0738  157.3999 LP  0  0  0  0  0  0  0  0  0  0  0  0  # atno 17395 bound_to 11000

$$$$
