AV-unprocessed.smi:3183|AV-procd|sdf|12156|dock6
  -GOLD-   2272017593D 1   1.00000     0.00000
 Structure written by MMmdl.
 43 44  0  0  0  0  0  0  0  0  2 V2000
  152.6741  143.3214  162.2703 C   0  0  0  0  0  0  0  0  0  0  0  0
  152.0403  143.2480  160.8714 C   0  0  1  0  0  0  0  0  0  0  0  0
  152.1929  144.5754  160.1036 C   0  0  0  0  0  0  0  0  0  0  0  0
  151.4811  144.5207  158.7429 C   0  0  0  0  0  0  0  0  0  0  0  0
  151.9759  143.3424  157.8852 C   0  0  2  0  0  0  0  0  0  0  0  0
  151.2336  143.3138  156.6052 N   0  3  0  0  0  0  0  0  0  0  0  0
  150.5779  142.0291  156.2819 C   0  0  0  0  0  0  0  0  0  0  0  0
  149.8520  142.1077  154.9308 C   0  0  0  0  0  0  0  0  0  0  0  0
  149.1847  140.8316  154.5158 C   0  0  0  0  0  0  0  0  0  0  0  0
  149.6659  139.5549  154.4091 C   0  0  0  0  0  0  0  0  0  0  0  0
  148.5469  138.7963  153.9680 C   0  0  0  0  0  0  0  0  0  0  0  0
  147.4631  139.5357  153.8132 N   0  0  0  0  0  0  0  0  0  0  0  0
  147.8514  140.7837  154.1501 N   0  0  0  0  0  0  0  0  0  0  0  0
  146.8879  141.8659  154.0882 C   0  0  0  0  0  0  0  0  0  0  0  0
  151.8256  142.0151  158.6630 C   0  0  0  0  0  0  0  0  0  0  0  0
  152.5392  142.0442  160.0316 C   0  0  1  0  0  0  0  0  0  0  0  0
  154.0720  141.9743  159.8751 C   0  0  0  0  0  0  0  0  0  0  0  0
  153.7365  143.5613  162.2221 H   0  0  0  0  0  0  0  0  0  0  0  0
  152.5665  142.3755  162.8020 H   0  0  0  0  0  0  0  0  0  0  0  0
  152.1945  144.0927  162.8736 H   0  0  0  0  0  0  0  0  0  0  0  0
  150.9713  143.0963  161.0313 H   0  0  0  0  0  0  0  0  0  0  0  0
  151.7792  145.3940  160.6937 H   0  0  0  0  0  0  0  0  0  0  0  0
  153.2481  144.8093  159.9593 H   0  0  0  0  0  0  0  0  0  0  0  0
  150.4054  144.4343  158.9041 H   0  0  0  0  0  0  0  0  0  0  0  0
  151.6380  145.4612  158.2131 H   0  0  0  0  0  0  0  0  0  0  0  0
  153.0287  143.5124  157.6556 H   0  0  0  0  0  0  0  0  0  0  0  0
  150.5415  144.0494  156.6113 H   0  0  0  0  0  0  0  0  0  0  0  0
  151.3295  141.2391  156.2520 H   0  0  0  0  0  0  0  0  0  0  0  0
  149.8660  141.7732  157.0666 H   0  0  0  0  0  0  0  0  0  0  0  0
  149.1039  142.9003  154.9722 H   0  0  0  0  0  0  0  0  0  0  0  0
  150.5639  142.4019  154.1586 H   0  0  0  0  0  0  0  0  0  0  0  0
  150.6683  139.2091  154.6140 H   0  0  0  0  0  0  0  0  0  0  0  0
  148.4909  137.7386  153.7567 H   0  0  0  0  0  0  0  0  0  0  0  0
  146.8991  142.4249  155.0242 H   0  0  0  0  0  0  0  0  0  0  0  0
  145.8815  141.4771  153.9254 H   0  0  0  0  0  0  0  0  0  0  0  0
  147.1443  142.5369  153.2681 H   0  0  0  0  0  0  0  0  0  0  0  0
  150.7656  141.8105  158.8205 H   0  0  0  0  0  0  0  0  0  0  0  0
  152.2077  141.1781  158.0788 H   0  0  0  0  0  0  0  0  0  0  0  0
  152.2459  141.1359  160.5599 H   0  0  0  0  0  0  0  0  0  0  0  0
  154.4818  142.8711  159.4119 H   0  0  0  0  0  0  0  0  0  0  0  0
  154.3610  141.1247  159.2559 H   0  0  0  0  0  0  0  0  0  0  0  0
  154.5663  141.8450  160.8377 H   0  0  0  0  0  0  0  0  0  0  0  0
  151.8963  143.5051  155.8673 H   0  0  0  0  0  0  0  0  0  0  0  0
  1  2  1  0  0  0  0
  1 18  1  0  0  0  0
  1 19  1  0  0  0  0
  1 20  1  0  0  0  0
  2 16  1  0  0  0  0
  2  3  1  0  0  0  0
  2 21  1  0  0  0  0
  3  4  1  0  0  0  0
  3 22  1  0  0  0  0
  3 23  1  0  0  0  0
  4  5  1  0  0  0  0
  4 24  1  0  0  0  0
  4 25  1  0  0  0  0
  5  6  1  0  0  0  0
  5 15  1  0  0  0  0
  5 26  1  0  0  0  0
  6  7  1  0  0  0  0
  6 27  1  0  0  0  0
  6 43  1  0  0  0  0
  7  8  1  0  0  0  0
  7 28  1  0  0  0  0
  7 29  1  0  0  0  0
  8  9  1  0  0  0  0
  8 30  1  0  0  0  0
  8 31  1  0  0  0  0
  9 13  1  0  0  0  0
  9 10  2  0  0  0  0
 10 11  1  0  0  0  0
 10 32  1  0  0  0  0
 11 12  2  0  0  0  0
 11 33  1  0  0  0  0
 12 13  1  0  0  0  0
 13 14  1  0  0  0  0
 14 34  1  0  0  0  0
 14 35  1  0  0  0  0
 14 36  1  0  0  0  0
 15 16  1  0  0  0  0
 15 37  1  0  0  0  0
 15 38  1  0  0  0  0
 16 17  1  0  0  0  0
 16 39  1  0  0  0  0
 17 40  1  0  0  0  0
 17 41  1  0  0  0  0
 17 42  1  0  0  0  0
M  CHG  1   6   1
M  END
> <s_m_source_file>
AV-unprocessed.smi

> <i_m_source_file_index>
3183

> <i_lp_mmshare_version>
43012

> <i_f3d_flags>
0

> <s_epik_input>
W0NIM11bQ0BASF0xW0NIMl1bQ0gyXVtDQEhdKFtDSDJdW0NASF0xW0NIM10pW05IXVtDSDJdW0NIMl1jMltjSF1bY0hdbm4yW0NIM10=

> <s_epik_cmdline>
J2VwaWtfcHl0aG9uJywgJy1waCcsICc3LjAnLCAnLXRuJywgJzgnLCAnLW1hJywgJzIwMCcsICctbWV0YWxfYmluZGluZycsICctaW1hZScsICc8aW5maWxlLm1hZT4nLCAnLW9tYWUnLCAnPG91dGZpbGUubWFlPic=

> <r_lp_tautomer_probability>
1

> <r_epik_Ionization_Penalty>
0.000327718

> <r_epik_Ionization_Penalty_Charging>
0.000294043

> <r_epik_Ionization_Penalty_Neutral>
3.36755e-05

> <r_epik_State_Penalty>
-0

> <r_epik_Charging_Adjusted_Penalty>
0.000294043

> <i_epik_Tot_Q>
1

> <i_epik_Tot_abs_Q>
1

> <r_epik_Metal_State_Penalty>
-0

> <b_epik_Metal_Only>
0

> <s_lp_Force_Field>
OPLS_2005

> <r_lp_Energy>
13.9595

> <b_lp_Chiralities_Consistent>
1

> <s_lp_Variant>
AV-unprocessed.smi:3183-4

> <Gold.Version>
5.8.1

> <Gold.Id.Protein>
6NUR|6NUR_protein|mol2

> <Gold.PLP.Fitness>
45.7866

> <Gold.PLP.PLP>
-41.1986

> <Gold.PLP.part.hbond>
-1.0000

> <Gold.PLP.part.metal>
0.0000

> <Gold.PLP.part.buried>
-1.0011

> <Gold.PLP.part.nonpolar>
-38.1276

> <Gold.PLP.part.repulsive>
0.2198

> <Gold.PLP.ligand.clash>
2.2220

> <Gold.PLP.ligand.torsion>
0.7895

> <Gold.PLP.Chemscore.Hbond>
1.7920

> <Gold.PLP.Chemscore.CHOScore>
1.0000

> <Gold.PLP.Chemscore.Metal>
0.0000

> <Gold.Chemscore.Hbonds>
donor molecule, donor type, donor heavy atom, donor atom, acceptor molecule, acceptor atom, score
      L1  H     6    27       P1  8028  1.76
      L1  C    11    33       P1  7948  1.00

> <Gold.PLP.Chemscore.Internal.Correction>
0.0130

> <Gold.Rescore>
     Score         DG    S(hbond)    S(metal)    S(lipo)     H(rot)  DE(clash)    DE(int)     intcor
     19.35     -20.46       0.98        0.00     130.16       1.38       0.35       0.76       ----

> <Gold.Chemscore.Fitness>
19.3509

> <Gold.Chemscore.DG>
-20.4597

> <Gold.Chemscore.ZeroCoef>
-5.4800

> <Gold.Chemscore.Hbond>
0.9807

> <Gold.Chemscore.Metal>
0.0000

> <Gold.Chemscore.Lipo>
130.1619

> <Gold.Chemscore.Internal_Hbond>
0.0000

> <Gold.Chemscore.DEClash>
0.3457

> <Gold.Chemscore.DEInternal>
0.7631

> <Gold.Chemscore.Rot>
1.3768

> <Gold.Chemscore.Internal.Correction>
   9.000000E+99

> <Gold.Chemscore.Hbonds>
donor molecule, donor type, donor heavy atom, donor atom, acceptor molecule, acceptor atom, score
      L1  H     6    27       P1  8028  0.83

> <Gold.Chemscore.Hbond.Weighted>
-3.2754

> <Gold.Chemscore.Metal.Weighted>
-0.0000

> <Gold.Chemscore.Lipo.Weighted>
-15.2289

> <Gold.Chemscore.Internal_Hbond.Weighted>
0.0000

> <Gold.Chemscore.DEClash.Weighted>
0.3457

> <Gold.Chemscore.DEInternal.Weighted>
0.7631

> <Gold.Chemscore.Rot.Weighted>
3.5247

> <Gold.Chemscore.Internal.Correction.Weighted>
   9.000000E+99

> <Gold.Protein.RotatedTorsions>
[ 6907 6896 6895 6894 ] final  -53.33 input  -60.11 | X-H torsion
[ 7974 7965 7964 7962 ] final  170.07 input  175.53 | X-H torsion
[ 8008 7997 7996 7995 ] final   33.84 input   59.86 | X-H torsion
[ 10167 10162 10161 10158 ] final  106.48 input  -65.29 | X-H torsion
[ 10718 10713 10712 10709 ] final  121.53 input   66.30 | X-H torsion
[ 10763 10752 10751 10750 ] final  -78.58 input  -60.55 | X-H torsion
[ 11005 11000 10999 10996 ] final   16.85 input  -57.11 | X-H torsion

> <Gold.Protein.ActiveResidues>
 VAL166  LYS551  ARG553  GLY616  TRP617  ASP618  TYR619  PRO620  LYS621  CYS622 
 ASP623  PHE694  ASN695  SER759  ASP760  ASP761  ALA762  ILE779  LEU786  VAL792 
 PHE793  MET794  SER795  GLU796  ALA797  LYS798  CYS799  TRP800  GLU811  SER814 

> <Gold.Protein.RotatedAtoms>
  150.8436  134.7737  159.6952 H   0  0  0  0  0  0  0  0  0  0  0  0  # atno 6907 bound_to 6896
  152.4518  134.5374  159.9838 H   0  0  0  0  0  0  0  0  0  0  0  0  # atno 6908 bound_to 6896
  151.5509  133.3380  159.2988 H   0  0  0  0  0  0  0  0  0  0  0  0  # atno 6909 bound_to 6896
  144.7335  139.9147  143.6417 H   0  0  0  0  0  0  0  0  0  0  0  0  # atno 7974 bound_to 7965
  155.1452  140.3270  155.4443 H   0  0  0  0  0  0  0  0  0  0  0  0  # atno 8008 bound_to 7997
  156.2592  140.1986  156.6516 H   0  0  0  0  0  0  0  0  0  0  0  0  # atno 8009 bound_to 7997
  154.6513  140.0558  156.9945 H   0  0  0  0  0  0  0  0  0  0  0  0  # atno 8010 bound_to 7997
  139.7005  144.7095  151.1193 H   0  0  0  0  0  0  0  0  0  0  0  0  # atno 10167 bound_to 10162
  157.5810  131.1075  150.8187 H   0  0  0  0  0  0  0  0  0  0  0  0  # atno 10718 bound_to 10713
  154.5278  135.5725  153.6733 H   0  0  0  0  0  0  0  0  0  0  0  0  # atno 10763 bound_to 10752
  152.9932  135.6197  154.2670 H   0  0  0  0  0  0  0  0  0  0  0  0  # atno 10764 bound_to 10752
  154.2594  135.2856  155.2764 H   0  0  0  0  0  0  0  0  0  0  0  0  # atno 10765 bound_to 10752
  140.4426  134.1306  155.7692 H   0  0  0  0  0  0  0  0  0  0  0  0  # atno 11005 bound_to 11000
  146.0974  139.3967  143.0368 LP  0  0  0  0  0  0  0  0  0  0  0  0  # atno 17320 bound_to 7965
  145.7626  140.9929  143.1192 LP  0  0  0  0  0  0  0  0  0  0  0  0  # atno 17321 bound_to 7965
  140.7708  143.5430  150.9291 LP  0  0  0  0  0  0  0  0  0  0  0  0  # atno 17342 bound_to 10162
  139.9112  143.6718  152.3115 LP  0  0  0  0  0  0  0  0  0  0  0  0  # atno 17343 bound_to 10162
  156.8633  130.5120  149.5302 LP  0  0  0  0  0  0  0  0  0  0  0  0  # atno 17370 bound_to 10713
  156.0856  130.5855  150.9642 LP  0  0  0  0  0  0  0  0  0  0  0  0  # atno 17371 bound_to 10713
  141.1699  133.8629  157.1602 LP  0  0  0  0  0  0  0  0  0  0  0  0  # atno 17394 bound_to 11000
  140.0060  135.0008  157.0293 LP  0  0  0  0  0  0  0  0  0  0  0  0  # atno 17395 bound_to 11000

$$$$
