AV-unprocessed.smi:3187|AV-procd|sdf|12178|dock5
  -GOLD-   2272018 13D 1   1.00000     0.00000
 Structure written by MMmdl.
 41 42  0  0  0  0  0  0  0  0  2 V2000
  152.8901  140.7341  159.8219 C   0  0  0  0  0  0  0  0  0  0  0  0
  152.4725  142.1941  159.7419 C   0  0  0  0  0  0  0  0  0  0  0  0
  152.5298  142.9877  160.8296 C   0  0  0  0  0  0  0  0  0  0  0  0
  152.1997  144.4700  160.8402 C   0  0  0  0  0  0  0  0  0  0  0  0
  151.6130  144.9699  159.5095 C   0  0  0  0  0  0  0  0  0  0  0  0
  152.2652  144.2687  158.3049 C   0  0  2  0  0  0  0  0  0  0  0  0
  151.8553  144.9135  156.9696 C   0  0  0  0  0  0  0  0  0  0  0  0
  152.0451  142.7308  158.3688 C   0  0  2  0  0  0  0  0  0  0  0  0
  150.5988  142.3141  157.9921 C   0  0  0  0  0  0  0  0  0  0  0  0
  150.3622  142.3093  156.5360 N   0  3  0  0  0  0  0  0  0  0  0  0
  149.2651  141.4225  156.0995 C   0  0  0  0  0  0  0  0  0  0  0  0
  149.5233  140.8580  154.6939 C   0  0  0  0  0  0  0  0  0  0  0  0
  150.3717  139.6817  154.7230 N   0  0  0  0  0  0  0  0  0  0  0  0
  150.3324  138.5987  153.8545 C   0  0  0  0  0  0  0  0  0  0  0  0
  151.3204  137.7314  154.2631 C   0  0  0  0  0  0  0  0  0  0  0  0
  151.9748  138.2575  155.3746 N   0  0  0  0  0  0  0  0  0  0  0  0
  151.3553  139.4097  155.5919 C   0  0  0  0  0  0  0  0  0  0  0  0
  153.5747  140.4861  159.0105 H   0  0  0  0  0  0  0  0  0  0  0  0
  152.0321  140.0663  159.7713 H   0  0  0  0  0  0  0  0  0  0  0  0
  153.4037  140.5267  160.7615 H   0  0  0  0  0  0  0  0  0  0  0  0
  152.8628  142.5781  161.7723 H   0  0  0  0  0  0  0  0  0  0  0  0
  151.5127  144.6843  161.6592 H   0  0  0  0  0  0  0  0  0  0  0  0
  153.1235  145.0069  161.0570 H   0  0  0  0  0  0  0  0  0  0  0  0
  150.5364  144.8004  159.4973 H   0  0  0  0  0  0  0  0  0  0  0  0
  151.7463  146.0502  159.4412 H   0  0  0  0  0  0  0  0  0  0  0  0
  153.3410  144.4324  158.3916 H   0  0  0  0  0  0  0  0  0  0  0  0
  150.7730  144.9410  156.8438 H   0  0  0  0  0  0  0  0  0  0  0  0
  152.2828  144.3752  156.1233 H   0  0  0  0  0  0  0  0  0  0  0  0
  152.2102  145.9430  156.9142 H   0  0  0  0  0  0  0  0  0  0  0  0
  152.7186  142.2910  157.6317 H   0  0  0  0  0  0  0  0  0  0  0  0
  150.3725  141.3236  158.3874 H   0  0  0  0  0  0  0  0  0  0  0  0
  149.8774  143.0044  158.4278 H   0  0  0  0  0  0  0  0  0  0  0  0
  150.1466  143.2516  156.2424 H   0  0  0  0  0  0  0  0  0  0  0  0
  149.1696  140.5991  156.8083 H   0  0  0  0  0  0  0  0  0  0  0  0
  148.3232  141.9725  156.1195 H   0  0  0  0  0  0  0  0  0  0  0  0
  148.5821  140.6056  154.2035 H   0  0  0  0  0  0  0  0  0  0  0  0
  150.0085  141.6117  154.0725 H   0  0  0  0  0  0  0  0  0  0  0  0
  149.6256  138.5357  153.0399 H   0  0  0  0  0  0  0  0  0  0  0  0
  151.6081  136.7774  153.8462 H   0  0  0  0  0  0  0  0  0  0  0  0
  151.6286  140.0750  156.3982 H   0  0  0  0  0  0  0  0  0  0  0  0
  151.2138  142.0160  156.0791 H   0  0  0  0  0  0  0  0  0  0  0  0
  1  2  1  0  0  0  0
  1 18  1  0  0  0  0
  1 19  1  0  0  0  0
  1 20  1  0  0  0  0
  2  8  1  0  0  0  0
  2  3  2  0  0  0  0
  3  4  1  0  0  0  0
  3 21  1  0  0  0  0
  4  5  1  0  0  0  0
  4 22  1  0  0  0  0
  4 23  1  0  0  0  0
  5  6  1  0  0  0  0
  5 24  1  0  0  0  0
  5 25  1  0  0  0  0
  6  7  1  0  0  0  0
  6  8  1  0  0  0  0
  6 26  1  0  0  0  0
  7 27  1  0  0  0  0
  7 28  1  0  0  0  0
  7 29  1  0  0  0  0
  8  9  1  0  0  0  0
  8 30  1  0  0  0  0
  9 10  1  0  0  0  0
  9 31  1  0  0  0  0
  9 32  1  0  0  0  0
 10 11  1  0  0  0  0
 10 33  1  0  0  0  0
 10 41  1  0  0  0  0
 11 12  1  0  0  0  0
 11 34  1  0  0  0  0
 11 35  1  0  0  0  0
 12 13  1  0  0  0  0
 12 36  1  0  0  0  0
 12 37  1  0  0  0  0
 13 17  1  0  0  0  0
 13 14  1  0  0  0  0
 14 15  2  0  0  0  0
 14 38  1  0  0  0  0
 15 16  1  0  0  0  0
 15 39  1  0  0  0  0
 16 17  2  0  0  0  0
 17 40  1  0  0  0  0
M  CHG  1  10   1
M  END
> <s_m_source_file>
AV-unprocessed.smi

> <i_m_source_file_index>
3187

> <i_lp_mmshare_version>
43012

> <i_f3d_flags>
0

> <s_epik_input>
W0NIM11DMT1bQ0hdW0NIMl1bQ0gyXVtDQEBIXShbQ0gzXSlbQ0BIXTFbQ0gyXVtOSF1bQ0gyXVtDSDJdbjJbY0hdW2NIXW5bY0hdMg==

> <s_epik_cmdline>
J2VwaWtfcHl0aG9uJywgJy1waCcsICc3LjAnLCAnLXRuJywgJzgnLCAnLW1hJywgJzIwMCcsICctbWV0YWxfYmluZGluZycsICctaW1hZScsICc8aW5maWxlLm1hZT4nLCAnLW9tYWUnLCAnPG91dGZpbGUubWFlPic=

> <r_lp_tautomer_probability>
1

> <r_epik_Ionization_Penalty>
0.0501625

> <r_epik_Ionization_Penalty_Charging>
0.0501625

> <r_epik_Ionization_Penalty_Neutral>
0

> <r_epik_State_Penalty>
0.0972392

> <r_epik_Charging_Adjusted_Penalty>
0.147402

> <i_epik_Tot_Q>
1

> <i_epik_Tot_abs_Q>
1

> <r_epik_Metal_State_Penalty>
0.000104376

> <b_epik_Metal_Only>
0

> <s_lp_Force_Field>
OPLS_2005

> <r_lp_Energy>
17.7506

> <b_lp_Chiralities_Consistent>
1

> <s_lp_Variant>
AV-unprocessed.smi:3187-4

> <Gold.Version>
5.8.1

> <Gold.Id.Protein>
6NUR|6NUR_protein|mol2

> <Gold.PLP.Fitness>
55.2672

> <Gold.PLP.PLP>
-43.8236

> <Gold.PLP.part.hbond>
-1.0000

> <Gold.PLP.part.metal>
0.0000

> <Gold.PLP.part.buried>
-2.8066

> <Gold.PLP.part.nonpolar>
-39.5803

> <Gold.PLP.part.repulsive>
0.0862

> <Gold.PLP.ligand.clash>
0.0000

> <Gold.PLP.ligand.torsion>
1.0401

> <Gold.PLP.Chemscore.Hbond>
2.0000

> <Gold.PLP.Chemscore.CHOScore>
2.4821

> <Gold.PLP.Chemscore.Metal>
0.0000

> <Gold.Chemscore.Hbonds>
donor molecule, donor type, donor heavy atom, donor atom, acceptor molecule, acceptor atom, score
      L1  H    10    33       P1  8028  2.00
      L1  C    14    38       P1  7948  0.65
      L1  C    14    38       P1  7957  0.88
      L1  C    15    39       P1  7949  0.93

> <Gold.PLP.Chemscore.Internal.Correction>
0.0774

> <Gold.Rescore>
     Score         DG    S(hbond)    S(metal)    S(lipo)     H(rot)  DE(clash)    DE(int)     intcor
     16.27     -19.03       0.94        0.00     130.14       1.89       1.64       1.12       ----

> <Gold.Chemscore.Fitness>
16.2739

> <Gold.Chemscore.DG>
-19.0319

> <Gold.Chemscore.ZeroCoef>
-5.4800

> <Gold.Chemscore.Hbond>
0.9435

> <Gold.Chemscore.Metal>
0.0000

> <Gold.Chemscore.Lipo>
130.1448

> <Gold.Chemscore.Internal_Hbond>
0.0000

> <Gold.Chemscore.DEClash>
1.6408

> <Gold.Chemscore.DEInternal>
1.1172

> <Gold.Chemscore.Rot>
1.8853

> <Gold.Chemscore.Internal.Correction>
   9.000000E+99

> <Gold.Chemscore.Hbonds>
donor molecule, donor type, donor heavy atom, donor atom, acceptor molecule, acceptor atom, score
      L1  H    10    33       P1  8028  0.92

> <Gold.Chemscore.Hbond.Weighted>
-3.1512

> <Gold.Chemscore.Metal.Weighted>
-0.0000

> <Gold.Chemscore.Lipo.Weighted>
-15.2269

> <Gold.Chemscore.Internal_Hbond.Weighted>
0.0000

> <Gold.Chemscore.DEClash.Weighted>
1.6408

> <Gold.Chemscore.DEInternal.Weighted>
1.1172

> <Gold.Chemscore.Rot.Weighted>
4.8263

> <Gold.Chemscore.Internal.Correction.Weighted>
   9.000000E+99

> <Gold.Protein.RotatedTorsions>
[ 6907 6896 6895 6894 ] final -173.87 input  -60.11 | X-H torsion
[ 7974 7965 7964 7962 ] final  122.87 input  175.53 | X-H torsion
[ 8008 7997 7996 7995 ] final  -85.52 input   59.86 | X-H torsion
[ 10167 10162 10161 10158 ] final  133.87 input  -65.29 | X-H torsion
[ 10718 10713 10712 10709 ] final  -28.51 input   66.30 | X-H torsion
[ 10763 10752 10751 10750 ] final  124.62 input  -60.55 | X-H torsion
[ 11005 11000 10999 10996 ] final  121.12 input  -57.11 | X-H torsion

> <Gold.Protein.ActiveResidues>
 VAL166  LYS551  ARG553  GLY616  TRP617  ASP618  TYR619  PRO620  LYS621  CYS622 
 ASP623  PHE694  ASN695  SER759  ASP760  ASP761  ALA762  ILE779  LEU786  VAL792 
 PHE793  MET794  SER795  GLU796  ALA797  LYS798  CYS799  TRP800  GLU811  SER814 

> <Gold.Protein.RotatedAtoms>
  151.5632  133.3400  159.2974 H   0  0  0  0  0  0  0  0  0  0  0  0  # atno 6907 bound_to 6896
  150.8410  134.7705  159.6944 H   0  0  0  0  0  0  0  0  0  0  0  0  # atno 6908 bound_to 6896
  152.4478  134.5465  159.9906 H   0  0  0  0  0  0  0  0  0  0  0  0  # atno 6909 bound_to 6896
  145.1025  139.3509  143.4805 H   0  0  0  0  0  0  0  0  0  0  0  0  # atno 7974 bound_to 7965
  154.6417  140.0590  156.9853 H   0  0  0  0  0  0  0  0  0  0  0  0  # atno 8008 bound_to 7997
  155.1507  140.3274  155.4413 H   0  0  0  0  0  0  0  0  0  0  0  0  # atno 8009 bound_to 7997
  156.2534  140.1948  156.6619 H   0  0  0  0  0  0  0  0  0  0  0  0  # atno 8010 bound_to 7997
  139.5279  144.6595  151.5058 H   0  0  0  0  0  0  0  0  0  0  0  0  # atno 10167 bound_to 10162
  156.4243  130.4432  149.7162 H   0  0  0  0  0  0  0  0  0  0  0  0  # atno 10718 bound_to 10713
  153.6642  135.3341  155.3135 H   0  0  0  0  0  0  0  0  0  0  0  0  # atno 10763 bound_to 10752
  154.8507  135.4371  154.1772 H   0  0  0  0  0  0  0  0  0  0  0  0  # atno 10764 bound_to 10752
  153.2747  135.7003  153.7521 H   0  0  0  0  0  0  0  0  0  0  0  0  # atno 10765 bound_to 10752
  139.9213  134.9637  156.7911 H   0  0  0  0  0  0  0  0  0  0  0  0  # atno 11005 bound_to 11000
  146.3529  140.0908  142.8612 LP  0  0  0  0  0  0  0  0  0  0  0  0  # atno 17320 bound_to 7965
  145.0939  140.9302  143.4752 LP  0  0  0  0  0  0  0  0  0  0  0  0  # atno 17321 bound_to 7965
  140.6436  143.8840  150.6715 LP  0  0  0  0  0  0  0  0  0  0  0  0  # atno 17342 bound_to 10162
  140.2182  143.3830  152.1664 LP  0  0  0  0  0  0  0  0  0  0  0  0  # atno 17343 bound_to 10162
  156.4090  130.7712  151.2724 LP  0  0  0  0  0  0  0  0  0  0  0  0  # atno 17370 bound_to 10713
  157.7508  131.0217  150.3761 LP  0  0  0  0  0  0  0  0  0  0  0  0  # atno 17371 bound_to 10713
  140.6466  133.9769  155.7734 LP  0  0  0  0  0  0  0  0  0  0  0  0  # atno 17394 bound_to 11000
  141.0736  134.0169  157.3491 LP  0  0  0  0  0  0  0  0  0  0  0  0  # atno 17395 bound_to 11000

$$$$
