AV-unprocessed.smi:833|AV-procd|sdf|3880|dock7
  -GOLD-   22720 1333D 1   1.00000     0.00000
 Structure written by MMmdl.
 39 40  0  0  0  0  0  0  0  0  1 V2000
  149.7159  139.7606  155.8632 C   0  0  0  0  0  0  0  0  0  0  0  0
  150.3543  139.3372  154.5340 C   0  0  2  0  0  0  0  0  0  0  0  0
  149.3076  139.1426  153.6051 O   0  0  0  0  0  0  0  0  0  0  0  0
  151.1503  138.0245  154.6712 C   0  0  0  0  0  0  0  0  0  0  0  0
  150.3798  136.8700  154.2199 N   0  0  0  0  0  0  0  0  0  0  0  0
  150.4570  135.6389  154.7444 C   0  0  0  0  0  0  0  0  0  0  0  0
  151.2046  135.3438  155.6766 O   0  0  0  0  0  0  0  0  0  0  0  0
  149.6355  134.7889  154.1058 N   0  0  0  0  0  0  0  0  0  0  0  0
  149.4441  133.3955  154.3326 C   0  0  0  0  0  0  0  0  0  0  0  0
  150.3818  132.6169  155.0552 C   0  0  0  0  0  0  0  0  0  0  0  0
  150.1484  131.2419  155.2303 C   0  0  0  0  0  0  0  0  0  0  0  0
  148.9806  130.6903  154.6786 C   0  0  0  0  0  0  0  0  0  0  0  0
  148.0687  131.4201  154.0062 N   0  0  0  0  0  0  0  0  0  0  0  0
  148.2724  132.7506  153.8419 C   0  0  0  0  0  0  0  0  0  0  0  0
  147.2706  133.4696  153.1508 N   0  0  0  0  0  0  0  0  0  0  0  0
  147.1153  133.3211  151.7075 C   0  0  0  0  0  0  0  0  0  0  0  0
  145.7380  133.8997  151.3976 C   0  0  0  0  0  0  0  0  0  0  0  0
  144.9316  133.4911  152.6263 C   0  0  0  0  0  0  0  0  0  0  0  0
  145.9510  133.5635  153.7682 C   0  0  0  0  0  0  0  0  0  0  0  0
  150.4785  139.9481  156.6196 H   0  0  0  0  0  0  0  0  0  0  0  0
  149.0479  138.9895  156.2486 H   0  0  0  0  0  0  0  0  0  0  0  0
  149.1371  140.6775  155.7475 H   0  0  0  0  0  0  0  0  0  0  0  0
  150.9966  140.1448  154.1805 H   0  0  0  0  0  0  0  0  0  0  0  0
  149.6248  139.3728  152.7454 H   0  0  0  0  0  0  0  0  0  0  0  0
  152.0682  138.0814  154.0832 H   0  0  0  0  0  0  0  0  0  0  0  0
  151.4649  137.8671  155.7035 H   0  0  0  0  0  0  0  0  0  0  0  0
  149.7428  137.0213  153.4516 H   0  0  0  0  0  0  0  0  0  0  0  0
  149.1560  135.1610  153.2992 H   0  0  0  0  0  0  0  0  0  0  0  0
  151.2715  133.0496  155.4855 H   0  0  0  0  0  0  0  0  0  0  0  0
  150.8494  130.6253  155.7730 H   0  0  0  0  0  0  0  0  0  0  0  0
  148.7679  129.6371  154.7866 H   0  0  0  0  0  0  0  0  0  0  0  0
  147.9057  133.8427  151.1669 H   0  0  0  0  0  0  0  0  0  0  0  0
  147.1382  132.2696  151.4191 H   0  0  0  0  0  0  0  0  0  0  0  0
  145.7945  134.9873  151.3333 H   0  0  0  0  0  0  0  0  0  0  0  0
  145.3178  133.5235  150.4644 H   0  0  0  0  0  0  0  0  0  0  0  0
  144.0603  134.1242  152.7949 H   0  0  0  0  0  0  0  0  0  0  0  0
  144.5838  132.4638  152.5098 H   0  0  0  0  0  0  0  0  0  0  0  0
  145.7828  132.7746  154.5029 H   0  0  0  0  0  0  0  0  0  0  0  0
  145.8695  134.5241  154.2773 H   0  0  0  0  0  0  0  0  0  0  0  0
  1  2  1  0  0  0  0
  1 20  1  0  0  0  0
  1 21  1  0  0  0  0
  1 22  1  0  0  0  0
  2  3  1  0  0  0  0
  2  4  1  0  0  0  0
  2 23  1  0  0  0  0
  3 24  1  0  0  0  0
  4  5  1  0  0  0  0
  4 25  1  0  0  0  0
  4 26  1  0  0  0  0
  5  6  1  0  0  0  0
  5 27  1  0  0  0  0
  6  7  2  0  0  0  0
  6  8  1  0  0  0  0
  8  9  1  0  0  0  0
  8 28  1  0  0  0  0
  9 14  1  0  0  0  0
  9 10  2  0  0  0  0
 10 11  1  0  0  0  0
 10 29  1  0  0  0  0
 11 12  2  0  0  0  0
 11 30  1  0  0  0  0
 12 13  1  0  0  0  0
 12 31  1  0  0  0  0
 13 14  2  0  0  0  0
 14 15  1  0  0  0  0
 15 19  1  0  0  0  0
 15 16  1  0  0  0  0
 16 17  1  0  0  0  0
 16 32  1  0  0  0  0
 16 33  1  0  0  0  0
 17 18  1  0  0  0  0
 17 34  1  0  0  0  0
 17 35  1  0  0  0  0
 18 19  1  0  0  0  0
 18 36  1  0  0  0  0
 18 37  1  0  0  0  0
 19 38  1  0  0  0  0
 19 39  1  0  0  0  0
M  END
> <s_m_source_file>
AV-unprocessed.smi

> <i_m_source_file_index>
833

> <i_lp_mmshare_version>
43012

> <i_f3d_flags>
0

> <s_epik_input>
W0NIM11bQ0BIXShbT0hdKVtDSDJdW05IXUMoPU8pW05IXWMxW2NIXVtjSF1bY0hdbmMxTjJbQ0gyXVtDSDJdW0NIMl1bQ0gyXTI=

> <s_epik_cmdline>
J2VwaWtfcHl0aG9uJywgJy1waCcsICc3LjAnLCAnLXRuJywgJzgnLCAnLW1hJywgJzIwMCcsICctbWV0YWxfYmluZGluZycsICctaW1hZScsICc8aW5maWxlLm1hZT4nLCAnLW9tYWUnLCAnPG91dGZpbGUubWFlPic=

> <r_lp_tautomer_probability>
1

> <r_epik_Ionization_Penalty>
0.0986749

> <r_epik_Ionization_Penalty_Charging>
0

> <r_epik_Ionization_Penalty_Neutral>
0.0986749

> <r_epik_State_Penalty>
0.0881977

> <r_epik_Charging_Adjusted_Penalty>
0.0881977

> <i_epik_Tot_Q>
0

> <i_epik_Tot_abs_Q>
0

> <r_epik_Metal_State_Penalty>
0.0755487

> <b_epik_Metal_Only>
0

> <s_lp_Force_Field>
OPLS_2005

> <r_lp_Energy>
31.5613

> <b_lp_Chiralities_Consistent>
1

> <s_lp_Variant>
AV-unprocessed.smi:833-1

> <Gold.Version>
5.8.1

> <Gold.Id.Protein>
6NUR|6NUR_protein|mol2

> <Gold.PLP.Fitness>
40.5908

> <Gold.PLP.PLP>
-30.8997

> <Gold.PLP.part.hbond>
-5.4208

> <Gold.PLP.part.metal>
0.0000

> <Gold.PLP.part.buried>
-1.4410

> <Gold.PLP.part.nonpolar>
-23.4347

> <Gold.PLP.part.repulsive>
0.3529

> <Gold.PLP.ligand.clash>
0.0000

> <Gold.PLP.ligand.torsion>
0.9761

> <Gold.PLP.Chemscore.Hbond>
3.7780

> <Gold.PLP.Chemscore.CHOScore>
0.0000

> <Gold.PLP.Chemscore.Metal>
0.0000

> <Gold.Chemscore.Hbonds>
donor molecule, donor type, donor heavy atom, donor atom, acceptor molecule, acceptor atom, score
      L1  H     3    24       P1  7957  1.00
      L1  H     5    27       P1  7948  0.88
      L1  H     8    28       P1  7948  0.90
      P1  H 10752 10765       L1     7  1.00

> <Gold.PLP.Chemscore.Internal.Correction>
0.3093

> <Gold.Rescore>
     Score         DG    S(hbond)    S(metal)    S(lipo)     H(rot)  DE(clash)    DE(int)     intcor
     14.63     -17.11       3.06        0.00      56.55       2.03       0.28       2.20       ----

> <Gold.Chemscore.Fitness>
14.6347

> <Gold.Chemscore.DG>
-17.1130

> <Gold.Chemscore.ZeroCoef>
-5.4800

> <Gold.Chemscore.Hbond>
3.0585

> <Gold.Chemscore.Metal>
0.0000

> <Gold.Chemscore.Lipo>
56.5462

> <Gold.Chemscore.Internal_Hbond>
0.0000

> <Gold.Chemscore.DEClash>
0.2784

> <Gold.Chemscore.DEInternal>
2.1999

> <Gold.Chemscore.Rot>
2.0306

> <Gold.Chemscore.Internal.Correction>
   9.000000E+99

> <Gold.Chemscore.Hbonds>
donor molecule, donor type, donor heavy atom, donor atom, acceptor molecule, acceptor atom, score
      L1  H     3    24       P1  7957  0.99
      L1  H     5    27       P1  7948  0.52
      L1  H     8    28       P1  7948  0.18
      P1  H 10752 10765       L1     7  0.38

> <Gold.Chemscore.Hbond.Weighted>
-10.2155

> <Gold.Chemscore.Metal.Weighted>
-0.0000

> <Gold.Chemscore.Lipo.Weighted>
-6.6159

> <Gold.Chemscore.Internal_Hbond.Weighted>
0.0000

> <Gold.Chemscore.DEClash.Weighted>
0.2784

> <Gold.Chemscore.DEInternal.Weighted>
2.1999

> <Gold.Chemscore.Rot.Weighted>
5.1984

> <Gold.Chemscore.Internal.Correction.Weighted>
   9.000000E+99

> <Gold.Protein.RotatedTorsions>
[ 6907 6896 6895 6894 ] final  116.17 input  -60.11 | X-H torsion
[ 7974 7965 7964 7962 ] final  131.31 input  175.53 | X-H torsion
[ 8008 7997 7996 7995 ] final    6.83 input   59.86 | X-H torsion
[ 10167 10162 10161 10158 ] final   59.24 input  -65.29 | X-H torsion
[ 10718 10713 10712 10709 ] final   17.36 input   66.30 | X-H torsion
[ 10763 10752 10751 10750 ] final -162.35 input  -60.55 | X-H torsion
[ 11005 11000 10999 10996 ] final   68.14 input  -57.11 | X-H torsion

> <Gold.Protein.ActiveResidues>
 VAL166  LYS551  ARG553  GLY616  TRP617  ASP618  TYR619  PRO620  LYS621  CYS622 
 ASP623  PHE694  ASN695  SER759  ASP760  ASP761  ALA762  ILE779  LEU786  VAL792 
 PHE793  MET794  SER795  GLU796  ALA797  LYS798  CYS799  TRP800  GLU811  SER814 

> <Gold.Protein.RotatedAtoms>
  152.4695  133.7998  159.6946 H   0  0  0  0  0  0  0  0  0  0  0  0  # atno 6907 bound_to 6896
  150.8677  133.7541  159.2978 H   0  0  0  0  0  0  0  0  0  0  0  0  # atno 6908 bound_to 6896
  151.5086  135.1067  159.9900 H   0  0  0  0  0  0  0  0  0  0  0  0  # atno 6909 bound_to 6896
  145.0087  139.4241  143.5256 H   0  0  0  0  0  0  0  0  0  0  0  0  # atno 7974 bound_to 7965
  154.7460  140.2758  155.6333 H   0  0  0  0  0  0  0  0  0  0  0  0  # atno 8008 bound_to 7997
  156.2885  140.2688  156.2126 H   0  0  0  0  0  0  0  0  0  0  0  0  # atno 8009 bound_to 7997
  155.0198  140.0371  157.2422 H   0  0  0  0  0  0  0  0  0  0  0  0  # atno 8010 bound_to 7997
  140.1786  144.4205  150.6626 H   0  0  0  0  0  0  0  0  0  0  0  0  # atno 10167 bound_to 10162
  157.0811  130.6388  149.5826 H   0  0  0  0  0  0  0  0  0  0  0  0  # atno 10718 bound_to 10713
  154.7222  135.3028  154.9028 H   0  0  0  0  0  0  0  0  0  0  0  0  # atno 10763 bound_to 10752
  153.9897  135.6720  153.4757 H   0  0  0  0  0  0  0  0  0  0  0  0  # atno 10764 bound_to 10752
  153.0844  135.4992  154.8485 H   0  0  0  0  0  0  0  0  0  0  0  0  # atno 10765 bound_to 10752
  139.9729  134.6870  156.0411 H   0  0  0  0  0  0  0  0  0  0  0  0  # atno 11005 bound_to 11000
  146.3466  139.9518  142.8728 LP  0  0  0  0  0  0  0  0  0  0  0  0  # atno 17320 bound_to 7965
  145.2053  140.9872  143.4132 LP  0  0  0  0  0  0  0  0  0  0  0  0  # atno 17321 bound_to 7965
  140.6535  143.2231  151.6023 LP  0  0  0  0  0  0  0  0  0  0  0  0  # atno 17342 bound_to 10162
  139.5306  144.2927  152.1139 LP  0  0  0  0  0  0  0  0  0  0  0  0  # atno 17343 bound_to 10162
  155.9923  130.4981  150.7336 LP  0  0  0  0  0  0  0  0  0  0  0  0  # atno 17370 bound_to 10713
  157.4799  131.0901  151.0547 LP  0  0  0  0  0  0  0  0  0  0  0  0  # atno 17371 bound_to 10713
  141.1408  133.6565  156.3724 LP  0  0  0  0  0  0  0  0  0  0  0  0  # atno 17394 bound_to 11000
  140.5255  134.6263  157.5332 LP  0  0  0  0  0  0  0  0  0  0  0  0  # atno 17395 bound_to 11000

$$$$
