AV-unprocessed.smi:2442|AV-procd|sdf|9623|dock9
  -GOLD-   2272013253D 1   1.00000     0.00000
 Structure written by MMmdl.
 46 47  0  0  0  0  0  0  0  0  1 V2000
  149.4357  137.5887  155.4918 C   0  0  0  0  0  0  0  0  0  0  0  0
  150.0689  138.1977  154.3779 O   0  0  0  0  0  0  0  0  0  0  0  0
  149.5495  139.4797  154.0449 C   0  0  2  0  0  0  0  0  0  0  0  0
  149.8055  140.4686  155.2019 C   0  0  0  0  0  0  0  0  0  0  0  0
  149.1373  141.8284  154.9397 C   0  0  0  0  0  0  0  0  0  0  0  0
  147.6296  141.6720  154.6861 C   0  0  0  0  0  0  0  0  0  0  0  0
  147.3609  140.6957  153.5310 C   0  0  0  0  0  0  0  0  0  0  0  0
  148.0298  139.3288  153.7940 C   0  0  1  0  0  0  0  0  0  0  0  0
  147.7186  138.3592  152.7409 N   0  0  0  0  0  0  0  0  0  0  0  0
  146.5139  137.8595  152.4254 C   0  0  0  0  0  0  0  0  0  0  0  0
  145.4588  138.1879  152.9679 O   0  0  0  0  0  0  0  0  0  0  0  0
  146.6022  136.9296  151.4631 N   0  0  0  0  0  0  0  0  0  0  0  0
  145.4863  136.1362  150.9526 C   0  0  0  0  0  0  0  0  0  0  0  0
  144.9543  135.1203  151.9865 C   0  0  0  0  0  0  0  0  0  0  0  0
  144.9099  133.6793  151.4894 C   0  0  0  0  0  0  0  0  0  0  0  0
  143.6898  133.1468  151.0198 C   0  0  0  0  0  0  0  0  0  0  0  0
  143.6679  131.8277  150.5282 C   0  0  0  0  0  0  0  0  0  0  0  0
  144.7582  131.0354  150.4858 N   0  0  0  0  0  0  0  0  0  0  0  0
  145.9223  131.5424  150.9426 C   0  0  0  0  0  0  0  0  0  0  0  0
  146.0593  132.8501  151.4572 C   0  0  0  0  0  0  0  0  0  0  0  0
  147.4175  133.3268  151.9394 C   0  0  0  0  0  0  0  0  0  0  0  0
  149.8945  136.6191  155.6846 H   0  0  0  0  0  0  0  0  0  0  0  0
  148.3731  137.4245  155.3150 H   0  0  0  0  0  0  0  0  0  0  0  0
  149.5523  138.1965  156.3901 H   0  0  0  0  0  0  0  0  0  0  0  0
  150.0299  139.8600  153.1422 H   0  0  0  0  0  0  0  0  0  0  0  0
  149.4216  140.0498  156.1331 H   0  0  0  0  0  0  0  0  0  0  0  0
  150.8748  140.6173  155.3494 H   0  0  0  0  0  0  0  0  0  0  0  0
  149.3034  142.4930  155.7880 H   0  0  0  0  0  0  0  0  0  0  0  0
  149.6053  142.3046  154.0773 H   0  0  0  0  0  0  0  0  0  0  0  0
  147.1418  141.3109  155.5923 H   0  0  0  0  0  0  0  0  0  0  0  0
  147.1874  142.6432  154.4622 H   0  0  0  0  0  0  0  0  0  0  0  0
  146.2855  140.5682  153.4013 H   0  0  0  0  0  0  0  0  0  0  0  0
  147.7329  141.1316  152.6033 H   0  0  0  0  0  0  0  0  0  0  0  0
  147.5855  138.9178  154.7015 H   0  0  0  0  0  0  0  0  0  0  0  0
  148.5097  138.0143  152.2175 H   0  0  0  0  0  0  0  0  0  0  0  0
  147.5142  136.7308  151.0786 H   0  0  0  0  0  0  0  0  0  0  0  0
  144.6836  136.7911  150.6129 H   0  0  0  0  0  0  0  0  0  0  0  0
  145.8284  135.6029  150.0656 H   0  0  0  0  0  0  0  0  0  0  0  0
  145.5480  135.1750  152.8987 H   0  0  0  0  0  0  0  0  0  0  0  0
  143.9464  135.4135  152.2829 H   0  0  0  0  0  0  0  0  0  0  0  0
  142.7879  133.7409  151.0204 H   0  0  0  0  0  0  0  0  0  0  0  0
  142.7496  131.3987  150.1554 H   0  0  0  0  0  0  0  0  0  0  0  0
  146.7739  130.8798  150.8928 H   0  0  0  0  0  0  0  0  0  0  0  0
  148.1353  132.5062  151.9618 H   0  0  0  0  0  0  0  0  0  0  0  0
  147.3528  133.7350  152.9477 H   0  0  0  0  0  0  0  0  0  0  0  0
  147.8120  134.0939  151.2738 H   0  0  0  0  0  0  0  0  0  0  0  0
  1  2  1  0  0  0  0
  1 22  1  0  0  0  0
  1 23  1  0  0  0  0
  1 24  1  0  0  0  0
  2  3  1  0  0  0  0
  3  8  1  0  0  0  0
  3  4  1  0  0  0  0
  3 25  1  0  0  0  0
  4  5  1  0  0  0  0
  4 26  1  0  0  0  0
  4 27  1  0  0  0  0
  5  6  1  0  0  0  0
  5 28  1  0  0  0  0
  5 29  1  0  0  0  0
  6  7  1  0  0  0  0
  6 30  1  0  0  0  0
  6 31  1  0  0  0  0
  7  8  1  0  0  0  0
  7 32  1  0  0  0  0
  7 33  1  0  0  0  0
  8  9  1  0  0  0  0
  8 34  1  0  0  0  0
  9 10  1  0  0  0  0
  9 35  1  0  0  0  0
 10 11  2  0  0  0  0
 10 12  1  0  0  0  0
 12 13  1  0  0  0  0
 12 36  1  0  0  0  0
 13 14  1  0  0  0  0
 13 37  1  0  0  0  0
 13 38  1  0  0  0  0
 14 15  1  0  0  0  0
 14 39  1  0  0  0  0
 14 40  1  0  0  0  0
 15 20  1  0  0  0  0
 15 16  2  0  0  0  0
 16 17  1  0  0  0  0
 16 41  1  0  0  0  0
 17 18  2  0  0  0  0
 17 42  1  0  0  0  0
 18 19  1  0  0  0  0
 19 20  2  0  0  0  0
 19 43  1  0  0  0  0
 20 21  1  0  0  0  0
 21 44  1  0  0  0  0
 21 45  1  0  0  0  0
 21 46  1  0  0  0  0
M  END
> <s_m_source_file>
AV-unprocessed.smi

> <i_m_source_file_index>
2442

> <i_lp_mmshare_version>
43012

> <i_f3d_flags>
0

> <s_epik_input>
W0NIM11PW0NAQEhdMVtDSDJdW0NIMl1bQ0gyXVtDSDJdW0NASF0xW05IXUMoPU8pW05IXVtDSDJdW0NIMl1jMltjSF1bY0hdbltjSF1jMltDSDNd

> <s_epik_cmdline>
J2VwaWtfcHl0aG9uJywgJy1waCcsICc3LjAnLCAnLXRuJywgJzgnLCAnLW1hJywgJzIwMCcsICctbWV0YWxfYmluZGluZycsICctaW1hZScsICc8aW5maWxlLm1hZT4nLCAnLW9tYWUnLCAnPG91dGZpbGUubWFlPic=

> <r_epik_Ionization_Penalty>
0.106136

> <r_epik_Ionization_Penalty_Charging>
0

> <r_epik_Ionization_Penalty_Neutral>
0.106136

> <r_epik_State_Penalty>
0.0959393

> <r_epik_Charging_Adjusted_Penalty>
0.0959393

> <i_epik_Tot_Q>
0

> <i_epik_Tot_abs_Q>
0

> <r_epik_Metal_State_Penalty>
0.0812517

> <b_epik_Metal_Only>
0

> <s_lp_Force_Field>
OPLS_2005

> <r_lp_Energy>
10.1716

> <b_lp_Chiralities_Consistent>
1

> <s_lp_Variant>
AV-unprocessed.smi:2442-1

> <Gold.Version>
5.8.1

> <Gold.Id.Protein>
6NUR|6NUR_protein|mol2

> <Gold.PLP.Fitness>
42.8424

> <Gold.PLP.PLP>
-34.3838

> <Gold.PLP.part.hbond>
-3.3567

> <Gold.PLP.part.metal>
0.0000

> <Gold.PLP.part.buried>
2.8885

> <Gold.PLP.part.nonpolar>
-36.2172

> <Gold.PLP.part.repulsive>
2.0737

> <Gold.PLP.ligand.clash>
0.0000

> <Gold.PLP.ligand.torsion>
0.7656

> <Gold.PLP.Chemscore.Hbond>
1.3120

> <Gold.PLP.Chemscore.CHOScore>
2.0000

> <Gold.PLP.Chemscore.Metal>
0.0000

> <Gold.Chemscore.Hbonds>
donor molecule, donor type, donor heavy atom, donor atom, acceptor molecule, acceptor atom, score
      L1  H     9    35       P1  7948  0.59
      L1  H    12    36       P1  7948  0.64
      L1  C    17    42       P1 10952  1.00
      L1  C    19    43       P1 10747  1.00

> <Gold.PLP.Chemscore.Internal.Correction>
0.0537

> <Gold.Rescore>
     Score         DG    S(hbond)    S(metal)    S(lipo)     H(rot)  DE(clash)    DE(int)     intcor
     16.12     -16.85       1.69        0.00      84.75       1.64       0.12       0.61       ----

> <Gold.Chemscore.Fitness>
16.1176

> <Gold.Chemscore.DG>
-16.8496

> <Gold.Chemscore.ZeroCoef>
-5.4800

> <Gold.Chemscore.Hbond>
1.6908

> <Gold.Chemscore.Metal>
0.0000

> <Gold.Chemscore.Lipo>
84.7505

> <Gold.Chemscore.Internal_Hbond>
0.0000

> <Gold.Chemscore.DEClash>
0.1239

> <Gold.Chemscore.DEInternal>
0.6082

> <Gold.Chemscore.Rot>
1.6380

> <Gold.Chemscore.Internal.Correction>
   9.000000E+99

> <Gold.Chemscore.Hbonds>
donor molecule, donor type, donor heavy atom, donor atom, acceptor molecule, acceptor atom, score
      L1  H     9    35       P1  7948  0.58
      L1  H    12    36       P1  7948  0.64

> <Gold.Chemscore.Hbond.Weighted>
-5.6472

> <Gold.Chemscore.Metal.Weighted>
-0.0000

> <Gold.Chemscore.Lipo.Weighted>
-9.9158

> <Gold.Chemscore.Internal_Hbond.Weighted>
0.0000

> <Gold.Chemscore.DEClash.Weighted>
0.1239

> <Gold.Chemscore.DEInternal.Weighted>
0.6082

> <Gold.Chemscore.Rot.Weighted>
4.1934

> <Gold.Chemscore.Internal.Correction.Weighted>
   9.000000E+99

> <Gold.Protein.RotatedTorsions>
[ 6907 6896 6895 6894 ] final  -51.97 input  -60.11 | X-H torsion
[ 7974 7965 7964 7962 ] final  169.32 input  175.53 | X-H torsion
[ 8008 7997 7996 7995 ] final   45.66 input   59.86 | X-H torsion
[ 10167 10162 10161 10158 ] final  162.97 input  -65.29 | X-H torsion
[ 10718 10713 10712 10709 ] final  166.35 input   66.30 | X-H torsion
[ 10763 10752 10751 10750 ] final  -26.47 input  -60.55 | X-H torsion
[ 11005 11000 10999 10996 ] final -143.36 input  -57.11 | X-H torsion

> <Gold.Protein.ActiveResidues>
 VAL166  LYS551  ARG553  GLY616  TRP617  ASP618  TYR619  PRO620  LYS621  CYS622 
 ASP623  PHE694  ASN695  SER759  ASP760  ASP761  ALA762  ILE779  LEU786  VAL792 
 PHE793  MET794  SER795  GLU796  ALA797  LYS798  CYS799  TRP800  GLU811  SER814 

> <Gold.Protein.RotatedAtoms>
  150.8561  134.7900  159.7046 H   0  0  0  0  0  0  0  0  0  0  0  0  # atno 6907 bound_to 6896
  152.4612  134.5176  159.9782 H   0  0  0  0  0  0  0  0  0  0  0  0  # atno 6908 bound_to 6896
  151.5288  133.3415  159.2950 H   0  0  0  0  0  0  0  0  0  0  0  0  # atno 6909 bound_to 6896
  144.7359  139.9037  143.6411 H   0  0  0  0  0  0  0  0  0  0  0  0  # atno 7974 bound_to 7965
  155.3396  140.3407  155.4239 H   0  0  0  0  0  0  0  0  0  0  0  0  # atno 8008 bound_to 7997
  156.1820  140.1667  156.8293 H   0  0  0  0  0  0  0  0  0  0  0  0  # atno 8009 bound_to 7997
  154.5344  140.0738  156.8384 H   0  0  0  0  0  0  0  0  0  0  0  0  # atno 8010 bound_to 7997
  139.4867  144.4384  151.8983 H   0  0  0  0  0  0  0  0  0  0  0  0  # atno 10167 bound_to 10162
  157.0671  131.0356  151.2625 H   0  0  0  0  0  0  0  0  0  0  0  0  # atno 10718 bound_to 10713
  153.7164  135.6947  153.5024 H   0  0  0  0  0  0  0  0  0  0  0  0  # atno 10763 bound_to 10752
  153.2235  135.4361  155.0515 H   0  0  0  0  0  0  0  0  0  0  0  0  # atno 10764 bound_to 10752
  154.8298  135.3466  154.6699 H   0  0  0  0  0  0  0  0  0  0  0  0  # atno 10765 bound_to 10752
  140.8133  134.2719  157.4932 H   0  0  0  0  0  0  0  0  0  0  0  0  # atno 11005 bound_to 11000
  146.1053  139.4052  143.0321 LP  0  0  0  0  0  0  0  0  0  0  0  0  # atno 17320 bound_to 7965
  145.7521  140.9968  143.1245 LP  0  0  0  0  0  0  0  0  0  0  0  0  # atno 17321 bound_to 7965
  140.3834  144.2707  150.5906 LP  0  0  0  0  0  0  0  0  0  0  0  0  # atno 17342 bound_to 10162
  140.5212  143.2265  151.8385 LP  0  0  0  0  0  0  0  0  0  0  0  0  # atno 17343 bound_to 10162
  157.4908  130.7821  149.7505 LP  0  0  0  0  0  0  0  0  0  0  0  0  # atno 17370 bound_to 10713
  155.9961  130.3908  150.2792 LP  0  0  0  0  0  0  0  0  0  0  0  0  # atno 17371 bound_to 10713
  139.8712  134.9495  156.4027 LP  0  0  0  0  0  0  0  0  0  0  0  0  # atno 17394 bound_to 11000
  140.9175  133.7668  155.9866 LP  0  0  0  0  0  0  0  0  0  0  0  0  # atno 17395 bound_to 11000

$$$$
