AV-unprocessed.smi:2086|AV-procd|sdf|8519|dock8
  -GOLD-   2272011233D 1   1.00000     0.00000
 Structure written by MMmdl.
 33 34  0  0  0  0  0  0  0  0  2 V2000
  149.6138  136.1316  159.2821 O   0  0  0  0  0  0  0  0  0  0  0  0
  148.7004  136.9281  159.5249 C   0  0  0  0  0  0  0  0  0  0  0  0
  147.9591  137.0853  160.6566 N   0  5  0  0  0  0  0  0  0  0  0  0
  146.7645  136.3002  160.9651 C   0  0  0  0  0  0  0  0  0  0  0  0
  147.0608  135.2728  162.0734 C   0  0  0  0  0  0  0  0  0  0  0  0
  147.8493  134.3161  161.5830 F   0  0  0  0  0  0  0  0  0  0  0  0
  147.6862  135.8504  163.1004 F   0  0  0  0  0  0  0  0  0  0  0  0
  145.9328  134.7085  162.5078 F   0  0  0  0  0  0  0  0  0  0  0  0
  148.3557  137.9425  158.4636 C   0  0  0  0  0  0  0  0  0  0  0  0
  146.9958  138.1172  158.1231 C   0  0  0  0  0  0  0  0  0  0  0  0
  146.6391  139.0475  157.1312 C   0  0  0  0  0  0  0  0  0  0  0  0
  147.6642  139.7830  156.5133 C   0  0  0  0  0  0  0  0  0  0  0  0
  148.9657  139.6500  156.8369 N   0  0  0  0  0  0  0  0  0  0  0  0
  149.3216  138.7593  157.7972 C   0  0  0  0  0  0  0  0  0  0  0  0
  150.6911  138.7200  158.1322 N   0  0  0  0  0  0  0  0  0  0  0  0
  151.6055  138.0817  157.1922 C   0  0  0  0  0  0  0  0  0  0  0  0
  152.9778  137.8821  157.8576 C   0  0  0  0  0  0  0  0  0  0  0  0
  153.4654  139.1326  158.3370 O   0  0  0  0  0  0  0  0  0  0  0  0
  152.5984  139.7072  159.3120 C   0  0  0  0  0  0  0  0  0  0  0  0
  151.2144  139.9599  158.6905 C   0  0  0  0  0  0  0  0  0  0  0  0
  145.9384  136.9346  161.2908 H   0  0  0  0  0  0  0  0  0  0  0  0
  146.4001  135.7731  160.0821 H   0  0  0  0  0  0  0  0  0  0  0  0
  146.2271  137.5331  158.6085 H   0  0  0  0  0  0  0  0  0  0  0  0
  145.6066  139.1890  156.8490 H   0  0  0  0  0  0  0  0  0  0  0  0
  147.4324  140.5048  155.7441 H   0  0  0  0  0  0  0  0  0  0  0  0
  151.2002  137.1205  156.8737 H   0  0  0  0  0  0  0  0  0  0  0  0
  151.7119  138.7043  156.3028 H   0  0  0  0  0  0  0  0  0  0  0  0
  152.9103  137.1673  158.6793 H   0  0  0  0  0  0  0  0  0  0  0  0
  153.6884  137.4748  157.1385 H   0  0  0  0  0  0  0  0  0  0  0  0
  152.5194  139.0483  160.1784 H   0  0  0  0  0  0  0  0  0  0  0  0
  153.0293  140.6446  159.6631 H   0  0  0  0  0  0  0  0  0  0  0  0
  151.2897  140.7039  157.8966 H   0  0  0  0  0  0  0  0  0  0  0  0
  150.5384  140.3652  159.4433 H   0  0  0  0  0  0  0  0  0  0  0  0
  1  2  2  0  0  0  0
  2  3  1  0  0  0  0
  2  9  1  0  0  0  0
  3  4  1  0  0  0  0
  4  5  1  0  0  0  0
  4 21  1  0  0  0  0
  4 22  1  0  0  0  0
  5  6  1  0  0  0  0
  5  7  1  0  0  0  0
  5  8  1  0  0  0  0
  9 14  1  0  0  0  0
  9 10  2  0  0  0  0
 10 11  1  0  0  0  0
 10 23  1  0  0  0  0
 11 12  2  0  0  0  0
 11 24  1  0  0  0  0
 12 13  1  0  0  0  0
 12 25  1  0  0  0  0
 13 14  2  0  0  0  0
 14 15  1  0  0  0  0
 15 20  1  0  0  0  0
 15 16  1  0  0  0  0
 16 17  1  0  0  0  0
 16 26  1  0  0  0  0
 16 27  1  0  0  0  0
 17 18  1  0  0  0  0
 17 28  1  0  0  0  0
 17 29  1  0  0  0  0
 18 19  1  0  0  0  0
 19 20  1  0  0  0  0
 19 30  1  0  0  0  0
 19 31  1  0  0  0  0
 20 32  1  0  0  0  0
 20 33  1  0  0  0  0
M  CHG  1   3  -1
M  END
> <s_m_source_file>
AV-unprocessed.smi

> <i_m_source_file_index>
2086

> <i_lp_mmshare_version>
43012

> <i_f3d_flags>
0

> <s_epik_input>
RkMoRikoRilbQ0gyXVtOSF1DKD1PKWMxW2NIXVtjSF1bY0hdbmMxTjJbQ0gyXVtDSDJdT1tDSDJdW0NIMl0y

> <s_epik_cmdline>
J2VwaWtfcHl0aG9uJywgJy1waCcsICc3LjAnLCAnLXRuJywgJzgnLCAnLW1hJywgJzIwMCcsICctbWV0YWxfYmluZGluZycsICctaW1hZScsICc8aW5maWxlLm1hZT4nLCAnLW9tYWUnLCAnPG91dGZpbGUubWFlPic=

> <r_lp_tautomer_probability>
1

> <r_epik_Ionization_Penalty>
6.70774

> <r_epik_Ionization_Penalty_Charging>
6.70732

> <r_epik_Ionization_Penalty_Neutral>
0.000422769

> <r_epik_State_Penalty>
6.70731

> <r_epik_Charging_Adjusted_Penalty>
13.4146

> <i_epik_Tot_Q>
-1

> <i_epik_Tot_abs_Q>
1

> <r_epik_Metal_State_Penalty>
2.62875

> <b_epik_Metal_Only>
1

> <s_lp_Force_Field>
OPLS_2005

> <r_lp_Energy>
34.3175

> <b_lp_Chiralities_Consistent>
1

> <s_lp_Variant>
AV-unprocessed.smi:2086-2

> <Gold.Version>
5.8.1

> <Gold.Id.Protein>
6NUR|6NUR_protein|mol2

> <Gold.PLP.Fitness>
40.1386

> <Gold.PLP.PLP>
-27.3751

> <Gold.PLP.part.hbond>
-4.0000

> <Gold.PLP.part.metal>
0.0000

> <Gold.PLP.part.buried>
-5.0988

> <Gold.PLP.part.nonpolar>
-19.0194

> <Gold.PLP.part.repulsive>
0.0000

> <Gold.PLP.ligand.clash>
0.0000

> <Gold.PLP.ligand.torsion>
1.9518

> <Gold.PLP.Chemscore.Hbond>
5.2640

> <Gold.PLP.Chemscore.CHOScore>
0.0000

> <Gold.PLP.Chemscore.Metal>
0.0000

> <Gold.Chemscore.Hbonds>
donor molecule, donor type, donor heavy atom, donor atom, acceptor molecule, acceptor atom, score
      P1  H  6896  6907       L1     1  1.00
      P1  H  6931  6943       L1     3  1.73
      P1  H  6934  6947       L1     3  1.33
      P1  H  7997  8008       L1    18  1.00

> <Gold.PLP.Chemscore.Internal.Correction>
0.8752

> <Gold.Rescore>
     Score         DG    S(hbond)    S(metal)    S(lipo)     H(rot)  DE(clash)    DE(int)     intcor
     12.62     -15.07       2.57        0.00      37.37       1.32       0.45       2.00       ----

> <Gold.Chemscore.Fitness>
12.6215

> <Gold.Chemscore.DG>
-15.0743

> <Gold.Chemscore.ZeroCoef>
-5.4800

> <Gold.Chemscore.Hbond>
2.5717

> <Gold.Chemscore.Metal>
0.0000

> <Gold.Chemscore.Lipo>
37.3691

> <Gold.Chemscore.Internal_Hbond>
0.0000

> <Gold.Chemscore.DEClash>
0.4500

> <Gold.Chemscore.DEInternal>
2.0028

> <Gold.Chemscore.Rot>
1.3154

> <Gold.Chemscore.Internal.Correction>
   9.000000E+99

> <Gold.Chemscore.Hbonds>
donor molecule, donor type, donor heavy atom, donor atom, acceptor molecule, acceptor atom, score
      P1  H  6896  6907       L1     1  0.98
      P1  H  6931  6943       L1     3  0.45
      P1  H  6934  6947       L1     3  0.14
      P1  H  7997  8008       L1    18  0.87

> <Gold.Chemscore.Hbond.Weighted>
-8.5896

> <Gold.Chemscore.Metal.Weighted>
-0.0000

> <Gold.Chemscore.Lipo.Weighted>
-4.3722

> <Gold.Chemscore.Internal_Hbond.Weighted>
0.0000

> <Gold.Chemscore.DEClash.Weighted>
0.4500

> <Gold.Chemscore.DEInternal.Weighted>
2.0028

> <Gold.Chemscore.Rot.Weighted>
3.3675

> <Gold.Chemscore.Internal.Correction.Weighted>
   9.000000E+99

> <Gold.Protein.RotatedTorsions>
[ 6907 6896 6895 6894 ] final  -68.21 input  -60.11 | X-H torsion
[ 7974 7965 7964 7962 ] final  170.51 input  175.53 | X-H torsion
[ 8008 7997 7996 7995 ] final  -93.82 input   59.86 | X-H torsion
[ 10167 10162 10161 10158 ] final  142.65 input  -65.29 | X-H torsion
[ 10718 10713 10712 10709 ] final -104.26 input   66.30 | X-H torsion
[ 10763 10752 10751 10750 ] final -109.47 input  -60.55 | X-H torsion
[ 11005 11000 10999 10996 ] final  141.95 input  -57.11 | X-H torsion

> <Gold.Protein.ActiveResidues>
 VAL166  LYS551  ARG553  GLY616  TRP617  ASP618  TYR619  PRO620  LYS621  CYS622 
 ASP623  PHE694  ASN695  SER759  ASP760  ASP761  ALA762  ILE779  LEU786  VAL792 
 PHE793  MET794  SER795  GLU796  ALA797  LYS798  CYS799  TRP800  GLU811  SER814 

> <Gold.Protein.RotatedAtoms>
  150.7368  134.5772  159.5919 H   0  0  0  0  0  0  0  0  0  0  0  0  # atno 6907 bound_to 6896
  152.3195  134.7395  160.0326 H   0  0  0  0  0  0  0  0  0  0  0  0  # atno 6908 bound_to 6896
  151.7915  133.3324  159.3537 H   0  0  0  0  0  0  0  0  0  0  0  0  # atno 6909 bound_to 6896
  144.7322  139.9212  143.6420 H   0  0  0  0  0  0  0  0  0  0  0  0  # atno 7974 bound_to 7965
  154.7405  140.0495  157.0807 H   0  0  0  0  0  0  0  0  0  0  0  0  # atno 8008 bound_to 7997
  155.0184  140.3144  155.4783 H   0  0  0  0  0  0  0  0  0  0  0  0  # atno 8009 bound_to 7997
  156.2863  140.2171  156.5301 H   0  0  0  0  0  0  0  0  0  0  0  0  # atno 8010 bound_to 7997
  139.4989  144.6093  151.6308 H   0  0  0  0  0  0  0  0  0  0  0  0  # atno 10167 bound_to 10162
  156.0297  130.5506  150.7370 H   0  0  0  0  0  0  0  0  0  0  0  0  # atno 10718 bound_to 10713
  154.8195  135.4599  154.0738 H   0  0  0  0  0  0  0  0  0  0  0  0  # atno 10763 bound_to 10752
  153.2103  135.6881  153.8128 H   0  0  0  0  0  0  0  0  0  0  0  0  # atno 10764 bound_to 10752
  153.7582  135.3288  155.3309 H   0  0  0  0  0  0  0  0  0  0  0  0  # atno 10765 bound_to 10752
  140.0440  134.9290  157.0896 H   0  0  0  0  0  0  0  0  0  0  0  0  # atno 11005 bound_to 11000
  146.0928  139.3918  143.0395 LP  0  0  0  0  0  0  0  0  0  0  0  0  # atno 17320 bound_to 7965
  145.7688  140.9905  143.1161 LP  0  0  0  0  0  0  0  0  0  0  0  0  # atno 17321 bound_to 7965
  140.5763  144.0022  150.6243 LP  0  0  0  0  0  0  0  0  0  0  0  0  # atno 17342 bound_to 10162
  140.3157  143.3169  152.0835 LP  0  0  0  0  0  0  0  0  0  0  0  0  # atno 17343 bound_to 10162
  157.4948  131.0914  151.0384 LP  0  0  0  0  0  0  0  0  0  0  0  0  # atno 17370 bound_to 10713
  157.0781  130.5891  149.5415 LP  0  0  0  0  0  0  0  0  0  0  0  0  # atno 17371 bound_to 10713
  140.4023  134.2069  155.7163 LP  0  0  0  0  0  0  0  0  0  0  0  0  # atno 17394 bound_to 11000
  141.1897  133.8232  157.0945 LP  0  0  0  0  0  0  0  0  0  0  0  0  # atno 17395 bound_to 11000

$$$$
