AV-unprocessed.smi:1740|AV-procd|sdf|7008|dock7
  -GOLD-   22720 8223D 1   1.00000     0.00000
 Structure written by MMmdl.
 52 54  0  0  0  0  0  0  0  0  2 V2000
  144.7858  135.6943  149.5593 N   0  0  0  0  0  0  0  0  0  0  0  0
  144.4458  135.2004  150.7518 C   0  0  0  0  0  0  0  0  0  0  0  0
  143.9653  135.9028  151.6394 O   0  0  0  0  0  0  0  0  0  0  0  0
  144.6625  133.6986  150.9655 C   0  0  0  0  0  0  0  0  0  0  0  0
  145.6001  133.3987  152.0784 N   0  3  2  0  0  0  0  0  0  0  0  0
  145.2661  134.1227  153.3344 C   0  0  0  0  0  0  0  0  0  0  0  0
  146.1742  133.6733  154.4931 C   0  0  0  0  0  0  0  0  0  0  0  0
  147.6680  133.8344  154.1511 C   0  0  2  0  0  0  0  0  0  0  0  0
  148.0611  135.2423  154.1038 N   0  0  0  0  0  0  0  0  0  0  0  0
  149.1546  135.7624  154.6793 C   0  0  0  0  0  0  0  0  0  0  0  0
  149.9605  135.0984  155.3304 O   0  0  0  0  0  0  0  0  0  0  0  0
  149.2471  137.0803  154.4356 N   0  0  0  0  0  0  0  0  0  0  0  0
  150.2947  137.9758  154.7940 C   0  0  0  0  0  0  0  0  0  0  0  0
  151.5481  137.5100  155.2627 C   0  0  0  0  0  0  0  0  0  0  0  0
  152.5231  138.4388  155.6646 C   0  0  0  0  0  0  0  0  0  0  0  0
  152.2059  139.8056  155.6002 C   0  0  0  0  0  0  0  0  0  0  0  0
  151.0137  140.2650  155.1710 N   0  0  0  0  0  0  0  0  0  0  0  0
  150.0678  139.3821  154.7659 C   0  0  0  0  0  0  0  0  0  0  0  0
  148.8421  139.9220  154.3125 N   0  0  0  0  0  0  0  0  0  0  0  0
  148.7964  141.3479  154.0010 C   0  0  0  0  0  0  0  0  0  0  0  0
  147.4115  141.8426  154.4322 C   0  0  0  0  0  0  0  0  0  0  0  0
  146.5703  140.5706  154.4769 C   0  0  0  0  0  0  0  0  0  0  0  0
  147.5841  139.5276  154.9379 C   0  0  0  0  0  0  0  0  0  0  0  0
  147.9734  133.1442  152.8107 C   0  0  0  0  0  0  0  0  0  0  0  0
  147.0197  133.6019  151.6921 C   0  0  0  0  0  0  0  0  0  0  0  0
  144.6548  136.6779  149.3691 H   0  0  0  0  0  0  0  0  0  0  0  0
  145.1661  135.0880  148.8469 H   0  0  0  0  0  0  0  0  0  0  0  0
  143.6830  133.2724  151.1863 H   0  0  0  0  0  0  0  0  0  0  0  0
  145.0097  133.2253  150.0453 H   0  0  0  0  0  0  0  0  0  0  0  0
  145.3629  135.1976  153.1745 H   0  0  0  0  0  0  0  0  0  0  0  0
  144.2264  133.9404  153.6078 H   0  0  0  0  0  0  0  0  0  0  0  0
  145.9268  134.2270  155.3996 H   0  0  0  0  0  0  0  0  0  0  0  0
  145.9702  132.6253  154.7164 H   0  0  0  0  0  0  0  0  0  0  0  0
  148.2602  133.3412  154.9243 H   0  0  0  0  0  0  0  0  0  0  0  0
  147.4630  135.8660  153.5821 H   0  0  0  0  0  0  0  0  0  0  0  0
  148.5463  137.4682  153.8214 H   0  0  0  0  0  0  0  0  0  0  0  0
  151.7712  136.4576  155.3436 H   0  0  0  0  0  0  0  0  0  0  0  0
  153.4862  138.1104  156.0262 H   0  0  0  0  0  0  0  0  0  0  0  0
  152.9251  140.5503  155.9079 H   0  0  0  0  0  0  0  0  0  0  0  0
  149.5911  141.9042  154.5003 H   0  0  0  0  0  0  0  0  0  0  0  0
  148.9169  141.4773  152.9253 H   0  0  0  0  0  0  0  0  0  0  0  0
  147.4718  142.2752  155.4317 H   0  0  0  0  0  0  0  0  0  0  0  0
  147.0044  142.6002  153.7620 H   0  0  0  0  0  0  0  0  0  0  0  0
  145.7090  140.6494  155.1407 H   0  0  0  0  0  0  0  0  0  0  0  0
  146.2096  140.3257  153.4769 H   0  0  0  0  0  0  0  0  0  0  0  0
  147.2919  138.5195  154.6430 H   0  0  0  0  0  0  0  0  0  0  0  0
  147.6645  139.5580  156.0252 H   0  0  0  0  0  0  0  0  0  0  0  0
  149.0090  133.3248  152.5190 H   0  0  0  0  0  0  0  0  0  0  0  0
  147.8797  132.0646  152.9365 H   0  0  0  0  0  0  0  0  0  0  0  0
  147.2389  133.0354  150.7864 H   0  0  0  0  0  0  0  0  0  0  0  0
  147.1866  134.6537  151.4547 H   0  0  0  0  0  0  0  0  0  0  0  0
  145.4962  132.4123  152.2712 H   0  0  0  0  0  0  0  0  0  0  0  0
  1  2  1  0  0  0  0
  1 26  1  0  0  0  0
  1 27  1  0  0  0  0
  2  3  2  0  0  0  0
  2  4  1  0  0  0  0
  4  5  1  0  0  0  0
  4 28  1  0  0  0  0
  4 29  1  0  0  0  0
  5 25  1  0  0  0  0
  5  6  1  0  0  0  0
  5 52  1  0  0  0  0
  6  7  1  0  0  0  0
  6 30  1  0  0  0  0
  6 31  1  0  0  0  0
  7  8  1  0  0  0  0
  7 32  1  0  0  0  0
  7 33  1  0  0  0  0
  8  9  1  0  0  0  0
  8 24  1  0  0  0  0
  8 34  1  0  0  0  0
  9 10  1  0  0  0  0
  9 35  1  0  0  0  0
 10 11  2  0  0  0  0
 10 12  1  0  0  0  0
 12 13  1  0  0  0  0
 12 36  1  0  0  0  0
 13 18  1  0  0  0  0
 13 14  2  0  0  0  0
 14 15  1  0  0  0  0
 14 37  1  0  0  0  0
 15 16  2  0  0  0  0
 15 38  1  0  0  0  0
 16 17  1  0  0  0  0
 16 39  1  0  0  0  0
 17 18  2  0  0  0  0
 18 19  1  0  0  0  0
 19 23  1  0  0  0  0
 19 20  1  0  0  0  0
 20 21  1  0  0  0  0
 20 40  1  0  0  0  0
 20 41  1  0  0  0  0
 21 22  1  0  0  0  0
 21 42  1  0  0  0  0
 21 43  1  0  0  0  0
 22 23  1  0  0  0  0
 22 44  1  0  0  0  0
 22 45  1  0  0  0  0
 23 46  1  0  0  0  0
 23 47  1  0  0  0  0
 24 25  1  0  0  0  0
 24 48  1  0  0  0  0
 24 49  1  0  0  0  0
 25 50  1  0  0  0  0
 25 51  1  0  0  0  0
M  CHG  1   5   1
M  END
> <s_m_source_file>
AV-unprocessed.smi

> <i_m_source_file_index>
1740

> <i_lp_mmshare_version>
43012

> <i_f3d_flags>
0

> <s_epik_input>
W05IMl1DKD1PKVtDSDJdTjFbQ0gyXVtDSDJdW0NIXShbQ0gyXVtDSDJdMSlbTkhdQyg9TylbTkhdYzJbY0hdW2NIXVtjSF1uYzJOM1tDSDJdW0NIMl1bQ0gyXVtDSDJdMw==

> <s_epik_cmdline>
J2VwaWtfcHl0aG9uJywgJy1waCcsICc3LjAnLCAnLXRuJywgJzgnLCAnLW1hJywgJzIwMCcsICctbWV0YWxfYmluZGluZycsICctaW1hZScsICc8aW5maWxlLm1hZT4nLCAnLW9tYWUnLCAnPG91dGZpbGUubWFlPic=

> <r_lp_tautomer_probability>
1

> <r_epik_Ionization_Penalty>
0.91661

> <r_epik_Ionization_Penalty_Charging>
0.838844

> <r_epik_Ionization_Penalty_Neutral>
0.0777664

> <r_epik_State_Penalty>
0.927046

> <r_epik_Charging_Adjusted_Penalty>
1.76589

> <i_epik_Tot_Q>
1

> <i_epik_Tot_abs_Q>
1

> <r_epik_Metal_State_Penalty>
0.950555

> <b_epik_Metal_Only>
0

> <s_lp_Force_Field>
OPLS_2005

> <r_lp_Energy>
41.6121

> <b_lp_Chiralities_Consistent>
1

> <s_lp_Variant>
AV-unprocessed.smi:1740-3

> <Gold.Version>
5.8.1

> <Gold.Id.Protein>
6NUR|6NUR_protein|mol2

> <Gold.PLP.Fitness>
45.2093

> <Gold.PLP.PLP>
-37.6865

> <Gold.PLP.part.hbond>
-5.0000

> <Gold.PLP.part.metal>
0.0000

> <Gold.PLP.part.buried>
-3.1493

> <Gold.PLP.part.nonpolar>
-30.1036

> <Gold.PLP.part.repulsive>
0.5821

> <Gold.PLP.ligand.clash>
0.0000

> <Gold.PLP.ligand.torsion>
0.5259

> <Gold.PLP.Chemscore.Hbond>
2.7413

> <Gold.PLP.Chemscore.CHOScore>
0.0000

> <Gold.PLP.Chemscore.Metal>
0.0000

> <Gold.Chemscore.Hbonds>
donor molecule, donor type, donor heavy atom, donor atom, acceptor molecule, acceptor atom, score
      L1  H     1    26       P1 10171  0.89
      L1  H     1    27       P1  7921  1.00
      P1  H  7989  7998       L1    17  0.80

> <Gold.PLP.Chemscore.Internal.Correction>
0.3509

> <Gold.Rescore>
     Score         DG    S(hbond)    S(metal)    S(lipo)     H(rot)  DE(clash)    DE(int)     intcor
     10.44     -14.56       2.02        0.00      67.93       2.19       0.03       4.10       ----

> <Gold.Chemscore.Fitness>
10.4406

> <Gold.Chemscore.DG>
-14.5646

> <Gold.Chemscore.ZeroCoef>
-5.4800

> <Gold.Chemscore.Hbond>
2.0220

> <Gold.Chemscore.Metal>
0.0000

> <Gold.Chemscore.Lipo>
67.9273

> <Gold.Chemscore.Internal_Hbond>
0.0000

> <Gold.Chemscore.DEClash>
0.0255

> <Gold.Chemscore.DEInternal>
4.0985

> <Gold.Chemscore.Rot>
2.1939

> <Gold.Chemscore.Internal.Correction>
   9.000000E+99

> <Gold.Chemscore.Hbonds>
donor molecule, donor type, donor heavy atom, donor atom, acceptor molecule, acceptor atom, score
      L1  H     1    26       P1 10171  0.83
      L1  H     1    27       P1  7921  0.92
      L1  H     9    35       P1  7948  0.01
      L1  H    12    36       P1  7948  0.01
      P1  H  7989  7998       L1    17  0.03

> <Gold.Chemscore.Hbond.Weighted>
-6.7534

> <Gold.Chemscore.Metal.Weighted>
-0.0000

> <Gold.Chemscore.Lipo.Weighted>
-7.9475

> <Gold.Chemscore.Internal_Hbond.Weighted>
0.0000

> <Gold.Chemscore.DEClash.Weighted>
0.0255

> <Gold.Chemscore.DEInternal.Weighted>
4.0985

> <Gold.Chemscore.Rot.Weighted>
5.6163

> <Gold.Chemscore.Internal.Correction.Weighted>
   9.000000E+99

> <Gold.Protein.RotatedTorsions>
[ 6907 6896 6895 6894 ] final   88.56 input  -60.11 | X-H torsion
[ 7974 7965 7964 7962 ] final -130.35 input  175.53 | X-H torsion
[ 8008 7997 7996 7995 ] final  -95.98 input   59.86 | X-H torsion
[ 10167 10162 10161 10158 ] final   81.67 input  -65.29 | X-H torsion
[ 10718 10713 10712 10709 ] final  136.07 input   66.30 | X-H torsion
[ 10763 10752 10751 10750 ] final  -85.95 input  -60.55 | X-H torsion
[ 11005 11000 10999 10996 ] final   23.70 input  -57.11 | X-H torsion

> <Gold.Protein.ActiveResidues>
 VAL166  LYS551  ARG553  GLY616  TRP617  ASP618  TYR619  PRO620  LYS621  CYS622 
 ASP623  PHE694  ASN695  SER759  ASP760  ASP761  ALA762  ILE779  LEU786  VAL792 
 PHE793  MET794  SER795  GLU796  ALA797  LYS798  CYS799  TRP800  GLU811  SER814 

> <Gold.Protein.RotatedAtoms>
  152.5426  134.2103  159.8747 H   0  0  0  0  0  0  0  0  0  0  0  0  # atno 6907 bound_to 6896
  151.2086  133.4562  159.2605 H   0  0  0  0  0  0  0  0  0  0  0  0  # atno 6908 bound_to 6896
  151.0919  134.9934  159.8462 H   0  0  0  0  0  0  0  0  0  0  0  0  # atno 6909 bound_to 6896
  144.9483  140.7316  143.4804 H   0  0  0  0  0  0  0  0  0  0  0  0  # atno 7974 bound_to 7965
  154.7684  140.0475  157.1031 H   0  0  0  0  0  0  0  0  0  0  0  0  # atno 8008 bound_to 7997
  154.9851  140.3106  155.4910 H   0  0  0  0  0  0  0  0  0  0  0  0  # atno 8009 bound_to 7997
  156.2917  140.2229  156.4952 H   0  0  0  0  0  0  0  0  0  0  0  0  # atno 8010 bound_to 7997
  139.9368  144.6116  150.8291 H   0  0  0  0  0  0  0  0  0  0  0  0  # atno 10167 bound_to 10162
  157.4505  131.1065  151.0038 H   0  0  0  0  0  0  0  0  0  0  0  0  # atno 10718 bound_to 10713
  154.6169  135.5467  153.7533 H   0  0  0  0  0  0  0  0  0  0  0  0  # atno 10763 bound_to 10752
  153.0220  135.6403  154.1497 H   0  0  0  0  0  0  0  0  0  0  0  0  # atno 10764 bound_to 10752
  154.1433  135.2907  155.3135 H   0  0  0  0  0  0  0  0  0  0  0  0  # atno 10765 bound_to 10752
  140.3668  134.2066  155.7669 H   0  0  0  0  0  0  0  0  0  0  0  0  # atno 11005 bound_to 11000
  145.2884  139.1892  143.4753 LP  0  0  0  0  0  0  0  0  0  0  0  0  # atno 17320 bound_to 7965
  146.3311  140.2857  142.8612 LP  0  0  0  0  0  0  0  0  0  0  0  0  # atno 17321 bound_to 7965
  140.7622  143.3193  151.2660 LP  0  0  0  0  0  0  0  0  0  0  0  0  # atno 17342 bound_to 10162
  139.6737  143.9975  152.2768 LP  0  0  0  0  0  0  0  0  0  0  0  0  # atno 17343 bound_to 10162
  157.0870  130.5926  149.5432 LP  0  0  0  0  0  0  0  0  0  0  0  0  # atno 17370 bound_to 10713
  155.9985  130.5059  150.7574 LP  0  0  0  0  0  0  0  0  0  0  0  0  # atno 17371 bound_to 10713
  141.1967  133.8076  157.0660 LP  0  0  0  0  0  0  0  0  0  0  0  0  # atno 17394 bound_to 11000
  140.0583  134.9768  157.1260 LP  0  0  0  0  0  0  0  0  0  0  0  0  # atno 17395 bound_to 11000

$$$$
