AV-unprocessed.smi:699|AV-procd|sdf|3401|dock3
  -GOLD-   22720 0383D 1   1.00000     0.00000
 Structure written by MMmdl.
 34 35  0  0  0  0  0  0  0  0  1 V2000
  149.5018  138.2634  153.4805 N   0  0  0  0  0  0  0  0  0  0  0  0
  149.3109  139.4434  154.0757 C   0  0  0  0  0  0  0  0  0  0  0  0
  150.0743  139.8641  154.9436 O   0  0  0  0  0  0  0  0  0  0  0  0
  148.0764  140.2582  153.6317 C   0  0  2  0  0  0  0  0  0  0  0  0
  147.6642  141.2662  154.7151 C   0  0  0  0  0  0  0  0  0  0  0  0
  146.6988  140.5166  155.6373 C   0  0  0  0  0  0  0  0  0  0  0  0
  146.0255  139.4507  154.7637 C   0  0  0  0  0  0  0  0  0  0  0  0
  146.7801  139.4302  153.4205 C   0  0  2  0  0  0  0  0  0  0  0  0
  146.9947  138.0588  152.9547 N   0  0  0  0  0  0  0  0  0  0  0  0
  146.0513  137.2730  152.4161 C   0  0  0  0  0  0  0  0  0  0  0  0
  144.8828  137.6286  152.2647 O   0  0  0  0  0  0  0  0  0  0  0  0
  146.5554  136.0724  152.0814 N   0  0  0  0  0  0  0  0  0  0  0  0
  145.9041  134.9604  151.4797 C   0  0  0  0  0  0  0  0  0  0  0  0
  146.6964  133.8396  151.1553 C   0  0  0  0  0  0  0  0  0  0  0  0
  146.0839  132.7261  150.5462 C   0  0  0  0  0  0  0  0  0  0  0  0
  144.7692  132.6749  150.2469 N   0  0  0  0  0  0  0  0  0  0  0  0
  144.0138  133.7523  150.5467 C   0  0  0  0  0  0  0  0  0  0  0  0
  144.5263  134.9158  151.1555 C   0  0  0  0  0  0  0  0  0  0  0  0
  150.2944  137.6939  153.7392 H   0  0  0  0  0  0  0  0  0  0  0  0
  148.8532  137.9430  152.7759 H   0  0  0  0  0  0  0  0  0  0  0  0
  148.3293  140.7868  152.7109 H   0  0  0  0  0  0  0  0  0  0  0  0
  148.5107  141.6835  155.2628 H   0  0  0  0  0  0  0  0  0  0  0  0
  147.1446  142.1028  154.2462 H   0  0  0  0  0  0  0  0  0  0  0  0
  147.2546  140.0340  156.4419 H   0  0  0  0  0  0  0  0  0  0  0  0
  145.9753  141.1873  156.1013 H   0  0  0  0  0  0  0  0  0  0  0  0
  146.0662  138.4839  155.2678 H   0  0  0  0  0  0  0  0  0  0  0  0
  144.9721  139.6829  154.6035 H   0  0  0  0  0  0  0  0  0  0  0  0
  146.1622  139.9535  152.6880 H   0  0  0  0  0  0  0  0  0  0  0  0
  147.9313  137.6915  153.0408 H   0  0  0  0  0  0  0  0  0  0  0  0
  147.5230  135.9203  152.3252 H   0  0  0  0  0  0  0  0  0  0  0  0
  147.7550  133.8268  151.3704 H   0  0  0  0  0  0  0  0  0  0  0  0
  146.6673  131.8538  150.2913 H   0  0  0  0  0  0  0  0  0  0  0  0
  142.9673  133.6887  150.2882 H   0  0  0  0  0  0  0  0  0  0  0  0
  143.8578  135.7402  151.3466 H   0  0  0  0  0  0  0  0  0  0  0  0
  1  2  1  0  0  0  0
  1 19  1  0  0  0  0
  1 20  1  0  0  0  0
  2  3  2  0  0  0  0
  2  4  1  0  0  0  0
  4  8  1  0  0  0  0
  4  5  1  0  0  0  0
  4 21  1  0  0  0  0
  5  6  1  0  0  0  0
  5 22  1  0  0  0  0
  5 23  1  0  0  0  0
  6  7  1  0  0  0  0
  6 24  1  0  0  0  0
  6 25  1  0  0  0  0
  7  8  1  0  0  0  0
  7 26  1  0  0  0  0
  7 27  1  0  0  0  0
  8  9  1  0  0  0  0
  8 28  1  0  0  0  0
  9 10  1  0  0  0  0
  9 29  1  0  0  0  0
 10 11  2  0  0  0  0
 10 12  1  0  0  0  0
 12 13  1  0  0  0  0
 12 30  1  0  0  0  0
 13 18  1  0  0  0  0
 13 14  2  0  0  0  0
 14 15  1  0  0  0  0
 14 31  1  0  0  0  0
 15 16  2  0  0  0  0
 15 32  1  0  0  0  0
 16 17  1  0  0  0  0
 17 18  2  0  0  0  0
 17 33  1  0  0  0  0
 18 34  1  0  0  0  0
M  END
> <s_m_source_file>
AV-unprocessed.smi

> <i_m_source_file_index>
699

> <i_lp_mmshare_version>
43012

> <i_f3d_flags>
0

> <s_epik_input>
W05IMl1DKD1PKVtDQEBIXTFbQ0gyXVtDSDJdW0NIMl1bQ0BIXTFbTkhdQyg9TylbTkhdYzJbY0hdW2NIXW5bY0hdW2NIXTI=

> <s_epik_cmdline>
J2VwaWtfcHl0aG9uJywgJy1waCcsICc3LjAnLCAnLXRuJywgJzgnLCAnLW1hJywgJzIwMCcsICctbWV0YWxfYmluZGluZycsICctaW1hZScsICc8aW5maWxlLm1hZT4nLCAnLW9tYWUnLCAnPG91dGZpbGUubWFlPic=

> <r_epik_Ionization_Penalty>
0.113907

> <r_epik_Ionization_Penalty_Charging>
0

> <r_epik_Ionization_Penalty_Neutral>
0.113907

> <r_epik_State_Penalty>
0.103543

> <r_epik_Charging_Adjusted_Penalty>
0.103543

> <i_epik_Tot_Q>
0

> <i_epik_Tot_abs_Q>
0

> <r_epik_Metal_State_Penalty>
0.0867106

> <b_epik_Metal_Only>
0

> <s_lp_Force_Field>
OPLS_2005

> <r_lp_Energy>
19.4055

> <b_lp_Chiralities_Consistent>
1

> <s_lp_Variant>
AV-unprocessed.smi:699-3

> <Gold.Version>
5.8.1

> <Gold.Id.Protein>
6NUR|6NUR_protein|mol2

> <Gold.PLP.Fitness>
37.5320

> <Gold.PLP.PLP>
-24.3591

> <Gold.PLP.part.hbond>
-4.7414

> <Gold.PLP.part.metal>
0.0000

> <Gold.PLP.part.buried>
-0.7358

> <Gold.PLP.part.nonpolar>
-20.0540

> <Gold.PLP.part.repulsive>
0.6104

> <Gold.PLP.ligand.clash>
0.0000

> <Gold.PLP.ligand.torsion>
0.7679

> <Gold.PLP.Chemscore.Hbond>
2.9015

> <Gold.PLP.Chemscore.CHOScore>
1.9949

> <Gold.PLP.Chemscore.Metal>
0.0000

> <Gold.Chemscore.Hbonds>
donor molecule, donor type, donor heavy atom, donor atom, acceptor molecule, acceptor atom, score
      L1  H     1    20       P1  7948  0.50
      L1  H     9    29       P1  7948  0.46
      L1  H    12    30       P1  7948  0.81
      P1  H  7989  7998       L1     3  0.18
      L1  C    15    32       P1 10747  1.00
      L1  C    17    33       P1 10186  1.00

> <Gold.PLP.Chemscore.Internal.Correction>
0.0195

> <Gold.Rescore>
     Score         DG    S(hbond)    S(metal)    S(lipo)     H(rot)  DE(clash)    DE(int)     intcor
      9.88     -16.99       2.70        0.00      53.95       1.49       3.61       3.50       ----

> <Gold.Chemscore.Fitness>
9.8799

> <Gold.Chemscore.DG>
-16.9862

> <Gold.Chemscore.ZeroCoef>
-5.4800

> <Gold.Chemscore.Hbond>
2.6966

> <Gold.Chemscore.Metal>
0.0000

> <Gold.Chemscore.Lipo>
53.9476

> <Gold.Chemscore.Internal_Hbond>
0.0000

> <Gold.Chemscore.DEClash>
3.6086

> <Gold.Chemscore.DEInternal>
3.4977

> <Gold.Chemscore.Rot>
1.4892

> <Gold.Chemscore.Internal.Correction>
   9.000000E+99

> <Gold.Chemscore.Hbonds>
donor molecule, donor type, donor heavy atom, donor atom, acceptor molecule, acceptor atom, score
      L1  H     1    20       P1  7948  0.50
      L1  H     9    29       P1  7948  0.45
      L1  H    12    30       P1  7948  0.74
      P1  H  7989  7998       L1     3  0.03

> <Gold.Chemscore.Hbond.Weighted>
-9.0066

> <Gold.Chemscore.Metal.Weighted>
-0.0000

> <Gold.Chemscore.Lipo.Weighted>
-6.3119

> <Gold.Chemscore.Internal_Hbond.Weighted>
0.0000

> <Gold.Chemscore.DEClash.Weighted>
3.6086

> <Gold.Chemscore.DEInternal.Weighted>
3.4977

> <Gold.Chemscore.Rot.Weighted>
3.8123

> <Gold.Chemscore.Internal.Correction.Weighted>
   9.000000E+99

> <Gold.Protein.RotatedTorsions>
[ 6907 6896 6895 6894 ] final  -36.25 input  -60.11 | X-H torsion
[ 7974 7965 7964 7962 ] final   54.26 input  175.53 | X-H torsion
[ 8008 7997 7996 7995 ] final  145.16 input   59.86 | X-H torsion
[ 10167 10162 10161 10158 ] final   69.99 input  -65.29 | X-H torsion
[ 10718 10713 10712 10709 ] final  -50.54 input   66.30 | X-H torsion
[ 10763 10752 10751 10750 ] final -174.40 input  -60.55 | X-H torsion
[ 11005 11000 10999 10996 ] final  -96.11 input  -57.11 | X-H torsion

> <Gold.Protein.ActiveResidues>
 VAL166  LYS551  ARG553  GLY616  TRP617  ASP618  TYR619  PRO620  LYS621  CYS622 
 ASP623  PHE694  ASN695  SER759  ASP760  ASP761  ALA762  ILE779  LEU786  VAL792 
 PHE793  MET794  SER795  GLU796  ALA797  LYS798  CYS799  TRP800  GLU811  SER814 

> <Gold.Protein.RotatedAtoms>
  151.0295  134.9529  159.8103 H   0  0  0  0  0  0  0  0  0  0  0  0  # atno 6907 bound_to 6896
  152.5342  134.2799  159.9013 H   0  0  0  0  0  0  0  0  0  0  0  0  # atno 6908 bound_to 6896
  151.2808  133.4168  159.2661 H   0  0  0  0  0  0  0  0  0  0  0  0  # atno 6909 bound_to 6896
  145.9627  139.4074  143.0238 H   0  0  0  0  0  0  0  0  0  0  0  0  # atno 7974 bound_to 7965
  156.2890  140.2216  156.5169 H   0  0  0  0  0  0  0  0  0  0  0  0  # atno 8008 bound_to 7997
  154.7561  140.0477  157.0956 H   0  0  0  0  0  0  0  0  0  0  0  0  # atno 8009 bound_to 7997
  155.0049  140.3106  155.4856 H   0  0  0  0  0  0  0  0  0  0  0  0  # atno 8010 bound_to 7997
  140.0618  144.5226  150.7289 H   0  0  0  0  0  0  0  0  0  0  0  0  # atno 10167 bound_to 10162
  156.1792  130.4150  149.9532 H   0  0  0  0  0  0  0  0  0  0  0  0  # atno 10718 bound_to 10713
  154.5967  135.2850  155.0579 H   0  0  0  0  0  0  0  0  0  0  0  0  # atno 10763 bound_to 10752
  154.1859  135.6449  153.5050 H   0  0  0  0  0  0  0  0  0  0  0  0  # atno 10764 bound_to 10752
  153.0141  135.5434  154.6671 H   0  0  0  0  0  0  0  0  0  0  0  0  # atno 10765 bound_to 10752
  141.1421  133.8074  157.0527 H   0  0  0  0  0  0  0  0  0  0  0  0  # atno 11005 bound_to 11000
  145.8018  140.9767  143.0995 LP  0  0  0  0  0  0  0  0  0  0  0  0  # atno 17320 bound_to 7965
  144.6818  139.9811  143.7483 LP  0  0  0  0  0  0  0  0  0  0  0  0  # atno 17321 bound_to 7965
  140.7168  143.2552  151.4408 LP  0  0  0  0  0  0  0  0  0  0  0  0  # atno 17342 bound_to 10162
  139.5889  144.1543  152.2064 LP  0  0  0  0  0  0  0  0  0  0  0  0  # atno 17343 bound_to 10162
  156.7308  130.9042  151.3625 LP  0  0  0  0  0  0  0  0  0  0  0  0  # atno 17370 bound_to 10713
  157.6856  130.9182  150.0378 LP  0  0  0  0  0  0  0  0  0  0  0  0  # atno 17371 bound_to 10713
  140.0621  134.9749  157.1323 LP  0  0  0  0  0  0  0  0  0  0  0  0  # atno 17394 bound_to 11000
  140.3833  134.2264  155.7170 LP  0  0  0  0  0  0  0  0  0  0  0  0  # atno 17395 bound_to 11000

$$$$
