AV-unprocessed.smi:2919|AV-procd|sdf|11192|dock2
  -GOLD-   2272016 83D 1   1.00000     0.00000
 Structure written by MMmdl.
 34 36  0  0  0  0  0  0  0  0  1 V2000
  147.7972  140.4451  153.7585 C   0  0  0  0  0  0  0  0  0  0  0  0
  148.8796  140.6743  154.7986 C   0  0  0  0  0  0  0  0  0  0  0  0
  148.6277  141.6732  155.6729 N   0  0  0  0  0  0  0  0  0  0  0  0
  149.5054  141.9688  156.6328 N   0  0  0  0  0  0  0  0  0  0  0  0
  150.6662  141.2799  156.7526 C   0  0  0  0  0  0  0  0  0  0  0  0
  151.5413  141.6511  157.7904 N   0  0  0  0  0  0  0  0  0  0  0  0
  151.2665  142.7964  158.6518 C   0  0  2  0  0  0  0  0  0  0  0  0
  151.3733  144.1404  157.9194 C   0  0  0  0  0  0  0  0  0  0  0  0
  152.4070  144.8857  158.7725 C   0  0  1  0  0  0  0  0  0  0  0  0
  151.8617  145.2537  160.1592 C   0  0  0  0  0  0  0  0  0  0  0  0
  151.8450  143.8948  160.8588 C   0  0  0  0  0  0  0  0  0  0  0  0
  152.3358  142.9600  159.7454 C   0  0  2  0  0  0  0  0  0  0  0  0
  153.2707  143.8135  159.1050 O   0  0  0  0  0  0  0  0  0  0  0  0
  150.9942  140.2178  155.8703 C   0  0  0  0  0  0  0  0  0  0  0  0
  152.2469  139.4767  156.0043 C   0  0  0  0  0  0  0  0  0  0  0  0
  153.2386  138.8900  156.1103 N   0  0  0  0  0  0  0  0  0  0  0  0
  150.0638  139.8998  154.8490 C   0  0  0  0  0  0  0  0  0  0  0  0
  150.3336  138.7742  153.8536 C   0  0  0  0  0  0  0  0  0  0  0  0
  147.3947  139.4355  153.8432 H   0  0  0  0  0  0  0  0  0  0  0  0
  148.1986  140.5794  152.7539 H   0  0  0  0  0  0  0  0  0  0  0  0
  146.9692  141.1446  153.8820 H   0  0  0  0  0  0  0  0  0  0  0  0
  152.4628  141.2391  157.8285 H   0  0  0  0  0  0  0  0  0  0  0  0
  150.2863  142.6692  159.1140 H   0  0  0  0  0  0  0  0  0  0  0  0
  151.7471  144.0161  156.9019 H   0  0  0  0  0  0  0  0  0  0  0  0
  150.4194  144.6662  157.8663 H   0  0  0  0  0  0  0  0  0  0  0  0
  152.8953  145.7113  158.2541 H   0  0  0  0  0  0  0  0  0  0  0  0
  152.5349  145.9403  160.6736 H   0  0  0  0  0  0  0  0  0  0  0  0
  150.8753  145.7159  160.1060 H   0  0  0  0  0  0  0  0  0  0  0  0
  152.5394  143.8901  161.6997 H   0  0  0  0  0  0  0  0  0  0  0  0
  150.8571  143.6199  161.2302 H   0  0  0  0  0  0  0  0  0  0  0  0
  152.7537  142.0232  160.1161 H   0  0  0  0  0  0  0  0  0  0  0  0
  151.2452  138.9799  153.2917 H   0  0  0  0  0  0  0  0  0  0  0  0
  149.5318  138.6338  153.1310 H   0  0  0  0  0  0  0  0  0  0  0  0
  150.4639  137.8284  154.3807 H   0  0  0  0  0  0  0  0  0  0  0  0
  1  2  1  0  0  0  0
  1 19  1  0  0  0  0
  1 20  1  0  0  0  0
  1 21  1  0  0  0  0
  2 17  1  0  0  0  0
  2  3  2  0  0  0  0
  3  4  1  0  0  0  0
  4  5  2  0  0  0  0
  5  6  1  0  0  0  0
  5 14  1  0  0  0  0
  6  7  1  0  0  0  0
  6 22  1  0  0  0  0
  7 12  1  0  0  0  0
  7  8  1  0  0  0  0
  7 23  1  0  0  0  0
  8  9  1  0  0  0  0
  8 24  1  0  0  0  0
  8 25  1  0  0  0  0
  9 13  1  0  0  0  0
  9 10  1  0  0  0  0
  9 26  1  0  0  0  0
 10 11  1  0  0  0  0
 10 27  1  0  0  0  0
 10 28  1  0  0  0  0
 11 12  1  0  0  0  0
 11 29  1  0  0  0  0
 11 30  1  0  0  0  0
 12 13  1  0  0  0  0
 12 31  1  0  0  0  0
 14 15  1  0  0  0  0
 14 17  2  0  0  0  0
 15 16  3  0  0  0  0
 17 18  1  0  0  0  0
 18 32  1  0  0  0  0
 18 33  1  0  0  0  0
 18 34  1  0  0  0  0
M  END
> <s_m_source_file>
AV-unprocessed.smi

> <i_m_source_file_index>
2919

> <i_lp_mmshare_version>
43012

> <i_f3d_flags>
0

> <s_epik_input>
W0NIM11jMW5uYyhjKEMjTiljMVtDSDNdKVtOSF1bQ0BIXShbQ0gyXVtDQEBIXTIzKVtDQEBIXShPMylbQ0gyXVtDSDJdMg==

> <s_epik_cmdline>
J2VwaWtfcHl0aG9uJywgJy1waCcsICc3LjAnLCAnLXRuJywgJzgnLCAnLW1hJywgJzIwMCcsICctbWV0YWxfYmluZGluZycsICctaW1hZScsICc8aW5maWxlLm1hZT4nLCAnLW9tYWUnLCAnPG91dGZpbGUubWFlPic=

> <r_lp_tautomer_probability>
1

> <r_epik_Ionization_Penalty>
0.00143865

> <r_epik_Ionization_Penalty_Charging>
0

> <r_epik_Ionization_Penalty_Neutral>
0.00143865

> <r_epik_State_Penalty>
-0

> <r_epik_Charging_Adjusted_Penalty>
0

> <i_epik_Tot_Q>
0

> <i_epik_Tot_abs_Q>
0

> <r_epik_Metal_State_Penalty>
-0

> <b_epik_Metal_Only>
0

> <s_lp_Force_Field>
OPLS_2005

> <r_lp_Energy>
49.0133

> <b_lp_Chiralities_Consistent>
1

> <s_lp_Variant>
AV-unprocessed.smi:2919-1

> <Gold.Version>
5.8.1

> <Gold.Id.Protein>
6NUR|6NUR_protein|mol2

> <Gold.PLP.Fitness>
42.8550

> <Gold.PLP.PLP>
-39.9245

> <Gold.PLP.part.hbond>
-1.0000

> <Gold.PLP.part.metal>
0.0000

> <Gold.PLP.part.buried>
-2.7361

> <Gold.PLP.part.nonpolar>
-37.0737

> <Gold.PLP.part.repulsive>
2.0607

> <Gold.PLP.ligand.clash>
0.0000

> <Gold.PLP.ligand.torsion>
0.0447

> <Gold.PLP.Chemscore.Hbond>
1.0000

> <Gold.PLP.Chemscore.CHOScore>
0.0000

> <Gold.PLP.Chemscore.Metal>
0.0000

> <Gold.Chemscore.Hbonds>
donor molecule, donor type, donor heavy atom, donor atom, acceptor molecule, acceptor atom, score
      P1  H  7997  8009       L1    16  0.96

> <Gold.PLP.Chemscore.Internal.Correction>
0.0199

> <Gold.Rescore>
     Score         DG    S(hbond)    S(metal)    S(lipo)     H(rot)  DE(clash)    DE(int)     intcor
     17.38     -17.52       0.85        0.00     100.57       1.00       0.07       0.07       ----

> <Gold.Chemscore.Fitness>
17.3770

> <Gold.Chemscore.DG>
-17.5235

> <Gold.Chemscore.ZeroCoef>
-5.4800

> <Gold.Chemscore.Hbond>
0.8493

> <Gold.Chemscore.Metal>
0.0000

> <Gold.Chemscore.Lipo>
100.5704

> <Gold.Chemscore.Internal_Hbond>
0.0000

> <Gold.Chemscore.DEClash>
0.0725

> <Gold.Chemscore.DEInternal>
0.0740

> <Gold.Chemscore.Rot>
1.0000

> <Gold.Chemscore.Internal.Correction>
   9.000000E+99

> <Gold.Chemscore.Hbonds>
donor molecule, donor type, donor heavy atom, donor atom, acceptor molecule, acceptor atom, score
      P1  H  7997  8009       L1    16  0.41

> <Gold.Chemscore.Hbond.Weighted>
-2.8368

> <Gold.Chemscore.Metal.Weighted>
-0.0000

> <Gold.Chemscore.Lipo.Weighted>
-11.7667

> <Gold.Chemscore.Internal_Hbond.Weighted>
0.0000

> <Gold.Chemscore.DEClash.Weighted>
0.0725

> <Gold.Chemscore.DEInternal.Weighted>
0.0740

> <Gold.Chemscore.Rot.Weighted>
2.5600

> <Gold.Chemscore.Internal.Correction.Weighted>
   9.000000E+99

> <Gold.Protein.RotatedTorsions>
[ 6907 6896 6895 6894 ] final  166.42 input  -60.11 | X-H torsion
[ 7974 7965 7964 7962 ] final  155.73 input  175.53 | X-H torsion
[ 8008 7997 7996 7995 ] final -176.17 input   59.86 | X-H torsion
[ 10167 10162 10161 10158 ] final  147.37 input  -65.29 | X-H torsion
[ 10718 10713 10712 10709 ] final  104.96 input   66.30 | X-H torsion
[ 10763 10752 10751 10750 ] final -110.16 input  -60.55 | X-H torsion
[ 11005 11000 10999 10996 ] final  -14.30 input  -57.11 | X-H torsion

> <Gold.Protein.ActiveResidues>
 VAL166  LYS551  ARG553  GLY616  TRP617  ASP618  TYR619  PRO620  LYS621  CYS622 
 ASP623  PHE694  ASN695  SER759  ASP760  ASP761  ALA762  ILE779  LEU786  VAL792 
 PHE793  MET794  SER795  GLU796  ALA797  LYS798  CYS799  TRP800  GLU811  SER814 

> <Gold.Protein.RotatedAtoms>
  151.8792  133.3491  159.3760 H   0  0  0  0  0  0  0  0  0  0  0  0  # atno 6907 bound_to 6896
  150.7132  134.5036  159.5582 H   0  0  0  0  0  0  0  0  0  0  0  0  # atno 6908 bound_to 6896
  152.2584  134.8060  160.0485 H   0  0  0  0  0  0  0  0  0  0  0  0  # atno 6909 bound_to 6896
  144.8006  139.7108  143.6183 H   0  0  0  0  0  0  0  0  0  0  0  0  # atno 7974 bound_to 7965
  155.9916  140.1202  157.0633 H   0  0  0  0  0  0  0  0  0  0  0  0  # atno 8008 bound_to 7997
  154.4213  140.1124  156.5641 H   0  0  0  0  0  0  0  0  0  0  0  0  # atno 8009 bound_to 7997
  155.6335  140.3473  155.4693 H   0  0  0  0  0  0  0  0  0  0  0  0  # atno 8010 bound_to 7997
  139.4891  144.5760  151.6964 H   0  0  0  0  0  0  0  0  0  0  0  0  # atno 10167 bound_to 10162
  157.6722  131.0816  150.5785 H   0  0  0  0  0  0  0  0  0  0  0  0  # atno 10718 bound_to 10713
  154.8233  135.4574  154.0843 H   0  0  0  0  0  0  0  0  0  0  0  0  # atno 10763 bound_to 10752
  153.2178  135.6890  153.8043 H   0  0  0  0  0  0  0  0  0  0  0  0  # atno 10764 bound_to 10752
  153.7471  135.3304  155.3291 H   0  0  0  0  0  0  0  0  0  0  0  0  # atno 10765 bound_to 10752
  140.7850  133.8333  155.9327 H   0  0  0  0  0  0  0  0  0  0  0  0  # atno 11005 bound_to 11000
  146.2287  139.5771  142.9570 LP  0  0  0  0  0  0  0  0  0  0  0  0  # atno 17320 bound_to 7965
  145.5562  141.0409  143.2251 LP  0  0  0  0  0  0  0  0  0  0  0  0  # atno 17321 bound_to 7965
  140.5357  144.0660  150.6069 LP  0  0  0  0  0  0  0  0  0  0  0  0  # atno 17342 bound_to 10162
  140.3665  143.2878  152.0326 LP  0  0  0  0  0  0  0  0  0  0  0  0  # atno 17343 bound_to 10162
  156.6085  130.4373  149.5868 LP  0  0  0  0  0  0  0  0  0  0  0  0  # atno 17370 bound_to 10713
  156.2449  130.6873  151.1590 LP  0  0  0  0  0  0  0  0  0  0  0  0  # atno 17371 bound_to 10713
  140.9445  134.1858  157.4773 LP  0  0  0  0  0  0  0  0  0  0  0  0  # atno 17394 bound_to 11000
  139.8738  134.9885  156.5415 LP  0  0  0  0  0  0  0  0  0  0  0  0  # atno 17395 bound_to 11000

$$$$
