AV-unprocessed.smi:3162|AV-procd|sdf|12066|dock10
  -GOLD-   2272017493D 1   1.00000     0.00000
 Structure written by MMmdl.
 37 37  0  0  0  0  0  0  0  0  2 V2000
  147.0089  142.7972  154.2232 C   0  0  0  0  0  0  0  0  0  0  0  0
  147.7018  141.4257  154.2182 C   0  0  0  0  0  0  0  0  0  0  0  0
  149.1693  141.4464  154.6999 C   0  0  1  0  0  0  0  0  0  0  0  0
  149.2267  141.9276  156.1002 N   0  3  0  0  0  0  0  0  0  0  0  0
  150.5480  141.8516  156.7633 C   0  0  1  0  0  0  0  0  0  0  0  0
  151.3361  143.1640  156.5848 C   0  0  0  0  0  0  0  0  0  0  0  0
  150.3496  141.4800  158.2474 C   0  0  0  0  0  0  0  0  0  0  0  0
  151.5788  141.5358  159.0180 N   0  0  0  0  0  0  0  0  0  0  0  0
  152.3928  140.4958  159.4142 C   0  0  0  0  0  0  0  0  0  0  0  0
  153.4373  141.0340  160.1109 C   0  0  0  0  0  0  0  0  0  0  0  0
  154.5944  140.3300  160.7595 C   0  0  0  0  0  0  0  0  0  0  0  0
  153.1714  142.4325  160.0781 C   0  0  0  0  0  0  0  0  0  0  0  0
  152.0616  142.7297  159.4217 N   0  0  0  0  0  0  0  0  0  0  0  0
  149.8178  140.0577  154.6071 C   0  0  0  0  0  0  0  0  0  0  0  0
  149.0072  139.0146  154.4085 N   0  0  0  0  0  0  0  0  0  0  0  0
  151.0351  139.9250  154.7206 O   0  0  0  0  0  0  0  0  0  0  0  0
  145.9602  142.6989  153.9427 H   0  0  0  0  0  0  0  0  0  0  0  0
  147.4702  143.4872  153.5166 H   0  0  0  0  0  0  0  0  0  0  0  0
  147.0455  143.2530  155.2130 H   0  0  0  0  0  0  0  0  0  0  0  0
  147.1263  140.7574  154.8600 H   0  0  0  0  0  0  0  0  0  0  0  0
  147.6434  140.9970  153.2165 H   0  0  0  0  0  0  0  0  0  0  0  0
  149.7367  142.1261  154.0610 H   0  0  0  0  0  0  0  0  0  0  0  0
  148.8888  142.8784  156.1377 H   0  0  0  0  0  0  0  0  0  0  0  0
  151.1079  141.0424  156.2916 H   0  0  0  0  0  0  0  0  0  0  0  0
  152.3256  143.1000  157.0379 H   0  0  0  0  0  0  0  0  0  0  0  0
  150.8154  144.0041  157.0454 H   0  0  0  0  0  0  0  0  0  0  0  0
  151.4876  143.4032  155.5323 H   0  0  0  0  0  0  0  0  0  0  0  0
  149.6226  142.1490  158.7104 H   0  0  0  0  0  0  0  0  0  0  0  0
  149.9425  140.4712  158.3335 H   0  0  0  0  0  0  0  0  0  0  0  0
  152.1632  139.4681  159.1728 H   0  0  0  0  0  0  0  0  0  0  0  0
  155.4322  141.0050  160.9356 H   0  0  0  0  0  0  0  0  0  0  0  0
  154.9664  139.5120  160.1424 H   0  0  0  0  0  0  0  0  0  0  0  0
  154.3159  139.9049  161.7239 H   0  0  0  0  0  0  0  0  0  0  0  0
  153.7497  143.2363  160.5094 H   0  0  0  0  0  0  0  0  0  0  0  0
  149.3873  138.0818  154.3340 H   0  0  0  0  0  0  0  0  0  0  0  0
  148.0113  139.1633  154.3264 H   0  0  0  0  0  0  0  0  0  0  0  0
  148.5899  141.3475  156.6284 H   0  0  0  0  0  0  0  0  0  0  0  0
  1  2  1  0  0  0  0
  1 17  1  0  0  0  0
  1 18  1  0  0  0  0
  1 19  1  0  0  0  0
  2  3  1  0  0  0  0
  2 20  1  0  0  0  0
  2 21  1  0  0  0  0
  3  4  1  0  0  0  0
  3 14  1  0  0  0  0
  3 22  1  0  0  0  0
  4  5  1  0  0  0  0
  4 23  1  0  0  0  0
  4 37  1  0  0  0  0
  5  6  1  0  0  0  0
  5  7  1  0  0  0  0
  5 24  1  0  0  0  0
  6 25  1  0  0  0  0
  6 26  1  0  0  0  0
  6 27  1  0  0  0  0
  7  8  1  0  0  0  0
  7 28  1  0  0  0  0
  7 29  1  0  0  0  0
  8 13  1  0  0  0  0
  8  9  1  0  0  0  0
  9 10  2  0  0  0  0
  9 30  1  0  0  0  0
 10 11  1  0  0  0  0
 10 12  1  0  0  0  0
 11 31  1  0  0  0  0
 11 32  1  0  0  0  0
 11 33  1  0  0  0  0
 12 13  2  0  0  0  0
 12 34  1  0  0  0  0
 14 15  1  0  0  0  0
 14 16  2  0  0  0  0
 15 35  1  0  0  0  0
 15 36  1  0  0  0  0
M  CHG  1   4   1
M  END
> <s_m_source_file>
AV-unprocessed.smi

> <i_m_source_file_index>
3162

> <i_lp_mmshare_version>
43012

> <i_f3d_flags>
0

> <s_epik_input>
W0NIM11bQ0gyXVtDQEBIXShDKD1PKVtOSDJdKVtOSF1bQ0BIXShbQ0gzXSlbQ0gyXW4xW2NIXWMoW0NIM10pW2NIXW4x

> <s_epik_cmdline>
J2VwaWtfcHl0aG9uJywgJy1waCcsICc3LjAnLCAnLXRuJywgJzgnLCAnLW1hJywgJzIwMCcsICctbWV0YWxfYmluZGluZycsICctaW1hZScsICc8aW5maWxlLm1hZT4nLCAnLW9tYWUnLCAnPG91dGZpbGUubWFlPic=

> <r_lp_tautomer_probability>
1

> <r_epik_Ionization_Penalty>
0.112112

> <r_epik_Ionization_Penalty_Charging>
0.112102

> <r_epik_Ionization_Penalty_Neutral>
9.73799e-06

> <r_epik_State_Penalty>
0.101811

> <r_epik_Charging_Adjusted_Penalty>
0.213914

> <i_epik_Tot_Q>
1

> <i_epik_Tot_abs_Q>
1

> <r_epik_Metal_State_Penalty>
0.101821

> <b_epik_Metal_Only>
0

> <s_lp_Force_Field>
OPLS_2005

> <r_lp_Energy>
5.38077

> <b_lp_Chiralities_Consistent>
1

> <s_lp_Variant>
AV-unprocessed.smi:3162-4

> <Gold.Version>
5.8.1

> <Gold.Id.Protein>
6NUR|6NUR_protein|mol2

> <Gold.PLP.Fitness>
41.0428

> <Gold.PLP.PLP>
-34.1821

> <Gold.PLP.part.hbond>
-2.0000

> <Gold.PLP.part.metal>
0.0000

> <Gold.PLP.part.buried>
-2.0533

> <Gold.PLP.part.nonpolar>
-30.3254

> <Gold.PLP.part.repulsive>
0.1959

> <Gold.PLP.ligand.clash>
0.0573

> <Gold.PLP.ligand.torsion>
1.0631

> <Gold.PLP.Chemscore.Hbond>
3.0000

> <Gold.PLP.Chemscore.CHOScore>
0.0000

> <Gold.PLP.Chemscore.Metal>
0.0000

> <Gold.Chemscore.Hbonds>
donor molecule, donor type, donor heavy atom, donor atom, acceptor molecule, acceptor atom, score
      L1  H     4    23       P1  8028  2.00
      P1  H  7989  7998       L1    16  1.00

> <Gold.PLP.Chemscore.Internal.Correction>
0.0441

> <Gold.Rescore>
     Score         DG    S(hbond)    S(metal)    S(lipo)     H(rot)  DE(clash)    DE(int)     intcor
     10.41     -14.71       1.98        0.00      77.26       2.51       1.57       2.73       ----

> <Gold.Chemscore.Fitness>
10.4116

> <Gold.Chemscore.DG>
-14.7071

> <Gold.Chemscore.ZeroCoef>
-5.4800

> <Gold.Chemscore.Hbond>
1.9772

> <Gold.Chemscore.Metal>
0.0000

> <Gold.Chemscore.Lipo>
77.2572

> <Gold.Chemscore.Internal_Hbond>
0.0000

> <Gold.Chemscore.DEClash>
1.5675

> <Gold.Chemscore.DEInternal>
2.7281

> <Gold.Chemscore.Rot>
2.5062

> <Gold.Chemscore.Internal.Correction>
   9.000000E+99

> <Gold.Chemscore.Hbonds>
donor molecule, donor type, donor heavy atom, donor atom, acceptor molecule, acceptor atom, score
      L1  H     4    23       P1  8028  0.98
      P1  H  7989  7998       L1    16  0.40

> <Gold.Chemscore.Hbond.Weighted>
-6.6039

> <Gold.Chemscore.Metal.Weighted>
-0.0000

> <Gold.Chemscore.Lipo.Weighted>
-9.0391

> <Gold.Chemscore.Internal_Hbond.Weighted>
0.0000

> <Gold.Chemscore.DEClash.Weighted>
1.5675

> <Gold.Chemscore.DEInternal.Weighted>
2.7281

> <Gold.Chemscore.Rot.Weighted>
6.4159

> <Gold.Chemscore.Internal.Correction.Weighted>
   9.000000E+99

> <Gold.Protein.RotatedTorsions>
[ 6907 6896 6895 6894 ] final  179.01 input  -60.11 | X-H torsion
[ 7974 7965 7964 7962 ] final  -42.69 input  175.53 | X-H torsion
[ 8008 7997 7996 7995 ] final  146.57 input   59.86 | X-H torsion
[ 10167 10162 10161 10158 ] final  146.69 input  -65.29 | X-H torsion
[ 10718 10713 10712 10709 ] final -172.47 input   66.30 | X-H torsion
[ 10763 10752 10751 10750 ] final   14.45 input  -60.55 | X-H torsion
[ 11005 11000 10999 10996 ] final  110.99 input  -57.11 | X-H torsion

> <Gold.Protein.ActiveResidues>
 VAL166  LYS551  ARG553  GLY616  TRP617  ASP618  TYR619  PRO620  LYS621  CYS622 
 ASP623  PHE694  ASN695  SER759  ASP760  ASP761  ALA762  ILE779  LEU786  VAL792 
 PHE793  MET794  SER795  GLU796  ALA797  LYS798  CYS799  TRP800  GLU811  SER814 

> <Gold.Protein.RotatedAtoms>
  151.6786  133.3312  159.3213 H   0  0  0  0  0  0  0  0  0  0  0  0  # atno 6907 bound_to 6896
  150.7833  134.6800  159.6448 H   0  0  0  0  0  0  0  0  0  0  0  0  # atno 6908 bound_to 6896
  152.3897  134.6465  160.0164 H   0  0  0  0  0  0  0  0  0  0  0  0  # atno 6909 bound_to 6896
  146.0092  140.6984  142.9233 H   0  0  0  0  0  0  0  0  0  0  0  0  # atno 7974 bound_to 7965
  156.2851  140.2179  156.5399 H   0  0  0  0  0  0  0  0  0  0  0  0  # atno 8008 bound_to 7997
  154.7379  140.0490  157.0807 H   0  0  0  0  0  0  0  0  0  0  0  0  # atno 8009 bound_to 7997
  155.0269  140.3130  155.4776 H   0  0  0  0  0  0  0  0  0  0  0  0  # atno 8010 bound_to 7997
  139.4903  144.5811  151.6870 H   0  0  0  0  0  0  0  0  0  0  0  0  # atno 10167 bound_to 10162
  156.7561  130.9396  151.3116 H   0  0  0  0  0  0  0  0  0  0  0  0  # atno 10718 bound_to 10713
  153.1621  135.6798  153.8727 H   0  0  0  0  0  0  0  0  0  0  0  0  # atno 10763 bound_to 10752
  153.8119  135.3142  155.3403 H   0  0  0  0  0  0  0  0  0  0  0  0  # atno 10764 bound_to 10752
  154.7940  135.4818  154.0207 H   0  0  0  0  0  0  0  0  0  0  0  0  # atno 10765 bound_to 10752
  139.8894  134.9497  156.6363 H   0  0  0  0  0  0  0  0  0  0  0  0  # atno 11005 bound_to 11000
  144.6947  140.3368  143.7206 LP  0  0  0  0  0  0  0  0  0  0  0  0  # atno 17320 bound_to 7965
  145.7369  139.1752  143.2398 LP  0  0  0  0  0  0  0  0  0  0  0  0  # atno 17321 bound_to 7965
  140.5417  144.0568  150.6091 LP  0  0  0  0  0  0  0  0  0  0  0  0  # atno 17342 bound_to 10162
  140.3593  143.2917  152.0402 LP  0  0  0  0  0  0  0  0  0  0  0  0  # atno 17343 bound_to 10162
  157.6755  130.9091  150.0141 LP  0  0  0  0  0  0  0  0  0  0  0  0  # atno 17370 bound_to 10713
  156.1369  130.3642  149.9642 LP  0  0  0  0  0  0  0  0  0  0  0  0  # atno 17371 bound_to 10713
  140.7628  133.8803  155.8431 LP  0  0  0  0  0  0  0  0  0  0  0  0  # atno 17394 bound_to 11000
  140.9908  134.1281  157.4410 LP  0  0  0  0  0  0  0  0  0  0  0  0  # atno 17395 bound_to 11000

$$$$
