AV-unprocessed.smi:2207|AV-procd|sdf|8944|dock10
  -GOLD-   2272012163D 1   1.00000     0.00000
 Structure written by MMmdl.
 18 18  0  0  0  0  0  0  0  0  1 V2000
  155.4320  141.0644  160.2134 N   0  0  0  0  0  0  0  0  0  0  0  0
  154.1556  140.9945  159.8258 C   0  0  0  0  0  0  0  0  0  0  0  0
  153.7699  140.2008  158.9702 O   0  0  0  0  0  0  0  0  0  0  0  0
  153.1700  141.9568  160.4910 C   0  0  0  0  0  0  0  0  0  0  0  0
  152.5313  142.8168  159.5105 N   0  0  0  0  0  0  0  0  0  0  0  0
  152.5135  144.1983  159.4656 C   0  0  0  0  0  0  0  0  0  0  0  0
  151.7942  144.5652  158.3635 C   0  0  0  0  0  0  0  0  0  0  0  0
  151.4154  143.3164  157.8019 C   0  0  0  0  0  0  0  0  0  0  0  0
  150.6545  143.2020  156.6416 N   0  0  0  0  0  0  0  0  0  0  0  0
  151.8496  142.2689  158.4785 N   0  0  0  0  0  0  0  0  0  0  0  0
  156.1156  140.4440  159.8044 H   0  0  0  0  0  0  0  0  0  0  0  0
  155.7078  141.7334  160.9179 H   0  0  0  0  0  0  0  0  0  0  0  0
  152.4107  141.3977  161.0403 H   0  0  0  0  0  0  0  0  0  0  0  0
  153.6932  142.5825  161.2154 H   0  0  0  0  0  0  0  0  0  0  0  0
  153.0108  144.7976  160.2142 H   0  0  0  0  0  0  0  0  0  0  0  0
  151.5767  145.5649  158.0177 H   0  0  0  0  0  0  0  0  0  0  0  0
  150.3321  144.0158  156.1382 H   0  0  0  0  0  0  0  0  0  0  0  0
  150.3953  142.2994  156.2703 H   0  0  0  0  0  0  0  0  0  0  0  0
  1  2  1  0  0  0  0
  1 11  1  0  0  0  0
  1 12  1  0  0  0  0
  2  3  2  0  0  0  0
  2  4  1  0  0  0  0
  4  5  1  0  0  0  0
  4 13  1  0  0  0  0
  4 14  1  0  0  0  0
  5 10  1  0  0  0  0
  5  6  1  0  0  0  0
  6  7  2  0  0  0  0
  6 15  1  0  0  0  0
  7  8  1  0  0  0  0
  7 16  1  0  0  0  0
  8  9  1  0  0  0  0
  8 10  2  0  0  0  0
  9 17  1  0  0  0  0
  9 18  1  0  0  0  0
M  END
> <s_m_source_file>
AV-unprocessed.smi

> <i_m_source_file_index>
2207

> <i_lp_mmshare_version>
43012

> <i_f3d_flags>
0

> <s_epik_input>
W05IMl1DKD1PKVtDSDJdbjFbY0hdW2NIXWMobjEpW05IMl0=

> <s_epik_cmdline>
J2VwaWtfcHl0aG9uJywgJy1waCcsICc3LjAnLCAnLXRuJywgJzgnLCAnLW1hJywgJzIwMCcsICctbWV0YWxfYmluZGluZycsICctaW1hZScsICc8aW5maWxlLm1hZT4nLCAnLW9tYWUnLCAnPG91dGZpbGUubWFlPic=

> <r_lp_tautomer_probability>
1

> <r_epik_Ionization_Penalty>
0.000204489

> <r_epik_Ionization_Penalty_Charging>
0

> <r_epik_Ionization_Penalty_Neutral>
0.000204489

> <r_epik_State_Penalty>
-0

> <r_epik_Charging_Adjusted_Penalty>
0

> <i_epik_Tot_Q>
0

> <i_epik_Tot_abs_Q>
0

> <r_epik_Metal_State_Penalty>
-0

> <b_epik_Metal_Only>
0

> <s_lp_Force_Field>
OPLS_2005

> <r_lp_Energy>
0.150193

> <b_lp_Chiralities_Consistent>
1

> <s_lp_Variant>
AV-unprocessed.smi:2207-1

> <Gold.Version>
5.8.1

> <Gold.Id.Protein>
6NUR|6NUR_protein|mol2

> <Gold.PLP.Fitness>
31.6918

> <Gold.PLP.PLP>
-26.5269

> <Gold.PLP.part.hbond>
-3.0000

> <Gold.PLP.part.metal>
0.0000

> <Gold.PLP.part.buried>
-2.1291

> <Gold.PLP.part.nonpolar>
-21.1897

> <Gold.PLP.part.repulsive>
0.1318

> <Gold.PLP.ligand.clash>
0.0000

> <Gold.PLP.ligand.torsion>
0.0096

> <Gold.PLP.Chemscore.Hbond>
1.7280

> <Gold.PLP.Chemscore.CHOScore>
0.0000

> <Gold.PLP.Chemscore.Metal>
0.0000

> <Gold.Chemscore.Hbonds>
donor molecule, donor type, donor heavy atom, donor atom, acceptor molecule, acceptor atom, score
      L1  H     9    17       P1  8028  0.82
      P1  H  7997  8010       L1     3  0.91

> <Gold.PLP.Chemscore.Internal.Correction>
0.0001

> <Gold.Rescore>
     Score         DG    S(hbond)    S(metal)    S(lipo)     H(rot)  DE(clash)    DE(int)     intcor
     10.31     -11.70       1.84        0.00      37.30       1.67       0.03       1.36       ----

> <Gold.Chemscore.Fitness>
10.3117

> <Gold.Chemscore.DG>
-11.6973

> <Gold.Chemscore.ZeroCoef>
-5.4800

> <Gold.Chemscore.Hbond>
1.8361

> <Gold.Chemscore.Metal>
0.0000

> <Gold.Chemscore.Lipo>
37.2991

> <Gold.Chemscore.Internal_Hbond>
0.0000

> <Gold.Chemscore.DEClash>
0.0279

> <Gold.Chemscore.DEInternal>
1.3577

> <Gold.Chemscore.Rot>
1.6716

> <Gold.Chemscore.Internal.Correction>
   9.000000E+99

> <Gold.Chemscore.Hbonds>
donor molecule, donor type, donor heavy atom, donor atom, acceptor molecule, acceptor atom, score
      L1  H     9    17       P1  8028  0.81
      P1  H  7997  8010       L1     3  0.80

> <Gold.Chemscore.Hbond.Weighted>
-6.1327

> <Gold.Chemscore.Metal.Weighted>
-0.0000

> <Gold.Chemscore.Lipo.Weighted>
-4.3640

> <Gold.Chemscore.Internal_Hbond.Weighted>
0.0000

> <Gold.Chemscore.DEClash.Weighted>
0.0279

> <Gold.Chemscore.DEInternal.Weighted>
1.3577

> <Gold.Chemscore.Rot.Weighted>
4.2794

> <Gold.Chemscore.Internal.Correction.Weighted>
   9.000000E+99

> <Gold.Protein.RotatedTorsions>
[ 6907 6896 6895 6894 ] final  -84.55 input  -60.11 | X-H torsion
[ 7974 7965 7964 7962 ] final   79.85 input  175.53 | X-H torsion
[ 8008 7997 7996 7995 ] final   19.17 input   59.86 | X-H torsion
[ 10167 10162 10161 10158 ] final  -68.54 input  -65.29 | X-H torsion
[ 10718 10713 10712 10709 ] final -159.60 input   66.30 | X-H torsion
[ 10763 10752 10751 10750 ] final  -32.62 input  -60.55 | X-H torsion
[ 11005 11000 10999 10996 ] final  172.65 input  -57.11 | X-H torsion

> <Gold.Protein.ActiveResidues>
 VAL166  LYS551  ARG553  GLY616  TRP617  ASP618  TYR619  PRO620  LYS621  CYS622 
 ASP623  PHE694  ASN695  SER759  ASP760  ASP761  ALA762  ILE779  LEU786  VAL792 
 PHE793  MET794  SER795  GLU796  ALA797  LYS798  CYS799  TRP800  GLU811  SER814 

> <Gold.Protein.RotatedAtoms>
  150.6876  134.3341  159.4839 H   0  0  0  0  0  0  0  0  0  0  0  0  # atno 6907 bound_to 6896
  152.1202  134.9208  160.0572 H   0  0  0  0  0  0  0  0  0  0  0  0  # atno 6908 bound_to 6896
  152.0417  133.3945  159.4376 H   0  0  0  0  0  0  0  0  0  0  0  0  # atno 6909 bound_to 6896
  145.6588  139.2466  143.1934 H   0  0  0  0  0  0  0  0  0  0  0  0  # atno 7974 bound_to 7965
  154.9169  140.3022  155.5237 H   0  0  0  0  0  0  0  0  0  0  0  0  # atno 8008 bound_to 7997
  156.3012  140.2379  156.4150 H   0  0  0  0  0  0  0  0  0  0  0  0  # atno 8009 bound_to 7997
  154.8370  140.0415  157.1504 H   0  0  0  0  0  0  0  0  0  0  0  0  # atno 8010 bound_to 7997
  140.5499  143.2312  151.6931 H   0  0  0  0  0  0  0  0  0  0  0  0  # atno 10167 bound_to 10162
  156.5704  130.8686  151.2836 H   0  0  0  0  0  0  0  0  0  0  0  0  # atno 10718 bound_to 10713
  153.8167  135.6878  153.4833 H   0  0  0  0  0  0  0  0  0  0  0  0  # atno 10763 bound_to 10752
  153.1594  135.4586  154.9749 H   0  0  0  0  0  0  0  0  0  0  0  0  # atno 10764 bound_to 10752
  154.7944  135.3314  154.7643 H   0  0  0  0  0  0  0  0  0  0  0  0  # atno 10765 bound_to 10752
  140.3320  134.7349  157.4141 H   0  0  0  0  0  0  0  0  0  0  0  0  # atno 11005 bound_to 11000
  146.1142  140.7390  142.9488 LP  0  0  0  0  0  0  0  0  0  0  0  0  # atno 17320 bound_to 7965
  144.7096  140.3988  143.7091 LP  0  0  0  0  0  0  0  0  0  0  0  0  # atno 17321 bound_to 7965
  139.5023  144.3834  152.0353 LP  0  0  0  0  0  0  0  0  0  0  0  0  # atno 17342 bound_to 10162
  140.2950  144.3710  150.6077 LP  0  0  0  0  0  0  0  0  0  0  0  0  # atno 17343 bound_to 10162
  157.7349  130.9754  150.2055 LP  0  0  0  0  0  0  0  0  0  0  0  0  # atno 17370 bound_to 10713
  156.2719  130.3723  149.8022 LP  0  0  0  0  0  0  0  0  0  0  0  0  # atno 17371 bound_to 10713
  140.0853  134.5675  155.8499 LP  0  0  0  0  0  0  0  0  0  0  0  0  # atno 17394 bound_to 11000
  141.2061  133.6652  156.6221 LP  0  0  0  0  0  0  0  0  0  0  0  0  # atno 17395 bound_to 11000

$$$$
