AV-unprocessed.smi:365|AV-procd|sdf|2427|dock8
  -GOLD-   2262022363D 1   1.00000     0.00000
 Structure written by MMmdl.
 53 54  0  0  0  0  0  0  0  0  1 V2000
  150.1058  133.7857  154.6733 C   0  0  0  0  0  0  0  0  0  0  0  0
  149.4045  135.0927  155.0782 C   0  0  2  0  0  0  0  0  0  0  0  0
  148.2760  135.3027  154.1738 N   0  0  0  0  0  0  0  0  0  0  0  0
  146.9775  135.2301  154.5164 C   0  0  0  0  0  0  0  0  0  0  0  0
  146.6177  134.9419  155.6592 O   0  0  0  0  0  0  0  0  0  0  0  0
  145.9148  135.5313  153.4323 C   0  0  0  0  0  0  0  0  0  0  0  0
  146.1480  134.5780  152.2427 C   0  0  0  0  0  0  0  0  0  0  0  0
  146.0901  136.9876  152.9536 C   0  0  0  0  0  0  0  0  0  0  0  0
  144.4688  135.3474  153.9516 C   0  0  0  0  0  0  0  0  0  0  0  0
  150.4098  136.2475  154.9468 C   0  0  0  0  0  0  0  0  0  0  0  0
  151.4673  136.2335  155.5790 O   0  0  0  0  0  0  0  0  0  0  0  0
  150.0639  137.2412  154.1145 N   0  0  0  0  0  0  0  0  0  0  0  0
  150.8918  138.4038  153.8105 C   0  0  0  0  0  0  0  0  0  0  0  0
  151.1844  139.3091  155.0009 C   0  0  0  0  0  0  0  0  0  0  0  0
  150.3562  140.4181  155.2580 C   0  0  0  0  0  0  0  0  0  0  0  0
  150.6446  141.2551  156.3529 C   0  0  0  0  0  0  0  0  0  0  0  0
  151.7669  140.9655  157.1710 C   0  0  0  0  0  0  0  0  0  0  0  0
  152.1114  141.7618  158.2888 N   0  0  0  0  0  0  0  0  0  0  0  0
  151.4527  143.0646  158.3953 C   0  0  0  0  0  0  0  0  0  0  0  0
  152.1560  143.9470  159.4403 C   0  0  0  0  0  0  0  0  0  0  0  0
  152.2311  143.2568  160.6822 O   0  0  0  0  0  0  0  0  0  0  0  0
  153.0023  142.0667  160.5717 C   0  0  0  0  0  0  0  0  0  0  0  0
  152.3369  141.1037  159.5739 C   0  0  0  0  0  0  0  0  0  0  0  0
  152.5609  139.8967  156.9164 N   0  0  0  0  0  0  0  0  0  0  0  0
  152.2802  139.0981  155.8658 C   0  0  0  0  0  0  0  0  0  0  0  0
  150.9650  133.5827  155.3137 H   0  0  0  0  0  0  0  0  0  0  0  0
  150.4587  133.8148  153.6413 H   0  0  0  0  0  0  0  0  0  0  0  0
  149.4269  132.9371  154.7642 H   0  0  0  0  0  0  0  0  0  0  0  0
  149.0478  135.0118  156.1071 H   0  0  0  0  0  0  0  0  0  0  0  0
  148.4983  135.5525  153.2212 H   0  0  0  0  0  0  0  0  0  0  0  0
  145.4294  134.7620  151.4433 H   0  0  0  0  0  0  0  0  0  0  0  0
  146.0425  133.5341  152.5421 H   0  0  0  0  0  0  0  0  0  0  0  0
  147.1445  134.6974  151.8148 H   0  0  0  0  0  0  0  0  0  0  0  0
  147.0771  137.1583  152.5211 H   0  0  0  0  0  0  0  0  0  0  0  0
  145.9631  137.6959  153.7736 H   0  0  0  0  0  0  0  0  0  0  0  0
  145.3563  137.2414  152.1879 H   0  0  0  0  0  0  0  0  0  0  0  0
  143.7414  135.5782  153.1727 H   0  0  0  0  0  0  0  0  0  0  0  0
  144.2547  136.0059  154.7948 H   0  0  0  0  0  0  0  0  0  0  0  0
  144.2794  134.3212  154.2701 H   0  0  0  0  0  0  0  0  0  0  0  0
  149.1772  137.1733  153.6365 H   0  0  0  0  0  0  0  0  0  0  0  0
  151.8421  138.0456  153.4145 H   0  0  0  0  0  0  0  0  0  0  0  0
  150.4270  138.9872  153.0137 H   0  0  0  0  0  0  0  0  0  0  0  0
  149.5078  140.6292  154.6235 H   0  0  0  0  0  0  0  0  0  0  0  0
  150.0031  142.1042  156.5312 H   0  0  0  0  0  0  0  0  0  0  0  0
  151.4496  143.5951  157.4432 H   0  0  0  0  0  0  0  0  0  0  0  0
  150.4110  142.9086  158.6779 H   0  0  0  0  0  0  0  0  0  0  0  0
  153.1563  144.2252  159.1041 H   0  0  0  0  0  0  0  0  0  0  0  0
  151.6002  144.8739  159.5825 H   0  0  0  0  0  0  0  0  0  0  0  0
  154.0200  142.3073  160.2602 H   0  0  0  0  0  0  0  0  0  0  0  0
  153.0738  141.5976  161.5530 H   0  0  0  0  0  0  0  0  0  0  0  0
  151.3837  140.7517  159.9698 H   0  0  0  0  0  0  0  0  0  0  0  0
  152.9851  140.2362  159.4482 H   0  0  0  0  0  0  0  0  0  0  0  0
  152.9599  138.2720  155.7178 H   0  0  0  0  0  0  0  0  0  0  0  0
  1  2  1  0  0  0  0
  1 26  1  0  0  0  0
  1 27  1  0  0  0  0
  1 28  1  0  0  0  0
  2  3  1  0  0  0  0
  2 10  1  0  0  0  0
  2 29  1  0  0  0  0
  3  4  1  0  0  0  0
  3 30  1  0  0  0  0
  4  5  2  0  0  0  0
  4  6  1  0  0  0  0
  6  7  1  0  0  0  0
  6  8  1  0  0  0  0
  6  9  1  0  0  0  0
  7 31  1  0  0  0  0
  7 32  1  0  0  0  0
  7 33  1  0  0  0  0
  8 34  1  0  0  0  0
  8 35  1  0  0  0  0
  8 36  1  0  0  0  0
  9 37  1  0  0  0  0
  9 38  1  0  0  0  0
  9 39  1  0  0  0  0
 10 11  2  0  0  0  0
 10 12  1  0  0  0  0
 12 13  1  0  0  0  0
 12 40  1  0  0  0  0
 13 14  1  0  0  0  0
 13 41  1  0  0  0  0
 13 42  1  0  0  0  0
 14 25  1  0  0  0  0
 14 15  2  0  0  0  0
 15 16  1  0  0  0  0
 15 43  1  0  0  0  0
 16 17  2  0  0  0  0
 16 44  1  0  0  0  0
 17 18  1  0  0  0  0
 17 24  1  0  0  0  0
 18 23  1  0  0  0  0
 18 19  1  0  0  0  0
 19 20  1  0  0  0  0
 19 45  1  0  0  0  0
 19 46  1  0  0  0  0
 20 21  1  0  0  0  0
 20 47  1  0  0  0  0
 20 48  1  0  0  0  0
 21 22  1  0  0  0  0
 22 23  1  0  0  0  0
 22 49  1  0  0  0  0
 22 50  1  0  0  0  0
 23 51  1  0  0  0  0
 23 52  1  0  0  0  0
 24 25  2  0  0  0  0
 25 53  1  0  0  0  0
M  END
> <s_m_source_file>
AV-unprocessed.smi

> <i_m_source_file_index>
365

> <i_lp_mmshare_version>
43012

> <i_f3d_flags>
0

> <s_epik_input>
W0NIM11DKFtDSDNdKShbQ0gzXSlDKD1PKVtOSF1bQ0BASF0oW0NIM10pQyg9TylbTkhdW0NIMl1jMVtjSF1bY0hdYyhuW2NIXTEpTjJbQ0gyXVtDSDJdT1tDSDJdW0NIMl0y

> <s_epik_cmdline>
J2VwaWtfcHl0aG9uJywgJy1waCcsICc3LjAnLCAnLXRuJywgJzgnLCAnLW1hJywgJzIwMCcsICctbWV0YWxfYmluZGluZycsICctaW1hZScsICc8aW5maWxlLm1hZT4nLCAnLW9tYWUnLCAnPG91dGZpbGUubWFlPic=

> <r_lp_tautomer_probability>
1

> <r_epik_Ionization_Penalty>
0.00484327

> <r_epik_Ionization_Penalty_Charging>
0

> <r_epik_Ionization_Penalty_Neutral>
0.00484327

> <r_epik_State_Penalty>
0.0035131

> <r_epik_Charging_Adjusted_Penalty>
0.0035131

> <i_epik_Tot_Q>
0

> <i_epik_Tot_abs_Q>
0

> <r_epik_Metal_State_Penalty>
-0

> <b_epik_Metal_Only>
0

> <s_lp_Force_Field>
OPLS_2005

> <r_lp_Energy>
21.7768

> <b_lp_Chiralities_Consistent>
1

> <s_lp_Variant>
AV-unprocessed.smi:365-1

> <Gold.Version>
5.8.1

> <Gold.Id.Protein>
6NUR|6NUR_protein|mol2

> <Gold.PLP.Fitness>
50.6710

> <Gold.PLP.PLP>
-41.3198

> <Gold.PLP.part.hbond>
-4.6882

> <Gold.PLP.part.metal>
0.0000

> <Gold.PLP.part.buried>
-3.3928

> <Gold.PLP.part.nonpolar>
-31.9191

> <Gold.PLP.part.repulsive>
0.1825

> <Gold.PLP.ligand.clash>
0.0000

> <Gold.PLP.ligand.torsion>
0.7328

> <Gold.PLP.Chemscore.Hbond>
3.4320

> <Gold.PLP.Chemscore.CHOScore>
0.0000

> <Gold.PLP.Chemscore.Metal>
0.0000

> <Gold.Chemscore.Hbonds>
donor molecule, donor type, donor heavy atom, donor atom, acceptor molecule, acceptor atom, score
      L1  H     3    30       P1  7948  1.00
      L1  H    12    40       P1  7948  0.43
      P1  H  7997  8009       L1    24  1.00
      P1  H 10752 10765       L1    11  1.00

> <Gold.PLP.Chemscore.Internal.Correction>
0.5209

> <Gold.Rescore>
     Score         DG    S(hbond)    S(metal)    S(lipo)     H(rot)  DE(clash)    DE(int)     intcor
     21.21     -22.36       3.07        0.00     101.19       2.04       0.38       0.77       ----

> <Gold.Chemscore.Fitness>
21.2138

> <Gold.Chemscore.DG>
-22.3614

> <Gold.Chemscore.ZeroCoef>
-5.4800

> <Gold.Chemscore.Hbond>
3.0708

> <Gold.Chemscore.Metal>
0.0000

> <Gold.Chemscore.Lipo>
101.1855

> <Gold.Chemscore.Internal_Hbond>
0.0000

> <Gold.Chemscore.DEClash>
0.3790

> <Gold.Chemscore.DEInternal>
0.7686

> <Gold.Chemscore.Rot>
2.0367

> <Gold.Chemscore.Internal.Correction>
   9.000000E+99

> <Gold.Chemscore.Hbonds>
donor molecule, donor type, donor heavy atom, donor atom, acceptor molecule, acceptor atom, score
      L1  H     3    30       P1  7948  0.96
      L1  H    12    40       P1  7948  0.42
      P1  H  7997  8009       L1    24  0.29
      P1  H 10752 10765       L1    11  0.99

> <Gold.Chemscore.Hbond.Weighted>
-10.2566

> <Gold.Chemscore.Metal.Weighted>
-0.0000

> <Gold.Chemscore.Lipo.Weighted>
-11.8387

> <Gold.Chemscore.Internal_Hbond.Weighted>
0.0000

> <Gold.Chemscore.DEClash.Weighted>
0.3790

> <Gold.Chemscore.DEInternal.Weighted>
0.7686

> <Gold.Chemscore.Rot.Weighted>
5.2140

> <Gold.Chemscore.Internal.Correction.Weighted>
   9.000000E+99

> <Gold.Protein.RotatedTorsions>
[ 6907 6896 6895 6894 ] final   47.25 input  -60.11 | X-H torsion
[ 7974 7965 7964 7962 ] final   10.49 input  175.53 | X-H torsion
[ 8008 7997 7996 7995 ] final  173.49 input   59.86 | X-H torsion
[ 10167 10162 10161 10158 ] final  -64.85 input  -65.29 | X-H torsion
[ 10718 10713 10712 10709 ] final -139.78 input   66.30 | X-H torsion
[ 10763 10752 10751 10750 ] final -162.83 input  -60.55 | X-H torsion
[ 11005 11000 10999 10996 ] final  167.95 input  -57.11 | X-H torsion

> <Gold.Protein.ActiveResidues>
 VAL166  LYS551  ARG553  GLY616  TRP617  ASP618  TYR619  PRO620  LYS621  CYS622 
 ASP623  PHE694  ASN695  SER759  ASP760  ASP761  ALA762  ILE779  LEU786  VAL792 
 PHE793  MET794  SER795  GLU796  ALA797  LYS798  CYS799  TRP800  GLU811  SER814 

> <Gold.Protein.RotatedAtoms>
  152.2659  134.7985  160.0422 H   0  0  0  0  0  0  0  0  0  0  0  0  # atno 6907 bound_to 6896
  151.8614  133.3453  159.3713 H   0  0  0  0  0  0  0  0  0  0  0  0  # atno 6908 bound_to 6896
  150.7133  134.5130  159.5660 H   0  0  0  0  0  0  0  0  0  0  0  0  # atno 6909 bound_to 6896
  146.2387  139.9626  142.8456 H   0  0  0  0  0  0  0  0  0  0  0  0  # atno 7974 bound_to 7965
  156.1070  140.1458  156.9391 H   0  0  0  0  0  0  0  0  0  0  0  0  # atno 8008 bound_to 7997
  154.4740  140.0900  156.7261 H   0  0  0  0  0  0  0  0  0  0  0  0  # atno 8009 bound_to 7997
  155.4663  140.3440  155.4321 H   0  0  0  0  0  0  0  0  0  0  0  0  # atno 8010 bound_to 7997
  140.5771  143.2323  151.6419 H   0  0  0  0  0  0  0  0  0  0  0  0  # atno 10167 bound_to 10162
  156.3147  130.7501  151.1585 H   0  0  0  0  0  0  0  0  0  0  0  0  # atno 10718 bound_to 10713
  154.7178  135.3019  154.9095 H   0  0  0  0  0  0  0  0  0  0  0  0  # atno 10763 bound_to 10752
  153.9977  135.6711  153.4761 H   0  0  0  0  0  0  0  0  0  0  0  0  # atno 10764 bound_to 10752
  153.0808  135.5010  154.8415 H   0  0  0  0  0  0  0  0  0  0  0  0  # atno 10765 bound_to 10752
  140.2821  134.7742  157.3767 H   0  0  0  0  0  0  0  0  0  0  0  0  # atno 11005 bound_to 11000
  145.1757  140.9742  143.4296 LP  0  0  0  0  0  0  0  0  0  0  0  0  # atno 17320 bound_to 7965
  144.9988  139.3618  143.6178 LP  0  0  0  0  0  0  0  0  0  0  0  0  # atno 17321 bound_to 7965
  139.5149  144.3396  152.0752 LP  0  0  0  0  0  0  0  0  0  0  0  0  # atno 17342 bound_to 10162
  140.2541  144.4137  150.6210 LP  0  0  0  0  0  0  0  0  0  0  0  0  # atno 17343 bound_to 10162
  157.7399  131.0524  150.5203 LP  0  0  0  0  0  0  0  0  0  0  0  0  # atno 17370 bound_to 10713
  156.5347  130.4193  149.6183 LP  0  0  0  0  0  0  0  0  0  0  0  0  # atno 17371 bound_to 10713
  140.1273  134.5141  155.8134 LP  0  0  0  0  0  0  0  0  0  0  0  0  # atno 17394 bound_to 11000
  141.2161  133.6777  156.6976 LP  0  0  0  0  0  0  0  0  0  0  0  0  # atno 17395 bound_to 11000

$$$$
