AV-unprocessed.smi:287|AV-procd|sdf|2188|dock4
  -GOLD-   2262021573D 1   1.00000     0.00000
 Structure written by MMmdl.
 55 58  0  0  0  0  0  0  0  0  1 V2000
  152.5020  138.9931  154.7319 C   0  0  0  0  0  0  0  0  0  0  0  0
  151.0325  139.1396  154.9310 C   0  0  0  0  0  0  0  0  0  0  0  0
  150.1069  138.4593  155.6671 C   0  0  0  0  0  0  0  0  0  0  0  0
  148.8447  139.0899  155.4525 C   0  0  0  0  0  0  0  0  0  0  0  0
  147.5129  138.6737  156.0614 C   0  0  2  0  0  0  0  0  0  0  0  0
  147.5611  138.8618  157.5864 C   0  0  0  0  0  0  0  0  0  0  0  0
  147.2241  137.3037  155.8576 O   0  0  0  0  0  0  0  0  0  0  0  0
  146.3154  139.4504  155.4683 C   0  0  0  0  0  0  0  0  0  0  0  0
  145.0302  138.8296  155.7633 N   0  0  0  0  0  0  0  0  0  0  0  0
  144.3478  138.1596  154.8107 C   0  0  0  0  0  0  0  0  0  0  0  0
  143.0175  138.4104  154.7609 N   0  0  0  0  0  0  0  0  0  0  0  0
  142.2510  137.7994  153.8530 C   0  0  0  0  0  0  0  0  0  0  0  0
  142.6076  136.9159  152.9188 N   0  0  0  0  0  0  0  0  0  0  0  0
  143.9462  136.6563  152.9650 C   0  0  0  0  0  0  0  0  0  0  0  0
  144.8834  137.2285  153.8713 C   0  0  0  0  0  0  0  0  0  0  0  0
  146.1474  136.7124  153.6040 N   0  0  0  0  0  0  0  0  0  0  0  0
  145.9612  135.8892  152.6083 C   0  0  0  0  0  0  0  0  0  0  0  0
  144.6597  135.7897  152.1665 N   0  0  0  0  0  0  0  0  0  0  0  0
  144.0905  134.9609  151.0529 C   0  0  1  0  0  0  0  0  0  0  0  0
  145.1248  134.2155  150.4837 O   0  0  0  0  0  0  0  0  0  0  0  0
  145.0865  132.8849  150.9871 C   0  0  2  0  0  0  0  0  0  0  0  0
  145.8892  131.9204  150.0970 C   0  0  0  0  0  0  0  0  0  0  0  0
  146.2230  130.7576  150.8246 O   0  0  0  0  0  0  0  0  0  0  0  0
  143.5792  132.6158  151.0653 C   0  0  2  0  0  0  0  0  0  0  0  0
  143.0582  132.2820  149.7912 O   0  0  0  0  0  0  0  0  0  0  0  0
  143.0199  133.9520  151.5416 C   0  0  1  0  0  0  0  0  0  0  0  0
  142.8497  133.9205  152.9486 O   0  0  0  0  0  0  0  0  0  0  0  0
  149.1085  140.1086  154.5692 C   0  0  0  0  0  0  0  0  0  0  0  0
  148.2651  141.1427  153.8998 C   0  0  0  0  0  0  0  0  0  0  0  0
  150.4330  140.1506  154.2538 O   0  0  0  0  0  0  0  0  0  0  0  0
  143.7125  135.6915  150.3366 H   0  0  0  0  0  0  0  0  0  0  0  0
  145.4858  132.8732  152.0033 H   0  0  0  0  0  0  0  0  0  0  0  0
  143.3492  131.7957  151.7470 H   0  0  0  0  0  0  0  0  0  0  0  0
  142.0585  134.1856  151.0821 H   0  0  0  0  0  0  0  0  0  0  0  0
  152.9108  138.2315  155.3962 H   0  0  0  0  0  0  0  0  0  0  0  0
  153.0160  139.9321  154.9382 H   0  0  0  0  0  0  0  0  0  0  0  0
  152.7253  138.7023  153.7054 H   0  0  0  0  0  0  0  0  0  0  0  0
  150.3128  137.6058  156.2961 H   0  0  0  0  0  0  0  0  0  0  0  0
  147.7486  139.9036  157.8489 H   0  0  0  0  0  0  0  0  0  0  0  0
  148.3549  138.2628  158.0350 H   0  0  0  0  0  0  0  0  0  0  0  0
  146.6210  138.5700  158.0565 H   0  0  0  0  0  0  0  0  0  0  0  0
  147.5301  136.8189  156.6085 H   0  0  0  0  0  0  0  0  0  0  0  0
  146.3216  140.4868  155.8097 H   0  0  0  0  0  0  0  0  0  0  0  0
  146.4221  139.4730  154.3831 H   0  0  0  0  0  0  0  0  0  0  0  0
  144.6893  138.9558  156.7057 H   0  0  0  0  0  0  0  0  0  0  0  0
  141.2018  138.0537  153.8809 H   0  0  0  0  0  0  0  0  0  0  0  0
  146.7779  135.3341  152.1701 H   0  0  0  0  0  0  0  0  0  0  0  0
  145.2868  131.6096  149.2426 H   0  0  0  0  0  0  0  0  0  0  0  0
  146.7909  132.3930  149.7060 H   0  0  0  0  0  0  0  0  0  0  0  0
  147.1631  130.7178  150.9130 H   0  0  0  0  0  0  0  0  0  0  0  0
  142.3350  132.8602  149.6023 H   0  0  0  0  0  0  0  0  0  0  0  0
  142.7582  133.0184  153.2164 H   0  0  0  0  0  0  0  0  0  0  0  0
  147.3681  140.6936  153.4730 H   0  0  0  0  0  0  0  0  0  0  0  0
  148.8092  141.6333  153.0924 H   0  0  0  0  0  0  0  0  0  0  0  0
  147.9562  141.9081  154.6117 H   0  0  0  0  0  0  0  0  0  0  0  0
  1  2  1  0  0  0  0
  1 35  1  0  0  0  0
  1 36  1  0  0  0  0
  1 37  1  0  0  0  0
  2 30  1  0  0  0  0
  2  3  2  0  0  0  0
  3  4  1  0  0  0  0
  3 38  1  0  0  0  0
  4  5  1  0  0  0  0
  4 28  2  0  0  0  0
  5  6  1  0  0  0  0
  5  7  1  0  0  0  0
  5  8  1  0  0  0  0
  6 39  1  0  0  0  0
  6 40  1  0  0  0  0
  6 41  1  0  0  0  0
  7 42  1  0  0  0  0
  8  9  1  0  0  0  0
  8 43  1  0  0  0  0
  8 44  1  0  0  0  0
  9 10  1  0  0  0  0
  9 45  1  0  0  0  0
 10 15  1  0  0  0  0
 10 11  2  0  0  0  0
 11 12  1  0  0  0  0
 12 13  2  0  0  0  0
 12 46  1  0  0  0  0
 13 14  1  0  0  0  0
 14 18  1  0  0  0  0
 14 15  2  0  0  0  0
 15 16  1  0  0  0  0
 16 17  2  0  0  0  0
 17 18  1  0  0  0  0
 17 47  1  0  0  0  0
 18 19  1  0  0  0  0
 19 31  1  0  0  0  0
 19 26  1  0  0  0  0
 19 20  1  0  0  0  0
 20 21  1  0  0  0  0
 21 32  1  0  0  0  0
 21 22  1  0  0  0  0
 21 24  1  0  0  0  0
 22 23  1  0  0  0  0
 22 48  1  0  0  0  0
 22 49  1  0  0  0  0
 23 50  1  0  0  0  0
 24 33  1  0  0  0  0
 24 25  1  0  0  0  0
 24 26  1  0  0  0  0
 25 51  1  0  0  0  0
 26 34  1  0  0  0  0
 26 27  1  0  0  0  0
 27 52  1  0  0  0  0
 28 29  1  0  0  0  0
 28 30  1  0  0  0  0
 29 53  1  0  0  0  0
 29 54  1  0  0  0  0
 29 55  1  0  0  0  0
M  END
> <s_m_source_file>
AV-unprocessed.smi

> <i_m_source_file_index>
287

> <i_lp_mmshare_version>
43012

> <i_f3d_flags>
0

> <s_epik_input>
W0NIM11jMVtjSF1jKGMobzEpW0NIM10pW0NAQF0oW0NIM10pKFtPSF0pW0NIMl1bTkhdYyhuW2NIXW4yKWMoYzIzKW5bY0hdbjNbQ0BASF00T1tDQEhdKFtDSDJdW09IXSlbQ0BASF0oW09IXSlbQ0BIXTRbT0hd

> <s_epik_cmdline>
J2VwaWtfcHl0aG9uJywgJy1waCcsICc3LjAnLCAnLXRuJywgJzgnLCAnLW1hJywgJzIwMCcsICctbWV0YWxfYmluZGluZycsICctaW1hZScsICc8aW5maWxlLm1hZT4nLCAnLW9tYWUnLCAnPG91dGZpbGUubWFlPic=

> <r_lp_tautomer_probability>
1

> <r_epik_Ionization_Penalty>
0.000992612

> <r_epik_Ionization_Penalty_Charging>
0

> <r_epik_Ionization_Penalty_Neutral>
0.000992612

> <r_epik_State_Penalty>
-0

> <r_epik_Charging_Adjusted_Penalty>
0

> <i_epik_Tot_Q>
0

> <i_epik_Tot_abs_Q>
0

> <r_epik_Metal_State_Penalty>
-0

> <b_epik_Metal_Only>
0

> <s_epik_Chemistry_Notes>
This compound contains an acetal/aminal-like group ( X-CH(R)-Y where X, Y are N, S, or O) that may be acid/base labile, releasing an aldehyde.

> <s_lp_Force_Field>
OPLS_2005

> <r_lp_Energy>
43.0869

> <b_lp_Chiralities_Consistent>
1

> <s_lp_Variant>
AV-unprocessed.smi:287-12

> <Gold.Version>
5.8.1

> <Gold.Id.Protein>
6NUR|6NUR_protein|mol2

> <Gold.PLP.Fitness>
49.4646

> <Gold.PLP.PLP>
-38.2253

> <Gold.PLP.part.hbond>
-5.0000

> <Gold.PLP.part.metal>
0.0000

> <Gold.PLP.part.buried>
-4.2963

> <Gold.PLP.part.nonpolar>
-30.0028

> <Gold.PLP.part.repulsive>
1.1718

> <Gold.PLP.ligand.clash>
1.7398

> <Gold.PLP.ligand.torsion>
0.9793

> <Gold.PLP.Chemscore.Hbond>
4.0168

> <Gold.PLP.Chemscore.CHOScore>
0.8917

> <Gold.PLP.Chemscore.Metal>
0.0000

> <Gold.Chemscore.Hbonds>
donor molecule, donor type, donor heavy atom, donor atom, acceptor molecule, acceptor atom, score
      L1  H    23    50       P1 10747  1.00
      L1  H    25    51       P1 10186  0.98
      L1  H    27    52       P1 10957  0.93
      P1  H  7989  7998       L1    30  1.00
      P1  H 10785 10796       L1    25  0.11
      L1  C    17    47       P1  7948  0.89

> <Gold.PLP.Chemscore.Internal.Correction>
0.2126

> <Gold.Rescore>
     Score         DG    S(hbond)    S(metal)    S(lipo)     H(rot)  DE(clash)    DE(int)     intcor
      8.17     -12.92       3.81        0.00      70.01       5.27       0.32       4.43       ----

> <Gold.Chemscore.Fitness>
8.1743

> <Gold.Chemscore.DG>
-12.9203

> <Gold.Chemscore.ZeroCoef>
-5.4800

> <Gold.Chemscore.Hbond>
3.8124

> <Gold.Chemscore.Metal>
0.0000

> <Gold.Chemscore.Lipo>
70.0074

> <Gold.Chemscore.Internal_Hbond>
0.0000

> <Gold.Chemscore.DEClash>
0.3171

> <Gold.Chemscore.DEInternal>
4.4289

> <Gold.Chemscore.Rot>
5.2672

> <Gold.Chemscore.Internal.Correction>
   9.000000E+99

> <Gold.Chemscore.Hbonds>
donor molecule, donor type, donor heavy atom, donor atom, acceptor molecule, acceptor atom, score
      L1  H    23    50       P1 10747  0.97
      L1  H    25    51       P1 10186  0.91
      L1  H    27    52       P1 10957  0.61
      P1  H  7989  7998       L1    30  0.48
      P1  H 10785 10796       L1    25  0.14

> <Gold.Chemscore.Hbond.Weighted>
-12.7334

> <Gold.Chemscore.Metal.Weighted>
-0.0000

> <Gold.Chemscore.Lipo.Weighted>
-8.1909

> <Gold.Chemscore.Internal_Hbond.Weighted>
0.0000

> <Gold.Chemscore.DEClash.Weighted>
0.3171

> <Gold.Chemscore.DEInternal.Weighted>
4.4289

> <Gold.Chemscore.Rot.Weighted>
13.4839

> <Gold.Chemscore.Internal.Correction.Weighted>
   9.000000E+99

> <Gold.Protein.RotatedTorsions>
[ 6907 6896 6895 6894 ] final -128.54 input  -60.11 | X-H torsion
[ 7974 7965 7964 7962 ] final -166.01 input  175.53 | X-H torsion
[ 8008 7997 7996 7995 ] final  140.62 input   59.86 | X-H torsion
[ 10167 10162 10161 10158 ] final  -80.32 input  -65.29 | X-H torsion
[ 10718 10713 10712 10709 ] final  164.30 input   66.30 | X-H torsion
[ 10763 10752 10751 10750 ] final -106.90 input  -60.55 | X-H torsion
[ 11005 11000 10999 10996 ] final  -36.58 input  -57.11 | X-H torsion

> <Gold.Protein.ActiveResidues>
 VAL166  LYS551  ARG553  GLY616  TRP617  ASP618  TYR619  PRO620  LYS621  CYS622 
 ASP623  PHE694  ASN695  SER759  ASP760  ASP761  ALA762  ILE779  LEU786  VAL792 
 PHE793  MET794  SER795  GLU796  ALA797  LYS798  CYS799  TRP800  GLU811  SER814 

> <Gold.Protein.RotatedAtoms>
  150.9190  133.6903  159.2836 H   0  0  0  0  0  0  0  0  0  0  0  0  # atno 6907 bound_to 6896
  151.4364  135.1014  159.9667 H   0  0  0  0  0  0  0  0  0  0  0  0  # atno 6908 bound_to 6896
  152.4970  133.8609  159.7304 H   0  0  0  0  0  0  0  0  0  0  0  0  # atno 6909 bound_to 6896
  144.7255  140.2729  143.6248 H   0  0  0  0  0  0  0  0  0  0  0  0  # atno 7974 bound_to 7965
  156.2977  140.2336  156.4431 H   0  0  0  0  0  0  0  0  0  0  0  0  # atno 8008 bound_to 7997
  154.8168  140.0440  157.1403 H   0  0  0  0  0  0  0  0  0  0  0  0  # atno 8009 bound_to 7997
  154.9360  140.3023  155.5147 H   0  0  0  0  0  0  0  0  0  0  0  0  # atno 8010 bound_to 7997
  140.4514  143.2482  151.8484 H   0  0  0  0  0  0  0  0  0  0  0  0  # atno 10167 bound_to 10162
  157.0963  131.0431  151.2516 H   0  0  0  0  0  0  0  0  0  0  0  0  # atno 10718 bound_to 10713
  154.8042  135.4695  154.0350 H   0  0  0  0  0  0  0  0  0  0  0  0  # atno 10763 bound_to 10752
  153.1832  135.6844  153.8457 H   0  0  0  0  0  0  0  0  0  0  0  0  # atno 10764 bound_to 10752
  153.8000  135.3231  155.3366 H   0  0  0  0  0  0  0  0  0  0  0  0  # atno 10765 bound_to 10752
  140.9885  133.7017  156.1808 H   0  0  0  0  0  0  0  0  0  0  0  0  # atno 11005 bound_to 11000
  145.8025  139.1970  143.2040 LP  0  0  0  0  0  0  0  0  0  0  0  0  # atno 17320 bound_to 7965
  146.0665  140.7915  142.9709 LP  0  0  0  0  0  0  0  0  0  0  0  0  # atno 17321 bound_to 7965
  139.4797  144.5116  151.8925 LP  0  0  0  0  0  0  0  0  0  0  0  0  # atno 17342 bound_to 10162
  140.4203  144.2252  150.5887 LP  0  0  0  0  0  0  0  0  0  0  0  0  # atno 17343 bound_to 10162
  157.4679  130.7691  149.7296 LP  0  0  0  0  0  0  0  0  0  0  0  0  # atno 17370 bound_to 10713
  155.9885  130.3959  150.3115 LP  0  0  0  0  0  0  0  0  0  0  0  0  # atno 17371 bound_to 10713
  140.7076  134.4496  157.5583 LP  0  0  0  0  0  0  0  0  0  0  0  0  # atno 17394 bound_to 11000
  139.8981  134.8620  156.2014 LP  0  0  0  0  0  0  0  0  0  0  0  0  # atno 17395 bound_to 11000

$$$$
