AV-unprocessed.smi:1036|AV-procd|sdf|4517|dock4
  -GOLD-   22720 2533D 1   1.00000     0.00000
 Structure written by MMmdl.
 42 44  0  0  0  0  0  0  0  0  2 V2000
  147.9498  132.1160  152.6156 O   0  0  0  0  0  0  0  0  0  0  0  0
  148.4422  132.9974  153.6021 C   0  0  0  0  0  0  0  0  0  0  0  0
  147.4350  134.1294  153.8415 C   0  0  0  0  0  0  0  0  0  0  0  0
  147.5794  134.7054  155.1689 N   0  0  0  0  0  0  0  0  0  0  0  0
  148.1468  135.9771  155.2997 C   0  0  0  0  0  0  0  0  0  0  0  0
  148.7532  136.6866  154.3106 N   0  3  0  0  0  0  0  0  0  0  0  0
  149.1792  137.9072  154.8427 C   0  0  0  0  0  0  0  0  0  0  0  0
  149.8411  138.9762  154.2467 C   0  0  0  0  0  0  0  0  0  0  0  0
  150.1298  140.0825  155.0726 C   0  0  0  0  0  0  0  0  0  0  0  0
  149.7646  140.0993  156.4346 C   0  0  0  0  0  0  0  0  0  0  0  0
  149.0952  139.0108  157.0314 C   0  0  0  0  0  0  0  0  0  0  0  0
  148.8121  137.9202  156.2099 C   0  0  0  0  0  0  0  0  0  0  0  0
  148.1744  136.6972  156.4512 N   0  0  0  0  0  0  0  0  0  0  0  0
  147.6630  136.3960  157.7964 C   0  0  0  0  0  0  0  0  0  0  0  0
  148.4997  135.3290  158.5288 C   0  0  1  0  0  0  0  0  0  0  0  0
  149.8640  135.7065  158.5208 O   0  0  0  0  0  0  0  0  0  0  0  0
  147.9634  135.0817  159.9322 C   0  0  0  0  0  0  0  0  0  0  0  0
  147.8700  136.1394  160.8649 C   0  0  0  0  0  0  0  0  0  0  0  0
  147.3620  135.9062  162.1575 C   0  0  0  0  0  0  0  0  0  0  0  0
  147.2769  136.9251  163.0454 F   0  0  0  0  0  0  0  0  0  0  0  0
  146.9402  134.6151  162.5262 C   0  0  0  0  0  0  0  0  0  0  0  0
  147.0225  133.5583  161.5999 C   0  0  0  0  0  0  0  0  0  0  0  0
  147.5294  133.7895  160.3061 C   0  0  0  0  0  0  0  0  0  0  0  0
  147.5915  132.7638  159.4229 F   0  0  0  0  0  0  0  0  0  0  0  0
  148.6219  131.9883  151.9634 H   0  0  0  0  0  0  0  0  0  0  0  0
  148.6721  132.4568  154.5212 H   0  0  0  0  0  0  0  0  0  0  0  0
  149.3794  133.4136  153.2312 H   0  0  0  0  0  0  0  0  0  0  0  0
  147.6173  134.9238  153.1167 H   0  0  0  0  0  0  0  0  0  0  0  0
  146.4135  133.7808  153.6818 H   0  0  0  0  0  0  0  0  0  0  0  0
  147.0801  134.2922  155.9438 H   0  0  0  0  0  0  0  0  0  0  0  0
  150.1218  138.9675  153.2037 H   0  0  0  0  0  0  0  0  0  0  0  0
  150.6415  140.9363  154.6523 H   0  0  0  0  0  0  0  0  0  0  0  0
  150.0027  140.9655  157.0348 H   0  0  0  0  0  0  0  0  0  0  0  0
  148.8188  139.0343  158.0753 H   0  0  0  0  0  0  0  0  0  0  0  0
  147.6502  137.3265  158.3654 H   0  0  0  0  0  0  0  0  0  0  0  0
  146.6232  136.0800  157.7038 H   0  0  0  0  0  0  0  0  0  0  0  0
  148.4447  134.3921  157.9737 H   0  0  0  0  0  0  0  0  0  0  0  0
  150.2305  135.4911  157.6767 H   0  0  0  0  0  0  0  0  0  0  0  0
  148.1834  137.1368  160.5934 H   0  0  0  0  0  0  0  0  0  0  0  0
  146.5502  134.4362  163.5174 H   0  0  0  0  0  0  0  0  0  0  0  0
  146.6934  132.5690  161.8813 H   0  0  0  0  0  0  0  0  0  0  0  0
  148.8611  136.3657  153.3573 H   0  0  0  0  0  0  0  0  0  0  0  0
  1  2  1  0  0  0  0
  1 25  1  0  0  0  0
  2  3  1  0  0  0  0
  2 26  1  0  0  0  0
  2 27  1  0  0  0  0
  3  4  1  0  0  0  0
  3 28  1  0  0  0  0
  3 29  1  0  0  0  0
  4  5  1  0  0  0  0
  4 30  1  0  0  0  0
  5 13  1  0  0  0  0
  5  6  2  0  0  0  0
  6  7  1  0  0  0  0
  6 42  1  0  0  0  0
  7 12  2  0  0  0  0
  7  8  1  0  0  0  0
  8  9  2  0  0  0  0
  8 31  1  0  0  0  0
  9 10  1  0  0  0  0
  9 32  1  0  0  0  0
 10 11  2  0  0  0  0
 10 33  1  0  0  0  0
 11 12  1  0  0  0  0
 11 34  1  0  0  0  0
 12 13  1  0  0  0  0
 13 14  1  0  0  0  0
 14 15  1  0  0  0  0
 14 35  1  0  0  0  0
 14 36  1  0  0  0  0
 15 16  1  0  0  0  0
 15 17  1  0  0  0  0
 15 37  1  0  0  0  0
 16 38  1  0  0  0  0
 17 23  1  0  0  0  0
 17 18  2  0  0  0  0
 18 19  1  0  0  0  0
 18 39  1  0  0  0  0
 19 20  1  0  0  0  0
 19 21  2  0  0  0  0
 21 22  1  0  0  0  0
 21 40  1  0  0  0  0
 22 23  2  0  0  0  0
 22 41  1  0  0  0  0
 23 24  1  0  0  0  0
M  CHG  1   6   1
M  END
> <s_m_source_file>
AV-unprocessed.smi

> <i_m_source_file_index>
1036

> <i_lp_mmshare_version>
43012

> <i_f3d_flags>
0

> <s_epik_input>
W09IXVtDSDJdW0NIMl1bTkhdYyhuMSluKGMoYzEyKVtjSF1bY0hdW2NIXVtjSF0yKVtDSDJdW0NASF0oW09IXSljM1tjSF1jKEYpW2NIXVtjSF1jM0Y=

> <s_epik_cmdline>
J2VwaWtfcHl0aG9uJywgJy1waCcsICc3LjAnLCAnLXRuJywgJzgnLCAnLW1hJywgJzIwMCcsICctbWV0YWxfYmluZGluZycsICctaW1hZScsICc8aW5maWxlLm1hZT4nLCAnLW9tYWUnLCAnPG91dGZpbGUubWFlPic=

> <r_epik_Ionization_Penalty>
0.0688114

> <r_epik_Ionization_Penalty_Charging>
0.0688055

> <r_epik_Ionization_Penalty_Neutral>
5.85933e-06

> <r_epik_State_Penalty>
0.0602293

> <r_epik_Charging_Adjusted_Penalty>
0.129035

> <i_epik_Tot_Q>
1

> <i_epik_Tot_abs_Q>
1

> <r_epik_Metal_State_Penalty>
2.77411

> <b_epik_Metal_Only>
0

> <s_lp_Force_Field>
OPLS_2005

> <r_lp_Energy>
24.5331

> <b_lp_Chiralities_Consistent>
1

> <s_lp_Variant>
AV-unprocessed.smi:1036-2

> <Gold.Version>
5.8.1

> <Gold.Id.Protein>
6NUR|6NUR_protein|mol2

> <Gold.PLP.Fitness>
47.6696

> <Gold.PLP.PLP>
-37.8911

> <Gold.PLP.part.hbond>
-3.0000

> <Gold.PLP.part.metal>
0.0000

> <Gold.PLP.part.buried>
-2.8313

> <Gold.PLP.part.nonpolar>
-32.4028

> <Gold.PLP.part.repulsive>
0.0000

> <Gold.PLP.ligand.clash>
0.0000

> <Gold.PLP.ligand.torsion>
0.3781

> <Gold.PLP.Chemscore.Hbond>
3.5023

> <Gold.PLP.Chemscore.CHOScore>
0.0000

> <Gold.PLP.Chemscore.Metal>
0.0000

> <Gold.Chemscore.Hbonds>
donor molecule, donor type, donor heavy atom, donor atom, acceptor molecule, acceptor atom, score
      L1  H     1    25       P1 10747  0.78
      L1  H     6    42       P1  7948  1.82
      P1  H  6896  6908       L1    16  1.00

> <Gold.PLP.Chemscore.Internal.Correction>
0.0277

> <Gold.Rescore>
     Score         DG    S(hbond)    S(metal)    S(lipo)     H(rot)  DE(clash)    DE(int)     intcor
     14.70     -15.00       2.56        0.00      80.30       3.29       0.00       0.29       ----

> <Gold.Chemscore.Fitness>
14.7046

> <Gold.Chemscore.DG>
-14.9978

> <Gold.Chemscore.ZeroCoef>
-5.4800

> <Gold.Chemscore.Hbond>
2.5565

> <Gold.Chemscore.Metal>
0.0000

> <Gold.Chemscore.Lipo>
80.2964

> <Gold.Chemscore.Internal_Hbond>
0.0000

> <Gold.Chemscore.DEClash>
0.0021

> <Gold.Chemscore.DEInternal>
0.2910

> <Gold.Chemscore.Rot>
3.2874

> <Gold.Chemscore.Internal.Correction>
   9.000000E+99

> <Gold.Chemscore.Hbonds>
donor molecule, donor type, donor heavy atom, donor atom, acceptor molecule, acceptor atom, score
      L1  H     1    25       P1 10747  0.74
      L1  H     6    42       P1  7948  0.87
      P1  H  6896  6908       L1    16  0.42

> <Gold.Chemscore.Hbond.Weighted>
-8.5389

> <Gold.Chemscore.Metal.Weighted>
-0.0000

> <Gold.Chemscore.Lipo.Weighted>
-9.3947

> <Gold.Chemscore.Internal_Hbond.Weighted>
0.0000

> <Gold.Chemscore.DEClash.Weighted>
0.0021

> <Gold.Chemscore.DEInternal.Weighted>
0.2910

> <Gold.Chemscore.Rot.Weighted>
8.4158

> <Gold.Chemscore.Internal.Correction.Weighted>
   9.000000E+99

> <Gold.Protein.RotatedTorsions>
[ 6907 6896 6895 6894 ] final -172.32 input  -60.11 | X-H torsion
[ 7974 7965 7964 7962 ] final  143.01 input  175.53 | X-H torsion
[ 8008 7997 7996 7995 ] final -162.76 input   59.86 | X-H torsion
[ 10167 10162 10161 10158 ] final -124.82 input  -65.29 | X-H torsion
[ 10718 10713 10712 10709 ] final -173.03 input   66.30 | X-H torsion
[ 10763 10752 10751 10750 ] final  102.12 input  -60.55 | X-H torsion
[ 11005 11000 10999 10996 ] final -130.16 input  -57.11 | X-H torsion

> <Gold.Protein.ActiveResidues>
 VAL166  LYS551  ARG553  GLY616  TRP617  ASP618  TYR619  PRO620  LYS621  CYS622 
 ASP623  PHE694  ASN695  SER759  ASP760  ASP761  ALA762  ILE779  LEU786  VAL792 
 PHE793  MET794  SER795  GLU796  ALA797  LYS798  CYS799  TRP800  GLU811  SER814 

> <Gold.Protein.RotatedAtoms>
  151.5380  133.3437  159.2930 H   0  0  0  0  0  0  0  0  0  0  0  0  # atno 6907 bound_to 6896
  150.8553  134.7892  159.7051 H   0  0  0  0  0  0  0  0  0  0  0  0  # atno 6908 bound_to 6896
  152.4588  134.5240  159.9843 H   0  0  0  0  0  0  0  0  0  0  0  0  # atno 6909 bound_to 6896
  144.8958  139.5493  143.5777 H   0  0  0  0  0  0  0  0  0  0  0  0  # atno 7974 bound_to 7965
  155.8115  140.0906  157.1901 H   0  0  0  0  0  0  0  0  0  0  0  0  # atno 8008 bound_to 7997
  154.3980  140.1454  156.3451 H   0  0  0  0  0  0  0  0  0  0  0  0  # atno 8009 bound_to 7997
  155.8360  140.3440  155.5605 H   0  0  0  0  0  0  0  0  0  0  0  0  # atno 8010 bound_to 7997
  139.9887  143.5664  152.2350 H   0  0  0  0  0  0  0  0  0  0  0  0  # atno 10167 bound_to 10162
  156.7643  130.9425  151.3118 H   0  0  0  0  0  0  0  0  0  0  0  0  # atno 10718 bound_to 10713
  153.3355  135.4021  155.1530 H   0  0  0  0  0  0  0  0  0  0  0  0  # atno 10763 bound_to 10752
  154.8632  135.3621  154.5414 H   0  0  0  0  0  0  0  0  0  0  0  0  # atno 10764 bound_to 10752
  153.5856  135.7075  153.5504 H   0  0  0  0  0  0  0  0  0  0  0  0  # atno 10765 bound_to 10752
  140.9369  134.1245  157.4185 H   0  0  0  0  0  0  0  0  0  0  0  0  # atno 11005 bound_to 11000
  146.3080  139.7647  142.9041 LP  0  0  0  0  0  0  0  0  0  0  0  0  # atno 17320 bound_to 7965
  145.3703  141.0341  143.3235 LP  0  0  0  0  0  0  0  0  0  0  0  0  # atno 17321 bound_to 7965
  139.6356  144.7649  151.2446 LP  0  0  0  0  0  0  0  0  0  0  0  0  # atno 17342 bound_to 10162
  140.7462  143.6405  150.8339 LP  0  0  0  0  0  0  0  0  0  0  0  0  # atno 17343 bound_to 10162
  157.6720  130.9060  150.0063 LP  0  0  0  0  0  0  0  0  0  0  0  0  # atno 17370 bound_to 10713
  156.1319  130.3643  149.9718 LP  0  0  0  0  0  0  0  0  0  0  0  0  # atno 17371 bound_to 10713
  139.8810  135.0024  156.6123 LP  0  0  0  0  0  0  0  0  0  0  0  0  # atno 17394 bound_to 11000
  140.7787  133.8678  155.8550 LP  0  0  0  0  0  0  0  0  0  0  0  0  # atno 17395 bound_to 11000

$$$$
