AV-unprocessed.smi:2335|AV-procd|sdf|9326|dock4
  -GOLD-   2272012543D 1   1.00000     0.00000
 Structure written by MMmdl.
 41 42  0  0  0  0  0  0  0  0  2 V2000
  152.3525  143.9247  158.7345 C   0  0  0  0  0  0  0  0  0  0  0  0
  153.1288  142.7161  159.2685 C   0  0  0  0  0  0  0  0  0  0  0  0
  152.3970  141.4312  159.0677 C   0  0  0  0  0  0  0  0  0  0  0  0
  152.9122  140.2441  159.3984 N   0  0  0  0  0  0  0  0  0  0  0  0
  152.0296  139.2033  159.1486 N   0  0  0  0  0  0  0  0  0  0  0  0
  150.8610  139.6164  158.6378 C   0  0  0  0  0  0  0  0  0  0  0  0
  149.8662  138.7675  158.3318 N   0  5  0  0  0  0  0  0  0  0  0  0
  149.8165  137.5473  158.9120 C   0  0  0  0  0  0  0  0  0  0  0  0
  150.7382  136.7309  158.9764 O   0  0  0  0  0  0  0  0  0  0  0  0
  148.6220  137.2545  159.4444 N   0  0  0  0  0  0  0  0  0  0  0  0
  148.2581  136.0057  160.1117 C   0  0  1  0  0  0  0  0  0  0  0  0
  147.6737  136.2641  161.4862 C   0  0  0  0  0  0  0  0  0  0  0  0
  146.8393  135.0061  161.7523 C   0  0  0  0  0  0  0  0  0  0  0  0
  147.6645  133.9011  162.4339 C   0  0  0  0  0  0  0  0  0  0  0  0
  145.5633  135.3120  162.5515 C   0  0  0  0  0  0  0  0  0  0  0  0
  146.4622  134.5224  160.4642 O   0  0  0  0  0  0  0  0  0  0  0  0
  147.1242  135.2236  159.4112 C   0  0  0  0  0  0  0  0  0  0  0  0
  146.0570  136.1142  158.7415 C   0  0  0  0  0  0  0  0  0  0  0  0
  147.6586  134.1786  158.4188 C   0  0  0  0  0  0  0  0  0  0  0  0
  150.7573  141.3658  158.4440 S   0  0  0  0  0  0  0  0  0  0  0  0
  152.9124  144.8467  158.8918 H   0  0  0  0  0  0  0  0  0  0  0  0
  151.3904  144.0277  159.2372 H   0  0  0  0  0  0  0  0  0  0  0  0
  152.1626  143.8277  157.6651 H   0  0  0  0  0  0  0  0  0  0  0  0
  154.0966  142.6474  158.7711 H   0  0  0  0  0  0  0  0  0  0  0  0
  153.3330  142.8437  160.3324 H   0  0  0  0  0  0  0  0  0  0  0  0
  147.8996  137.9551  159.3669 H   0  0  0  0  0  0  0  0  0  0  0  0
  149.1375  135.3701  160.2327 H   0  0  0  0  0  0  0  0  0  0  0  0
  148.4366  136.4426  162.2445 H   0  0  0  0  0  0  0  0  0  0  0  0
  147.0306  137.1455  161.4568 H   0  0  0  0  0  0  0  0  0  0  0  0
  148.0080  134.2164  163.4196 H   0  0  0  0  0  0  0  0  0  0  0  0
  148.5436  133.6371  161.8455 H   0  0  0  0  0  0  0  0  0  0  0  0
  147.0743  132.9935  162.5636 H   0  0  0  0  0  0  0  0  0  0  0  0
  145.8026  135.7069  163.5391 H   0  0  0  0  0  0  0  0  0  0  0  0
  144.9599  134.4141  162.6886 H   0  0  0  0  0  0  0  0  0  0  0  0
  144.9427  136.0479  162.0391 H   0  0  0  0  0  0  0  0  0  0  0  0
  146.4648  136.6555  157.8871 H   0  0  0  0  0  0  0  0  0  0  0  0
  145.6508  136.8480  159.4380 H   0  0  0  0  0  0  0  0  0  0  0  0
  145.2225  135.5147  158.3769 H   0  0  0  0  0  0  0  0  0  0  0  0
  148.1606  134.6529  157.5755 H   0  0  0  0  0  0  0  0  0  0  0  0
  146.8499  133.5667  158.0184 H   0  0  0  0  0  0  0  0  0  0  0  0
  148.3721  133.5071  158.8969 H   0  0  0  0  0  0  0  0  0  0  0  0
  1  2  1  0  0  0  0
  1 21  1  0  0  0  0
  1 22  1  0  0  0  0
  1 23  1  0  0  0  0
  2  3  1  0  0  0  0
  2 24  1  0  0  0  0
  2 25  1  0  0  0  0
  3 20  1  0  0  0  0
  3  4  2  0  0  0  0
  4  5  1  0  0  0  0
  5  6  2  0  0  0  0
  6  7  1  0  0  0  0
  6 20  1  0  0  0  0
  7  8  1  0  0  0  0
  8  9  2  0  0  0  0
  8 10  1  0  0  0  0
 10 11  1  0  0  0  0
 10 26  1  0  0  0  0
 11 17  1  0  0  0  0
 11 12  1  0  0  0  0
 11 27  1  0  0  0  0
 12 13  1  0  0  0  0
 12 28  1  0  0  0  0
 12 29  1  0  0  0  0
 13 14  1  0  0  0  0
 13 15  1  0  0  0  0
 13 16  1  0  0  0  0
 14 30  1  0  0  0  0
 14 31  1  0  0  0  0
 14 32  1  0  0  0  0
 15 33  1  0  0  0  0
 15 34  1  0  0  0  0
 15 35  1  0  0  0  0
 16 17  1  0  0  0  0
 17 18  1  0  0  0  0
 17 19  1  0  0  0  0
 18 36  1  0  0  0  0
 18 37  1  0  0  0  0
 18 38  1  0  0  0  0
 19 39  1  0  0  0  0
 19 40  1  0  0  0  0
 19 41  1  0  0  0  0
M  CHG  1   7  -1
M  END
> <s_m_source_file>
AV-unprocessed.smi

> <i_m_source_file_index>
2335

> <i_lp_mmshare_version>
43012

> <i_f3d_flags>
0

> <s_epik_input>
W0NIM11bQ0gyXWMxbm5jKHMxKVtOSF1DKD1PKVtOSF1bQ0BASF0oQyhPMikoW0NIM10pW0NIM10pW0NIMl1DMihbQ0gzXSlbQ0gzXQ==

> <s_epik_cmdline>
J2VwaWtfcHl0aG9uJywgJy1waCcsICc3LjAnLCAnLXRuJywgJzgnLCAnLW1hJywgJzIwMCcsICctbWV0YWxfYmluZGluZycsICctaW1hZScsICc8aW5maWxlLm1hZT4nLCAnLW9tYWUnLCAnPG91dGZpbGUubWFlPic=

> <r_lp_tautomer_probability>
1

> <r_epik_Ionization_Penalty>
4.33319

> <r_epik_Ionization_Penalty_Charging>
4.17028

> <r_epik_Ionization_Penalty_Neutral>
0.162913

> <r_epik_State_Penalty>
4.16976

> <r_epik_Charging_Adjusted_Penalty>
8.34004

> <i_epik_Tot_Q>
-1

> <i_epik_Tot_abs_Q>
1

> <r_epik_Metal_State_Penalty>
0.677358

> <b_epik_Metal_Only>
1

> <s_lp_Force_Field>
OPLS_2005

> <r_lp_Energy>
10.6877

> <b_lp_Chiralities_Consistent>
1

> <s_lp_Variant>
AV-unprocessed.smi:2335-4

> <Gold.Version>
5.8.1

> <Gold.Id.Protein>
6NUR|6NUR_protein|mol2

> <Gold.PLP.Fitness>
33.8539

> <Gold.PLP.PLP>
-32.0371

> <Gold.PLP.part.hbond>
-1.0000

> <Gold.PLP.part.metal>
0.0000

> <Gold.PLP.part.buried>
-5.4913

> <Gold.PLP.part.nonpolar>
-25.4100

> <Gold.PLP.part.repulsive>
0.2175

> <Gold.PLP.ligand.clash>
0.0000

> <Gold.PLP.ligand.torsion>
0.6031

> <Gold.PLP.Chemscore.Hbond>
1.0000

> <Gold.PLP.Chemscore.CHOScore>
0.0000

> <Gold.PLP.Chemscore.Metal>
0.0000

> <Gold.Chemscore.Hbonds>
donor molecule, donor type, donor heavy atom, donor atom, acceptor molecule, acceptor atom, score
      P1  H  6896  6909       L1     9  1.00

> <Gold.PLP.Chemscore.Internal.Correction>
0.0229

> <Gold.Rescore>
     Score         DG    S(hbond)    S(metal)    S(lipo)     H(rot)  DE(clash)    DE(int)     intcor
     14.04     -16.04       1.00        0.00      87.90       1.19       0.09       1.91       ----

> <Gold.Chemscore.Fitness>
14.0434

> <Gold.Chemscore.DG>
-16.0442

> <Gold.Chemscore.ZeroCoef>
-5.4800

> <Gold.Chemscore.Hbond>
0.9991

> <Gold.Chemscore.Metal>
0.0000

> <Gold.Chemscore.Lipo>
87.9014

> <Gold.Chemscore.Internal_Hbond>
0.0000

> <Gold.Chemscore.DEClash>
0.0889

> <Gold.Chemscore.DEInternal>
1.9118

> <Gold.Chemscore.Rot>
1.1942

> <Gold.Chemscore.Internal.Correction>
   9.000000E+99

> <Gold.Chemscore.Hbonds>
donor molecule, donor type, donor heavy atom, donor atom, acceptor molecule, acceptor atom, score
      P1  H  6896  6909       L1     9  0.98

> <Gold.Chemscore.Hbond.Weighted>
-3.3369

> <Gold.Chemscore.Metal.Weighted>
-0.0000

> <Gold.Chemscore.Lipo.Weighted>
-10.2845

> <Gold.Chemscore.Internal_Hbond.Weighted>
0.0000

> <Gold.Chemscore.DEClash.Weighted>
0.0889

> <Gold.Chemscore.DEInternal.Weighted>
1.9118

> <Gold.Chemscore.Rot.Weighted>
3.0573

> <Gold.Chemscore.Internal.Correction.Weighted>
   9.000000E+99

> <Gold.Protein.RotatedTorsions>
[ 6907 6896 6895 6894 ] final   99.04 input  -60.11 | X-H torsion
[ 7974 7965 7964 7962 ] final  154.82 input  175.53 | X-H torsion
[ 8008 7997 7996 7995 ] final  -31.86 input   59.86 | X-H torsion
[ 10167 10162 10161 10158 ] final  -37.61 input  -65.29 | X-H torsion
[ 10718 10713 10712 10709 ] final    9.61 input   66.30 | X-H torsion
[ 10763 10752 10751 10750 ] final   27.68 input  -60.55 | X-H torsion
[ 11005 11000 10999 10996 ] final   52.07 input  -57.11 | X-H torsion

> <Gold.Protein.ActiveResidues>
 VAL166  LYS551  ARG553  GLY616  TRP617  ASP618  TYR619  PRO620  LYS621  CYS622 
 ASP623  PHE694  ASN695  SER759  ASP760  ASP761  ALA762  ILE779  LEU786  VAL792 
 PHE793  MET794  SER795  GLU796  ALA797  LYS798  CYS799  TRP800  GLU811  SER814 

> <Gold.Protein.RotatedAtoms>
  152.5399  134.0489  159.8100 H   0  0  0  0  0  0  0  0  0  0  0  0  # atno 6907 bound_to 6896
  151.0634  133.5518  159.2640 H   0  0  0  0  0  0  0  0  0  0  0  0  # atno 6908 bound_to 6896
  151.2408  135.0596  159.9078 H   0  0  0  0  0  0  0  0  0  0  0  0  # atno 6909 bound_to 6896
  144.8064  139.6985  143.6160 H   0  0  0  0  0  0  0  0  0  0  0  0  # atno 7974 bound_to 7965
  154.4199  140.1753  156.1635 H   0  0  0  0  0  0  0  0  0  0  0  0  # atno 8008 bound_to 7997
  155.9819  140.3377  155.6647 H   0  0  0  0  0  0  0  0  0  0  0  0  # atno 8009 bound_to 7997
  155.6489  140.0688  157.2584 H   0  0  0  0  0  0  0  0  0  0  0  0  # atno 8010 bound_to 7997
  140.7114  143.3330  151.2525 H   0  0  0  0  0  0  0  0  0  0  0  0  # atno 10167 bound_to 10162
  156.9688  130.5961  149.5667 H   0  0  0  0  0  0  0  0  0  0  0  0  # atno 10718 bound_to 10713
  153.0540  135.6531  154.0623 H   0  0  0  0  0  0  0  0  0  0  0  0  # atno 10763 bound_to 10752
  154.0305  135.2912  155.3370 H   0  0  0  0  0  0  0  0  0  0  0  0  # atno 10764 bound_to 10752
  154.6845  135.5307  153.8374 H   0  0  0  0  0  0  0  0  0  0  0  0  # atno 10765 bound_to 10752
  140.0879  134.5248  155.8880 H   0  0  0  0  0  0  0  0  0  0  0  0  # atno 11005 bound_to 11000
  146.2356  139.5899  142.9526 LP  0  0  0  0  0  0  0  0  0  0  0  0  # atno 17320 bound_to 7965
  145.5428  141.0419  143.2321 LP  0  0  0  0  0  0  0  0  0  0  0  0  # atno 17321 bound_to 7965
  139.6818  143.9842  152.2812 LP  0  0  0  0  0  0  0  0  0  0  0  0  # atno 17342 bound_to 10162
  139.9474  144.6642  150.8206 LP  0  0  0  0  0  0  0  0  0  0  0  0  # atno 17343 bound_to 10162
  156.0291  130.5383  150.8487 LP  0  0  0  0  0  0  0  0  0  0  0  0  # atno 17370 bound_to 10713
  157.5607  131.0946  150.9564 LP  0  0  0  0  0  0  0  0  0  0  0  0  # atno 17371 bound_to 10713
  141.2068  133.6659  156.6269 LP  0  0  0  0  0  0  0  0  0  0  0  0  # atno 17394 bound_to 11000
  140.3393  134.7862  157.4386 LP  0  0  0  0  0  0  0  0  0  0  0  0  # atno 17395 bound_to 11000

$$$$
