AV-unprocessed.smi:212|AV-procd|sdf|1624|dock6
  -GOLD-   2262019563D 1   1.00000     0.00000
 Structure written by MMmdl.
 65 68  0  0  0  0  0  0  0  0  2 V2000
  147.0141  140.6450  153.5276 C   0  0  0  0  0  0  0  0  0  0  0  0
  146.5994  139.3120  154.1797 C   0  0  1  0  0  0  0  0  0  0  0  0
  146.6134  138.1178  153.2000 C   0  0  0  0  0  0  0  0  0  0  0  0
  146.1514  136.8730  153.8678 N   0  3  1  0  0  0  0  0  0  0  0  0
  146.0786  135.7067  152.9488 C   0  0  0  0  0  0  0  0  0  0  0  0
  144.8814  135.8006  151.9758 C   0  0  0  0  0  0  0  0  0  0  0  0
  144.6385  134.4405  151.3002 C   0  0  0  0  0  0  0  0  0  0  0  0
  143.5940  136.2884  152.6655 C   0  0  0  0  0  0  0  0  0  0  0  0
  145.2097  136.7140  150.9471 O   0  0  0  0  0  0  0  0  0  0  0  0
  146.8921  136.5874  155.1239 C   0  0  0  0  0  0  0  0  0  0  0  0
  146.8433  137.7918  156.0830 C   0  0  0  0  0  0  0  0  0  0  0  0
  147.3210  139.0020  155.4212 N   0  0  0  0  0  0  0  0  0  0  0  0
  148.6685  139.1473  155.5043 C   0  0  0  0  0  0  0  0  0  0  0  0
  149.4910  138.5207  154.6224 N   0  0  0  0  0  0  0  0  0  0  0  0
  150.8171  138.6489  154.7302 C   0  0  0  0  0  0  0  0  0  0  0  0
  151.5183  139.3365  155.6336 N   0  0  0  0  0  0  0  0  0  0  0  0
  150.6969  139.9587  156.5265 C   0  0  0  0  0  0  0  0  0  0  0  0
  149.2749  139.9141  156.5358 C   0  0  0  0  0  0  0  0  0  0  0  0
  148.7818  140.6653  157.5955 N   0  0  0  0  0  0  0  0  0  0  0  0
  149.8529  141.1301  158.1796 C   0  0  0  0  0  0  0  0  0  0  0  0
  151.0452  140.7594  157.5991 N   0  0  0  0  0  0  0  0  0  0  0  0
  152.3795  141.1309  158.0364 C   0  0  0  0  0  0  0  0  0  0  0  0
  152.6139  140.9075  159.5515 C   0  0  1  0  0  0  0  0  0  0  0  0
  153.6662  139.8093  159.8404 C   0  0  0  0  0  0  0  0  0  0  0  0
  154.8835  140.0710  159.1722 O   0  0  0  0  0  0  0  0  0  0  0  0
  152.9355  142.2379  160.2778 C   0  0  2  0  0  0  0  0  0  0  0  0
  152.9907  142.1453  161.7928 C   0  0  0  0  0  0  0  0  0  0  0  0
  152.8472  143.6047  162.2103 C   0  0  0  0  0  0  0  0  0  0  0  0
  152.0267  144.2105  161.2175 O   0  0  0  0  0  0  0  0  0  0  0  0
  151.8748  143.3306  160.1084 C   0  0  0  0  0  0  0  0  0  0  0  0
  146.3359  140.9015  152.7135 H   0  0  0  0  0  0  0  0  0  0  0  0
  148.0187  140.6114  153.1075 H   0  0  0  0  0  0  0  0  0  0  0  0
  146.9796  141.4616  154.2495 H   0  0  0  0  0  0  0  0  0  0  0  0
  145.5616  139.4488  154.4873 H   0  0  0  0  0  0  0  0  0  0  0  0
  145.9576  138.3322  152.3552 H   0  0  0  0  0  0  0  0  0  0  0  0
  147.6106  137.9612  152.7879 H   0  0  0  0  0  0  0  0  0  0  0  0
  147.0058  135.6195  152.3791 H   0  0  0  0  0  0  0  0  0  0  0  0
  146.0085  134.7815  153.5232 H   0  0  0  0  0  0  0  0  0  0  0  0
  144.3786  133.6775  152.0349 H   0  0  0  0  0  0  0  0  0  0  0  0
  145.5253  134.0942  150.7675 H   0  0  0  0  0  0  0  0  0  0  0  0
  143.8218  134.4924  150.5791 H   0  0  0  0  0  0  0  0  0  0  0  0
  143.3088  135.6229  153.4810 H   0  0  0  0  0  0  0  0  0  0  0  0
  142.7587  136.3241  151.9651 H   0  0  0  0  0  0  0  0  0  0  0  0
  143.7089  137.2900  153.0809 H   0  0  0  0  0  0  0  0  0  0  0  0
  144.5355  137.3756  150.9048 H   0  0  0  0  0  0  0  0  0  0  0  0
  146.4619  135.7138  155.6144 H   0  0  0  0  0  0  0  0  0  0  0  0
  147.9277  136.3398  154.8855 H   0  0  0  0  0  0  0  0  0  0  0  0
  145.8179  137.9608  156.4141 H   0  0  0  0  0  0  0  0  0  0  0  0
  147.4223  137.5785  156.9825 H   0  0  0  0  0  0  0  0  0  0  0  0
  151.3997  138.1244  153.9873 H   0  0  0  0  0  0  0  0  0  0  0  0
  149.8028  141.7660  159.0517 H   0  0  0  0  0  0  0  0  0  0  0  0
  153.1037  140.5588  157.4552 H   0  0  0  0  0  0  0  0  0  0  0  0
  152.5330  142.1779  157.7742 H   0  0  0  0  0  0  0  0  0  0  0  0
  151.6734  140.5397  159.9636 H   0  0  0  0  0  0  0  0  0  0  0  0
  153.8636  139.7320  160.9093 H   0  0  0  0  0  0  0  0  0  0  0  0
  153.3025  138.8283  159.5350 H   0  0  0  0  0  0  0  0  0  0  0  0
  155.5965  139.8897  159.7655 H   0  0  0  0  0  0  0  0  0  0  0  0
  153.8905  142.6275  159.9213 H   0  0  0  0  0  0  0  0  0  0  0  0
  152.1479  141.5643  162.1706 H   0  0  0  0  0  0  0  0  0  0  0  0
  153.9117  141.6961  162.1652 H   0  0  0  0  0  0  0  0  0  0  0  0
  152.4170  143.7132  163.2062 H   0  0  0  0  0  0  0  0  0  0  0  0
  153.8196  144.0988  162.2050 H   0  0  0  0  0  0  0  0  0  0  0  0
  151.9764  143.8692  159.1659 H   0  0  0  0  0  0  0  0  0  0  0  0
  150.8712  142.9049  160.1463 H   0  0  0  0  0  0  0  0  0  0  0  0
  145.1977  137.0558  154.1462 H   0  0  0  0  0  0  0  0  0  0  0  0
  1  2  1  0  0  0  0
  1 31  1  0  0  0  0
  1 32  1  0  0  0  0
  1 33  1  0  0  0  0
  2 12  1  0  0  0  0
  2  3  1  0  0  0  0
  2 34  1  0  0  0  0
  3  4  1  0  0  0  0
  3 35  1  0  0  0  0
  3 36  1  0  0  0  0
  4  5  1  0  0  0  0
  4 10  1  0  0  0  0
  4 65  1  0  0  0  0
  5  6  1  0  0  0  0
  5 37  1  0  0  0  0
  5 38  1  0  0  0  0
  6  7  1  0  0  0  0
  6  8  1  0  0  0  0
  6  9  1  0  0  0  0
  7 39  1  0  0  0  0
  7 40  1  0  0  0  0
  7 41  1  0  0  0  0
  8 42  1  0  0  0  0
  8 43  1  0  0  0  0
  8 44  1  0  0  0  0
  9 45  1  0  0  0  0
 10 11  1  0  0  0  0
 10 46  1  0  0  0  0
 10 47  1  0  0  0  0
 11 12  1  0  0  0  0
 11 48  1  0  0  0  0
 11 49  1  0  0  0  0
 12 13  1  0  0  0  0
 13 18  1  0  0  0  0
 13 14  2  0  0  0  0
 14 15  1  0  0  0  0
 15 16  2  0  0  0  0
 15 50  1  0  0  0  0
 16 17  1  0  0  0  0
 17 21  1  0  0  0  0
 17 18  2  0  0  0  0
 18 19  1  0  0  0  0
 19 20  2  0  0  0  0
 20 21  1  0  0  0  0
 20 51  1  0  0  0  0
 21 22  1  0  0  0  0
 22 23  1  0  0  0  0
 22 52  1  0  0  0  0
 22 53  1  0  0  0  0
 23 24  1  0  0  0  0
 23 26  1  0  0  0  0
 23 54  1  0  0  0  0
 24 25  1  0  0  0  0
 24 55  1  0  0  0  0
 24 56  1  0  0  0  0
 25 57  1  0  0  0  0
 26 30  1  0  0  0  0
 26 27  1  0  0  0  0
 26 58  1  0  0  0  0
 27 28  1  0  0  0  0
 27 59  1  0  0  0  0
 27 60  1  0  0  0  0
 28 29  1  0  0  0  0
 28 61  1  0  0  0  0
 28 62  1  0  0  0  0
 29 30  1  0  0  0  0
 30 63  1  0  0  0  0
 30 64  1  0  0  0  0
M  CHG  1   4   1
M  END
> <s_m_source_file>
AV-unprocessed.smi

> <i_m_source_file_index>
212

> <i_lp_mmshare_version>
43012

> <i_f3d_flags>
0

> <s_epik_input>
W0NIM11bQ0BASF0xW0NIMl1OKFtDSDJdQyhbQ0gzXSkoW0NIM10pW09IXSlbQ0gyXVtDSDJdTjFjKG5bY0hdbjIpYyhjMjMpbltjSF1uM1tDSDJdW0NASF0oW0NIMl1bT0hdKVtDQEBIXTRbQ0gyXVtDSDJdT1tDSDJdNA==

> <s_epik_cmdline>
J2VwaWtfcHl0aG9uJywgJy1waCcsICc3LjAnLCAnLXRuJywgJzgnLCAnLW1hJywgJzIwMCcsICctbWV0YWxfYmluZGluZycsICctaW1hZScsICc8aW5maWxlLm1hZT4nLCAnLW9tYWUnLCAnPG91dGZpbGUubWFlPic=

> <r_lp_tautomer_probability>
1

> <r_epik_Ionization_Penalty>
0.00182193

> <r_epik_Ionization_Penalty_Charging>
0.00173996

> <r_epik_Ionization_Penalty_Neutral>
8.19718e-05

> <r_epik_State_Penalty>
-0

> <r_epik_Charging_Adjusted_Penalty>
0.00173996

> <i_epik_Tot_Q>
1

> <i_epik_Tot_abs_Q>
1

> <r_epik_Metal_State_Penalty>
-0

> <b_epik_Metal_Only>
0

> <s_lp_Force_Field>
OPLS_2005

> <r_lp_Energy>
58.8905

> <b_lp_Chiralities_Consistent>
1

> <s_lp_Variant>
AV-unprocessed.smi:212-8

> <Gold.Version>
5.8.1

> <Gold.Id.Protein>
6NUR|6NUR_protein|mol2

> <Gold.PLP.Fitness>
47.9046

> <Gold.PLP.PLP>
-44.1291

> <Gold.PLP.part.hbond>
-1.7099

> <Gold.PLP.part.metal>
0.0000

> <Gold.PLP.part.buried>
-5.6373

> <Gold.PLP.part.nonpolar>
-35.9100

> <Gold.PLP.part.repulsive>
0.4015

> <Gold.PLP.ligand.clash>
0.0000

> <Gold.PLP.ligand.torsion>
1.6655

> <Gold.PLP.Chemscore.Hbond>
2.0000

> <Gold.PLP.Chemscore.CHOScore>
0.0000

> <Gold.PLP.Chemscore.Metal>
0.0000

> <Gold.Chemscore.Hbonds>
donor molecule, donor type, donor heavy atom, donor atom, acceptor molecule, acceptor atom, score
      L1  H     9    45       P1 10171  0.82
      P1  H  7997  8009       L1    25  0.98

> <Gold.PLP.Chemscore.Internal.Correction>
1.1065

> <Gold.Rescore>
     Score         DG    S(hbond)    S(metal)    S(lipo)     H(rot)  DE(clash)    DE(int)     intcor
     12.78     -14.82       1.93        0.00     105.37       3.68       0.21       1.83       ----

> <Gold.Chemscore.Fitness>
12.7822

> <Gold.Chemscore.DG>
-14.8193

> <Gold.Chemscore.ZeroCoef>
-5.4800

> <Gold.Chemscore.Hbond>
1.9267

> <Gold.Chemscore.Metal>
0.0000

> <Gold.Chemscore.Lipo>
105.3670

> <Gold.Chemscore.Internal_Hbond>
0.0000

> <Gold.Chemscore.DEClash>
0.2077

> <Gold.Chemscore.DEInternal>
1.8294

> <Gold.Chemscore.Rot>
3.6812

> <Gold.Chemscore.Internal.Correction>
   9.000000E+99

> <Gold.Chemscore.Hbonds>
donor molecule, donor type, donor heavy atom, donor atom, acceptor molecule, acceptor atom, score
      L1  H     9    45       P1 10171  0.81
      P1  H  7997  8009       L1    25  0.87

> <Gold.Chemscore.Hbond.Weighted>
-6.4353

> <Gold.Chemscore.Metal.Weighted>
-0.0000

> <Gold.Chemscore.Lipo.Weighted>
-12.3279

> <Gold.Chemscore.Internal_Hbond.Weighted>
0.0000

> <Gold.Chemscore.DEClash.Weighted>
0.2077

> <Gold.Chemscore.DEInternal.Weighted>
1.8294

> <Gold.Chemscore.Rot.Weighted>
9.4239

> <Gold.Chemscore.Internal.Correction.Weighted>
   9.000000E+99

> <Gold.Protein.RotatedTorsions>
[ 6907 6896 6895 6894 ] final   -7.56 input  -60.11 | X-H torsion
[ 7974 7965 7964 7962 ] final -123.25 input  175.53 | X-H torsion
[ 8008 7997 7996 7995 ] final  108.66 input   59.86 | X-H torsion
[ 10167 10162 10161 10158 ] final   -1.45 input  -65.29 | X-H torsion
[ 10718 10713 10712 10709 ] final -101.54 input   66.30 | X-H torsion
[ 10763 10752 10751 10750 ] final    0.42 input  -60.55 | X-H torsion
[ 11005 11000 10999 10996 ] final   38.13 input  -57.11 | X-H torsion

> <Gold.Protein.ActiveResidues>
 VAL166  LYS551  ARG553  GLY616  TRP617  ASP618  TYR619  PRO620  LYS621  CYS622 
 ASP623  PHE694  ASN695  SER759  ASP760  ASP761  ALA762  ILE779  LEU786  VAL792 
 PHE793  MET794  SER795  GLU796  ALA797  LYS798  CYS799  TRP800  GLU811  SER814 

> <Gold.Protein.RotatedAtoms>
  151.4476  135.1026  159.9688 H   0  0  0  0  0  0  0  0  0  0  0  0  # atno 6907 bound_to 6896
  152.4900  133.8470  159.7192 H   0  0  0  0  0  0  0  0  0  0  0  0  # atno 6908 bound_to 6896
  150.9044  133.7017  159.2898 H   0  0  0  0  0  0  0  0  0  0  0  0  # atno 6909 bound_to 6896
  145.0207  140.7985  143.4383 H   0  0  0  0  0  0  0  0  0  0  0  0  # atno 7974 bound_to 7965
  156.1920  140.3072  155.9351 H   0  0  0  0  0  0  0  0  0  0  0  0  # atno 8008 bound_to 7997
  155.3152  140.0453  157.3054 H   0  0  0  0  0  0  0  0  0  0  0  0  # atno 8009 bound_to 7997
  154.5464  140.2277  155.8566 H   0  0  0  0  0  0  0  0  0  0  0  0  # atno 8010 bound_to 7997
  140.6810  143.6774  150.8134 H   0  0  0  0  0  0  0  0  0  0  0  0  # atno 10167 bound_to 10162
  156.0198  130.5378  150.6978 H   0  0  0  0  0  0  0  0  0  0  0  0  # atno 10718 bound_to 10713
  153.3209  135.6969  153.7032 H   0  0  0  0  0  0  0  0  0  0  0  0  # atno 10763 bound_to 10752
  153.5872  135.3486  155.2898 H   0  0  0  0  0  0  0  0  0  0  0  0  # atno 10764 bound_to 10752
  154.8597  135.4309  154.2372 H   0  0  0  0  0  0  0  0  0  0  0  0  # atno 10765 bound_to 10752
  140.2157  134.3701  155.8028 H   0  0  0  0  0  0  0  0  0  0  0  0  # atno 11005 bound_to 11000
  145.1900  139.2306  143.5248 LP  0  0  0  0  0  0  0  0  0  0  0  0  # atno 17320 bound_to 7965
  146.3485  140.1693  142.8590 LP  0  0  0  0  0  0  0  0  0  0  0  0  # atno 17321 bound_to 7965
  140.0474  143.5284  152.2689 LP  0  0  0  0  0  0  0  0  0  0  0  0  # atno 17342 bound_to 10162
  139.6133  144.7614  151.2902 LP  0  0  0  0  0  0  0  0  0  0  0  0  # atno 17343 bound_to 10162
  157.4645  131.0887  151.0710 LP  0  0  0  0  0  0  0  0  0  0  0  0  # atno 17370 bound_to 10713
  157.1188  130.6053  149.5500 LP  0  0  0  0  0  0  0  0  0  0  0  0  # atno 17371 bound_to 10713
  141.2225  133.7166  156.8492 LP  0  0  0  0  0  0  0  0  0  0  0  0  # atno 17394 bound_to 11000
  140.1903  134.8970  157.3052 LP  0  0  0  0  0  0  0  0  0  0  0  0  # atno 17395 bound_to 11000

$$$$
