AV-unprocessed.smi:1396|AV-procd|sdf|5675|dock4
  -GOLD-   22720 5303D 1   1.00000     0.00000
 Structure written by MMmdl.
 47 48  0  0  0  0  0  0  0  0  2 V2000
  141.5713  137.6282  153.5402 C   0  0  0  0  0  0  0  0  0  0  0  0
  142.8717  137.8719  152.9346 N   0  0  0  0  0  0  0  0  0  0  0  0
  143.8185  136.9355  152.7807 C   0  0  0  0  0  0  0  0  0  0  0  0
  143.6717  135.7635  153.1293 O   0  0  0  0  0  0  0  0  0  0  0  0
  145.1237  137.3918  152.1199 C   0  0  0  0  0  0  0  0  0  0  0  0
  145.8400  138.4313  152.9037 N   0  3  2  0  0  0  0  0  0  0  0  0
  146.7244  139.2869  152.0674 C   0  0  0  0  0  0  0  0  0  0  0  0
  147.3345  140.4297  152.8955 C   0  0  0  0  0  0  0  0  0  0  0  0
  148.1087  139.8837  154.1054 C   0  0  1  0  0  0  0  0  0  0  0  0
  148.6132  140.9900  154.9142 N   0  0  0  0  0  0  0  0  0  0  0  0
  149.4452  140.8651  155.9584 C   0  0  0  0  0  0  0  0  0  0  0  0
  149.8729  139.7815  156.3543 O   0  0  0  0  0  0  0  0  0  0  0  0
  149.7471  142.0648  156.4849 N   0  0  0  0  0  0  0  0  0  0  0  0
  150.5875  142.3683  157.5914 C   0  0  0  0  0  0  0  0  0  0  0  0
  150.9617  141.3083  158.4420 C   0  0  0  0  0  0  0  0  0  0  0  0
  151.8039  141.5698  159.5391 C   0  0  0  0  0  0  0  0  0  0  0  0
  152.2532  142.8880  159.7504 C   0  0  0  0  0  0  0  0  0  0  0  0
  153.0735  143.1410  160.8307 O   0  0  0  0  0  0  0  0  0  0  0  0
  153.6942  142.0374  161.4812 C   0  0  0  0  0  0  0  0  0  0  0  0
  151.9114  143.9131  158.9314 N   0  0  0  0  0  0  0  0  0  0  0  0
  151.1032  143.6559  157.8807 C   0  0  0  0  0  0  0  0  0  0  0  0
  147.1878  138.9703  154.9348 C   0  0  0  0  0  0  0  0  0  0  0  0
  146.5717  137.8616  154.0643 C   0  0  0  0  0  0  0  0  0  0  0  0
  140.9931  138.5520  153.5641 H   0  0  0  0  0  0  0  0  0  0  0  0
  141.6802  137.2690  154.5644 H   0  0  0  0  0  0  0  0  0  0  0  0
  141.0088  136.8884  152.9692 H   0  0  0  0  0  0  0  0  0  0  0  0
  143.0620  138.8108  152.6149 H   0  0  0  0  0  0  0  0  0  0  0  0
  145.7517  136.5048  152.0264 H   0  0  0  0  0  0  0  0  0  0  0  0
  144.9362  137.7514  151.1066 H   0  0  0  0  0  0  0  0  0  0  0  0
  147.5168  138.6762  151.6317 H   0  0  0  0  0  0  0  0  0  0  0  0
  146.1624  139.7119  151.2353 H   0  0  0  0  0  0  0  0  0  0  0  0
  147.9961  141.0265  152.2665 H   0  0  0  0  0  0  0  0  0  0  0  0
  146.5394  141.0976  153.2309 H   0  0  0  0  0  0  0  0  0  0  0  0
  148.9516  139.2972  153.7341 H   0  0  0  0  0  0  0  0  0  0  0  0
  148.3139  141.9188  154.6545 H   0  0  0  0  0  0  0  0  0  0  0  0
  149.3655  142.8664  156.0043 H   0  0  0  0  0  0  0  0  0  0  0  0
  150.6055  140.3046  158.2611 H   0  0  0  0  0  0  0  0  0  0  0  0
  152.0997  140.7741  160.2068 H   0  0  0  0  0  0  0  0  0  0  0  0
  154.3116  142.4032  162.3014 H   0  0  0  0  0  0  0  0  0  0  0  0
  154.3433  141.4853  160.8000 H   0  0  0  0  0  0  0  0  0  0  0  0
  152.9543  141.3556  161.9027 H   0  0  0  0  0  0  0  0  0  0  0  0
  150.8929  144.5131  157.2614 H   0  0  0  0  0  0  0  0  0  0  0  0
  147.7445  138.5210  155.7582 H   0  0  0  0  0  0  0  0  0  0  0  0
  146.3897  139.5607  155.3879 H   0  0  0  0  0  0  0  0  0  0  0  0
  145.8899  137.2672  154.6736 H   0  0  0  0  0  0  0  0  0  0  0  0
  147.3511  137.1858  153.7084 H   0  0  0  0  0  0  0  0  0  0  0  0
  145.1241  139.0331  153.2862 H   0  0  0  0  0  0  0  0  0  0  0  0
  1  2  1  0  0  0  0
  1 24  1  0  0  0  0
  1 25  1  0  0  0  0
  1 26  1  0  0  0  0
  2  3  1  0  0  0  0
  2 27  1  0  0  0  0
  3  4  2  0  0  0  0
  3  5  1  0  0  0  0
  5  6  1  0  0  0  0
  5 28  1  0  0  0  0
  5 29  1  0  0  0  0
  6 23  1  0  0  0  0
  6  7  1  0  0  0  0
  6 47  1  0  0  0  0
  7  8  1  0  0  0  0
  7 30  1  0  0  0  0
  7 31  1  0  0  0  0
  8  9  1  0  0  0  0
  8 32  1  0  0  0  0
  8 33  1  0  0  0  0
  9 10  1  0  0  0  0
  9 22  1  0  0  0  0
  9 34  1  0  0  0  0
 10 11  1  0  0  0  0
 10 35  1  0  0  0  0
 11 12  2  0  0  0  0
 11 13  1  0  0  0  0
 13 14  1  0  0  0  0
 13 36  1  0  0  0  0
 14 21  1  0  0  0  0
 14 15  2  0  0  0  0
 15 16  1  0  0  0  0
 15 37  1  0  0  0  0
 16 17  2  0  0  0  0
 16 38  1  0  0  0  0
 17 18  1  0  0  0  0
 17 20  1  0  0  0  0
 18 19  1  0  0  0  0
 19 39  1  0  0  0  0
 19 40  1  0  0  0  0
 19 41  1  0  0  0  0
 20 21  2  0  0  0  0
 21 42  1  0  0  0  0
 22 23  1  0  0  0  0
 22 43  1  0  0  0  0
 22 44  1  0  0  0  0
 23 45  1  0  0  0  0
 23 46  1  0  0  0  0
M  CHG  1   6   1
M  END
> <s_m_source_file>
AV-unprocessed.smi

> <i_m_source_file_index>
1396

> <i_lp_mmshare_version>
43012

> <i_f3d_flags>
0

> <s_epik_input>
W0NIM11bTkhdQyg9TylbQ0gyXU4xW0NIMl1bQ0gyXVtDSF0oW0NIMl1bQ0gyXTEpW05IXUMoPU8pW05IXWMyW2NIXVtjSF1jKE9bQ0gzXSluW2NIXTI=

> <s_epik_cmdline>
J2VwaWtfcHl0aG9uJywgJy1waCcsICc3LjAnLCAnLXRuJywgJzgnLCAnLW1hJywgJzIwMCcsICctbWV0YWxfYmluZGluZycsICctaW1hZScsICc8aW5maWxlLm1hZT4nLCAnLW9tYWUnLCAnPG91dGZpbGUubWFlPic=

> <r_lp_tautomer_probability>
1

> <r_epik_Ionization_Penalty>
0.838943

> <r_epik_Ionization_Penalty_Charging>
0.838844

> <r_epik_Ionization_Penalty_Neutral>
9.87511e-05

> <r_epik_State_Penalty>
0.8734

> <r_epik_Charging_Adjusted_Penalty>
1.71224

> <i_epik_Tot_Q>
1

> <i_epik_Tot_abs_Q>
1

> <r_epik_Metal_State_Penalty>
0.877926

> <b_epik_Metal_Only>
0

> <s_lp_Force_Field>
OPLS_2005

> <r_lp_Energy>
18.1916

> <b_lp_Chiralities_Consistent>
1

> <s_lp_Variant>
AV-unprocessed.smi:1396-2

> <Gold.Version>
5.8.1

> <Gold.Id.Protein>
6NUR|6NUR_protein|mol2

> <Gold.PLP.Fitness>
46.7682

> <Gold.PLP.PLP>
-34.0689

> <Gold.PLP.part.hbond>
-3.9016

> <Gold.PLP.part.metal>
0.0000

> <Gold.PLP.part.buried>
4.6728

> <Gold.PLP.part.nonpolar>
-34.4014

> <Gold.PLP.part.repulsive>
0.4618

> <Gold.PLP.ligand.clash>
0.0000

> <Gold.PLP.ligand.torsion>
0.5117

> <Gold.PLP.Chemscore.Hbond>
3.7762

> <Gold.PLP.Chemscore.CHOScore>
0.7892

> <Gold.PLP.Chemscore.Metal>
0.0000

> <Gold.Chemscore.Hbonds>
donor molecule, donor type, donor heavy atom, donor atom, acceptor molecule, acceptor atom, score
      L1  H     2    27       P1 10175  1.00
      L1  H     6    47       P1 10175  0.87
      L1  H    13    36       P1  8028  1.00
      L1  C    21    42       P1  8028  0.90

> <Gold.PLP.Chemscore.Internal.Correction>
0.0266

> <Gold.Rescore>
     Score         DG    S(hbond)    S(metal)    S(lipo)     H(rot)  DE(clash)    DE(int)     intcor
     14.80     -18.88       2.64        0.00      82.81       2.00       2.37       1.71       ----

> <Gold.Chemscore.Fitness>
14.8024

> <Gold.Chemscore.DG>
-18.8797

> <Gold.Chemscore.ZeroCoef>
-5.4800

> <Gold.Chemscore.Hbond>
2.6412

> <Gold.Chemscore.Metal>
0.0000

> <Gold.Chemscore.Lipo>
82.8090

> <Gold.Chemscore.Internal_Hbond>
0.0000

> <Gold.Chemscore.DEClash>
2.3714

> <Gold.Chemscore.DEInternal>
1.7058

> <Gold.Chemscore.Rot>
1.9963

> <Gold.Chemscore.Internal.Correction>
   9.000000E+99

> <Gold.Chemscore.Hbonds>
donor molecule, donor type, donor heavy atom, donor atom, acceptor molecule, acceptor atom, score
      L1  H     2    27       P1 10175  1.00
      L1  H     6    47       P1 10175  0.43
      L1  H    13    36       P1  8028  0.99

> <Gold.Chemscore.Hbond.Weighted>
-8.8215

> <Gold.Chemscore.Metal.Weighted>
-0.0000

> <Gold.Chemscore.Lipo.Weighted>
-9.6887

> <Gold.Chemscore.Internal_Hbond.Weighted>
0.0000

> <Gold.Chemscore.DEClash.Weighted>
2.3714

> <Gold.Chemscore.DEInternal.Weighted>
1.7058

> <Gold.Chemscore.Rot.Weighted>
5.1105

> <Gold.Chemscore.Internal.Correction.Weighted>
   9.000000E+99

> <Gold.Protein.RotatedTorsions>
[ 6907 6896 6895 6894 ] final  104.38 input  -60.11 | X-H torsion
[ 7974 7965 7964 7962 ] final -123.79 input  175.53 | X-H torsion
[ 8008 7997 7996 7995 ] final  -16.25 input   59.86 | X-H torsion
[ 10167 10162 10161 10158 ] final  129.31 input  -65.29 | X-H torsion
[ 10718 10713 10712 10709 ] final -120.66 input   66.30 | X-H torsion
[ 10763 10752 10751 10750 ] final   26.13 input  -60.55 | X-H torsion
[ 11005 11000 10999 10996 ] final   48.17 input  -57.11 | X-H torsion

> <Gold.Protein.ActiveResidues>
 VAL166  LYS551  ARG553  GLY616  TRP617  ASP618  TYR619  PRO620  LYS621  CYS622 
 ASP623  PHE694  ASN695  SER759  ASP760  ASP761  ALA762  ILE779  LEU786  VAL792 
 PHE793  MET794  SER795  GLU796  ALA797  LYS798  CYS799  TRP800  GLU811  SER814 

> <Gold.Protein.RotatedAtoms>
  152.5266  133.9685  159.7750 H   0  0  0  0  0  0  0  0  0  0  0  0  # atno 6907 bound_to 6896
  150.9961  133.6093  159.2708 H   0  0  0  0  0  0  0  0  0  0  0  0  # atno 6908 bound_to 6896
  151.3219  135.0827  159.9362 H   0  0  0  0  0  0  0  0  0  0  0  0  # atno 6909 bound_to 6896
  145.0149  140.7938  143.4416 H   0  0  0  0  0  0  0  0  0  0  0  0  # atno 7974 bound_to 7965
  154.5068  140.2174  155.9236 H   0  0  0  0  0  0  0  0  0  0  0  0  # atno 8008 bound_to 7997
  156.1503  140.3163  155.8603 H   0  0  0  0  0  0  0  0  0  0  0  0  # atno 8009 bound_to 7997
  155.3952  140.0481  157.3030 H   0  0  0  0  0  0  0  0  0  0  0  0  # atno 8010 bound_to 7997
  139.5484  144.6793  151.4401 H   0  0  0  0  0  0  0  0  0  0  0  0  # atno 10167 bound_to 10162
  156.1276  130.6371  150.9568 H   0  0  0  0  0  0  0  0  0  0  0  0  # atno 10718 bound_to 10713
  153.0644  135.6567  154.0389 H   0  0  0  0  0  0  0  0  0  0  0  0  # atno 10763 bound_to 10752
  154.0049  135.2933  155.3400 H   0  0  0  0  0  0  0  0  0  0  0  0  # atno 10764 bound_to 10752
  154.6995  135.5250  153.8575 H   0  0  0  0  0  0  0  0  0  0  0  0  # atno 10765 bound_to 10752
  140.1214  134.4824  155.8594 H   0  0  0  0  0  0  0  0  0  0  0  0  # atno 11005 bound_to 11000
  145.1973  139.2270  143.5211 LP  0  0  0  0  0  0  0  0  0  0  0  0  # atno 17320 bound_to 7965
  146.3476  140.1782  142.8589 LP  0  0  0  0  0  0  0  0  0  0  0  0  # atno 17321 bound_to 7965
  140.6739  143.8232  150.7034 LP  0  0  0  0  0  0  0  0  0  0  0  0  # atno 17342 bound_to 10162
  140.1665  143.4231  152.2031 LP  0  0  0  0  0  0  0  0  0  0  0  0  # atno 17343 bound_to 10162
  157.6456  131.0904  150.8160 LP  0  0  0  0  0  0  0  0  0  0  0  0  # atno 17370 bound_to 10713
  156.8248  130.4996  149.5338 LP  0  0  0  0  0  0  0  0  0  0  0  0  # atno 17371 bound_to 10713
  141.2152  133.6762  156.6896 LP  0  0  0  0  0  0  0  0  0  0  0  0  # atno 17394 bound_to 11000
  140.2960  134.8202  157.4057 LP  0  0  0  0  0  0  0  0  0  0  0  0  # atno 17395 bound_to 11000

$$$$
