AV-unprocessed.smi:2302|AV-procd|sdf|9239|dock6
  -GOLD-   2272012453D 1   1.00000     0.00000
 Structure written by MMmdl.
 40 41  0  0  0  0  0  0  0  0  2 V2000
  153.3711  140.3344  159.8899 C   0  0  0  0  0  0  0  0  0  0  0  0
  152.8729  141.6682  159.3746 C   0  0  0  0  0  0  0  0  0  0  0  0
  153.3042  142.8769  159.9556 C   0  0  0  0  0  0  0  0  0  0  0  0
  152.8066  144.0812  159.4264 C   0  0  0  0  0  0  0  0  0  0  0  0
  151.9047  144.0280  158.3462 C   0  0  0  0  0  0  0  0  0  0  0  0
  151.5209  142.7729  157.8228 C   0  0  0  0  0  0  0  0  0  0  0  0
  150.6108  142.8274  156.7340 N   0  0  0  0  0  0  0  0  0  0  0  0
  150.0791  141.8029  156.0447 C   0  0  0  0  0  0  0  0  0  0  0  0
  150.2724  140.6097  156.2783 O   0  0  0  0  0  0  0  0  0  0  0  0
  149.2942  142.2427  155.0506 N   0  0  0  0  0  0  0  0  0  0  0  0
  148.5725  141.3922  154.1078 C   0  0  0  0  0  0  0  0  0  0  0  0
  147.0896  141.7858  153.9427 C   0  0  1  0  0  0  0  0  0  0  0  0
  146.1976  141.3761  155.1354 C   0  0  0  0  0  0  0  0  0  0  0  0
  144.8005  141.8095  154.9060 N   0  3  1  0  0  0  0  0  0  0  0  0
  143.8896  141.4024  155.9972 C   0  0  0  0  0  0  0  0  0  0  0  0
  144.7395  143.2616  154.6246 C   0  0  0  0  0  0  0  0  0  0  0  0
  145.6688  143.6177  153.4527 C   0  0  0  0  0  0  0  0  0  0  0  0
  146.9941  143.1932  153.7455 O   0  0  0  0  0  0  0  0  0  0  0  0
  152.0081  141.6169  158.3387 N   0  0  0  0  0  0  0  0  0  0  0  0
  153.9675  140.4576  160.7943 H   0  0  0  0  0  0  0  0  0  0  0  0
  153.9902  139.8469  159.1364 H   0  0  0  0  0  0  0  0  0  0  0  0
  152.5320  139.6783  160.1235 H   0  0  0  0  0  0  0  0  0  0  0  0
  153.9976  142.8841  160.7837 H   0  0  0  0  0  0  0  0  0  0  0  0
  153.1115  145.0306  159.8413 H   0  0  0  0  0  0  0  0  0  0  0  0
  151.5132  144.9442  157.9287 H   0  0  0  0  0  0  0  0  0  0  0  0
  150.3396  143.7547  156.4427 H   0  0  0  0  0  0  0  0  0  0  0  0
  149.1857  143.2400  154.9379 H   0  0  0  0  0  0  0  0  0  0  0  0
  149.0745  141.3865  153.1389 H   0  0  0  0  0  0  0  0  0  0  0  0
  148.6323  140.3708  154.4845 H   0  0  0  0  0  0  0  0  0  0  0  0
  146.7218  141.2936  153.0405 H   0  0  0  0  0  0  0  0  0  0  0  0
  146.2282  140.2941  155.2683 H   0  0  0  0  0  0  0  0  0  0  0  0
  146.5598  141.8251  156.0617 H   0  0  0  0  0  0  0  0  0  0  0  0
  144.1653  141.8816  156.9375 H   0  0  0  0  0  0  0  0  0  0  0  0
  143.9203  140.3220  156.1417 H   0  0  0  0  0  0  0  0  0  0  0  0
  142.8613  141.6780  155.7609 H   0  0  0  0  0  0  0  0  0  0  0  0
  143.7147  143.5489  154.3860 H   0  0  0  0  0  0  0  0  0  0  0  0
  145.0317  143.8213  155.5146 H   0  0  0  0  0  0  0  0  0  0  0  0
  145.3230  143.1574  152.5260 H   0  0  0  0  0  0  0  0  0  0  0  0
  145.6719  144.6958  153.2905 H   0  0  0  0  0  0  0  0  0  0  0  0
  144.4833  141.3377  154.0710 H   0  0  0  0  0  0  0  0  0  0  0  0
  1  2  1  0  0  0  0
  1 20  1  0  0  0  0
  1 21  1  0  0  0  0
  1 22  1  0  0  0  0
  2 19  1  0  0  0  0
  2  3  2  0  0  0  0
  3  4  1  0  0  0  0
  3 23  1  0  0  0  0
  4  5  2  0  0  0  0
  4 24  1  0  0  0  0
  5  6  1  0  0  0  0
  5 25  1  0  0  0  0
  6  7  1  0  0  0  0
  6 19  2  0  0  0  0
  7  8  1  0  0  0  0
  7 26  1  0  0  0  0
  8  9  2  0  0  0  0
  8 10  1  0  0  0  0
 10 11  1  0  0  0  0
 10 27  1  0  0  0  0
 11 12  1  0  0  0  0
 11 28  1  0  0  0  0
 11 29  1  0  0  0  0
 12 18  1  0  0  0  0
 12 13  1  0  0  0  0
 12 30  1  0  0  0  0
 13 14  1  0  0  0  0
 13 31  1  0  0  0  0
 13 32  1  0  0  0  0
 14 15  1  0  0  0  0
 14 16  1  0  0  0  0
 14 40  1  0  0  0  0
 15 33  1  0  0  0  0
 15 34  1  0  0  0  0
 15 35  1  0  0  0  0
 16 17  1  0  0  0  0
 16 36  1  0  0  0  0
 16 37  1  0  0  0  0
 17 18  1  0  0  0  0
 17 38  1  0  0  0  0
 17 39  1  0  0  0  0
M  CHG  1  14   1
M  END
> <s_m_source_file>
AV-unprocessed.smi

> <i_m_source_file_index>
2302

> <i_lp_mmshare_version>
43012

> <i_f3d_flags>
0

> <s_epik_input>
W0NIM11jMVtjSF1bY0hdW2NIXWMobjEpW05IXUMoPU8pW05IXVtDSDJdW0NAQEhdMltDSDJdTihbQ0gzXSlbQ0gyXVtDSDJdTzI=

> <s_epik_cmdline>
J2VwaWtfcHl0aG9uJywgJy1waCcsICc3LjAnLCAnLXRuJywgJzgnLCAnLW1hJywgJzIwMCcsICctbWV0YWxfYmluZGluZycsICctaW1hZScsICc8aW5maWxlLm1hZT4nLCAnLW9tYWUnLCAnPG91dGZpbGUubWFlPic=

> <r_epik_Ionization_Penalty>
0.204647

> <r_epik_Ionization_Penalty_Charging>
0.204578

> <r_epik_Ionization_Penalty_Neutral>
6.91954e-05

> <r_epik_State_Penalty>
0.194513

> <r_epik_Charging_Adjusted_Penalty>
0.399091

> <i_epik_Tot_Q>
1

> <i_epik_Tot_abs_Q>
1

> <r_epik_Metal_State_Penalty>
0.194515

> <b_epik_Metal_Only>
0

> <s_lp_Force_Field>
OPLS_2005

> <r_lp_Energy>
15.833

> <b_lp_Chiralities_Consistent>
1

> <s_lp_Variant>
AV-unprocessed.smi:2302-4

> <Gold.Version>
5.8.1

> <Gold.Id.Protein>
6NUR|6NUR_protein|mol2

> <Gold.PLP.Fitness>
51.5558

> <Gold.PLP.PLP>
-39.7366

> <Gold.PLP.part.hbond>
-4.0000

> <Gold.PLP.part.metal>
0.0000

> <Gold.PLP.part.buried>
-3.8201

> <Gold.PLP.part.nonpolar>
-32.8142

> <Gold.PLP.part.repulsive>
1.1394

> <Gold.PLP.ligand.clash>
0.0000

> <Gold.PLP.ligand.torsion>
0.1537

> <Gold.PLP.Chemscore.Hbond>
4.0415

> <Gold.PLP.Chemscore.CHOScore>
0.0000

> <Gold.PLP.Chemscore.Metal>
0.0000

> <Gold.Chemscore.Hbonds>
donor molecule, donor type, donor heavy atom, donor atom, acceptor molecule, acceptor atom, score
      L1  H     7    26       P1  8028  0.86
      L1  H    10    27       P1  8028  0.98
      L1  H    14    40       P1 10175  2.00
      P1  H  8022  8030       L1    18  0.20

> <Gold.PLP.Chemscore.Internal.Correction>
0.0022

> <Gold.Rescore>
     Score         DG    S(hbond)    S(metal)    S(lipo)     H(rot)  DE(clash)    DE(int)     intcor
     20.76     -22.40       2.91        0.00      89.54       1.27       0.12       1.53       ----

> <Gold.Chemscore.Fitness>
20.7559

> <Gold.Chemscore.DG>
-22.4029

> <Gold.Chemscore.ZeroCoef>
-5.4800

> <Gold.Chemscore.Hbond>
2.9062

> <Gold.Chemscore.Metal>
0.0000

> <Gold.Chemscore.Lipo>
89.5425

> <Gold.Chemscore.Internal_Hbond>
0.0000

> <Gold.Chemscore.DEClash>
0.1153

> <Gold.Chemscore.DEInternal>
1.5317

> <Gold.Chemscore.Rot>
1.2736

> <Gold.Chemscore.Internal.Correction>
   9.000000E+99

> <Gold.Chemscore.Hbonds>
donor molecule, donor type, donor heavy atom, donor atom, acceptor molecule, acceptor atom, score
      L1  H     7    26       P1  8028  0.85
      L1  H    10    27       P1  8028  0.93
      L1  H    14    40       P1 10175  0.44
      P1  H  8022  8030       L1    18  0.18

> <Gold.Chemscore.Hbond.Weighted>
-9.7067

> <Gold.Chemscore.Metal.Weighted>
-0.0000

> <Gold.Chemscore.Lipo.Weighted>
-10.4765

> <Gold.Chemscore.Internal_Hbond.Weighted>
0.0000

> <Gold.Chemscore.DEClash.Weighted>
0.1153

> <Gold.Chemscore.DEInternal.Weighted>
1.5317

> <Gold.Chemscore.Rot.Weighted>
3.2603

> <Gold.Chemscore.Internal.Correction.Weighted>
   9.000000E+99

> <Gold.Protein.RotatedTorsions>
[ 6907 6896 6895 6894 ] final  121.41 input  -60.11 | X-H torsion
[ 7974 7965 7964 7962 ] final -126.96 input  175.53 | X-H torsion
[ 8008 7997 7996 7995 ] final -102.93 input   59.86 | X-H torsion
[ 10167 10162 10161 10158 ] final   80.03 input  -65.29 | X-H torsion
[ 10718 10713 10712 10709 ] final  -15.06 input   66.30 | X-H torsion
[ 10763 10752 10751 10750 ] final  142.24 input  -60.55 | X-H torsion
[ 11005 11000 10999 10996 ] final -175.28 input  -57.11 | X-H torsion

> <Gold.Protein.ActiveResidues>
 VAL166  LYS551  ARG553  GLY616  TRP617  ASP618  TYR619  PRO620  LYS621  CYS622 
 ASP623  PHE694  ASN695  SER759  ASP760  ASP761  ALA762  ILE779  LEU786  VAL792 
 PHE793  MET794  SER795  GLU796  ALA797  LYS798  CYS799  TRP800  GLU811  SER814 

> <Gold.Protein.RotatedAtoms>
  152.4323  133.7300  159.6581 H   0  0  0  0  0  0  0  0  0  0  0  0  # atno 6907 bound_to 6896
  150.8204  133.8253  159.3147 H   0  0  0  0  0  0  0  0  0  0  0  0  # atno 6908 bound_to 6896
  151.5937  135.1054  160.0096 H   0  0  0  0  0  0  0  0  0  0  0  0  # atno 6909 bound_to 6896
  144.9819  140.7648  143.4607 H   0  0  0  0  0  0  0  0  0  0  0  0  # atno 7974 bound_to 7965
  154.8636  140.0425  157.1681 H   0  0  0  0  0  0  0  0  0  0  0  0  # atno 8008 bound_to 7997
  154.8813  140.2973  155.5403 H   0  0  0  0  0  0  0  0  0  0  0  0  # atno 8009 bound_to 7997
  156.2999  140.2410  156.3816 H   0  0  0  0  0  0  0  0  0  0  0  0  # atno 8010 bound_to 7997
  139.9540  144.6006  150.8134 H   0  0  0  0  0  0  0  0  0  0  0  0  # atno 10167 bound_to 10162
  156.6071  130.4839  149.6216 H   0  0  0  0  0  0  0  0  0  0  0  0  # atno 10718 bound_to 10713
  153.9525  135.2968  155.3438 H   0  0  0  0  0  0  0  0  0  0  0  0  # atno 10763 bound_to 10752
  154.7419  135.5021  153.9140 H   0  0  0  0  0  0  0  0  0  0  0  0  # atno 10764 bound_to 10752
  153.0987  135.6728  153.9823 H   0  0  0  0  0  0  0  0  0  0  0  0  # atno 10765 bound_to 10752
  140.4650  134.6219  157.4859 H   0  0  0  0  0  0  0  0  0  0  0  0  # atno 11005 bound_to 11000
  145.2409  139.2073  143.4993 LP  0  0  0  0  0  0  0  0  0  0  0  0  # atno 17320 bound_to 7965
  146.3410  140.2304  142.8593 LP  0  0  0  0  0  0  0  0  0  0  0  0  # atno 17321 bound_to 7965
  140.7574  143.3085  151.2902 LP  0  0  0  0  0  0  0  0  0  0  0  0  # atno 17342 bound_to 10162
  139.6606  144.0197  152.2689 LP  0  0  0  0  0  0  0  0  0  0  0  0  # atno 17343 bound_to 10162
  156.2421  130.6857  151.1565 LP  0  0  0  0  0  0  0  0  0  0  0  0  # atno 17370 bound_to 10713
  157.7264  131.0646  150.5910 LP  0  0  0  0  0  0  0  0  0  0  0  0  # atno 17371 bound_to 10713
  139.9921  134.6969  155.9672 LP  0  0  0  0  0  0  0  0  0  0  0  0  # atno 17394 bound_to 11000
  141.1603  133.6539  156.4298 LP  0  0  0  0  0  0  0  0  0  0  0  0  # atno 17395 bound_to 11000

$$$$
