AV-unprocessed.smi:1521|AV-procd|sdf|6133|dock6
  -GOLD-   22720 6273D 1   1.00000     0.00000
 Structure written by MMmdl.
 35 36  0  0  0  0  0  0  0  0  2 V2000
  150.9546  140.6046  156.5344 O   0  0  0  0  0  0  0  0  0  0  0  0
  150.3893  141.6962  156.4838 C   0  0  0  0  0  0  0  0  0  0  0  0
  149.4550  141.9959  155.5703 N   0  0  0  0  0  0  0  0  0  0  0  0
  148.9554  141.0869  154.5439 C   0  0  0  0  0  0  0  0  0  0  0  0
  147.4402  141.2507  154.3333 C   0  0  1  0  0  0  0  0  0  0  0  0
  146.6434  140.9469  155.6178 C   0  0  0  0  0  0  0  0  0  0  0  0
  145.2580  141.1483  155.3700 O   0  0  0  0  0  0  0  0  0  0  0  0
  144.9925  142.4892  154.9818 C   0  0  0  0  0  0  0  0  0  0  0  0
  145.7864  142.8071  153.7044 C   0  0  0  0  0  0  0  0  0  0  0  0
  147.1684  142.5971  153.9579 O   0  0  0  0  0  0  0  0  0  0  0  0
  150.5938  142.7377  157.3109 N   0  0  0  0  0  0  0  0  0  0  0  0
  151.4593  142.8653  158.4122 C   0  0  0  0  0  0  0  0  0  0  0  0
  152.2612  141.8790  158.9023 C   0  0  0  0  0  0  0  0  0  0  0  0
  153.1340  142.0813  160.0521 C   0  0  0  0  0  0  0  0  0  0  0  0
  154.0997  141.0312  160.5728 C   0  0  0  0  0  0  0  0  0  0  0  0
  155.2577  141.0756  159.9136 F   0  0  0  0  0  0  0  0  0  0  0  0
  154.3490  141.2448  161.8641 F   0  0  0  0  0  0  0  0  0  0  0  0
  153.5895  139.8062  160.4444 F   0  0  0  0  0  0  0  0  0  0  0  0
  153.0604  143.3687  160.5467 C   0  0  0  0  0  0  0  0  0  0  0  0
  152.2875  144.3960  160.1323 N   0  5  0  0  0  0  0  0  0  0  0  0
  151.4711  144.1941  159.0597 C   0  0  0  0  0  0  0  0  0  0  0  0
  150.7485  145.0917  158.6245 O   0  0  0  0  0  0  0  0  0  0  0  0
  149.0419  142.9163  155.6016 H   0  0  0  0  0  0  0  0  0  0  0  0
  149.4811  141.3227  153.6183 H   0  0  0  0  0  0  0  0  0  0  0  0
  149.2033  140.0512  154.7821 H   0  0  0  0  0  0  0  0  0  0  0  0
  147.1149  140.5767  153.5384 H   0  0  0  0  0  0  0  0  0  0  0  0
  146.7974  139.9124  155.9248 H   0  0  0  0  0  0  0  0  0  0  0  0
  146.9732  141.5796  156.4435 H   0  0  0  0  0  0  0  0  0  0  0  0
  143.9235  142.6052  154.8039 H   0  0  0  0  0  0  0  0  0  0  0  0
  145.2615  143.1747  155.7869 H   0  0  0  0  0  0  0  0  0  0  0  0
  145.4553  142.1836  152.8724 H   0  0  0  0  0  0  0  0  0  0  0  0
  145.6328  143.8453  153.4100 H   0  0  0  0  0  0  0  0  0  0  0  0
  150.0322  143.5582  157.1368 H   0  0  0  0  0  0  0  0  0  0  0  0
  152.2821  140.9007  158.4535 H   0  0  0  0  0  0  0  0  0  0  0  0
  153.7263  143.6110  161.4024 H   0  0  0  0  0  0  0  0  0  0  0  0
  1  2  2  0  0  0  0
  2  3  1  0  0  0  0
  2 11  1  0  0  0  0
  3  4  1  0  0  0  0
  3 23  1  0  0  0  0
  4  5  1  0  0  0  0
  4 24  1  0  0  0  0
  4 25  1  0  0  0  0
  5 10  1  0  0  0  0
  5  6  1  0  0  0  0
  5 26  1  0  0  0  0
  6  7  1  0  0  0  0
  6 27  1  0  0  0  0
  6 28  1  0  0  0  0
  7  8  1  0  0  0  0
  8  9  1  0  0  0  0
  8 29  1  0  0  0  0
  8 30  1  0  0  0  0
  9 10  1  0  0  0  0
  9 31  1  0  0  0  0
  9 32  1  0  0  0  0
 11 12  1  0  0  0  0
 11 33  1  0  0  0  0
 12 21  1  0  0  0  0
 12 13  2  0  0  0  0
 13 14  1  0  0  0  0
 13 34  1  0  0  0  0
 14 15  1  0  0  0  0
 14 19  2  0  0  0  0
 15 16  1  0  0  0  0
 15 17  1  0  0  0  0
 15 18  1  0  0  0  0
 19 20  1  0  0  0  0
 19 35  1  0  0  0  0
 20 21  1  0  0  0  0
 21 22  2  0  0  0  0
M  CHG  1  20  -1
M  END
> <s_m_source_file>
AV-unprocessed.smi

> <i_m_source_file_index>
1521

> <i_lp_mmshare_version>
43012

> <i_f3d_flags>
0

> <s_epik_input>
Tz1jMVtuSF1bY0hdYyhDKEYpKEYpRilbY0hdYzFbTkhdQyg9TylbTkhdW0NIMl1bQ0BASF0yW0NIMl1PW0NIMl1bQ0gyXU8y

> <s_epik_cmdline>
J2VwaWtfcHl0aG9uJywgJy1waCcsICc3LjAnLCAnLXRuJywgJzgnLCAnLW1hJywgJzIwMCcsICctbWV0YWxfYmluZGluZycsICctaW1hZScsICc8aW5maWxlLm1hZT4nLCAnLW9tYWUnLCAnPG91dGZpbGUubWFlPic=

> <r_lp_tautomer_probability>
1

> <r_epik_Ionization_Penalty>
3.1412

> <r_epik_Ionization_Penalty_Charging>
0.17015

> <r_epik_Ionization_Penalty_Neutral>
2.97105

> <r_epik_State_Penalty>
2.96707

> <r_epik_Charging_Adjusted_Penalty>
3.13722

> <i_epik_Tot_Q>
-1

> <i_epik_Tot_abs_Q>
1

> <r_epik_Metal_State_Penalty>
0.451298

> <b_epik_Metal_Only>
1

> <s_lp_Force_Field>
OPLS_2005

> <r_lp_Energy>
21.3

> <b_lp_Chiralities_Consistent>
1

> <s_lp_Variant>
AV-unprocessed.smi:1521-4

> <Gold.Version>
5.8.1

> <Gold.Id.Protein>
6NUR|6NUR_protein|mol2

> <Gold.PLP.Fitness>
47.1897

> <Gold.PLP.PLP>
-43.4522

> <Gold.PLP.part.hbond>
-3.2575

> <Gold.PLP.part.metal>
0.0000

> <Gold.PLP.part.buried>
-4.1764

> <Gold.PLP.part.nonpolar>
-36.5599

> <Gold.PLP.part.repulsive>
1.8324

> <Gold.PLP.ligand.clash>
0.0000

> <Gold.PLP.ligand.torsion>
1.2366

> <Gold.PLP.Chemscore.Hbond>
2.0531

> <Gold.PLP.Chemscore.CHOScore>
0.0000

> <Gold.PLP.Chemscore.Metal>
0.0000

> <Gold.Chemscore.Hbonds>
donor molecule, donor type, donor heavy atom, donor atom, acceptor molecule, acceptor atom, score
      L1  H     3    23       P1  8028  1.00
      L1  H    11    33       P1  8028  0.57

> <Gold.PLP.Chemscore.Internal.Correction>
0.0513

> <Gold.Rescore>
     Score         DG    S(hbond)    S(metal)    S(lipo)     H(rot)  DE(clash)    DE(int)     intcor
     15.59     -17.31       1.91        0.00      76.41       1.36       0.15       1.58       ----

> <Gold.Chemscore.Fitness>
15.5862

> <Gold.Chemscore.DG>
-17.3139

> <Gold.Chemscore.ZeroCoef>
-5.4800

> <Gold.Chemscore.Hbond>
1.9118

> <Gold.Chemscore.Metal>
0.0000

> <Gold.Chemscore.Lipo>
76.4131

> <Gold.Chemscore.Internal_Hbond>
0.0000

> <Gold.Chemscore.DEClash>
0.1518

> <Gold.Chemscore.DEInternal>
1.5759

> <Gold.Chemscore.Rot>
1.3640

> <Gold.Chemscore.Internal.Correction>
   9.000000E+99

> <Gold.Chemscore.Hbonds>
donor molecule, donor type, donor heavy atom, donor atom, acceptor molecule, acceptor atom, score
      L1  H     3    23       P1  8028  1.00
      L1  H    11    33       P1  8028  0.54

> <Gold.Chemscore.Hbond.Weighted>
-6.3853

> <Gold.Chemscore.Metal.Weighted>
-0.0000

> <Gold.Chemscore.Lipo.Weighted>
-8.9403

> <Gold.Chemscore.Internal_Hbond.Weighted>
0.0000

> <Gold.Chemscore.DEClash.Weighted>
0.1518

> <Gold.Chemscore.DEInternal.Weighted>
1.5759

> <Gold.Chemscore.Rot.Weighted>
3.4918

> <Gold.Chemscore.Internal.Correction.Weighted>
   9.000000E+99

> <Gold.Protein.RotatedTorsions>
[ 6907 6896 6895 6894 ] final  -62.36 input  -60.11 | X-H torsion
[ 7974 7965 7964 7962 ] final  -17.89 input  175.53 | X-H torsion
[ 8008 7997 7996 7995 ] final -142.27 input   59.86 | X-H torsion
[ 10167 10162 10161 10158 ] final   14.69 input  -65.29 | X-H torsion
[ 10718 10713 10712 10709 ] final   41.28 input   66.30 | X-H torsion
[ 10763 10752 10751 10750 ] final  -75.67 input  -60.55 | X-H torsion
[ 11005 11000 10999 10996 ] final  168.92 input  -57.11 | X-H torsion

> <Gold.Protein.ActiveResidues>
 VAL166  LYS551  ARG553  GLY616  TRP617  ASP618  TYR619  PRO620  LYS621  CYS622 
 ASP623  PHE694  ASN695  SER759  ASP760  ASP761  ALA762  ILE779  LEU786  VAL792 
 PHE793  MET794  SER795  GLU796  ALA797  LYS798  CYS799  TRP800  GLU811  SER814 

> <Gold.Protein.RotatedAtoms>
  150.7721  134.6581  159.6324 H   0  0  0  0  0  0  0  0  0  0  0  0  # atno 6907 bound_to 6896
  152.3777  134.6635  160.0163 H   0  0  0  0  0  0  0  0  0  0  0  0  # atno 6908 bound_to 6896
  151.6974  133.3274  159.3294 H   0  0  0  0  0  0  0  0  0  0  0  0  # atno 6909 bound_to 6896
  146.1919  140.3843  142.8455 H   0  0  0  0  0  0  0  0  0  0  0  0  # atno 7974 bound_to 7965
  155.4914  140.0568  157.2953 H   0  0  0  0  0  0  0  0  0  0  0  0  # atno 8008 bound_to 7997
  154.4621  140.2001  156.0166 H   0  0  0  0  0  0  0  0  0  0  0  0  # atno 8009 bound_to 7997
  156.0910  140.3233  155.7819 H   0  0  0  0  0  0  0  0  0  0  0  0  # atno 8010 bound_to 7997
  140.5918  143.8780  150.6881 H   0  0  0  0  0  0  0  0  0  0  0  0  # atno 10167 bound_to 10162
  157.3918  130.7811  149.7275 H   0  0  0  0  0  0  0  0  0  0  0  0  # atno 10718 bound_to 10713
  154.4896  135.5823  153.6450 H   0  0  0  0  0  0  0  0  0  0  0  0  # atno 10763 bound_to 10752
  152.9860  135.6109  154.3141 H   0  0  0  0  0  0  0  0  0  0  0  0  # atno 10764 bound_to 10752
  154.3040  135.2846  155.2577 H   0  0  0  0  0  0  0  0  0  0  0  0  # atno 10765 bound_to 10752
  140.2923  134.7663  157.3849 H   0  0  0  0  0  0  0  0  0  0  0  0  # atno 11005 bound_to 11000
  144.8503  140.6992  143.6172 LP  0  0  0  0  0  0  0  0  0  0  0  0  # atno 17320 bound_to 7965
  145.3765  139.1646  143.4303 LP  0  0  0  0  0  0  0  0  0  0  0  0  # atno 17321 bound_to 7965
  140.2305  143.3739  152.1570 LP  0  0  0  0  0  0  0  0  0  0  0  0  # atno 17342 bound_to 10162
  139.5232  144.7069  151.5327 LP  0  0  0  0  0  0  0  0  0  0  0  0  # atno 17343 bound_to 10162
  155.9800  130.4034  150.3553 LP  0  0  0  0  0  0  0  0  0  0  0  0  # atno 17370 bound_to 10713
  157.1670  131.0359  151.2814 LP  0  0  0  0  0  0  0  0  0  0  0  0  # atno 17371 bound_to 10713
  140.1184  134.5252  155.8205 LP  0  0  0  0  0  0  0  0  0  0  0  0  # atno 17394 bound_to 11000
  141.2144  133.6748  156.6820 LP  0  0  0  0  0  0  0  0  0  0  0  0  # atno 17395 bound_to 11000

$$$$
