AV-unprocessed.smi:72|AV-procd|sdf|695|dock5
  -GOLD-   2262017 13D 1   1.00000     0.00000
 Structure written by MMmdl.
 30 31  0  0  0  0  0  0  0  0  2 V2000
  150.5545  134.5274  156.1862 N   0  0  0  0  0  0  0  0  0  0  0  0
  150.7065  135.8564  155.8495 C   0  0  0  0  0  0  0  0  0  0  0  0
  149.6024  136.5229  155.3478 N   0  3  0  0  0  0  0  0  0  0  0  0
  149.5811  137.8122  154.9827 C   0  0  0  0  0  0  0  0  0  0  0  0
  150.6777  138.5307  155.1109 N   0  0  0  0  0  0  0  0  0  0  0  0
  150.7038  139.9817  154.7177 C   0  0  2  0  0  0  0  0  0  0  0  0
  151.1658  140.7121  155.8137 O   0  0  0  0  0  0  0  0  0  0  0  0
  150.3087  141.8226  156.0601 C   0  0  2  0  0  0  0  0  0  0  0  0
  150.3765  142.2134  157.5444 C   0  0  0  0  0  0  0  0  0  0  0  0
  149.6085  143.3750  157.7737 O   0  0  0  0  0  0  0  0  0  0  0  0
  148.9442  141.2865  155.6277 C   0  0  1  0  0  0  0  0  0  0  0  0
  147.9972  142.3085  155.3820 O   0  0  0  0  0  0  0  0  0  0  0  0
  149.2839  140.4676  154.3876 C   0  0  1  0  0  0  0  0  0  0  0  0
  149.2790  141.2410  153.2019 O   0  0  0  0  0  0  0  0  0  0  0  0
  151.8696  137.9274  155.5858 C   0  0  0  0  0  0  0  0  0  0  0  0
  152.9100  138.5797  155.6634 O   0  0  0  0  0  0  0  0  0  0  0  0
  151.7921  136.5737  155.9445 N   0  0  0  0  0  0  0  0  0  0  0  0
  151.4154  140.0685  153.8944 H   0  0  0  0  0  0  0  0  0  0  0  0
  150.5990  142.6546  155.4149 H   0  0  0  0  0  0  0  0  0  0  0  0
  148.5531  140.6201  156.3979 H   0  0  0  0  0  0  0  0  0  0  0  0
  148.5958  139.6313  154.2554 H   0  0  0  0  0  0  0  0  0  0  0  0
  151.3055  133.9607  156.5547 H   0  0  0  0  0  0  0  0  0  0  0  0
  149.6885  134.0164  156.0927 H   0  0  0  0  0  0  0  0  0  0  0  0
  148.6694  138.2397  154.5846 H   0  0  0  0  0  0  0  0  0  0  0  0
  149.9578  141.4185  158.1621 H   0  0  0  0  0  0  0  0  0  0  0  0
  151.4058  142.3678  157.8691 H   0  0  0  0  0  0  0  0  0  0  0  0
  149.2206  143.6469  156.9559 H   0  0  0  0  0  0  0  0  0  0  0  0
  148.3253  143.1187  155.7412 H   0  0  0  0  0  0  0  0  0  0  0  0
  149.1809  140.6617  152.4612 H   0  0  0  0  0  0  0  0  0  0  0  0
  148.7478  135.9932  155.2510 H   0  0  0  0  0  0  0  0  0  0  0  0
  1  2  1  0  0  0  0
  1 22  1  0  0  0  0
  1 23  1  0  0  0  0
  2 17  2  0  0  0  0
  2  3  1  0  0  0  0
  3  4  2  0  0  0  0
  3 30  1  0  0  0  0
  4  5  1  0  0  0  0
  4 24  1  0  0  0  0
  5  6  1  0  0  0  0
  5 15  1  0  0  0  0
  6 18  1  0  0  0  0
  6 13  1  0  0  0  0
  6  7  1  0  0  0  0
  7  8  1  0  0  0  0
  8 19  1  0  0  0  0
  8  9  1  0  0  0  0
  8 11  1  0  0  0  0
  9 10  1  0  0  0  0
  9 25  1  0  0  0  0
  9 26  1  0  0  0  0
 10 27  1  0  0  0  0
 11 20  1  0  0  0  0
 11 12  1  0  0  0  0
 11 13  1  0  0  0  0
 12 28  1  0  0  0  0
 13 21  1  0  0  0  0
 13 14  1  0  0  0  0
 14 29  1  0  0  0  0
 15 16  2  0  0  0  0
 15 17  1  0  0  0  0
M  CHG  1   3   1
M  END
> <s_m_source_file>
AV-unprocessed.smi

> <i_m_source_file_index>
72

> <i_lp_mmshare_version>
43012

> <i_f3d_flags>
0

> <s_epik_input>
W05IMl1jMW5bY0hdbihjKD1PKW4xKVtDQEBIXTJPW0NASF0oW0NIMl1bT0hdKVtDQEBIXShbT0hdKVtDQEhdMltPSF0=

> <s_epik_cmdline>
J2VwaWtfcHl0aG9uJywgJy1waCcsICc3LjAnLCAnLXRuJywgJzgnLCAnLW1hJywgJzIwMCcsICctbWV0YWxfYmluZGluZycsICctaW1hZScsICc8aW5maWxlLm1hZT4nLCAnLW9tYWUnLCAnPG91dGZpbGUubWFlPic=

> <r_lp_tautomer_probability>
4.77166e-05

> <r_epik_Ionization_Penalty>
0.104979

> <r_epik_Ionization_Penalty_Charging>
0.0999619

> <r_epik_Ionization_Penalty_Neutral>
0.00501745

> <r_epik_State_Penalty>
2.51541

> <r_epik_Charging_Adjusted_Penalty>
2.61537

> <i_epik_Tot_Q>
1

> <i_epik_Tot_abs_Q>
1

> <r_epik_Metal_State_Penalty>
3.53763

> <b_epik_Metal_Only>
0

> <s_epik_Chemistry_Notes>
This compound contains an acetal/aminal-like group ( X-CH(R)-Y where X, Y are N, S, or O) that may be acid/base labile, releasing an aldehyde.

> <s_lp_Force_Field>
OPLS_2005

> <r_lp_Energy>
34.3488

> <b_lp_Chiralities_Consistent>
1

> <s_lp_Variant>
AV-unprocessed.smi:72-33

> <Gold.Version>
5.8.1

> <Gold.Id.Protein>
6NUR|6NUR_protein|mol2

> <Gold.PLP.Fitness>
41.9810

> <Gold.PLP.PLP>
-26.4737

> <Gold.PLP.part.hbond>
-7.8685

> <Gold.PLP.part.metal>
0.0000

> <Gold.PLP.part.buried>
-1.2905

> <Gold.PLP.part.nonpolar>
-18.4415

> <Gold.PLP.part.repulsive>
0.2171

> <Gold.PLP.ligand.clash>
0.4557

> <Gold.PLP.ligand.torsion>
0.1130

> <Gold.PLP.Chemscore.Hbond>
5.3900

> <Gold.PLP.Chemscore.CHOScore>
0.0000

> <Gold.PLP.Chemscore.Metal>
0.0000

> <Gold.Chemscore.Hbonds>
donor molecule, donor type, donor heavy atom, donor atom, acceptor molecule, acceptor atom, score
      L1  H    10    27       P1  8028  1.00
      L1  H    12    28       P1  8028  1.00
      L1  H    14    29       P1  7957  0.91
      P1  H  7997  8010       L1    16  0.59
      P1  H  8011  8017       L1    14  0.65
      P1  H 10752 10764       L1    17  1.00

> <Gold.PLP.Chemscore.Internal.Correction>
0.0190

> <Gold.Rescore>
     Score         DG    S(hbond)    S(metal)    S(lipo)     H(rot)  DE(clash)    DE(int)     intcor
      8.55     -11.58       3.91        0.00      29.61       4.08       1.53       1.50       ----

> <Gold.Chemscore.Fitness>
8.5454

> <Gold.Chemscore.DG>
-11.5784

> <Gold.Chemscore.ZeroCoef>
-5.4800

> <Gold.Chemscore.Hbond>
3.9145

> <Gold.Chemscore.Metal>
0.0000

> <Gold.Chemscore.Lipo>
29.6103

> <Gold.Chemscore.Internal_Hbond>
0.0000

> <Gold.Chemscore.DEClash>
1.5334

> <Gold.Chemscore.DEInternal>
1.4996

> <Gold.Chemscore.Rot>
4.0783

> <Gold.Chemscore.Internal.Correction>
   9.000000E+99

> <Gold.Chemscore.Hbonds>
donor molecule, donor type, donor heavy atom, donor atom, acceptor molecule, acceptor atom, score
      L1  H    10    27       P1  8028  0.73
      L1  H    12    28       P1  8028  0.92
      L1  H    14    29       P1  7957  0.86
      P1  H  7997  8010       L1    16  0.57
      P1  H  8011  8017       L1    14  0.05
      P1  H 10752 10764       L1    17  0.22

> <Gold.Chemscore.Hbond.Weighted>
-13.0744

> <Gold.Chemscore.Metal.Weighted>
-0.0000

> <Gold.Chemscore.Lipo.Weighted>
-3.4644

> <Gold.Chemscore.Internal_Hbond.Weighted>
0.0000

> <Gold.Chemscore.DEClash.Weighted>
1.5334

> <Gold.Chemscore.DEInternal.Weighted>
1.4996

> <Gold.Chemscore.Rot.Weighted>
10.4404

> <Gold.Chemscore.Internal.Correction.Weighted>
   9.000000E+99

> <Gold.Protein.RotatedTorsions>
[ 6907 6896 6895 6894 ] final -129.74 input  -60.11 | X-H torsion
[ 7974 7965 7964 7962 ] final -146.18 input  175.53 | X-H torsion
[ 8008 7997 7996 7995 ] final   96.13 input   59.86 | X-H torsion
[ 10167 10162 10161 10158 ] final -142.34 input  -65.29 | X-H torsion
[ 10718 10713 10712 10709 ] final  116.22 input   66.30 | X-H torsion
[ 10763 10752 10751 10750 ] final  -42.98 input  -60.55 | X-H torsion
[ 11005 11000 10999 10996 ] final  155.40 input  -57.11 | X-H torsion

> <Gold.Protein.ActiveResidues>
 VAL166  LYS551  ARG553  GLY616  TRP617  ASP618  TYR619  PRO620  LYS621  CYS622 
 ASP623  PHE694  ASN695  SER759  ASP760  ASP761  ALA762  ILE779  LEU786  VAL792 
 PHE793  MET794  SER795  GLU796  ALA797  LYS798  CYS799  TRP800  GLU811  SER814 

> <Gold.Protein.RotatedAtoms>
  150.9320  133.6755  159.2808 H   0  0  0  0  0  0  0  0  0  0  0  0  # atno 6907 bound_to 6896
  151.4174  135.0992  159.9613 H   0  0  0  0  0  0  0  0  0  0  0  0  # atno 6908 bound_to 6896
  152.5030  133.8779  159.7386 H   0  0  0  0  0  0  0  0  0  0  0  0  # atno 6909 bound_to 6896
  144.8176  140.5488  143.5600 H   0  0  0  0  0  0  0  0  0  0  0  0  # atno 7974 bound_to 7965
  156.0763  140.3277  155.7638 H   0  0  0  0  0  0  0  0  0  0  0  0  # atno 8008 bound_to 7997
  155.5224  140.0586  157.2921 H   0  0  0  0  0  0  0  0  0  0  0  0  # atno 8009 bound_to 7997
  154.4557  140.1941  156.0403 H   0  0  0  0  0  0  0  0  0  0  0  0  # atno 8010 bound_to 7997
  139.8098  143.7718  152.2663 H   0  0  0  0  0  0  0  0  0  0  0  0  # atno 10167 bound_to 10162
  157.6174  131.1022  150.7442 H   0  0  0  0  0  0  0  0  0  0  0  0  # atno 10718 bound_to 10713
  153.9880  135.6709  153.4753 H   0  0  0  0  0  0  0  0  0  0  0  0  # atno 10763 bound_to 10752
  153.0718  135.4970  154.8316 H   0  0  0  0  0  0  0  0  0  0  0  0  # atno 10764 bound_to 10752
  154.7125  135.3100  154.9136 H   0  0  0  0  0  0  0  0  0  0  0  0  # atno 10765 bound_to 10752
  140.1578  134.8630  157.2536 H   0  0  0  0  0  0  0  0  0  0  0  0  # atno 11005 bound_to 11000
  145.5177  139.1477  143.3569 LP  0  0  0  0  0  0  0  0  0  0  0  0  # atno 17320 bound_to 7965
  146.2480  140.5318  142.8905 LP  0  0  0  0  0  0  0  0  0  0  0  0  # atno 17321 bound_to 7965
  139.7864  144.7426  151.0016 LP  0  0  0  0  0  0  0  0  0  0  0  0  # atno 17342 bound_to 10162
  140.7818  143.4488  151.0443 LP  0  0  0  0  0  0  0  0  0  0  0  0  # atno 17343 bound_to 10162
  156.7806  130.4858  149.5401 LP  0  0  0  0  0  0  0  0  0  0  0  0  # atno 17370 bound_to 10713
  156.1302  130.6172  151.0322 LP  0  0  0  0  0  0  0  0  0  0  0  0  # atno 17371 bound_to 10713
  140.2526  134.3665  155.7436 LP  0  0  0  0  0  0  0  0  0  0  0  0  # atno 17394 bound_to 11000
  141.2206  133.7325  156.8958 LP  0  0  0  0  0  0  0  0  0  0  0  0  # atno 17395 bound_to 11000

$$$$
