AV-unprocessed.smi:39|AV-procd|sdf|351|dock5
  -GOLD-   2262016193D 1   1.00000     0.00000
 Structure written by MMmdl.
 32 33  0  0  0  0  0  0  0  0  3 V2000
  151.6907  143.7067  159.8428 C   0  0  0  0  0  0  0  0  0  0  0  0
  152.5851  142.6676  160.4984 C   0  0  0  0  0  0  0  0  0  0  0  0
  152.9850  141.5416  159.8541 C   0  0  0  0  0  0  0  0  0  0  0  0
  153.8007  140.5742  160.4262 N   0  0  0  0  0  0  0  0  0  0  0  0
  154.2095  139.3328  159.6641 C   0  0  1  0  0  0  0  0  0  0  0  0
  153.4372  138.1128  160.1747 C   0  0  0  0  0  0  0  0  0  0  0  0
  152.3587  137.9569  159.1180 C   0  0  2  0  0  0  0  0  0  0  0  0
  151.8568  136.5849  159.0159 N   0  0  0  0  0  0  0  0  0  0  0  0
  152.1393  135.9708  157.9786 N   0  3  0  0  0  0  0  0  0  0  0  0
  152.4501  135.5133  156.9840 N   0  5  0  0  0  0  0  0  0  0  0  0
  153.1052  138.4038  157.8584 C   0  0  1  0  0  0  0  0  0  0  0  0
  152.1759  138.8596  156.7226 C   0  0  0  0  0  0  0  0  0  0  0  0
  152.9380  139.3229  155.6287 O   0  0  0  0  0  0  0  0  0  0  0  0
  153.8903  139.5026  158.3144 O   0  0  0  0  0  0  0  0  0  0  0  0
  154.2295  140.7346  161.7604 C   0  0  0  0  0  0  0  0  0  0  0  0
  154.9238  139.9043  162.3456 O   0  0  0  0  0  0  0  0  0  0  0  0
  153.8247  141.8936  162.4201 N   0  0  0  0  0  0  0  0  0  0  0  0
  153.0211  142.8995  161.8783 C   0  0  0  0  0  0  0  0  0  0  0  0
  152.7334  143.8811  162.5612 O   0  0  0  0  0  0  0  0  0  0  0  0
  155.2922  139.2374  159.7618 H   0  0  0  0  0  0  0  0  0  0  0  0
  151.5469  138.6584  159.3215 H   0  0  0  0  0  0  0  0  0  0  0  0
  153.7711  137.6043  157.5264 H   0  0  0  0  0  0  0  0  0  0  0  0
  154.1357  142.0149  163.3728 H   0  0  0  0  0  0  0  0  0  0  0  0
  151.4216  143.4247  158.8246 H   0  0  0  0  0  0  0  0  0  0  0  0
  152.1969  144.6717  159.7996 H   0  0  0  0  0  0  0  0  0  0  0  0
  150.7678  143.8283  160.4107 H   0  0  0  0  0  0  0  0  0  0  0  0
  152.6411  141.3954  158.8411 H   0  0  0  0  0  0  0  0  0  0  0  0
  154.1112  137.2548  160.1770 H   0  0  0  0  0  0  0  0  0  0  0  0
  153.0499  138.2591  161.1838 H   0  0  0  0  0  0  0  0  0  0  0  0
  151.5758  138.0207  156.3687 H   0  0  0  0  0  0  0  0  0  0  0  0
  151.4846  139.6323  157.0599 H   0  0  0  0  0  0  0  0  0  0  0  0
  152.6212  138.9048  154.8426 H   0  0  0  0  0  0  0  0  0  0  0  0
  1  2  1  0  0  0  0
  1 24  1  0  0  0  0
  1 25  1  0  0  0  0
  1 26  1  0  0  0  0
  2 18  1  0  0  0  0
  2  3  2  0  0  0  0
  3  4  1  0  0  0  0
  3 27  1  0  0  0  0
  4  5  1  0  0  0  0
  4 15  1  0  0  0  0
  5 20  1  0  0  0  0
  5 14  1  0  0  0  0
  5  6  1  0  0  0  0
  6  7  1  0  0  0  0
  6 28  1  0  0  0  0
  6 29  1  0  0  0  0
  7 21  1  0  0  0  0
  7  8  1  0  0  0  0
  7 11  1  0  0  0  0
  8  9  2  0  0  0  0
  9 10  2  0  0  0  0
 11 22  1  0  0  0  0
 11 12  1  0  0  0  0
 11 14  1  0  0  0  0
 12 13  1  0  0  0  0
 12 30  1  0  0  0  0
 12 31  1  0  0  0  0
 13 32  1  0  0  0  0
 15 16  2  0  0  0  0
 15 17  1  0  0  0  0
 17 23  1  0  0  0  0
 17 18  1  0  0  0  0
 18 19  2  0  0  0  0
M  CHG  1   9   1
M  CHG  1  10  -1
M  END
> <s_m_source_file>
AV-unprocessed.smi

> <i_m_source_file_index>
39

> <i_lp_mmshare_version>
43012

> <i_f3d_flags>
0

> <s_epik_input>
Tz1jMVtuSF1jKD1PKW4oW2NIXWMxW0NIM10pW0NASF0yW0NIMl1bQ0BIXShOPVtOK109W04tXSlbQ0BIXShPMilbQ0gyXVtPSF0=

> <s_epik_cmdline>
J2VwaWtfcHl0aG9uJywgJy1waCcsICc3LjAnLCAnLXRuJywgJzgnLCAnLW1hJywgJzIwMCcsICctbWV0YWxfYmluZGluZycsICctaW1hZScsICc8aW5maWxlLm1hZT4nLCAnLW9tYWUnLCAnPG91dGZpbGUubWFlPic=

> <r_lp_tautomer_probability>
0.999537

> <r_epik_Ionization_Penalty>
0.00127512

> <r_epik_Ionization_Penalty_Charging>
0.00127507

> <r_epik_Ionization_Penalty_Neutral>
5.43433e-08

> <r_epik_State_Penalty>
0.000844892

> <r_epik_Charging_Adjusted_Penalty>
0.00211996

> <i_epik_Tot_Q>
0

> <i_epik_Tot_abs_Q>
2

> <r_epik_Metal_State_Penalty>
0.680636

> <b_epik_Metal_Only>
0

> <s_epik_Chemistry_Notes>
This compound contains an acetal/aminal-like group ( X-CH(R)-Y where X, Y are N, S, or O) that may be acid/base labile, releasing an aldehyde.

> <s_lp_Force_Field>
OPLS_2005

> <r_lp_Energy>
24.0553

> <b_lp_Chiralities_Consistent>
1

> <s_lp_Variant>
AV-unprocessed.smi:39-1

> <Gold.Version>
5.8.1

> <Gold.Id.Protein>
6NUR|6NUR_protein|mol2

> <Gold.PLP.Fitness>
42.4721

> <Gold.PLP.PLP>
-33.6344

> <Gold.PLP.part.hbond>
-5.4756

> <Gold.PLP.part.metal>
0.0000

> <Gold.PLP.part.buried>
-4.0915

> <Gold.PLP.part.nonpolar>
-22.8869

> <Gold.PLP.part.repulsive>
0.2010

> <Gold.PLP.ligand.clash>
0.0000

> <Gold.PLP.ligand.torsion>
0.3312

> <Gold.PLP.Chemscore.Hbond>
3.1560

> <Gold.PLP.Chemscore.CHOScore>
0.0000

> <Gold.PLP.Chemscore.Metal>
0.0000

> <Gold.Chemscore.Hbonds>
donor molecule, donor type, donor heavy atom, donor atom, acceptor molecule, acceptor atom, score
      P1  H  6896  6908       L1     8  0.66
      P1  H  7997  8008       L1    13  1.00
      P1  H  7997  8010       L1    14  0.50
      P1  H 10752 10764       L1    10  1.00

> <Gold.PLP.Chemscore.Internal.Correction>
0.0321

> <Gold.Rescore>
     Score         DG    S(hbond)    S(metal)    S(lipo)     H(rot)  DE(clash)    DE(int)     intcor
     13.23     -14.59       2.99        0.00      52.63       2.75       0.53       0.83       ----

> <Gold.Chemscore.Fitness>
13.2299

> <Gold.Chemscore.DG>
-14.5939

> <Gold.Chemscore.ZeroCoef>
-5.4800

> <Gold.Chemscore.Hbond>
2.9948

> <Gold.Chemscore.Metal>
0.0000

> <Gold.Chemscore.Lipo>
52.6264

> <Gold.Chemscore.Internal_Hbond>
0.0000

> <Gold.Chemscore.DEClash>
0.5292

> <Gold.Chemscore.DEInternal>
0.8349

> <Gold.Chemscore.Rot>
2.7524

> <Gold.Chemscore.Internal.Correction>
   9.000000E+99

> <Gold.Chemscore.Hbonds>
donor molecule, donor type, donor heavy atom, donor atom, acceptor molecule, acceptor atom, score
      P1  H  6896  6908       L1     8  0.08
      P1  H  7997  8008       L1    13  0.97
      P1  H  7997  8010       L1    14  0.40
      P1  H 10752 10764       L1    10  0.98

> <Gold.Chemscore.Hbond.Weighted>
-10.0027

> <Gold.Chemscore.Metal.Weighted>
-0.0000

> <Gold.Chemscore.Lipo.Weighted>
-6.1573

> <Gold.Chemscore.Internal_Hbond.Weighted>
0.0000

> <Gold.Chemscore.DEClash.Weighted>
0.5292

> <Gold.Chemscore.DEInternal.Weighted>
0.8349

> <Gold.Chemscore.Rot.Weighted>
7.0461

> <Gold.Chemscore.Internal.Correction.Weighted>
   9.000000E+99

> <Gold.Protein.RotatedTorsions>
[ 6907 6896 6895 6894 ] final -120.73 input  -60.11 | X-H torsion
[ 7974 7965 7964 7962 ] final   68.28 input  175.53 | X-H torsion
[ 8008 7997 7996 7995 ] final  -15.49 input   59.86 | X-H torsion
[ 10167 10162 10161 10158 ] final   64.71 input  -65.29 | X-H torsion
[ 10718 10713 10712 10709 ] final  117.84 input   66.30 | X-H torsion
[ 10763 10752 10751 10750 ] final   -0.60 input  -60.55 | X-H torsion
[ 11005 11000 10999 10996 ] final   51.97 input  -57.11 | X-H torsion

> <Gold.Protein.ActiveResidues>
 VAL166  LYS551  ARG553  GLY616  TRP617  ASP618  TYR619  PRO620  LYS621  CYS622 
 ASP623  PHE694  ASN695  SER759  ASP760  ASP761  ALA762  ILE779  LEU786  VAL792 
 PHE793  MET794  SER795  GLU796  ALA797  LYS798  CYS799  TRP800  GLU811  SER814 

> <Gold.Protein.RotatedAtoms>
  150.8420  133.7921  159.3057 H   0  0  0  0  0  0  0  0  0  0  0  0  # atno 6907 bound_to 6896
  151.5620  135.1063  159.9984 H   0  0  0  0  0  0  0  0  0  0  0  0  # atno 6908 bound_to 6896
  152.4482  133.7534  159.6763 H   0  0  0  0  0  0  0  0  0  0  0  0  # atno 6909 bound_to 6896
  145.8045  139.2999  143.1135 H   0  0  0  0  0  0  0  0  0  0  0  0  # atno 7974 bound_to 7965
  154.5126  140.2195  155.9126 H   0  0  0  0  0  0  0  0  0  0  0  0  # atno 8008 bound_to 7997
  156.1570  140.3150  155.8709 H   0  0  0  0  0  0  0  0  0  0  0  0  # atno 8009 bound_to 7997
  155.3826  140.0473  157.3034 H   0  0  0  0  0  0  0  0  0  0  0  0  # atno 8010 bound_to 7997
  140.1192  144.4747  150.6931 H   0  0  0  0  0  0  0  0  0  0  0  0  # atno 10167 bound_to 10162
  157.6070  131.1041  150.7672 H   0  0  0  0  0  0  0  0  0  0  0  0  # atno 10718 bound_to 10713
  153.3340  135.6977  153.6924 H   0  0  0  0  0  0  0  0  0  0  0  0  # atno 10763 bound_to 10752
  153.5715  135.3515  155.2840 H   0  0  0  0  0  0  0  0  0  0  0  0  # atno 10764 bound_to 10752
  154.8623  135.4273  154.2536 H   0  0  0  0  0  0  0  0  0  0  0  0  # atno 10765 bound_to 10752
  140.0888  134.5237  155.8872 H   0  0  0  0  0  0  0  0  0  0  0  0  # atno 11005 bound_to 11000
  145.9843  140.8656  143.0098 LP  0  0  0  0  0  0  0  0  0  0  0  0  # atno 17320 bound_to 7965
  144.6764  140.2125  143.7375 LP  0  0  0  0  0  0  0  0  0  0  0  0  # atno 17321 bound_to 7965
  140.6882  143.2361  151.5203 LP  0  0  0  0  0  0  0  0  0  0  0  0  # atno 17342 bound_to 10162
  139.5578  144.2232  152.1641 LP  0  0  0  0  0  0  0  0  0  0  0  0  # atno 17343 bound_to 10162
  156.8058  130.4936  149.5363 LP  0  0  0  0  0  0  0  0  0  0  0  0  # atno 17370 bound_to 10713
  156.1159  130.6074  151.0120 LP  0  0  0  0  0  0  0  0  0  0  0  0  # atno 17371 bound_to 10713
  141.2071  133.6661  156.6286 LP  0  0  0  0  0  0  0  0  0  0  0  0  # atno 17394 bound_to 11000
  140.3381  134.7872  157.4377 LP  0  0  0  0  0  0  0  0  0  0  0  0  # atno 17395 bound_to 11000

$$$$
