AV-unprocessed.smi:775|AV-procd|sdf|3696|dock5
  -GOLD-   22720 1113D 1   1.00000     0.00000
 Structure written by MMmdl.
 39 40  0  0  0  0  0  0  0  0  2 V2000
  144.0215  137.2149  152.3720 C   0  0  0  0  0  0  0  0  0  0  0  0
  145.3937  136.5332  152.2109 C   0  0  1  0  0  0  0  0  0  0  0  0
  145.6247  135.9818  150.7866 C   0  0  0  0  0  0  0  0  0  0  0  0
  145.4444  134.5424  150.6808 N   0  0  0  0  0  0  0  0  0  0  0  0
  144.3625  133.8497  150.1775 C   0  0  0  0  0  0  0  0  0  0  0  0
  144.6450  132.5186  150.2854 C   0  0  0  0  0  0  0  0  0  0  0  0
  145.9436  132.4948  150.8664 C   0  0  0  0  0  0  0  0  0  0  0  0
  146.4196  133.7074  151.0998 N   0  0  0  0  0  0  0  0  0  0  0  0
  146.4989  137.4446  152.5854 N   0  3  0  0  0  0  0  0  0  0  0  0
  146.6072  137.7704  154.0246 C   0  0  0  0  0  0  0  0  0  0  0  0
  147.9987  138.3075  154.3959 C   0  0  0  0  0  0  0  0  0  0  0  0
  148.7267  137.6121  155.1071 O   0  0  0  0  0  0  0  0  0  0  0  0
  148.3835  139.5235  153.9338 N   0  0  0  0  0  0  0  0  0  0  0  0
  149.6681  140.1625  154.2379 C   0  0  0  0  0  0  0  0  0  0  0  0
  149.4033  141.3749  155.1475 C   0  0  0  0  0  0  0  0  0  0  0  0
  148.2924  142.1965  154.6637 N   0  0  0  0  0  0  0  0  0  0  0  0
  147.3770  141.8100  153.7559 C   0  0  0  0  0  0  0  0  0  0  0  0
  146.4745  142.5593  153.3906 O   0  0  0  0  0  0  0  0  0  0  0  0
  147.4712  140.3885  153.1680 C   0  0  0  0  0  0  0  0  0  0  0  0
  143.2226  136.5694  152.0061 H   0  0  0  0  0  0  0  0  0  0  0  0
  143.9691  138.1533  151.8193 H   0  0  0  0  0  0  0  0  0  0  0  0
  143.8000  137.4338  153.4162 H   0  0  0  0  0  0  0  0  0  0  0  0
  145.4295  135.6788  152.8883 H   0  0  0  0  0  0  0  0  0  0  0  0
  144.9460  136.4639  150.0816 H   0  0  0  0  0  0  0  0  0  0  0  0
  146.6335  136.2290  150.4516 H   0  0  0  0  0  0  0  0  0  0  0  0
  143.4898  134.3553  149.7903 H   0  0  0  0  0  0  0  0  0  0  0  0
  144.0209  131.6879  149.9906 H   0  0  0  0  0  0  0  0  0  0  0  0
  146.5503  131.6388  151.1227 H   0  0  0  0  0  0  0  0  0  0  0  0
  147.3669  137.0041  152.3153 H   0  0  0  0  0  0  0  0  0  0  0  0
  145.8600  138.5219  154.2798 H   0  0  0  0  0  0  0  0  0  0  0  0
  146.4025  136.8723  154.6083 H   0  0  0  0  0  0  0  0  0  0  0  0
  150.4110  139.5066  154.6885 H   0  0  0  0  0  0  0  0  0  0  0  0
  150.1116  140.4997  153.2996 H   0  0  0  0  0  0  0  0  0  0  0  0
  149.1613  141.0377  156.1560 H   0  0  0  0  0  0  0  0  0  0  0  0
  150.2986  141.9921  155.2263 H   0  0  0  0  0  0  0  0  0  0  0  0
  148.2160  143.1305  155.0406 H   0  0  0  0  0  0  0  0  0  0  0  0
  147.8391  140.4619  152.1440 H   0  0  0  0  0  0  0  0  0  0  0  0
  146.4582  139.9891  153.1000 H   0  0  0  0  0  0  0  0  0  0  0  0
  146.4054  138.3034  152.0620 H   0  0  0  0  0  0  0  0  0  0  0  0
  1  2  1  0  0  0  0
  1 20  1  0  0  0  0
  1 21  1  0  0  0  0
  1 22  1  0  0  0  0
  2  3  1  0  0  0  0
  2  9  1  0  0  0  0
  2 23  1  0  0  0  0
  3  4  1  0  0  0  0
  3 24  1  0  0  0  0
  3 25  1  0  0  0  0
  4  8  1  0  0  0  0
  4  5  1  0  0  0  0
  5  6  2  0  0  0  0
  5 26  1  0  0  0  0
  6  7  1  0  0  0  0
  6 27  1  0  0  0  0
  7  8  2  0  0  0  0
  7 28  1  0  0  0  0
  9 10  1  0  0  0  0
  9 29  1  0  0  0  0
  9 39  1  0  0  0  0
 10 11  1  0  0  0  0
 10 30  1  0  0  0  0
 10 31  1  0  0  0  0
 11 12  2  0  0  0  0
 11 13  1  0  0  0  0
 13 19  1  0  0  0  0
 13 14  1  0  0  0  0
 14 15  1  0  0  0  0
 14 32  1  0  0  0  0
 14 33  1  0  0  0  0
 15 16  1  0  0  0  0
 15 34  1  0  0  0  0
 15 35  1  0  0  0  0
 16 17  1  0  0  0  0
 16 36  1  0  0  0  0
 17 18  2  0  0  0  0
 17 19  1  0  0  0  0
 19 37  1  0  0  0  0
 19 38  1  0  0  0  0
M  CHG  1   9   1
M  END
> <s_m_source_file>
AV-unprocessed.smi

> <i_m_source_file_index>
775

> <i_lp_mmshare_version>
43012

> <i_f3d_flags>
0

> <s_epik_input>
bjFbY0hdW2NIXVtjSF1uMVtDSDJdW0NAQEhdKFtDSDNdKVtOSF1bQ0gyXUMoPU8pTjJbQ0gyXVtDSDJdW05IXUMoPU8pW0NIMl0y

> <s_epik_cmdline>
J2VwaWtfcHl0aG9uJywgJy1waCcsICc3LjAnLCAnLXRuJywgJzgnLCAnLW1hJywgJzIwMCcsICctbWV0YWxfYmluZGluZycsICctaW1hZScsICc8aW5maWxlLm1hZT4nLCAnLW9tYWUnLCAnPG91dGZpbGUubWFlPic=

> <r_lp_tautomer_probability>
1

> <r_epik_Ionization_Penalty>
0.165651

> <r_epik_Ionization_Penalty_Charging>
0.165647

> <r_epik_Ionization_Penalty_Neutral>
3.4358e-06

> <r_epik_State_Penalty>
0.15499

> <r_epik_Charging_Adjusted_Penalty>
0.320637

> <i_epik_Tot_Q>
1

> <i_epik_Tot_abs_Q>
1

> <r_epik_Metal_State_Penalty>
0.155003

> <b_epik_Metal_Only>
0

> <s_lp_Force_Field>
OPLS_2005

> <r_lp_Energy>
22.1436

> <b_lp_Chiralities_Consistent>
1

> <s_lp_Variant>
AV-unprocessed.smi:775-2

> <Gold.Version>
5.8.1

> <Gold.Id.Protein>
6NUR|6NUR_protein|mol2

> <Gold.PLP.Fitness>
46.4410

> <Gold.PLP.PLP>
-33.7448

> <Gold.PLP.part.hbond>
-2.0000

> <Gold.PLP.part.metal>
0.0000

> <Gold.PLP.part.buried>
-4.0545

> <Gold.PLP.part.nonpolar>
-27.6771

> <Gold.PLP.part.repulsive>
0.6899

> <Gold.PLP.ligand.clash>
0.0000

> <Gold.PLP.ligand.torsion>
1.1262

> <Gold.PLP.Chemscore.Hbond>
2.9760

> <Gold.PLP.Chemscore.CHOScore>
1.9863

> <Gold.PLP.Chemscore.Metal>
0.0000

> <Gold.Chemscore.Hbonds>
donor molecule, donor type, donor heavy atom, donor atom, acceptor molecule, acceptor atom, score
      L1  H     9    29       P1  7948  2.00
      L1  H    16    36       P1  8028  1.00
      L1  C     5    26       P1 10186  1.00
      L1  C     7    28       P1 10747  0.61

> <Gold.PLP.Chemscore.Internal.Correction>
0.0618

> <Gold.Rescore>
     Score         DG    S(hbond)    S(metal)    S(lipo)     H(rot)  DE(clash)    DE(int)     intcor
     12.86     -14.01       1.97        0.00      64.26       2.18       0.15       1.00       ----

> <Gold.Chemscore.Fitness>
12.8617

> <Gold.Chemscore.DG>
-14.0057

> <Gold.Chemscore.ZeroCoef>
-5.4800

> <Gold.Chemscore.Hbond>
1.9746

> <Gold.Chemscore.Metal>
0.0000

> <Gold.Chemscore.Lipo>
64.2616

> <Gold.Chemscore.Internal_Hbond>
0.0000

> <Gold.Chemscore.DEClash>
0.1485

> <Gold.Chemscore.DEInternal>
0.9956

> <Gold.Chemscore.Rot>
2.1828

> <Gold.Chemscore.Internal.Correction>
   9.000000E+99

> <Gold.Chemscore.Hbonds>
donor molecule, donor type, donor heavy atom, donor atom, acceptor molecule, acceptor atom, score
      L1  H     9    29       P1  7948  1.00
      L1  H    16    36       P1  8028  0.96

> <Gold.Chemscore.Hbond.Weighted>
-6.5951

> <Gold.Chemscore.Metal.Weighted>
-0.0000

> <Gold.Chemscore.Lipo.Weighted>
-7.5186

> <Gold.Chemscore.Internal_Hbond.Weighted>
0.0000

> <Gold.Chemscore.DEClash.Weighted>
0.1485

> <Gold.Chemscore.DEInternal.Weighted>
0.9956

> <Gold.Chemscore.Rot.Weighted>
5.5880

> <Gold.Chemscore.Internal.Correction.Weighted>
   9.000000E+99

> <Gold.Protein.RotatedTorsions>
[ 6907 6896 6895 6894 ] final -118.71 input  -60.11 | X-H torsion
[ 7974 7965 7964 7962 ] final  176.16 input  175.53 | X-H torsion
[ 8008 7997 7996 7995 ] final   40.39 input   59.86 | X-H torsion
[ 10167 10162 10161 10158 ] final  -93.17 input  -65.29 | X-H torsion
[ 10718 10713 10712 10709 ] final -125.83 input   66.30 | X-H torsion
[ 10763 10752 10751 10750 ] final  -10.99 input  -60.55 | X-H torsion
[ 11005 11000 10999 10996 ] final  -38.98 input  -57.11 | X-H torsion

> <Gold.Protein.ActiveResidues>
 VAL166  LYS551  ARG553  GLY616  TRP617  ASP618  TYR619  PRO620  LYS621  CYS622 
 ASP623  PHE694  ASN695  SER759  ASP760  ASP761  ALA762  ILE779  LEU786  VAL792 
 PHE793  MET794  SER795  GLU796  ALA797  LYS798  CYS799  TRP800  GLU811  SER814 

> <Gold.Protein.RotatedAtoms>
  150.8243  133.8199  159.3125 H   0  0  0  0  0  0  0  0  0  0  0  0  # atno 6907 bound_to 6896
  151.5948  135.1049  160.0056 H   0  0  0  0  0  0  0  0  0  0  0  0  # atno 6908 bound_to 6896
  152.4329  133.7269  159.6621 H   0  0  0  0  0  0  0  0  0  0  0  0  # atno 6909 bound_to 6896
  144.7189  140.0055  143.6440 H   0  0  0  0  0  0  0  0  0  0  0  0  # atno 7974 bound_to 7965
  155.2524  140.3353  155.4281 H   0  0  0  0  0  0  0  0  0  0  0  0  # atno 8008 bound_to 7997
  156.2210  140.1809  156.7520 H   0  0  0  0  0  0  0  0  0  0  0  0  # atno 8009 bound_to 7997
  154.5825  140.0651  156.9109 H   0  0  0  0  0  0  0  0  0  0  0  0  # atno 8010 bound_to 7997
  140.3274  143.3014  151.9979 H   0  0  0  0  0  0  0  0  0  0  0  0  # atno 10167 bound_to 10162
  156.1710  130.6667  151.0180 H   0  0  0  0  0  0  0  0  0  0  0  0  # atno 10718 bound_to 10713
  153.4772  135.7017  153.5959 H   0  0  0  0  0  0  0  0  0  0  0  0  # atno 10763 bound_to 10752
  153.4188  135.3830  155.2098 H   0  0  0  0  0  0  0  0  0  0  0  0  # atno 10764 bound_to 10752
  154.8723  135.3922  154.4217 H   0  0  0  0  0  0  0  0  0  0  0  0  # atno 10765 bound_to 10752
  141.0068  133.6928  156.2125 H   0  0  0  0  0  0  0  0  0  0  0  0  # atno 11005 bound_to 11000
  146.0301  139.3327  143.0761 LP  0  0  0  0  0  0  0  0  0  0  0  0  # atno 17320 bound_to 7965
  145.8463  140.9553  143.0773 LP  0  0  0  0  0  0  0  0  0  0  0  0  # atno 17321 bound_to 7965
  139.4862  144.6262  151.7159 LP  0  0  0  0  0  0  0  0  0  0  0  0  # atno 17342 bound_to 10162
  140.5428  144.0551  150.6095 LP  0  0  0  0  0  0  0  0  0  0  0  0  # atno 17343 bound_to 10162
  157.6803  131.0840  150.7388 LP  0  0  0  0  0  0  0  0  0  0  0  0  # atno 17370 bound_to 10713
  156.7447  130.4750  149.5469 LP  0  0  0  0  0  0  0  0  0  0  0  0  # atno 17371 bound_to 10713
  140.6799  134.4778  157.5589 LP  0  0  0  0  0  0  0  0  0  0  0  0  # atno 17394 bound_to 11000
  139.9068  134.8432  156.1677 LP  0  0  0  0  0  0  0  0  0  0  0  0  # atno 17395 bound_to 11000

$$$$
