AV-unprocessed.smi:702|AV-procd|sdf|3416|dock1
  -GOLD-   22720 0403D 1   1.00000     0.00000
 Structure written by MMmdl.
 50 52  0  0  0  0  0  0  0  0  2 V2000
  148.4495  139.1601  155.5441 C   0  0  0  0  0  0  0  0  0  0  0  0
  148.7026  140.3676  154.6130 C   0  0  2  0  0  0  0  0  0  0  0  0
  149.1578  141.4933  155.4353 N   0  0  0  0  0  0  0  0  0  0  0  0
  150.0070  141.4389  156.4722 C   0  0  0  0  0  0  0  0  0  0  0  0
  150.5321  140.3980  156.8631 O   0  0  0  0  0  0  0  0  0  0  0  0
  150.1971  142.6603  157.0013 N   0  0  0  0  0  0  0  0  0  0  0  0
  151.0285  143.0630  158.0840 C   0  0  0  0  0  0  0  0  0  0  0  0
  151.8878  142.0884  158.6333 C   0  0  0  0  0  0  0  0  0  0  0  0
  152.7220  142.4439  159.7117 C   0  0  0  0  0  0  0  0  0  0  0  0
  152.7427  143.6777  160.2568 N   0  0  0  0  0  0  0  0  0  0  0  0
  151.9176  144.6092  159.7347 C   0  0  0  0  0  0  0  0  0  0  0  0
  151.0435  144.3583  158.6578 C   0  0  0  0  0  0  0  0  0  0  0  0
  147.5040  140.7965  153.6825 C   0  0  0  0  0  0  0  0  0  0  0  0
  147.3064  139.7658  152.5903 N   0  3  0  0  0  0  0  0  0  0  0  0
  148.4457  139.6162  151.6361 C   0  0  0  0  0  0  0  0  0  0  0  0
  148.0393  138.7273  150.4500 C   0  0  0  0  0  0  0  0  0  0  0  0
  147.6472  137.4499  150.9308 O   0  0  0  0  0  0  0  0  0  0  0  0
  146.5252  137.5370  151.7969 C   0  0  0  0  0  0  0  0  0  0  0  0
  146.8730  138.4023  153.0207 C   0  0  0  0  0  0  0  0  0  0  0  0
  146.1860  141.0039  154.4862 C   0  0  0  0  0  0  0  0  0  0  0  0
  145.9645  142.5138  154.5913 C   0  0  0  0  0  0  0  0  0  0  0  0
  146.5529  143.0572  153.2950 C   0  0  0  0  0  0  0  0  0  0  0  0
  147.8102  142.2116  153.0914 C   0  0  0  0  0  0  0  0  0  0  0  0
  148.1721  138.2651  154.9889 H   0  0  0  0  0  0  0  0  0  0  0  0
  147.6747  139.3410  156.2872 H   0  0  0  0  0  0  0  0  0  0  0  0
  149.3576  138.9116  156.0947 H   0  0  0  0  0  0  0  0  0  0  0  0
  149.5326  140.0269  153.9983 H   0  0  0  0  0  0  0  0  0  0  0  0
  148.7767  142.3975  155.1964 H   0  0  0  0  0  0  0  0  0  0  0  0
  149.6625  143.4059  156.5803 H   0  0  0  0  0  0  0  0  0  0  0  0
  151.9133  141.0832  158.2381 H   0  0  0  0  0  0  0  0  0  0  0  0
  153.3898  141.7164  160.1486 H   0  0  0  0  0  0  0  0  0  0  0  0
  151.9524  145.5870  160.1919 H   0  0  0  0  0  0  0  0  0  0  0  0
  150.4132  145.1603  158.3096 H   0  0  0  0  0  0  0  0  0  0  0  0
  148.7848  140.5656  151.2332 H   0  0  0  0  0  0  0  0  0  0  0  0
  149.3069  139.1722  152.1358 H   0  0  0  0  0  0  0  0  0  0  0  0
  147.2300  139.1835  149.8774 H   0  0  0  0  0  0  0  0  0  0  0  0
  148.8808  138.6028  149.7682 H   0  0  0  0  0  0  0  0  0  0  0  0
  145.6670  137.9469  151.2615 H   0  0  0  0  0  0  0  0  0  0  0  0
  146.2496  136.5315  152.1153 H   0  0  0  0  0  0  0  0  0  0  0  0
  147.6622  137.9171  153.5952 H   0  0  0  0  0  0  0  0  0  0  0  0
  145.9930  138.4166  153.6576 H   0  0  0  0  0  0  0  0  0  0  0  0
  145.3253  140.5944  153.9600 H   0  0  0  0  0  0  0  0  0  0  0  0
  146.1937  140.5165  155.4611 H   0  0  0  0  0  0  0  0  0  0  0  0
  144.9132  142.7751  154.7161 H   0  0  0  0  0  0  0  0  0  0  0  0
  146.5108  142.9171  155.4448 H   0  0  0  0  0  0  0  0  0  0  0  0
  145.8534  142.8985  152.4735 H   0  0  0  0  0  0  0  0  0  0  0  0
  146.7691  144.1246  153.3478 H   0  0  0  0  0  0  0  0  0  0  0  0
  148.6088  142.7072  153.6384 H   0  0  0  0  0  0  0  0  0  0  0  0
  148.1719  142.2115  152.0647 H   0  0  0  0  0  0  0  0  0  0  0  0
  146.5387  140.1249  152.0406 H   0  0  0  0  0  0  0  0  0  0  0  0
  1  2  1  0  0  0  0
  1 24  1  0  0  0  0
  1 25  1  0  0  0  0
  1 26  1  0  0  0  0
  2  3  1  0  0  0  0
  2 13  1  0  0  0  0
  2 27  1  0  0  0  0
  3  4  1  0  0  0  0
  3 28  1  0  0  0  0
  4  5  2  0  0  0  0
  4  6  1  0  0  0  0
  6  7  1  0  0  0  0
  6 29  1  0  0  0  0
  7 12  1  0  0  0  0
  7  8  2  0  0  0  0
  8  9  1  0  0  0  0
  8 30  1  0  0  0  0
  9 10  2  0  0  0  0
  9 31  1  0  0  0  0
 10 11  1  0  0  0  0
 11 12  2  0  0  0  0
 11 32  1  0  0  0  0
 12 33  1  0  0  0  0
 13 23  1  0  0  0  0
 13 14  1  0  0  0  0
 13 20  1  0  0  0  0
 14 19  1  0  0  0  0
 14 15  1  0  0  0  0
 14 50  1  0  0  0  0
 15 16  1  0  0  0  0
 15 34  1  0  0  0  0
 15 35  1  0  0  0  0
 16 17  1  0  0  0  0
 16 36  1  0  0  0  0
 16 37  1  0  0  0  0
 17 18  1  0  0  0  0
 18 19  1  0  0  0  0
 18 38  1  0  0  0  0
 18 39  1  0  0  0  0
 19 40  1  0  0  0  0
 19 41  1  0  0  0  0
 20 21  1  0  0  0  0
 20 42  1  0  0  0  0
 20 43  1  0  0  0  0
 21 22  1  0  0  0  0
 21 44  1  0  0  0  0
 21 45  1  0  0  0  0
 22 23  1  0  0  0  0
 22 46  1  0  0  0  0
 22 47  1  0  0  0  0
 23 48  1  0  0  0  0
 23 49  1  0  0  0  0
M  CHG  1  14   1
M  END
> <s_m_source_file>
AV-unprocessed.smi

> <i_m_source_file_index>
702

> <i_lp_mmshare_version>
43012

> <i_f3d_flags>
0

> <s_epik_input>
W0NIMl0xW0NIMl1PW0NIMl1bQ0gyXU4xQzIoW0NIMl1bQ0gyXVtDSDJdW0NIMl0yKVtDQEhdKFtDSDNdKVtOSF1DKD1PKVtOSF1jM1tjSF1bY0hdbltjSF1bY0hdMw==

> <s_epik_cmdline>
J2VwaWtfcHl0aG9uJywgJy1waCcsICc3LjAnLCAnLXRuJywgJzgnLCAnLW1hJywgJzIwMCcsICctbWV0YWxfYmluZGluZycsICctaW1hZScsICc8aW5maWxlLm1hZT4nLCAnLW9tYWUnLCAnPG91dGZpbGUubWFlPic=

> <r_epik_Ionization_Penalty>
0.42559

> <r_epik_Ionization_Penalty_Charging>
0.324387

> <r_epik_Ionization_Penalty_Neutral>
0.101203

> <r_epik_State_Penalty>
0.407162

> <r_epik_Charging_Adjusted_Penalty>
0.731549

> <i_epik_Tot_Q>
1

> <i_epik_Tot_abs_Q>
1

> <r_epik_Metal_State_Penalty>
0.398289

> <b_epik_Metal_Only>
0

> <s_lp_Force_Field>
OPLS_2005

> <r_lp_Energy>
61.5271

> <b_lp_Chiralities_Consistent>
1

> <s_lp_Variant>
AV-unprocessed.smi:702-1

> <Gold.Version>
5.8.1

> <Gold.Id.Protein>
6NUR|6NUR_protein|mol2

> <Gold.PLP.Fitness>
47.5601

> <Gold.PLP.PLP>
-38.9457

> <Gold.PLP.part.hbond>
-2.3255

> <Gold.PLP.part.metal>
0.0000

> <Gold.PLP.part.buried>
-4.3512

> <Gold.PLP.part.nonpolar>
-32.5676

> <Gold.PLP.part.repulsive>
0.2494

> <Gold.PLP.ligand.clash>
0.0000

> <Gold.PLP.ligand.torsion>
0.5137

> <Gold.PLP.Chemscore.Hbond>
3.1573

> <Gold.PLP.Chemscore.CHOScore>
0.0000

> <Gold.PLP.Chemscore.Metal>
0.0000

> <Gold.Chemscore.Hbonds>
donor molecule, donor type, donor heavy atom, donor atom, acceptor molecule, acceptor atom, score
      L1  H     3    28       P1  8028  0.16
      L1  H     6    29       P1  8028  1.00

> <Gold.PLP.Chemscore.Internal.Correction>
0.1698

> <Gold.Rescore>
     Score         DG    S(hbond)    S(metal)    S(lipo)     H(rot)  DE(clash)    DE(int)     intcor
     18.17     -21.81       2.33        0.00     104.79       1.45       0.32       3.31       ----

> <Gold.Chemscore.Fitness>
18.1742

> <Gold.Chemscore.DG>
-21.8079

> <Gold.Chemscore.ZeroCoef>
-5.4800

> <Gold.Chemscore.Hbond>
2.3296

> <Gold.Chemscore.Metal>
0.0000

> <Gold.Chemscore.Lipo>
104.7858

> <Gold.Chemscore.Internal_Hbond>
0.0000

> <Gold.Chemscore.DEClash>
0.3206

> <Gold.Chemscore.DEInternal>
3.3131

> <Gold.Chemscore.Rot>
1.4504

> <Gold.Chemscore.Internal.Correction>
   9.000000E+99

> <Gold.Chemscore.Hbonds>
donor molecule, donor type, donor heavy atom, donor atom, acceptor molecule, acceptor atom, score
      L1  H     3    28       P1  8028  0.17
      L1  H     6    29       P1  8028  1.00

> <Gold.Chemscore.Hbond.Weighted>
-7.7808

> <Gold.Chemscore.Metal.Weighted>
-0.0000

> <Gold.Chemscore.Lipo.Weighted>
-12.2599

> <Gold.Chemscore.Internal_Hbond.Weighted>
0.0000

> <Gold.Chemscore.DEClash.Weighted>
0.3206

> <Gold.Chemscore.DEInternal.Weighted>
3.3131

> <Gold.Chemscore.Rot.Weighted>
3.7129

> <Gold.Chemscore.Internal.Correction.Weighted>
   9.000000E+99

> <Gold.Protein.RotatedTorsions>
[ 6907 6896 6895 6894 ] final  177.49 input  -60.11 | X-H torsion
[ 7974 7965 7964 7962 ] final  -43.59 input  175.53 | X-H torsion
[ 8008 7997 7996 7995 ] final   96.16 input   59.86 | X-H torsion
[ 10167 10162 10161 10158 ] final   70.19 input  -65.29 | X-H torsion
[ 10718 10713 10712 10709 ] final  -96.97 input   66.30 | X-H torsion
[ 10763 10752 10751 10750 ] final    9.96 input  -60.55 | X-H torsion
[ 11005 11000 10999 10996 ] final  -25.33 input  -57.11 | X-H torsion

> <Gold.Protein.ActiveResidues>
 VAL166  LYS551  ARG553  GLY616  TRP617  ASP618  TYR619  PRO620  LYS621  CYS622 
 ASP623  PHE694  ASN695  SER759  ASP760  ASP761  ALA762  ILE779  LEU786  VAL792 
 PHE793  MET794  SER795  GLU796  ALA797  LYS798  CYS799  TRP800  GLU811  SER814 

> <Gold.Protein.RotatedAtoms>
  151.7031  133.3311  159.3271 H   0  0  0  0  0  0  0  0  0  0  0  0  # atno 6907 bound_to 6896
  150.7727  134.6598  159.6343 H   0  0  0  0  0  0  0  0  0  0  0  0  # atno 6908 bound_to 6896
  152.3757  134.6669  160.0212 H   0  0  0  0  0  0  0  0  0  0  0  0  # atno 6909 bound_to 6896
  146.0004  140.7080  142.9273 H   0  0  0  0  0  0  0  0  0  0  0  0  # atno 7974 bound_to 7965
  156.0766  140.3276  155.7641 H   0  0  0  0  0  0  0  0  0  0  0  0  # atno 8008 bound_to 7997
  155.5220  140.0586  157.2922 H   0  0  0  0  0  0  0  0  0  0  0  0  # atno 8009 bound_to 7997
  154.4559  140.1942  156.0399 H   0  0  0  0  0  0  0  0  0  0  0  0  # atno 8010 bound_to 7997
  140.0597  144.5243  150.7303 H   0  0  0  0  0  0  0  0  0  0  0  0  # atno 10167 bound_to 10162
  156.0073  130.5174  150.6304 H   0  0  0  0  0  0  0  0  0  0  0  0  # atno 10718 bound_to 10713
  153.2084  135.6865  153.8144 H   0  0  0  0  0  0  0  0  0  0  0  0  # atno 10763 bound_to 10752
  153.7386  135.3241  155.3301 H   0  0  0  0  0  0  0  0  0  0  0  0  # atno 10764 bound_to 10752
  154.8209  135.4653  154.0880 H   0  0  0  0  0  0  0  0  0  0  0  0  # atno 10765 bound_to 10752
  140.8928  133.7577  156.0443 H   0  0  0  0  0  0  0  0  0  0  0  0  # atno 11005 bound_to 11000
  144.6917  140.3223  143.7230 LP  0  0  0  0  0  0  0  0  0  0  0  0  # atno 17320 bound_to 7965
  145.7496  139.1789  143.2329 LP  0  0  0  0  0  0  0  0  0  0  0  0  # atno 17321 bound_to 7965
  140.7178  143.2560  151.4378 LP  0  0  0  0  0  0  0  0  0  0  0  0  # atno 17342 bound_to 10162
  139.5902  144.1517  152.2078 LP  0  0  0  0  0  0  0  0  0  0  0  0  # atno 17343 bound_to 10162
  157.4103  131.0822  151.1227 LP  0  0  0  0  0  0  0  0  0  0  0  0  # atno 17370 bound_to 10713
  157.1860  130.6331  149.5688 LP  0  0  0  0  0  0  0  0  0  0  0  0  # atno 17371 bound_to 10713
  140.8326  134.3160  157.5343 LP  0  0  0  0  0  0  0  0  0  0  0  0  # atno 17394 bound_to 11000
  139.8732  134.9372  156.3680 LP  0  0  0  0  0  0  0  0  0  0  0  0  # atno 17395 bound_to 11000

$$$$
