AV-unprocessed.smi:2321|AV-procd|sdf|9283|dock2
  -GOLD-   2272012503D 1   1.00000     0.00000
 Structure written by MMmdl.
 36 37  0  0  0  0  0  0  0  0  1 V2000
  149.8352  140.7168  157.3917 O   0  0  0  0  0  0  0  0  0  0  0  0
  149.5952  141.8062  156.8760 C   0  0  0  0  0  0  0  0  0  0  0  0
  148.9712  141.9773  155.6942 N   0  0  0  0  0  0  0  0  0  0  0  0
  148.4636  140.9980  154.7982 C   0  0  0  0  0  0  0  0  0  0  0  0
  149.0240  139.7090  154.6260 C   0  0  0  0  0  0  0  0  0  0  0  0
  148.4331  138.8368  153.6898 C   0  0  0  0  0  0  0  0  0  0  0  0
  147.3616  139.1668  152.9377 N   0  0  0  0  0  0  0  0  0  0  0  0
  146.8392  140.4016  153.0944 C   0  0  0  0  0  0  0  0  0  0  0  0
  147.3528  141.3495  154.0022 C   0  0  0  0  0  0  0  0  0  0  0  0
  146.7832  142.5746  154.1079 F   0  0  0  0  0  0  0  0  0  0  0  0
  149.9302  142.9544  157.4934 N   0  0  0  0  0  0  0  0  0  0  0  0
  150.6111  143.1339  158.7780 C   0  0  2  0  0  0  0  0  0  0  0  0
  151.0671  144.5975  158.9138 C   0  0  0  0  0  0  0  0  0  0  0  0
  151.8336  144.8232  160.2254 C   0  0  0  0  0  0  0  0  0  0  0  0
  153.0288  143.8648  160.3440 C   0  0  0  0  0  0  0  0  0  0  0  0
  152.5903  142.3905  160.2188 C   0  0  2  0  0  0  0  0  0  0  0  0
  153.7812  141.4192  160.3546 C   0  0  0  0  0  0  0  0  0  0  0  0
  154.7723  141.7651  159.5324 F   0  0  0  0  0  0  0  0  0  0  0  0
  154.2374  141.4288  161.6072 F   0  0  0  0  0  0  0  0  0  0  0  0
  153.3930  140.1775  160.0638 F   0  0  0  0  0  0  0  0  0  0  0  0
  151.8167  142.1771  158.8998 C   0  0  0  0  0  0  0  0  0  0  0  0
  148.7756  142.9337  155.4369 H   0  0  0  0  0  0  0  0  0  0  0  0
  149.8917  139.3786  155.1755 H   0  0  0  0  0  0  0  0  0  0  0  0
  148.8375  137.8473  153.5365 H   0  0  0  0  0  0  0  0  0  0  0  0
  145.9871  140.6427  152.4762 H   0  0  0  0  0  0  0  0  0  0  0  0
  149.6642  143.8065  157.0210 H   0  0  0  0  0  0  0  0  0  0  0  0
  149.9108  142.9315  159.5905 H   0  0  0  0  0  0  0  0  0  0  0  0
  151.7052  144.8680  158.0711 H   0  0  0  0  0  0  0  0  0  0  0  0
  150.2046  145.2641  158.8749 H   0  0  0  0  0  0  0  0  0  0  0  0
  152.1792  145.8560  160.2795 H   0  0  0  0  0  0  0  0  0  0  0  0
  151.1619  144.6779  161.0723 H   0  0  0  0  0  0  0  0  0  0  0  0
  153.7598  144.1003  159.5694 H   0  0  0  0  0  0  0  0  0  0  0  0
  153.5289  144.0282  161.2991 H   0  0  0  0  0  0  0  0  0  0  0  0
  151.9048  142.1790  161.0410 H   0  0  0  0  0  0  0  0  0  0  0  0
  151.4769  141.1428  158.8400 H   0  0  0  0  0  0  0  0  0  0  0  0
  152.4886  142.3265  158.0535 H   0  0  0  0  0  0  0  0  0  0  0  0
  1  2  2  0  0  0  0
  2  3  1  0  0  0  0
  2 11  1  0  0  0  0
  3  4  1  0  0  0  0
  3 22  1  0  0  0  0
  4  9  1  0  0  0  0
  4  5  2  0  0  0  0
  5  6  1  0  0  0  0
  5 23  1  0  0  0  0
  6  7  2  0  0  0  0
  6 24  1  0  0  0  0
  7  8  1  0  0  0  0
  8  9  2  0  0  0  0
  8 25  1  0  0  0  0
  9 10  1  0  0  0  0
 11 12  1  0  0  0  0
 11 26  1  0  0  0  0
 12 21  1  0  0  0  0
 12 13  1  0  0  0  0
 12 27  1  0  0  0  0
 13 14  1  0  0  0  0
 13 28  1  0  0  0  0
 13 29  1  0  0  0  0
 14 15  1  0  0  0  0
 14 30  1  0  0  0  0
 14 31  1  0  0  0  0
 15 16  1  0  0  0  0
 15 32  1  0  0  0  0
 15 33  1  0  0  0  0
 16 17  1  0  0  0  0
 16 21  1  0  0  0  0
 16 34  1  0  0  0  0
 17 18  1  0  0  0  0
 17 19  1  0  0  0  0
 17 20  1  0  0  0  0
 21 35  1  0  0  0  0
 21 36  1  0  0  0  0
M  END
> <s_m_source_file>
AV-unprocessed.smi

> <i_m_source_file_index>
2321

> <i_lp_mmshare_version>
43012

> <i_f3d_flags>
0

> <s_epik_input>
RkMoRikoRilbQ0BASF0oW0NIMl0xKVtDSDJdW0NIMl1bQ0gyXVtDQEhdMVtOSF1DKD1PKVtOSF1jMltjSF1bY0hdbltjSF1jMkY=

> <s_epik_cmdline>
J2VwaWtfcHl0aG9uJywgJy1waCcsICc3LjAnLCAnLXRuJywgJzgnLCAnLW1hJywgJzIwMCcsICctbWV0YWxfYmluZGluZycsICctaW1hZScsICc8aW5maWxlLm1hZT4nLCAnLW9tYWUnLCAnPG91dGZpbGUubWFlPic=

> <r_epik_Ionization_Penalty>
0.00319438

> <r_epik_Ionization_Penalty_Charging>
0

> <r_epik_Ionization_Penalty_Neutral>
0.00319438

> <r_epik_State_Penalty>
0.00222511

> <r_epik_Charging_Adjusted_Penalty>
0.00222511

> <i_epik_Tot_Q>
0

> <i_epik_Tot_abs_Q>
0

> <r_epik_Metal_State_Penalty>
-0

> <b_epik_Metal_Only>
0

> <s_lp_Force_Field>
OPLS_2005

> <r_lp_Energy>
26.7556

> <b_lp_Chiralities_Consistent>
1

> <s_lp_Variant>
AV-unprocessed.smi:2321-3

> <Gold.Version>
5.8.1

> <Gold.Id.Protein>
6NUR|6NUR_protein|mol2

> <Gold.PLP.Fitness>
53.1890

> <Gold.PLP.PLP>
-42.2597

> <Gold.PLP.part.hbond>
-2.0000

> <Gold.PLP.part.metal>
0.0000

> <Gold.PLP.part.buried>
-5.1067

> <Gold.PLP.part.nonpolar>
-36.7457

> <Gold.PLP.part.repulsive>
1.5488

> <Gold.PLP.ligand.clash>
0.0000

> <Gold.PLP.ligand.torsion>
0.5479

> <Gold.PLP.Chemscore.Hbond>
2.0000

> <Gold.PLP.Chemscore.CHOScore>
2.0000

> <Gold.PLP.Chemscore.Metal>
0.0000

> <Gold.Chemscore.Hbonds>
donor molecule, donor type, donor heavy atom, donor atom, acceptor molecule, acceptor atom, score
      L1  H     3    22       P1  8028  1.00
      L1  H    11    26       P1  8028  1.00
      L1  C     6    24       P1  7948  1.00
      L1  C     8    25       P1 10175  1.00

> <Gold.PLP.Chemscore.Internal.Correction>
0.0251

> <Gold.Rescore>
     Score         DG    S(hbond)    S(metal)    S(lipo)     H(rot)  DE(clash)    DE(int)     intcor
     18.27     -21.33       1.93        0.00     102.24       1.00       0.49       2.58       ----

> <Gold.Chemscore.Fitness>
18.2697

> <Gold.Chemscore.DG>
-21.3314

> <Gold.Chemscore.ZeroCoef>
-5.4800

> <Gold.Chemscore.Hbond>
1.9309

> <Gold.Chemscore.Metal>
0.0000

> <Gold.Chemscore.Lipo>
102.2414

> <Gold.Chemscore.Internal_Hbond>
0.0000

> <Gold.Chemscore.DEClash>
0.4863

> <Gold.Chemscore.DEInternal>
2.5754

> <Gold.Chemscore.Rot>
1.0000

> <Gold.Chemscore.Internal.Correction>
   9.000000E+99

> <Gold.Chemscore.Hbonds>
donor molecule, donor type, donor heavy atom, donor atom, acceptor molecule, acceptor atom, score
      L1  H     3    22       P1  8028  0.98
      L1  H    11    26       P1  8028  0.86

> <Gold.Chemscore.Hbond.Weighted>
-6.4492

> <Gold.Chemscore.Metal.Weighted>
-0.0000

> <Gold.Chemscore.Lipo.Weighted>
-11.9622

> <Gold.Chemscore.Internal_Hbond.Weighted>
0.0000

> <Gold.Chemscore.DEClash.Weighted>
0.4863

> <Gold.Chemscore.DEInternal.Weighted>
2.5754

> <Gold.Chemscore.Rot.Weighted>
2.5600

> <Gold.Chemscore.Internal.Correction.Weighted>
   9.000000E+99

> <Gold.Protein.RotatedTorsions>
[ 6907 6896 6895 6894 ] final  -90.11 input  -60.11 | X-H torsion
[ 7974 7965 7964 7962 ] final  -51.70 input  175.53 | X-H torsion
[ 8008 7997 7996 7995 ] final  -97.19 input   59.86 | X-H torsion
[ 10167 10162 10161 10158 ] final   76.06 input  -65.29 | X-H torsion
[ 10718 10713 10712 10709 ] final -101.66 input   66.30 | X-H torsion
[ 10763 10752 10751 10750 ] final -108.22 input  -60.55 | X-H torsion
[ 11005 11000 10999 10996 ] final -121.25 input  -57.11 | X-H torsion

> <Gold.Protein.ActiveResidues>
 VAL166  LYS551  ARG553  GLY616  TRP617  ASP618  TYR619  PRO620  LYS621  CYS622 
 ASP623  PHE694  ASN695  SER759  ASP760  ASP761  ALA762  ILE779  LEU786  VAL792 
 PHE793  MET794  SER795  GLU796  ALA797  LYS798  CYS799  TRP800  GLU811  SER814 

> <Gold.Protein.RotatedAtoms>
  150.6879  134.2483  159.4500 H   0  0  0  0  0  0  0  0  0  0  0  0  # atno 6907 bound_to 6896
  152.0423  134.9702  160.0583 H   0  0  0  0  0  0  0  0  0  0  0  0  # atno 6908 bound_to 6896
  152.1199  133.4312  159.4707 H   0  0  0  0  0  0  0  0  0  0  0  0  # atno 6909 bound_to 6896
  145.9161  140.7874  142.9671 H   0  0  0  0  0  0  0  0  0  0  0  0  # atno 7974 bound_to 7965
  154.7844  140.0465  157.1152 H   0  0  0  0  0  0  0  0  0  0  0  0  # atno 8008 bound_to 7997
  154.9666  140.3084  155.4987 H   0  0  0  0  0  0  0  0  0  0  0  0  # atno 8009 bound_to 7997
  156.2941  140.2261  156.4755 H   0  0  0  0  0  0  0  0  0  0  0  0  # atno 8010 bound_to 7997
  139.9962  144.5720  150.7775 H   0  0  0  0  0  0  0  0  0  0  0  0  # atno 10167 bound_to 10162
  156.0202  130.5384  150.6996 H   0  0  0  0  0  0  0  0  0  0  0  0  # atno 10718 bound_to 10713
  154.8122  135.4646  154.0547 H   0  0  0  0  0  0  0  0  0  0  0  0  # atno 10763 bound_to 10752
  153.1969  135.6863  153.8287 H   0  0  0  0  0  0  0  0  0  0  0  0  # atno 10764 bound_to 10752
  153.7786  135.3260  155.3339 H   0  0  0  0  0  0  0  0  0  0  0  0  # atno 10765 bound_to 10752
  141.0084  134.0301  157.3447 H   0  0  0  0  0  0  0  0  0  0  0  0  # atno 11005 bound_to 11000
  144.6748  140.1902  143.7397 LP  0  0  0  0  0  0  0  0  0  0  0  0  # atno 17320 bound_to 7965
  145.8610  139.2223  143.1717 LP  0  0  0  0  0  0  0  0  0  0  0  0  # atno 17321 bound_to 7965
  140.7436  143.2848  151.3494 LP  0  0  0  0  0  0  0  0  0  0  0  0  # atno 17342 bound_to 10162
  139.6304  144.0732  152.2471 LP  0  0  0  0  0  0  0  0  0  0  0  0  # atno 17343 bound_to 10162
  157.4659  131.0888  151.0695 LP  0  0  0  0  0  0  0  0  0  0  0  0  # atno 17370 bound_to 10713
  157.1169  130.6045  149.5495 LP  0  0  0  0  0  0  0  0  0  0  0  0  # atno 17371 bound_to 10713
  139.9076  135.0183  156.7553 LP  0  0  0  0  0  0  0  0  0  0  0  0  # atno 17394 bound_to 11000
  140.6775  133.9504  155.7891 LP  0  0  0  0  0  0  0  0  0  0  0  0  # atno 17395 bound_to 11000

$$$$
