AV-unprocessed.smi:2693|AV-procd|sdf|10402|dock3
  -GOLD-   2272014433D 1   1.00000     0.00000
 Structure written by MMmdl.
 45 47  0  0  0  0  0  0  0  0  1 V2000
  145.6839  143.7440  153.0373 C   0  0  0  0  0  0  0  0  0  0  0  0
  145.7192  142.7252  154.0826 N   0  0  0  0  0  0  0  0  0  0  0  0
  145.4788  143.1570  155.4565 C   0  0  0  0  0  0  0  0  0  0  0  0
  145.9665  141.3835  153.7779 C   0  0  0  0  0  0  0  0  0  0  0  0
  145.3816  140.4576  154.5493 N   0  0  0  0  0  0  0  0  0  0  0  0
  145.6169  139.1593  154.2637 C   0  0  0  0  0  0  0  0  0  0  0  0
  146.4494  138.7751  153.1854 C   0  0  0  0  0  0  0  0  0  0  0  0
  146.7709  137.4365  152.8344 N   0  0  0  0  0  0  0  0  0  0  0  0
  145.9825  136.3495  152.8794 C   0  0  0  0  0  0  0  0  0  0  0  0
  144.7853  136.3490  153.1644 O   0  0  0  0  0  0  0  0  0  0  0  0
  146.6648  135.2420  152.5598 N   0  0  0  0  0  0  0  0  0  0  0  0
  146.0895  133.9011  152.5342 C   0  0  1  0  0  0  0  0  0  0  0  0
  146.1438  133.2620  151.1378 C   0  0  2  0  0  0  0  0  0  0  0  0
  144.8669  132.9655  150.3993 C   0  0  0  0  0  0  0  0  0  0  0  0
  144.6048  131.4970  150.7462 C   0  0  0  0  0  0  0  0  0  0  0  0
  145.3369  131.2744  151.9494 O   0  0  0  0  0  0  0  0  0  0  0  0
  146.5704  131.9802  151.8372 C   0  0  2  0  0  0  0  0  0  0  0  0
  147.0226  132.7861  153.0731 C   0  0  0  0  0  0  0  0  0  0  0  0
  148.5295  133.0792  153.1156 C   0  0  0  0  0  0  0  0  0  0  0  0
  146.6507  132.1939  154.4334 C   0  0  0  0  0  0  0  0  0  0  0  0
  147.0193  139.8307  152.4463 C   0  0  0  0  0  0  0  0  0  0  0  0
  146.7745  141.1248  152.7411 N   0  0  0  0  0  0  0  0  0  0  0  0
  144.9397  143.4904  152.2817 H   0  0  0  0  0  0  0  0  0  0  0  0
  146.6563  143.8208  152.5505 H   0  0  0  0  0  0  0  0  0  0  0  0
  145.4301  144.7271  153.4340 H   0  0  0  0  0  0  0  0  0  0  0  0
  144.5794  142.6838  155.8511 H   0  0  0  0  0  0  0  0  0  0  0  0
  145.3468  144.2366  155.5277 H   0  0  0  0  0  0  0  0  0  0  0  0
  146.3192  142.8836  156.0952 H   0  0  0  0  0  0  0  0  0  0  0  0
  145.1476  138.4477  154.9246 H   0  0  0  0  0  0  0  0  0  0  0  0
  147.7121  137.2907  152.4993 H   0  0  0  0  0  0  0  0  0  0  0  0
  147.6440  135.3277  152.3306 H   0  0  0  0  0  0  0  0  0  0  0  0
  145.0871  133.8451  152.9649 H   0  0  0  0  0  0  0  0  0  0  0  0
  146.9467  133.6663  150.5186 H   0  0  0  0  0  0  0  0  0  0  0  0
  144.0547  133.6000  150.7556 H   0  0  0  0  0  0  0  0  0  0  0  0
  144.9604  133.1126  149.3229 H   0  0  0  0  0  0  0  0  0  0  0  0
  143.5449  131.2769  150.8747 H   0  0  0  0  0  0  0  0  0  0  0  0
  144.9976  130.8432  149.9662 H   0  0  0  0  0  0  0  0  0  0  0  0
  147.3479  131.4224  151.3129 H   0  0  0  0  0  0  0  0  0  0  0  0
  149.1064  132.1697  153.2847 H   0  0  0  0  0  0  0  0  0  0  0  0
  148.7828  133.7784  153.9133 H   0  0  0  0  0  0  0  0  0  0  0  0
  148.8847  133.5120  152.1801 H   0  0  0  0  0  0  0  0  0  0  0  0
  147.1780  131.2580  154.6204 H   0  0  0  0  0  0  0  0  0  0  0  0
  145.5835  131.9819  154.5016 H   0  0  0  0  0  0  0  0  0  0  0  0
  146.8923  132.8791  155.2466 H   0  0  0  0  0  0  0  0  0  0  0  0
  147.6781  139.6388  151.6120 H   0  0  0  0  0  0  0  0  0  0  0  0
  1  2  1  0  0  0  0
  1 23  1  0  0  0  0
  1 24  1  0  0  0  0
  1 25  1  0  0  0  0
  2  3  1  0  0  0  0
  2  4  1  0  0  0  0
  3 26  1  0  0  0  0
  3 27  1  0  0  0  0
  3 28  1  0  0  0  0
  4 22  1  0  0  0  0
  4  5  2  0  0  0  0
  5  6  1  0  0  0  0
  6  7  2  0  0  0  0
  6 29  1  0  0  0  0
  7  8  1  0  0  0  0
  7 21  1  0  0  0  0
  8  9  1  0  0  0  0
  8 30  1  0  0  0  0
  9 10  2  0  0  0  0
  9 11  1  0  0  0  0
 11 12  1  0  0  0  0
 11 31  1  0  0  0  0
 12 18  1  0  0  0  0
 12 13  1  0  0  0  0
 12 32  1  0  0  0  0
 13 17  1  0  0  0  0
 13 14  1  0  0  0  0
 13 33  1  0  0  0  0
 14 15  1  0  0  0  0
 14 34  1  0  0  0  0
 14 35  1  0  0  0  0
 15 16  1  0  0  0  0
 15 36  1  0  0  0  0
 15 37  1  0  0  0  0
 16 17  1  0  0  0  0
 17 18  1  0  0  0  0
 17 38  1  0  0  0  0
 18 19  1  0  0  0  0
 18 20  1  0  0  0  0
 19 39  1  0  0  0  0
 19 40  1  0  0  0  0
 19 41  1  0  0  0  0
 20 42  1  0  0  0  0
 20 43  1  0  0  0  0
 20 44  1  0  0  0  0
 21 22  2  0  0  0  0
 21 45  1  0  0  0  0
M  END
> <s_m_source_file>
AV-unprocessed.smi

> <i_m_source_file_index>
2693

> <i_lp_mmshare_version>
43012

> <i_f3d_flags>
0

> <s_epik_input>
W0NIM11OKFtDSDNdKWMxbltjSF1jKFtjSF1uMSlbTkhdQyg9TylbTkhdW0NASF0yQyhbQ0gzXSkoW0NIM10pW0NAQEhdKFtDQEhdMjMpT1tDSDJdW0NIMl0z

> <s_epik_cmdline>
J2VwaWtfcHl0aG9uJywgJy1waCcsICc3LjAnLCAnLXRuJywgJzgnLCAnLW1hJywgJzIwMCcsICctbWV0YWxfYmluZGluZycsICctaW1hZScsICc8aW5maWxlLm1hZT4nLCAnLW9tYWUnLCAnPG91dGZpbGUubWFlPic=

> <r_lp_tautomer_probability>
1

> <r_epik_Ionization_Penalty>
0.00031779

> <r_epik_Ionization_Penalty_Charging>
0

> <r_epik_Ionization_Penalty_Neutral>
0.00031779

> <r_epik_State_Penalty>
-0

> <r_epik_Charging_Adjusted_Penalty>
0

> <i_epik_Tot_Q>
0

> <i_epik_Tot_abs_Q>
0

> <r_epik_Metal_State_Penalty>
-0

> <b_epik_Metal_Only>
0

> <s_lp_Force_Field>
OPLS_2005

> <r_lp_Energy>
29.1856

> <b_lp_Chiralities_Consistent>
1

> <s_lp_Variant>
AV-unprocessed.smi:2693-6

> <Gold.Version>
5.8.1

> <Gold.Id.Protein>
6NUR|6NUR_protein|mol2

> <Gold.PLP.Fitness>
39.0719

> <Gold.PLP.PLP>
-31.5530

> <Gold.PLP.part.hbond>
-2.0000

> <Gold.PLP.part.metal>
0.0000

> <Gold.PLP.part.buried>
-1.9498

> <Gold.PLP.part.nonpolar>
-26.8271

> <Gold.PLP.part.repulsive>
0.5698

> <Gold.PLP.ligand.clash>
0.0000

> <Gold.PLP.ligand.torsion>
0.8286

> <Gold.PLP.Chemscore.Hbond>
2.0000

> <Gold.PLP.Chemscore.CHOScore>
1.0000

> <Gold.PLP.Chemscore.Metal>
0.0000

> <Gold.Chemscore.Hbonds>
donor molecule, donor type, donor heavy atom, donor atom, acceptor molecule, acceptor atom, score
      L1  H     8    30       P1  7948  1.00
      L1  H    11    31       P1  7948  1.00
      L1  C    21    45       P1  7957  0.88

> <Gold.PLP.Chemscore.Internal.Correction>
0.1762

> <Gold.Rescore>
     Score         DG    S(hbond)    S(metal)    S(lipo)     H(rot)  DE(clash)    DE(int)     intcor
     17.33     -18.23       1.93        0.00      75.74       1.00       0.34       0.56       ----

> <Gold.Chemscore.Fitness>
17.3273

> <Gold.Chemscore.DG>
-18.2291

> <Gold.Chemscore.ZeroCoef>
-5.4800

> <Gold.Chemscore.Hbond>
1.9304

> <Gold.Chemscore.Metal>
0.0000

> <Gold.Chemscore.Lipo>
75.7401

> <Gold.Chemscore.Internal_Hbond>
0.0000

> <Gold.Chemscore.DEClash>
0.3407

> <Gold.Chemscore.DEInternal>
0.5611

> <Gold.Chemscore.Rot>
1.0000

> <Gold.Chemscore.Internal.Correction>
   9.000000E+99

> <Gold.Chemscore.Hbonds>
donor molecule, donor type, donor heavy atom, donor atom, acceptor molecule, acceptor atom, score
      L1  H     8    30       P1  7948  0.95
      L1  H    11    31       P1  7948  0.95

> <Gold.Chemscore.Hbond.Weighted>
-6.4475

> <Gold.Chemscore.Metal.Weighted>
-0.0000

> <Gold.Chemscore.Lipo.Weighted>
-8.8616

> <Gold.Chemscore.Internal_Hbond.Weighted>
0.0000

> <Gold.Chemscore.DEClash.Weighted>
0.3407

> <Gold.Chemscore.DEInternal.Weighted>
0.5611

> <Gold.Chemscore.Rot.Weighted>
2.5600

> <Gold.Chemscore.Internal.Correction.Weighted>
   9.000000E+99

> <Gold.Protein.RotatedTorsions>
[ 6907 6896 6895 6894 ] final  -57.95 input  -60.11 | X-H torsion
[ 7974 7965 7964 7962 ] final  -80.64 input  175.53 | X-H torsion
[ 8008 7997 7996 7995 ] final  131.82 input   59.86 | X-H torsion
[ 10167 10162 10161 10158 ] final  160.08 input  -65.29 | X-H torsion
[ 10718 10713 10712 10709 ] final -167.02 input   66.30 | X-H torsion
[ 10763 10752 10751 10750 ] final   26.56 input  -60.55 | X-H torsion
[ 11005 11000 10999 10996 ] final -146.43 input  -57.11 | X-H torsion

> <Gold.Protein.ActiveResidues>
 VAL166  LYS551  ARG553  GLY616  TRP617  ASP618  TYR619  PRO620  LYS621  CYS622 
 ASP623  PHE694  ASN695  SER759  ASP760  ASP761  ALA762  ILE779  LEU786  VAL792 
 PHE793  MET794  SER795  GLU796  ALA797  LYS798  CYS799  TRP800  GLU811  SER814 

> <Gold.Protein.RotatedAtoms>
  150.8046  134.7162  159.6631 H   0  0  0  0  0  0  0  0  0  0  0  0  # atno 6907 bound_to 6896
  152.4164  134.6030  160.0015 H   0  0  0  0  0  0  0  0  0  0  0  0  # atno 6908 bound_to 6896
  151.6258  133.3298  159.3134 H   0  0  0  0  0  0  0  0  0  0  0  0  # atno 6909 bound_to 6896
  145.5573  140.9487  143.1466 H   0  0  0  0  0  0  0  0  0  0  0  0  # atno 7974 bound_to 7965
  156.2975  140.2561  156.2989 H   0  0  0  0  0  0  0  0  0  0  0  0  # atno 8008 bound_to 7997
  154.9437  140.0395  157.2128 H   0  0  0  0  0  0  0  0  0  0  0  0  # atno 8009 bound_to 7997
  154.8102  140.2843  155.5863 H   0  0  0  0  0  0  0  0  0  0  0  0  # atno 8010 bound_to 7997
  139.4837  144.4668  151.8630 H   0  0  0  0  0  0  0  0  0  0  0  0  # atno 10167 bound_to 10162
  156.6763  130.9104  151.3051 H   0  0  0  0  0  0  0  0  0  0  0  0  # atno 10718 bound_to 10713
  153.0614  135.6557  154.0453 H   0  0  0  0  0  0  0  0  0  0  0  0  # atno 10763 bound_to 10752
  154.0120  135.2927  155.3392 H   0  0  0  0  0  0  0  0  0  0  0  0  # atno 10764 bound_to 10752
  154.6954  135.5266  153.8519 H   0  0  0  0  0  0  0  0  0  0  0  0  # atno 10765 bound_to 10752
  140.7821  134.3067  157.5042 H   0  0  0  0  0  0  0  0  0  0  0  0  # atno 11005 bound_to 11000
  144.7500  139.7219  143.7277 LP  0  0  0  0  0  0  0  0  0  0  0  0  # atno 17320 bound_to 7965
  146.1875  139.5099  142.9826 LP  0  0  0  0  0  0  0  0  0  0  0  0  # atno 17321 bound_to 7965
  140.4134  144.2339  150.5888 LP  0  0  0  0  0  0  0  0  0  0  0  0  # atno 17342 bound_to 10162
  140.4944  143.2337  151.8771 LP  0  0  0  0  0  0  0  0  0  0  0  0  # atno 17343 bound_to 10162
  157.7060  130.9385  150.0931 LP  0  0  0  0  0  0  0  0  0  0  0  0  # atno 17370 bound_to 10713
  156.1901  130.3654  149.8921 LP  0  0  0  0  0  0  0  0  0  0  0  0  # atno 17371 bound_to 10713
  139.8741  134.9324  156.3554 LP  0  0  0  0  0  0  0  0  0  0  0  0  # atno 17394 bound_to 11000
  140.9472  133.7475  156.0224 LP  0  0  0  0  0  0  0  0  0  0  0  0  # atno 17395 bound_to 11000

$$$$
