AV-unprocessed.smi:1302|AV-procd|sdf|5426|dock9
  -GOLD-   22720 4583D 1   1.00000     0.00000
 Structure written by MMmdl.
 43 44  0  0  0  0  0  0  0  0  1 V2000
  156.4284  138.8495  166.2113 C   0  0  0  0  0  0  0  0  0  0  0  0
  156.4498  140.3835  166.1621 C   0  0  0  0  0  0  0  0  0  0  0  0
  155.9335  141.0045  167.4669 C   0  0  0  0  0  0  0  0  0  0  0  0
  155.6357  140.8504  165.0433 N   0  0  0  0  0  0  0  0  0  0  0  0
  155.6576  140.3595  163.7928 C   0  0  0  0  0  0  0  0  0  0  0  0
  156.4108  139.4592  163.4217 O   0  0  0  0  0  0  0  0  0  0  0  0
  154.7297  141.0300  162.8224 C   0  0  0  0  0  0  0  0  0  0  0  0
  154.1265  142.2657  163.1410 C   0  0  0  0  0  0  0  0  0  0  0  0
  153.2779  142.8765  162.1977 C   0  0  0  0  0  0  0  0  0  0  0  0
  153.0707  142.2385  160.9575 C   0  0  0  0  0  0  0  0  0  0  0  0
  152.2231  142.8405  160.0174 N   0  0  0  0  0  0  0  0  0  0  0  0
  151.9474  141.9897  158.8688 C   0  0  0  0  0  0  0  0  0  0  0  0
  150.8748  142.6386  157.9751 C   0  0  2  0  0  0  0  0  0  0  0  0
  150.6434  141.8389  156.6890 C   0  0  0  0  0  0  0  0  0  0  0  0
  151.2899  143.9551  157.6079 O   0  0  0  0  0  0  0  0  0  0  0  0
  151.5739  144.8259  158.7064 C   0  0  1  0  0  0  0  0  0  0  0  0
  150.2970  145.2614  159.4478 C   0  0  0  0  0  0  0  0  0  0  0  0
  152.6312  144.1840  159.6260 C   0  0  0  0  0  0  0  0  0  0  0  0
  153.6542  141.0589  160.6380 N   0  0  0  0  0  0  0  0  0  0  0  0
  154.4631  140.4769  161.5490 C   0  0  0  0  0  0  0  0  0  0  0  0
  157.0374  138.4759  167.0350 H   0  0  0  0  0  0  0  0  0  0  0  0
  156.8235  138.4211  165.2895 H   0  0  0  0  0  0  0  0  0  0  0  0
  155.4151  138.4701  166.3479 H   0  0  0  0  0  0  0  0  0  0  0  0
  157.4852  140.7025  166.0333 H   0  0  0  0  0  0  0  0  0  0  0  0
  156.5312  140.6783  168.3184 H   0  0  0  0  0  0  0  0  0  0  0  0
  154.8977  140.7231  167.6596 H   0  0  0  0  0  0  0  0  0  0  0  0
  155.9828  142.0934  167.4292 H   0  0  0  0  0  0  0  0  0  0  0  0
  154.9983  141.6091  165.2373 H   0  0  0  0  0  0  0  0  0  0  0  0
  154.3019  142.7410  164.0952 H   0  0  0  0  0  0  0  0  0  0  0  0
  152.7982  143.8179  162.4231 H   0  0  0  0  0  0  0  0  0  0  0  0
  152.8662  141.8356  158.3006 H   0  0  0  0  0  0  0  0  0  0  0  0
  151.6098  141.0099  159.2089 H   0  0  0  0  0  0  0  0  0  0  0  0
  149.9295  142.6903  158.5162 H   0  0  0  0  0  0  0  0  0  0  0  0
  150.3168  140.8226  156.9112 H   0  0  0  0  0  0  0  0  0  0  0  0
  151.5556  141.7750  156.0950 H   0  0  0  0  0  0  0  0  0  0  0  0
  149.8762  142.3069  156.0719 H   0  0  0  0  0  0  0  0  0  0  0  0
  152.0111  145.7273  158.2761 H   0  0  0  0  0  0  0  0  0  0  0  0
  150.5262  146.0176  160.1988 H   0  0  0  0  0  0  0  0  0  0  0  0
  149.8133  144.4318  159.9632 H   0  0  0  0  0  0  0  0  0  0  0  0
  149.5740  145.6931  158.7558 H   0  0  0  0  0  0  0  0  0  0  0  0
  152.7916  144.8005  160.5114 H   0  0  0  0  0  0  0  0  0  0  0  0
  153.5844  144.1312  159.0978 H   0  0  0  0  0  0  0  0  0  0  0  0
  154.9113  139.5434  161.2413 H   0  0  0  0  0  0  0  0  0  0  0  0
  1  2  1  0  0  0  0
  1 21  1  0  0  0  0
  1 22  1  0  0  0  0
  1 23  1  0  0  0  0
  2  3  1  0  0  0  0
  2  4  1  0  0  0  0
  2 24  1  0  0  0  0
  3 25  1  0  0  0  0
  3 26  1  0  0  0  0
  3 27  1  0  0  0  0
  4  5  1  0  0  0  0
  4 28  1  0  0  0  0
  5  6  2  0  0  0  0
  5  7  1  0  0  0  0
  7 20  1  0  0  0  0
  7  8  2  0  0  0  0
  8  9  1  0  0  0  0
  8 29  1  0  0  0  0
  9 10  2  0  0  0  0
  9 30  1  0  0  0  0
 10 11  1  0  0  0  0
 10 19  1  0  0  0  0
 11 18  1  0  0  0  0
 11 12  1  0  0  0  0
 12 13  1  0  0  0  0
 12 31  1  0  0  0  0
 12 32  1  0  0  0  0
 13 14  1  0  0  0  0
 13 15  1  0  0  0  0
 13 33  1  0  0  0  0
 14 34  1  0  0  0  0
 14 35  1  0  0  0  0
 14 36  1  0  0  0  0
 15 16  1  0  0  0  0
 16 17  1  0  0  0  0
 16 18  1  0  0  0  0
 16 37  1  0  0  0  0
 17 38  1  0  0  0  0
 17 39  1  0  0  0  0
 17 40  1  0  0  0  0
 18 41  1  0  0  0  0
 18 42  1  0  0  0  0
 19 20  2  0  0  0  0
 20 43  1  0  0  0  0
M  END
> <s_m_source_file>
AV-unprocessed.smi

> <i_m_source_file_index>
1302

> <i_lp_mmshare_version>
43012

> <i_f3d_flags>
0

> <s_epik_input>
W0NIM11bQ0hdKFtDSDNdKVtOSF1DKD1PKWMxW2NIXVtjSF1jKG5bY0hdMSlOMltDSDJdW0NAQEhdKFtDSDNdKU9bQ0BASF0oW0NIM10pW0NIMl0y

> <s_epik_cmdline>
J2VwaWtfcHl0aG9uJywgJy1waCcsICc3LjAnLCAnLXRuJywgJzgnLCAnLW1hJywgJzIwMCcsICctbWV0YWxfYmluZGluZycsICctaW1hZScsICc8aW5maWxlLm1hZT4nLCAnLW9tYWUnLCAnPG91dGZpbGUubWFlPic=

> <r_lp_tautomer_probability>
1

> <r_epik_Ionization_Penalty>
2.23089e-05

> <r_epik_Ionization_Penalty_Charging>
0

> <r_epik_Ionization_Penalty_Neutral>
2.23089e-05

> <r_epik_State_Penalty>
-0

> <r_epik_Charging_Adjusted_Penalty>
0

> <i_epik_Tot_Q>
0

> <i_epik_Tot_abs_Q>
0

> <r_epik_Metal_State_Penalty>
-0

> <b_epik_Metal_Only>
0

> <s_lp_Force_Field>
OPLS_2005

> <r_lp_Energy>
23.1748

> <b_lp_Chiralities_Consistent>
1

> <s_lp_Variant>
AV-unprocessed.smi:1302-2

> <Gold.Version>
5.8.1

> <Gold.Id.Protein>
6NUR|6NUR_protein|mol2

> <Gold.PLP.Fitness>
41.5564

> <Gold.PLP.PLP>
-42.0559

> <Gold.PLP.part.hbond>
0.0000

> <Gold.PLP.part.metal>
0.0000

> <Gold.PLP.part.buried>
-4.7398

> <Gold.PLP.part.nonpolar>
-37.4773

> <Gold.PLP.part.repulsive>
0.2176

> <Gold.PLP.ligand.clash>
0.0000

> <Gold.PLP.ligand.torsion>
0.3038

> <Gold.PLP.Chemscore.Hbond>
0.0000

> <Gold.PLP.Chemscore.CHOScore>
0.0000

> <Gold.PLP.Chemscore.Metal>
0.0000

> <Gold.PLP.Chemscore.Internal.Correction>
0.1083

> <Gold.Rescore>
     Score         DG    S(hbond)    S(metal)    S(lipo)     H(rot)  DE(clash)    DE(int)     intcor
     15.08     -16.64       0.00        0.00     120.56       1.15       0.23       1.33       ----

> <Gold.Chemscore.Fitness>
15.0800

> <Gold.Chemscore.DG>
-16.6398

> <Gold.Chemscore.ZeroCoef>
-5.4800

> <Gold.Chemscore.Hbond>
0.0000

> <Gold.Chemscore.Metal>
0.0000

> <Gold.Chemscore.Lipo>
120.5633

> <Gold.Chemscore.Internal_Hbond>
0.0000

> <Gold.Chemscore.DEClash>
0.2311

> <Gold.Chemscore.DEInternal>
1.3286

> <Gold.Chemscore.Rot>
1.1508

> <Gold.Chemscore.Internal.Correction>
   9.000000E+99

> <Gold.Chemscore.Hbond.Weighted>
-0.0000

> <Gold.Chemscore.Metal.Weighted>
-0.0000

> <Gold.Chemscore.Lipo.Weighted>
-14.1059

> <Gold.Chemscore.Internal_Hbond.Weighted>
0.0000

> <Gold.Chemscore.DEClash.Weighted>
0.2311

> <Gold.Chemscore.DEInternal.Weighted>
1.3286

> <Gold.Chemscore.Rot.Weighted>
2.9461

> <Gold.Chemscore.Internal.Correction.Weighted>
   9.000000E+99

> <Gold.Protein.RotatedTorsions>
[ 6907 6896 6895 6894 ] final -128.81 input  -60.11 | X-H torsion
[ 7974 7965 7964 7962 ] final  -69.85 input  175.53 | X-H torsion
[ 8008 7997 7996 7995 ] final  128.01 input   59.86 | X-H torsion
[ 10167 10162 10161 10158 ] final -132.27 input  -65.29 | X-H torsion
[ 10718 10713 10712 10709 ] final  -24.32 input   66.30 | X-H torsion
[ 10763 10752 10751 10750 ] final  -22.80 input  -60.55 | X-H torsion
[ 11005 11000 10999 10996 ] final  -78.15 input  -57.11 | X-H torsion

> <Gold.Protein.ActiveResidues>
 VAL166  LYS551  ARG553  GLY616  TRP617  ASP618  TYR619  PRO620  LYS621  CYS622 
 ASP623  PHE694  ASN695  SER759  ASP760  ASP761  ALA762  ILE779  LEU786  VAL792 
 PHE793  MET794  SER795  GLU796  ALA797  LYS798  CYS799  TRP800  GLU811  SER814 

> <Gold.Protein.RotatedAtoms>
  150.9219  133.6870  159.2829 H   0  0  0  0  0  0  0  0  0  0  0  0  # atno 6907 bound_to 6896
  151.4321  135.1009  159.9655 H   0  0  0  0  0  0  0  0  0  0  0  0  # atno 6908 bound_to 6896
  152.4984  133.8647  159.7323 H   0  0  0  0  0  0  0  0  0  0  0  0  # atno 6909 bound_to 6896
  145.6984  140.9126  143.0744 H   0  0  0  0  0  0  0  0  0  0  0  0  # atno 7974 bound_to 7965
  156.2905  140.2655  156.2366 H   0  0  0  0  0  0  0  0  0  0  0  0  # atno 8008 bound_to 7997
  155.0019  140.0387  157.2382 H   0  0  0  0  0  0  0  0  0  0  0  0  # atno 8009 bound_to 7997
  154.7594  140.2758  155.6232 H   0  0  0  0  0  0  0  0  0  0  0  0  # atno 8010 bound_to 7997
  139.9102  143.6503  152.2577 H   0  0  0  0  0  0  0  0  0  0  0  0  # atno 10167 bound_to 10162
  156.4793  130.4541  149.6821 H   0  0  0  0  0  0  0  0  0  0  0  0  # atno 10718 bound_to 10713
  153.6577  135.6978  153.5188 H   0  0  0  0  0  0  0  0  0  0  0  0  # atno 10763 bound_to 10752
  153.2656  135.4231  155.0937 H   0  0  0  0  0  0  0  0  0  0  0  0  # atno 10764 bound_to 10752
  154.8460  135.3566  154.6122 H   0  0  0  0  0  0  0  0  0  0  0  0  # atno 10765 bound_to 10752
  141.1663  133.7051  156.7928 H   0  0  0  0  0  0  0  0  0  0  0  0  # atno 11005 bound_to 11000
  144.6975  139.8915  143.7453 LP  0  0  0  0  0  0  0  0  0  0  0  0  # atno 17320 bound_to 7965
  146.0819  139.3807  143.0459 LP  0  0  0  0  0  0  0  0  0  0  0  0  # atno 17321 bound_to 7965
  139.6949  144.7642  151.1374 LP  0  0  0  0  0  0  0  0  0  0  0  0  # atno 17342 bound_to 10162
  140.7687  143.5538  150.9175 LP  0  0  0  0  0  0  0  0  0  0  0  0  # atno 17343 bound_to 10162
  156.3538  130.7446  151.2409 LP  0  0  0  0  0  0  0  0  0  0  0  0  # atno 17370 bound_to 10713
  157.7484  131.0369  150.4433 LP  0  0  0  0  0  0  0  0  0  0  0  0  # atno 17371 bound_to 10713
  140.2313  134.8684  157.3479 LP  0  0  0  0  0  0  0  0  0  0  0  0  # atno 17394 bound_to 11000
  140.1888  134.4397  155.7728 LP  0  0  0  0  0  0  0  0  0  0  0  0  # atno 17395 bound_to 11000

$$$$
