AV-unprocessed.smi:2237|AV-procd|sdf|9049|dock2
  -GOLD-   2272012253D 1   1.00000     0.00000
 Structure written by MMmdl.
 55 57  0  0  0  0  0  0  0  0  3 V2000
  153.1857  142.3172  161.1623 C   0  0  0  0  0  0  0  0  0  0  0  0
  152.3611  143.2942  160.3508 C   0  0  0  0  0  0  0  0  0  0  0  0
  152.2463  144.6438  160.7383 C   0  0  0  0  0  0  0  0  0  0  0  0
  151.4609  145.4971  159.9430 C   0  0  0  0  0  0  0  0  0  0  0  0
  150.8281  144.9704  158.8006 C   0  0  0  0  0  0  0  0  0  0  0  0
  150.9950  143.6041  158.4816 C   0  0  0  0  0  0  0  0  0  0  0  0
  150.3183  143.1724  157.3099 N   0  0  0  0  0  0  0  0  0  0  0  0
  150.4657  142.0128  156.6453 C   0  0  0  0  0  0  0  0  0  0  0  0
  151.2297  141.1003  156.9613 O   0  0  0  0  0  0  0  0  0  0  0  0
  149.6615  141.9611  155.5729 N   0  0  0  0  0  0  0  0  0  0  0  0
  149.5843  140.8448  154.6351 C   0  0  2  0  0  0  0  0  0  0  0  0
  148.2832  140.9397  153.8192 C   0  0  0  0  0  0  0  0  0  0  0  0
  148.1215  139.7131  152.9032 C   0  0  0  0  0  0  0  0  0  0  0  0
  148.1146  138.4409  153.6807 N   0  3  2  0  0  0  0  0  0  0  0  0
  146.8867  138.1755  154.5094 C   0  0  2  0  0  0  0  0  0  0  0  0
  146.9212  136.7855  155.1897 C   0  0  0  0  0  0  0  0  0  0  0  0
  146.7630  135.6397  154.1724 C   0  0  0  0  0  0  0  0  0  0  0  0
  145.5020  135.7788  153.4023 N   0  3  2  0  0  0  0  0  0  0  0  0
  145.2756  134.6452  152.4797 C   0  0  0  0  0  0  0  0  0  0  0  0
  145.4041  137.0925  152.7195 C   0  0  0  0  0  0  0  0  0  0  0  0
  145.5522  138.2485  153.7261 C   0  0  0  0  0  0  0  0  0  0  0  0
  149.4033  138.3102  154.4213 C   0  0  0  0  0  0  0  0  0  0  0  0
  149.6537  139.4949  155.3771 C   0  0  0  0  0  0  0  0  0  0  0  0
  151.7539  142.7887  159.2555 N   0  0  0  0  0  0  0  0  0  0  0  0
  153.7395  142.8266  161.9513 H   0  0  0  0  0  0  0  0  0  0  0  0
  153.9028  141.8005  160.5236 H   0  0  0  0  0  0  0  0  0  0  0  0
  152.5388  141.5716  161.6256 H   0  0  0  0  0  0  0  0  0  0  0  0
  152.7441  145.0175  161.6210 H   0  0  0  0  0  0  0  0  0  0  0  0
  151.3445  146.5386  160.2035 H   0  0  0  0  0  0  0  0  0  0  0  0
  150.2214  145.6132  158.1793 H   0  0  0  0  0  0  0  0  0  0  0  0
  149.6458  143.8242  156.9341 H   0  0  0  0  0  0  0  0  0  0  0  0
  149.0674  142.7561  155.3877 H   0  0  0  0  0  0  0  0  0  0  0  0
  150.4237  140.9061  153.9394 H   0  0  0  0  0  0  0  0  0  0  0  0
  147.4237  141.0232  154.4854 H   0  0  0  0  0  0  0  0  0  0  0  0
  148.2918  141.8482  153.2158 H   0  0  0  0  0  0  0  0  0  0  0  0
  147.2476  139.8097  152.2622 H   0  0  0  0  0  0  0  0  0  0  0  0
  148.9629  139.6795  152.2093 H   0  0  0  0  0  0  0  0  0  0  0  0
  146.8379  138.9352  155.2889 H   0  0  0  0  0  0  0  0  0  0  0  0
  147.8183  136.6366  155.7870 H   0  0  0  0  0  0  0  0  0  0  0  0
  146.1004  136.7263  155.9063 H   0  0  0  0  0  0  0  0  0  0  0  0
  147.6126  135.6195  153.4882 H   0  0  0  0  0  0  0  0  0  0  0  0
  146.7598  134.6849  154.6997 H   0  0  0  0  0  0  0  0  0  0  0  0
  146.0516  134.6005  151.7143 H   0  0  0  0  0  0  0  0  0  0  0  0
  144.3098  134.7399  151.9818 H   0  0  0  0  0  0  0  0  0  0  0  0
  145.2765  133.7000  153.0236 H   0  0  0  0  0  0  0  0  0  0  0  0
  146.1667  137.1612  151.9423 H   0  0  0  0  0  0  0  0  0  0  0  0
  144.4373  137.1685  152.2204 H   0  0  0  0  0  0  0  0  0  0  0  0
  144.7292  138.1851  154.4398 H   0  0  0  0  0  0  0  0  0  0  0  0
  145.4093  139.2123  153.2400 H   0  0  0  0  0  0  0  0  0  0  0  0
  149.4720  137.3687  154.9611 H   0  0  0  0  0  0  0  0  0  0  0  0
  150.2107  138.2738  153.6883 H   0  0  0  0  0  0  0  0  0  0  0  0
  150.6326  139.3788  155.8441 H   0  0  0  0  0  0  0  0  0  0  0  0
  148.9318  139.4780  156.1939 H   0  0  0  0  0  0  0  0  0  0  0  0
  148.1235  137.7089  152.9848 H   0  0  0  0  0  0  0  0  0  0  0  0
  144.7494  135.7494  154.0760 H   0  0  0  0  0  0  0  0  0  0  0  0
  1  2  1  0  0  0  0
  1 25  1  0  0  0  0
  1 26  1  0  0  0  0
  1 27  1  0  0  0  0
  2 24  1  0  0  0  0
  2  3  2  0  0  0  0
  3  4  1  0  0  0  0
  3 28  1  0  0  0  0
  4  5  2  0  0  0  0
  4 29  1  0  0  0  0
  5  6  1  0  0  0  0
  5 30  1  0  0  0  0
  6  7  1  0  0  0  0
  6 24  2  0  0  0  0
  7  8  1  0  0  0  0
  7 31  1  0  0  0  0
  8  9  2  0  0  0  0
  8 10  1  0  0  0  0
 10 11  1  0  0  0  0
 10 32  1  0  0  0  0
 11 23  1  0  0  0  0
 11 12  1  0  0  0  0
 11 33  1  0  0  0  0
 12 13  1  0  0  0  0
 12 34  1  0  0  0  0
 12 35  1  0  0  0  0
 13 14  1  0  0  0  0
 13 36  1  0  0  0  0
 13 37  1  0  0  0  0
 14 15  1  0  0  0  0
 14 22  1  0  0  0  0
 14 54  1  0  0  0  0
 15 21  1  0  0  0  0
 15 16  1  0  0  0  0
 15 38  1  0  0  0  0
 16 17  1  0  0  0  0
 16 39  1  0  0  0  0
 16 40  1  0  0  0  0
 17 18  1  0  0  0  0
 17 41  1  0  0  0  0
 17 42  1  0  0  0  0
 18 19  1  0  0  0  0
 18 20  1  0  0  0  0
 18 55  1  0  0  0  0
 19 43  1  0  0  0  0
 19 44  1  0  0  0  0
 19 45  1  0  0  0  0
 20 21  1  0  0  0  0
 20 46  1  0  0  0  0
 20 47  1  0  0  0  0
 21 48  1  0  0  0  0
 21 49  1  0  0  0  0
 22 23  1  0  0  0  0
 22 50  1  0  0  0  0
 22 51  1  0  0  0  0
 23 52  1  0  0  0  0
 23 53  1  0  0  0  0
M  CHG  1  14   1
M  CHG  1  18   1
M  END
> <s_m_source_file>
AV-unprocessed.smi

> <i_m_source_file_index>
2237

> <i_lp_mmshare_version>
43012

> <i_f3d_flags>
0

> <s_epik_input>
W0NIM11jMVtjSF1bY0hdW2NIXWMobjEpW05IXUMoPU8pW05IXVtDSF0yW0NIMl1bQ0gyXU4oW0NIMl1bQ0gyXTIpW0NIXTNbQ0gyXVtDSDJdTihbQ0gzXSlbQ0gyXVtDSDJdMw==

> <s_epik_cmdline>
J2VwaWtfcHl0aG9uJywgJy1waCcsICc3LjAnLCAnLXRuJywgJzgnLCAnLW1hJywgJzIwMCcsICctbWV0YWxfYmluZGluZycsICctaW1hZScsICc8aW5maWxlLm1hZT4nLCAnLW9tYWUnLCAnPG91dGZpbGUubWFlPic=

> <r_epik_Ionization_Penalty>
0.180851

> <r_epik_Ionization_Penalty_Charging>
0.180787

> <r_epik_Ionization_Penalty_Neutral>
6.38624e-05

> <r_epik_State_Penalty>
0.153592

> <r_epik_Charging_Adjusted_Penalty>
0.334379

> <i_epik_Tot_Q>
2

> <i_epik_Tot_abs_Q>
2

> <r_epik_Metal_State_Penalty>
0.153595

> <b_epik_Metal_Only>
0

> <s_lp_Force_Field>
OPLS_2005

> <r_lp_Energy>
48.731

> <b_lp_Chiralities_Consistent>
1

> <s_lp_Variant>
AV-unprocessed.smi:2237-4

> <Gold.Version>
5.8.1

> <Gold.Id.Protein>
6NUR|6NUR_protein|mol2

> <Gold.PLP.Fitness>
49.5189

> <Gold.PLP.PLP>
-38.6648

> <Gold.PLP.part.hbond>
-3.0000

> <Gold.PLP.part.metal>
0.0000

> <Gold.PLP.part.buried>
-0.0491

> <Gold.PLP.part.nonpolar>
-35.7065

> <Gold.PLP.part.repulsive>
0.1961

> <Gold.PLP.ligand.clash>
0.0000

> <Gold.PLP.ligand.torsion>
0.3122

> <Gold.PLP.Chemscore.Hbond>
3.8080

> <Gold.PLP.Chemscore.CHOScore>
0.0000

> <Gold.PLP.Chemscore.Metal>
0.0000

> <Gold.Chemscore.Hbonds>
donor molecule, donor type, donor heavy atom, donor atom, acceptor molecule, acceptor atom, score
      L1  H     7    31       P1  8028  1.00
      L1  H    10    32       P1  8028  0.88
      L1  H    14    54       P1  7948  2.00

> <Gold.PLP.Chemscore.Internal.Correction>
0.0544

> <Gold.Rescore>
     Score         DG    S(hbond)    S(metal)    S(lipo)     H(rot)  DE(clash)    DE(int)     intcor
     19.02     -24.37       2.73        0.00     110.36       1.23       2.29       3.06       ----

> <Gold.Chemscore.Fitness>
19.0188

> <Gold.Chemscore.DG>
-24.3653

> <Gold.Chemscore.ZeroCoef>
-5.4800

> <Gold.Chemscore.Hbond>
2.7309

> <Gold.Chemscore.Metal>
0.0000

> <Gold.Chemscore.Lipo>
110.3551

> <Gold.Chemscore.Internal_Hbond>
0.0000

> <Gold.Chemscore.DEClash>
2.2860

> <Gold.Chemscore.DEInternal>
3.0605

> <Gold.Chemscore.Rot>
1.2295

> <Gold.Chemscore.Internal.Correction>
   9.000000E+99

> <Gold.Chemscore.Hbonds>
donor molecule, donor type, donor heavy atom, donor atom, acceptor molecule, acceptor atom, score
      L1  H     7    31       P1  8028  0.91
      L1  H    10    32       P1  8028  0.84
      L1  H    14    54       P1  7948  0.93

> <Gold.Chemscore.Hbond.Weighted>
-9.1212

> <Gold.Chemscore.Metal.Weighted>
-0.0000

> <Gold.Chemscore.Lipo.Weighted>
-12.9115

> <Gold.Chemscore.Internal_Hbond.Weighted>
0.0000

> <Gold.Chemscore.DEClash.Weighted>
2.2860

> <Gold.Chemscore.DEInternal.Weighted>
3.0605

> <Gold.Chemscore.Rot.Weighted>
3.1474

> <Gold.Chemscore.Internal.Correction.Weighted>
   9.000000E+99

> <Gold.Protein.RotatedTorsions>
[ 6907 6896 6895 6894 ] final  170.93 input  -60.11 | X-H torsion
[ 7974 7965 7964 7962 ] final   99.92 input  175.53 | X-H torsion
[ 8008 7997 7996 7995 ] final  130.34 input   59.86 | X-H torsion
[ 10167 10162 10161 10158 ] final   19.92 input  -65.29 | X-H torsion
[ 10718 10713 10712 10709 ] final   65.76 input   66.30 | X-H torsion
[ 10763 10752 10751 10750 ] final  -82.81 input  -60.55 | X-H torsion
[ 11005 11000 10999 10996 ] final  -57.74 input  -57.11 | X-H torsion

> <Gold.Protein.ActiveResidues>
 VAL166  LYS551  ARG553  GLY616  TRP617  ASP618  TYR619  PRO620  LYS621  CYS622 
 ASP623  PHE694  ASN695  SER759  ASP760  ASP761  ALA762  ILE779  LEU786  VAL792 
 PHE793  MET794  SER795  GLU796  ALA797  LYS798  CYS799  TRP800  GLU811  SER814 

> <Gold.Protein.RotatedAtoms>
  151.8083  133.3378  159.3547 H   0  0  0  0  0  0  0  0  0  0  0  0  # atno 6907 bound_to 6896
  150.7335  134.5688  159.5889 H   0  0  0  0  0  0  0  0  0  0  0  0  # atno 6908 bound_to 6896
  152.3093  134.7517  160.0391 H   0  0  0  0  0  0  0  0  0  0  0  0  # atno 6909 bound_to 6896
  145.3924  139.2361  143.3344 H   0  0  0  0  0  0  0  0  0  0  0  0  # atno 7974 bound_to 7965
  156.2952  140.2598  156.2746 H   0  0  0  0  0  0  0  0  0  0  0  0  # atno 8008 bound_to 7997
  154.9662  140.0392  157.2232 H   0  0  0  0  0  0  0  0  0  0  0  0  # atno 8009 bound_to 7997
  154.7901  140.2810  155.6003 H   0  0  0  0  0  0  0  0  0  0  0  0  # atno 8010 bound_to 7997
  140.5543  143.9453  150.6598 H   0  0  0  0  0  0  0  0  0  0  0  0  # atno 10167 bound_to 10162
  157.6126  130.9231  150.0019 H   0  0  0  0  0  0  0  0  0  0  0  0  # atno 10718 bound_to 10713
  154.5802  135.5578  153.7178 H   0  0  0  0  0  0  0  0  0  0  0  0  # atno 10763 bound_to 10752
  153.0079  135.6318  154.1992 H   0  0  0  0  0  0  0  0  0  0  0  0  # atno 10764 bound_to 10752
  154.1933  135.2881  155.2995 H   0  0  0  0  0  0  0  0  0  0  0  0  # atno 10765 bound_to 10752
  141.1178  133.6611  156.4815 H   0  0  0  0  0  0  0  0  0  0  0  0  # atno 11005 bound_to 11000
  146.2791  140.4609  142.8783 LP  0  0  0  0  0  0  0  0  0  0  0  0  # atno 17320 bound_to 7965
  144.8431  140.6887  143.6217 LP  0  0  0  0  0  0  0  0  0  0  0  0  # atno 17321 bound_to 7965
  140.2887  143.3339  152.1083 LP  0  0  0  0  0  0  0  0  0  0  0  0  # atno 17342 bound_to 10162
  139.5041  144.6768  151.6108 LP  0  0  0  0  0  0  0  0  0  0  0  0  # atno 17343 bound_to 10162
  156.1235  130.3645  149.9848 LP  0  0  0  0  0  0  0  0  0  0  0  0  # atno 17370 bound_to 10713
  156.7924  130.9261  151.3646 LP  0  0  0  0  0  0  0  0  0  0  0  0  # atno 17371 bound_to 10713
  140.4597  134.6853  157.5079 LP  0  0  0  0  0  0  0  0  0  0  0  0  # atno 17394 bound_to 11000
  140.0112  134.6688  155.9378 LP  0  0  0  0  0  0  0  0  0  0  0  0  # atno 17395 bound_to 11000

$$$$
