AV-unprocessed.smi:2417|AV-procd|sdf|9549|dock2
  -GOLD-   2272013183D 1   1.00000     0.00000
 Structure written by MMmdl.
 38 39  0  0  0  0  0  0  0  0  1 V2000
  149.1404  141.3210  154.1944 C   0  0  0  0  0  0  0  0  0  0  0  0
  149.8997  140.3562  155.0880 C   0  0  0  0  0  0  0  0  0  0  0  0
  151.2668  140.2352  154.8221 N   0  0  0  0  0  0  0  0  0  0  0  0
  151.9930  139.4342  155.5310 C   0  0  0  0  0  0  0  0  0  0  0  0
  151.4465  138.6756  156.5788 N   0  0  0  0  0  0  0  0  0  0  0  0
  152.3805  137.8015  157.3071 C   0  0  0  0  0  0  0  0  0  0  0  0
  152.3024  138.0135  158.8360 C   0  0  1  0  0  0  0  0  0  0  0  0
  152.7106  136.8444  159.5173 O   0  0  0  0  0  0  0  0  0  0  0  0
  153.1826  139.1733  159.3300 C   0  0  0  0  0  0  0  0  0  0  0  0
  153.0442  140.2910  158.4603 O   0  0  0  0  0  0  0  0  0  0  0  0
  152.8091  141.5286  159.0191 C   0  0  0  0  0  0  0  0  0  0  0  0
  152.2605  142.5170  158.1758 C   0  0  0  0  0  0  0  0  0  0  0  0
  151.9849  143.8089  158.6634 C   0  0  0  0  0  0  0  0  0  0  0  0
  152.2583  144.1267  160.0065 C   0  0  0  0  0  0  0  0  0  0  0  0
  151.9941  145.3680  160.4781 F   0  0  0  0  0  0  0  0  0  0  0  0
  152.8073  143.1510  160.8589 C   0  0  0  0  0  0  0  0  0  0  0  0
  153.0823  141.8585  160.3710 C   0  0  0  0  0  0  0  0  0  0  0  0
  150.1212  138.7264  156.8988 C   0  0  0  0  0  0  0  0  0  0  0  0
  149.6495  138.0421  157.8092 O   0  0  0  0  0  0  0  0  0  0  0  0
  149.3072  139.6431  156.0845 C   0  0  0  0  0  0  0  0  0  0  0  0
  147.8228  139.7299  156.4168 C   0  0  0  0  0  0  0  0  0  0  0  0
  148.6863  142.1156  154.7870 H   0  0  0  0  0  0  0  0  0  0  0  0
  148.3536  140.7978  153.6505 H   0  0  0  0  0  0  0  0  0  0  0  0
  149.7997  141.7866  153.4609 H   0  0  0  0  0  0  0  0  0  0  0  0
  153.0622  139.2973  155.3594 H   0  0  0  0  0  0  0  0  0  0  0  0
  152.2370  136.7477  157.0583 H   0  0  0  0  0  0  0  0  0  0  0  0
  153.3934  138.0199  156.9634 H   0  0  0  0  0  0  0  0  0  0  0  0
  151.2758  138.2241  159.1383 H   0  0  0  0  0  0  0  0  0  0  0  0
  153.3906  137.0782  160.1306 H   0  0  0  0  0  0  0  0  0  0  0  0
  152.8517  139.4578  160.3302 H   0  0  0  0  0  0  0  0  0  0  0  0
  154.2248  138.8575  159.4034 H   0  0  0  0  0  0  0  0  0  0  0  0
  152.0477  142.2820  157.1432 H   0  0  0  0  0  0  0  0  0  0  0  0
  151.5633  144.5552  158.0064 H   0  0  0  0  0  0  0  0  0  0  0  0
  153.0181  143.3936  161.8900 H   0  0  0  0  0  0  0  0  0  0  0  0
  153.5032  141.1379  161.0554 H   0  0  0  0  0  0  0  0  0  0  0  0
  147.3535  138.7532  156.2940 H   0  0  0  0  0  0  0  0  0  0  0  0
  147.2819  140.4347  155.7874 H   0  0  0  0  0  0  0  0  0  0  0  0
  147.6863  140.0433  157.4523 H   0  0  0  0  0  0  0  0  0  0  0  0
  1  2  1  0  0  0  0
  1 22  1  0  0  0  0
  1 23  1  0  0  0  0
  1 24  1  0  0  0  0
  2 20  2  0  0  0  0
  2  3  1  0  0  0  0
  3  4  2  0  0  0  0
  4  5  1  0  0  0  0
  4 25  1  0  0  0  0
  5  6  1  0  0  0  0
  5 18  1  0  0  0  0
  6  7  1  0  0  0  0
  6 26  1  0  0  0  0
  6 27  1  0  0  0  0
  7  8  1  0  0  0  0
  7  9  1  0  0  0  0
  7 28  1  0  0  0  0
  8 29  1  0  0  0  0
  9 10  1  0  0  0  0
  9 30  1  0  0  0  0
  9 31  1  0  0  0  0
 10 11  1  0  0  0  0
 11 17  1  0  0  0  0
 11 12  2  0  0  0  0
 12 13  1  0  0  0  0
 12 32  1  0  0  0  0
 13 14  2  0  0  0  0
 13 33  1  0  0  0  0
 14 15  1  0  0  0  0
 14 16  1  0  0  0  0
 16 17  2  0  0  0  0
 16 34  1  0  0  0  0
 17 35  1  0  0  0  0
 18 19  2  0  0  0  0
 18 20  1  0  0  0  0
 20 21  1  0  0  0  0
 21 36  1  0  0  0  0
 21 37  1  0  0  0  0
 21 38  1  0  0  0  0
M  END
> <s_m_source_file>
AV-unprocessed.smi

> <i_m_source_file_index>
2417

> <i_lp_mmshare_version>
43012

> <i_f3d_flags>
0

> <s_epik_input>
W0NIM11jMW5bY0hdbihjKD1PKWMxW0NIM10pW0NIMl1bQ0BIXShbT0hdKVtDSDJdT2MyW2NIXVtjSF1jKEYpW2NIXVtjSF0y

> <s_epik_cmdline>
J2VwaWtfcHl0aG9uJywgJy1waCcsICc3LjAnLCAnLXRuJywgJzgnLCAnLW1hJywgJzIwMCcsICctbWV0YWxfYmluZGluZycsICctaW1hZScsICc8aW5maWxlLm1hZT4nLCAnLW9tYWUnLCAnPG91dGZpbGUubWFlPic=

> <r_lp_tautomer_probability>
1

> <r_epik_Ionization_Penalty>
3.65384e-05

> <r_epik_Ionization_Penalty_Charging>
8.23007e-08

> <r_epik_Ionization_Penalty_Neutral>
3.64561e-05

> <r_epik_State_Penalty>
-0

> <r_epik_Charging_Adjusted_Penalty>
8.23007e-08

> <i_epik_Tot_Q>
0

> <i_epik_Tot_abs_Q>
0

> <r_epik_Metal_State_Penalty>
-0

> <b_epik_Metal_Only>
0

> <s_lp_Force_Field>
OPLS_2005

> <r_lp_Energy>
22.9041

> <b_lp_Chiralities_Consistent>
1

> <s_lp_Variant>
AV-unprocessed.smi:2417-2

> <Gold.Version>
5.8.1

> <Gold.Id.Protein>
6NUR|6NUR_protein|mol2

> <Gold.PLP.Fitness>
46.1379

> <Gold.PLP.PLP>
-39.3814

> <Gold.PLP.part.hbond>
-3.0000

> <Gold.PLP.part.metal>
0.0000

> <Gold.PLP.part.buried>
-3.7842

> <Gold.PLP.part.nonpolar>
-30.8993

> <Gold.PLP.part.repulsive>
0.0668

> <Gold.PLP.ligand.clash>
0.0000

> <Gold.PLP.ligand.torsion>
1.0795

> <Gold.PLP.Chemscore.Hbond>
2.9270

> <Gold.PLP.Chemscore.CHOScore>
0.0000

> <Gold.PLP.Chemscore.Metal>
0.0000

> <Gold.Chemscore.Hbonds>
donor molecule, donor type, donor heavy atom, donor atom, acceptor molecule, acceptor atom, score
      P1  H  6896  6908       L1     8  1.00
      P1  H  7989  7998       L1     3  0.94
      P1  H  7997  8009       L1    10  0.72

> <Gold.PLP.Chemscore.Internal.Correction>
0.1346

> <Gold.Rescore>
     Score         DG    S(hbond)    S(metal)    S(lipo)     H(rot)  DE(clash)    DE(int)     intcor
     16.08     -18.62       2.56        0.00      94.82       2.54       0.11       2.44       ----

> <Gold.Chemscore.Fitness>
16.0760

> <Gold.Chemscore.DG>
-18.6215

> <Gold.Chemscore.ZeroCoef>
-5.4800

> <Gold.Chemscore.Hbond>
2.5565

> <Gold.Chemscore.Metal>
0.0000

> <Gold.Chemscore.Lipo>
94.8180

> <Gold.Chemscore.Internal_Hbond>
0.0000

> <Gold.Chemscore.DEClash>
0.1079

> <Gold.Chemscore.DEInternal>
2.4376

> <Gold.Chemscore.Rot>
2.5355

> <Gold.Chemscore.Internal.Correction>
   9.000000E+99

> <Gold.Chemscore.Hbonds>
donor molecule, donor type, donor heavy atom, donor atom, acceptor molecule, acceptor atom, score
      P1  H  6896  6908       L1     8  0.63
      P1  H  7989  7998       L1     3  0.73
      P1  H  7997  8009       L1    10  0.34

> <Gold.Chemscore.Hbond.Weighted>
-8.5386

> <Gold.Chemscore.Metal.Weighted>
-0.0000

> <Gold.Chemscore.Lipo.Weighted>
-11.0937

> <Gold.Chemscore.Internal_Hbond.Weighted>
0.0000

> <Gold.Chemscore.DEClash.Weighted>
0.1079

> <Gold.Chemscore.DEInternal.Weighted>
2.4376

> <Gold.Chemscore.Rot.Weighted>
6.4908

> <Gold.Chemscore.Internal.Correction.Weighted>
   9.000000E+99

> <Gold.Protein.RotatedTorsions>
[ 6907 6896 6895 6894 ] final  -93.45 input  -60.11 | X-H torsion
[ 7974 7965 7964 7962 ] final   -8.36 input  175.53 | X-H torsion
[ 8008 7997 7996 7995 ] final  153.55 input   59.86 | X-H torsion
[ 10167 10162 10161 10158 ] final -124.79 input  -65.29 | X-H torsion
[ 10718 10713 10712 10709 ] final  -89.52 input   66.30 | X-H torsion
[ 10763 10752 10751 10750 ] final   48.26 input  -60.55 | X-H torsion
[ 11005 11000 10999 10996 ] final  104.35 input  -57.11 | X-H torsion

> <Gold.Protein.ActiveResidues>
 VAL166  LYS551  ARG553  GLY616  TRP617  ASP618  TYR619  PRO620  LYS621  CYS622 
 ASP623  PHE694  ASN695  SER759  ASP760  ASP761  ALA762  ILE779  LEU786  VAL792 
 PHE793  MET794  SER795  GLU796  ALA797  LYS798  CYS799  TRP800  GLU811  SER814 

> <Gold.Protein.RotatedAtoms>
  150.6923  134.1964  159.4304 H   0  0  0  0  0  0  0  0  0  0  0  0  # atno 6907 bound_to 6896
  151.9933  134.9965  160.0571 H   0  0  0  0  0  0  0  0  0  0  0  0  # atno 6908 bound_to 6896
  152.1647  133.4569  159.4915 H   0  0  0  0  0  0  0  0  0  0  0  0  # atno 6909 bound_to 6896
  146.2282  140.2457  142.8345 H   0  0  0  0  0  0  0  0  0  0  0  0  # atno 7974 bound_to 7965
  156.2576  140.1990  156.6507 H   0  0  0  0  0  0  0  0  0  0  0  0  # atno 8008 bound_to 7997
  154.6538  140.0568  157.0011 H   0  0  0  0  0  0  0  0  0  0  0  0  # atno 8009 bound_to 7997
  155.1377  140.3239  155.4462 H   0  0  0  0  0  0  0  0  0  0  0  0  # atno 8010 bound_to 7997
  139.9890  143.5661  152.2349 H   0  0  0  0  0  0  0  0  0  0  0  0  # atno 10167 bound_to 10162
  155.9984  130.4875  150.5183 H   0  0  0  0  0  0  0  0  0  0  0  0  # atno 10718 bound_to 10713
  152.9793  135.5950  154.3897 H   0  0  0  0  0  0  0  0  0  0  0  0  # atno 10763 bound_to 10752
  154.3553  135.2767  155.2351 H   0  0  0  0  0  0  0  0  0  0  0  0  # atno 10764 bound_to 10752
  154.4372  135.6022  153.6161 H   0  0  0  0  0  0  0  0  0  0  0  0  # atno 10765 bound_to 10752
  139.8791  134.9297  156.5348 H   0  0  0  0  0  0  0  0  0  0  0  0  # atno 11005 bound_to 11000
  144.9450  140.8119  143.5607 LP  0  0  0  0  0  0  0  0  0  0  0  0  # atno 17320 bound_to 7965
  145.2412  139.2071  143.4991 LP  0  0  0  0  0  0  0  0  0  0  0  0  # atno 17321 bound_to 7965
  139.6354  144.7649  151.2449 LP  0  0  0  0  0  0  0  0  0  0  0  0  # atno 17342 bound_to 10162
  140.7461  143.6408  150.8337 LP  0  0  0  0  0  0  0  0  0  0  0  0  # atno 17343 bound_to 10162
  157.3147  131.0670  151.1975 LP  0  0  0  0  0  0  0  0  0  0  0  0  # atno 17370 bound_to 10713
  157.2909  130.6795  149.6113 LP  0  0  0  0  0  0  0  0  0  0  0  0  # atno 17371 bound_to 10713
  140.8354  133.8246  155.9023 LP  0  0  0  0  0  0  0  0  0  0  0  0  # atno 17394 bound_to 11000
  140.9289  134.2047  157.4877 LP  0  0  0  0  0  0  0  0  0  0  0  0  # atno 17395 bound_to 11000

$$$$
