AV-unprocessed.smi:21|AV-procd|sdf|146|dock7
  -GOLD-   2262015363D 1   1.00000     0.00000
 Structure written by MMmdl.
 62 65  0  0  0  0  0  0  0  0  2 V2000
  145.1680  130.9905  151.6175 C   0  0  0  0  0  0  0  0  0  0  0  0
  145.4955  132.3170  151.9996 O   0  0  0  0  0  0  0  0  0  0  0  0
  144.7055  133.3094  151.3574 C   0  0  2  0  0  0  0  0  0  0  0  0
  145.0995  134.6767  151.8987 C   0  0  0  0  0  0  0  0  0  0  0  0
  144.3361  134.7898  153.2256 C   0  0  1  0  0  0  0  0  0  0  0  0
  144.1032  136.2471  153.6978 C   0  0  0  0  0  0  0  0  0  0  0  0
  144.9791  136.6258  154.8089 N   0  0  0  0  0  0  0  0  0  0  0  0
  145.0731  135.7241  155.9503 C   0  0  0  0  0  0  0  0  0  0  0  0
  145.9401  137.5715  154.6142 C   0  0  0  0  0  0  0  0  0  0  0  0
  146.5933  137.5816  153.4218 N   0  0  0  0  0  0  0  0  0  0  0  0
  147.5536  138.4758  153.1750 C   0  0  0  0  0  0  0  0  0  0  0  0
  148.0190  139.4379  153.9708 N   0  0  0  0  0  0  0  0  0  0  0  0
  147.3726  139.4412  155.1705 C   0  0  0  0  0  0  0  0  0  0  0  0
  146.3330  138.5534  155.5750 C   0  0  0  0  0  0  0  0  0  0  0  0
  145.9488  138.8575  156.8774 N   0  0  0  0  0  0  0  0  0  0  0  0
  146.7035  139.8659  157.2155 C   0  0  0  0  0  0  0  0  0  0  0  0
  147.5766  140.2926  156.2424 N   0  0  0  0  0  0  0  0  0  0  0  0
  148.5344  141.3787  156.3533 C   0  0  0  0  0  0  0  0  0  0  0  0
  149.7902  141.0539  157.2046 C   0  0  2  0  0  0  0  0  0  0  0  0
  150.6452  142.3332  157.3595 C   0  0  0  0  0  0  0  0  0  0  0  0
  150.7612  143.0353  156.1385 O   0  0  0  0  0  0  0  0  0  0  0  0
  150.6192  139.8396  156.6921 C   0  0  1  0  0  0  0  0  0  0  0  0
  151.0487  139.9336  155.2362 C   0  0  0  0  0  0  0  0  0  0  0  0
  152.1664  138.9040  155.1632 C   0  0  0  0  0  0  0  0  0  0  0  0
  152.8464  139.0298  156.4028 O   0  0  0  0  0  0  0  0  0  0  0  0
  151.9838  139.6255  157.3676 C   0  0  0  0  0  0  0  0  0  0  0  0
  143.1102  133.9561  153.0535 N   0  3  1  0  0  0  0  0  0  0  0  0
  141.7954  134.6231  153.2052 C   0  0  0  0  0  0  0  0  0  0  0  0
  143.2373  133.2055  151.7817 C   0  0  0  0  0  0  0  0  0  0  0  0
  144.8337  133.2666  150.2743 H   0  0  0  0  0  0  0  0  0  0  0  0
  144.9209  134.2735  153.9882 H   0  0  0  0  0  0  0  0  0  0  0  0
  145.8090  130.2898  152.1520 H   0  0  0  0  0  0  0  0  0  0  0  0
  145.3268  130.8397  150.5491 H   0  0  0  0  0  0  0  0  0  0  0  0
  144.1332  130.7431  151.8544 H   0  0  0  0  0  0  0  0  0  0  0  0
  146.1780  134.7903  152.0164 H   0  0  0  0  0  0  0  0  0  0  0  0
  144.7586  135.4475  151.2062 H   0  0  0  0  0  0  0  0  0  0  0  0
  144.1969  136.9420  152.8636 H   0  0  0  0  0  0  0  0  0  0  0  0
  143.0788  136.3550  154.0544 H   0  0  0  0  0  0  0  0  0  0  0  0
  145.3259  136.2702  156.8598 H   0  0  0  0  0  0  0  0  0  0  0  0
  145.8291  134.9580  155.7765 H   0  0  0  0  0  0  0  0  0  0  0  0
  144.1206  135.2222  156.1235 H   0  0  0  0  0  0  0  0  0  0  0  0
  148.0150  138.4104  152.2006 H   0  0  0  0  0  0  0  0  0  0  0  0
  146.6366  140.3332  158.1875 H   0  0  0  0  0  0  0  0  0  0  0  0
  148.8312  141.6787  155.3476 H   0  0  0  0  0  0  0  0  0  0  0  0
  148.0051  142.2305  156.7821 H   0  0  0  0  0  0  0  0  0  0  0  0
  149.4493  140.8075  158.2105 H   0  0  0  0  0  0  0  0  0  0  0  0
  150.2027  142.9984  158.1013 H   0  0  0  0  0  0  0  0  0  0  0  0
  151.6442  142.0976  157.7257 H   0  0  0  0  0  0  0  0  0  0  0  0
  150.1290  143.7375  156.1338 H   0  0  0  0  0  0  0  0  0  0  0  0
  150.0304  138.9281  156.8087 H   0  0  0  0  0  0  0  0  0  0  0  0
  150.2425  139.7189  154.5342 H   0  0  0  0  0  0  0  0  0  0  0  0
  151.4423  140.9270  155.0154 H   0  0  0  0  0  0  0  0  0  0  0  0
  151.7542  137.8971  155.0860 H   0  0  0  0  0  0  0  0  0  0  0  0
  152.8363  139.0658  154.3184 H   0  0  0  0  0  0  0  0  0  0  0  0
  152.4270  140.5740  157.6732 H   0  0  0  0  0  0  0  0  0  0  0  0
  151.9131  138.9865  158.2467 H   0  0  0  0  0  0  0  0  0  0  0  0
  141.6666  135.4222  152.4741 H   0  0  0  0  0  0  0  0  0  0  0  0
  141.6747  135.0374  154.2061 H   0  0  0  0  0  0  0  0  0  0  0  0
  140.9915  133.9011  153.0573 H   0  0  0  0  0  0  0  0  0  0  0  0
  142.6214  133.6819  151.0170 H   0  0  0  0  0  0  0  0  0  0  0  0
  142.8843  132.1801  151.8888 H   0  0  0  0  0  0  0  0  0  0  0  0
  143.1573  133.2660  153.7897 H   0  0  0  0  0  0  0  0  0  0  0  0
  1  2  1  0  0  0  0
  1 32  1  0  0  0  0
  1 33  1  0  0  0  0
  1 34  1  0  0  0  0
  2  3  1  0  0  0  0
  3 30  1  0  0  0  0
  3 29  1  0  0  0  0
  3  4  1  0  0  0  0
  4  5  1  0  0  0  0
  4 35  1  0  0  0  0
  4 36  1  0  0  0  0
  5 31  1  0  0  0  0
  5  6  1  0  0  0  0
  5 27  1  0  0  0  0
  6  7  1  0  0  0  0
  6 37  1  0  0  0  0
  6 38  1  0  0  0  0
  7  8  1  0  0  0  0
  7  9  1  0  0  0  0
  8 39  1  0  0  0  0
  8 40  1  0  0  0  0
  8 41  1  0  0  0  0
  9 14  1  0  0  0  0
  9 10  2  0  0  0  0
 10 11  1  0  0  0  0
 11 12  2  0  0  0  0
 11 42  1  0  0  0  0
 12 13  1  0  0  0  0
 13 17  1  0  0  0  0
 13 14  2  0  0  0  0
 14 15  1  0  0  0  0
 15 16  2  0  0  0  0
 16 17  1  0  0  0  0
 16 43  1  0  0  0  0
 17 18  1  0  0  0  0
 18 19  1  0  0  0  0
 18 44  1  0  0  0  0
 18 45  1  0  0  0  0
 19 20  1  0  0  0  0
 19 22  1  0  0  0  0
 19 46  1  0  0  0  0
 20 21  1  0  0  0  0
 20 47  1  0  0  0  0
 20 48  1  0  0  0  0
 21 49  1  0  0  0  0
 22 26  1  0  0  0  0
 22 23  1  0  0  0  0
 22 50  1  0  0  0  0
 23 24  1  0  0  0  0
 23 51  1  0  0  0  0
 23 52  1  0  0  0  0
 24 25  1  0  0  0  0
 24 53  1  0  0  0  0
 24 54  1  0  0  0  0
 25 26  1  0  0  0  0
 26 55  1  0  0  0  0
 26 56  1  0  0  0  0
 27 28  1  0  0  0  0
 27 29  1  0  0  0  0
 27 62  1  0  0  0  0
 28 57  1  0  0  0  0
 28 58  1  0  0  0  0
 28 59  1  0  0  0  0
 29 60  1  0  0  0  0
 29 61  1  0  0  0  0
M  CHG  1  27   1
M  END
> <s_m_source_file>
AV-unprocessed.smi

> <i_m_source_file_index>
21

> <i_lp_mmshare_version>
43012

> <i_f3d_flags>
0

> <s_epik_input>
W0NIM11PW0NASF0xW0NIMl1bQ0BIXShOKFtDSDNdKVtDSDJdMSlbQ0gyXU4oW0NIM10pYyhuW2NIXW4yKWMoYzIzKW5bY0hdbjNbQ0gyXVtDQEhdKFtDSDJdW09IXSlbQ0BASF00W0NIMl1bQ0gyXU9bQ0gyXTQ=

> <s_epik_cmdline>
J2VwaWtfcHl0aG9uJywgJy1waCcsICc3LjAnLCAnLXRuJywgJzgnLCAnLW1hJywgJzIwMCcsICctbWV0YWxfYmluZGluZycsICctaW1hZScsICc8aW5maWxlLm1hZT4nLCAnLW9tYWUnLCAnPG91dGZpbGUubWFlPic=

> <r_lp_tautomer_probability>
1

> <r_epik_Ionization_Penalty>
0.0157465

> <r_epik_Ionization_Penalty_Charging>
0.015354

> <r_epik_Ionization_Penalty_Neutral>
0.000392529

> <r_epik_State_Penalty>
0.0120612

> <r_epik_Charging_Adjusted_Penalty>
0.0274152

> <i_epik_Tot_Q>
1

> <i_epik_Tot_abs_Q>
1

> <r_epik_Metal_State_Penalty>
0.0121253

> <b_epik_Metal_Only>
0

> <s_lp_Force_Field>
OPLS_2005

> <r_lp_Energy>
61.785

> <b_lp_Chiralities_Consistent>
1

> <s_lp_Variant>
AV-unprocessed.smi:21-26

> <Gold.Version>
5.8.1

> <Gold.Id.Protein>
6NUR|6NUR_protein|mol2

> <Gold.PLP.Fitness>
46.2892

> <Gold.PLP.PLP>
-33.0293

> <Gold.PLP.part.hbond>
-2.9523

> <Gold.PLP.part.metal>
0.0000

> <Gold.PLP.part.buried>
-3.7089

> <Gold.PLP.part.nonpolar>
-26.5038

> <Gold.PLP.part.repulsive>
0.4573

> <Gold.PLP.ligand.clash>
0.0000

> <Gold.PLP.ligand.torsion>
2.0666

> <Gold.PLP.Chemscore.Hbond>
4.0000

> <Gold.PLP.Chemscore.CHOScore>
1.5624

> <Gold.PLP.Chemscore.Metal>
0.0000

> <Gold.Chemscore.Hbonds>
donor molecule, donor type, donor heavy atom, donor atom, acceptor molecule, acceptor atom, score
      L1  H    21    49       P1  8028  1.00
      L1  H    27    62       P1 10957  2.00
      P1  H  7997  8008       L1    25  1.00
      L1  C    11    42       P1  7948  0.64
      L1  C    11    42       P1  7957  0.97

> <Gold.PLP.Chemscore.Internal.Correction>
0.7058

> <Gold.Rescore>
     Score         DG    S(hbond)    S(metal)    S(lipo)     H(rot)  DE(clash)    DE(int)     intcor
     13.28     -15.23       2.65        0.00      74.92       3.08       0.00       1.95       ----

> <Gold.Chemscore.Fitness>
13.2791

> <Gold.Chemscore.DG>
-15.2291

> <Gold.Chemscore.ZeroCoef>
-5.4800

> <Gold.Chemscore.Hbond>
2.6521

> <Gold.Chemscore.Metal>
0.0000

> <Gold.Chemscore.Lipo>
74.9157

> <Gold.Chemscore.Internal_Hbond>
0.0000

> <Gold.Chemscore.DEClash>
0.0044

> <Gold.Chemscore.DEInternal>
1.9456

> <Gold.Chemscore.Rot>
3.0758

> <Gold.Chemscore.Internal.Correction>
   9.000000E+99

> <Gold.Chemscore.Hbonds>
donor molecule, donor type, donor heavy atom, donor atom, acceptor molecule, acceptor atom, score
      L1  H    21    49       P1  8028  0.99
      L1  H    27    62       P1 10957  0.99
      P1  H  7997  8008       L1    25  0.51

> <Gold.Chemscore.Hbond.Weighted>
-8.8581

> <Gold.Chemscore.Metal.Weighted>
-0.0000

> <Gold.Chemscore.Lipo.Weighted>
-8.7651

> <Gold.Chemscore.Internal_Hbond.Weighted>
0.0000

> <Gold.Chemscore.DEClash.Weighted>
0.0044

> <Gold.Chemscore.DEInternal.Weighted>
1.9456

> <Gold.Chemscore.Rot.Weighted>
7.8741

> <Gold.Chemscore.Internal.Correction.Weighted>
   9.000000E+99

> <Gold.Protein.RotatedTorsions>
[ 6907 6896 6895 6894 ] final -111.02 input  -60.11 | X-H torsion
[ 7974 7965 7964 7962 ] final -105.67 input  175.53 | X-H torsion
[ 8008 7997 7996 7995 ] final  -32.74 input   59.86 | X-H torsion
[ 10167 10162 10161 10158 ] final -170.04 input  -65.29 | X-H torsion
[ 10718 10713 10712 10709 ] final  -32.04 input   66.30 | X-H torsion
[ 10763 10752 10751 10750 ] final   71.87 input  -60.55 | X-H torsion
[ 11005 11000 10999 10996 ] final  157.39 input  -57.11 | X-H torsion

> <Gold.Protein.ActiveResidues>
 VAL166  LYS551  ARG553  GLY616  TRP617  ASP618  TYR619  PRO620  LYS621  CYS622 
 ASP623  PHE694  ASN695  SER759  ASP760  ASP761  ALA762  ILE779  LEU786  VAL792 
 PHE793  MET794  SER795  GLU796  ALA797  LYS798  CYS799  TRP800  GLU811  SER814 

> <Gold.Protein.RotatedAtoms>
  150.7663  133.9296  159.3422 H   0  0  0  0  0  0  0  0  0  0  0  0  # atno 6907 bound_to 6896
  151.7193  135.0895  160.0291 H   0  0  0  0  0  0  0  0  0  0  0  0  # atno 6908 bound_to 6896
  152.3660  133.6319  159.6086 H   0  0  0  0  0  0  0  0  0  0  0  0  # atno 6909 bound_to 6896
  145.2275  140.9158  143.3224 H   0  0  0  0  0  0  0  0  0  0  0  0  # atno 7974 bound_to 7965
  154.4170  140.1729  156.1776 H   0  0  0  0  0  0  0  0  0  0  0  0  # atno 8008 bound_to 7997
  155.9709  140.3386  155.6551 H   0  0  0  0  0  0  0  0  0  0  0  0  # atno 8009 bound_to 7997
  155.6626  140.0702  157.2539 H   0  0  0  0  0  0  0  0  0  0  0  0  # atno 8010 bound_to 7997
  139.5886  144.1263  152.1606 H   0  0  0  0  0  0  0  0  0  0  0  0  # atno 10167 bound_to 10162
  156.3799  130.4354  149.7477 H   0  0  0  0  0  0  0  0  0  0  0  0  # atno 10718 bound_to 10713
  153.0424  135.5121  154.7658 H   0  0  0  0  0  0  0  0  0  0  0  0  # atno 10763 bound_to 10752
  154.6585  135.2935  154.9899 H   0  0  0  0  0  0  0  0  0  0  0  0  # atno 10764 bound_to 10752
  154.0759  135.6671  153.4883 H   0  0  0  0  0  0  0  0  0  0  0  0  # atno 10765 bound_to 10752
  140.1764  134.8506  157.2752 H   0  0  0  0  0  0  0  0  0  0  0  0  # atno 11005 bound_to 11000
  144.9707  139.3883  143.6310 LP  0  0  0  0  0  0  0  0  0  0  0  0  # atno 17320 bound_to 7965
  146.3361  139.8804  142.8825 LP  0  0  0  0  0  0  0  0  0  0  0  0  # atno 17321 bound_to 7965
  140.0832  144.5683  150.7107 LP  0  0  0  0  0  0  0  0  0  0  0  0  # atno 17342 bound_to 10162
  140.7153  143.2539  151.4453 LP  0  0  0  0  0  0  0  0  0  0  0  0  # atno 17343 bound_to 10162
  156.4572  130.7935  151.2955 LP  0  0  0  0  0  0  0  0  0  0  0  0  # atno 17370 bound_to 10713
  157.7491  131.0077  150.3200 LP  0  0  0  0  0  0  0  0  0  0  0  0  # atno 17371 bound_to 10713
  140.2317  134.3901  155.7519 LP  0  0  0  0  0  0  0  0  0  0  0  0  # atno 17394 bound_to 11000
  141.2220  133.7218  156.8651 LP  0  0  0  0  0  0  0  0  0  0  0  0  # atno 17395 bound_to 11000

$$$$
