AV-unprocessed.smi:1236|AV-procd|sdf|5182|dock1
  -GOLD-   22720 4263D 1   1.00000     0.00000
 Structure written by MMmdl.
 40 41  0  0  0  0  0  0  0  0  2 V2000
  146.7632  142.2028  153.8644 C   0  0  0  0  0  0  0  0  0  0  0  0
  147.6075  141.2893  154.7632 C   0  0  1  0  0  0  0  0  0  0  0  0
  148.4317  140.2847  153.9241 C   0  0  0  0  0  0  0  0  0  0  0  0
  147.6699  139.0615  153.5653 N   0  3  0  0  0  0  0  0  0  0  0  0
  146.7863  138.5735  154.6514 C   0  0  0  0  0  0  0  0  0  0  0  0
  146.1099  137.2586  154.2306 C   0  0  0  0  0  0  0  0  0  0  0  0
  145.3761  137.4673  153.0299 O   0  0  0  0  0  0  0  0  0  0  0  0
  146.2161  137.8676  151.9537 C   0  0  0  0  0  0  0  0  0  0  0  0
  146.9096  139.1964  152.3011 C   0  0  0  0  0  0  0  0  0  0  0  0
  148.4700  142.1186  155.6068 N   0  0  0  0  0  0  0  0  0  0  0  0
  149.4392  141.6731  156.4212 C   0  0  0  0  0  0  0  0  0  0  0  0
  149.7346  140.4831  156.5332 O   0  0  0  0  0  0  0  0  0  0  0  0
  150.0362  142.6872  157.0713 N   0  0  0  0  0  0  0  0  0  0  0  0
  151.1355  142.6251  157.9687 C   0  0  0  0  0  0  0  0  0  0  0  0
  151.3260  141.3740  158.5977 C   0  0  0  0  0  0  0  0  0  0  0  0
  152.3884  141.2109  159.5081 C   0  0  0  0  0  0  0  0  0  0  0  0
  153.2330  142.3049  159.7672 C   0  0  0  0  0  0  0  0  0  0  0  0
  152.9730  143.5162  159.1001 C   0  0  0  0  0  0  0  0  0  0  0  0
  151.9548  143.6749  158.2279 N   0  0  0  0  0  0  0  0  0  0  0  0
  146.0784  141.6208  153.2467 H   0  0  0  0  0  0  0  0  0  0  0  0
  147.3896  142.7955  153.1968 H   0  0  0  0  0  0  0  0  0  0  0  0
  146.1626  142.8930  154.4580 H   0  0  0  0  0  0  0  0  0  0  0  0
  146.9095  140.7410  155.3972 H   0  0  0  0  0  0  0  0  0  0  0  0
  148.8101  140.7574  153.0164 H   0  0  0  0  0  0  0  0  0  0  0  0
  149.3105  140.0006  154.5050 H   0  0  0  0  0  0  0  0  0  0  0  0
  147.3583  138.4104  155.5643 H   0  0  0  0  0  0  0  0  0  0  0  0
  146.0302  139.3268  154.8787 H   0  0  0  0  0  0  0  0  0  0  0  0
  146.8489  136.4678  154.0898 H   0  0  0  0  0  0  0  0  0  0  0  0
  145.4259  136.9208  155.0094 H   0  0  0  0  0  0  0  0  0  0  0  0
  146.9509  137.0889  151.7420 H   0  0  0  0  0  0  0  0  0  0  0  0
  145.6081  137.9845  151.0564 H   0  0  0  0  0  0  0  0  0  0  0  0
  146.1709  139.9931  152.4003 H   0  0  0  0  0  0  0  0  0  0  0  0
  147.5827  139.4788  151.4905 H   0  0  0  0  0  0  0  0  0  0  0  0
  148.2992  143.1134  155.5809 H   0  0  0  0  0  0  0  0  0  0  0  0
  149.6729  143.6122  156.8949 H   0  0  0  0  0  0  0  0  0  0  0  0
  150.6682  140.5432  158.3876 H   0  0  0  0  0  0  0  0  0  0  0  0
  152.5514  140.2623  159.9982 H   0  0  0  0  0  0  0  0  0  0  0  0
  154.0581  142.2183  160.4590 H   0  0  0  0  0  0  0  0  0  0  0  0
  153.5970  144.3809  159.2712 H   0  0  0  0  0  0  0  0  0  0  0  0
  148.3571  138.3386  153.4040 H   0  0  0  0  0  0  0  0  0  0  0  0
  1  2  1  0  0  0  0
  1 20  1  0  0  0  0
  1 21  1  0  0  0  0
  1 22  1  0  0  0  0
  2  3  1  0  0  0  0
  2 10  1  0  0  0  0
  2 23  1  0  0  0  0
  3  4  1  0  0  0  0
  3 24  1  0  0  0  0
  3 25  1  0  0  0  0
  4  9  1  0  0  0  0
  4  5  1  0  0  0  0
  4 40  1  0  0  0  0
  5  6  1  0  0  0  0
  5 26  1  0  0  0  0
  5 27  1  0  0  0  0
  6  7  1  0  0  0  0
  6 28  1  0  0  0  0
  6 29  1  0  0  0  0
  7  8  1  0  0  0  0
  8  9  1  0  0  0  0
  8 30  1  0  0  0  0
  8 31  1  0  0  0  0
  9 32  1  0  0  0  0
  9 33  1  0  0  0  0
 10 11  1  0  0  0  0
 10 34  1  0  0  0  0
 11 12  2  0  0  0  0
 11 13  1  0  0  0  0
 13 14  1  0  0  0  0
 13 35  1  0  0  0  0
 14 19  1  0  0  0  0
 14 15  2  0  0  0  0
 15 16  1  0  0  0  0
 15 36  1  0  0  0  0
 16 17  2  0  0  0  0
 16 37  1  0  0  0  0
 17 18  1  0  0  0  0
 17 38  1  0  0  0  0
 18 19  2  0  0  0  0
 18 39  1  0  0  0  0
M  CHG  1   4   1
M  END
> <s_m_source_file>
AV-unprocessed.smi

> <i_m_source_file_index>
1236

> <i_lp_mmshare_version>
43012

> <i_f3d_flags>
0

> <s_epik_input>
W0NIMl0xW0NIMl1PW0NIMl1bQ0gyXU4xW0NIMl1bQ0BASF0oW0NIM10pW05IXUMoPU8pW05IXWMyW2NIXVtjSF1bY0hdW2NIXW4y

> <s_epik_cmdline>
J2VwaWtfcHl0aG9uJywgJy1waCcsICc3LjAnLCAnLXRuJywgJzgnLCAnLW1hJywgJzIwMCcsICctbWV0YWxfYmluZGluZycsICctaW1hZScsICc8aW5maWxlLm1hZT4nLCAnLW9tYWUnLCAnPG91dGZpbGUubWFlPic=

> <r_epik_Ionization_Penalty>
0.602564

> <r_epik_Ionization_Penalty_Charging>
0.602531

> <r_epik_Ionization_Penalty_Neutral>
3.36306e-05

> <r_epik_State_Penalty>
0.617039

> <r_epik_Charging_Adjusted_Penalty>
1.21957

> <i_epik_Tot_Q>
1

> <i_epik_Tot_abs_Q>
1

> <r_epik_Metal_State_Penalty>
0.617041

> <b_epik_Metal_Only>
0

> <s_lp_Force_Field>
OPLS_2005

> <r_lp_Energy>
24.274

> <b_lp_Chiralities_Consistent>
1

> <s_lp_Variant>
AV-unprocessed.smi:1236-4

> <Gold.Version>
5.8.1

> <Gold.Id.Protein>
6NUR|6NUR_protein|mol2

> <Gold.PLP.Fitness>
37.0048

> <Gold.PLP.PLP>
-32.5404

> <Gold.PLP.part.hbond>
-2.1542

> <Gold.PLP.part.metal>
0.0000

> <Gold.PLP.part.buried>
-2.1046

> <Gold.PLP.part.nonpolar>
-28.5007

> <Gold.PLP.part.repulsive>
0.4146

> <Gold.PLP.ligand.clash>
0.0000

> <Gold.PLP.ligand.torsion>
0.7624

> <Gold.PLP.Chemscore.Hbond>
1.9600

> <Gold.PLP.Chemscore.CHOScore>
0.0000

> <Gold.PLP.Chemscore.Metal>
0.0000

> <Gold.Chemscore.Hbonds>
donor molecule, donor type, donor heavy atom, donor atom, acceptor molecule, acceptor atom, score
      L1  H    10    34       P1  8028  1.00
      L1  H    13    35       P1  8028  0.93

> <Gold.PLP.Chemscore.Internal.Correction>
0.1092

> <Gold.Rescore>
     Score         DG    S(hbond)    S(metal)    S(lipo)     H(rot)  DE(clash)    DE(int)     intcor
     14.70     -16.82       1.93        0.00      75.87       1.56       0.06       2.06       ----

> <Gold.Chemscore.Fitness>
14.7018

> <Gold.Chemscore.DG>
-16.8229

> <Gold.Chemscore.ZeroCoef>
-5.4800

> <Gold.Chemscore.Hbond>
1.9329

> <Gold.Chemscore.Metal>
0.0000

> <Gold.Chemscore.Lipo>
75.8695

> <Gold.Chemscore.Internal_Hbond>
0.0000

> <Gold.Chemscore.DEClash>
0.0646

> <Gold.Chemscore.DEInternal>
2.0566

> <Gold.Chemscore.Rot>
1.5584

> <Gold.Chemscore.Internal.Correction>
   9.000000E+99

> <Gold.Chemscore.Hbonds>
donor molecule, donor type, donor heavy atom, donor atom, acceptor molecule, acceptor atom, score
      L1  H    10    34       P1  8028  0.91
      L1  H    13    35       P1  8028  0.89

> <Gold.Chemscore.Hbond.Weighted>
-6.4558

> <Gold.Chemscore.Metal.Weighted>
-0.0000

> <Gold.Chemscore.Lipo.Weighted>
-8.8767

> <Gold.Chemscore.Internal_Hbond.Weighted>
0.0000

> <Gold.Chemscore.DEClash.Weighted>
0.0646

> <Gold.Chemscore.DEInternal.Weighted>
2.0566

> <Gold.Chemscore.Rot.Weighted>
3.9896

> <Gold.Chemscore.Internal.Correction.Weighted>
   9.000000E+99

> <Gold.Protein.RotatedTorsions>
[ 6907 6896 6895 6894 ] final    4.76 input  -60.11 | X-H torsion
[ 7974 7965 7964 7962 ] final  -78.06 input  175.53 | X-H torsion
[ 8008 7997 7996 7995 ] final  112.56 input   59.86 | X-H torsion
[ 10167 10162 10161 10158 ] final  103.38 input  -65.29 | X-H torsion
[ 10718 10713 10712 10709 ] final   84.77 input   66.30 | X-H torsion
[ 10763 10752 10751 10750 ] final -149.66 input  -60.55 | X-H torsion
[ 11005 11000 10999 10996 ] final -115.18 input  -57.11 | X-H torsion

> <Gold.Protein.ActiveResidues>
 VAL166  LYS551  ARG553  GLY616  TRP617  ASP618  TYR619  PRO620  LYS621  CYS622 
 ASP623  PHE694  ASN695  SER759  ASP760  ASP761  ALA762  ILE779  LEU786  VAL792 
 PHE793  MET794  SER795  GLU796  ALA797  LYS798  CYS799  TRP800  GLU811  SER814 

> <Gold.Protein.RotatedAtoms>
  151.6466  135.1006  160.0151 H   0  0  0  0  0  0  0  0  0  0  0  0  # atno 6907 bound_to 6896
  152.4024  133.6834  159.6336 H   0  0  0  0  0  0  0  0  0  0  0  0  # atno 6908 bound_to 6896
  150.7923  133.8684  159.3293 H   0  0  0  0  0  0  0  0  0  0  0  0  # atno 6909 bound_to 6896
  145.5914  140.9428  143.1290 H   0  0  0  0  0  0  0  0  0  0  0  0  # atno 7974 bound_to 7965
  156.2200  140.2997  155.9930 H   0  0  0  0  0  0  0  0  0  0  0  0  # atno 8008 bound_to 7997
  155.2506  140.0426  157.3003 H   0  0  0  0  0  0  0  0  0  0  0  0  # atno 8009 bound_to 7997
  154.5826  140.2379  155.8040 H   0  0  0  0  0  0  0  0  0  0  0  0  # atno 8010 bound_to 7997
  139.7268  144.7045  151.0785 H   0  0  0  0  0  0  0  0  0  0  0  0  # atno 10167 bound_to 10162
  157.6904  131.0147  150.2723 H   0  0  0  0  0  0  0  0  0  0  0  0  # atno 10718 bound_to 10713
  154.8164  135.3303  154.7164 H   0  0  0  0  0  0  0  0  0  0  0  0  # atno 10763 bound_to 10752
  153.7804  135.6919  153.4894 H   0  0  0  0  0  0  0  0  0  0  0  0  # atno 10764 bound_to 10752
  153.1984  135.4525  155.0184 H   0  0  0  0  0  0  0  0  0  0  0  0  # atno 10765 bound_to 10752
  141.0504  133.9696  157.2846 H   0  0  0  0  0  0  0  0  0  0  0  0  # atno 11005 bound_to 11000
  144.7349  139.7614  143.7333 LP  0  0  0  0  0  0  0  0  0  0  0  0  # atno 17320 bound_to 7965
  146.1644  139.4769  142.9968 LP  0  0  0  0  0  0  0  0  0  0  0  0  # atno 17321 bound_to 7965
  140.7764  143.5095  150.9671 LP  0  0  0  0  0  0  0  0  0  0  0  0  # atno 17342 bound_to 10162
  139.8782  143.7105  152.3160 LP  0  0  0  0  0  0  0  0  0  0  0  0  # atno 17343 bound_to 10162
  156.3284  130.3796  149.7513 LP  0  0  0  0  0  0  0  0  0  0  0  0  # atno 17370 bound_to 10713
  156.5061  130.8151  151.3151 LP  0  0  0  0  0  0  0  0  0  0  0  0  # atno 17371 bound_to 10713
  139.9346  135.0197  156.8512 LP  0  0  0  0  0  0  0  0  0  0  0  0  # atno 17394 bound_to 11000
  140.6066  134.0122  155.7559 LP  0  0  0  0  0  0  0  0  0  0  0  0  # atno 17395 bound_to 11000

$$$$
