AV-unprocessed.smi:2248|AV-procd|sdf|9097|dock9
  -GOLD-   2272012293D 1   1.00000     0.00000
 Structure written by MMmdl.
 35 36  0  0  0  0  0  0  0  0  1 V2000
  153.8826  141.5998  160.4933 C   0  0  0  0  0  0  0  0  0  0  0  0
  152.8224  142.6034  160.0918 C   0  0  0  0  0  0  0  0  0  0  0  0
  152.6404  143.7951  160.8205 C   0  0  0  0  0  0  0  0  0  0  0  0
  151.6412  144.6873  160.3926 C   0  0  0  0  0  0  0  0  0  0  0  0
  150.8716  144.3544  159.2613 C   0  0  0  0  0  0  0  0  0  0  0  0
  151.1181  143.1375  158.5865 C   0  0  0  0  0  0  0  0  0  0  0  0
  150.2906  142.8966  157.4577 N   0  0  0  0  0  0  0  0  0  0  0  0
  150.4410  141.9644  156.5004 C   0  0  0  0  0  0  0  0  0  0  0  0
  151.3387  141.1223  156.4585 O   0  0  0  0  0  0  0  0  0  0  0  0
  149.4768  142.0615  155.5742 N   0  0  0  0  0  0  0  0  0  0  0  0
  149.3662  141.2137  154.3927 C   0  0  1  0  0  0  0  0  0  0  0  0
  149.6435  139.7784  154.7511 C   0  0  0  0  0  0  0  0  0  0  0  0
  148.6277  138.9684  154.4607 C   0  0  0  0  0  0  0  0  0  0  0  0
  147.4569  139.7006  153.8575 C   0  0  1  0  0  0  0  0  0  0  0  0
  146.1401  139.4727  154.6240 C   0  0  0  0  0  0  0  0  0  0  0  0
  145.4698  138.3088  154.1812 O   0  0  0  0  0  0  0  0  0  0  0  0
  147.9254  141.1779  153.8158 C   0  0  0  0  0  0  0  0  0  0  0  0
  152.0845  142.2837  159.0070 N   0  0  0  0  0  0  0  0  0  0  0  0
  150.0839  141.5274  153.6328 H   0  0  0  0  0  0  0  0  0  0  0  0
  147.3349  139.3354  152.8372 H   0  0  0  0  0  0  0  0  0  0  0  0
  154.2599  141.8050  161.4956 H   0  0  0  0  0  0  0  0  0  0  0  0
  154.7208  141.6395  159.7973 H   0  0  0  0  0  0  0  0  0  0  0  0
  153.4762  140.5879  160.4852 H   0  0  0  0  0  0  0  0  0  0  0  0
  153.2488  144.0217  161.6839 H   0  0  0  0  0  0  0  0  0  0  0  0
  151.4680  145.6125  160.9221 H   0  0  0  0  0  0  0  0  0  0  0  0
  150.1007  145.0295  158.9190 H   0  0  0  0  0  0  0  0  0  0  0  0
  149.4963  143.5118  157.3629 H   0  0  0  0  0  0  0  0  0  0  0  0
  148.7796  142.7833  155.6825 H   0  0  0  0  0  0  0  0  0  0  0  0
  150.5810  139.4657  155.1871 H   0  0  0  0  0  0  0  0  0  0  0  0
  148.6154  137.9015  154.6278 H   0  0  0  0  0  0  0  0  0  0  0  0
  146.3366  139.3815  155.6927 H   0  0  0  0  0  0  0  0  0  0  0  0
  145.4758  140.3274  154.4946 H   0  0  0  0  0  0  0  0  0  0  0  0
  144.7617  138.5685  153.6120 H   0  0  0  0  0  0  0  0  0  0  0  0
  147.2500  141.8244  154.3782 H   0  0  0  0  0  0  0  0  0  0  0  0
  147.9209  141.5486  152.7903 H   0  0  0  0  0  0  0  0  0  0  0  0
  1  2  1  0  0  0  0
  1 21  1  0  0  0  0
  1 22  1  0  0  0  0
  1 23  1  0  0  0  0
  2 18  1  0  0  0  0
  2  3  2  0  0  0  0
  3  4  1  0  0  0  0
  3 24  1  0  0  0  0
  4  5  2  0  0  0  0
  4 25  1  0  0  0  0
  5  6  1  0  0  0  0
  5 26  1  0  0  0  0
  6  7  1  0  0  0  0
  6 18  2  0  0  0  0
  7  8  1  0  0  0  0
  7 27  1  0  0  0  0
  8  9  2  0  0  0  0
  8 10  1  0  0  0  0
 10 11  1  0  0  0  0
 10 28  1  0  0  0  0
 11 19  1  0  0  0  0
 11 17  1  0  0  0  0
 11 12  1  0  0  0  0
 12 13  2  0  0  0  0
 12 29  1  0  0  0  0
 13 14  1  0  0  0  0
 13 30  1  0  0  0  0
 14 20  1  0  0  0  0
 14 15  1  0  0  0  0
 14 17  1  0  0  0  0
 15 16  1  0  0  0  0
 15 31  1  0  0  0  0
 15 32  1  0  0  0  0
 16 33  1  0  0  0  0
 17 34  1  0  0  0  0
 17 35  1  0  0  0  0
M  END
> <s_m_source_file>
AV-unprocessed.smi

> <i_m_source_file_index>
2248

> <i_lp_mmshare_version>
43012

> <i_f3d_flags>
0

> <s_epik_input>
W0NIM11jMVtjSF1bY0hdW2NIXWMobjEpW05IXUMoPU8pW05IXVtDQEBIXTJbQ0hdPVtDSF1bQ0BASF0oW0NIMl0yKVtDSDJdW09IXQ==

> <s_epik_cmdline>
J2VwaWtfcHl0aG9uJywgJy1waCcsICc3LjAnLCAnLXRuJywgJzgnLCAnLW1hJywgJzIwMCcsICctbWV0YWxfYmluZGluZycsICctaW1hZScsICc8aW5maWxlLm1hZT4nLCAnLW9tYWUnLCAnPG91dGZpbGUubWFlPic=

> <r_lp_tautomer_probability>
1

> <r_epik_Ionization_Penalty>
8.36606e-05

> <r_epik_Ionization_Penalty_Charging>
0

> <r_epik_Ionization_Penalty_Neutral>
8.36606e-05

> <r_epik_State_Penalty>
-0

> <r_epik_Charging_Adjusted_Penalty>
0

> <i_epik_Tot_Q>
0

> <i_epik_Tot_abs_Q>
0

> <r_epik_Metal_State_Penalty>
-0

> <b_epik_Metal_Only>
0

> <s_lp_Force_Field>
OPLS_2005

> <r_lp_Energy>
18.8307

> <b_lp_Chiralities_Consistent>
1

> <s_lp_Variant>
AV-unprocessed.smi:2248-4

> <Gold.Version>
5.8.1

> <Gold.Id.Protein>
6NUR|6NUR_protein|mol2

> <Gold.PLP.Fitness>
43.9047

> <Gold.PLP.PLP>
-36.5281

> <Gold.PLP.part.hbond>
-3.0000

> <Gold.PLP.part.metal>
0.0000

> <Gold.PLP.part.buried>
-2.8544

> <Gold.PLP.part.nonpolar>
-30.7675

> <Gold.PLP.part.repulsive>
0.2005

> <Gold.PLP.ligand.clash>
0.0000

> <Gold.PLP.ligand.torsion>
0.6014

> <Gold.PLP.Chemscore.Hbond>
2.8560

> <Gold.PLP.Chemscore.CHOScore>
0.0000

> <Gold.PLP.Chemscore.Metal>
0.0000

> <Gold.Chemscore.Hbonds>
donor molecule, donor type, donor heavy atom, donor atom, acceptor molecule, acceptor atom, score
      L1  H     7    27       P1  8028  0.41
      L1  H    10    28       P1  8028  0.66

> <Gold.PLP.Chemscore.Internal.Correction>
0.0114

> <Gold.Rescore>
     Score         DG    S(hbond)    S(metal)    S(lipo)     H(rot)  DE(clash)    DE(int)     intcor
     17.53     -21.15       2.86        0.00      92.02       1.82       0.32       3.30       ----

> <Gold.Chemscore.Fitness>
17.5329

> <Gold.Chemscore.DG>
-21.1508

> <Gold.Chemscore.ZeroCoef>
-5.4800

> <Gold.Chemscore.Hbond>
2.8622

> <Gold.Chemscore.Metal>
0.0000

> <Gold.Chemscore.Lipo>
92.0172

> <Gold.Chemscore.Internal_Hbond>
0.0000

> <Gold.Chemscore.DEClash>
0.3162

> <Gold.Chemscore.DEInternal>
3.3017

> <Gold.Chemscore.Rot>
1.8184

> <Gold.Chemscore.Internal.Correction>
   9.000000E+99

> <Gold.Chemscore.Hbonds>
donor molecule, donor type, donor heavy atom, donor atom, acceptor molecule, acceptor atom, score
      L1  H     7    27       P1  8028  0.30
      L1  H    10    28       P1  8028  0.66
      L1  H    16    33       P1 10175  0.03

> <Gold.Chemscore.Hbond.Weighted>
-9.5598

> <Gold.Chemscore.Metal.Weighted>
-0.0000

> <Gold.Chemscore.Lipo.Weighted>
-10.7660

> <Gold.Chemscore.Internal_Hbond.Weighted>
0.0000

> <Gold.Chemscore.DEClash.Weighted>
0.3162

> <Gold.Chemscore.DEInternal.Weighted>
3.3017

> <Gold.Chemscore.Rot.Weighted>
4.6551

> <Gold.Chemscore.Internal.Correction.Weighted>
   9.000000E+99

> <Gold.Protein.RotatedTorsions>
[ 6907 6896 6895 6894 ] final   68.01 input  -60.11 | X-H torsion
[ 7974 7965 7964 7962 ] final  154.85 input  175.53 | X-H torsion
[ 8008 7997 7996 7995 ] final  -67.56 input   59.86 | X-H torsion
[ 10167 10162 10161 10158 ] final   67.59 input  -65.29 | X-H torsion
[ 10718 10713 10712 10709 ] final -135.18 input   66.30 | X-H torsion
[ 10763 10752 10751 10750 ] final  141.62 input  -60.55 | X-H torsion
[ 11005 11000 10999 10996 ] final  106.22 input  -57.11 | X-H torsion

> <Gold.Protein.ActiveResidues>
 VAL166  LYS551  ARG553  GLY616  TRP617  ASP618  TYR619  PRO620  LYS621  CYS622 
 ASP623  PHE694  ASN695  SER759  ASP760  ASP761  ALA762  ILE779  LEU786  VAL792 
 PHE793  MET794  SER795  GLU796  ALA797  LYS798  CYS799  TRP800  GLU811  SER814 

> <Gold.Protein.RotatedAtoms>
  152.4591  134.5225  159.9786 H   0  0  0  0  0  0  0  0  0  0  0  0  # atno 6907 bound_to 6896
  151.5278  133.3449  159.2920 H   0  0  0  0  0  0  0  0  0  0  0  0  # atno 6908 bound_to 6896
  150.8547  134.7912  159.7098 H   0  0  0  0  0  0  0  0  0  0  0  0  # atno 6909 bound_to 6896
  144.8062  139.6990  143.6161 H   0  0  0  0  0  0  0  0  0  0  0  0  # atno 7974 bound_to 7965
  154.4808  140.0890  156.7373 H   0  0  0  0  0  0  0  0  0  0  0  0  # atno 8008 bound_to 7997
  155.4475  140.3456  155.4278 H   0  0  0  0  0  0  0  0  0  0  0  0  # atno 8009 bound_to 7997
  156.1188  140.1468  156.9222 H   0  0  0  0  0  0  0  0  0  0  0  0  # atno 8010 bound_to 7997
  140.0879  144.5014  150.7118 H   0  0  0  0  0  0  0  0  0  0  0  0  # atno 10167 bound_to 10162
  156.2634  130.7223  151.1165 H   0  0  0  0  0  0  0  0  0  0  0  0  # atno 10718 bound_to 10713
  153.9422  135.2979  155.3442 H   0  0  0  0  0  0  0  0  0  0  0  0  # atno 10763 bound_to 10752
  154.7471  135.4998  153.9226 H   0  0  0  0  0  0  0  0  0  0  0  0  # atno 10764 bound_to 10752
  153.1036  135.6741  153.9733 H   0  0  0  0  0  0  0  0  0  0  0  0  # atno 10765 bound_to 10752
  139.8811  134.9362  156.5634 H   0  0  0  0  0  0  0  0  0  0  0  0  # atno 11005 bound_to 11000
  146.2353  139.5894  142.9528 LP  0  0  0  0  0  0  0  0  0  0  0  0  # atno 17320 bound_to 7965
  145.5433  141.0419  143.2318 LP  0  0  0  0  0  0  0  0  0  0  0  0  # atno 17321 bound_to 7965
  140.7044  143.2457  151.4770 LP  0  0  0  0  0  0  0  0  0  0  0  0  # atno 17342 bound_to 10162
  139.5741  144.1859  152.1879 LP  0  0  0  0  0  0  0  0  0  0  0  0  # atno 17343 bound_to 10162
  157.7258  131.0650  150.5935 LP  0  0  0  0  0  0  0  0  0  0  0  0  # atno 17370 bound_to 10713
  156.6024  130.4358  149.5891 LP  0  0  0  0  0  0  0  0  0  0  0  0  # atno 17371 bound_to 10713
  140.8152  133.8397  155.8846 LP  0  0  0  0  0  0  0  0  0  0  0  0  # atno 17394 bound_to 11000
  140.9469  134.1829  157.4757 LP  0  0  0  0  0  0  0  0  0  0  0  0  # atno 17395 bound_to 11000

$$$$
