AV-unprocessed.smi:3303|AV-procd|sdf|12691|dock8
  -GOLD-   2272019 23D 1   1.00000     0.00000
 Structure written by MMmdl.
 44 45  0  0  0  0  0  0  0  0  2 V2000
  151.0428  139.4486  153.1546 C   0  0  0  0  0  0  0  0  0  0  0  0
  149.9486  139.2551  154.2255 C   0  0  2  0  0  0  0  0  0  0  0  0
  148.6183  138.8068  153.5861 C   0  0  0  0  0  0  0  0  0  0  0  0
  147.9676  139.9158  152.8408 N   0  3  1  0  0  0  0  0  0  0  0  0
  146.8105  139.4648  152.0353 C   0  0  0  0  0  0  0  0  0  0  0  0
  147.6975  141.1203  153.6777 C   0  0  1  0  0  0  0  0  0  0  0  0
  146.5636  140.9184  154.7062 C   0  0  0  0  0  0  0  0  0  0  0  0
  149.0026  141.6133  154.3348 C   0  0  0  0  0  0  0  0  0  0  0  0
  149.7097  140.4965  155.1257 C   0  0  2  0  0  0  0  0  0  0  0  0
  150.9393  141.0354  155.6975 N   0  0  0  0  0  0  0  0  0  0  0  0
  150.6804  141.9184  156.8259 C   0  0  0  0  0  0  0  0  0  0  0  0
  151.9758  142.1310  157.6203 C   0  0  0  0  0  0  0  0  0  0  0  0
  151.8416  143.2478  158.6379 C   0  0  0  0  0  0  0  0  0  0  0  0
  151.5896  144.5733  158.2231 C   0  0  0  0  0  0  0  0  0  0  0  0
  151.4839  145.5754  159.2067 C   0  0  0  0  0  0  0  0  0  0  0  0
  151.6348  145.2162  160.5599 C   0  0  0  0  0  0  0  0  0  0  0  0
  151.8857  143.8647  160.8706 C   0  0  0  0  0  0  0  0  0  0  0  0
  151.9894  142.8958  159.9352 N   0  0  0  0  0  0  0  0  0  0  0  0
  150.7976  140.2498  152.4581 H   0  0  0  0  0  0  0  0  0  0  0  0
  151.1793  138.5384  152.5704 H   0  0  0  0  0  0  0  0  0  0  0  0
  152.0073  139.6846  153.6049 H   0  0  0  0  0  0  0  0  0  0  0  0
  150.2765  138.4316  154.8599 H   0  0  0  0  0  0  0  0  0  0  0  0
  148.8014  137.9713  152.9091 H   0  0  0  0  0  0  0  0  0  0  0  0
  147.9406  138.4306  154.3527 H   0  0  0  0  0  0  0  0  0  0  0  0
  146.0405  139.0106  152.6596 H   0  0  0  0  0  0  0  0  0  0  0  0
  147.1272  138.7226  151.3020 H   0  0  0  0  0  0  0  0  0  0  0  0
  146.3675  140.2992  151.4906 H   0  0  0  0  0  0  0  0  0  0  0  0
  147.3696  141.9090  152.9990 H   0  0  0  0  0  0  0  0  0  0  0  0
  146.4122  141.8250  155.2927 H   0  0  0  0  0  0  0  0  0  0  0  0
  146.7759  140.1127  155.4082 H   0  0  0  0  0  0  0  0  0  0  0  0
  145.6127  140.6961  154.2221 H   0  0  0  0  0  0  0  0  0  0  0  0
  149.6688  141.9976  153.5613 H   0  0  0  0  0  0  0  0  0  0  0  0
  148.7893  142.4600  154.9888 H   0  0  0  0  0  0  0  0  0  0  0  0
  149.0568  140.2107  155.9517 H   0  0  0  0  0  0  0  0  0  0  0  0
  151.4367  141.5553  154.9882 H   0  0  0  0  0  0  0  0  0  0  0  0
  150.3026  142.8763  156.4655 H   0  0  0  0  0  0  0  0  0  0  0  0
  149.9208  141.4882  157.4782 H   0  0  0  0  0  0  0  0  0  0  0  0
  152.2544  141.2105  158.1356 H   0  0  0  0  0  0  0  0  0  0  0  0
  152.7995  142.3660  156.9443 H   0  0  0  0  0  0  0  0  0  0  0  0
  151.4819  144.8187  157.1767 H   0  0  0  0  0  0  0  0  0  0  0  0
  151.2918  146.6009  158.9279 H   0  0  0  0  0  0  0  0  0  0  0  0
  151.5606  145.9582  161.3410 H   0  0  0  0  0  0  0  0  0  0  0  0
  152.0076  143.5536  161.8976 H   0  0  0  0  0  0  0  0  0  0  0  0
  148.6557  140.2179  152.1658 H   0  0  0  0  0  0  0  0  0  0  0  0
  1  2  1  0  0  0  0
  1 19  1  0  0  0  0
  1 20  1  0  0  0  0
  1 21  1  0  0  0  0
  2  9  1  0  0  0  0
  2  3  1  0  0  0  0
  2 22  1  0  0  0  0
  3  4  1  0  0  0  0
  3 23  1  0  0  0  0
  3 24  1  0  0  0  0
  4  5  1  0  0  0  0
  4  6  1  0  0  0  0
  4 44  1  0  0  0  0
  5 25  1  0  0  0  0
  5 26  1  0  0  0  0
  5 27  1  0  0  0  0
  6  7  1  0  0  0  0
  6  8  1  0  0  0  0
  6 28  1  0  0  0  0
  7 29  1  0  0  0  0
  7 30  1  0  0  0  0
  7 31  1  0  0  0  0
  8  9  1  0  0  0  0
  8 32  1  0  0  0  0
  8 33  1  0  0  0  0
  9 10  1  0  0  0  0
  9 34  1  0  0  0  0
 10 11  1  0  0  0  0
 10 35  1  0  0  0  0
 11 12  1  0  0  0  0
 11 36  1  0  0  0  0
 11 37  1  0  0  0  0
 12 13  1  0  0  0  0
 12 38  1  0  0  0  0
 12 39  1  0  0  0  0
 13 18  1  0  0  0  0
 13 14  2  0  0  0  0
 14 15  1  0  0  0  0
 14 40  1  0  0  0  0
 15 16  2  0  0  0  0
 15 41  1  0  0  0  0
 16 17  1  0  0  0  0
 16 42  1  0  0  0  0
 17 18  2  0  0  0  0
 17 43  1  0  0  0  0
M  CHG  1   4   1
M  END
> <s_m_source_file>
AV-unprocessed.smi

> <i_m_source_file_index>
3303

> <i_lp_mmshare_version>
43012

> <i_f3d_flags>
0

> <s_epik_input>
W0NIM11bQ0BASF0xW0NIMl1OKFtDSDNdKVtDQEBIXShbQ0gzXSlbQ0gyXVtDQEhdMVtOSF1bQ0gyXVtDSDJdYzJbY0hdW2NIXVtjSF1bY0hdbjI=

> <s_epik_cmdline>
J2VwaWtfcHl0aG9uJywgJy1waCcsICc3LjAnLCAnLXRuJywgJzgnLCAnLW1hJywgJzIwMCcsICctbWV0YWxfYmluZGluZycsICctaW1hZScsICc8aW5maWxlLm1hZT4nLCAnLW9tYWUnLCAnPG91dGZpbGUubWFlPic=

> <r_epik_Ionization_Penalty>
2.31085

> <r_epik_Ionization_Penalty_Charging>
0.000313057

> <r_epik_Ionization_Penalty_Neutral>
2.31054

> <r_epik_State_Penalty>
2.4087

> <r_epik_Charging_Adjusted_Penalty>
2.40902

> <i_epik_Tot_Q>
1

> <i_epik_Tot_abs_Q>
1

> <r_epik_Metal_State_Penalty>
2.30979

> <b_epik_Metal_Only>
0

> <s_lp_Force_Field>
OPLS_2005

> <r_lp_Energy>
26.3276

> <b_lp_Chiralities_Consistent>
1

> <s_lp_Variant>
AV-unprocessed.smi:3303-35

> <Gold.Version>
5.8.1

> <Gold.Id.Protein>
6NUR|6NUR_protein|mol2

> <Gold.PLP.Fitness>
46.2056

> <Gold.PLP.PLP>
-43.6308

> <Gold.PLP.part.hbond>
-1.5386

> <Gold.PLP.part.metal>
0.0000

> <Gold.PLP.part.buried>
-3.1499

> <Gold.PLP.part.nonpolar>
-39.3270

> <Gold.PLP.part.repulsive>
0.1204

> <Gold.PLP.ligand.clash>
0.0000

> <Gold.PLP.ligand.torsion>
0.2189

> <Gold.PLP.Chemscore.Hbond>
1.0000

> <Gold.PLP.Chemscore.CHOScore>
0.0000

> <Gold.PLP.Chemscore.Metal>
0.0000

> <Gold.Chemscore.Hbonds>
donor molecule, donor type, donor heavy atom, donor atom, acceptor molecule, acceptor atom, score
      L1  H     4    44       P1  7957  0.63

> <Gold.PLP.Chemscore.Internal.Correction>
0.0125

> <Gold.Rescore>
     Score         DG    S(hbond)    S(metal)    S(lipo)     H(rot)  DE(clash)    DE(int)     intcor
     19.77     -20.41       0.97        0.00     129.10       1.33       0.46       0.19       ----

> <Gold.Chemscore.Fitness>
19.7717

> <Gold.Chemscore.DG>
-20.4131

> <Gold.Chemscore.ZeroCoef>
-5.4800

> <Gold.Chemscore.Hbond>
0.9659

> <Gold.Chemscore.Metal>
0.0000

> <Gold.Chemscore.Lipo>
129.0981

> <Gold.Chemscore.Internal_Hbond>
0.0000

> <Gold.Chemscore.DEClash>
0.4562

> <Gold.Chemscore.DEInternal>
0.1852

> <Gold.Chemscore.Rot>
1.3272

> <Gold.Chemscore.Internal.Correction>
   9.000000E+99

> <Gold.Chemscore.Hbonds>
donor molecule, donor type, donor heavy atom, donor atom, acceptor molecule, acceptor atom, score
      L1  H     4    44       P1  7957  0.63

> <Gold.Chemscore.Hbond.Weighted>
-3.2262

> <Gold.Chemscore.Metal.Weighted>
-0.0000

> <Gold.Chemscore.Lipo.Weighted>
-15.1045

> <Gold.Chemscore.Internal_Hbond.Weighted>
0.0000

> <Gold.Chemscore.DEClash.Weighted>
0.4562

> <Gold.Chemscore.DEInternal.Weighted>
0.1852

> <Gold.Chemscore.Rot.Weighted>
3.3976

> <Gold.Chemscore.Internal.Correction.Weighted>
   9.000000E+99

> <Gold.Protein.RotatedTorsions>
[ 6907 6896 6895 6894 ] final -158.75 input  -60.11 | X-H torsion
[ 7974 7965 7964 7962 ] final   71.31 input  175.53 | X-H torsion
[ 8008 7997 7996 7995 ] final  -16.79 input   59.86 | X-H torsion
[ 10167 10162 10161 10158 ] final -166.78 input  -65.29 | X-H torsion
[ 10718 10713 10712 10709 ] final  -73.35 input   66.30 | X-H torsion
[ 10763 10752 10751 10750 ] final   26.12 input  -60.55 | X-H torsion
[ 11005 11000 10999 10996 ] final   76.34 input  -57.11 | X-H torsion

> <Gold.Protein.ActiveResidues>
 VAL166  LYS551  ARG553  GLY616  TRP617  ASP618  TYR619  PRO620  LYS621  CYS622 
 ASP623  PHE694  ASN695  SER759  ASP760  ASP761  ALA762  ILE779  LEU786  VAL792 
 PHE793  MET794  SER795  GLU796  ALA797  LYS798  CYS799  TRP800  GLU811  SER814 

> <Gold.Protein.RotatedAtoms>
  151.3230  133.4032  159.2655 H   0  0  0  0  0  0  0  0  0  0  0  0  # atno 6907 bound_to 6896
  151.0019  134.9329  159.7969 H   0  0  0  0  0  0  0  0  0  0  0  0  # atno 6908 bound_to 6896
  152.5277  134.3195  159.9195 H   0  0  0  0  0  0  0  0  0  0  0  0  # atno 6909 bound_to 6896
  145.7674  139.2827  143.1341 H   0  0  0  0  0  0  0  0  0  0  0  0  # atno 7974 bound_to 7965
  154.5027  140.2160  155.9314 H   0  0  0  0  0  0  0  0  0  0  0  0  # atno 8008 bound_to 7997
  156.1454  140.3172  155.8529 H   0  0  0  0  0  0  0  0  0  0  0  0  # atno 8009 bound_to 7997
  155.4041  140.0486  157.3026 H   0  0  0  0  0  0  0  0  0  0  0  0  # atno 8010 bound_to 7997
  139.6092  144.0849  152.1825 H   0  0  0  0  0  0  0  0  0  0  0  0  # atno 10167 bound_to 10162
  156.0284  130.4392  150.2729 H   0  0  0  0  0  0  0  0  0  0  0  0  # atno 10718 bound_to 10713
  153.0644  135.6567  154.0387 H   0  0  0  0  0  0  0  0  0  0  0  0  # atno 10763 bound_to 10752
  154.0047  135.2934  155.3400 H   0  0  0  0  0  0  0  0  0  0  0  0  # atno 10764 bound_to 10752
  154.6996  135.5250  153.8577 H   0  0  0  0  0  0  0  0  0  0  0  0  # atno 10765 bound_to 10752
  139.9302  134.7593  156.1384 H   0  0  0  0  0  0  0  0  0  0  0  0  # atno 11005 bound_to 11000
  146.0204  140.8353  142.9926 LP  0  0  0  0  0  0  0  0  0  0  0  0  # atno 17320 bound_to 7965
  144.6819  140.2620  143.7317 LP  0  0  0  0  0  0  0  0  0  0  0  0  # atno 17321 bound_to 7965
  140.0463  144.5968  150.7371 LP  0  0  0  0  0  0  0  0  0  0  0  0  # atno 17342 bound_to 10162
  140.7307  143.2686  151.3961 LP  0  0  0  0  0  0  0  0  0  0  0  0  # atno 17343 bound_to 10162
  157.0832  131.0149  151.3149 LP  0  0  0  0  0  0  0  0  0  0  0  0  # atno 17370 bound_to 10713
  157.4911  130.7823  149.7509 LP  0  0  0  0  0  0  0  0  0  0  0  0  # atno 17371 bound_to 10713
  141.0886  133.6723  156.2491 LP  0  0  0  0  0  0  0  0  0  0  0  0  # atno 17394 bound_to 11000
  140.6222  134.5349  157.5549 LP  0  0  0  0  0  0  0  0  0  0  0  0  # atno 17395 bound_to 11000

$$$$
