AV-unprocessed.smi:2039|AV-procd|sdf|8282|dock8
  -GOLD-   2272010553D 1   1.00000     0.00000
 Structure written by MMmdl.
 33 34  0  0  0  0  0  0  0  0  1 V2000
  151.4865  130.5080  156.6735 C   0  0  0  0  0  0  0  0  0  0  0  0
  150.8814  131.6253  155.8944 C   0  0  0  0  0  0  0  0  0  0  0  0
  151.1513  132.9132  156.1415 N   0  0  0  0  0  0  0  0  0  0  0  0
  150.4697  133.7674  155.2859 N   0  0  0  0  0  0  0  0  0  0  0  0
  149.7032  133.0957  154.4156 C   0  0  0  0  0  0  0  0  0  0  0  0
  148.8978  133.7207  153.4271 N   0  0  0  0  0  0  0  0  0  0  0  0
  147.8226  133.2233  152.7909 C   0  0  0  0  0  0  0  0  0  0  0  0
  147.3445  132.1026  152.9694 O   0  0  0  0  0  0  0  0  0  0  0  0
  147.3200  134.1117  151.9211 N   0  0  0  0  0  0  0  0  0  0  0  0
  146.1561  133.8906  151.0678 C   0  0  2  0  0  0  0  0  0  0  0  0
  144.8932  133.7628  151.9406 C   0  0  0  0  0  0  0  0  0  0  0  0
  143.6476  133.4709  151.0883 C   0  0  0  0  0  0  0  0  0  0  0  0
  143.8486  132.2103  150.2302 C   0  0  1  0  0  0  0  0  0  0  0  0
  142.7150  132.0092  149.4130 O   0  0  0  0  0  0  0  0  0  0  0  0
  145.1027  132.3357  149.3484 C   0  0  0  0  0  0  0  0  0  0  0  0
  146.3503  132.6315  150.1966 C   0  0  0  0  0  0  0  0  0  0  0  0
  149.7532  131.3480  154.5732 S   0  0  0  0  0  0  0  0  0  0  0  0
  152.1053  130.8941  157.4842 H   0  0  0  0  0  0  0  0  0  0  0  0
  152.1078  129.8936  156.0219 H   0  0  0  0  0  0  0  0  0  0  0  0
  150.7017  129.8837  157.1008 H   0  0  0  0  0  0  0  0  0  0  0  0
  149.1726  134.6586  153.1755 H   0  0  0  0  0  0  0  0  0  0  0  0
  147.7766  135.0084  151.8402 H   0  0  0  0  0  0  0  0  0  0  0  0
  146.0273  134.7552  150.4134 H   0  0  0  0  0  0  0  0  0  0  0  0
  145.0260  132.9617  152.6695 H   0  0  0  0  0  0  0  0  0  0  0  0
  144.7391  134.6785  152.5127 H   0  0  0  0  0  0  0  0  0  0  0  0
  142.7780  133.3499  151.7354 H   0  0  0  0  0  0  0  0  0  0  0  0
  143.4400  134.3285  150.4465 H   0  0  0  0  0  0  0  0  0  0  0  0
  143.9500  131.3415  150.8820 H   0  0  0  0  0  0  0  0  0  0  0  0
  142.2079  132.8066  149.4010 H   0  0  0  0  0  0  0  0  0  0  0  0
  145.2540  131.4184  148.7780 H   0  0  0  0  0  0  0  0  0  0  0  0
  144.9656  133.1353  148.6188 H   0  0  0  0  0  0  0  0  0  0  0  0
  147.2135  132.7554  149.5416 H   0  0  0  0  0  0  0  0  0  0  0  0
  146.5663  131.7717  150.8326 H   0  0  0  0  0  0  0  0  0  0  0  0
  1  2  1  0  0  0  0
  1 18  1  0  0  0  0
  1 19  1  0  0  0  0
  1 20  1  0  0  0  0
  2 17  1  0  0  0  0
  2  3  2  0  0  0  0
  3  4  1  0  0  0  0
  4  5  2  0  0  0  0
  5  6  1  0  0  0  0
  5 17  1  0  0  0  0
  6  7  1  0  0  0  0
  6 21  1  0  0  0  0
  7  8  2  0  0  0  0
  7  9  1  0  0  0  0
  9 10  1  0  0  0  0
  9 22  1  0  0  0  0
 10 16  1  0  0  0  0
 10 11  1  0  0  0  0
 10 23  1  0  0  0  0
 11 12  1  0  0  0  0
 11 24  1  0  0  0  0
 11 25  1  0  0  0  0
 12 13  1  0  0  0  0
 12 26  1  0  0  0  0
 12 27  1  0  0  0  0
 13 14  1  0  0  0  0
 13 15  1  0  0  0  0
 13 28  1  0  0  0  0
 14 29  1  0  0  0  0
 15 16  1  0  0  0  0
 15 30  1  0  0  0  0
 15 31  1  0  0  0  0
 16 32  1  0  0  0  0
 16 33  1  0  0  0  0
M  END
> <s_m_source_file>
AV-unprocessed.smi

> <i_m_source_file_index>
2039

> <i_lp_mmshare_version>
43012

> <i_f3d_flags>
0

> <s_epik_input>
W0NIM11jMW5uYyhzMSlbTkhdQyg9TylbTkhdW0NAQEhdMltDSDJdW0NIMl1bQ0BASF0oW09IXSlbQ0gyXVtDSDJdMg==

> <s_epik_cmdline>
J2VwaWtfcHl0aG9uJywgJy1waCcsICc3LjAnLCAnLXRuJywgJzgnLCAnLW1hJywgJzIwMCcsICctbWV0YWxfYmluZGluZycsICctaW1hZScsICc8aW5maWxlLm1hZT4nLCAnLW9tYWUnLCAnPG91dGZpbGUubWFlPic=

> <r_lp_tautomer_probability>
1

> <r_epik_Ionization_Penalty>
0.000385244

> <r_epik_Ionization_Penalty_Charging>
0

> <r_epik_Ionization_Penalty_Neutral>
0.000385244

> <r_epik_State_Penalty>
-0

> <r_epik_Charging_Adjusted_Penalty>
0

> <i_epik_Tot_Q>
0

> <i_epik_Tot_abs_Q>
0

> <r_epik_Metal_State_Penalty>
0.189642

> <b_epik_Metal_Only>
0

> <s_lp_Force_Field>
OPLS_2005

> <r_lp_Energy>
6.55666

> <b_lp_Chiralities_Consistent>
1

> <s_lp_Variant>
AV-unprocessed.smi:2039-1

> <Gold.Version>
5.8.1

> <Gold.Id.Protein>
6NUR|6NUR_protein|mol2

> <Gold.PLP.Fitness>
41.8256

> <Gold.PLP.PLP>
-31.3703

> <Gold.PLP.part.hbond>
-5.0000

> <Gold.PLP.part.metal>
0.0000

> <Gold.PLP.part.buried>
-1.4286

> <Gold.PLP.part.nonpolar>
-23.9492

> <Gold.PLP.part.repulsive>
0.1987

> <Gold.PLP.ligand.clash>
0.0000

> <Gold.PLP.ligand.torsion>
0.1316

> <Gold.PLP.Chemscore.Hbond>
3.5717

> <Gold.PLP.Chemscore.CHOScore>
0.0000

> <Gold.PLP.Chemscore.Metal>
0.0000

> <Gold.Chemscore.Hbonds>
donor molecule, donor type, donor heavy atom, donor atom, acceptor molecule, acceptor atom, score
      L1  H     6    21       P1  7948  0.46
      L1  H     9    22       P1  7948  1.00
      L1  H    14    29       P1 10186  1.00
      P1  H 10785 10796       L1    14  0.88

> <Gold.PLP.Chemscore.Internal.Correction>
0.0033

> <Gold.Rescore>
     Score         DG    S(hbond)    S(metal)    S(lipo)     H(rot)  DE(clash)    DE(int)     intcor
     15.14     -17.10       2.47        0.00      61.56       1.50       0.03       1.93       ----

> <Gold.Chemscore.Fitness>
15.1366

> <Gold.Chemscore.DG>
-17.0960

> <Gold.Chemscore.ZeroCoef>
-5.4800

> <Gold.Chemscore.Hbond>
2.4712

> <Gold.Chemscore.Metal>
0.0000

> <Gold.Chemscore.Lipo>
61.5636

> <Gold.Chemscore.Internal_Hbond>
0.0000

> <Gold.Chemscore.DEClash>
0.0252

> <Gold.Chemscore.DEInternal>
1.9342

> <Gold.Chemscore.Rot>
1.5004

> <Gold.Chemscore.Internal.Correction>
   9.000000E+99

> <Gold.Chemscore.Hbonds>
donor molecule, donor type, donor heavy atom, donor atom, acceptor molecule, acceptor atom, score
      L1  H     6    21       P1  7948  0.02
      L1  H     9    22       P1  7948  0.65
      L1  H    14    29       P1 10186  0.95
      P1  H 10785 10796       L1    14  0.16

> <Gold.Chemscore.Hbond.Weighted>
-8.2540

> <Gold.Chemscore.Metal.Weighted>
-0.0000

> <Gold.Chemscore.Lipo.Weighted>
-7.2029

> <Gold.Chemscore.Internal_Hbond.Weighted>
0.0000

> <Gold.Chemscore.DEClash.Weighted>
0.0252

> <Gold.Chemscore.DEInternal.Weighted>
1.9342

> <Gold.Chemscore.Rot.Weighted>
3.8409

> <Gold.Chemscore.Internal.Correction.Weighted>
   9.000000E+99

> <Gold.Protein.RotatedTorsions>
[ 6907 6896 6895 6894 ] final  -54.91 input  -60.11 | X-H torsion
[ 7974 7965 7964 7962 ] final  143.11 input  175.53 | X-H torsion
[ 8008 7997 7996 7995 ] final -174.99 input   59.86 | X-H torsion
[ 10167 10162 10161 10158 ] final  104.54 input  -65.29 | X-H torsion
[ 10718 10713 10712 10709 ] final  -52.97 input   66.30 | X-H torsion
[ 10763 10752 10751 10750 ] final  112.59 input  -60.55 | X-H torsion
[ 11005 11000 10999 10996 ] final   58.45 input  -57.11 | X-H torsion

> <Gold.Protein.ActiveResidues>
 VAL166  LYS551  ARG553  GLY616  TRP617  ASP618  TYR619  PRO620  LYS621  CYS622 
 ASP623  PHE694  ASN695  SER759  ASP760  ASP761  ALA762  ILE779  LEU786  VAL792 
 PHE793  MET794  SER795  GLU796  ALA797  LYS798  CYS799  TRP800  GLU811  SER814 

> <Gold.Protein.RotatedAtoms>
  150.8297  134.7545  159.6842 H   0  0  0  0  0  0  0  0  0  0  0  0  # atno 6907 bound_to 6896
  152.4403  134.5600  159.9901 H   0  0  0  0  0  0  0  0  0  0  0  0  # atno 6908 bound_to 6896
  151.5764  133.3345  159.3035 H   0  0  0  0  0  0  0  0  0  0  0  0  # atno 6909 bound_to 6896
  144.8949  139.5505  143.5781 H   0  0  0  0  0  0  0  0  0  0  0  0  # atno 7974 bound_to 7965
  155.9770  140.1174  157.0761 H   0  0  0  0  0  0  0  0  0  0  0  0  # atno 8008 bound_to 7997
  154.4172  140.1152  156.5452 H   0  0  0  0  0  0  0  0  0  0  0  0  # atno 8009 bound_to 7997
  155.6521  140.3473  155.4754 H   0  0  0  0  0  0  0  0  0  0  0  0  # atno 8010 bound_to 7997
  139.7168  144.7066  151.0936 H   0  0  0  0  0  0  0  0  0  0  0  0  # atno 10167 bound_to 10162
  156.1575  130.4150  149.9846 H   0  0  0  0  0  0  0  0  0  0  0  0  # atno 10718 bound_to 10713
  153.4800  135.3681  155.2437 H   0  0  0  0  0  0  0  0  0  0  0  0  # atno 10763 bound_to 10752
  154.8755  135.3952  154.3711 H   0  0  0  0  0  0  0  0  0  0  0  0  # atno 10764 bound_to 10752
  153.4313  135.7082  153.6294 H   0  0  0  0  0  0  0  0  0  0  0  0  # atno 10765 bound_to 10752
  140.0377  134.5919  155.9423 H   0  0  0  0  0  0  0  0  0  0  0  0  # atno 11005 bound_to 11000
  146.3075  139.7632  142.9045 LP  0  0  0  0  0  0  0  0  0  0  0  0  # atno 17320 bound_to 7965
  145.3717  141.0344  143.3227 LP  0  0  0  0  0  0  0  0  0  0  0  0  # atno 17321 bound_to 7965
  140.7745  143.5218  150.9527 LP  0  0  0  0  0  0  0  0  0  0  0  0  # atno 17342 bound_to 10162
  139.8905  143.6960  152.3146 LP  0  0  0  0  0  0  0  0  0  0  0  0  # atno 17343 bound_to 10162
  156.7685  130.9177  151.3643 LP  0  0  0  0  0  0  0  0  0  0  0  0  # atno 17370 bound_to 10713
  157.6706  130.9048  150.0032 LP  0  0  0  0  0  0  0  0  0  0  0  0  # atno 17371 bound_to 10713
  141.1866  133.6558  156.5246 LP  0  0  0  0  0  0  0  0  0  0  0  0  # atno 17394 bound_to 11000
  140.4121  134.7263  157.4842 LP  0  0  0  0  0  0  0  0  0  0  0  0  # atno 17395 bound_to 11000

$$$$
