AV-unprocessed.smi:291|AV-procd|sdf|2248|dock6
  -GOLD-   2262022133D 1   1.00000     0.00000
 Structure written by MMmdl.
 35 36  0  0  0  0  0  0  0  0  1 V2000
  152.8943  142.5643  162.3239 C   0  0  0  0  0  0  0  0  0  0  0  0
  152.8034  143.5155  161.1224 C   0  0  2  0  0  0  0  0  0  0  0  0
  151.4235  144.1967  161.0476 C   0  0  0  0  0  0  0  0  0  0  0  0
  151.3241  145.1470  159.8408 C   0  0  0  0  0  0  0  0  0  0  0  0
  151.6545  144.4404  158.5127 C   0  0  2  0  0  0  0  0  0  0  0  0
  150.5941  143.4952  158.1717 N   0  0  0  0  0  0  0  0  0  0  0  0
  150.6075  142.6345  157.1415 C   0  0  0  0  0  0  0  0  0  0  0  0
  151.5442  142.5371  156.3494 O   0  0  0  0  0  0  0  0  0  0  0  0
  149.3795  141.7341  156.9872 C   0  0  0  0  0  0  0  0  0  0  0  0
  149.5863  140.7172  155.9706 N   0  0  0  0  0  0  0  0  0  0  0  0
  148.9566  140.5088  154.8094 C   0  0  0  0  0  0  0  0  0  0  0  0
  149.4091  139.4615  154.1307 N   0  0  0  0  0  0  0  0  0  0  0  0
  150.3812  139.0519  154.9966 C   0  0  0  0  0  0  0  0  0  0  0  0
  151.2081  137.8906  154.7158 C   0  0  0  0  0  0  0  0  0  0  0  0
  151.8665  136.9657  154.4919 N   0  0  0  0  0  0  0  0  0  0  0  0
  150.5367  139.7606  156.1129 N   0  0  0  0  0  0  0  0  0  0  0  0
  153.0230  143.7336  158.5924 C   0  0  0  0  0  0  0  0  0  0  0  0
  153.1178  142.7862  159.8019 C   0  0  0  0  0  0  0  0  0  0  0  0
  152.1701  141.7531  162.2434 H   0  0  0  0  0  0  0  0  0  0  0  0
  152.7008  143.0920  163.2582 H   0  0  0  0  0  0  0  0  0  0  0  0
  153.8867  142.1187  162.3973 H   0  0  0  0  0  0  0  0  0  0  0  0
  153.5543  144.2945  161.2630 H   0  0  0  0  0  0  0  0  0  0  0  0
  150.6401  143.4398  160.9858 H   0  0  0  0  0  0  0  0  0  0  0  0
  151.2350  144.7557  161.9648 H   0  0  0  0  0  0  0  0  0  0  0  0
  150.3280  145.5895  159.7949 H   0  0  0  0  0  0  0  0  0  0  0  0
  152.0170  145.9770  159.9846 H   0  0  0  0  0  0  0  0  0  0  0  0
  151.7019  145.2032  157.7335 H   0  0  0  0  0  0  0  0  0  0  0  0
  149.7799  143.4974  158.7694 H   0  0  0  0  0  0  0  0  0  0  0  0
  149.1558  141.2395  157.9333 H   0  0  0  0  0  0  0  0  0  0  0  0
  148.5103  142.3400  156.7262 H   0  0  0  0  0  0  0  0  0  0  0  0
  148.1484  141.1329  154.4571 H   0  0  0  0  0  0  0  0  0  0  0  0
  153.2217  143.1844  157.6712 H   0  0  0  0  0  0  0  0  0  0  0  0
  153.8085  144.4864  158.6688 H   0  0  0  0  0  0  0  0  0  0  0  0
  154.1173  142.3522  159.8453 H   0  0  0  0  0  0  0  0  0  0  0  0
  152.4283  141.9516  159.6680 H   0  0  0  0  0  0  0  0  0  0  0  0
  1  2  1  0  0  0  0
  1 19  1  0  0  0  0
  1 20  1  0  0  0  0
  1 21  1  0  0  0  0
  2 18  1  0  0  0  0
  2  3  1  0  0  0  0
  2 22  1  0  0  0  0
  3  4  1  0  0  0  0
  3 23  1  0  0  0  0
  3 24  1  0  0  0  0
  4  5  1  0  0  0  0
  4 25  1  0  0  0  0
  4 26  1  0  0  0  0
  5  6  1  0  0  0  0
  5 17  1  0  0  0  0
  5 27  1  0  0  0  0
  6  7  1  0  0  0  0
  6 28  1  0  0  0  0
  7  8  2  0  0  0  0
  7  9  1  0  0  0  0
  9 10  1  0  0  0  0
  9 29  1  0  0  0  0
  9 30  1  0  0  0  0
 10 16  1  0  0  0  0
 10 11  1  0  0  0  0
 11 12  2  0  0  0  0
 11 31  1  0  0  0  0
 12 13  1  0  0  0  0
 13 14  1  0  0  0  0
 13 16  2  0  0  0  0
 14 15  3  0  0  0  0
 17 18  1  0  0  0  0
 17 32  1  0  0  0  0
 17 33  1  0  0  0  0
 18 34  1  0  0  0  0
 18 35  1  0  0  0  0
M  END
> <s_m_source_file>
AV-unprocessed.smi

> <i_m_source_file_index>
291

> <i_lp_mmshare_version>
43012

> <i_f3d_flags>
0

> <s_epik_input>
W0NIM11bQ0BASF0xW0NIMl1bQ0gyXVtDQEhdKFtDSDJdW0NIMl0xKVtOSF1DKD1PKVtDSDJdbjJbY0hdbmMobjIpQyNO

> <s_epik_cmdline>
J2VwaWtfcHl0aG9uJywgJy1waCcsICc3LjAnLCAnLXRuJywgJzgnLCAnLW1hJywgJzIwMCcsICctbWV0YWxfYmluZGluZycsICctaW1hZScsICc8aW5maWxlLm1hZT4nLCAnLW9tYWUnLCAnPG91dGZpbGUubWFlPic=

> <r_lp_tautomer_probability>
1

> <r_epik_Ionization_Penalty>
5.31112e-08

> <r_epik_Ionization_Penalty_Charging>
0

> <r_epik_Ionization_Penalty_Neutral>
5.31112e-08

> <r_epik_State_Penalty>
-0

> <r_epik_Charging_Adjusted_Penalty>
0

> <i_epik_Tot_Q>
0

> <i_epik_Tot_abs_Q>
0

> <r_epik_Metal_State_Penalty>
-0

> <b_epik_Metal_Only>
0

> <s_lp_Force_Field>
OPLS_2005

> <r_lp_Energy>
11.449

> <b_lp_Chiralities_Consistent>
1

> <s_lp_Variant>
AV-unprocessed.smi:291-2

> <Gold.Version>
5.8.1

> <Gold.Id.Protein>
6NUR|6NUR_protein|mol2

> <Gold.PLP.Fitness>
39.3223

> <Gold.PLP.PLP>
-36.5777

> <Gold.PLP.part.hbond>
-1.2280

> <Gold.PLP.part.metal>
0.0000

> <Gold.PLP.part.buried>
-1.3522

> <Gold.PLP.part.nonpolar>
-34.7338

> <Gold.PLP.part.repulsive>
1.2763

> <Gold.PLP.ligand.clash>
0.0000

> <Gold.PLP.ligand.torsion>
0.1308

> <Gold.PLP.Chemscore.Hbond>
1.0000

> <Gold.PLP.Chemscore.CHOScore>
0.0000

> <Gold.PLP.Chemscore.Metal>
0.0000

> <Gold.Chemscore.Hbonds>
donor molecule, donor type, donor heavy atom, donor atom, acceptor molecule, acceptor atom, score
      P1  H 10752 10764       L1    15  1.00

> <Gold.PLP.Chemscore.Internal.Correction>
0.0062

> <Gold.Rescore>
     Score         DG    S(hbond)    S(metal)    S(lipo)     H(rot)  DE(clash)    DE(int)     intcor
     10.59     -14.04       0.95        0.00      88.62       1.95       2.23       1.23       ----

> <Gold.Chemscore.Fitness>
10.5932

> <Gold.Chemscore.DG>
-14.0449

> <Gold.Chemscore.ZeroCoef>
-5.4800

> <Gold.Chemscore.Hbond>
0.9526

> <Gold.Chemscore.Metal>
0.0000

> <Gold.Chemscore.Lipo>
88.6190

> <Gold.Chemscore.Internal_Hbond>
0.0000

> <Gold.Chemscore.DEClash>
2.2258

> <Gold.Chemscore.DEInternal>
1.2259

> <Gold.Chemscore.Rot>
1.9474

> <Gold.Chemscore.Internal.Correction>
   9.000000E+99

> <Gold.Chemscore.Hbonds>
donor molecule, donor type, donor heavy atom, donor atom, acceptor molecule, acceptor atom, score
      P1  H 10752 10764       L1    15  0.96

> <Gold.Chemscore.Hbond.Weighted>
-3.1817

> <Gold.Chemscore.Metal.Weighted>
-0.0000

> <Gold.Chemscore.Lipo.Weighted>
-10.3684

> <Gold.Chemscore.Internal_Hbond.Weighted>
0.0000

> <Gold.Chemscore.DEClash.Weighted>
2.2258

> <Gold.Chemscore.DEInternal.Weighted>
1.2259

> <Gold.Chemscore.Rot.Weighted>
4.9852

> <Gold.Chemscore.Internal.Correction.Weighted>
   9.000000E+99

> <Gold.Protein.RotatedTorsions>
[ 6907 6896 6895 6894 ] final   48.48 input  -60.11 | X-H torsion
[ 7974 7965 7964 7962 ] final  -65.84 input  175.53 | X-H torsion
[ 8008 7997 7996 7995 ] final  121.79 input   59.86 | X-H torsion
[ 10167 10162 10161 10158 ] final -131.31 input  -65.29 | X-H torsion
[ 10718 10713 10712 10709 ] final    0.40 input   66.30 | X-H torsion
[ 10763 10752 10751 10750 ] final  -82.94 input  -60.55 | X-H torsion
[ 11005 11000 10999 10996 ] final  177.20 input  -57.11 | X-H torsion

> <Gold.Protein.ActiveResidues>
 VAL166  LYS551  ARG553  GLY616  TRP617  ASP618  TYR619  PRO620  LYS621  CYS622 
 ASP623  PHE694  ASN695  SER759  ASP760  ASP761  ALA762  ILE779  LEU786  VAL792 
 PHE793  MET794  SER795  GLU796  ALA797  LYS798  CYS799  TRP800  GLU811  SER814 

> <Gold.Protein.RotatedAtoms>
  152.2800  134.7839  160.0398 H   0  0  0  0  0  0  0  0  0  0  0  0  # atno 6907 bound_to 6896
  151.8422  133.3420  159.3655 H   0  0  0  0  0  0  0  0  0  0  0  0  # atno 6908 bound_to 6896
  150.7186  134.5309  159.5744 H   0  0  0  0  0  0  0  0  0  0  0  0  # atno 6909 bound_to 6896
  145.7493  140.8916  143.0488 H   0  0  0  0  0  0  0  0  0  0  0  0  # atno 7974 bound_to 7965
  156.2701  140.2800  156.1364 H   0  0  0  0  0  0  0  0  0  0  0  0  # atno 8008 bound_to 7997
  155.0999  140.0389  157.2711 H   0  0  0  0  0  0  0  0  0  0  0  0  # atno 8009 bound_to 7997
  154.6823  140.2611  155.6901 H   0  0  0  0  0  0  0  0  0  0  0  0  # atno 8010 bound_to 7997
  139.9202  143.6391  152.2555 H   0  0  0  0  0  0  0  0  0  0  0  0  # atno 10167 bound_to 10162
  156.8329  130.5494  149.5685 H   0  0  0  0  0  0  0  0  0  0  0  0  # atno 10718 bound_to 10713
  154.5818  135.5573  153.7192 H   0  0  0  0  0  0  0  0  0  0  0  0  # atno 10763 bound_to 10752
  153.0084  135.6322  154.1972 H   0  0  0  0  0  0  0  0  0  0  0  0  # atno 10764 bound_to 10752
  154.1913  135.2882  155.3001 H   0  0  0  0  0  0  0  0  0  0  0  0  # atno 10765 bound_to 10752
  140.3814  134.6943  157.4453 H   0  0  0  0  0  0  0  0  0  0  0  0  # atno 11005 bound_to 11000
  144.6853  139.9569  143.7479 LP  0  0  0  0  0  0  0  0  0  0  0  0  # atno 17320 bound_to 7965
  146.0372  139.3388  143.0719 LP  0  0  0  0  0  0  0  0  0  0  0  0  # atno 17321 bound_to 7965
  139.6868  144.7651  151.1510 LP  0  0  0  0  0  0  0  0  0  0  0  0  # atno 17342 bound_to 10162
  140.7664  143.5646  150.9062 LP  0  0  0  0  0  0  0  0  0  0  0  0  # atno 17343 bound_to 10162
  156.0924  130.5906  150.9755 LP  0  0  0  0  0  0  0  0  0  0  0  0  # atno 17370 bound_to 10713
  157.6397  131.0912  150.8276 LP  0  0  0  0  0  0  0  0  0  0  0  0  # atno 17371 bound_to 10713
  140.0475  134.6178  155.8902 LP  0  0  0  0  0  0  0  0  0  0  0  0  # atno 17394 bound_to 11000
  141.1922  133.6574  156.5491 LP  0  0  0  0  0  0  0  0  0  0  0  0  # atno 17395 bound_to 11000

$$$$
