AV-unprocessed.smi:15|AV-procd|sdf|85|dock9
  -GOLD-   2262015223D 1   1.00000     0.00000
 Structure written by MMmdl.
 53 56  0  0  0  0  0  0  0  0  1 V2000
  142.0130  136.0681  154.1550 C   0  0  0  0  0  0  0  0  0  0  0  0
  142.8687  136.1125  152.8789 C   0  0  0  0  0  0  0  0  0  0  0  0
  144.2874  135.8480  153.1214 N   0  0  0  0  0  0  0  0  0  0  0  0
  145.1393  135.6582  151.9505 C   0  0  0  0  0  0  0  0  0  0  0  0
  144.6687  134.4901  151.0698 C   0  0  2  0  0  0  0  0  0  0  0  0
  143.8260  133.4496  151.8072 C   0  0  0  0  0  0  0  0  0  0  0  0
  144.0635  132.1705  151.0189 C   0  0  0  0  0  0  0  0  0  0  0  0
  145.2745  132.4919  150.1383 C   0  0  0  0  0  0  0  0  0  0  0  0
  145.7796  133.7235  150.6350 O   0  0  0  0  0  0  0  0  0  0  0  0
  144.8706  136.6415  154.0460 C   0  0  0  0  0  0  0  0  0  0  0  0
  144.4625  136.4999  155.3308 N   0  0  0  0  0  0  0  0  0  0  0  0
  145.0022  137.2596  156.2886 C   0  0  0  0  0  0  0  0  0  0  0  0
  145.9466  138.1969  156.1788 N   0  0  0  0  0  0  0  0  0  0  0  0
  146.3664  138.3312  154.8877 C   0  0  0  0  0  0  0  0  0  0  0  0
  145.8856  137.5988  153.7663 C   0  0  0  0  0  0  0  0  0  0  0  0
  146.5485  138.0035  152.6144 N   0  0  0  0  0  0  0  0  0  0  0  0
  147.3709  138.9278  153.0305 C   0  0  0  0  0  0  0  0  0  0  0  0
  147.3318  139.1848  154.3828 N   0  0  0  0  0  0  0  0  0  0  0  0
  148.1353  140.1572  155.1089 C   0  0  0  0  0  0  0  0  0  0  0  0
  149.6267  140.1667  154.6822 C   0  0  2  0  0  0  0  0  0  0  0  0
  149.7111  140.8022  153.4172 O   0  0  0  0  0  0  0  0  0  0  0  0
  150.2363  138.7747  154.5483 C   0  0  0  0  0  0  0  0  0  0  0  0
  151.7139  139.0255  154.8070 C   0  0  0  0  0  0  0  0  0  0  0  0
  151.6864  139.9750  155.8584 O   0  0  0  0  0  0  0  0  0  0  0  0
  150.6165  140.8920  155.6371 C   0  0  2  0  0  0  0  0  0  0  0  0
  150.0719  141.2986  157.0154 C   0  0  0  0  0  0  0  0  0  0  0  0
  140.9587  136.2042  153.9146 H   0  0  0  0  0  0  0  0  0  0  0  0
  142.2908  136.8537  154.8583 H   0  0  0  0  0  0  0  0  0  0  0  0
  142.1164  135.1088  154.6628 H   0  0  0  0  0  0  0  0  0  0  0  0
  142.4863  135.3688  152.1806 H   0  0  0  0  0  0  0  0  0  0  0  0
  142.7506  137.0773  152.3855 H   0  0  0  0  0  0  0  0  0  0  0  0
  145.1396  136.5787  151.3653 H   0  0  0  0  0  0  0  0  0  0  0  0
  146.1749  135.4860  152.2507 H   0  0  0  0  0  0  0  0  0  0  0  0
  144.1370  134.8510  150.1879 H   0  0  0  0  0  0  0  0  0  0  0  0
  144.1916  133.3224  152.8271 H   0  0  0  0  0  0  0  0  0  0  0  0
  142.7728  133.7271  151.8613 H   0  0  0  0  0  0  0  0  0  0  0  0
  144.2646  131.3347  151.6898 H   0  0  0  0  0  0  0  0  0  0  0  0
  143.2000  131.9094  150.4063 H   0  0  0  0  0  0  0  0  0  0  0  0
  146.0361  131.7126  150.1717 H   0  0  0  0  0  0  0  0  0  0  0  0
  144.9680  132.6239  149.0995 H   0  0  0  0  0  0  0  0  0  0  0  0
  144.6228  137.0930  157.2860 H   0  0  0  0  0  0  0  0  0  0  0  0
  148.0382  139.4482  152.3586 H   0  0  0  0  0  0  0  0  0  0  0  0
  147.6909  141.1424  154.9613 H   0  0  0  0  0  0  0  0  0  0  0  0
  148.0419  139.9330  156.1716 H   0  0  0  0  0  0  0  0  0  0  0  0
  149.6233  140.1434  152.7454 H   0  0  0  0  0  0  0  0  0  0  0  0
  149.8511  138.1199  155.3307 H   0  0  0  0  0  0  0  0  0  0  0  0
  150.0412  138.2961  153.5874 H   0  0  0  0  0  0  0  0  0  0  0  0
  152.2527  138.1223  155.0938 H   0  0  0  0  0  0  0  0  0  0  0  0
  152.2001  139.4576  153.9310 H   0  0  0  0  0  0  0  0  0  0  0  0
  151.0310  141.7800  155.1560 H   0  0  0  0  0  0  0  0  0  0  0  0
  149.2530  142.0125  156.9271 H   0  0  0  0  0  0  0  0  0  0  0  0
  150.8523  141.7712  157.6123 H   0  0  0  0  0  0  0  0  0  0  0  0
  149.7137  140.4338  157.5744 H   0  0  0  0  0  0  0  0  0  0  0  0
  1  2  1  0  0  0  0
  1 27  1  0  0  0  0
  1 28  1  0  0  0  0
  1 29  1  0  0  0  0
  2  3  1  0  0  0  0
  2 30  1  0  0  0  0
  2 31  1  0  0  0  0
  3  4  1  0  0  0  0
  3 10  1  0  0  0  0
  4  5  1  0  0  0  0
  4 32  1  0  0  0  0
  4 33  1  0  0  0  0
  5  9  1  0  0  0  0
  5  6  1  0  0  0  0
  5 34  1  0  0  0  0
  6  7  1  0  0  0  0
  6 35  1  0  0  0  0
  6 36  1  0  0  0  0
  7  8  1  0  0  0  0
  7 37  1  0  0  0  0
  7 38  1  0  0  0  0
  8  9  1  0  0  0  0
  8 39  1  0  0  0  0
  8 40  1  0  0  0  0
 10 15  1  0  0  0  0
 10 11  2  0  0  0  0
 11 12  1  0  0  0  0
 12 13  2  0  0  0  0
 12 41  1  0  0  0  0
 13 14  1  0  0  0  0
 14 18  1  0  0  0  0
 14 15  2  0  0  0  0
 15 16  1  0  0  0  0
 16 17  2  0  0  0  0
 17 18  1  0  0  0  0
 17 42  1  0  0  0  0
 18 19  1  0  0  0  0
 19 20  1  0  0  0  0
 19 43  1  0  0  0  0
 19 44  1  0  0  0  0
 20 25  1  0  0  0  0
 20 21  1  0  0  0  0
 20 22  1  0  0  0  0
 21 45  1  0  0  0  0
 22 23  1  0  0  0  0
 22 46  1  0  0  0  0
 22 47  1  0  0  0  0
 23 24  1  0  0  0  0
 23 48  1  0  0  0  0
 23 49  1  0  0  0  0
 24 25  1  0  0  0  0
 25 26  1  0  0  0  0
 25 50  1  0  0  0  0
 26 51  1  0  0  0  0
 26 52  1  0  0  0  0
 26 53  1  0  0  0  0
M  END
> <s_m_source_file>
AV-unprocessed.smi

> <i_m_source_file_index>
15

> <i_lp_mmshare_version>
43012

> <i_f3d_flags>
0

> <s_epik_input>
TzFbQ0gyXVtDSDJdW0NIMl1bQ0BIXTFbQ0gyXU4oW0NIMl1bQ0gzXSljKG5bY0hdbjIpYyhjMjMpbltjSF1uM1tDSDJdW0NAQF00KFtPSF0pW0NIMl1bQ0gyXU9bQ0BIXTRbQ0gzXQ==

> <s_epik_cmdline>
J2VwaWtfcHl0aG9uJywgJy1waCcsICc3LjAnLCAnLXRuJywgJzgnLCAnLW1hJywgJzIwMCcsICctbWV0YWxfYmluZGluZycsICctaW1hZScsICc8aW5maWxlLm1hZT4nLCAnLW9tYWUnLCAnPG91dGZpbGUubWFlPic=

> <r_lp_tautomer_probability>
1

> <r_epik_Ionization_Penalty>
0.00360814

> <r_epik_Ionization_Penalty_Charging>
0

> <r_epik_Ionization_Penalty_Neutral>
0.00360814

> <r_epik_State_Penalty>
0.00237482

> <r_epik_Charging_Adjusted_Penalty>
0.00237482

> <i_epik_Tot_Q>
0

> <i_epik_Tot_abs_Q>
0

> <r_epik_Metal_State_Penalty>
-0

> <b_epik_Metal_Only>
0

> <s_lp_Force_Field>
OPLS_2005

> <r_lp_Energy>
47.4065

> <b_lp_Chiralities_Consistent>
1

> <s_lp_Variant>
AV-unprocessed.smi:15-7

> <Gold.Version>
5.8.1

> <Gold.Id.Protein>
6NUR|6NUR_protein|mol2

> <Gold.PLP.Fitness>
44.8911

> <Gold.PLP.PLP>
-38.0048

> <Gold.PLP.part.hbond>
-2.3566

> <Gold.PLP.part.metal>
0.0000

> <Gold.PLP.part.buried>
-6.3499

> <Gold.PLP.part.nonpolar>
-29.2574

> <Gold.PLP.part.repulsive>
0.9670

> <Gold.PLP.ligand.clash>
0.0000

> <Gold.PLP.ligand.torsion>
1.4098

> <Gold.PLP.Chemscore.Hbond>
2.0288

> <Gold.PLP.Chemscore.CHOScore>
1.0000

> <Gold.PLP.Chemscore.Metal>
0.0000

> <Gold.Chemscore.Hbonds>
donor molecule, donor type, donor heavy atom, donor atom, acceptor molecule, acceptor atom, score
      L1  H    21    45       P1  7957  0.78
      P1  H  7989  7998       L1    21  0.19
      P1  H  8011  8017       L1    21  1.00
      L1  C    17    42       P1  7957  1.00

> <Gold.PLP.Chemscore.Internal.Correction>
0.6196

> <Gold.Rescore>
     Score         DG    S(hbond)    S(metal)    S(lipo)     H(rot)  DE(clash)    DE(int)     intcor
      7.07     -11.81       1.00        0.00      84.74       2.71       0.44       4.29       ----

> <Gold.Chemscore.Fitness>
7.0719

> <Gold.Chemscore.DG>
-11.8054

> <Gold.Chemscore.ZeroCoef>
-5.4800

> <Gold.Chemscore.Hbond>
1.0004

> <Gold.Chemscore.Metal>
0.0000

> <Gold.Chemscore.Lipo>
84.7430

> <Gold.Chemscore.Internal_Hbond>
0.0000

> <Gold.Chemscore.DEClash>
0.4435

> <Gold.Chemscore.DEInternal>
4.2901

> <Gold.Chemscore.Rot>
2.7074

> <Gold.Chemscore.Internal.Correction>
   9.000000E+99

> <Gold.Chemscore.Hbonds>
donor molecule, donor type, donor heavy atom, donor atom, acceptor molecule, acceptor atom, score
      L1  H    21    45       P1  7957  0.76
      P1  H  8011  8017       L1    21  0.25

> <Gold.Chemscore.Hbond.Weighted>
-3.3413

> <Gold.Chemscore.Metal.Weighted>
-0.0000

> <Gold.Chemscore.Lipo.Weighted>
-9.9149

> <Gold.Chemscore.Internal_Hbond.Weighted>
0.0000

> <Gold.Chemscore.DEClash.Weighted>
0.4435

> <Gold.Chemscore.DEInternal.Weighted>
4.2901

> <Gold.Chemscore.Rot.Weighted>
6.9308

> <Gold.Chemscore.Internal.Correction.Weighted>
   9.000000E+99

> <Gold.Protein.RotatedTorsions>
[ 6907 6896 6895 6894 ] final  -74.45 input  -60.11 | X-H torsion
[ 7974 7965 7964 7962 ] final  -35.14 input  175.53 | X-H torsion
[ 8008 7997 7996 7995 ] final  111.44 input   59.86 | X-H torsion
[ 10167 10162 10161 10158 ] final -140.83 input  -65.29 | X-H torsion
[ 10718 10713 10712 10709 ] final   -6.76 input   66.30 | X-H torsion
[ 10763 10752 10751 10750 ] final -155.31 input  -60.55 | X-H torsion
[ 11005 11000 10999 10996 ] final   79.46 input  -57.11 | X-H torsion

> <Gold.Protein.ActiveResidues>
 VAL166  LYS551  ARG553  GLY616  TRP617  ASP618  TYR619  PRO620  LYS621  CYS622 
 ASP623  PHE694  ASN695  SER759  ASP760  ASP761  ALA762  ILE779  LEU786  VAL792 
 PHE793  MET794  SER795  GLU796  ALA797  LYS798  CYS799  TRP800  GLU811  SER814 

> <Gold.Protein.RotatedAtoms>
  150.7093  134.4867  159.5495 H   0  0  0  0  0  0  0  0  0  0  0  0  # atno 6907 bound_to 6896
  152.2493  134.8146  160.0457 H   0  0  0  0  0  0  0  0  0  0  0  0  # atno 6908 bound_to 6896
  151.8900  133.3479  159.3832 H   0  0  0  0  0  0  0  0  0  0  0  0  # atno 6909 bound_to 6896
  146.0771  140.6123  142.8925 H   0  0  0  0  0  0  0  0  0  0  0  0  # atno 7974 bound_to 7965
  156.2124  140.3019  155.9762 H   0  0  0  0  0  0  0  0  0  0  0  0  # atno 8008 bound_to 7997
  155.2691  140.0433  157.3022 H   0  0  0  0  0  0  0  0  0  0  0  0  # atno 8009 bound_to 7997
  154.5718  140.2350  155.8189 H   0  0  0  0  0  0  0  0  0  0  0  0  # atno 8010 bound_to 7997
  139.8244  143.7531  152.2666 H   0  0  0  0  0  0  0  0  0  0  0  0  # atno 10167 bound_to 10162
  156.7272  130.5169  149.5854 H   0  0  0  0  0  0  0  0  0  0  0  0  # atno 10718 bound_to 10713
  154.7796  135.3170  154.8018 H   0  0  0  0  0  0  0  0  0  0  0  0  # atno 10763 bound_to 10752
  153.8732  135.6842  153.4777 H   0  0  0  0  0  0  0  0  0  0  0  0  # atno 10764 bound_to 10752
  153.1429  135.4731  154.9460 H   0  0  0  0  0  0  0  0  0  0  0  0  # atno 10765 bound_to 10752
  139.9172  134.7844  156.1782 H   0  0  0  0  0  0  0  0  0  0  0  0  # atno 11005 bound_to 11000
  144.7269  140.4552  143.6966 LP  0  0  0  0  0  0  0  0  0  0  0  0  # atno 17320 bound_to 7965
  145.6285  139.1533  143.2982 LP  0  0  0  0  0  0  0  0  0  0  0  0  # atno 17321 bound_to 7965
  139.7719  144.7474  151.0212 LP  0  0  0  0  0  0  0  0  0  0  0  0  # atno 17342 bound_to 10162
  140.7811  143.4636  151.0244 LP  0  0  0  0  0  0  0  0  0  0  0  0  # atno 17343 bound_to 10162
  156.1554  130.6338  151.0650 LP  0  0  0  0  0  0  0  0  0  0  0  0  # atno 17370 bound_to 10713
  157.6874  131.0821  150.7205 LP  0  0  0  0  0  0  0  0  0  0  0  0  # atno 17371 bound_to 10713
  141.0658  133.6820  156.2043 LP  0  0  0  0  0  0  0  0  0  0  0  0  # atno 17394 bound_to 11000
  140.6587  134.4991  157.5582 LP  0  0  0  0  0  0  0  0  0  0  0  0  # atno 17395 bound_to 11000

$$$$
