AV-unprocessed.smi:1667|AV-procd|sdf|6680|dock2
  -GOLD-   22720 7393D 1   1.00000     0.00000
 Structure written by MMmdl.
 46 48  0  0  0  0  0  0  0  0  2 V2000
  149.4421  139.2375  153.4464 C   0  0  0  0  0  0  0  0  0  0  0  0
  148.0173  138.8997  153.8704 C   0  0  0  0  0  0  0  0  0  0  0  0
  147.4270  139.6163  154.6762 O   0  0  0  0  0  0  0  0  0  0  0  0
  147.4737  137.8060  153.3149 N   0  0  0  0  0  0  0  0  0  0  0  0
  146.1443  137.2741  153.6102 C   0  0  2  0  0  0  0  0  0  0  0  0
  146.0672  136.9181  155.1016 C   0  0  0  0  0  0  0  0  0  0  0  0
  145.7773  136.0828  152.7691 C   0  0  0  0  0  0  0  0  0  0  0  0
  146.6040  135.4159  151.9118 N   0  3  0  0  0  0  0  0  0  0  0  0
  145.9249  134.3470  151.3292 C   0  0  0  0  0  0  0  0  0  0  0  0
  146.3442  133.3976  150.4026 C   0  0  0  0  0  0  0  0  0  0  0  0
  145.3967  132.4252  150.0207 C   0  0  0  0  0  0  0  0  0  0  0  0
  144.0930  132.4201  150.5577 C   0  0  0  0  0  0  0  0  0  0  0  0
  143.6801  133.3888  151.4962 C   0  0  0  0  0  0  0  0  0  0  0  0
  144.6211  134.3506  151.8635 C   0  0  0  0  0  0  0  0  0  0  0  0
  144.5714  135.4408  152.7399 N   0  0  0  0  0  0  0  0  0  0  0  0
  143.3241  135.7075  153.4752 C   0  0  0  0  0  0  0  0  0  0  0  0
  142.8798  137.1838  153.4141 C   0  0  1  0  0  0  0  0  0  0  0  0
  143.2614  137.6985  152.1559 O   0  0  0  0  0  0  0  0  0  0  0  0
  141.3923  137.3681  153.6762 C   0  0  0  0  0  0  0  0  0  0  0  0
  140.5620  136.2531  153.9255 C   0  0  0  0  0  0  0  0  0  0  0  0
  139.1839  136.4315  154.1549 C   0  0  0  0  0  0  0  0  0  0  0  0
  138.6273  137.7245  154.1305 C   0  0  0  0  0  0  0  0  0  0  0  0
  139.4508  138.8402  153.8850 C   0  0  0  0  0  0  0  0  0  0  0  0
  138.9181  140.0849  153.8681 F   0  0  0  0  0  0  0  0  0  0  0  0
  140.8301  138.6626  153.6628 C   0  0  0  0  0  0  0  0  0  0  0  0
  145.4224  138.0666  153.4110 H   0  0  0  0  0  0  0  0  0  0  0  0
  149.5441  139.1881  152.3619 H   0  0  0  0  0  0  0  0  0  0  0  0
  150.1456  138.5346  153.8930 H   0  0  0  0  0  0  0  0  0  0  0  0
  149.7130  140.2439  153.7681 H   0  0  0  0  0  0  0  0  0  0  0  0
  148.0369  137.2806  152.6618 H   0  0  0  0  0  0  0  0  0  0  0  0
  145.0695  136.5766  155.3778 H   0  0  0  0  0  0  0  0  0  0  0  0
  146.3001  137.7823  155.7246 H   0  0  0  0  0  0  0  0  0  0  0  0
  146.7701  136.1242  155.3569 H   0  0  0  0  0  0  0  0  0  0  0  0
  147.3439  133.3972  149.9935 H   0  0  0  0  0  0  0  0  0  0  0  0
  145.6766  131.6666  149.3041 H   0  0  0  0  0  0  0  0  0  0  0  0
  143.3953  131.6571  150.2443 H   0  0  0  0  0  0  0  0  0  0  0  0
  142.6796  133.3743  151.9028 H   0  0  0  0  0  0  0  0  0  0  0  0
  142.5526  135.0565  153.0609 H   0  0  0  0  0  0  0  0  0  0  0  0
  143.4616  135.3938  154.5099 H   0  0  0  0  0  0  0  0  0  0  0  0
  143.4332  137.7605  154.1554 H   0  0  0  0  0  0  0  0  0  0  0  0
  143.4236  138.6252  152.2478 H   0  0  0  0  0  0  0  0  0  0  0  0
  140.9805  135.2573  153.9424 H   0  0  0  0  0  0  0  0  0  0  0  0
  138.5529  135.5762  154.3470 H   0  0  0  0  0  0  0  0  0  0  0  0
  137.5702  137.8613  154.3054 H   0  0  0  0  0  0  0  0  0  0  0  0
  141.4539  139.5248  153.4784 H   0  0  0  0  0  0  0  0  0  0  0  0
  147.5646  135.6819  151.7379 H   0  0  0  0  0  0  0  0  0  0  0  0
  1  2  1  0  0  0  0
  1 27  1  0  0  0  0
  1 28  1  0  0  0  0
  1 29  1  0  0  0  0
  2  3  2  0  0  0  0
  2  4  1  0  0  0  0
  4  5  1  0  0  0  0
  4 30  1  0  0  0  0
  5 26  1  0  0  0  0
  5  6  1  0  0  0  0
  5  7  1  0  0  0  0
  6 31  1  0  0  0  0
  6 32  1  0  0  0  0
  6 33  1  0  0  0  0
  7 15  1  0  0  0  0
  7  8  2  0  0  0  0
  8  9  1  0  0  0  0
  8 46  1  0  0  0  0
  9 14  2  0  0  0  0
  9 10  1  0  0  0  0
 10 11  2  0  0  0  0
 10 34  1  0  0  0  0
 11 12  1  0  0  0  0
 11 35  1  0  0  0  0
 12 13  2  0  0  0  0
 12 36  1  0  0  0  0
 13 14  1  0  0  0  0
 13 37  1  0  0  0  0
 14 15  1  0  0  0  0
 15 16  1  0  0  0  0
 16 17  1  0  0  0  0
 16 38  1  0  0  0  0
 16 39  1  0  0  0  0
 17 18  1  0  0  0  0
 17 19  1  0  0  0  0
 17 40  1  0  0  0  0
 18 41  1  0  0  0  0
 19 25  1  0  0  0  0
 19 20  2  0  0  0  0
 20 21  1  0  0  0  0
 20 42  1  0  0  0  0
 21 22  2  0  0  0  0
 21 43  1  0  0  0  0
 22 23  1  0  0  0  0
 22 44  1  0  0  0  0
 23 24  1  0  0  0  0
 23 25  2  0  0  0  0
 25 45  1  0  0  0  0
M  CHG  1   8   1
M  END
> <s_m_source_file>
AV-unprocessed.smi

> <i_m_source_file_index>
1667

> <i_lp_mmshare_version>
43012

> <i_f3d_flags>
0

> <s_epik_input>
W0NIM11DKD1PKVtOSF1bQ0BASF0oW0NIM10pYyhuMSluKGMoYzEyKVtjSF1bY0hdW2NIXVtjSF0yKVtDSDJdW0NASF0oW09IXSljM1tjSF1bY0hdW2NIXWMoRilbY0hdMw==

> <s_epik_cmdline>
J2VwaWtfcHl0aG9uJywgJy1waCcsICc3LjAnLCAnLXRuJywgJzgnLCAnLW1hJywgJzIwMCcsICctbWV0YWxfYmluZGluZycsICctaW1hZScsICc8aW5maWxlLm1hZT4nLCAnLW9tYWUnLCAnPG91dGZpbGUubWFlPic=

> <r_epik_Ionization_Penalty>
0.950383

> <r_epik_Ionization_Penalty_Charging>
0.950379

> <r_epik_Ionization_Penalty_Neutral>
3.60962e-06

> <r_epik_State_Penalty>
0.994584

> <r_epik_Charging_Adjusted_Penalty>
1.94496

> <i_epik_Tot_Q>
1

> <i_epik_Tot_abs_Q>
1

> <r_epik_Metal_State_Penalty>
1.10485

> <b_epik_Metal_Only>
0

> <s_lp_Force_Field>
OPLS_2005

> <r_lp_Energy>
10.8153

> <b_lp_Chiralities_Consistent>
1

> <s_lp_Variant>
AV-unprocessed.smi:1667-8

> <Gold.Version>
5.8.1

> <Gold.Id.Protein>
6NUR|6NUR_protein|mol2

> <Gold.PLP.Fitness>
57.3166

> <Gold.PLP.PLP>
-46.1886

> <Gold.PLP.part.hbond>
-3.9188

> <Gold.PLP.part.metal>
0.0000

> <Gold.PLP.part.buried>
-7.2421

> <Gold.PLP.part.nonpolar>
-35.1213

> <Gold.PLP.part.repulsive>
0.0738

> <Gold.PLP.ligand.clash>
0.0000

> <Gold.PLP.ligand.torsion>
0.4581

> <Gold.PLP.Chemscore.Hbond>
4.0000

> <Gold.PLP.Chemscore.CHOScore>
0.0000

> <Gold.PLP.Chemscore.Metal>
0.0000

> <Gold.Chemscore.Hbonds>
donor molecule, donor type, donor heavy atom, donor atom, acceptor molecule, acceptor atom, score
      L1  H     4    30       P1  7948  1.00
      L1  H     8    46       P1  7948  1.66
      L1  H    18    41       P1 10175  1.00

> <Gold.PLP.Chemscore.Internal.Correction>
0.0442

> <Gold.Rescore>
     Score         DG    S(hbond)    S(metal)    S(lipo)     H(rot)  DE(clash)    DE(int)     intcor
     20.39     -20.76       2.96        0.00     101.61       2.53       0.01       0.36       ----

> <Gold.Chemscore.Fitness>
20.3912

> <Gold.Chemscore.DG>
-20.7585

> <Gold.Chemscore.ZeroCoef>
-5.4800

> <Gold.Chemscore.Hbond>
2.9567

> <Gold.Chemscore.Metal>
0.0000

> <Gold.Chemscore.Lipo>
101.6134

> <Gold.Chemscore.Internal_Hbond>
0.0000

> <Gold.Chemscore.DEClash>
0.0103

> <Gold.Chemscore.DEInternal>
0.3569

> <Gold.Chemscore.Rot>
2.5335

> <Gold.Chemscore.Internal.Correction>
   9.000000E+99

> <Gold.Chemscore.Hbonds>
donor molecule, donor type, donor heavy atom, donor atom, acceptor molecule, acceptor atom, score
      L1  H     4    30       P1  7948  0.99
      L1  H     8    46       P1  7948  0.80
      L1  H    18    41       P1 10175  1.00

> <Gold.Chemscore.Hbond.Weighted>
-9.8753

> <Gold.Chemscore.Metal.Weighted>
-0.0000

> <Gold.Chemscore.Lipo.Weighted>
-11.8888

> <Gold.Chemscore.Internal_Hbond.Weighted>
0.0000

> <Gold.Chemscore.DEClash.Weighted>
0.0103

> <Gold.Chemscore.DEInternal.Weighted>
0.3569

> <Gold.Chemscore.Rot.Weighted>
6.4856

> <Gold.Chemscore.Internal.Correction.Weighted>
   9.000000E+99

> <Gold.Protein.RotatedTorsions>
[ 6907 6896 6895 6894 ] final  105.47 input  -60.11 | X-H torsion
[ 7974 7965 7964 7962 ] final -171.64 input  175.53 | X-H torsion
[ 8008 7997 7996 7995 ] final  136.12 input   59.86 | X-H torsion
[ 10167 10162 10161 10158 ] final   80.37 input  -65.29 | X-H torsion
[ 10718 10713 10712 10709 ] final   40.16 input   66.30 | X-H torsion
[ 10763 10752 10751 10750 ] final -140.19 input  -60.55 | X-H torsion
[ 11005 11000 10999 10996 ] final   59.04 input  -57.11 | X-H torsion

> <Gold.Protein.ActiveResidues>
 VAL166  LYS551  ARG553  GLY616  TRP617  ASP618  TYR619  PRO620  LYS621  CYS622 
 ASP623  PHE694  ASN695  SER759  ASP760  ASP761  ALA762  ILE779  LEU786  VAL792 
 PHE793  MET794  SER795  GLU796  ALA797  LYS798  CYS799  TRP800  GLU811  SER814 

> <Gold.Protein.RotatedAtoms>
  152.5229  133.9523  159.7677 H   0  0  0  0  0  0  0  0  0  0  0  0  # atno 6907 bound_to 6896
  150.9831  133.6217  159.2726 H   0  0  0  0  0  0  0  0  0  0  0  0  # atno 6908 bound_to 6896
  151.3387  135.0864  159.9417 H   0  0  0  0  0  0  0  0  0  0  0  0  # atno 6909 bound_to 6896
  144.7155  140.1892  143.6350 H   0  0  0  0  0  0  0  0  0  0  0  0  # atno 7974 bound_to 7965
  156.3004  140.2453  156.3694 H   0  0  0  0  0  0  0  0  0  0  0  0  # atno 8008 bound_to 7997
  154.8803  140.0413  157.1798 H   0  0  0  0  0  0  0  0  0  0  0  0  # atno 8009 bound_to 7997
  154.8703  140.2934  155.5489 H   0  0  0  0  0  0  0  0  0  0  0  0  # atno 8010 bound_to 7997
  139.9505  144.6029  150.8166 H   0  0  0  0  0  0  0  0  0  0  0  0  # atno 10167 bound_to 10162
  157.3790  130.7743  149.7178 H   0  0  0  0  0  0  0  0  0  0  0  0  # atno 10718 bound_to 10713
  154.8586  135.3560  154.5668 H   0  0  0  0  0  0  0  0  0  0  0  0  # atno 10763 bound_to 10752
  153.6282  135.7003  153.5290 H   0  0  0  0  0  0  0  0  0  0  0  0  # atno 10764 bound_to 10752
  153.3072  135.4189  155.1264 H   0  0  0  0  0  0  0  0  0  0  0  0  # atno 10765 bound_to 10752
  140.0333  134.5980  155.9477 H   0  0  0  0  0  0  0  0  0  0  0  0  # atno 11005 bound_to 11000
  145.8784  139.2310  143.1619 LP  0  0  0  0  0  0  0  0  0  0  0  0  # atno 17320 bound_to 7965
  146.0018  140.8513  143.0015 LP  0  0  0  0  0  0  0  0  0  0  0  0  # atno 17321 bound_to 7965
  140.7584  143.3107  151.2852 LP  0  0  0  0  0  0  0  0  0  0  0  0  # atno 17342 bound_to 10162
  139.6633  144.0151  152.2706 LP  0  0  0  0  0  0  0  0  0  0  0  0  # atno 17343 bound_to 10162
  155.9771  130.4066  150.3731 LP  0  0  0  0  0  0  0  0  0  0  0  0  # atno 17370 bound_to 10713
  157.1832  131.0397  151.2738 LP  0  0  0  0  0  0  0  0  0  0  0  0  # atno 17371 bound_to 10713
  141.1843  133.6552  156.5152 LP  0  0  0  0  0  0  0  0  0  0  0  0  # atno 17394 bound_to 11000
  140.4189  134.7205  157.4879 LP  0  0  0  0  0  0  0  0  0  0  0  0  # atno 17395 bound_to 11000

$$$$
