AV-unprocessed.smi:2007|AV-procd|sdf|8137|dock5
  -GOLD-   2272010373D 1   1.00000     0.00000
 Structure written by MMmdl.
 35 36  0  0  0  0  0  0  0  0  2 V2000
  150.0313  133.3751  155.7569 C   0  0  0  0  0  0  0  0  0  0  0  0
  149.6509  134.8559  155.8873 C   0  0  2  0  0  0  0  0  0  0  0  0
  150.5323  135.7363  154.9737 C   0  0  0  0  0  0  0  0  0  0  0  0
  150.3931  137.1820  155.1551 N   0  0  0  0  0  0  0  0  0  0  0  0
  151.6065  137.8849  154.7562 C   0  0  0  0  0  0  0  0  0  0  0  0
  151.4803  139.4047  154.9603 C   0  0  0  0  0  0  0  0  0  0  0  0
  150.3544  139.8918  154.2374 O   0  0  0  0  0  0  0  0  0  0  0  0
  149.1390  139.2587  154.6254 C   0  0  0  0  0  0  0  0  0  0  0  0
  149.2596  137.7390  154.4203 C   0  0  0  0  0  0  0  0  0  0  0  0
  149.8038  135.2603  157.2848 N   0  0  0  0  0  0  0  0  0  0  0  0
  148.8193  135.5521  158.1479 C   0  0  0  0  0  0  0  0  0  0  0  0
  147.6405  135.4725  157.7942 O   0  0  0  0  0  0  0  0  0  0  0  0
  149.2629  135.9249  159.3702 N   0  5  0  0  0  0  0  0  0  0  0  0
  148.4751  135.7682  160.4462 C   0  0  0  0  0  0  0  0  0  0  0  0
  148.0440  136.7928  161.1907 N   0  0  0  0  0  0  0  0  0  0  0  0
  147.2326  136.4010  162.2569 C   0  0  0  0  0  0  0  0  0  0  0  0
  147.0334  135.0474  162.3203 C   0  0  0  0  0  0  0  0  0  0  0  0
  147.8649  134.2190  161.0351 S   0  0  0  0  0  0  0  0  0  0  0  0
  149.9077  133.0277  154.7311 H   0  0  0  0  0  0  0  0  0  0  0  0
  149.4023  132.7515  156.3930 H   0  0  0  0  0  0  0  0  0  0  0  0
  151.0693  133.2035  156.0441 H   0  0  0  0  0  0  0  0  0  0  0  0
  148.6068  134.9344  155.5839 H   0  0  0  0  0  0  0  0  0  0  0  0
  151.5721  135.4569  155.1503 H   0  0  0  0  0  0  0  0  0  0  0  0
  150.3336  135.4858  153.9305 H   0  0  0  0  0  0  0  0  0  0  0  0
  152.4552  137.5151  155.3327 H   0  0  0  0  0  0  0  0  0  0  0  0
  151.8267  137.6778  153.7078 H   0  0  0  0  0  0  0  0  0  0  0  0
  151.3727  139.6444  156.0196 H   0  0  0  0  0  0  0  0  0  0  0  0
  152.3782  139.9112  154.6062 H   0  0  0  0  0  0  0  0  0  0  0  0
  148.9159  139.4897  155.6684 H   0  0  0  0  0  0  0  0  0  0  0  0
  148.3208  139.6587  154.0265 H   0  0  0  0  0  0  0  0  0  0  0  0
  149.3668  137.5248  153.3560 H   0  0  0  0  0  0  0  0  0  0  0  0
  148.3293  137.2720  154.7398 H   0  0  0  0  0  0  0  0  0  0  0  0
  150.7491  135.3433  157.6283 H   0  0  0  0  0  0  0  0  0  0  0  0
  146.8374  137.1547  162.9216 H   0  0  0  0  0  0  0  0  0  0  0  0
  146.4516  134.4898  163.0385 H   0  0  0  0  0  0  0  0  0  0  0  0
  1  2  1  0  0  0  0
  1 19  1  0  0  0  0
  1 20  1  0  0  0  0
  1 21  1  0  0  0  0
  2  3  1  0  0  0  0
  2 10  1  0  0  0  0
  2 22  1  0  0  0  0
  3  4  1  0  0  0  0
  3 23  1  0  0  0  0
  3 24  1  0  0  0  0
  4  9  1  0  0  0  0
  4  5  1  0  0  0  0
  5  6  1  0  0  0  0
  5 25  1  0  0  0  0
  5 26  1  0  0  0  0
  6  7  1  0  0  0  0
  6 27  1  0  0  0  0
  6 28  1  0  0  0  0
  7  8  1  0  0  0  0
  8  9  1  0  0  0  0
  8 29  1  0  0  0  0
  8 30  1  0  0  0  0
  9 31  1  0  0  0  0
  9 32  1  0  0  0  0
 10 11  1  0  0  0  0
 10 33  1  0  0  0  0
 11 12  2  0  0  0  0
 11 13  1  0  0  0  0
 13 14  1  0  0  0  0
 14 18  1  0  0  0  0
 14 15  2  0  0  0  0
 15 16  1  0  0  0  0
 16 17  2  0  0  0  0
 16 34  1  0  0  0  0
 17 18  1  0  0  0  0
 17 35  1  0  0  0  0
M  CHG  1  13  -1
M  END
> <s_m_source_file>
AV-unprocessed.smi

> <i_m_source_file_index>
2007

> <i_lp_mmshare_version>
43012

> <i_f3d_flags>
0

> <s_epik_input>
W0NIMl0xW0NIMl1PW0NIMl1bQ0gyXU4xW0NIMl1bQ0BASF0oW0NIM10pW05IXUMoPU8pW05IXWMybltjSF1bY0hdczI=

> <s_epik_cmdline>
J2VwaWtfcHl0aG9uJywgJy1waCcsICc3LjAnLCAnLXRuJywgJzgnLCAnLW1hJywgJzIwMCcsICctbWV0YWxfYmluZGluZycsICctaW1hZScsICc8aW5maWxlLm1hZT4nLCAnLW9tYWUnLCAnPG91dGZpbGUubWFlPic=

> <r_lp_tautomer_probability>
0.999

> <r_epik_Ionization_Penalty>
7.09127

> <r_epik_Ionization_Penalty_Charging>
5.74083

> <r_epik_Ionization_Penalty_Neutral>
1.35044

> <r_epik_State_Penalty>
5.95014

> <r_epik_Charging_Adjusted_Penalty>
11.691

> <i_epik_Tot_Q>
-1

> <i_epik_Tot_abs_Q>
1

> <r_epik_Metal_State_Penalty>
1.93831

> <b_epik_Metal_Only>
1

> <s_lp_Force_Field>
OPLS_2005

> <r_lp_Energy>
21.0216

> <b_lp_Chiralities_Consistent>
1

> <s_lp_Variant>
AV-unprocessed.smi:2007-5

> <Gold.Version>
5.8.1

> <Gold.Id.Protein>
6NUR|6NUR_protein|mol2

> <Gold.PLP.Fitness>
41.0858

> <Gold.PLP.PLP>
-30.4971

> <Gold.PLP.part.hbond>
-3.8829

> <Gold.PLP.part.metal>
0.0000

> <Gold.PLP.part.buried>
-5.5606

> <Gold.PLP.part.nonpolar>
-23.1870

> <Gold.PLP.part.repulsive>
0.2632

> <Gold.PLP.ligand.clash>
0.0000

> <Gold.PLP.ligand.torsion>
1.1130

> <Gold.PLP.Chemscore.Hbond>
4.2431

> <Gold.PLP.Chemscore.CHOScore>
0.0000

> <Gold.PLP.Chemscore.Metal>
0.0000

> <Gold.Chemscore.Hbonds>
donor molecule, donor type, donor heavy atom, donor atom, acceptor molecule, acceptor atom, score
      P1  H  6896  6908       L1    13  2.00
      P1  H  6931  6943       L1    15  1.00
      P1  H  6934  6947       L1    15  0.06
      P1  H  7989  7998       L1     7  0.05

> <Gold.PLP.Chemscore.Internal.Correction>
0.0853

> <Gold.Rescore>
     Score         DG    S(hbond)    S(metal)    S(lipo)     H(rot)  DE(clash)    DE(int)     intcor
     16.58     -17.60       2.62        0.00      62.57       1.55       0.00       1.01       ----

> <Gold.Chemscore.Fitness>
16.5844

> <Gold.Chemscore.DG>
-17.5963

> <Gold.Chemscore.ZeroCoef>
-5.4800

> <Gold.Chemscore.Hbond>
2.6245

> <Gold.Chemscore.Metal>
0.0000

> <Gold.Chemscore.Lipo>
62.5740

> <Gold.Chemscore.Internal_Hbond>
0.0000

> <Gold.Chemscore.DEClash>
0.0000

> <Gold.Chemscore.DEInternal>
1.0119

> <Gold.Chemscore.Rot>
1.5510

> <Gold.Chemscore.Internal.Correction>
   9.000000E+99

> <Gold.Chemscore.Hbonds>
donor molecule, donor type, donor heavy atom, donor atom, acceptor molecule, acceptor atom, score
      P1  H  6896  6908       L1    13  0.15
      P1  H  6931  6943       L1    15  0.39
      P1  H  6934  6947       L1    15  0.02

> <Gold.Chemscore.Hbond.Weighted>
-8.7657

> <Gold.Chemscore.Metal.Weighted>
-0.0000

> <Gold.Chemscore.Lipo.Weighted>
-7.3212

> <Gold.Chemscore.Internal_Hbond.Weighted>
0.0000

> <Gold.Chemscore.DEClash.Weighted>
0.0000

> <Gold.Chemscore.DEInternal.Weighted>
1.0119

> <Gold.Chemscore.Rot.Weighted>
3.9706

> <Gold.Chemscore.Internal.Correction.Weighted>
   9.000000E+99

> <Gold.Protein.RotatedTorsions>
[ 6907 6896 6895 6894 ] final  177.04 input  -60.11 | X-H torsion
[ 7974 7965 7964 7962 ] final -131.02 input  175.53 | X-H torsion
[ 8008 7997 7996 7995 ] final  -32.73 input   59.86 | X-H torsion
[ 10167 10162 10161 10158 ] final -165.79 input  -65.29 | X-H torsion
[ 10718 10713 10712 10709 ] final  124.05 input   66.30 | X-H torsion
[ 10763 10752 10751 10750 ] final   53.03 input  -60.55 | X-H torsion
[ 11005 11000 10999 10996 ] final  135.15 input  -57.11 | X-H torsion

> <Gold.Protein.ActiveResidues>
 VAL166  LYS551  ARG553  GLY616  TRP617  ASP618  TYR619  PRO620  LYS621  CYS622 
 ASP623  PHE694  ASN695  SER759  ASP760  ASP761  ALA762  ILE779  LEU786  VAL792 
 PHE793  MET794  SER795  GLU796  ALA797  LYS798  CYS799  TRP800  GLU811  SER814 

> <Gold.Protein.RotatedAtoms>
  151.7104  133.3312  159.3288 H   0  0  0  0  0  0  0  0  0  0  0  0  # atno 6907 bound_to 6896
  150.7696  134.6537  159.6311 H   0  0  0  0  0  0  0  0  0  0  0  0  # atno 6908 bound_to 6896
  152.3715  134.6730  160.0226 H   0  0  0  0  0  0  0  0  0  0  0  0  # atno 6909 bound_to 6896
  144.9419  140.7248  143.4841 H   0  0  0  0  0  0  0  0  0  0  0  0  # atno 7974 bound_to 7965
  154.4171  140.1730  156.1773 H   0  0  0  0  0  0  0  0  0  0  0  0  # atno 8008 bound_to 7997
  155.9711  140.3385  155.6552 H   0  0  0  0  0  0  0  0  0  0  0  0  # atno 8009 bound_to 7997
  155.6624  140.0702  157.2540 H   0  0  0  0  0  0  0  0  0  0  0  0  # atno 8010 bound_to 7997
  139.6158  144.0722  152.1886 H   0  0  0  0  0  0  0  0  0  0  0  0  # atno 10167 bound_to 10162
  157.5616  131.1089  150.8528 H   0  0  0  0  0  0  0  0  0  0  0  0  # atno 10718 bound_to 10713
  152.9792  135.5792  154.4676 H   0  0  0  0  0  0  0  0  0  0  0  0  # atno 10763 bound_to 10752
  154.4243  135.2772  155.1957 H   0  0  0  0  0  0  0  0  0  0  0  0  # atno 10764 bound_to 10752
  154.3692  135.6171  153.5785 H   0  0  0  0  0  0  0  0  0  0  0  0  # atno 10765 bound_to 10752
  139.9961  134.9497  156.9967 H   0  0  0  0  0  0  0  0  0  0  0  0  # atno 11005 bound_to 11000
  145.2978  139.1861  143.4706 LP  0  0  0  0  0  0  0  0  0  0  0  0  # atno 17320 bound_to 7965
  146.3289  140.2965  142.8618 LP  0  0  0  0  0  0  0  0  0  0  0  0  # atno 17321 bound_to 7965
  140.0352  144.6050  150.7455 LP  0  0  0  0  0  0  0  0  0  0  0  0  # atno 17342 bound_to 10162
  140.7350  143.2735  151.3813 LP  0  0  0  0  0  0  0  0  0  0  0  0  # atno 17343 bound_to 10162
  156.9024  130.5251  149.5282 LP  0  0  0  0  0  0  0  0  0  0  0  0  # atno 17370 bound_to 10713
  156.0668  130.5710  150.9305 LP  0  0  0  0  0  0  0  0  0  0  0  0  # atno 17371 bound_to 10713
  140.4816  134.1284  155.7218 LP  0  0  0  0  0  0  0  0  0  0  0  0  # atno 17394 bound_to 11000
  141.1605  133.8801  157.1860 LP  0  0  0  0  0  0  0  0  0  0  0  0  # atno 17395 bound_to 11000

$$$$
