AV-unprocessed.smi:1307|AV-procd|sdf|5437|dock5
  -GOLD-   22720 5 03D 1   1.00000     0.00000
 Structure written by MMmdl.
 41 41  0  0  0  0  0  0  0  0  1 V2000
  146.6448  139.0858  152.3590 C   0  0  0  0  0  0  0  0  0  0  0  0
  147.3281  139.6257  153.6317 C   0  0  0  0  0  0  0  0  0  0  0  0
  146.6210  139.0547  154.8741 C   0  0  0  0  0  0  0  0  0  0  0  0
  147.3987  141.1762  153.6543 C   0  0  1  0  0  0  0  0  0  0  0  0
  146.2379  141.8266  154.4308 C   0  0  0  0  0  0  0  0  0  0  0  0
  148.6628  141.6086  154.2453 N   0  0  0  0  0  0  0  0  0  0  0  0
  148.9364  141.6904  155.5589 C   0  0  0  0  0  0  0  0  0  0  0  0
  148.1315  141.3648  156.4303 O   0  0  0  0  0  0  0  0  0  0  0  0
  150.3217  142.2192  155.9784 C   0  0  0  0  0  0  0  0  0  0  0  0
  151.1540  141.2621  156.7548 N   0  0  0  0  0  0  0  0  0  0  0  0
  151.6100  141.6083  158.0657 C   0  0  0  0  0  0  0  0  0  0  0  0
  151.2072  142.9600  158.6726 C   0  0  0  0  0  0  0  0  0  0  0  0
  151.7393  143.1215  159.8850 F   0  0  0  0  0  0  0  0  0  0  0  0
  151.6481  143.9681  157.9196 F   0  0  0  0  0  0  0  0  0  0  0  0
  149.8869  143.0661  158.8212 F   0  0  0  0  0  0  0  0  0  0  0  0
  152.3597  140.7366  158.7651 C   0  0  0  0  0  0  0  0  0  0  0  0
  152.7051  139.4622  158.1987 C   0  0  0  0  0  0  0  0  0  0  0  0
  152.2815  139.1184  156.9613 C   0  0  0  0  0  0  0  0  0  0  0  0
  152.5998  137.8118  156.3411 C   0  0  0  0  0  0  0  0  0  0  0  0
  153.2011  136.9435  157.1642 N   0  0  0  0  0  0  0  0  0  0  0  0
  152.3683  137.4652  155.1830 O   0  0  0  0  0  0  0  0  0  0  0  0
  151.4553  140.0569  156.1590 C   0  0  0  0  0  0  0  0  0  0  0  0
  151.0348  139.8057  155.0256 O   0  0  0  0  0  0  0  0  0  0  0  0
  145.6331  139.4795  152.2568 H   0  0  0  0  0  0  0  0  0  0  0  0
  146.5754  137.9980  152.3818 H   0  0  0  0  0  0  0  0  0  0  0  0
  147.1966  139.3464  151.4558 H   0  0  0  0  0  0  0  0  0  0  0  0
  148.3493  139.2415  153.6338 H   0  0  0  0  0  0  0  0  0  0  0  0
  145.6066  139.4443  154.9667 H   0  0  0  0  0  0  0  0  0  0  0  0
  147.1570  139.2914  155.7927 H   0  0  0  0  0  0  0  0  0  0  0  0
  146.5533  137.9677  154.8215 H   0  0  0  0  0  0  0  0  0  0  0  0
  147.3606  141.5281  152.6215 H   0  0  0  0  0  0  0  0  0  0  0  0
  145.2758  141.6316  153.9583 H   0  0  0  0  0  0  0  0  0  0  0  0
  146.3509  142.9104  154.4750 H   0  0  0  0  0  0  0  0  0  0  0  0
  146.1902  141.4579  155.4558 H   0  0  0  0  0  0  0  0  0  0  0  0
  149.3835  141.8948  153.5991 H   0  0  0  0  0  0  0  0  0  0  0  0
  150.8472  142.5264  155.0723 H   0  0  0  0  0  0  0  0  0  0  0  0
  150.1759  143.1643  156.4922 H   0  0  0  0  0  0  0  0  0  0  0  0
  152.7078  140.9734  159.7596 H   0  0  0  0  0  0  0  0  0  0  0  0
  153.3050  138.8002  158.8055 H   0  0  0  0  0  0  0  0  0  0  0  0
  153.4575  136.0253  156.8327 H   0  0  0  0  0  0  0  0  0  0  0  0
  153.3961  137.2132  158.1178 H   0  0  0  0  0  0  0  0  0  0  0  0
  1  2  1  0  0  0  0
  1 24  1  0  0  0  0
  1 25  1  0  0  0  0
  1 26  1  0  0  0  0
  2  3  1  0  0  0  0
  2  4  1  0  0  0  0
  2 27  1  0  0  0  0
  3 28  1  0  0  0  0
  3 29  1  0  0  0  0
  3 30  1  0  0  0  0
  4  5  1  0  0  0  0
  4  6  1  0  0  0  0
  4 31  1  0  0  0  0
  5 32  1  0  0  0  0
  5 33  1  0  0  0  0
  5 34  1  0  0  0  0
  6  7  1  0  0  0  0
  6 35  1  0  0  0  0
  7  8  2  0  0  0  0
  7  9  1  0  0  0  0
  9 10  1  0  0  0  0
  9 36  1  0  0  0  0
  9 37  1  0  0  0  0
 10 22  1  0  0  0  0
 10 11  1  0  0  0  0
 11 12  1  0  0  0  0
 11 16  2  0  0  0  0
 12 13  1  0  0  0  0
 12 14  1  0  0  0  0
 12 15  1  0  0  0  0
 16 17  1  0  0  0  0
 16 38  1  0  0  0  0
 17 18  2  0  0  0  0
 17 39  1  0  0  0  0
 18 19  1  0  0  0  0
 18 22  1  0  0  0  0
 19 20  1  0  0  0  0
 19 21  2  0  0  0  0
 20 40  1  0  0  0  0
 20 41  1  0  0  0  0
 22 23  2  0  0  0  0
M  END
> <s_m_source_file>
AV-unprocessed.smi

> <i_m_source_file_index>
1307

> <i_lp_mmshare_version>
43012

> <i_f3d_flags>
0

> <s_epik_input>
W0NIM11bQ0hdKFtDSDNdKVtDQEhdKFtDSDNdKVtOSF1DKD1PKVtDSDJdbjFjKEMoRikoRilGKVtjSF1bY0hdYyhjMT1PKUMoPU8pW05IMl0=

> <s_epik_cmdline>
J2VwaWtfcHl0aG9uJywgJy1waCcsICc3LjAnLCAnLXRuJywgJzgnLCAnLW1hJywgJzIwMCcsICctbWV0YWxfYmluZGluZycsICctaW1hZScsICc8aW5maWxlLm1hZT4nLCAnLW9tYWUnLCAnPG91dGZpbGUubWFlPic=

> <r_lp_tautomer_probability>
1

> <r_epik_Ionization_Penalty>
2.05992e-06

> <r_epik_Ionization_Penalty_Charging>
8.21357e-10

> <r_epik_Ionization_Penalty_Neutral>
2.0591e-06

> <r_epik_State_Penalty>
-0

> <r_epik_Charging_Adjusted_Penalty>
8.21357e-10

> <i_epik_Tot_Q>
0

> <i_epik_Tot_abs_Q>
0

> <r_epik_Metal_State_Penalty>
-0

> <b_epik_Metal_Only>
0

> <s_lp_Force_Field>
OPLS_2005

> <r_lp_Energy>
26.9387

> <b_lp_Chiralities_Consistent>
1

> <s_lp_Variant>
AV-unprocessed.smi:1307-2

> <Gold.Version>
5.8.1

> <Gold.Id.Protein>
6NUR|6NUR_protein|mol2

> <Gold.PLP.Fitness>
41.0443

> <Gold.PLP.PLP>
-38.1555

> <Gold.PLP.part.hbond>
-2.0000

> <Gold.PLP.part.metal>
0.0000

> <Gold.PLP.part.buried>
-2.4442

> <Gold.PLP.part.nonpolar>
-34.3565

> <Gold.PLP.part.repulsive>
1.8495

> <Gold.PLP.ligand.clash>
3.9246

> <Gold.PLP.ligand.torsion>
1.2215

> <Gold.PLP.Chemscore.Hbond>
1.7520

> <Gold.PLP.Chemscore.CHOScore>
0.0000

> <Gold.PLP.Chemscore.Metal>
0.0000

> <Gold.Chemscore.Hbonds>
donor molecule, donor type, donor heavy atom, donor atom, acceptor molecule, acceptor atom, score
      P1  H  7989  7998       L1    23  1.00
      P1  H 10752 10763       L1    21  0.66

> <Gold.PLP.Chemscore.Internal.Correction>
4.0005

> <Gold.Rescore>
     Score         DG    S(hbond)    S(metal)    S(lipo)     H(rot)  DE(clash)    DE(int)     intcor
      6.63     -14.07       1.55        0.00      72.22       1.97       0.18       7.27       ----

> <Gold.Chemscore.Fitness>
6.6313

> <Gold.Chemscore.DG>
-14.0728

> <Gold.Chemscore.ZeroCoef>
-5.4800

> <Gold.Chemscore.Hbond>
1.5544

> <Gold.Chemscore.Metal>
0.0000

> <Gold.Chemscore.Lipo>
72.2240

> <Gold.Chemscore.Internal_Hbond>
0.0000

> <Gold.Chemscore.DEClash>
0.1758

> <Gold.Chemscore.DEInternal>
7.2656

> <Gold.Chemscore.Rot>
1.9723

> <Gold.Chemscore.Internal.Correction>
   9.000000E+99

> <Gold.Chemscore.Hbonds>
donor molecule, donor type, donor heavy atom, donor atom, acceptor molecule, acceptor atom, score
      P1  H  7989  7998       L1    23  0.97
      P1  H 10752 10763       L1    21  0.56

> <Gold.Chemscore.Hbond.Weighted>
-5.1916

> <Gold.Chemscore.Metal.Weighted>
-0.0000

> <Gold.Chemscore.Lipo.Weighted>
-8.4502

> <Gold.Chemscore.Internal_Hbond.Weighted>
0.0000

> <Gold.Chemscore.DEClash.Weighted>
0.1758

> <Gold.Chemscore.DEInternal.Weighted>
7.2656

> <Gold.Chemscore.Rot.Weighted>
5.0490

> <Gold.Chemscore.Internal.Correction.Weighted>
   9.000000E+99

> <Gold.Protein.RotatedTorsions>
[ 6907 6896 6895 6894 ] final   68.65 input  -60.11 | X-H torsion
[ 7974 7965 7964 7962 ] final   97.69 input  175.53 | X-H torsion
[ 8008 7997 7996 7995 ] final   46.36 input   59.86 | X-H torsion
[ 10167 10162 10161 10158 ] final   76.36 input  -65.29 | X-H torsion
[ 10718 10713 10712 10709 ] final   98.71 input   66.30 | X-H torsion
[ 10763 10752 10751 10750 ] final   67.22 input  -60.55 | X-H torsion
[ 11005 11000 10999 10996 ] final  137.86 input  -57.11 | X-H torsion

> <Gold.Protein.ActiveResidues>
 VAL166  LYS551  ARG553  GLY616  TRP617  ASP618  TYR619  PRO620  LYS621  CYS622 
 ASP623  PHE694  ASN695  SER759  ASP760  ASP761  ALA762  ILE779  LEU786  VAL792 
 PHE793  MET794  SER795  GLU796  ALA797  LYS798  CYS799  TRP800  GLU811  SER814 

> <Gold.Protein.RotatedAtoms>
  152.4634  134.5131  159.9759 H   0  0  0  0  0  0  0  0  0  0  0  0  # atno 6907 bound_to 6896
  151.5175  133.3467  159.2903 H   0  0  0  0  0  0  0  0  0  0  0  0  # atno 6908 bound_to 6896
  150.8607  134.7988  159.7143 H   0  0  0  0  0  0  0  0  0  0  0  0  # atno 6909 bound_to 6896
  145.4222  139.2320  143.3190 H   0  0  0  0  0  0  0  0  0  0  0  0  # atno 7974 bound_to 7965
  155.3511  140.3413  155.4239 H   0  0  0  0  0  0  0  0  0  0  0  0  # atno 8008 bound_to 7997
  156.1763  140.1649  156.8392 H   0  0  0  0  0  0  0  0  0  0  0  0  # atno 8009 bound_to 7997
  154.5285  140.0750  156.8286 H   0  0  0  0  0  0  0  0  0  0  0  0  # atno 8010 bound_to 7997
  139.9930  144.5743  150.7801 H   0  0  0  0  0  0  0  0  0  0  0  0  # atno 10167 bound_to 10162
  157.6890  131.0648  150.4838 H   0  0  0  0  0  0  0  0  0  0  0  0  # atno 10718 bound_to 10713
  153.0176  135.5292  154.6945 H   0  0  0  0  0  0  0  0  0  0  0  0  # atno 10763 bound_to 10752
  154.6071  135.2874  155.0475 H   0  0  0  0  0  0  0  0  0  0  0  0  # atno 10764 bound_to 10752
  154.1511  135.6563  153.5016 H   0  0  0  0  0  0  0  0  0  0  0  0  # atno 10765 bound_to 10752
  140.0143  134.9425  157.0344 H   0  0  0  0  0  0  0  0  0  0  0  0  # atno 11005 bound_to 11000
  146.2651  140.4947  142.8837 LP  0  0  0  0  0  0  0  0  0  0  0  0  # atno 17320 bound_to 7965
  144.8238  140.6594  143.6335 LP  0  0  0  0  0  0  0  0  0  0  0  0  # atno 17321 bound_to 7965
  140.7447  143.2865  151.3449 LP  0  0  0  0  0  0  0  0  0  0  0  0  # atno 17342 bound_to 10162
  139.6326  144.0692  152.2489 LP  0  0  0  0  0  0  0  0  0  0  0  0  # atno 17343 bound_to 10162
  156.5169  130.4152  149.6271 LP  0  0  0  0  0  0  0  0  0  0  0  0  # atno 17370 bound_to 10713
  156.3190  130.7270  151.2178 LP  0  0  0  0  0  0  0  0  0  0  0  0  # atno 17371 bound_to 10713
  140.4498  134.1594  155.7180 LP  0  0  0  0  0  0  0  0  0  0  0  0  # atno 17394 bound_to 11000
  141.1732  133.8566  157.1504 LP  0  0  0  0  0  0  0  0  0  0  0  0  # atno 17395 bound_to 11000

$$$$
