AV-unprocessed.smi:2822|AV-procd|sdf|10863|dock2
  -GOLD-   2272015303D 1   1.00000     0.00000
 Structure written by MMmdl.
 41 43  0  0  0  0  0  0  0  0  3 V2000
  146.5308  131.3609  148.6951 Cl  0  0  0  0  0  0  0  0  0  0  0  0
  145.4137  132.0980  149.7902 C   0  0  0  0  0  0  0  0  0  0  0  0
  144.1335  132.4659  149.3271 C   0  0  0  0  0  0  0  0  0  0  0  0
  143.2498  133.0411  150.1700 N   0  3  0  0  0  0  0  0  0  0  0  0
  143.5337  133.2888  151.4661 C   0  0  0  0  0  0  0  0  0  0  0  0
  144.7968  132.9429  151.9884 C   0  0  0  0  0  0  0  0  0  0  0  0
  145.7595  132.3365  151.1433 C   0  0  0  0  0  0  0  0  0  0  0  0
  147.0339  131.9672  151.5987 N   0  0  0  0  0  0  0  0  0  0  0  0
  147.3467  131.8797  153.0184 C   0  0  0  0  0  0  0  0  0  0  0  0
  148.2624  133.0247  153.4846 C   0  0  1  0  0  0  0  0  0  0  0  0
  147.4930  134.2503  154.0183 C   0  0  0  0  0  0  0  0  0  0  0  0
  148.4366  135.2877  154.5036 N   0  3  1  0  0  0  0  0  0  0  0  0
  147.7699  136.5188  155.0037 C   0  0  0  0  0  0  0  0  0  0  0  0
  147.1277  136.3129  156.3895 C   0  0  0  0  0  0  0  0  0  0  0  0
  148.1492  135.7693  157.3979 C   0  0  0  0  0  0  0  0  0  0  0  0
  148.8132  134.4955  156.8557 C   0  0  0  0  0  0  0  0  0  0  0  0
  149.4364  134.7447  155.4647 C   0  0  1  0  0  0  0  0  0  0  0  0
  150.1130  133.4891  154.8800 C   0  0  0  0  0  0  0  0  0  0  0  0
  149.1363  132.5299  154.4934 O   0  0  0  0  0  0  0  0  0  0  0  0
  143.7923  132.3178  148.3128 H   0  0  0  0  0  0  0  0  0  0  0  0
  142.7477  133.7538  152.0434 H   0  0  0  0  0  0  0  0  0  0  0  0
  145.0058  133.1501  153.0272 H   0  0  0  0  0  0  0  0  0  0  0  0
  147.7663  131.7791  150.9283 H   0  0  0  0  0  0  0  0  0  0  0  0
  146.4185  131.8988  153.5906 H   0  0  0  0  0  0  0  0  0  0  0  0
  147.8304  130.9233  153.2205 H   0  0  0  0  0  0  0  0  0  0  0  0
  148.8643  133.3324  152.6275 H   0  0  0  0  0  0  0  0  0  0  0  0
  146.8698  134.6692  153.2276 H   0  0  0  0  0  0  0  0  0  0  0  0
  146.8211  133.9539  154.8233 H   0  0  0  0  0  0  0  0  0  0  0  0
  148.5177  137.3105  155.0661 H   0  0  0  0  0  0  0  0  0  0  0  0
  147.0245  136.8576  154.2833 H   0  0  0  0  0  0  0  0  0  0  0  0
  146.7196  137.2574  156.7504 H   0  0  0  0  0  0  0  0  0  0  0  0
  146.2828  135.6277  156.3164 H   0  0  0  0  0  0  0  0  0  0  0  0
  148.9107  136.5258  157.5916 H   0  0  0  0  0  0  0  0  0  0  0  0
  147.6640  135.5641  158.3525 H   0  0  0  0  0  0  0  0  0  0  0  0
  149.5827  134.1615  157.5525 H   0  0  0  0  0  0  0  0  0  0  0  0
  148.0792  133.6904  156.8070 H   0  0  0  0  0  0  0  0  0  0  0  0
  150.2100  135.5047  155.5855 H   0  0  0  0  0  0  0  0  0  0  0  0
  150.7294  133.7524  154.0189 H   0  0  0  0  0  0  0  0  0  0  0  0
  150.7816  133.0396  155.6146 H   0  0  0  0  0  0  0  0  0  0  0  0
  148.9620  135.5695  153.6881 H   0  0  0  0  0  0  0  0  0  0  0  0
  142.3299  133.2994  149.8119 H   0  0  0  0  0  0  0  0  0  0  0  0
  1  2  1  0  0  0  0
  2  7  1  0  0  0  0
  2  3  2  0  0  0  0
  3  4  1  0  0  0  0
  3 20  1  0  0  0  0
  4  5  2  0  0  0  0
  4 41  1  0  0  0  0
  5  6  1  0  0  0  0
  5 21  1  0  0  0  0
  6  7  2  0  0  0  0
  6 22  1  0  0  0  0
  7  8  1  0  0  0  0
  8  9  1  0  0  0  0
  8 23  1  0  0  0  0
  9 10  1  0  0  0  0
  9 24  1  0  0  0  0
  9 25  1  0  0  0  0
 10 19  1  0  0  0  0
 10 11  1  0  0  0  0
 10 26  1  0  0  0  0
 11 12  1  0  0  0  0
 11 27  1  0  0  0  0
 11 28  1  0  0  0  0
 12 17  1  0  0  0  0
 12 13  1  0  0  0  0
 12 40  1  0  0  0  0
 13 14  1  0  0  0  0
 13 29  1  0  0  0  0
 13 30  1  0  0  0  0
 14 15  1  0  0  0  0
 14 31  1  0  0  0  0
 14 32  1  0  0  0  0
 15 16  1  0  0  0  0
 15 33  1  0  0  0  0
 15 34  1  0  0  0  0
 16 17  1  0  0  0  0
 16 35  1  0  0  0  0
 16 36  1  0  0  0  0
 17 18  1  0  0  0  0
 17 37  1  0  0  0  0
 18 19  1  0  0  0  0
 18 38  1  0  0  0  0
 18 39  1  0  0  0  0
M  CHG  1   4   1
M  CHG  1  12   1
M  END
> <s_m_source_file>
AV-unprocessed.smi

> <i_m_source_file_index>
2822

> <i_lp_mmshare_version>
43012

> <i_f3d_flags>
0

> <s_epik_input>
Q2xjMVtjSF1uW2NIXVtjSF1jMVtOSF1bQ0gyXVtDQEhdKFtDSDJdMilPW0NIMl1bQ0BASF0oTjIzKVtDSDJdW0NIMl1bQ0gyXVtDSDJdMw==

> <s_epik_cmdline>
J2VwaWtfcHl0aG9uJywgJy1waCcsICc3LjAnLCAnLXRuJywgJzgnLCAnLW1hJywgJzIwMCcsICctbWV0YWxfYmluZGluZycsICctaW1hZScsICc8aW5maWxlLm1hZT4nLCAnLW9tYWUnLCAnPG91dGZpbGUubWFlPic=

> <r_lp_tautomer_probability>
1

> <r_epik_Ionization_Penalty>
0.254999

> <r_epik_Ionization_Penalty_Charging>
0.254956

> <r_epik_Ionization_Penalty_Neutral>
4.33524e-05

> <r_epik_State_Penalty>
0.230978

> <r_epik_Charging_Adjusted_Penalty>
0.485934

> <i_epik_Tot_Q>
2

> <i_epik_Tot_abs_Q>
2

> <r_epik_Metal_State_Penalty>
3.47007

> <b_epik_Metal_Only>
0

> <s_lp_Force_Field>
OPLS_2005

> <r_lp_Energy>
41.3986

> <b_lp_Chiralities_Consistent>
1

> <s_lp_Variant>
AV-unprocessed.smi:2822-4

> <Gold.Version>
5.8.1

> <Gold.Id.Protein>
6NUR|6NUR_protein|mol2

> <Gold.PLP.Fitness>
44.5957

> <Gold.PLP.PLP>
-30.7088

> <Gold.PLP.part.hbond>
-3.0000

> <Gold.PLP.part.metal>
0.0000

> <Gold.PLP.part.buried>
-3.5336

> <Gold.PLP.part.nonpolar>
-24.2156

> <Gold.PLP.part.repulsive>
0.1154

> <Gold.PLP.ligand.clash>
0.0000

> <Gold.PLP.ligand.torsion>
0.5575

> <Gold.PLP.Chemscore.Hbond>
5.0000

> <Gold.PLP.Chemscore.CHOScore>
0.0000

> <Gold.PLP.Chemscore.Metal>
0.0000

> <Gold.Chemscore.Hbonds>
donor molecule, donor type, donor heavy atom, donor atom, acceptor molecule, acceptor atom, score
      L1  H     4    41       P1 10186  2.00
      L1  H     8    23       P1 10747  1.00
      L1  H    12    40       P1  7948  1.98

> <Gold.PLP.Chemscore.Internal.Correction>
0.0019

> <Gold.Rescore>
     Score         DG    S(hbond)    S(metal)    S(lipo)     H(rot)  DE(clash)    DE(int)     intcor
     20.98     -22.10       2.73        0.00      90.21       1.20       0.56       0.55       ----

> <Gold.Chemscore.Fitness>
20.9832

> <Gold.Chemscore.DG>
-22.0966

> <Gold.Chemscore.ZeroCoef>
-5.4800

> <Gold.Chemscore.Hbond>
2.7318

> <Gold.Chemscore.Metal>
0.0000

> <Gold.Chemscore.Lipo>
90.2098

> <Gold.Chemscore.Internal_Hbond>
0.0000

> <Gold.Chemscore.DEClash>
0.5628

> <Gold.Chemscore.DEInternal>
0.5506

> <Gold.Chemscore.Rot>
1.1962

> <Gold.Chemscore.Internal.Correction>
   9.000000E+99

> <Gold.Chemscore.Hbonds>
donor molecule, donor type, donor heavy atom, donor atom, acceptor molecule, acceptor atom, score
      L1  H     4    41       P1 10186  0.98
      L1  H     8    23       P1 10747  0.97
      L1  H    12    40       P1  7948  0.80

> <Gold.Chemscore.Hbond.Weighted>
-9.1244

> <Gold.Chemscore.Metal.Weighted>
-0.0000

> <Gold.Chemscore.Lipo.Weighted>
-10.5545

> <Gold.Chemscore.Internal_Hbond.Weighted>
0.0000

> <Gold.Chemscore.DEClash.Weighted>
0.5628

> <Gold.Chemscore.DEInternal.Weighted>
0.5506

> <Gold.Chemscore.Rot.Weighted>
3.0623

> <Gold.Chemscore.Internal.Correction.Weighted>
   9.000000E+99

> <Gold.Protein.RotatedTorsions>
[ 6907 6896 6895 6894 ] final  -76.04 input  -60.11 | X-H torsion
[ 7974 7965 7964 7962 ] final  109.05 input  175.53 | X-H torsion
[ 8008 7997 7996 7995 ] final  -90.01 input   59.86 | X-H torsion
[ 10167 10162 10161 10158 ] final   -6.22 input  -65.29 | X-H torsion
[ 10718 10713 10712 10709 ] final -154.54 input   66.30 | X-H torsion
[ 10763 10752 10751 10750 ] final  178.25 input  -60.55 | X-H torsion
[ 11005 11000 10999 10996 ] final   28.41 input  -57.11 | X-H torsion

> <Gold.Protein.ActiveResidues>
 VAL166  LYS551  ARG553  GLY616  TRP617  ASP618  TYR619  PRO620  LYS621  CYS622 
 ASP623  PHE694  ASN695  SER759  ASP760  ASP761  ALA762  ILE779  LEU786  VAL792 
 PHE793  MET794  SER795  GLU796  ALA797  LYS798  CYS799  TRP800  GLU811  SER814 

> <Gold.Protein.RotatedAtoms>
  150.7040  134.4632  159.5390 H   0  0  0  0  0  0  0  0  0  0  0  0  # atno 6907 bound_to 6896
  152.2302  134.8326  160.0483 H   0  0  0  0  0  0  0  0  0  0  0  0  # atno 6908 bound_to 6896
  151.9145  133.3534  159.3912 H   0  0  0  0  0  0  0  0  0  0  0  0  # atno 6909 bound_to 6896
  145.2728  139.2660  143.3957 H   0  0  0  0  0  0  0  0  0  0  0  0  # atno 7974 bound_to 7965
  154.6934  140.0535  157.0386 H   0  0  0  0  0  0  0  0  0  0  0  0  # atno 8008 bound_to 7997
  155.0785  140.3207  155.4590 H   0  0  0  0  0  0  0  0  0  0  0  0  # atno 8009 bound_to 7997
  156.2736  140.2069  156.5913 H   0  0  0  0  0  0  0  0  0  0  0  0  # atno 8010 bound_to 7997
  140.6990  143.6218  150.8605 H   0  0  0  0  0  0  0  0  0  0  0  0  # atno 10167 bound_to 10162
  156.5007  130.8390  151.2608 H   0  0  0  0  0  0  0  0  0  0  0  0  # atno 10718 bound_to 10713
  154.5051  135.2785  155.1388 H   0  0  0  0  0  0  0  0  0  0  0  0  # atno 10763 bound_to 10752
  154.3006  135.6249  153.5427 H   0  0  0  0  0  0  0  0  0  0  0  0  # atno 10764 bound_to 10752
  152.9909  135.5696  154.5503 H   0  0  0  0  0  0  0  0  0  0  0  0  # atno 10765 bound_to 10752
  140.3159  134.2597  155.7725 H   0  0  0  0  0  0  0  0  0  0  0  0  # atno 11005 bound_to 11000
  146.3241  140.3175  142.8631 LP  0  0  0  0  0  0  0  0  0  0  0  0  # atno 17320 bound_to 7965
  144.9320  140.7985  143.5683 LP  0  0  0  0  0  0  0  0  0  0  0  0  # atno 17321 bound_to 7965
  139.9939  143.5817  152.2900 LP  0  0  0  0  0  0  0  0  0  0  0  0  # atno 17342 bound_to 10162
  139.6482  144.7659  151.2201 LP  0  0  0  0  0  0  0  0  0  0  0  0  # atno 17343 bound_to 10162
  157.7463  130.9983  150.2846 LP  0  0  0  0  0  0  0  0  0  0  0  0  # atno 17370 bound_to 10713
  156.3336  130.3804  149.7469 LP  0  0  0  0  0  0  0  0  0  0  0  0  # atno 17371 bound_to 10713
  141.2098  133.7739  156.9975 LP  0  0  0  0  0  0  0  0  0  0  0  0  # atno 17394 bound_to 11000
  140.0984  134.9550  157.1885 LP  0  0  0  0  0  0  0  0  0  0  0  0  # atno 17395 bound_to 11000

$$$$
