AV-unprocessed.smi:1417|AV-procd|sdf|5766|dock7
  -GOLD-   22720 5403D 1   1.00000     0.00000
 Structure written by MMmdl.
 40 41  0  0  0  0  0  0  0  0  2 V2000
  143.9627  143.9783  162.8617 C   0  0  0  0  0  0  0  0  0  0  0  0
  144.7811  143.6354  161.6644 C   0  0  0  0  0  0  0  0  0  0  0  0
  144.5514  143.7378  160.3215 C   0  0  0  0  0  0  0  0  0  0  0  0
  145.7561  143.2314  159.7520 C   0  0  0  0  0  0  0  0  0  0  0  0
  146.0471  143.1118  158.3685 N   0  0  0  0  0  0  0  0  0  0  0  0
  146.4225  142.0170  157.6863 C   0  0  0  0  0  0  0  0  0  0  0  0
  146.5685  140.8924  158.1649 O   0  0  0  0  0  0  0  0  0  0  0  0
  146.6267  142.2982  156.3910 N   0  0  0  0  0  0  0  0  0  0  0  0
  147.0464  141.3333  155.3790 C   0  0  2  0  0  0  0  0  0  0  0  0
  146.7820  141.8752  153.9618 C   0  0  0  0  0  0  0  0  0  0  0  0
  147.1185  140.8229  152.8937 C   0  0  0  0  0  0  0  0  0  0  0  0
  146.3534  139.5686  153.1225 N   0  3  1  0  0  0  0  0  0  0  0  0
  146.5251  138.5735  152.0332 C   0  0  0  0  0  0  0  0  0  0  0  0
  145.7326  137.2847  152.2762 C   0  0  0  0  0  0  0  0  0  0  0  0
  146.4289  136.1468  152.3191 N   0  0  0  0  0  0  0  0  0  0  0  0
  144.5139  137.3137  152.4380 O   0  0  0  0  0  0  0  0  0  0  0  0
  146.6315  138.9997  154.4656 C   0  0  0  0  0  0  0  0  0  0  0  0
  146.2902  140.0091  155.5752 C   0  0  0  0  0  0  0  0  0  0  0  0
  146.6323  142.8565  160.6656 N   0  0  0  0  0  0  0  0  0  0  0  0
  146.0153  143.1127  161.8957 O   0  0  0  0  0  0  0  0  0  0  0  0
  142.9243  144.1607  162.5842 H   0  0  0  0  0  0  0  0  0  0  0  0
  144.3458  144.8764  163.3462 H   0  0  0  0  0  0  0  0  0  0  0  0
  143.9801  143.1667  163.5893 H   0  0  0  0  0  0  0  0  0  0  0  0
  143.6605  144.1162  159.8437 H   0  0  0  0  0  0  0  0  0  0  0  0
  145.9632  143.9660  157.8372 H   0  0  0  0  0  0  0  0  0  0  0  0
  146.4813  143.2490  156.0833 H   0  0  0  0  0  0  0  0  0  0  0  0
  148.1147  141.1379  155.4931 H   0  0  0  0  0  0  0  0  0  0  0  0
  145.7351  142.1675  153.8641 H   0  0  0  0  0  0  0  0  0  0  0  0
  147.3712  142.7757  153.7844 H   0  0  0  0  0  0  0  0  0  0  0  0
  146.8903  141.2295  151.9080 H   0  0  0  0  0  0  0  0  0  0  0  0
  148.1880  140.6065  152.9050 H   0  0  0  0  0  0  0  0  0  0  0  0
  146.2552  139.0175  151.0734 H   0  0  0  0  0  0  0  0  0  0  0  0
  147.5744  138.2842  151.9611 H   0  0  0  0  0  0  0  0  0  0  0  0
  145.9584  135.2667  152.4736 H   0  0  0  0  0  0  0  0  0  0  0  0
  147.4310  136.1698  152.1933 H   0  0  0  0  0  0  0  0  0  0  0  0
  146.0400  138.0953  154.6131 H   0  0  0  0  0  0  0  0  0  0  0  0
  147.6809  138.7073  154.5295 H   0  0  0  0  0  0  0  0  0  0  0  0
  146.5321  139.5807  156.5487 H   0  0  0  0  0  0  0  0  0  0  0  0
  145.2144  140.1922  155.5767 H   0  0  0  0  0  0  0  0  0  0  0  0
  145.3742  139.8174  153.1174 H   0  0  0  0  0  0  0  0  0  0  0  0
  1  2  1  0  0  0  0
  1 21  1  0  0  0  0
  1 22  1  0  0  0  0
  1 23  1  0  0  0  0
  2 20  1  0  0  0  0
  2  3  2  0  0  0  0
  3  4  1  0  0  0  0
  3 24  1  0  0  0  0
  4  5  1  0  0  0  0
  4 19  2  0  0  0  0
  5  6  1  0  0  0  0
  5 25  1  0  0  0  0
  6  7  2  0  0  0  0
  6  8  1  0  0  0  0
  8  9  1  0  0  0  0
  8 26  1  0  0  0  0
  9 18  1  0  0  0  0
  9 10  1  0  0  0  0
  9 27  1  0  0  0  0
 10 11  1  0  0  0  0
 10 28  1  0  0  0  0
 10 29  1  0  0  0  0
 11 12  1  0  0  0  0
 11 30  1  0  0  0  0
 11 31  1  0  0  0  0
 12 13  1  0  0  0  0
 12 17  1  0  0  0  0
 12 40  1  0  0  0  0
 13 14  1  0  0  0  0
 13 32  1  0  0  0  0
 13 33  1  0  0  0  0
 14 15  1  0  0  0  0
 14 16  2  0  0  0  0
 15 34  1  0  0  0  0
 15 35  1  0  0  0  0
 17 18  1  0  0  0  0
 17 36  1  0  0  0  0
 17 37  1  0  0  0  0
 18 38  1  0  0  0  0
 18 39  1  0  0  0  0
 19 20  1  0  0  0  0
M  CHG  1  12   1
M  END
> <s_m_source_file>
AV-unprocessed.smi

> <i_m_source_file_index>
1417

> <i_lp_mmshare_version>
43012

> <i_f3d_flags>
0

> <s_epik_input>
W0NIM11jMVtjSF1jKG5vMSlbTkhdQyg9TylbTkhdW0NIXTJbQ0gyXVtDSDJdTihbQ0gyXVtDSDJdMilbQ0gyXUMoPU8pW05IMl0=

> <s_epik_cmdline>
J2VwaWtfcHl0aG9uJywgJy1waCcsICc3LjAnLCAnLXRuJywgJzgnLCAnLW1hJywgJzIwMCcsICctbWV0YWxfYmluZGluZycsICctaW1hZScsICc8aW5maWxlLm1hZT4nLCAnLW9tYWUnLCAnPG91dGZpbGUubWFlPic=

> <r_epik_Ionization_Penalty>
0.867698

> <r_epik_Ionization_Penalty_Charging>
0.867623

> <r_epik_Ionization_Penalty_Neutral>
7.46743e-05

> <r_epik_State_Penalty>
0.904669

> <r_epik_Charging_Adjusted_Penalty>
1.77229

> <i_epik_Tot_Q>
1

> <i_epik_Tot_abs_Q>
1

> <r_epik_Metal_State_Penalty>
0.930696

> <b_epik_Metal_Only>
0

> <s_lp_Force_Field>
OPLS_2005

> <r_lp_Energy>
11.2149

> <b_lp_Chiralities_Consistent>
1

> <s_lp_Variant>
AV-unprocessed.smi:1417-2

> <Gold.Version>
5.8.1

> <Gold.Id.Protein>
6NUR|6NUR_protein|mol2

> <Gold.PLP.Fitness>
41.4230

> <Gold.PLP.PLP>
-28.9425

> <Gold.PLP.part.hbond>
-4.8620

> <Gold.PLP.part.metal>
0.0000

> <Gold.PLP.part.buried>
-4.6774

> <Gold.PLP.part.nonpolar>
-20.7232

> <Gold.PLP.part.repulsive>
0.8151

> <Gold.PLP.ligand.clash>
0.0000

> <Gold.PLP.ligand.torsion>
0.7598

> <Gold.PLP.Chemscore.Hbond>
4.6576

> <Gold.PLP.Chemscore.CHOScore>
0.0000

> <Gold.PLP.Chemscore.Metal>
0.0000

> <Gold.Chemscore.Hbonds>
donor molecule, donor type, donor heavy atom, donor atom, acceptor molecule, acceptor atom, score
      L1  H    12    40       P1 10175  2.00
      L1  H    15    35       P1  7948  1.00
      P1  H  6933  6944       L1    19  0.64
      P1  H  6934  6946       L1    19  0.96

> <Gold.PLP.Chemscore.Internal.Correction>
0.0273

> <Gold.Rescore>
     Score         DG    S(hbond)    S(metal)    S(lipo)     H(rot)  DE(clash)    DE(int)     intcor
     13.75     -16.20       3.02        0.00      50.31       2.05       0.16       2.29       ----

> <Gold.Chemscore.Fitness>
13.7522

> <Gold.Chemscore.DG>
-16.2045

> <Gold.Chemscore.ZeroCoef>
-5.4800

> <Gold.Chemscore.Hbond>
3.0166

> <Gold.Chemscore.Metal>
0.0000

> <Gold.Chemscore.Lipo>
50.3083

> <Gold.Chemscore.Internal_Hbond>
0.0000

> <Gold.Chemscore.DEClash>
0.1636

> <Gold.Chemscore.DEInternal>
2.2887

> <Gold.Chemscore.Rot>
2.0457

> <Gold.Chemscore.Internal.Correction>
   9.000000E+99

> <Gold.Chemscore.Hbonds>
donor molecule, donor type, donor heavy atom, donor atom, acceptor molecule, acceptor atom, score
      L1  H    12    40       P1 10175  0.99
      L1  H    15    35       P1  7948  0.94
      P1  H  6933  6944       L1    19  0.09
      P1  H  6934  6946       L1    19  0.27

> <Gold.Chemscore.Hbond.Weighted>
-10.0756

> <Gold.Chemscore.Metal.Weighted>
-0.0000

> <Gold.Chemscore.Lipo.Weighted>
-5.8861

> <Gold.Chemscore.Internal_Hbond.Weighted>
0.0000

> <Gold.Chemscore.DEClash.Weighted>
0.1636

> <Gold.Chemscore.DEInternal.Weighted>
2.2887

> <Gold.Chemscore.Rot.Weighted>
5.2371

> <Gold.Chemscore.Internal.Correction.Weighted>
   9.000000E+99

> <Gold.Protein.RotatedTorsions>
[ 6907 6896 6895 6894 ] final -155.52 input  -60.11 | X-H torsion
[ 7974 7965 7964 7962 ] final  -85.12 input  175.53 | X-H torsion
[ 8008 7997 7996 7995 ] final  -68.48 input   59.86 | X-H torsion
[ 10167 10162 10161 10158 ] final -146.89 input  -65.29 | X-H torsion
[ 10718 10713 10712 10709 ] final  109.85 input   66.30 | X-H torsion
[ 10763 10752 10751 10750 ] final  -46.45 input  -60.55 | X-H torsion
[ 11005 11000 10999 10996 ] final  166.68 input  -57.11 | X-H torsion

> <Gold.Protein.ActiveResidues>
 VAL166  LYS551  ARG553  GLY616  TRP617  ASP618  TYR619  PRO620  LYS621  CYS622 
 ASP623  PHE694  ASN695  SER759  ASP760  ASP761  ALA762  ILE779  LEU786  VAL792 
 PHE793  MET794  SER795  GLU796  ALA797  LYS798  CYS799  TRP800  GLU811  SER814 

> <Gold.Protein.RotatedAtoms>
  151.2737  133.4243  159.2622 H   0  0  0  0  0  0  0  0  0  0  0  0  # atno 6907 bound_to 6896
  151.0422  134.9615  159.8178 H   0  0  0  0  0  0  0  0  0  0  0  0  # atno 6908 bound_to 6896
  152.5367  134.2695  159.9018 H   0  0  0  0  0  0  0  0  0  0  0  0  # atno 6909 bound_to 6896
  145.4974  140.9549  143.1778 H   0  0  0  0  0  0  0  0  0  0  0  0  # atno 7974 bound_to 7965
  154.4871  140.0872  156.7511 H   0  0  0  0  0  0  0  0  0  0  0  0  # atno 8008 bound_to 7997
  155.4323  140.3450  155.4263 H   0  0  0  0  0  0  0  0  0  0  0  0  # atno 8009 bound_to 7997
  156.1277  140.1492  156.9100 H   0  0  0  0  0  0  0  0  0  0  0  0  # atno 8010 bound_to 7997
  139.7672  143.8290  152.2618 H   0  0  0  0  0  0  0  0  0  0  0  0  # atno 10167 bound_to 10162
  157.6522  131.0921  150.6515 H   0  0  0  0  0  0  0  0  0  0  0  0  # atno 10718 bound_to 10713
  154.0452  135.6638  153.4794 H   0  0  0  0  0  0  0  0  0  0  0  0  # atno 10763 bound_to 10752
  153.0486  135.5099  154.7804 H   0  0  0  0  0  0  0  0  0  0  0  0  # atno 10764 bound_to 10752
  154.6793  135.3042  154.9601 H   0  0  0  0  0  0  0  0  0  0  0  0  # atno 10765 bound_to 10752
  140.2690  134.7842  157.3658 H   0  0  0  0  0  0  0  0  0  0  0  0  # atno 11005 bound_to 11000
  144.7799  139.6549  143.7159 LP  0  0  0  0  0  0  0  0  0  0  0  0  # atno 17320 bound_to 7965
  146.2247  139.5700  142.9595 LP  0  0  0  0  0  0  0  0  0  0  0  0  # atno 17321 bound_to 7965
  139.8314  144.7252  150.9446 LP  0  0  0  0  0  0  0  0  0  0  0  0  # atno 17342 bound_to 10162
  140.7811  143.4067  151.1060 LP  0  0  0  0  0  0  0  0  0  0  0  0  # atno 17343 bound_to 10162
  156.6825  130.4571  149.5623 LP  0  0  0  0  0  0  0  0  0  0  0  0  # atno 17370 bound_to 10713
  156.1919  130.6565  151.1070 LP  0  0  0  0  0  0  0  0  0  0  0  0  # atno 17371 bound_to 10713
  140.1392  134.4994  155.8045 LP  0  0  0  0  0  0  0  0  0  0  0  0  # atno 17394 bound_to 11000
  141.2180  133.6819  156.7179 LP  0  0  0  0  0  0  0  0  0  0  0  0  # atno 17395 bound_to 11000

$$$$
