AV-unprocessed.smi:557|AV-procd|sdf|2914|dock2
  -GOLD-   2262023403D 1   1.00000     0.00000
 Structure written by MMmdl.
 47 49  0  0  0  0  0  0  0  0  2 V2000
  151.0556  142.1579  157.3300 C   0  0  0  0  0  0  0  0  0  0  0  0
  150.7071  141.2149  156.2889 N   0  0  0  0  0  0  0  0  0  0  0  0
  151.2518  139.9749  156.0336 C   0  0  0  0  0  0  0  0  0  0  0  0
  150.6008  139.4566  154.9497 C   0  0  0  0  0  0  0  0  0  0  0  0
  150.8186  138.1365  154.2652 C   0  0  0  0  0  0  0  0  0  0  0  0
  150.3260  136.9691  155.1299 C   0  0  0  0  0  0  0  0  0  0  0  0
  149.5578  136.0221  154.3266 N   0  0  0  0  0  0  0  0  0  0  0  0
  148.9006  134.9342  154.7621 C   0  0  0  0  0  0  0  0  0  0  0  0
  148.8768  134.6192  155.9502 O   0  0  0  0  0  0  0  0  0  0  0  0
  148.2735  134.2372  153.7987 N   0  0  0  0  0  0  0  0  0  0  0  0
  147.4983  133.0158  154.0073 C   0  0  2  0  0  0  0  0  0  0  0  0
  148.3690  131.7446  154.0066 C   0  0  0  0  0  0  0  0  0  0  0  0
  147.5439  130.7101  153.2344 C   0  0  0  0  0  0  0  0  0  0  0  0
  146.8346  131.5292  152.2450 N   0  3  1  0  0  0  0  0  0  0  0  0
  145.7440  130.9095  151.4653 C   0  0  0  0  0  0  0  0  0  0  0  0
  145.2943  131.9082  150.3771 C   0  0  0  0  0  0  0  0  0  0  0  0
  144.9535  133.2977  150.9624 C   0  0  0  0  0  0  0  0  0  0  0  0
  146.0806  133.8308  151.8735 C   0  0  0  0  0  0  0  0  0  0  0  0
  146.4154  132.7637  152.9310 C   0  0  2  0  0  0  0  0  0  0  0  0
  149.6595  140.4712  154.6132 C   0  0  0  0  0  0  0  0  0  0  0  0
  149.7264  141.5214  155.4151 N   0  0  0  0  0  0  0  0  0  0  0  0
  151.9307  141.8050  157.8767 H   0  0  0  0  0  0  0  0  0  0  0  0
  150.2220  142.2647  158.0245 H   0  0  0  0  0  0  0  0  0  0  0  0
  151.2826  143.1293  156.8895 H   0  0  0  0  0  0  0  0  0  0  0  0
  152.0503  139.5678  156.6364 H   0  0  0  0  0  0  0  0  0  0  0  0
  150.3041  138.1168  153.3036 H   0  0  0  0  0  0  0  0  0  0  0  0
  151.8762  137.9962  154.0386 H   0  0  0  0  0  0  0  0  0  0  0  0
  151.1782  136.4583  155.5817 H   0  0  0  0  0  0  0  0  0  0  0  0
  149.7018  137.3454  155.9423 H   0  0  0  0  0  0  0  0  0  0  0  0
  149.5193  136.2107  153.3351 H   0  0  0  0  0  0  0  0  0  0  0  0
  148.3501  134.5739  152.8497 H   0  0  0  0  0  0  0  0  0  0  0  0
  147.0039  133.0778  154.9789 H   0  0  0  0  0  0  0  0  0  0  0  0
  149.3045  131.9266  153.4751 H   0  0  0  0  0  0  0  0  0  0  0  0
  148.6231  131.4081  155.0123 H   0  0  0  0  0  0  0  0  0  0  0  0
  148.1606  129.9441  152.7641 H   0  0  0  0  0  0  0  0  0  0  0  0
  146.8244  130.2219  153.8937 H   0  0  0  0  0  0  0  0  0  0  0  0
  146.0979  129.9862  151.0054 H   0  0  0  0  0  0  0  0  0  0  0  0
  144.9130  130.6476  152.1220 H   0  0  0  0  0  0  0  0  0  0  0  0
  146.0931  132.0188  149.6424 H   0  0  0  0  0  0  0  0  0  0  0  0
  144.4353  131.5098  149.8367 H   0  0  0  0  0  0  0  0  0  0  0  0
  144.7568  134.0061  150.1570 H   0  0  0  0  0  0  0  0  0  0  0  0
  144.0302  133.2252  151.5384 H   0  0  0  0  0  0  0  0  0  0  0  0
  146.9636  134.0680  151.2783 H   0  0  0  0  0  0  0  0  0  0  0  0
  145.7593  134.7568  152.3506 H   0  0  0  0  0  0  0  0  0  0  0  0
  145.4959  132.5375  153.4758 H   0  0  0  0  0  0  0  0  0  0  0  0
  148.9350  140.4754  153.8121 H   0  0  0  0  0  0  0  0  0  0  0  0
  147.5388  131.8092  151.5771 H   0  0  0  0  0  0  0  0  0  0  0  0
  1  2  1  0  0  0  0
  1 22  1  0  0  0  0
  1 23  1  0  0  0  0
  1 24  1  0  0  0  0
  2 21  1  0  0  0  0
  2  3  1  0  0  0  0
  3  4  2  0  0  0  0
  3 25  1  0  0  0  0
  4  5  1  0  0  0  0
  4 20  1  0  0  0  0
  5  6  1  0  0  0  0
  5 26  1  0  0  0  0
  5 27  1  0  0  0  0
  6  7  1  0  0  0  0
  6 28  1  0  0  0  0
  6 29  1  0  0  0  0
  7  8  1  0  0  0  0
  7 30  1  0  0  0  0
  8  9  2  0  0  0  0
  8 10  1  0  0  0  0
 10 11  1  0  0  0  0
 10 31  1  0  0  0  0
 11 19  1  0  0  0  0
 11 12  1  0  0  0  0
 11 32  1  0  0  0  0
 12 13  1  0  0  0  0
 12 33  1  0  0  0  0
 12 34  1  0  0  0  0
 13 14  1  0  0  0  0
 13 35  1  0  0  0  0
 13 36  1  0  0  0  0
 14 19  1  0  0  0  0
 14 15  1  0  0  0  0
 14 47  1  0  0  0  0
 15 16  1  0  0  0  0
 15 37  1  0  0  0  0
 15 38  1  0  0  0  0
 16 17  1  0  0  0  0
 16 39  1  0  0  0  0
 16 40  1  0  0  0  0
 17 18  1  0  0  0  0
 17 41  1  0  0  0  0
 17 42  1  0  0  0  0
 18 19  1  0  0  0  0
 18 43  1  0  0  0  0
 18 44  1  0  0  0  0
 19 45  1  0  0  0  0
 20 21  2  0  0  0  0
 20 46  1  0  0  0  0
M  CHG  1  14   1
M  END
> <s_m_source_file>
AV-unprocessed.smi

> <i_m_source_file_index>
557

> <i_lp_mmshare_version>
43012

> <i_f3d_flags>
0

> <s_epik_input>
W0NIM11uMVtjSF1jKFtjSF1uMSlbQ0gyXVtDSDJdW05IXUMoPU8pW05IXVtDQEhdKFtDSDJdW0NIMl0yKVtDQEhdKE4yMylbQ0gyXVtDSDJdW0NIMl1bQ0gyXTM=

> <s_epik_cmdline>
J2VwaWtfcHl0aG9uJywgJy1waCcsICc3LjAnLCAnLXRuJywgJzgnLCAnLW1hJywgJzIwMCcsICctbWV0YWxfYmluZGluZycsICctaW1hZScsICc8aW5maWxlLm1hZT4nLCAnLW9tYWUnLCAnPG91dGZpbGUubWFlPic=

> <r_lp_tautomer_probability>
1

> <r_epik_Ionization_Penalty>
0.000956547

> <r_epik_Ionization_Penalty_Charging>
0.000435796

> <r_epik_Ionization_Penalty_Neutral>
0.000520752

> <r_epik_State_Penalty>
-0

> <r_epik_Charging_Adjusted_Penalty>
0.000435796

> <i_epik_Tot_Q>
1

> <i_epik_Tot_abs_Q>
1

> <r_epik_Metal_State_Penalty>
-0

> <b_epik_Metal_Only>
0

> <s_lp_Force_Field>
OPLS_2005

> <r_lp_Energy>
46.5188

> <b_lp_Chiralities_Consistent>
1

> <s_lp_Variant>
AV-unprocessed.smi:557-1

> <Gold.Version>
5.8.1

> <Gold.Id.Protein>
6NUR|6NUR_protein|mol2

> <Gold.PLP.Fitness>
46.6207

> <Gold.PLP.PLP>
-37.6455

> <Gold.PLP.part.hbond>
-3.5988

> <Gold.PLP.part.metal>
0.0000

> <Gold.PLP.part.buried>
-1.5612

> <Gold.PLP.part.nonpolar>
-32.9574

> <Gold.PLP.part.repulsive>
0.1958

> <Gold.PLP.ligand.clash>
0.0000

> <Gold.PLP.ligand.torsion>
0.8000

> <Gold.PLP.Chemscore.Hbond>
2.5616

> <Gold.PLP.Chemscore.CHOScore>
0.9611

> <Gold.PLP.Chemscore.Metal>
0.0000

> <Gold.Chemscore.Hbonds>
donor molecule, donor type, donor heavy atom, donor atom, acceptor molecule, acceptor atom, score
      L1  H     7    30       P1  7948  1.00
      L1  H    10    31       P1  7948  0.80
      L1  H    14    47       P1 10747  0.50
      L1  C    20    46       P1  7957  0.35

> <Gold.PLP.Chemscore.Internal.Correction>
0.0071

> <Gold.Rescore>
     Score         DG    S(hbond)    S(metal)    S(lipo)     H(rot)  DE(clash)    DE(int)     intcor
     16.40     -17.17       1.47        0.00      93.13       1.60       0.08       0.70       ----

> <Gold.Chemscore.Fitness>
16.4029

> <Gold.Chemscore.DG>
-17.1750

> <Gold.Chemscore.ZeroCoef>
-5.4800

> <Gold.Chemscore.Hbond>
1.4668

> <Gold.Chemscore.Metal>
0.0000

> <Gold.Chemscore.Lipo>
93.1333

> <Gold.Chemscore.Internal_Hbond>
0.0000

> <Gold.Chemscore.DEClash>
0.0757

> <Gold.Chemscore.DEInternal>
0.6964

> <Gold.Chemscore.Rot>
1.6018

> <Gold.Chemscore.Internal.Correction>
   9.000000E+99

> <Gold.Chemscore.Hbonds>
donor molecule, donor type, donor heavy atom, donor atom, acceptor molecule, acceptor atom, score
      L1  H     7    30       P1  7948  0.42
      L1  H    10    31       P1  7948  0.27
      L1  H    14    47       P1 10747  0.51

> <Gold.Chemscore.Hbond.Weighted>
-4.8990

> <Gold.Chemscore.Metal.Weighted>
-0.0000

> <Gold.Chemscore.Lipo.Weighted>
-10.8966

> <Gold.Chemscore.Internal_Hbond.Weighted>
0.0000

> <Gold.Chemscore.DEClash.Weighted>
0.0757

> <Gold.Chemscore.DEInternal.Weighted>
0.6964

> <Gold.Chemscore.Rot.Weighted>
4.1006

> <Gold.Chemscore.Internal.Correction.Weighted>
   9.000000E+99

> <Gold.Protein.RotatedTorsions>
[ 6907 6896 6895 6894 ] final  119.46 input  -60.11 | X-H torsion
[ 7974 7965 7964 7962 ] final -101.47 input  175.53 | X-H torsion
[ 8008 7997 7996 7995 ] final  -23.40 input   59.86 | X-H torsion
[ 10167 10162 10161 10158 ] final  -96.97 input  -65.29 | X-H torsion
[ 10718 10713 10712 10709 ] final  -90.28 input   66.30 | X-H torsion
[ 10763 10752 10751 10750 ] final  140.21 input  -60.55 | X-H torsion
[ 11005 11000 10999 10996 ] final -147.92 input  -57.11 | X-H torsion

> <Gold.Protein.ActiveResidues>
 VAL166  LYS551  ARG553  GLY616  TRP617  ASP618  TYR619  PRO620  LYS621  CYS622 
 ASP623  PHE694  ASN695  SER759  ASP760  ASP761  ALA762  ILE779  LEU786  VAL792 
 PHE793  MET794  SER795  GLU796  ALA797  LYS798  CYS799  TRP800  GLU811  SER814 

> <Gold.Protein.RotatedAtoms>
  152.4470  133.7556  159.6717 H   0  0  0  0  0  0  0  0  0  0  0  0  # atno 6907 bound_to 6896
  150.8373  133.7983  159.3081 H   0  0  0  0  0  0  0  0  0  0  0  0  # atno 6908 bound_to 6896
  151.5619  135.1068  160.0026 H   0  0  0  0  0  0  0  0  0  0  0  0  # atno 6909 bound_to 6896
  145.2811  140.9327  143.2931 H   0  0  0  0  0  0  0  0  0  0  0  0  # atno 7974 bound_to 7965
  154.4587  140.1981  156.0305 H   0  0  0  0  0  0  0  0  0  0  0  0  # atno 8008 bound_to 7997
  156.0798  140.3273  155.7651 H   0  0  0  0  0  0  0  0  0  0  0  0  # atno 8009 bound_to 7997
  155.5130  140.0563  157.2911 H   0  0  0  0  0  0  0  0  0  0  0  0  # atno 8010 bound_to 7997
  140.2882  143.3238  152.0372 H   0  0  0  0  0  0  0  0  0  0  0  0  # atno 10167 bound_to 10162
  155.9987  130.4904  150.5299 H   0  0  0  0  0  0  0  0  0  0  0  0  # atno 10718 bound_to 10713
  153.9189  135.3003  155.3448 H   0  0  0  0  0  0  0  0  0  0  0  0  # atno 10763 bound_to 10752
  154.7586  135.4945  153.9424 H   0  0  0  0  0  0  0  0  0  0  0  0  # atno 10764 bound_to 10752
  153.1152  135.6769  153.9532 H   0  0  0  0  0  0  0  0  0  0  0  0  # atno 10765 bound_to 10752
  140.7667  134.3236  157.5087 H   0  0  0  0  0  0  0  0  0  0  0  0  # atno 11005 bound_to 11000
  144.9252  139.4364  143.6522 LP  0  0  0  0  0  0  0  0  0  0  0  0  # atno 17320 bound_to 7965
  146.3216  139.8134  142.8941 LP  0  0  0  0  0  0  0  0  0  0  0  0  # atno 17321 bound_to 7965
  139.4945  144.6543  151.6606 LP  0  0  0  0  0  0  0  0  0  0  0  0  # atno 17342 bound_to 10162
  140.5754  144.0037  150.6239 LP  0  0  0  0  0  0  0  0  0  0  0  0  # atno 17343 bound_to 10162
  157.3249  131.0689  151.1904 LP  0  0  0  0  0  0  0  0  0  0  0  0  # atno 17370 bound_to 10713
  157.2804  130.6747  149.6063 LP  0  0  0  0  0  0  0  0  0  0  0  0  # atno 17371 bound_to 10713
  139.8762  134.9235  156.3327 LP  0  0  0  0  0  0  0  0  0  0  0  0  # atno 17394 bound_to 11000
  140.9612  133.7387  156.0404 LP  0  0  0  0  0  0  0  0  0  0  0  0  # atno 17395 bound_to 11000

$$$$
