AV-unprocessed.smi:2451|AV-procd|sdf|9676|dock6
  -GOLD-   2272013313D 1   1.00000     0.00000
 Structure written by MMmdl.
 38 39  0  0  0  0  0  0  0  0  1 V2000
  149.3629  141.1121  154.5133 C   0  0  0  0  0  0  0  0  0  0  0  0
  149.5017  139.7526  155.2210 C   0  0  1  0  0  0  0  0  0  0  0  0
  149.9702  138.6844  154.2125 C   0  0  0  0  0  0  0  0  0  0  0  0
  150.1013  137.3002  154.8599 C   0  0  0  0  0  0  0  0  0  0  0  0
  151.0533  137.3376  156.0635 C   0  0  0  0  0  0  0  0  0  0  0  0
  150.6390  138.4062  157.0949 C   0  0  2  0  0  0  0  0  0  0  0  0
  149.4255  137.9953  157.8161 N   0  0  0  0  0  0  0  0  0  0  0  0
  149.4455  136.5672  158.7866 S   0  0  0  0  0  0  0  0  0  0  0  0
  149.8358  135.4463  157.9179 O   0  0  0  0  0  0  0  0  0  0  0  0
  150.2127  136.8555  160.0083 O   0  0  0  0  0  0  0  0  0  0  0  0
  147.6714  136.3800  159.2448 C   0  0  0  0  0  0  0  0  0  0  0  0
  147.5597  136.0958  160.7153 C   0  0  0  0  0  0  0  0  0  0  0  0
  147.4073  134.8389  161.3638 C   0  0  0  0  0  0  0  0  0  0  0  0
  147.3583  135.1674  162.6880 C   0  0  0  0  0  0  0  0  0  0  0  0
  147.4754  136.5097  162.8490 O   0  0  0  0  0  0  0  0  0  0  0  0
  147.6061  137.0936  161.5839 N   0  0  0  0  0  0  0  0  0  0  0  0
  150.4534  139.8029  156.4476 C   0  0  2  0  0  0  0  0  0  0  0  0
  150.0616  140.8635  157.4962 C   0  0  0  0  0  0  0  0  0  0  0  0
  150.3331  141.4966  154.1975 H   0  0  0  0  0  0  0  0  0  0  0  0
  148.8987  141.8581  155.1579 H   0  0  0  0  0  0  0  0  0  0  0  0
  148.7355  141.0283  153.6255 H   0  0  0  0  0  0  0  0  0  0  0  0
  148.5086  139.4668  155.5708 H   0  0  0  0  0  0  0  0  0  0  0  0
  149.2693  138.6256  153.3787 H   0  0  0  0  0  0  0  0  0  0  0  0
  150.9306  138.9764  153.7852 H   0  0  0  0  0  0  0  0  0  0  0  0
  149.1191  136.9475  155.1767 H   0  0  0  0  0  0  0  0  0  0  0  0
  150.4631  136.5802  154.1252 H   0  0  0  0  0  0  0  0  0  0  0  0
  151.1184  136.3518  156.5243 H   0  0  0  0  0  0  0  0  0  0  0  0
  152.0590  137.5642  155.7074 H   0  0  0  0  0  0  0  0  0  0  0  0
  151.4418  138.4894  157.8284 H   0  0  0  0  0  0  0  0  0  0  0  0
  148.6141  138.0052  157.1986 H   0  0  0  0  0  0  0  0  0  0  0  0
  147.1500  137.3005  158.9835 H   0  0  0  0  0  0  0  0  0  0  0  0
  147.2446  135.5740  158.6473 H   0  0  0  0  0  0  0  0  0  0  0  0
  147.3392  133.8540  160.9262 H   0  0  0  0  0  0  0  0  0  0  0  0
  147.2497  134.5882  163.5929 H   0  0  0  0  0  0  0  0  0  0  0  0
  151.4349  140.0969  156.0721 H   0  0  0  0  0  0  0  0  0  0  0  0
  149.0359  140.7290  157.8404 H   0  0  0  0  0  0  0  0  0  0  0  0
  150.1483  141.8742  157.0981 H   0  0  0  0  0  0  0  0  0  0  0  0
  150.7138  140.8108  158.3685 H   0  0  0  0  0  0  0  0  0  0  0  0
  1  2  1  0  0  0  0
  1 19  1  0  0  0  0
  1 20  1  0  0  0  0
  1 21  1  0  0  0  0
  2 17  1  0  0  0  0
  2  3  1  0  0  0  0
  2 22  1  0  0  0  0
  3  4  1  0  0  0  0
  3 23  1  0  0  0  0
  3 24  1  0  0  0  0
  4  5  1  0  0  0  0
  4 25  1  0  0  0  0
  4 26  1  0  0  0  0
  5  6  1  0  0  0  0
  5 27  1  0  0  0  0
  5 28  1  0  0  0  0
  6  7  1  0  0  0  0
  6 17  1  0  0  0  0
  6 29  1  0  0  0  0
  7  8  1  0  0  0  0
  7 30  1  0  0  0  0
  8  9  2  0  0  0  0
  8 10  2  0  0  0  0
  8 11  1  0  0  0  0
 11 12  1  0  0  0  0
 11 31  1  0  0  0  0
 11 32  1  0  0  0  0
 12 16  2  0  0  0  0
 12 13  1  0  0  0  0
 13 14  2  0  0  0  0
 13 33  1  0  0  0  0
 14 15  1  0  0  0  0
 14 34  1  0  0  0  0
 15 16  1  0  0  0  0
 17 18  1  0  0  0  0
 17 35  1  0  0  0  0
 18 36  1  0  0  0  0
 18 37  1  0  0  0  0
 18 38  1  0  0  0  0
M  END
> <s_m_source_file>
AV-unprocessed.smi

> <i_m_source_file_index>
2451

> <i_lp_mmshare_version>
43012

> <i_f3d_flags>
0

> <s_epik_input>
W0NIM11bQ0BASF0xW0NIMl1bQ0gyXVtDSDJdW0NASF0oW0NASF0xW0NIM10pW05IXVMoPU8pKD1PKVtDSDJdYzJbY0hdW2NIXW9uMg==

> <s_epik_cmdline>
J2VwaWtfcHl0aG9uJywgJy1waCcsICc3LjAnLCAnLXRuJywgJzgnLCAnLW1hJywgJzIwMCcsICctbWV0YWxfYmluZGluZycsICctaW1hZScsICc8aW5maWxlLm1hZT4nLCAnLW9tYWUnLCAnPG91dGZpbGUubWFlPic=

> <r_lp_tautomer_probability>
1

> <r_epik_Ionization_Penalty>
8.73668e-05

> <r_epik_Ionization_Penalty_Charging>
0

> <r_epik_Ionization_Penalty_Neutral>
8.73668e-05

> <r_epik_State_Penalty>
-0

> <r_epik_Charging_Adjusted_Penalty>
0

> <i_epik_Tot_Q>
0

> <i_epik_Tot_abs_Q>
0

> <r_epik_Metal_State_Penalty>
0.0716439

> <b_epik_Metal_Only>
0

> <s_lp_Force_Field>
OPLS_2005

> <r_lp_Energy>
8.50206

> <b_lp_Chiralities_Consistent>
1

> <s_lp_Variant>
AV-unprocessed.smi:2451-8

> <Gold.Version>
5.8.1

> <Gold.Id.Protein>
6NUR|6NUR_protein|mol2

> <Gold.PLP.Fitness>
35.0588

> <Gold.PLP.PLP>
-28.5424

> <Gold.PLP.part.hbond>
-4.8991

> <Gold.PLP.part.metal>
0.0000

> <Gold.PLP.part.buried>
-3.3563

> <Gold.PLP.part.nonpolar>
-21.5709

> <Gold.PLP.part.repulsive>
0.0058

> <Gold.PLP.ligand.clash>
0.0000

> <Gold.PLP.ligand.torsion>
0.6874

> <Gold.PLP.Chemscore.Hbond>
2.5805

> <Gold.PLP.Chemscore.CHOScore>
0.0000

> <Gold.PLP.Chemscore.Metal>
0.0000

> <Gold.Chemscore.Hbonds>
donor molecule, donor type, donor heavy atom, donor atom, acceptor molecule, acceptor atom, score
      P1  H  6896  6907       L1     9  0.02
      P1  H  6896  6908       L1    10  0.76
      P1  H  6931  6943       L1    16  1.00
      P1  H  6934  6947       L1    16  0.72

> <Gold.PLP.Chemscore.Internal.Correction>
0.1496

> <Gold.Rescore>
     Score         DG    S(hbond)    S(metal)    S(lipo)     H(rot)  DE(clash)    DE(int)     intcor
     12.79     -14.89       1.73        0.00      67.30       1.66       0.04       2.06       ----

> <Gold.Chemscore.Fitness>
12.7901

> <Gold.Chemscore.DG>
-14.8852

> <Gold.Chemscore.ZeroCoef>
-5.4800

> <Gold.Chemscore.Hbond>
1.7298

> <Gold.Chemscore.Metal>
0.0000

> <Gold.Chemscore.Lipo>
67.3017

> <Gold.Chemscore.Internal_Hbond>
0.0000

> <Gold.Chemscore.DEClash>
0.0399

> <Gold.Chemscore.DEInternal>
2.0552

> <Gold.Chemscore.Rot>
1.6588

> <Gold.Chemscore.Internal.Correction>
   9.000000E+99

> <Gold.Chemscore.Hbonds>
donor molecule, donor type, donor heavy atom, donor atom, acceptor molecule, acceptor atom, score
      P1  H  6896  6907       L1     9  0.02
      P1  H  6896  6908       L1    10  0.12
      P1  H  6931  6943       L1    16  0.24
      P1  H  6934  6947       L1    16  0.67

> <Gold.Chemscore.Hbond.Weighted>
-5.7775

> <Gold.Chemscore.Metal.Weighted>
-0.0000

> <Gold.Chemscore.Lipo.Weighted>
-7.8743

> <Gold.Chemscore.Internal_Hbond.Weighted>
0.0000

> <Gold.Chemscore.DEClash.Weighted>
0.0399

> <Gold.Chemscore.DEInternal.Weighted>
2.0552

> <Gold.Chemscore.Rot.Weighted>
4.2466

> <Gold.Chemscore.Internal.Correction.Weighted>
   9.000000E+99

> <Gold.Protein.RotatedTorsions>
[ 6907 6896 6895 6894 ] final -127.99 input  -60.11 | X-H torsion
[ 7974 7965 7964 7962 ] final  -18.52 input  175.53 | X-H torsion
[ 8008 7997 7996 7995 ] final  -30.81 input   59.86 | X-H torsion
[ 10167 10162 10161 10158 ] final -156.01 input  -65.29 | X-H torsion
[ 10718 10713 10712 10709 ] final  105.49 input   66.30 | X-H torsion
[ 10763 10752 10751 10750 ] final  154.24 input  -60.55 | X-H torsion
[ 11005 11000 10999 10996 ] final   57.42 input  -57.11 | X-H torsion

> <Gold.Protein.ActiveResidues>
 VAL166  LYS551  ARG553  GLY616  TRP617  ASP618  TYR619  PRO620  LYS621  CYS622 
 ASP623  PHE694  ASN695  SER759  ASP760  ASP761  ALA762  ILE779  LEU786  VAL792 
 PHE793  MET794  SER795  GLU796  ALA797  LYS798  CYS799  TRP800  GLU811  SER814 

> <Gold.Protein.RotatedAtoms>
  150.9131  133.6973  159.2849 H   0  0  0  0  0  0  0  0  0  0  0  0  # atno 6907 bound_to 6896
  151.4453  135.1023  159.9691 H   0  0  0  0  0  0  0  0  0  0  0  0  # atno 6908 bound_to 6896
  152.4940  133.8530  159.7266 H   0  0  0  0  0  0  0  0  0  0  0  0  # atno 6909 bound_to 6896
  146.1888  140.3933  142.8466 H   0  0  0  0  0  0  0  0  0  0  0  0  # atno 7974 bound_to 7965
  154.4236  140.1781  156.1466 H   0  0  0  0  0  0  0  0  0  0  0  0  # atno 8008 bound_to 7997
  155.9948  140.3365  155.6764 H   0  0  0  0  0  0  0  0  0  0  0  0  # atno 8009 bound_to 7997
  155.6323  140.0671  157.2636 H   0  0  0  0  0  0  0  0  0  0  0  0  # atno 8010 bound_to 7997
  139.6885  143.9461  152.2373 H   0  0  0  0  0  0  0  0  0  0  0  0  # atno 10167 bound_to 10162
  157.6703  131.0829  150.5865 H   0  0  0  0  0  0  0  0  0  0  0  0  # atno 10718 bound_to 10713
  154.1491  135.2816  155.3140 H   0  0  0  0  0  0  0  0  0  0  0  0  # atno 10763 bound_to 10752
  154.6230  135.5461  153.7600 H   0  0  0  0  0  0  0  0  0  0  0  0  # atno 10764 bound_to 10752
  153.0226  135.6444  154.1636 H   0  0  0  0  0  0  0  0  0  0  0  0  # atno 10765 bound_to 10752
  140.0454  134.5813  155.9329 H   0  0  0  0  0  0  0  0  0  0  0  0  # atno 11005 bound_to 11000
  144.8447  140.6910  143.6207 LP  0  0  0  0  0  0  0  0  0  0  0  0  # atno 17320 bound_to 7965
  145.3857  139.1627  143.4256 LP  0  0  0  0  0  0  0  0  0  0  0  0  # atno 17321 bound_to 7965
  139.9270  144.6765  150.8402 LP  0  0  0  0  0  0  0  0  0  0  0  0  # atno 17342 bound_to 10162
  140.7675  143.3335  151.2359 LP  0  0  0  0  0  0  0  0  0  0  0  0  # atno 17343 bound_to 10162
  156.6166  130.4394  149.5838 LP  0  0  0  0  0  0  0  0  0  0  0  0  # atno 17370 bound_to 10713
  156.2389  130.6839  151.1536 LP  0  0  0  0  0  0  0  0  0  0  0  0  # atno 17371 bound_to 10713
  141.1904  133.6568  156.5411 LP  0  0  0  0  0  0  0  0  0  0  0  0  # atno 17394 bound_to 11000
  140.4002  134.7363  157.4775 LP  0  0  0  0  0  0  0  0  0  0  0  0  # atno 17395 bound_to 11000

$$$$
