AV-unprocessed.smi:955|AV-procd|sdf|4262|dock1
  -GOLD-   22720 2173D 1   1.00000     0.00000
 Structure written by MMmdl.
 29 29  0  0  0  0  0  0  0  0  1 V2000
  147.5411  141.7549  154.1805 C   0  0  0  0  0  0  0  0  0  0  0  0
  148.6792  140.7493  154.4208 C   0  0  1  0  0  0  0  0  0  0  0  0
  149.0806  140.8503  155.8228 N   0  0  0  0  0  0  0  0  0  0  0  0
  150.3452  140.9594  156.2624 C   0  0  0  0  0  0  0  0  0  0  0  0
  151.3174  140.9945  155.5068 O   0  0  0  0  0  0  0  0  0  0  0  0
  150.5305  141.0391  157.7859 C   0  0  1  0  0  0  0  0  0  0  0  0
  151.3389  139.8519  158.3487 C   0  0  0  0  0  0  0  0  0  0  0  0
  151.1055  142.3268  158.1589 N   0  0  0  0  0  0  0  0  0  0  0  0
  151.2954  143.4345  157.3573 C   0  0  0  0  0  0  0  0  0  0  0  0
  151.8982  144.3949  158.1180 C   0  0  0  0  0  0  0  0  0  0  0  0
  152.0531  143.7717  159.3873 C   0  0  0  0  0  0  0  0  0  0  0  0
  151.5878  142.5337  159.4068 N   0  0  0  0  0  0  0  0  0  0  0  0
  148.1436  139.3418  154.1101 C   0  0  0  0  0  0  0  0  0  0  0  0
  148.6119  138.7489  153.0091 N   0  0  0  0  0  0  0  0  0  0  0  0
  147.3105  138.8033  154.8383 O   0  0  0  0  0  0  0  0  0  0  0  0
  147.1985  141.7261  153.1452 H   0  0  0  0  0  0  0  0  0  0  0  0
  147.8746  142.7734  154.3820 H   0  0  0  0  0  0  0  0  0  0  0  0
  146.6805  141.5573  154.8217 H   0  0  0  0  0  0  0  0  0  0  0  0
  149.5230  140.9870  153.7697 H   0  0  0  0  0  0  0  0  0  0  0  0
  148.3413  140.8193  156.5093 H   0  0  0  0  0  0  0  0  0  0  0  0
  149.5375  140.9901  158.2365 H   0  0  0  0  0  0  0  0  0  0  0  0
  150.8527  138.9032  158.1193 H   0  0  0  0  0  0  0  0  0  0  0  0
  151.4247  139.9201  159.4335 H   0  0  0  0  0  0  0  0  0  0  0  0
  152.3495  139.8114  157.9404 H   0  0  0  0  0  0  0  0  0  0  0  0
  150.9882  143.4475  156.3219 H   0  0  0  0  0  0  0  0  0  0  0  0
  152.1890  145.3892  157.8131 H   0  0  0  0  0  0  0  0  0  0  0  0
  152.4907  144.1773  160.2876 H   0  0  0  0  0  0  0  0  0  0  0  0
  148.2864  137.8276  152.7551 H   0  0  0  0  0  0  0  0  0  0  0  0
  149.2850  139.2291  152.4295 H   0  0  0  0  0  0  0  0  0  0  0  0
  1  2  1  0  0  0  0
  1 16  1  0  0  0  0
  1 17  1  0  0  0  0
  1 18  1  0  0  0  0
  2  3  1  0  0  0  0
  2 13  1  0  0  0  0
  2 19  1  0  0  0  0
  3  4  1  0  0  0  0
  3 20  1  0  0  0  0
  4  5  2  0  0  0  0
  4  6  1  0  0  0  0
  6  7  1  0  0  0  0
  6  8  1  0  0  0  0
  6 21  1  0  0  0  0
  7 22  1  0  0  0  0
  7 23  1  0  0  0  0
  7 24  1  0  0  0  0
  8 12  1  0  0  0  0
  8  9  1  0  0  0  0
  9 10  2  0  0  0  0
  9 25  1  0  0  0  0
 10 11  1  0  0  0  0
 10 26  1  0  0  0  0
 11 12  2  0  0  0  0
 11 27  1  0  0  0  0
 13 14  1  0  0  0  0
 13 15  2  0  0  0  0
 14 28  1  0  0  0  0
 14 29  1  0  0  0  0
M  END
> <s_m_source_file>
AV-unprocessed.smi

> <i_m_source_file_index>
955

> <i_lp_mmshare_version>
43012

> <i_f3d_flags>
0

> <s_epik_input>
W05IMl1DKD1PKVtDQEhdKFtDSDNdKVtOSF1DKD1PKVtDQEhdKFtDSDNdKW4xW2NIXVtjSF1bY0hdbjE=

> <s_epik_cmdline>
J2VwaWtfcHl0aG9uJywgJy1waCcsICc3LjAnLCAnLXRuJywgJzgnLCAnLW1hJywgJzIwMCcsICctbWV0YWxfYmluZGluZycsICctaW1hZScsICc8aW5maWxlLm1hZT4nLCAnLW9tYWUnLCAnPG91dGZpbGUubWFlPic=

> <r_lp_tautomer_probability>
1

> <r_epik_Ionization_Penalty>
2.8146e-05

> <r_epik_Ionization_Penalty_Charging>
0

> <r_epik_Ionization_Penalty_Neutral>
2.8146e-05

> <r_epik_State_Penalty>
-0

> <r_epik_Charging_Adjusted_Penalty>
0

> <i_epik_Tot_Q>
0

> <i_epik_Tot_abs_Q>
0

> <r_epik_Metal_State_Penalty>
-0

> <b_epik_Metal_Only>
0

> <s_lp_Force_Field>
OPLS_2005

> <r_lp_Energy>
4.82195

> <b_lp_Chiralities_Consistent>
1

> <s_lp_Variant>
AV-unprocessed.smi:955-4

> <Gold.Version>
5.8.1

> <Gold.Id.Protein>
6NUR|6NUR_protein|mol2

> <Gold.PLP.Fitness>
37.6070

> <Gold.PLP.PLP>
-29.3333

> <Gold.PLP.part.hbond>
-2.7679

> <Gold.PLP.part.metal>
0.0000

> <Gold.PLP.part.buried>
-2.8580

> <Gold.PLP.part.nonpolar>
-24.5463

> <Gold.PLP.part.repulsive>
0.2521

> <Gold.PLP.ligand.clash>
0.0000

> <Gold.PLP.ligand.torsion>
0.6980

> <Gold.PLP.Chemscore.Hbond>
2.3840

> <Gold.PLP.Chemscore.CHOScore>
0.7829

> <Gold.PLP.Chemscore.Metal>
0.0000

> <Gold.Chemscore.Hbonds>
donor molecule, donor type, donor heavy atom, donor atom, acceptor molecule, acceptor atom, score
      L1  H    14    28       P1  7948  0.75
      L1  H    14    29       P1  7957  0.99
      P1  H  7989  7998       L1     5  0.62
      L1  C     9    25       P1  8028  0.78

> <Gold.PLP.Chemscore.Internal.Correction>
0.1692

> <Gold.Rescore>
     Score         DG    S(hbond)    S(metal)    S(lipo)     H(rot)  DE(clash)    DE(int)     intcor
     13.82     -14.71       2.42        0.00      60.16       2.30       0.01       0.88       ----

> <Gold.Chemscore.Fitness>
13.8233

> <Gold.Chemscore.DG>
-14.7108

> <Gold.Chemscore.ZeroCoef>
-5.4800

> <Gold.Chemscore.Hbond>
2.4169

> <Gold.Chemscore.Metal>
0.0000

> <Gold.Chemscore.Lipo>
60.1646

> <Gold.Chemscore.Internal_Hbond>
0.0000

> <Gold.Chemscore.DEClash>
0.0106

> <Gold.Chemscore.DEInternal>
0.8769

> <Gold.Chemscore.Rot>
2.2972

> <Gold.Chemscore.Internal.Correction>
   9.000000E+99

> <Gold.Chemscore.Hbonds>
donor molecule, donor type, donor heavy atom, donor atom, acceptor molecule, acceptor atom, score
      L1  H    14    28       P1  7948  0.75
      L1  H    14    29       P1  7957  0.87
      P1  H  7989  7998       L1     5  0.59

> <Gold.Chemscore.Hbond.Weighted>
-8.0725

> <Gold.Chemscore.Metal.Weighted>
-0.0000

> <Gold.Chemscore.Lipo.Weighted>
-7.0393

> <Gold.Chemscore.Internal_Hbond.Weighted>
0.0000

> <Gold.Chemscore.DEClash.Weighted>
0.0106

> <Gold.Chemscore.DEInternal.Weighted>
0.8769

> <Gold.Chemscore.Rot.Weighted>
5.8809

> <Gold.Chemscore.Internal.Correction.Weighted>
   9.000000E+99

> <Gold.Protein.RotatedTorsions>
[ 6907 6896 6895 6894 ] final   -8.32 input  -60.11 | X-H torsion
[ 7974 7965 7964 7962 ] final   -3.35 input  175.53 | X-H torsion
[ 8008 7997 7996 7995 ] final   81.81 input   59.86 | X-H torsion
[ 10167 10162 10161 10158 ] final  125.58 input  -65.29 | X-H torsion
[ 10718 10713 10712 10709 ] final   51.38 input   66.30 | X-H torsion
[ 10763 10752 10751 10750 ] final  -84.77 input  -60.55 | X-H torsion
[ 11005 11000 10999 10996 ] final  -51.88 input  -57.11 | X-H torsion

> <Gold.Protein.ActiveResidues>
 VAL166  LYS551  ARG553  GLY616  TRP617  ASP618  TYR619  PRO620  LYS621  CYS622 
 ASP623  PHE694  ASN695  SER759  ASP760  ASP761  ALA762  ILE779  LEU786  VAL792 
 PHE793  MET794  SER795  GLU796  ALA797  LYS798  CYS799  TRP800  GLU811  SER814 

> <Gold.Protein.RotatedAtoms>
  151.4354  135.1014  159.9654 H   0  0  0  0  0  0  0  0  0  0  0  0  # atno 6907 bound_to 6896
  152.4941  133.8578  159.7245 H   0  0  0  0  0  0  0  0  0  0  0  0  # atno 6908 bound_to 6896
  150.9125  133.6921  159.2879 H   0  0  0  0  0  0  0  0  0  0  0  0  # atno 6909 bound_to 6896
  146.2391  140.1708  142.8332 H   0  0  0  0  0  0  0  0  0  0  0  0  # atno 7974 bound_to 7965
  155.9021  140.3432  155.6035 H   0  0  0  0  0  0  0  0  0  0  0  0  # atno 8008 bound_to 7997
  155.7487  140.0817  157.2230 H   0  0  0  0  0  0  0  0  0  0  0  0  # atno 8009 bound_to 7997
  154.4045  140.1557  156.2686 H   0  0  0  0  0  0  0  0  0  0  0  0  # atno 8010 bound_to 7997
  139.5677  144.6921  151.3863 H   0  0  0  0  0  0  0  0  0  0  0  0  # atno 10167 bound_to 10162
  157.4975  130.8416  149.8276 H   0  0  0  0  0  0  0  0  0  0  0  0  # atno 10718 bound_to 10713
  154.6034  135.5509  153.7397 H   0  0  0  0  0  0  0  0  0  0  0  0  # atno 10763 bound_to 10752
  153.0164  135.6372  154.1682 H   0  0  0  0  0  0  0  0  0  0  0  0  # atno 10764 bound_to 10752
  154.1621  135.2896  155.3085 H   0  0  0  0  0  0  0  0  0  0  0  0  # atno 10765 bound_to 10752
  141.0895  133.6635  156.3942 H   0  0  0  0  0  0  0  0  0  0  0  0  # atno 11005 bound_to 11000
  145.0013  140.8634  143.5280 LP  0  0  0  0  0  0  0  0  0  0  0  0  # atno 17320 bound_to 7965
  145.1728  139.2395  143.5333 LP  0  0  0  0  0  0  0  0  0  0  0  0  # atno 17321 bound_to 7965
  140.6961  143.7745  150.7329 LP  0  0  0  0  0  0  0  0  0  0  0  0  # atno 17342 bound_to 10162
  140.1241  143.4585  152.2295 LP  0  0  0  0  0  0  0  0  0  0  0  0  # atno 17343 bound_to 10162
  156.0209  130.3796  150.1965 LP  0  0  0  0  0  0  0  0  0  0  0  0  # atno 17370 bound_to 10713
  157.0155  130.9963  151.3354 LP  0  0  0  0  0  0  0  0  0  0  0  0  # atno 17371 bound_to 10713
  140.5286  134.6235  157.5342 LP  0  0  0  0  0  0  0  0  0  0  0  0  # atno 17394 bound_to 11000
  139.9718  134.7280  156.0026 LP  0  0  0  0  0  0  0  0  0  0  0  0  # atno 17395 bound_to 11000

$$$$
