AV-unprocessed.smi:1487|AV-procd|sdf|6021|dock4
  -GOLD-   22720 6123D 1   1.00000     0.00000
 Structure written by MMmdl.
 49 51  0  0  0  0  0  0  0  0  3 V2000
  146.3156  129.6817  152.4363 C   0  0  0  0  0  0  0  0  0  0  0  0
  146.1918  131.1711  152.1630 C   0  0  0  0  0  0  0  0  0  0  0  0
  145.0762  131.6311  151.4281 C   0  0  0  0  0  0  0  0  0  0  0  0
  144.9911  132.9981  151.1929 C   0  0  0  0  0  0  0  0  0  0  0  0
  144.0310  133.7489  150.5119 N   0  3  0  0  0  0  0  0  0  0  0  0
  144.3781  135.0650  150.5413 C   0  0  0  0  0  0  0  0  0  0  0  0
  145.5440  135.1677  151.2364 N   0  0  0  0  0  0  0  0  0  0  0  0
  146.3475  136.3604  151.5411 C   0  0  0  0  0  0  0  0  0  0  0  0
  145.7688  137.2056  152.6941 C   0  0  2  0  0  0  0  0  0  0  0  0
  144.4594  137.5795  152.3158 O   0  0  0  0  0  0  0  0  0  0  0  0
  146.5924  138.4772  153.0007 C   0  0  0  0  0  0  0  0  0  0  0  0
  147.9240  138.1879  153.5936 N   0  3  2  0  0  0  0  0  0  0  0  0
  147.8196  137.3308  154.8038 C   0  0  0  0  0  0  0  0  0  0  0  0
  149.2091  136.9206  155.3192 C   0  0  0  0  0  0  0  0  0  0  0  0
  150.0749  138.1543  155.6034 C   0  0  0  0  0  0  0  0  0  0  0  0
  150.1457  139.0398  154.3508 C   0  0  2  0  0  0  0  0  0  0  0  0
  150.8650  140.2167  154.6510 O   0  0  0  0  0  0  0  0  0  0  0  0
  148.7341  139.4081  153.8573 C   0  0  0  0  0  0  0  0  0  0  0  0
  145.9673  133.9007  151.6589 C   0  0  0  0  0  0  0  0  0  0  0  0
  147.0733  133.4628  152.3852 C   0  0  0  0  0  0  0  0  0  0  0  0
  147.1774  132.0758  152.6356 C   0  0  0  0  0  0  0  0  0  0  0  0
  148.3727  131.5700  153.4253 C   0  0  0  0  0  0  0  0  0  0  0  0
  145.4727  129.1286  152.0211 H   0  0  0  0  0  0  0  0  0  0  0  0
  146.3437  129.4889  153.5090 H   0  0  0  0  0  0  0  0  0  0  0  0
  147.2271  129.2851  151.9887 H   0  0  0  0  0  0  0  0  0  0  0  0
  144.3228  130.9476  151.0637 H   0  0  0  0  0  0  0  0  0  0  0  0
  143.8296  135.8795  150.0898 H   0  0  0  0  0  0  0  0  0  0  0  0
  147.3755  136.0624  151.7473 H   0  0  0  0  0  0  0  0  0  0  0  0
  146.3854  136.9564  150.6280 H   0  0  0  0  0  0  0  0  0  0  0  0
  145.6970  136.5708  153.5766 H   0  0  0  0  0  0  0  0  0  0  0  0
  144.4820  137.9516  151.4475 H   0  0  0  0  0  0  0  0  0  0  0  0
  146.7367  139.0748  152.0999 H   0  0  0  0  0  0  0  0  0  0  0  0
  146.0152  139.0973  153.6883 H   0  0  0  0  0  0  0  0  0  0  0  0
  147.2709  137.8635  155.5821 H   0  0  0  0  0  0  0  0  0  0  0  0
  147.2478  136.4311  154.5722 H   0  0  0  0  0  0  0  0  0  0  0  0
  149.1093  136.3196  156.2236 H   0  0  0  0  0  0  0  0  0  0  0  0
  149.7024  136.2880  154.5801 H   0  0  0  0  0  0  0  0  0  0  0  0
  149.6489  138.7155  156.4365 H   0  0  0  0  0  0  0  0  0  0  0  0
  151.0754  137.8476  155.9109 H   0  0  0  0  0  0  0  0  0  0  0  0
  150.6812  138.5098  153.5618 H   0  0  0  0  0  0  0  0  0  0  0  0
  151.6335  139.9867  155.1510 H   0  0  0  0  0  0  0  0  0  0  0  0
  148.8225  140.0081  152.9528 H   0  0  0  0  0  0  0  0  0  0  0  0
  148.2236  140.0265  154.5979 H   0  0  0  0  0  0  0  0  0  0  0  0
  147.8268  134.1463  152.7471 H   0  0  0  0  0  0  0  0  0  0  0  0
  149.0420  132.3843  153.7041 H   0  0  0  0  0  0  0  0  0  0  0  0
  148.9466  130.8552  152.8351 H   0  0  0  0  0  0  0  0  0  0  0  0
  148.0455  131.0789  154.3420 H   0  0  0  0  0  0  0  0  0  0  0  0
  148.4274  137.6410  152.9099 H   0  0  0  0  0  0  0  0  0  0  0  0
  143.2027  133.3903  150.0536 H   0  0  0  0  0  0  0  0  0  0  0  0
  1  2  1  0  0  0  0
  1 23  1  0  0  0  0
  1 24  1  0  0  0  0
  1 25  1  0  0  0  0
  2 21  1  0  0  0  0
  2  3  2  0  0  0  0
  3  4  1  0  0  0  0
  3 26  1  0  0  0  0
  4 19  2  0  0  0  0
  4  5  1  0  0  0  0
  5  6  2  0  0  0  0
  5 49  1  0  0  0  0
  6  7  1  0  0  0  0
  6 27  1  0  0  0  0
  7  8  1  0  0  0  0
  7 19  1  0  0  0  0
  8  9  1  0  0  0  0
  8 28  1  0  0  0  0
  8 29  1  0  0  0  0
  9 10  1  0  0  0  0
  9 11  1  0  0  0  0
  9 30  1  0  0  0  0
 10 31  1  0  0  0  0
 11 12  1  0  0  0  0
 11 32  1  0  0  0  0
 11 33  1  0  0  0  0
 12 18  1  0  0  0  0
 12 13  1  0  0  0  0
 12 48  1  0  0  0  0
 13 14  1  0  0  0  0
 13 34  1  0  0  0  0
 13 35  1  0  0  0  0
 14 15  1  0  0  0  0
 14 36  1  0  0  0  0
 14 37  1  0  0  0  0
 15 16  1  0  0  0  0
 15 38  1  0  0  0  0
 15 39  1  0  0  0  0
 16 17  1  0  0  0  0
 16 18  1  0  0  0  0
 16 40  1  0  0  0  0
 17 41  1  0  0  0  0
 18 42  1  0  0  0  0
 18 43  1  0  0  0  0
 19 20  1  0  0  0  0
 20 21  2  0  0  0  0
 20 44  1  0  0  0  0
 21 22  1  0  0  0  0
 22 45  1  0  0  0  0
 22 46  1  0  0  0  0
 22 47  1  0  0  0  0
M  CHG  1   5   1
M  CHG  1  12   1
M  END
> <s_m_source_file>
AV-unprocessed.smi

> <i_m_source_file_index>
1487

> <i_lp_mmshare_version>
43012

> <i_f3d_flags>
0

> <s_epik_input>
W0NIM11jKFtjSF0xKWMoW0NIM10pW2NIXWMoYzEyKW4oW2NIXW4yKVtDSDJdW0NASF0oW09IXSlbQ0gyXU4zW0NIMl1bQ0gyXVtDSDJdW0NAQEhdKFtPSF0pW0NIMl0z

> <s_epik_cmdline>
J2VwaWtfcHl0aG9uJywgJy1waCcsICc3LjAnLCAnLXRuJywgJzgnLCAnLW1hJywgJzIwMCcsICctbWV0YWxfYmluZGluZycsICctaW1hZScsICc8aW5maWxlLm1hZT4nLCAnLW9tYWUnLCAnPG91dGZpbGUubWFlPic=

> <r_epik_Ionization_Penalty>
1.1857

> <r_epik_Ionization_Penalty_Charging>
1.1857

> <r_epik_Ionization_Penalty_Neutral>
1.75578e-06

> <r_epik_State_Penalty>
1.26953

> <r_epik_Charging_Adjusted_Penalty>
2.45524

> <i_epik_Tot_Q>
2

> <i_epik_Tot_abs_Q>
2

> <r_epik_Metal_State_Penalty>
5.28243

> <b_epik_Metal_Only>
0

> <s_lp_Force_Field>
OPLS_2005

> <r_lp_Energy>
34.3912

> <b_lp_Chiralities_Consistent>
1

> <s_lp_Variant>
AV-unprocessed.smi:1487-15

> <Gold.Version>
5.8.1

> <Gold.Id.Protein>
6NUR|6NUR_protein|mol2

> <Gold.PLP.Fitness>
58.1066

> <Gold.PLP.PLP>
-38.6083

> <Gold.PLP.part.hbond>
-5.0000

> <Gold.PLP.part.metal>
0.0000

> <Gold.PLP.part.buried>
-2.0308

> <Gold.PLP.part.nonpolar>
-32.1093

> <Gold.PLP.part.repulsive>
0.0405

> <Gold.PLP.ligand.clash>
0.0000

> <Gold.PLP.ligand.torsion>
0.2789

> <Gold.PLP.Chemscore.Hbond>
5.6640

> <Gold.PLP.Chemscore.CHOScore>
1.0000

> <Gold.PLP.Chemscore.Metal>
0.0000

> <Gold.Chemscore.Hbonds>
donor molecule, donor type, donor heavy atom, donor atom, acceptor molecule, acceptor atom, score
      L1  H    10    31       P1 10171  1.00
      L1  H    12    48       P1  7948  2.00
      P1  H  7989  7998       L1    17  0.80
      L1  C     6    27       P1 10171  0.59

> <Gold.PLP.Chemscore.Internal.Correction>
0.0641

> <Gold.Rescore>
     Score         DG    S(hbond)    S(metal)    S(lipo)     H(rot)  DE(clash)    DE(int)     intcor
     20.23     -22.06       3.77        0.00      93.95       2.74       1.54       0.29       ----

> <Gold.Chemscore.Fitness>
20.2319

> <Gold.Chemscore.DG>
-22.0628

> <Gold.Chemscore.ZeroCoef>
-5.4800

> <Gold.Chemscore.Hbond>
3.7728

> <Gold.Chemscore.Metal>
0.0000

> <Gold.Chemscore.Lipo>
93.9479

> <Gold.Chemscore.Internal_Hbond>
0.0000

> <Gold.Chemscore.DEClash>
1.5421

> <Gold.Chemscore.DEInternal>
0.2888

> <Gold.Chemscore.Rot>
2.7384

> <Gold.Chemscore.Internal.Correction>
   9.000000E+99

> <Gold.Chemscore.Hbonds>
donor molecule, donor type, donor heavy atom, donor atom, acceptor molecule, acceptor atom, score
      L1  H     5    49       P1 10186  0.02
      L1  H    10    31       P1 10171  0.99
      L1  H    12    48       P1  7948  1.00
      P1  H  7989  7998       L1    17  0.10

> <Gold.Chemscore.Hbond.Weighted>
-12.6013

> <Gold.Chemscore.Metal.Weighted>
-0.0000

> <Gold.Chemscore.Lipo.Weighted>
-10.9919

> <Gold.Chemscore.Internal_Hbond.Weighted>
0.0000

> <Gold.Chemscore.DEClash.Weighted>
1.5421

> <Gold.Chemscore.DEInternal.Weighted>
0.2888

> <Gold.Chemscore.Rot.Weighted>
7.0103

> <Gold.Chemscore.Internal.Correction.Weighted>
   9.000000E+99

> <Gold.Protein.RotatedTorsions>
[ 6907 6896 6895 6894 ] final  -29.98 input  -60.11 | X-H torsion
[ 7974 7965 7964 7962 ] final  -86.65 input  175.53 | X-H torsion
[ 8008 7997 7996 7995 ] final  -50.23 input   59.86 | X-H torsion
[ 10167 10162 10161 10158 ] final  139.16 input  -65.29 | X-H torsion
[ 10718 10713 10712 10709 ] final  119.88 input   66.30 | X-H torsion
[ 10763 10752 10751 10750 ] final  -70.04 input  -60.55 | X-H torsion
[ 11005 11000 10999 10996 ] final  173.35 input  -57.11 | X-H torsion

> <Gold.Protein.ActiveResidues>
 VAL166  LYS551  ARG553  GLY616  TRP617  ASP618  TYR619  PRO620  LYS621  CYS622 
 ASP623  PHE694  ASN695  SER759  ASP760  ASP761  ALA762  ILE779  LEU786  VAL792 
 PHE793  MET794  SER795  GLU796  ALA797  LYS798  CYS799  TRP800  GLU811  SER814 

> <Gold.Protein.RotatedAtoms>
  151.1118  135.0031  159.8497 H   0  0  0  0  0  0  0  0  0  0  0  0  # atno 6907 bound_to 6896
  152.5443  134.1827  159.8652 H   0  0  0  0  0  0  0  0  0  0  0  0  # atno 6908 bound_to 6896
  151.1878  133.4641  159.2628 H   0  0  0  0  0  0  0  0  0  0  0  0  # atno 6909 bound_to 6896
  145.4771  140.9558  143.1885 H   0  0  0  0  0  0  0  0  0  0  0  0  # atno 7974 bound_to 7965
  154.4058  140.1277  156.4632 H   0  0  0  0  0  0  0  0  0  0  0  0  # atno 8008 bound_to 7997
  155.7252  140.3492  155.5014 H   0  0  0  0  0  0  0  0  0  0  0  0  # atno 8009 bound_to 7997
  155.9177  140.1047  157.1221 H   0  0  0  0  0  0  0  0  0  0  0  0  # atno 8010 bound_to 7997
  139.5087  144.6311  151.5815 H   0  0  0  0  0  0  0  0  0  0  0  0  # atno 10167 bound_to 10162
  157.5931  131.1061  150.7957 H   0  0  0  0  0  0  0  0  0  0  0  0  # atno 10718 bound_to 10713
  154.4120  135.6007  153.5958 H   0  0  0  0  0  0  0  0  0  0  0  0  # atno 10763 bound_to 10752
  152.9790  135.5931  154.4059 H   0  0  0  0  0  0  0  0  0  0  0  0  # atno 10764 bound_to 10752
  154.3872  135.2841  155.2154 H   0  0  0  0  0  0  0  0  0  0  0  0  # atno 10765 bound_to 10752
  140.3395  134.7288  157.4192 H   0  0  0  0  0  0  0  0  0  0  0  0  # atno 11005 bound_to 11000
  144.7911  139.6327  143.7113 LP  0  0  0  0  0  0  0  0  0  0  0  0  # atno 17320 bound_to 7965
  146.2363  139.5911  142.9522 LP  0  0  0  0  0  0  0  0  0  0  0  0  # atno 17321 bound_to 7965
  140.6044  143.9551  150.6408 LP  0  0  0  0  0  0  0  0  0  0  0  0  # atno 17342 bound_to 10162
  140.2773  143.3414  152.1183 LP  0  0  0  0  0  0  0  0  0  0  0  0  # atno 17343 bound_to 10162
  156.8374  130.5036  149.5325 LP  0  0  0  0  0  0  0  0  0  0  0  0  # atno 17370 bound_to 10713
  156.0988  130.5953  150.9860 LP  0  0  0  0  0  0  0  0  0  0  0  0  # atno 17371 bound_to 10713
  140.0793  134.5754  155.8558 LP  0  0  0  0  0  0  0  0  0  0  0  0  # atno 17394 bound_to 11000
  141.2042  133.6637  156.6108 LP  0  0  0  0  0  0  0  0  0  0  0  0  # atno 17395 bound_to 11000

$$$$
