AV-unprocessed.smi:282|AV-procd|sdf|2120|dock10
  -GOLD-   2262021423D 1   1.00000     0.00000
 Structure written by MMmdl.
 65 69  0  0  0  0  0  0  0  0  2 V2000
  154.4511  137.4846  160.9080 C   0  0  0  0  0  0  0  0  0  0  0  0
  153.9803  138.2856  159.6863 C   0  0  0  0  0  0  0  0  0  0  0  0
  153.3586  139.6675  160.0242 C   0  0  1  0  0  0  0  0  0  0  0  0
  154.4448  140.6547  160.5267 C   0  0  0  0  0  0  0  0  0  0  0  0
  153.9197  142.0232  160.7588 N   0  3  2  0  0  0  0  0  0  0  0  0
  153.1247  142.1416  162.0111 C   0  0  0  0  0  0  0  0  0  0  0  0
  152.6946  143.5947  162.2632 C   0  0  0  0  0  0  0  0  0  0  0  0
  151.9070  144.1449  161.0684 C   0  0  0  0  0  0  0  0  0  0  0  0
  152.7390  144.0070  159.7859 C   0  0  0  0  0  0  0  0  0  0  0  0
  153.2269  142.5617  159.5559 C   0  0  2  0  0  0  0  0  0  0  0  0
  152.1150  141.6046  159.0895 C   0  0  0  0  0  0  0  0  0  0  0  0
  152.6371  140.2554  158.8845 N   0  0  0  0  0  0  0  0  0  0  0  0
  151.7167  139.4500  158.3077 C   0  0  0  0  0  0  0  0  0  0  0  0
  151.3235  138.3091  158.9324 N   0  0  0  0  0  0  0  0  0  0  0  0
  150.4291  137.5065  158.3469 C   0  0  0  0  0  0  0  0  0  0  0  0
  149.8273  137.6499  157.1638 N   0  0  0  0  0  0  0  0  0  0  0  0
  150.2299  138.7906  156.5332 C   0  0  0  0  0  0  0  0  0  0  0  0
  151.1577  139.7431  157.0373 C   0  0  0  0  0  0  0  0  0  0  0  0
  151.3204  140.7822  156.1317 N   0  0  0  0  0  0  0  0  0  0  0  0
  150.5316  140.4609  155.1426 C   0  0  0  0  0  0  0  0  0  0  0  0
  149.8542  139.2698  155.2895 N   0  0  0  0  0  0  0  0  0  0  0  0
  148.9239  138.6752  154.3393 C   0  0  0  0  0  0  0  0  0  0  0  0
  147.6208  139.4947  154.0960 C   0  0  0  0  0  0  0  0  0  0  0  0
  146.7379  138.8116  153.0123 C   0  0  0  0  0  0  0  0  0  0  0  0
  147.3874  138.7410  151.7590 O   0  0  0  0  0  0  0  0  0  0  0  0
  146.8654  139.6220  155.4433 C   0  0  0  0  0  0  0  0  0  0  0  0
  145.7108  140.6377  155.3897 C   0  0  0  0  0  0  0  0  0  0  0  0
  146.2088  141.9097  154.9964 O   0  0  0  0  0  0  0  0  0  0  0  0
  146.7761  141.8993  153.6934 C   0  0  0  0  0  0  0  0  0  0  0  0
  147.9756  140.9341  153.6412 C   0  0  0  0  0  0  0  0  0  0  0  0
  154.7656  136.4840  160.6111 H   0  0  0  0  0  0  0  0  0  0  0  0
  153.6506  137.3754  161.6402 H   0  0  0  0  0  0  0  0  0  0  0  0
  155.3017  137.9549  161.4004 H   0  0  0  0  0  0  0  0  0  0  0  0
  154.8128  138.4140  158.9935 H   0  0  0  0  0  0  0  0  0  0  0  0
  153.2514  137.6617  159.1683 H   0  0  0  0  0  0  0  0  0  0  0  0
  152.6323  139.5184  160.8242 H   0  0  0  0  0  0  0  0  0  0  0  0
  154.9121  140.2970  161.4441 H   0  0  0  0  0  0  0  0  0  0  0  0
  155.2416  140.7242  159.7846 H   0  0  0  0  0  0  0  0  0  0  0  0
  152.2450  141.4993  161.9657 H   0  0  0  0  0  0  0  0  0  0  0  0
  153.7226  141.7917  162.8534 H   0  0  0  0  0  0  0  0  0  0  0  0
  152.0877  143.6522  163.1672 H   0  0  0  0  0  0  0  0  0  0  0  0
  153.5747  144.2142  162.4412 H   0  0  0  0  0  0  0  0  0  0  0  0
  150.9639  143.6074  160.9648 H   0  0  0  0  0  0  0  0  0  0  0  0
  151.6499  145.1910  161.2375 H   0  0  0  0  0  0  0  0  0  0  0  0
  152.1643  144.3528  158.9260 H   0  0  0  0  0  0  0  0  0  0  0  0
  153.6049  144.6671  159.8553 H   0  0  0  0  0  0  0  0  0  0  0  0
  153.9691  142.6007  158.7567 H   0  0  0  0  0  0  0  0  0  0  0  0
  151.3056  141.5762  159.8198 H   0  0  0  0  0  0  0  0  0  0  0  0
  151.6836  141.9728  158.1571 H   0  0  0  0  0  0  0  0  0  0  0  0
  150.1593  136.6207  158.9028 H   0  0  0  0  0  0  0  0  0  0  0  0
  150.4302  141.0846  154.2661 H   0  0  0  0  0  0  0  0  0  0  0  0
  149.4534  138.5123  153.3998 H   0  0  0  0  0  0  0  0  0  0  0  0
  148.6747  137.6794  154.7085 H   0  0  0  0  0  0  0  0  0  0  0  0
  146.4660  137.7958  153.2935 H   0  0  0  0  0  0  0  0  0  0  0  0
  145.7969  139.3467  152.8849 H   0  0  0  0  0  0  0  0  0  0  0  0
  148.2160  139.1907  151.8239 H   0  0  0  0  0  0  0  0  0  0  0  0
  146.4915  138.6523  155.7726 H   0  0  0  0  0  0  0  0  0  0  0  0
  147.5603  139.9483  156.2183 H   0  0  0  0  0  0  0  0  0  0  0  0
  144.9193  140.3128  154.7136 H   0  0  0  0  0  0  0  0  0  0  0  0
  145.2571  140.7333  156.3763 H   0  0  0  0  0  0  0  0  0  0  0  0
  146.0174  141.6391  152.9550 H   0  0  0  0  0  0  0  0  0  0  0  0
  147.1058  142.9098  153.4522 H   0  0  0  0  0  0  0  0  0  0  0  0
  148.7591  141.3344  154.2861 H   0  0  0  0  0  0  0  0  0  0  0  0
  148.3860  140.9293  152.6309 H   0  0  0  0  0  0  0  0  0  0  0  0
  154.7283  142.6111  160.9018 H   0  0  0  0  0  0  0  0  0  0  0  0
  1  2  1  0  0  0  0
  1 31  1  0  0  0  0
  1 32  1  0  0  0  0
  1 33  1  0  0  0  0
  2  3  1  0  0  0  0
  2 34  1  0  0  0  0
  2 35  1  0  0  0  0
  3 12  1  0  0  0  0
  3  4  1  0  0  0  0
  3 36  1  0  0  0  0
  4  5  1  0  0  0  0
  4 37  1  0  0  0  0
  4 38  1  0  0  0  0
  5 10  1  0  0  0  0
  5  6  1  0  0  0  0
  5 65  1  0  0  0  0
  6  7  1  0  0  0  0
  6 39  1  0  0  0  0
  6 40  1  0  0  0  0
  7  8  1  0  0  0  0
  7 41  1  0  0  0  0
  7 42  1  0  0  0  0
  8  9  1  0  0  0  0
  8 43  1  0  0  0  0
  8 44  1  0  0  0  0
  9 10  1  0  0  0  0
  9 45  1  0  0  0  0
  9 46  1  0  0  0  0
 10 11  1  0  0  0  0
 10 47  1  0  0  0  0
 11 12  1  0  0  0  0
 11 48  1  0  0  0  0
 11 49  1  0  0  0  0
 12 13  1  0  0  0  0
 13 18  1  0  0  0  0
 13 14  2  0  0  0  0
 14 15  1  0  0  0  0
 15 16  2  0  0  0  0
 15 50  1  0  0  0  0
 16 17  1  0  0  0  0
 17 21  1  0  0  0  0
 17 18  2  0  0  0  0
 18 19  1  0  0  0  0
 19 20  2  0  0  0  0
 20 21  1  0  0  0  0
 20 51  1  0  0  0  0
 21 22  1  0  0  0  0
 22 23  1  0  0  0  0
 22 52  1  0  0  0  0
 22 53  1  0  0  0  0
 23 30  1  0  0  0  0
 23 24  1  0  0  0  0
 23 26  1  0  0  0  0
 24 25  1  0  0  0  0
 24 54  1  0  0  0  0
 24 55  1  0  0  0  0
 25 56  1  0  0  0  0
 26 27  1  0  0  0  0
 26 57  1  0  0  0  0
 26 58  1  0  0  0  0
 27 28  1  0  0  0  0
 27 59  1  0  0  0  0
 27 60  1  0  0  0  0
 28 29  1  0  0  0  0
 29 30  1  0  0  0  0
 29 61  1  0  0  0  0
 29 62  1  0  0  0  0
 30 63  1  0  0  0  0
 30 64  1  0  0  0  0
M  CHG  1   5   1
M  END
> <s_m_source_file>
AV-unprocessed.smi

> <i_m_source_file_index>
282

> <i_lp_mmshare_version>
43012

> <i_f3d_flags>
0

> <s_epik_input>
W0NIMl0xW0NIMl1bQ0gyXVtDSDJdW0NAQEhdKE4xMilbQ0gyXU4oW0NAQEhdKFtDSDJdMilbQ0gyXVtDSDNdKWMobltjSF1uMyljKGMzNCluW2NIXW40W0NIMl1DNShbQ0gyXVtPSF0pW0NIMl1bQ0gyXU9bQ0gyXVtDSDJdNQ==

> <s_epik_cmdline>
J2VwaWtfcHl0aG9uJywgJy1waCcsICc3LjAnLCAnLXRuJywgJzgnLCAnLW1hJywgJzIwMCcsICctbWV0YWxfYmluZGluZycsICctaW1hZScsICc8aW5maWxlLm1hZT4nLCAnLW9tYWUnLCAnPG91dGZpbGUubWFlPic=

> <r_lp_tautomer_probability>
1

> <r_epik_Ionization_Penalty>
0.00308583

> <r_epik_Ionization_Penalty_Charging>
0.00300384

> <r_epik_Ionization_Penalty_Neutral>
8.19894e-05

> <r_epik_State_Penalty>
-0

> <r_epik_Charging_Adjusted_Penalty>
0.00300384

> <i_epik_Tot_Q>
1

> <i_epik_Tot_abs_Q>
1

> <r_epik_Metal_State_Penalty>
-0

> <b_epik_Metal_Only>
0

> <s_lp_Force_Field>
OPLS_2005

> <r_lp_Energy>
59.0592

> <b_lp_Chiralities_Consistent>
1

> <s_lp_Variant>
AV-unprocessed.smi:282-4

> <Gold.Version>
5.8.1

> <Gold.Id.Protein>
6NUR|6NUR_protein|mol2

> <Gold.PLP.Fitness>
54.8552

> <Gold.PLP.PLP>
-51.3968

> <Gold.PLP.part.hbond>
-2.8686

> <Gold.PLP.part.metal>
0.0000

> <Gold.PLP.part.buried>
-5.5270

> <Gold.PLP.part.nonpolar>
-42.7489

> <Gold.PLP.part.repulsive>
0.1725

> <Gold.PLP.ligand.clash>
0.0000

> <Gold.PLP.ligand.torsion>
0.2759

> <Gold.PLP.Chemscore.Hbond>
1.2577

> <Gold.PLP.Chemscore.CHOScore>
0.0000

> <Gold.PLP.Chemscore.Metal>
0.0000

> <Gold.Chemscore.Hbonds>
donor molecule, donor type, donor heavy atom, donor atom, acceptor molecule, acceptor atom, score
      L1  H    25    56       P1  7957  1.00
      P1  H  7954  7966       L1    25  0.18

> <Gold.PLP.Chemscore.Internal.Correction>
0.2372

> <Gold.Rescore>
     Score         DG    S(hbond)    S(metal)    S(lipo)     H(rot)  DE(clash)    DE(int)     intcor
     15.50     -17.44       0.96        0.00     128.54       2.46       0.18       1.76       ----

> <Gold.Chemscore.Fitness>
15.4965

> <Gold.Chemscore.DG>
-17.4444

> <Gold.Chemscore.ZeroCoef>
-5.4800

> <Gold.Chemscore.Hbond>
0.9630

> <Gold.Chemscore.Metal>
0.0000

> <Gold.Chemscore.Lipo>
128.5417

> <Gold.Chemscore.Internal_Hbond>
0.0000

> <Gold.Chemscore.DEClash>
0.1837

> <Gold.Chemscore.DEInternal>
1.7642

> <Gold.Chemscore.Rot>
2.4576

> <Gold.Chemscore.Internal.Correction>
   9.000000E+99

> <Gold.Chemscore.Hbonds>
donor molecule, donor type, donor heavy atom, donor atom, acceptor molecule, acceptor atom, score
      L1  H    25    56       P1  7957  0.95

> <Gold.Chemscore.Hbond.Weighted>
-3.2165

> <Gold.Chemscore.Metal.Weighted>
-0.0000

> <Gold.Chemscore.Lipo.Weighted>
-15.0394

> <Gold.Chemscore.Internal_Hbond.Weighted>
0.0000

> <Gold.Chemscore.DEClash.Weighted>
0.1837

> <Gold.Chemscore.DEInternal.Weighted>
1.7642

> <Gold.Chemscore.Rot.Weighted>
6.2915

> <Gold.Chemscore.Internal.Correction.Weighted>
   9.000000E+99

> <Gold.Protein.RotatedTorsions>
[ 6907 6896 6895 6894 ] final   50.59 input  -60.11 | X-H torsion
[ 7974 7965 7964 7962 ] final -118.95 input  175.53 | X-H torsion
[ 8008 7997 7996 7995 ] final   95.45 input   59.86 | X-H torsion
[ 10167 10162 10161 10158 ] final -132.80 input  -65.29 | X-H torsion
[ 10718 10713 10712 10709 ] final -101.13 input   66.30 | X-H torsion
[ 10763 10752 10751 10750 ] final  130.18 input  -60.55 | X-H torsion
[ 11005 11000 10999 10996 ] final  -99.01 input  -57.11 | X-H torsion

> <Gold.Protein.ActiveResidues>
 VAL166  LYS551  ARG553  GLY616  TRP617  ASP618  TYR619  PRO620  LYS621  CYS622 
 ASP623  PHE694  ASN695  SER759  ASP760  ASP761  ALA762  ILE779  LEU786  VAL792 
 PHE793  MET794  SER795  GLU796  ALA797  LYS798  CYS799  TRP800  GLU811  SER814 

> <Gold.Protein.RotatedAtoms>
  152.3035  134.7583  160.0352 H   0  0  0  0  0  0  0  0  0  0  0  0  # atno 6907 bound_to 6896
  151.8088  133.3374  159.3557 H   0  0  0  0  0  0  0  0  0  0  0  0  # atno 6908 bound_to 6896
  150.7285  134.5613  159.5888 H   0  0  0  0  0  0  0  0  0  0  0  0  # atno 6909 bound_to 6896
  145.0680  140.8338  143.4113 H   0  0  0  0  0  0  0  0  0  0  0  0  # atno 7974 bound_to 7965
  156.0690  140.3286  155.7553 H   0  0  0  0  0  0  0  0  0  0  0  0  # atno 8008 bound_to 7997
  155.5336  140.0595  157.2901 H   0  0  0  0  0  0  0  0  0  0  0  0  # atno 8009 bound_to 7997
  154.4520  140.1923  156.0508 H   0  0  0  0  0  0  0  0  0  0  0  0  # atno 8010 bound_to 7997
  139.9048  143.6564  152.2587 H   0  0  0  0  0  0  0  0  0  0  0  0  # atno 10167 bound_to 10162
  156.0185  130.5359  150.6919 H   0  0  0  0  0  0  0  0  0  0  0  0  # atno 10718 bound_to 10713
  153.7538  135.3206  155.3325 H   0  0  0  0  0  0  0  0  0  0  0  0  # atno 10763 bound_to 10752
  154.8254  135.4573  154.0906 H   0  0  0  0  0  0  0  0  0  0  0  0  # atno 10764 bound_to 10752
  153.2116  135.6936  153.8190 H   0  0  0  0  0  0  0  0  0  0  0  0  # atno 10765 bound_to 10752
  141.1324  133.8288  157.0915 H   0  0  0  0  0  0  0  0  0  0  0  0  # atno 11005 bound_to 11000
  145.1327  139.2621  143.5531 LP  0  0  0  0  0  0  0  0  0  0  0  0  # atno 17320 bound_to 7965
  146.3527  140.0983  142.8609 LP  0  0  0  0  0  0  0  0  0  0  0  0  # atno 17321 bound_to 7965
  139.6994  144.7637  151.1300 LP  0  0  0  0  0  0  0  0  0  0  0  0  # atno 17342 bound_to 10162
  140.7699  143.5479  150.9238 LP  0  0  0  0  0  0  0  0  0  0  0  0  # atno 17343 bound_to 10162
  157.4598  131.0882  151.0757 LP  0  0  0  0  0  0  0  0  0  0  0  0  # atno 17370 bound_to 10713
  157.1248  130.6077  149.5514 LP  0  0  0  0  0  0  0  0  0  0  0  0  # atno 17371 bound_to 10713
  140.0389  134.9864  157.0925 LP  0  0  0  0  0  0  0  0  0  0  0  0  # atno 17394 bound_to 11000
  140.4166  134.1925  155.7163 LP  0  0  0  0  0  0  0  0  0  0  0  0  # atno 17395 bound_to 11000

$$$$
