AV-unprocessed.smi:827|AV-procd|sdf|3857|dock1
  -GOLD-   22720 1303D 1   1.00000     0.00000
 Structure written by MMmdl.
 47 48  0  0  0  0  0  0  0  0  2 V2000
  153.4638  138.4097  154.7494 C   0  0  0  0  0  0  0  0  0  0  0  0
  152.0534  138.6015  154.7267 O   0  0  0  0  0  0  0  0  0  0  0  0
  151.5079  139.5825  155.5329 C   0  0  0  0  0  0  0  0  0  0  0  0
  152.3205  140.2197  156.4130 N   0  0  0  0  0  0  0  0  0  0  0  0
  151.7895  141.1760  157.2018 C   0  0  0  0  0  0  0  0  0  0  0  0
  150.4314  141.5410  157.1615 C   0  0  0  0  0  0  0  0  0  0  0  0
  149.5862  140.8813  156.2504 C   0  0  0  0  0  0  0  0  0  0  0  0
  150.1318  139.8850  155.4043 C   0  0  0  0  0  0  0  0  0  0  0  0
  149.3692  139.1446  154.4583 N   0  0  0  0  0  0  0  0  0  0  0  0
  148.0578  139.2339  154.1793 C   0  0  0  0  0  0  0  0  0  0  0  0
  147.2618  140.0016  154.7195 O   0  0  0  0  0  0  0  0  0  0  0  0
  147.7101  138.3812  153.2049 N   0  0  0  0  0  0  0  0  0  0  0  0
  146.3602  138.2288  152.6740 C   0  0  0  0  0  0  0  0  0  0  0  0
  145.7105  136.9117  153.1420 C   0  0  0  0  0  0  0  0  0  0  0  0
  146.1072  135.7518  152.3046 N   0  3  0  0  0  0  0  0  0  0  0  0
  146.1405  134.4658  153.0563 C   0  0  0  0  0  0  0  0  0  0  0  0
  146.5458  133.2909  152.1475 C   0  0  0  0  0  0  0  0  0  0  0  0
  145.6371  133.2398  150.9985 N   0  0  0  0  0  0  0  0  0  0  0  0
  144.7271  132.2658  150.7568 C   0  0  0  0  0  0  0  0  0  0  0  0
  143.7873  132.3995  149.5565 C   0  0  0  0  0  0  0  0  0  0  0  0
  144.6215  131.2652  151.4658 O   0  0  0  0  0  0  0  0  0  0  0  0
  145.7287  134.4601  150.1927 C   0  0  0  0  0  0  0  0  0  0  0  0
  145.3050  135.6637  151.0544 C   0  0  0  0  0  0  0  0  0  0  0  0
  153.7301  137.6103  154.0583 H   0  0  0  0  0  0  0  0  0  0  0  0
  153.8108  138.1184  155.7419 H   0  0  0  0  0  0  0  0  0  0  0  0
  153.9941  139.3093  154.4335 H   0  0  0  0  0  0  0  0  0  0  0  0
  152.4665  141.6612  157.8892 H   0  0  0  0  0  0  0  0  0  0  0  0
  150.0458  142.3066  157.8186 H   0  0  0  0  0  0  0  0  0  0  0  0
  148.5401  141.1435  156.2304 H   0  0  0  0  0  0  0  0  0  0  0  0
  149.9051  138.5170  153.8763 H   0  0  0  0  0  0  0  0  0  0  0  0
  148.4271  137.7878  152.8131 H   0  0  0  0  0  0  0  0  0  0  0  0
  145.7653  139.0772  153.0132 H   0  0  0  0  0  0  0  0  0  0  0  0
  146.4000  138.2928  151.5863 H   0  0  0  0  0  0  0  0  0  0  0  0
  145.9484  136.7028  154.1861 H   0  0  0  0  0  0  0  0  0  0  0  0
  144.6272  137.0345  153.0933 H   0  0  0  0  0  0  0  0  0  0  0  0
  146.8432  134.5296  153.8861 H   0  0  0  0  0  0  0  0  0  0  0  0
  145.1569  134.2729  153.4882 H   0  0  0  0  0  0  0  0  0  0  0  0
  147.5655  133.4349  151.7870 H   0  0  0  0  0  0  0  0  0  0  0  0
  146.5713  132.3699  152.7280 H   0  0  0  0  0  0  0  0  0  0  0  0
  144.3524  132.4576  148.6258 H   0  0  0  0  0  0  0  0  0  0  0  0
  143.1641  133.2892  149.6507 H   0  0  0  0  0  0  0  0  0  0  0  0
  143.1248  131.5355  149.4890 H   0  0  0  0  0  0  0  0  0  0  0  0
  146.7566  134.5867  149.8493 H   0  0  0  0  0  0  0  0  0  0  0  0
  145.1175  134.4201  149.2900 H   0  0  0  0  0  0  0  0  0  0  0  0
  144.2471  135.5801  151.3097 H   0  0  0  0  0  0  0  0  0  0  0  0
  145.4215  136.5823  150.4780 H   0  0  0  0  0  0  0  0  0  0  0  0
  147.0549  135.9296  152.0040 H   0  0  0  0  0  0  0  0  0  0  0  0
  1  2  1  0  0  0  0
  1 24  1  0  0  0  0
  1 25  1  0  0  0  0
  1 26  1  0  0  0  0
  2  3  1  0  0  0  0
  3  8  1  0  0  0  0
  3  4  2  0  0  0  0
  4  5  1  0  0  0  0
  5  6  2  0  0  0  0
  5 27  1  0  0  0  0
  6  7  1  0  0  0  0
  6 28  1  0  0  0  0
  7  8  2  0  0  0  0
  7 29  1  0  0  0  0
  8  9  1  0  0  0  0
  9 10  1  0  0  0  0
  9 30  1  0  0  0  0
 10 11  2  0  0  0  0
 10 12  1  0  0  0  0
 12 13  1  0  0  0  0
 12 31  1  0  0  0  0
 13 14  1  0  0  0  0
 13 32  1  0  0  0  0
 13 33  1  0  0  0  0
 14 15  1  0  0  0  0
 14 34  1  0  0  0  0
 14 35  1  0  0  0  0
 15 23  1  0  0  0  0
 15 16  1  0  0  0  0
 15 47  1  0  0  0  0
 16 17  1  0  0  0  0
 16 36  1  0  0  0  0
 16 37  1  0  0  0  0
 17 18  1  0  0  0  0
 17 38  1  0  0  0  0
 17 39  1  0  0  0  0
 18 19  1  0  0  0  0
 18 22  1  0  0  0  0
 19 20  1  0  0  0  0
 19 21  2  0  0  0  0
 20 40  1  0  0  0  0
 20 41  1  0  0  0  0
 20 42  1  0  0  0  0
 22 23  1  0  0  0  0
 22 43  1  0  0  0  0
 22 44  1  0  0  0  0
 23 45  1  0  0  0  0
 23 46  1  0  0  0  0
M  CHG  1  15   1
M  END
> <s_m_source_file>
AV-unprocessed.smi

> <i_m_source_file_index>
827

> <i_lp_mmshare_version>
43012

> <i_f3d_flags>
0

> <s_epik_input>
W0NIM11PYzFuW2NIXVtjSF1bY0hdYzFbTkhdQyg9TylbTkhdW0NIMl1bQ0gyXU4yW0NIMl1bQ0gyXU4oQyg9TylbQ0gzXSlbQ0gyXVtDSDJdMg==

> <s_epik_cmdline>
J2VwaWtfcHl0aG9uJywgJy1waCcsICc3LjAnLCAnLXRuJywgJzgnLCAnLW1hJywgJzIwMCcsICctbWV0YWxfYmluZGluZycsICctaW1hZScsICc8aW5maWxlLm1hZT4nLCAnLW9tYWUnLCAnPG91dGZpbGUubWFlPic=

> <r_lp_tautomer_probability>
1

> <r_epik_Ionization_Penalty>
0.63011

> <r_epik_Ionization_Penalty_Charging>
0.630034

> <r_epik_Ionization_Penalty_Neutral>
7.67152e-05

> <r_epik_State_Penalty>
0.646805

> <r_epik_Charging_Adjusted_Penalty>
1.27684

> <i_epik_Tot_Q>
1

> <i_epik_Tot_abs_Q>
1

> <r_epik_Metal_State_Penalty>
0.64681

> <b_epik_Metal_Only>
0

> <s_lp_Force_Field>
OPLS_2005

> <r_lp_Energy>
42.7203

> <b_lp_Chiralities_Consistent>
1

> <s_lp_Variant>
AV-unprocessed.smi:827-2

> <Gold.Version>
5.8.1

> <Gold.Id.Protein>
6NUR|6NUR_protein|mol2

> <Gold.PLP.Fitness>
44.1404

> <Gold.PLP.PLP>
-33.1095

> <Gold.PLP.part.hbond>
-3.0661

> <Gold.PLP.part.metal>
0.0000

> <Gold.PLP.part.buried>
-2.7068

> <Gold.PLP.part.nonpolar>
-28.1311

> <Gold.PLP.part.repulsive>
0.4004

> <Gold.PLP.ligand.clash>
0.0000

> <Gold.PLP.ligand.torsion>
0.5558

> <Gold.PLP.Chemscore.Hbond>
4.0000

> <Gold.PLP.Chemscore.CHOScore>
0.0000

> <Gold.PLP.Chemscore.Metal>
0.0000

> <Gold.Chemscore.Hbonds>
donor molecule, donor type, donor heavy atom, donor atom, acceptor molecule, acceptor atom, score
      L1  H    12    31       P1  7948  1.00
      L1  H    15    47       P1  7948  2.00
      P1  H  7997  8008       L1     4  1.00

> <Gold.PLP.Chemscore.Internal.Correction>
0.1425

> <Gold.Rescore>
     Score         DG    S(hbond)    S(metal)    S(lipo)     H(rot)  DE(clash)    DE(int)     intcor
     15.30     -18.56       2.75        0.00      74.22       1.87       1.57       1.69       ----

> <Gold.Chemscore.Fitness>
15.3012

> <Gold.Chemscore.DG>
-18.5617

> <Gold.Chemscore.ZeroCoef>
-5.4800

> <Gold.Chemscore.Hbond>
2.7525

> <Gold.Chemscore.Metal>
0.0000

> <Gold.Chemscore.Lipo>
74.2192

> <Gold.Chemscore.Internal_Hbond>
0.0000

> <Gold.Chemscore.DEClash>
1.5748

> <Gold.Chemscore.DEInternal>
1.6857

> <Gold.Chemscore.Rot>
1.8732

> <Gold.Chemscore.Internal.Correction>
   9.000000E+99

> <Gold.Chemscore.Hbonds>
donor molecule, donor type, donor heavy atom, donor atom, acceptor molecule, acceptor atom, score
      L1  H    12    31       P1  7948  0.96
      L1  H    15    47       P1  7948  1.00
      P1  H  7997  8008       L1     4  0.80

> <Gold.Chemscore.Hbond.Weighted>
-9.1935

> <Gold.Chemscore.Metal.Weighted>
-0.0000

> <Gold.Chemscore.Lipo.Weighted>
-8.6836

> <Gold.Chemscore.Internal_Hbond.Weighted>
0.0000

> <Gold.Chemscore.DEClash.Weighted>
1.5748

> <Gold.Chemscore.DEInternal.Weighted>
1.6857

> <Gold.Chemscore.Rot.Weighted>
4.7955

> <Gold.Chemscore.Internal.Correction.Weighted>
   9.000000E+99

> <Gold.Protein.RotatedTorsions>
[ 6907 6896 6895 6894 ] final -117.29 input  -60.11 | X-H torsion
[ 7974 7965 7964 7962 ] final   17.91 input  175.53 | X-H torsion
[ 8008 7997 7996 7995 ] final  -52.12 input   59.86 | X-H torsion
[ 10167 10162 10161 10158 ] final  -77.50 input  -65.29 | X-H torsion
[ 10718 10713 10712 10709 ] final    3.85 input   66.30 | X-H torsion
[ 10763 10752 10751 10750 ] final  173.44 input  -60.55 | X-H torsion
[ 11005 11000 10999 10996 ] final  -64.84 input  -57.11 | X-H torsion

> <Gold.Protein.ActiveResidues>
 VAL166  LYS551  ARG553  GLY616  TRP617  ASP618  TYR619  PRO620  LYS621  CYS622 
 ASP623  PHE694  ASN695  SER759  ASP760  ASP761  ALA762  ILE779  LEU786  VAL792 
 PHE793  MET794  SER795  GLU796  ALA797  LYS798  CYS799  TRP800  GLU811  SER814 

> <Gold.Protein.RotatedAtoms>
  150.8125  133.8396  159.3175 H   0  0  0  0  0  0  0  0  0  0  0  0  # atno 6907 bound_to 6896
  151.6178  135.1033  160.0104 H   0  0  0  0  0  0  0  0  0  0  0  0  # atno 6908 bound_to 6896
  152.4217  133.7086  159.6522 H   0  0  0  0  0  0  0  0  0  0  0  0  # atno 6909 bound_to 6896
  146.2202  139.8533  142.8618 H   0  0  0  0  0  0  0  0  0  0  0  0  # atno 7974 bound_to 7965
  154.4099  140.1231  156.4940 H   0  0  0  0  0  0  0  0  0  0  0  0  # atno 8008 bound_to 7997
  155.6962  140.3495  155.4894 H   0  0  0  0  0  0  0  0  0  0  0  0  # atno 8009 bound_to 7997
  155.9425  140.1090  157.1033 H   0  0  0  0  0  0  0  0  0  0  0  0  # atno 8010 bound_to 7997
  140.4765  143.2413  151.8125 H   0  0  0  0  0  0  0  0  0  0  0  0  # atno 10167 bound_to 10162
  156.8839  130.5663  149.5652 H   0  0  0  0  0  0  0  0  0  0  0  0  # atno 10718 bound_to 10713
  154.4400  135.2762  155.1854 H   0  0  0  0  0  0  0  0  0  0  0  0  # atno 10763 bound_to 10752
  154.3724  135.6106  153.5750 H   0  0  0  0  0  0  0  0  0  0  0  0  # atno 10764 bound_to 10752
  152.9840  135.5860  154.4726 H   0  0  0  0  0  0  0  0  0  0  0  0  # atno 10765 bound_to 10752
  141.1437  133.6672  156.5894 H   0  0  0  0  0  0  0  0  0  0  0  0  # atno 11005 bound_to 11000
  145.2779  141.0129  143.3734 LP  0  0  0  0  0  0  0  0  0  0  0  0  # atno 17320 bound_to 7965
  144.9173  139.4455  143.6558 LP  0  0  0  0  0  0  0  0  0  0  0  0  # atno 17321 bound_to 7965
  139.4826  144.4827  151.9286 LP  0  0  0  0  0  0  0  0  0  0  0  0  # atno 17342 bound_to 10162
  140.3912  144.2613  150.5899 LP  0  0  0  0  0  0  0  0  0  0  0  0  # atno 17343 bound_to 10162
  156.0663  130.5705  150.9295 LP  0  0  0  0  0  0  0  0  0  0  0  0  # atno 17370 bound_to 10713
  157.6124  131.0935  150.8771 LP  0  0  0  0  0  0  0  0  0  0  0  0  # atno 17371 bound_to 10713
  140.3775  134.7552  157.4639 LP  0  0  0  0  0  0  0  0  0  0  0  0  # atno 17394 bound_to 11000
  140.0663  134.5925  155.8691 LP  0  0  0  0  0  0  0  0  0  0  0  0  # atno 17395 bound_to 11000

$$$$
