AV-unprocessed.smi:1381|AV-procd|sdf|5614|dock2
  -GOLD-   22720 5223D 1   1.00000     0.00000
 Structure written by MMmdl.
 42 43  0  0  0  0  0  0  0  0  3 V2000
  151.3772  141.4493  157.0000 C   0  0  0  0  0  0  0  0  0  0  0  0
  151.4959  140.1341  156.3092 C   0  0  0  0  0  0  0  0  0  0  0  0
  150.6569  139.4398  155.4845 C   0  0  0  0  0  0  0  0  0  0  0  0
  151.3915  138.2579  155.1943 C   0  0  0  0  0  0  0  0  0  0  0  0
  150.9873  137.2507  154.4049 N   0  5  0  0  0  0  0  0  0  0  0  0
  150.8883  135.9962  154.9002 C   0  0  0  0  0  0  0  0  0  0  0  0
  151.5395  135.5240  155.8351 O   0  0  0  0  0  0  0  0  0  0  0  0
  149.9811  135.2373  154.2688 N   0  0  0  0  0  0  0  0  0  0  0  0
  149.6825  133.8429  154.5713 C   0  0  0  0  0  0  0  0  0  0  0  0
  149.0517  133.1308  153.3595 C   0  0  0  0  0  0  0  0  0  0  0  0
  147.8100  133.7980  152.8975 N   0  3  1  0  0  0  0  0  0  0  0  0
  147.0630  132.9824  151.9127 C   0  0  0  0  0  0  0  0  0  0  0  0
  145.8468  133.7614  151.3817 C   0  0  1  0  0  0  0  0  0  0  0  0
  144.9979  132.9185  150.4234 C   0  0  0  0  0  0  0  0  0  0  0  0
  145.0180  134.1507  152.4739 O   0  0  0  0  0  0  0  0  0  0  0  0
  145.6677  134.9438  153.4676 C   0  0  2  0  0  0  0  0  0  0  0  0
  145.9589  136.3722  152.9742 C   0  0  0  0  0  0  0  0  0  0  0  0
  146.9137  134.2124  154.0049 C   0  0  0  0  0  0  0  0  0  0  0  0
  152.5788  138.2444  155.7768 N   0  0  0  0  0  0  0  0  0  0  0  0
  152.6510  139.4415  156.4991 O   0  0  0  0  0  0  0  0  0  0  0  0
  151.5369  142.2681  156.2989 H   0  0  0  0  0  0  0  0  0  0  0  0
  152.1122  141.5402  157.8002 H   0  0  0  0  0  0  0  0  0  0  0  0
  150.3862  141.5670  157.4385 H   0  0  0  0  0  0  0  0  0  0  0  0
  149.6729  139.7276  155.1462 H   0  0  0  0  0  0  0  0  0  0  0  0
  149.4665  135.6642  153.5122 H   0  0  0  0  0  0  0  0  0  0  0  0
  150.5952  133.3460  154.9014 H   0  0  0  0  0  0  0  0  0  0  0  0
  148.9935  133.8200  155.4157 H   0  0  0  0  0  0  0  0  0  0  0  0
  149.7830  133.1335  152.5496 H   0  0  0  0  0  0  0  0  0  0  0  0
  148.8423  132.0828  153.5799 H   0  0  0  0  0  0  0  0  0  0  0  0
  147.7173  132.7177  151.0809 H   0  0  0  0  0  0  0  0  0  0  0  0
  146.7444  132.0487  152.3797 H   0  0  0  0  0  0  0  0  0  0  0  0
  146.1860  134.6462  150.8425 H   0  0  0  0  0  0  0  0  0  0  0  0
  145.5826  132.5911  149.5634 H   0  0  0  0  0  0  0  0  0  0  0  0
  144.1495  133.4916  150.0485 H   0  0  0  0  0  0  0  0  0  0  0  0
  144.6056  132.0301  150.9196 H   0  0  0  0  0  0  0  0  0  0  0  0
  144.9577  135.0355  154.2901 H   0  0  0  0  0  0  0  0  0  0  0  0
  146.3228  136.9955  153.7914 H   0  0  0  0  0  0  0  0  0  0  0  0
  145.0552  136.8391  152.5820 H   0  0  0  0  0  0  0  0  0  0  0  0
  146.7153  136.3945  152.1902 H   0  0  0  0  0  0  0  0  0  0  0  0
  146.6046  133.3261  154.5615 H   0  0  0  0  0  0  0  0  0  0  0  0
  147.4377  134.8561  154.7107 H   0  0  0  0  0  0  0  0  0  0  0  0
  148.0972  134.6369  152.4140 H   0  0  0  0  0  0  0  0  0  0  0  0
  1  2  1  0  0  0  0
  1 21  1  0  0  0  0
  1 22  1  0  0  0  0
  1 23  1  0  0  0  0
  2 20  1  0  0  0  0
  2  3  2  0  0  0  0
  3  4  1  0  0  0  0
  3 24  1  0  0  0  0
  4  5  1  0  0  0  0
  4 19  2  0  0  0  0
  5  6  1  0  0  0  0
  6  7  2  0  0  0  0
  6  8  1  0  0  0  0
  8  9  1  0  0  0  0
  8 25  1  0  0  0  0
  9 10  1  0  0  0  0
  9 26  1  0  0  0  0
  9 27  1  0  0  0  0
 10 11  1  0  0  0  0
 10 28  1  0  0  0  0
 10 29  1  0  0  0  0
 11 18  1  0  0  0  0
 11 12  1  0  0  0  0
 11 42  1  0  0  0  0
 12 13  1  0  0  0  0
 12 30  1  0  0  0  0
 12 31  1  0  0  0  0
 13 14  1  0  0  0  0
 13 15  1  0  0  0  0
 13 32  1  0  0  0  0
 14 33  1  0  0  0  0
 14 34  1  0  0  0  0
 14 35  1  0  0  0  0
 15 16  1  0  0  0  0
 16 17  1  0  0  0  0
 16 18  1  0  0  0  0
 16 36  1  0  0  0  0
 17 37  1  0  0  0  0
 17 38  1  0  0  0  0
 17 39  1  0  0  0  0
 18 40  1  0  0  0  0
 18 41  1  0  0  0  0
 19 20  1  0  0  0  0
M  CHG  1   5  -1
M  CHG  1  11   1
M  END
> <s_m_source_file>
AV-unprocessed.smi

> <i_m_source_file_index>
1381

> <i_lp_mmshare_version>
43012

> <i_f3d_flags>
0

> <s_epik_input>
W0NIM11jMVtjSF1jKG5vMSlbTkhdQyg9TylbTkhdW0NIMl1bQ0gyXU4yW0NIMl1bQ0BASF0oW0NIM10pT1tDQEBIXShbQ0gzXSlbQ0gyXTI=

> <s_epik_cmdline>
J2VwaWtfcHl0aG9uJywgJy1waCcsICc3LjAnLCAnLXRuJywgJzgnLCAnLW1hJywgJzIwMCcsICctbWV0YWxfYmluZGluZycsICctaW1hZScsICc8aW5maWxlLm1hZT4nLCAnLW9tYWUnLCAnPG91dGZpbGUubWFlPic=

> <r_epik_Ionization_Penalty>
6.73511

> <r_epik_Ionization_Penalty_Charging>
6.73502

> <r_epik_Ionization_Penalty_Neutral>
9.26583e-05

> <r_epik_State_Penalty>
6.93549

> <r_epik_Charging_Adjusted_Penalty>
13.6705

> <i_epik_Tot_Q>
0

> <i_epik_Tot_abs_Q>
2

> <r_epik_Metal_State_Penalty>
2.87211

> <b_epik_Metal_Only>
1

> <s_lp_Force_Field>
OPLS_2005

> <r_lp_Energy>
5.23247

> <b_lp_Chiralities_Consistent>
1

> <s_lp_Variant>
AV-unprocessed.smi:1381-13

> <Gold.Version>
5.8.1

> <Gold.Id.Protein>
6NUR|6NUR_protein|mol2

> <Gold.PLP.Fitness>
45.1859

> <Gold.PLP.PLP>
-32.1951

> <Gold.PLP.part.hbond>
-4.9816

> <Gold.PLP.part.metal>
0.0000

> <Gold.PLP.part.buried>
-3.3187

> <Gold.PLP.part.nonpolar>
-24.0903

> <Gold.PLP.part.repulsive>
0.4249

> <Gold.PLP.ligand.clash>
0.0000

> <Gold.PLP.ligand.torsion>
0.9785

> <Gold.PLP.Chemscore.Hbond>
4.9500

> <Gold.PLP.Chemscore.CHOScore>
0.0000

> <Gold.PLP.Chemscore.Metal>
0.0000

> <Gold.Chemscore.Hbonds>
donor molecule, donor type, donor heavy atom, donor atom, acceptor molecule, acceptor atom, score
      L1  H     8    25       P1  7948  1.00
      L1  H    11    42       P1  7948  2.00
      P1  H  7997  8009       L1    20  0.96
      P1  H 10752 10765       L1     7  0.75

> <Gold.PLP.Chemscore.Internal.Correction>
0.0979

> <Gold.Rescore>
     Score         DG    S(hbond)    S(metal)    S(lipo)     H(rot)  DE(clash)    DE(int)     intcor
     17.10     -19.34       3.45        0.00      54.39       1.58       1.12       1.13       ----

> <Gold.Chemscore.Fitness>
17.0968

> <Gold.Chemscore.DG>
-19.3400

> <Gold.Chemscore.ZeroCoef>
-5.4800

> <Gold.Chemscore.Hbond>
3.4549

> <Gold.Chemscore.Metal>
0.0000

> <Gold.Chemscore.Lipo>
54.3884

> <Gold.Chemscore.Internal_Hbond>
0.0000

> <Gold.Chemscore.DEClash>
1.1159

> <Gold.Chemscore.DEInternal>
1.1273

> <Gold.Chemscore.Rot>
1.5792

> <Gold.Chemscore.Internal.Correction>
   9.000000E+99

> <Gold.Chemscore.Hbonds>
donor molecule, donor type, donor heavy atom, donor atom, acceptor molecule, acceptor atom, score
      L1  H     8    25       P1  7948  0.26
      L1  H    11    42       P1  7948  0.40
      P1  H  7997  8009       L1    20  0.46
      P1  H 10752 10765       L1     7  0.09

> <Gold.Chemscore.Hbond.Weighted>
-11.5394

> <Gold.Chemscore.Metal.Weighted>
-0.0000

> <Gold.Chemscore.Lipo.Weighted>
-6.3634

> <Gold.Chemscore.Internal_Hbond.Weighted>
0.0000

> <Gold.Chemscore.DEClash.Weighted>
1.1159

> <Gold.Chemscore.DEInternal.Weighted>
1.1273

> <Gold.Chemscore.Rot.Weighted>
4.0428

> <Gold.Chemscore.Internal.Correction.Weighted>
   9.000000E+99

> <Gold.Protein.RotatedTorsions>
[ 6907 6896 6895 6894 ] final   22.36 input  -60.11 | X-H torsion
[ 7974 7965 7964 7962 ] final -105.96 input  175.53 | X-H torsion
[ 8008 7997 7996 7995 ] final -146.12 input   59.86 | X-H torsion
[ 10167 10162 10161 10158 ] final   76.26 input  -65.29 | X-H torsion
[ 10718 10713 10712 10709 ] final    6.33 input   66.30 | X-H torsion
[ 10763 10752 10751 10750 ] final -156.72 input  -60.55 | X-H torsion
[ 11005 11000 10999 10996 ] final  175.68 input  -57.11 | X-H torsion

> <Gold.Protein.ActiveResidues>
 VAL166  LYS551  ARG553  GLY616  TRP617  ASP618  TYR619  PRO620  LYS621  CYS622 
 ASP623  PHE694  ASN695  SER759  ASP760  ASP761  ALA762  ILE779  LEU786  VAL792 
 PHE793  MET794  SER795  GLU796  ALA797  LYS798  CYS799  TRP800  GLU811  SER814 

> <Gold.Protein.RotatedAtoms>
  151.9260  135.0278  160.0525 H   0  0  0  0  0  0  0  0  0  0  0  0  # atno 6907 bound_to 6896
  152.2159  133.4942  159.5144 H   0  0  0  0  0  0  0  0  0  0  0  0  # atno 6908 bound_to 6896
  150.6987  134.1322  159.4117 H   0  0  0  0  0  0  0  0  0  0  0  0  # atno 6909 bound_to 6896
  145.2238  140.9144  143.3244 H   0  0  0  0  0  0  0  0  0  0  0  0  # atno 7974 bound_to 7965
  155.5543  140.0619  157.2843 H   0  0  0  0  0  0  0  0  0  0  0  0  # atno 8008 bound_to 7997
  154.4410  140.1897  156.0763 H   0  0  0  0  0  0  0  0  0  0  0  0  # atno 8009 bound_to 7997
  156.0493  140.3286  155.7337 H   0  0  0  0  0  0  0  0  0  0  0  0  # atno 8010 bound_to 7997
  139.9942  144.5734  150.7792 H   0  0  0  0  0  0  0  0  0  0  0  0  # atno 10167 bound_to 10162
  156.9206  130.5789  149.5648 H   0  0  0  0  0  0  0  0  0  0  0  0  # atno 10718 bound_to 10713
  154.7691  135.3140  154.8226 H   0  0  0  0  0  0  0  0  0  0  0  0  # atno 10763 bound_to 10752
  153.8966  135.6820  153.4762 H   0  0  0  0  0  0  0  0  0  0  0  0  # atno 10764 bound_to 10752
  153.1302  135.4783  154.9270 H   0  0  0  0  0  0  0  0  0  0  0  0  # atno 10765 bound_to 10752
  140.3649  134.7081  157.4355 H   0  0  0  0  0  0  0  0  0  0  0  0  # atno 11005 bound_to 11000
  144.9740  139.3850  143.6295 LP  0  0  0  0  0  0  0  0  0  0  0  0  # atno 17320 bound_to 7965
  146.3369  139.8851  142.8818 LP  0  0  0  0  0  0  0  0  0  0  0  0  # atno 17321 bound_to 7965
  140.7443  143.2859  151.3465 LP  0  0  0  0  0  0  0  0  0  0  0  0  # atno 17342 bound_to 10162
  139.6318  144.0706  152.2483 LP  0  0  0  0  0  0  0  0  0  0  0  0  # atno 17343 bound_to 10162
  156.0492  130.5564  150.8952 LP  0  0  0  0  0  0  0  0  0  0  0  0  # atno 17370 bound_to 10713
  157.5910  131.0944  150.9119 LP  0  0  0  0  0  0  0  0  0  0  0  0  # atno 17371 bound_to 10713
  140.0597  134.6013  155.8763 LP  0  0  0  0  0  0  0  0  0  0  0  0  # atno 17394 bound_to 11000
  141.1973  133.6595  156.5733 LP  0  0  0  0  0  0  0  0  0  0  0  0  # atno 17395 bound_to 11000

$$$$
