AV-unprocessed.smi:2973|AV-procd|sdf|11348|dock4
  -GOLD-   2272016263D 1   1.00000     0.00000
 Structure written by MMmdl.
 48 50  0  0  0  0  0  0  0  0  2 V2000
  148.0236  136.5125  162.6859 C   0  0  0  0  0  0  0  0  0  0  0  0
  146.7996  135.7412  162.1443 C   0  0  1  0  0  0  0  0  0  0  0  0
  145.5007  136.3377  162.7310 C   0  0  0  0  0  0  0  0  0  0  0  0
  144.2568  135.5560  162.2845 C   0  0  0  0  0  0  0  0  0  0  0  0
  144.1620  135.4903  160.7553 C   0  0  0  0  0  0  0  0  0  0  0  0
  145.4410  134.8869  160.1492 C   0  0  0  0  0  0  0  0  0  0  0  0
  146.7383  135.6209  160.5842 C   0  0  2  0  0  0  0  0  0  0  0  0
  147.8787  134.8684  160.0907 N   0  5  0  0  0  0  0  0  0  0  0  0
  148.5718  135.6336  159.2165 C   0  0  0  0  0  0  0  0  0  0  0  0
  149.5877  135.3107  158.6014 O   0  0  0  0  0  0  0  0  0  0  0  0
  148.0071  136.8483  159.0846 N   0  0  0  0  0  0  0  0  0  0  0  0
  148.5021  137.9114  158.2004 C   0  0  0  0  0  0  0  0  0  0  0  0
  149.9204  138.3788  158.5548 C   0  0  0  0  0  0  0  0  0  0  0  0
  150.5715  137.8182  159.4375 O   0  0  0  0  0  0  0  0  0  0  0  0
  150.3950  139.4053  157.8338 N   0  0  0  0  0  0  0  0  0  0  0  0
  151.7120  140.0077  158.0006 C   0  0  0  0  0  0  0  0  0  0  0  0
  151.7909  140.8551  159.2815 C   0  0  0  0  0  0  0  0  0  0  0  0
  151.6620  142.3386  158.9943 C   0  0  0  0  0  0  0  0  0  0  0  0
  152.8085  143.1317  158.7738 C   0  0  0  0  0  0  0  0  0  0  0  0
  152.6339  144.5025  158.5021 C   0  0  0  0  0  0  0  0  0  0  0  0
  151.3265  145.0245  158.4596 C   0  0  0  0  0  0  0  0  0  0  0  0
  150.2473  144.1484  158.6920 C   0  0  0  0  0  0  0  0  0  0  0  0
  150.4038  142.8327  158.9531 N   0  0  0  0  0  0  0  0  0  0  0  0
  146.9114  136.9469  159.8454 C   0  0  0  0  0  0  0  0  0  0  0  0
  146.1642  137.9208  159.9501 O   0  0  0  0  0  0  0  0  0  0  0  0
  148.0099  137.5600  162.3844 H   0  0  0  0  0  0  0  0  0  0  0  0
  148.9604  136.0772  162.3379 H   0  0  0  0  0  0  0  0  0  0  0  0
  148.0454  136.4884  163.7755 H   0  0  0  0  0  0  0  0  0  0  0  0
  146.8805  134.7264  162.5380 H   0  0  0  0  0  0  0  0  0  0  0  0
  145.5522  136.3314  163.8202 H   0  0  0  0  0  0  0  0  0  0  0  0
  145.3993  137.3837  162.4411 H   0  0  0  0  0  0  0  0  0  0  0  0
  144.2954  134.5449  162.6918 H   0  0  0  0  0  0  0  0  0  0  0  0
  143.3589  136.0203  162.6931 H   0  0  0  0  0  0  0  0  0  0  0  0
  143.2999  134.8891  160.4655 H   0  0  0  0  0  0  0  0  0  0  0  0
  143.9841  136.4872  160.3523 H   0  0  0  0  0  0  0  0  0  0  0  0
  145.5014  133.8381  160.4452 H   0  0  0  0  0  0  0  0  0  0  0  0
  145.3523  134.8814  159.0612 H   0  0  0  0  0  0  0  0  0  0  0  0
  148.5014  137.5736  157.1630 H   0  0  0  0  0  0  0  0  0  0  0  0
  147.8187  138.7619  158.2338 H   0  0  0  0  0  0  0  0  0  0  0  0
  149.7947  139.8046  157.1271 H   0  0  0  0  0  0  0  0  0  0  0  0
  152.4462  139.2028  158.0438 H   0  0  0  0  0  0  0  0  0  0  0  0
  151.9613  140.6095  157.1248 H   0  0  0  0  0  0  0  0  0  0  0  0
  151.0036  140.5632  159.9781 H   0  0  0  0  0  0  0  0  0  0  0  0
  152.7359  140.6697  159.7939 H   0  0  0  0  0  0  0  0  0  0  0  0
  153.7987  142.7010  158.8098 H   0  0  0  0  0  0  0  0  0  0  0  0
  153.4871  145.1417  158.3285 H   0  0  0  0  0  0  0  0  0  0  0  0
  151.1542  146.0705  158.2535 H   0  0  0  0  0  0  0  0  0  0  0  0
  149.2314  144.5145  158.6670 H   0  0  0  0  0  0  0  0  0  0  0  0
  1  2  1  0  0  0  0
  1 26  1  0  0  0  0
  1 27  1  0  0  0  0
  1 28  1  0  0  0  0
  2  7  1  0  0  0  0
  2  3  1  0  0  0  0
  2 29  1  0  0  0  0
  3  4  1  0  0  0  0
  3 30  1  0  0  0  0
  3 31  1  0  0  0  0
  4  5  1  0  0  0  0
  4 32  1  0  0  0  0
  4 33  1  0  0  0  0
  5  6  1  0  0  0  0
  5 34  1  0  0  0  0
  5 35  1  0  0  0  0
  6  7  1  0  0  0  0
  6 36  1  0  0  0  0
  6 37  1  0  0  0  0
  7 24  1  0  0  0  0
  7  8  1  0  0  0  0
  8  9  1  0  0  0  0
  9 10  2  0  0  0  0
  9 11  1  0  0  0  0
 11 12  1  0  0  0  0
 11 24  1  0  0  0  0
 12 13  1  0  0  0  0
 12 38  1  0  0  0  0
 12 39  1  0  0  0  0
 13 14  2  0  0  0  0
 13 15  1  0  0  0  0
 15 16  1  0  0  0  0
 15 40  1  0  0  0  0
 16 17  1  0  0  0  0
 16 41  1  0  0  0  0
 16 42  1  0  0  0  0
 17 18  1  0  0  0  0
 17 43  1  0  0  0  0
 17 44  1  0  0  0  0
 18 23  1  0  0  0  0
 18 19  2  0  0  0  0
 19 20  1  0  0  0  0
 19 45  1  0  0  0  0
 20 21  2  0  0  0  0
 20 46  1  0  0  0  0
 21 22  1  0  0  0  0
 21 47  1  0  0  0  0
 22 23  2  0  0  0  0
 22 48  1  0  0  0  0
 24 25  2  0  0  0  0
M  CHG  1   8  -1
M  END
> <s_m_source_file>
AV-unprocessed.smi

> <i_m_source_file_index>
2973

> <i_lp_mmshare_version>
43012

> <i_f3d_flags>
0

> <s_epik_input>
W0NIMl0xW0NIMl1bQ0gyXVtDSDJdW0NAQEhdKFtDSDNdKVtDQF0xMltOSF1DKD1PKU4oQzI9TylbQ0gyXUMoPU8pW05IXVtDSDJdW0NIMl1jM1tjSF1bY0hdW2NIXVtjSF1uMw==

> <s_epik_cmdline>
J2VwaWtfcHl0aG9uJywgJy1waCcsICc3LjAnLCAnLXRuJywgJzgnLCAnLW1hJywgJzIwMCcsICctbWV0YWxfYmluZGluZycsICctaW1hZScsICc8aW5maWxlLm1hZT4nLCAnLW9tYWUnLCAnPG91dGZpbGUubWFlPic=

> <r_lp_tautomer_probability>
1

> <r_epik_Ionization_Penalty>
6.04175

> <r_epik_Ionization_Penalty_Charging>
6.01728

> <r_epik_Ionization_Penalty_Neutral>
0.0244696

> <r_epik_State_Penalty>
6.03712

> <r_epik_Charging_Adjusted_Penalty>
12.0544

> <i_epik_Tot_Q>
-1

> <i_epik_Tot_abs_Q>
1

> <r_epik_Metal_State_Penalty>
2.01153

> <b_epik_Metal_Only>
1

> <s_lp_Force_Field>
OPLS_2005

> <r_lp_Energy>
9.40787

> <b_lp_Chiralities_Consistent>
1

> <s_lp_Variant>
AV-unprocessed.smi:2973-12

> <Gold.Version>
5.8.1

> <Gold.Id.Protein>
6NUR|6NUR_protein|mol2

> <Gold.PLP.Fitness>
47.5630

> <Gold.PLP.PLP>
-40.0665

> <Gold.PLP.part.hbond>
-3.4340

> <Gold.PLP.part.metal>
0.0000

> <Gold.PLP.part.buried>
-6.4687

> <Gold.PLP.part.nonpolar>
-30.2066

> <Gold.PLP.part.repulsive>
0.1720

> <Gold.PLP.ligand.clash>
0.0000

> <Gold.PLP.ligand.torsion>
0.7578

> <Gold.PLP.Chemscore.Hbond>
2.0000

> <Gold.PLP.Chemscore.CHOScore>
0.9935

> <Gold.PLP.Chemscore.Metal>
0.0000

> <Gold.Chemscore.Hbonds>
donor molecule, donor type, donor heavy atom, donor atom, acceptor molecule, acceptor atom, score
      P1  H  6896  6907       L1    10  1.00
      P1  H  6934  6947       L1    25  0.96
      L1  C    22    48       P1  8029  1.00

> <Gold.PLP.Chemscore.Internal.Correction>
0.0315

> <Gold.Rescore>
     Score         DG    S(hbond)    S(metal)    S(lipo)     H(rot)  DE(clash)    DE(int)     intcor
     16.69     -20.07       1.76        0.00     113.99       1.81       0.32       3.06       ----

> <Gold.Chemscore.Fitness>
16.6904

> <Gold.Chemscore.DG>
-20.0666

> <Gold.Chemscore.ZeroCoef>
-5.4800

> <Gold.Chemscore.Hbond>
1.7606

> <Gold.Chemscore.Metal>
0.0000

> <Gold.Chemscore.Lipo>
113.9925

> <Gold.Chemscore.Internal_Hbond>
0.0000

> <Gold.Chemscore.DEClash>
0.3197

> <Gold.Chemscore.DEInternal>
3.0565

> <Gold.Chemscore.Rot>
1.8090

> <Gold.Chemscore.Internal.Correction>
   9.000000E+99

> <Gold.Chemscore.Hbonds>
donor molecule, donor type, donor heavy atom, donor atom, acceptor molecule, acceptor atom, score
      P1  H  6896  6907       L1    10  0.88
      P1  H  6934  6947       L1    25  0.32

> <Gold.Chemscore.Hbond.Weighted>
-5.8805

> <Gold.Chemscore.Metal.Weighted>
-0.0000

> <Gold.Chemscore.Lipo.Weighted>
-13.3371

> <Gold.Chemscore.Internal_Hbond.Weighted>
0.0000

> <Gold.Chemscore.DEClash.Weighted>
0.3197

> <Gold.Chemscore.DEInternal.Weighted>
3.0565

> <Gold.Chemscore.Rot.Weighted>
4.6310

> <Gold.Chemscore.Internal.Correction.Weighted>
   9.000000E+99

> <Gold.Protein.RotatedTorsions>
[ 6907 6896 6895 6894 ] final  -87.68 input  -60.11 | X-H torsion
[ 7974 7965 7964 7962 ] final   95.56 input  175.53 | X-H torsion
[ 8008 7997 7996 7995 ] final -103.88 input   59.86 | X-H torsion
[ 10167 10162 10161 10158 ] final  -99.39 input  -65.29 | X-H torsion
[ 10718 10713 10712 10709 ] final    2.59 input   66.30 | X-H torsion
[ 10763 10752 10751 10750 ] final  -65.11 input  -60.55 | X-H torsion
[ 11005 11000 10999 10996 ] final   90.19 input  -57.11 | X-H torsion

> <Gold.Protein.ActiveResidues>
 VAL166  LYS551  ARG553  GLY616  TRP617  ASP618  TYR619  PRO620  LYS621  CYS622 
 ASP623  PHE694  ASN695  SER759  ASP760  ASP761  ALA762  ILE779  LEU786  VAL792 
 PHE793  MET794  SER795  GLU796  ALA797  LYS798  CYS799  TRP800  GLU811  SER814 

> <Gold.Protein.RotatedAtoms>
  150.6867  134.2859  159.4646 H   0  0  0  0  0  0  0  0  0  0  0  0  # atno 6907 bound_to 6896
  152.0768  134.9494  160.0583 H   0  0  0  0  0  0  0  0  0  0  0  0  # atno 6908 bound_to 6896
  152.0863  133.4143  159.4560 H   0  0  0  0  0  0  0  0  0  0  0  0  # atno 6909 bound_to 6896
  145.4506  139.2293  143.3042 H   0  0  0  0  0  0  0  0  0  0  0  0  # atno 7974 bound_to 7965
  154.8772  140.0420  157.1760 H   0  0  0  0  0  0  0  0  0  0  0  0  # atno 8008 bound_to 7997
  154.8677  140.2953  155.5479 H   0  0  0  0  0  0  0  0  0  0  0  0  # atno 8009 bound_to 7997
  156.2999  140.2435  156.3661 H   0  0  0  0  0  0  0  0  0  0  0  0  # atno 8010 bound_to 7997
  140.2630  143.3395  152.0608 H   0  0  0  0  0  0  0  0  0  0  0  0  # atno 10167 bound_to 10162
  156.8652  130.5601  149.5660 H   0  0  0  0  0  0  0  0  0  0  0  0  # atno 10718 bound_to 10713
  154.3401  135.6158  153.5592 H   0  0  0  0  0  0  0  0  0  0  0  0  # atno 10763 bound_to 10752
  152.9805  135.5767  154.4863 H   0  0  0  0  0  0  0  0  0  0  0  0  # atno 10764 bound_to 10752
  154.4565  135.2854  155.1720 H   0  0  0  0  0  0  0  0  0  0  0  0  # atno 10765 bound_to 10752
  139.8861  134.8598  156.3249 H   0  0  0  0  0  0  0  0  0  0  0  0  # atno 11005 bound_to 11000
  146.2506  140.5265  142.8895 LP  0  0  0  0  0  0  0  0  0  0  0  0  # atno 17320 bound_to 7965
  144.8064  140.6307  143.6444 LP  0  0  0  0  0  0  0  0  0  0  0  0  # atno 17321 bound_to 7965
  139.5011  144.6706  151.6251 LP  0  0  0  0  0  0  0  0  0  0  0  0  # atno 17342 bound_to 10162
  140.5951  143.9710  150.6349 LP  0  0  0  0  0  0  0  0  0  0  0  0  # atno 17343 bound_to 10162
  156.0755  130.5778  150.9466 LP  0  0  0  0  0  0  0  0  0  0  0  0  # atno 17370 bound_to 10713
  157.6227  131.0928  150.8592 LP  0  0  0  0  0  0  0  0  0  0  0  0  # atno 17371 bound_to 10713
  140.9762  133.7296  156.0605 LP  0  0  0  0  0  0  0  0  0  0  0  0  # atno 17394 bound_to 11000
  140.7808  134.3728  157.5488 LP  0  0  0  0  0  0  0  0  0  0  0  0  # atno 17395 bound_to 11000

$$$$
