AV-unprocessed.smi:389|AV-procd|sdf|2476|dock7
  -GOLD-   2262022413D 1   1.00000     0.00000
 Structure written by MMmdl.
 34 34  0  0  0  0  0  0  0  0  1 V2000
  152.6385  143.0304  161.4169 C   0  0  0  0  0  0  0  0  0  0  0  0
  152.6232  143.7931  160.0837 C   0  0  0  0  0  0  0  0  0  0  0  0
  152.0201  145.1949  160.2717 C   0  0  0  0  0  0  0  0  0  0  0  0
  151.8863  142.9777  158.9967 C   0  0  0  0  0  0  0  0  0  0  0  0
  151.6303  143.7244  157.6705 C   0  0  0  0  0  0  0  0  0  0  0  0
  150.8675  142.9223  156.7202 N   0  0  0  0  0  0  0  0  0  0  0  0
  151.0526  141.6135  156.4921 C   0  0  0  0  0  0  0  0  0  0  0  0
  151.8537  140.9243  157.1248 O   0  0  0  0  0  0  0  0  0  0  0  0
  150.1941  140.9898  155.3833 C   0  0  0  0  0  0  0  0  0  0  0  0
  150.3940  139.5379  155.2659 N   0  0  0  0  0  0  0  0  0  0  0  0
  149.3213  138.6679  155.3999 C   0  0  0  0  0  0  0  0  0  0  0  0
  149.4387  137.3214  155.3146 C   0  0  0  0  0  0  0  0  0  0  0  0
  150.7392  136.7068  155.0710 C   0  0  0  0  0  0  0  0  0  0  0  0
  150.9464  135.4990  154.9771 O   0  0  0  0  0  0  0  0  0  0  0  0
  151.7938  137.6148  154.9435 N   0  0  0  0  0  0  0  0  0  0  0  0
  151.6803  139.0031  155.0307 C   0  0  0  0  0  0  0  0  0  0  0  0
  152.6770  139.7144  154.9059 O   0  0  0  0  0  0  0  0  0  0  0  0
  152.7143  137.2349  154.7767 H   0  0  0  0  0  0  0  0  0  0  0  0
  151.6278  142.8636  161.7904 H   0  0  0  0  0  0  0  0  0  0  0  0
  153.1890  143.5826  162.1794 H   0  0  0  0  0  0  0  0  0  0  0  0
  153.1190  142.0576  161.3080 H   0  0  0  0  0  0  0  0  0  0  0  0
  153.6640  143.9154  159.7825 H   0  0  0  0  0  0  0  0  0  0  0  0
  150.9672  145.1391  160.5493 H   0  0  0  0  0  0  0  0  0  0  0  0
  152.0954  145.7896  159.3617 H   0  0  0  0  0  0  0  0  0  0  0  0
  152.5413  145.7430  161.0569 H   0  0  0  0  0  0  0  0  0  0  0  0
  152.4635  142.0779  158.7789 H   0  0  0  0  0  0  0  0  0  0  0  0
  150.9342  142.6233  159.3930 H   0  0  0  0  0  0  0  0  0  0  0  0
  151.1063  144.6613  157.8657 H   0  0  0  0  0  0  0  0  0  0  0  0
  152.5750  144.0015  157.2033 H   0  0  0  0  0  0  0  0  0  0  0  0
  150.1805  143.4081  156.1619 H   0  0  0  0  0  0  0  0  0  0  0  0
  149.1489  141.2181  155.5964 H   0  0  0  0  0  0  0  0  0  0  0  0
  150.4067  141.4695  154.4255 H   0  0  0  0  0  0  0  0  0  0  0  0
  148.3384  139.0773  155.5853 H   0  0  0  0  0  0  0  0  0  0  0  0
  148.5655  136.6956  155.4289 H   0  0  0  0  0  0  0  0  0  0  0  0
  1  2  1  0  0  0  0
  1 19  1  0  0  0  0
  1 20  1  0  0  0  0
  1 21  1  0  0  0  0
  2  3  1  0  0  0  0
  2  4  1  0  0  0  0
  2 22  1  0  0  0  0
  3 23  1  0  0  0  0
  3 24  1  0  0  0  0
  3 25  1  0  0  0  0
  4  5  1  0  0  0  0
  4 26  1  0  0  0  0
  4 27  1  0  0  0  0
  5  6  1  0  0  0  0
  5 28  1  0  0  0  0
  5 29  1  0  0  0  0
  6  7  1  0  0  0  0
  6 30  1  0  0  0  0
  7  8  2  0  0  0  0
  7  9  1  0  0  0  0
  9 10  1  0  0  0  0
  9 31  1  0  0  0  0
  9 32  1  0  0  0  0
 10 16  1  0  0  0  0
 10 11  1  0  0  0  0
 11 12  2  0  0  0  0
 11 33  1  0  0  0  0
 12 13  1  0  0  0  0
 12 34  1  0  0  0  0
 13 14  2  0  0  0  0
 13 15  1  0  0  0  0
 15 18  1  0  0  0  0
 15 16  1  0  0  0  0
 16 17  2  0  0  0  0
M  END
> <s_m_source_file>
AV-unprocessed.smi

> <i_m_source_file_index>
389

> <i_lp_mmshare_version>
43012

> <i_f3d_flags>
0

> <s_epik_input>
W0NIM11bQ0hdKFtDSDNdKVtDSDJdW0NIMl1bTkhdQyg9TylbQ0gyXW4xW2NIXVtjSF1jKD1PKVtuSF1jMT1P

> <s_epik_cmdline>
J2VwaWtfcHl0aG9uJywgJy1waCcsICc3LjAnLCAnLXRuJywgJzgnLCAnLW1hJywgJzIwMCcsICctbWV0YWxfYmluZGluZycsICctaW1hZScsICc8aW5maWxlLm1hZT4nLCAnLW9tYWUnLCAnPG91dGZpbGUubWFlPic=

> <r_lp_tautomer_probability>
0.999537

> <r_epik_Ionization_Penalty>
0.00305319

> <r_epik_Ionization_Penalty_Charging>
0.00305317

> <r_epik_Ionization_Penalty_Neutral>
2.06703e-08

> <r_epik_State_Penalty>
0.00214626

> <r_epik_Charging_Adjusted_Penalty>
0.00519944

> <i_epik_Tot_Q>
0

> <i_epik_Tot_abs_Q>
0

> <r_epik_Metal_State_Penalty>
0.361976

> <b_epik_Metal_Only>
0

> <s_lp_Force_Field>
OPLS_2005

> <r_lp_Energy>
4.98151

> <b_lp_Chiralities_Consistent>
1

> <s_lp_Variant>
AV-unprocessed.smi:389-1

> <Gold.Version>
5.8.1

> <Gold.Id.Protein>
6NUR|6NUR_protein|mol2

> <Gold.PLP.Fitness>
46.4622

> <Gold.PLP.PLP>
-37.2561

> <Gold.PLP.part.hbond>
-4.0000

> <Gold.PLP.part.metal>
0.0000

> <Gold.PLP.part.buried>
-4.6625

> <Gold.PLP.part.nonpolar>
-29.2162

> <Gold.PLP.part.repulsive>
0.3516

> <Gold.PLP.ligand.clash>
0.0000

> <Gold.PLP.ligand.torsion>
0.2072

> <Gold.PLP.Chemscore.Hbond>
3.2008

> <Gold.PLP.Chemscore.CHOScore>
0.0000

> <Gold.PLP.Chemscore.Metal>
0.0000

> <Gold.Chemscore.Hbonds>
donor molecule, donor type, donor heavy atom, donor atom, acceptor molecule, acceptor atom, score
      L1  H     6    30       P1  8028  1.00
      P1  H  7989  7998       L1    17  0.25
      P1  H  7997  8010       L1    17  0.84
      P1  H 10752 10764       L1    14  0.95

> <Gold.PLP.Chemscore.Internal.Correction>
0.0183

> <Gold.Rescore>
     Score         DG    S(hbond)    S(metal)    S(lipo)     H(rot)  DE(clash)    DE(int)     intcor
     11.61     -17.59       2.81        0.00      72.44       2.24       0.21       5.77       ----

> <Gold.Chemscore.Fitness>
11.6099

> <Gold.Chemscore.DG>
-17.5898

> <Gold.Chemscore.ZeroCoef>
-5.4800

> <Gold.Chemscore.Hbond>
2.8062

> <Gold.Chemscore.Metal>
0.0000

> <Gold.Chemscore.Lipo>
72.4366

> <Gold.Chemscore.Internal_Hbond>
0.0000

> <Gold.Chemscore.DEClash>
0.2064

> <Gold.Chemscore.DEInternal>
5.7735

> <Gold.Chemscore.Rot>
2.2414

> <Gold.Chemscore.Internal.Correction>
   9.000000E+99

> <Gold.Chemscore.Hbonds>
donor molecule, donor type, donor heavy atom, donor atom, acceptor molecule, acceptor atom, score
      L1  H     6    30       P1  8028  0.99
      P1  H  7989  7998       L1    17  0.01
      P1  H  7997  8010       L1    17  0.82
      P1  H 10752 10764       L1    14  0.20

> <Gold.Chemscore.Hbond.Weighted>
-9.3727

> <Gold.Chemscore.Metal.Weighted>
-0.0000

> <Gold.Chemscore.Lipo.Weighted>
-8.4751

> <Gold.Chemscore.Internal_Hbond.Weighted>
0.0000

> <Gold.Chemscore.DEClash.Weighted>
0.2064

> <Gold.Chemscore.DEInternal.Weighted>
5.7735

> <Gold.Chemscore.Rot.Weighted>
5.7380

> <Gold.Chemscore.Internal.Correction.Weighted>
   9.000000E+99

> <Gold.Protein.RotatedTorsions>
[ 6907 6896 6895 6894 ] final  158.07 input  -60.11 | X-H torsion
[ 7974 7965 7964 7962 ] final  -78.09 input  175.53 | X-H torsion
[ 8008 7997 7996 7995 ] final   95.97 input   59.86 | X-H torsion
[ 10167 10162 10161 10158 ] final  127.91 input  -65.29 | X-H torsion
[ 10718 10713 10712 10709 ] final   27.56 input   66.30 | X-H torsion
[ 10763 10752 10751 10750 ] final  -53.31 input  -60.55 | X-H torsion
[ 11005 11000 10999 10996 ] final  -59.42 input  -57.11 | X-H torsion

> <Gold.Protein.ActiveResidues>
 VAL166  LYS551  ARG553  GLY616  TRP617  ASP618  TYR619  PRO620  LYS621  CYS622 
 ASP623  PHE694  ASN695  SER759  ASP760  ASP761  ALA762  ILE779  LEU786  VAL792 
 PHE793  MET794  SER795  GLU796  ALA797  LYS798  CYS799  TRP800  GLU811  SER814 

> <Gold.Protein.RotatedAtoms>
  152.0058  133.3843  159.4199 H   0  0  0  0  0  0  0  0  0  0  0  0  # atno 6907 bound_to 6896
  150.6905  134.3784  159.5032 H   0  0  0  0  0  0  0  0  0  0  0  0  # atno 6908 bound_to 6896
  152.1538  134.8967  160.0597 H   0  0  0  0  0  0  0  0  0  0  0  0  # atno 6909 bound_to 6896
  145.5911  140.9429  143.1292 H   0  0  0  0  0  0  0  0  0  0  0  0  # atno 7974 bound_to 7965
  156.0746  140.3279  155.7618 H   0  0  0  0  0  0  0  0  0  0  0  0  # atno 8008 bound_to 7997
  155.5251  140.0588  157.2917 H   0  0  0  0  0  0  0  0  0  0  0  0  # atno 8009 bound_to 7997
  154.4548  140.1937  156.0428 H   0  0  0  0  0  0  0  0  0  0  0  0  # atno 8010 bound_to 7997
  139.5554  144.6845  151.4198 H   0  0  0  0  0  0  0  0  0  0  0  0  # atno 10167 bound_to 10162
  157.2218  130.6982  149.6274 H   0  0  0  0  0  0  0  0  0  0  0  0  # atno 10718 bound_to 10713
  154.1567  135.6481  153.4976 H   0  0  0  0  0  0  0  0  0  0  0  0  # atno 10763 bound_to 10752
  153.0122  135.5351  154.6752 H   0  0  0  0  0  0  0  0  0  0  0  0  # atno 10764 bound_to 10752
  154.6055  135.2948  155.0461 H   0  0  0  0  0  0  0  0  0  0  0  0  # atno 10765 bound_to 10752
  141.1247  133.6616  156.5069 H   0  0  0  0  0  0  0  0  0  0  0  0  # atno 11005 bound_to 11000
  144.7351  139.7610  143.7332 LP  0  0  0  0  0  0  0  0  0  0  0  0  # atno 17320 bound_to 7965
  146.1646  139.4773  142.9966 LP  0  0  0  0  0  0  0  0  0  0  0  0  # atno 17321 bound_to 7965
  140.6826  143.8048  150.7142 LP  0  0  0  0  0  0  0  0  0  0  0  0  # atno 17342 bound_to 10162
  140.1506  143.4361  152.2134 LP  0  0  0  0  0  0  0  0  0  0  0  0  # atno 17343 bound_to 10162
  155.9681  130.4517  150.5746 LP  0  0  0  0  0  0  0  0  0  0  0  0  # atno 17370 bound_to 10713
  157.3568  131.0743  151.1669 LP  0  0  0  0  0  0  0  0  0  0  0  0  # atno 17371 bound_to 10713
  140.4401  134.7023  157.4987 LP  0  0  0  0  0  0  0  0  0  0  0  0  # atno 17394 bound_to 11000
  140.0235  134.6512  155.9206 LP  0  0  0  0  0  0  0  0  0  0  0  0  # atno 17395 bound_to 11000

$$$$
