AV-unprocessed.smi:47|AV-procd|sdf|438|dock1
  -GOLD-   2262016303D 1   1.00000     0.00000
 Structure written by MMmdl.
 31 33  0  0  0  0  0  0  0  0  1 V2000
  152.4015  135.7967  156.5850 O   0  0  0  0  0  0  0  0  0  0  0  0
  151.6448  136.9695  156.3728 C   0  0  2  0  0  0  0  0  0  0  0  0
  150.6008  136.7978  155.2774 C   0  0  0  0  0  0  0  0  0  0  0  0
  150.2747  138.1570  154.8709 N   0  0  0  0  0  0  0  0  0  0  0  0
  151.4847  138.9734  155.0268 C   0  0  1  0  0  0  0  0  0  0  0  0
  151.2095  140.2949  155.6770 C   0  0  0  0  0  0  0  0  0  0  0  0
  150.4371  141.1982  155.0819 N   0  0  0  0  0  0  0  0  0  0  0  0
  150.4953  142.2282  155.9509 N   0  0  0  0  0  0  0  0  0  0  0  0
  151.2869  141.9199  156.9861 C   0  0  0  0  0  0  0  0  0  0  0  0
  151.5831  142.8145  158.1072 C   0  0  0  0  0  0  0  0  0  0  0  0
  151.3539  144.2056  157.9950 C   0  0  0  0  0  0  0  0  0  0  0  0
  151.6435  145.0665  159.0716 C   0  0  0  0  0  0  0  0  0  0  0  0
  152.1642  144.5460  160.2711 C   0  0  0  0  0  0  0  0  0  0  0  0
  152.3940  143.1631  160.3936 C   0  0  0  0  0  0  0  0  0  0  0  0
  152.1050  142.3015  159.3177 C   0  0  0  0  0  0  0  0  0  0  0  0
  151.7785  140.6877  156.8568 N   0  0  0  0  0  0  0  0  0  0  0  0
  152.4822  138.1298  155.8436 C   0  0  0  0  0  0  0  0  0  0  0  0
  151.1574  137.2604  157.3047 H   0  0  0  0  0  0  0  0  0  0  0  0
  151.9177  139.1615  154.0432 H   0  0  0  0  0  0  0  0  0  0  0  0
  150.0054  143.0982  155.8006 H   0  0  0  0  0  0  0  0  0  0  0  0
  152.8992  135.9009  157.3817 H   0  0  0  0  0  0  0  0  0  0  0  0
  151.0314  136.2566  154.4336 H   0  0  0  0  0  0  0  0  0  0  0  0
  149.7207  136.2496  155.6143 H   0  0  0  0  0  0  0  0  0  0  0  0
  149.9847  138.1501  153.8984 H   0  0  0  0  0  0  0  0  0  0  0  0
  150.9559  144.6269  157.0836 H   0  0  0  0  0  0  0  0  0  0  0  0
  151.4666  146.1277  158.9763 H   0  0  0  0  0  0  0  0  0  0  0  0
  152.3867  145.2064  161.0962 H   0  0  0  0  0  0  0  0  0  0  0  0
  152.7932  142.7616  161.3134 H   0  0  0  0  0  0  0  0  0  0  0  0
  152.2896  141.2434  159.4328 H   0  0  0  0  0  0  0  0  0  0  0  0
  152.9812  138.6853  156.6391 H   0  0  0  0  0  0  0  0  0  0  0  0
  153.2572  137.7528  155.1743 H   0  0  0  0  0  0  0  0  0  0  0  0
  1  2  1  0  0  0  0
  1 21  1  0  0  0  0
  2 18  1  0  0  0  0
  2 17  1  0  0  0  0
  2  3  1  0  0  0  0
  3  4  1  0  0  0  0
  3 22  1  0  0  0  0
  3 23  1  0  0  0  0
  4  5  1  0  0  0  0
  4 24  1  0  0  0  0
  5 19  1  0  0  0  0
  5  6  1  0  0  0  0
  5 17  1  0  0  0  0
  6 16  1  0  0  0  0
  6  7  2  0  0  0  0
  7  8  1  0  0  0  0
  8 20  1  0  0  0  0
  8  9  1  0  0  0  0
  9 10  1  0  0  0  0
  9 16  2  0  0  0  0
 10 15  1  0  0  0  0
 10 11  2  0  0  0  0
 11 12  1  0  0  0  0
 11 25  1  0  0  0  0
 12 13  2  0  0  0  0
 12 26  1  0  0  0  0
 13 14  1  0  0  0  0
 13 27  1  0  0  0  0
 14 15  2  0  0  0  0
 14 28  1  0  0  0  0
 15 29  1  0  0  0  0
 17 30  1  0  0  0  0
 17 31  1  0  0  0  0
M  END
> <s_m_source_file>
AV-unprocessed.smi

> <i_m_source_file_index>
47

> <i_lp_mmshare_version>
43012

> <i_f3d_flags>
0

> <s_epik_input>
W09IXVtDQEhdMVtDSDJdW05IXVtDQEBIXShbQ0gyXTEpYzJuW25IXWMobjIpLWMzW2NIXVtjSF1bY0hdW2NIXVtjSF0z

> <s_epik_cmdline>
J2VwaWtfcHl0aG9uJywgJy1waCcsICc3LjAnLCAnLXRuJywgJzgnLCAnLW1hJywgJzIwMCcsICctbWV0YWxfYmluZGluZycsICctaW1hZScsICc8aW5maWxlLm1hZT4nLCAnLW9tYWUnLCAnPG91dGZpbGUubWFlPic=

> <r_epik_Ionization_Penalty>
1.65981

> <r_epik_Ionization_Penalty_Charging>
0

> <r_epik_Ionization_Penalty_Neutral>
1.65981

> <r_epik_State_Penalty>
2.0492

> <r_epik_Charging_Adjusted_Penalty>
2.0492

> <i_epik_Tot_Q>
0

> <i_epik_Tot_abs_Q>
0

> <r_epik_Metal_State_Penalty>
2.54641

> <b_epik_Metal_Only>
0

> <s_lp_Force_Field>
OPLS_2005

> <r_lp_Energy>
25.8544

> <b_lp_Chiralities_Consistent>
1

> <s_lp_Variant>
AV-unprocessed.smi:47-16

> <Gold.Version>
5.8.1

> <Gold.Id.Protein>
6NUR|6NUR_protein|mol2

> <Gold.PLP.Fitness>
42.3968

> <Gold.PLP.PLP>
-36.3575

> <Gold.PLP.part.hbond>
-3.0000

> <Gold.PLP.part.metal>
0.0000

> <Gold.PLP.part.buried>
-3.3886

> <Gold.PLP.part.nonpolar>
-29.5620

> <Gold.PLP.part.repulsive>
0.2236

> <Gold.PLP.ligand.clash>
0.0000

> <Gold.PLP.ligand.torsion>
0.1631

> <Gold.PLP.Chemscore.Hbond>
2.1165

> <Gold.PLP.Chemscore.CHOScore>
0.0000

> <Gold.PLP.Chemscore.Metal>
0.0000

> <Gold.Chemscore.Hbonds>
donor molecule, donor type, donor heavy atom, donor atom, acceptor molecule, acceptor atom, score
      L1  H     8    20       P1  8028  1.00
      P1  H  7989  7998       L1     7  0.15
      P1  H 10752 10763       L1     1  1.00

> <Gold.PLP.Chemscore.Internal.Correction>
0.0159

> <Gold.Rescore>
     Score         DG    S(hbond)    S(metal)    S(lipo)     H(rot)  DE(clash)    DE(int)     intcor
     18.67     -18.72       1.95        0.00      89.75       1.48       0.01       0.04       ----

> <Gold.Chemscore.Fitness>
18.6692

> <Gold.Chemscore.DG>
-18.7152

> <Gold.Chemscore.ZeroCoef>
-5.4800

> <Gold.Chemscore.Hbond>
1.9522

> <Gold.Chemscore.Metal>
0.0000

> <Gold.Chemscore.Lipo>
89.7461

> <Gold.Chemscore.Internal_Hbond>
0.0000

> <Gold.Chemscore.DEClash>
0.0108

> <Gold.Chemscore.DEInternal>
0.0352

> <Gold.Chemscore.Rot>
1.4786

> <Gold.Chemscore.Internal.Correction>
   9.000000E+99

> <Gold.Chemscore.Hbonds>
donor molecule, donor type, donor heavy atom, donor atom, acceptor molecule, acceptor atom, score
      L1  H     8    20       P1  8028  0.98
      P1  H 10752 10763       L1     1  0.70

> <Gold.Chemscore.Hbond.Weighted>
-6.5202

> <Gold.Chemscore.Metal.Weighted>
-0.0000

> <Gold.Chemscore.Lipo.Weighted>
-10.5003

> <Gold.Chemscore.Internal_Hbond.Weighted>
0.0000

> <Gold.Chemscore.DEClash.Weighted>
0.0108

> <Gold.Chemscore.DEInternal.Weighted>
0.0352

> <Gold.Chemscore.Rot.Weighted>
3.7853

> <Gold.Chemscore.Internal.Correction.Weighted>
   9.000000E+99

> <Gold.Protein.RotatedTorsions>
[ 6907 6896 6895 6894 ] final  117.29 input  -60.11 | X-H torsion
[ 7974 7965 7964 7962 ] final  -73.03 input  175.53 | X-H torsion
[ 8008 7997 7996 7995 ] final -122.10 input   59.86 | X-H torsion
[ 10167 10162 10161 10158 ] final  134.53 input  -65.29 | X-H torsion
[ 10718 10713 10712 10709 ] final  -64.22 input   66.30 | X-H torsion
[ 10763 10752 10751 10750 ] final   99.74 input  -60.55 | X-H torsion
[ 11005 11000 10999 10996 ] final  -29.74 input  -57.11 | X-H torsion

> <Gold.Protein.ActiveResidues>
 VAL166  LYS551  ARG553  GLY616  TRP617  ASP618  TYR619  PRO620  LYS621  CYS622 
 ASP623  PHE694  ASN695  SER759  ASP760  ASP761  ALA762  ILE779  LEU786  VAL792 
 PHE793  MET794  SER795  GLU796  ALA797  LYS798  CYS799  TRP800  GLU811  SER814 

> <Gold.Protein.RotatedAtoms>
  152.4621  133.7845  159.6868 H   0  0  0  0  0  0  0  0  0  0  0  0  # atno 6907 bound_to 6896
  150.8570  133.7690  159.3012 H   0  0  0  0  0  0  0  0  0  0  0  0  # atno 6908 bound_to 6896
  151.5268  135.1071  159.9944 H   0  0  0  0  0  0  0  0  0  0  0  0  # atno 6909 bound_to 6896
  145.6575  140.9263  143.0952 H   0  0  0  0  0  0  0  0  0  0  0  0  # atno 7974 bound_to 7965
  155.1588  140.0405  157.2838 H   0  0  0  0  0  0  0  0  0  0  0  0  # atno 8008 bound_to 7997
  154.6351  140.2533  155.7361 H   0  0  0  0  0  0  0  0  0  0  0  0  # atno 8009 bound_to 7997
  156.2504  140.2867  156.0720 H   0  0  0  0  0  0  0  0  0  0  0  0  # atno 8010 bound_to 7997
  139.5252  144.6562  151.5153 H   0  0  0  0  0  0  0  0  0  0  0  0  # atno 10167 bound_to 10162
  156.0742  130.4230  150.1389 H   0  0  0  0  0  0  0  0  0  0  0  0  # atno 10718 bound_to 10713
  153.3052  135.4103  155.1288 H   0  0  0  0  0  0  0  0  0  0  0  0  # atno 10763 bound_to 10752
  154.8560  135.3551  154.5798 H   0  0  0  0  0  0  0  0  0  0  0  0  # atno 10764 bound_to 10752
  153.6224  135.7064  153.5364 H   0  0  0  0  0  0  0  0  0  0  0  0  # atno 10765 bound_to 10752
  140.9323  133.7331  156.0954 H   0  0  0  0  0  0  0  0  0  0  0  0  # atno 11005 bound_to 11000
  144.7101  139.8406  143.7417 LP  0  0  0  0  0  0  0  0  0  0  0  0  # atno 17320 bound_to 7965
  146.1153  139.4163  143.0262 LP  0  0  0  0  0  0  0  0  0  0  0  0  # atno 17321 bound_to 7965
  140.6389  143.8928  150.6673 LP  0  0  0  0  0  0  0  0  0  0  0  0  # atno 17342 bound_to 10162
  140.2256  143.3775  152.1607 LP  0  0  0  0  0  0  0  0  0  0  0  0  # atno 17343 bound_to 10162
  156.9433  130.9751  151.3512 LP  0  0  0  0  0  0  0  0  0  0  0  0  # atno 17370 bound_to 10713
  157.5830  130.8389  149.8549 LP  0  0  0  0  0  0  0  0  0  0  0  0  # atno 17371 bound_to 10713
  140.7846  134.3686  157.5479 LP  0  0  0  0  0  0  0  0  0  0  0  0  # atno 17394 bound_to 11000
  139.8799  134.9103  156.3010 LP  0  0  0  0  0  0  0  0  0  0  0  0  # atno 17395 bound_to 11000

$$$$
