AV-unprocessed.smi:2072|AV-procd|sdf|8449|dock1
  -GOLD-   2272011143D 1   1.00000     0.00000
 Structure written by MMmdl.
 40 42  0  0  0  0  0  0  0  0  2 V2000
  145.5716  137.8079  154.2844 O   0  0  0  0  0  0  0  0  0  0  0  0
  146.4816  137.4339  153.5462 C   0  0  0  0  0  0  0  0  0  0  0  0
  147.6531  138.0673  153.3622 N   0  0  0  0  0  0  0  0  0  0  0  0
  148.1260  139.2782  153.9403 C   0  0  0  0  0  0  0  0  0  0  0  0
  147.3400  140.4377  154.1553 C   0  0  0  0  0  0  0  0  0  0  0  0
  147.9437  141.5715  154.7326 C   0  0  0  0  0  0  0  0  0  0  0  0
  149.3092  141.5094  155.0704 C   0  0  0  0  0  0  0  0  0  0  0  0
  150.0721  140.4156  154.8653 N   0  0  0  0  0  0  0  0  0  0  0  0
  149.4867  139.3326  154.3116 C   0  0  0  0  0  0  0  0  0  0  0  0
  146.4222  136.3092  152.8191 N   0  0  0  0  0  0  0  0  0  0  0  0
  145.2880  135.3903  152.7829 C   0  0  1  0  0  0  0  0  0  0  0  0
  143.9418  136.0987  152.8744 C   0  0  0  0  0  0  0  0  0  0  0  0
  142.9796  135.0389  152.3340 C   0  0  0  0  0  0  0  0  0  0  0  0
  143.7367  134.2814  151.3102 N   0  3  2  0  0  0  0  0  0  0  0  0
  143.4277  132.8310  151.2670 C   0  0  0  0  0  0  0  0  0  0  0  0
  144.2340  132.1307  150.1567 C   0  0  0  0  0  0  0  0  0  0  0  0
  145.7336  132.4941  150.1746 C   0  0  0  0  0  0  0  0  0  0  0  0
  146.1038  133.3854  151.3694 C   0  0  0  0  0  0  0  0  0  0  0  0
  145.1808  134.6228  151.4541 C   0  0  2  0  0  0  0  0  0  0  0  0
  148.3072  137.6091  152.7446 H   0  0  0  0  0  0  0  0  0  0  0  0
  146.2972  140.4929  153.8878 H   0  0  0  0  0  0  0  0  0  0  0  0
  147.3722  142.4703  154.9105 H   0  0  0  0  0  0  0  0  0  0  0  0
  149.8019  142.3617  155.5143 H   0  0  0  0  0  0  0  0  0  0  0  0
  150.1293  138.4774  154.1612 H   0  0  0  0  0  0  0  0  0  0  0  0
  147.2165  136.0759  152.2412 H   0  0  0  0  0  0  0  0  0  0  0  0
  145.3487  134.6836  153.6139 H   0  0  0  0  0  0  0  0  0  0  0  0
  143.6951  136.4162  153.8880 H   0  0  0  0  0  0  0  0  0  0  0  0
  143.9275  136.9788  152.2294 H   0  0  0  0  0  0  0  0  0  0  0  0
  142.6839  134.3742  153.1474 H   0  0  0  0  0  0  0  0  0  0  0  0
  142.0724  135.4747  151.9152 H   0  0  0  0  0  0  0  0  0  0  0  0
  143.6531  132.3800  152.2347 H   0  0  0  0  0  0  0  0  0  0  0  0
  142.3598  132.6898  151.0974 H   0  0  0  0  0  0  0  0  0  0  0  0
  144.1126  131.0511  150.2512 H   0  0  0  0  0  0  0  0  0  0  0  0
  143.8162  132.3947  149.1844 H   0  0  0  0  0  0  0  0  0  0  0  0
  146.3406  131.5883  150.1834 H   0  0  0  0  0  0  0  0  0  0  0  0
  145.9855  133.0172  149.2514 H   0  0  0  0  0  0  0  0  0  0  0  0
  146.0361  132.8011  152.2883 H   0  0  0  0  0  0  0  0  0  0  0  0
  147.1447  133.6984  151.2871 H   0  0  0  0  0  0  0  0  0  0  0  0
  145.4134  135.2969  150.6278 H   0  0  0  0  0  0  0  0  0  0  0  0
  143.4599  134.6540  150.4130 H   0  0  0  0  0  0  0  0  0  0  0  0
  1  2  2  0  0  0  0
  2  3  1  0  0  0  0
  2 10  1  0  0  0  0
  3  4  1  0  0  0  0
  3 20  1  0  0  0  0
  4  9  1  0  0  0  0
  4  5  2  0  0  0  0
  5  6  1  0  0  0  0
  5 21  1  0  0  0  0
  6  7  2  0  0  0  0
  6 22  1  0  0  0  0
  7  8  1  0  0  0  0
  7 23  1  0  0  0  0
  8  9  2  0  0  0  0
  9 24  1  0  0  0  0
 10 11  1  0  0  0  0
 10 25  1  0  0  0  0
 11 19  1  0  0  0  0
 11 12  1  0  0  0  0
 11 26  1  0  0  0  0
 12 13  1  0  0  0  0
 12 27  1  0  0  0  0
 12 28  1  0  0  0  0
 13 14  1  0  0  0  0
 13 29  1  0  0  0  0
 13 30  1  0  0  0  0
 14 19  1  0  0  0  0
 14 15  1  0  0  0  0
 14 40  1  0  0  0  0
 15 16  1  0  0  0  0
 15 31  1  0  0  0  0
 15 32  1  0  0  0  0
 16 17  1  0  0  0  0
 16 33  1  0  0  0  0
 16 34  1  0  0  0  0
 17 18  1  0  0  0  0
 17 35  1  0  0  0  0
 17 36  1  0  0  0  0
 18 19  1  0  0  0  0
 18 37  1  0  0  0  0
 18 38  1  0  0  0  0
 19 39  1  0  0  0  0
M  CHG  1  14   1
M  END
> <s_m_source_file>
AV-unprocessed.smi

> <i_m_source_file_index>
2072

> <i_lp_mmshare_version>
43012

> <i_f3d_flags>
0

> <s_epik_input>
W0NIMl0xW0NIMl1bQ0gyXVtDSDJdW0NASF0oTjEyKVtDQEBIXShbQ0gyXVtDSDJdMilbTkhdQyg9TylbTkhdYzNbY0hdW2NIXVtjSF1uW2NIXTM=

> <s_epik_cmdline>
J2VwaWtfcHl0aG9uJywgJy1waCcsICc3LjAnLCAnLXRuJywgJzgnLCAnLW1hJywgJzIwMCcsICctbWV0YWxfYmluZGluZycsICctaW1hZScsICc8aW5maWxlLm1hZT4nLCAnLW9tYWUnLCAnPG91dGZpbGUubWFlPic=

> <r_lp_tautomer_probability>
1

> <r_epik_Ionization_Penalty>
0.00482425

> <r_epik_Ionization_Penalty_Charging>
0.000974069

> <r_epik_Ionization_Penalty_Neutral>
0.00385018

> <r_epik_State_Penalty>
-0

> <r_epik_Charging_Adjusted_Penalty>
0.000974069

> <i_epik_Tot_Q>
1

> <i_epik_Tot_abs_Q>
1

> <r_epik_Metal_State_Penalty>
-0

> <b_epik_Metal_Only>
0

> <s_lp_Force_Field>
OPLS_2005

> <r_lp_Energy>
43.341

> <b_lp_Chiralities_Consistent>
1

> <s_lp_Variant>
AV-unprocessed.smi:2072-8

> <Gold.Version>
5.8.1

> <Gold.Id.Protein>
6NUR|6NUR_protein|mol2

> <Gold.PLP.Fitness>
44.2312

> <Gold.PLP.PLP>
-33.9096

> <Gold.PLP.part.hbond>
-3.2918

> <Gold.PLP.part.metal>
0.0000

> <Gold.PLP.part.buried>
-3.9455

> <Gold.PLP.part.nonpolar>
-27.5967

> <Gold.PLP.part.repulsive>
0.2617

> <Gold.PLP.ligand.clash>
0.0000

> <Gold.PLP.ligand.torsion>
0.6635

> <Gold.PLP.Chemscore.Hbond>
2.9280

> <Gold.PLP.Chemscore.CHOScore>
0.9523

> <Gold.PLP.Chemscore.Metal>
0.0000

> <Gold.Chemscore.Hbonds>
donor molecule, donor type, donor heavy atom, donor atom, acceptor molecule, acceptor atom, score
      L1  H     3    20       P1  7948  1.00
      L1  H    10    25       P1  7948  1.00
      P1  H  7989  7998       L1     8  0.76
      L1  C     7    23       P1  8028  0.92

> <Gold.PLP.Chemscore.Internal.Correction>
0.0079

> <Gold.Rescore>
     Score         DG    S(hbond)    S(metal)    S(lipo)     H(rot)  DE(clash)    DE(int)     intcor
     17.95     -20.80       2.49        0.00      81.74       1.00       0.09       2.76       ----

> <Gold.Chemscore.Fitness>
17.9526

> <Gold.Chemscore.DG>
-20.7975

> <Gold.Chemscore.ZeroCoef>
-5.4800

> <Gold.Chemscore.Hbond>
2.4892

> <Gold.Chemscore.Metal>
0.0000

> <Gold.Chemscore.Lipo>
81.7410

> <Gold.Chemscore.Internal_Hbond>
0.0000

> <Gold.Chemscore.DEClash>
0.0883

> <Gold.Chemscore.DEInternal>
2.7565

> <Gold.Chemscore.Rot>
1.0000

> <Gold.Chemscore.Internal.Correction>
   9.000000E+99

> <Gold.Chemscore.Hbonds>
donor molecule, donor type, donor heavy atom, donor atom, acceptor molecule, acceptor atom, score
      L1  H     3    20       P1  7948  0.99
      L1  H    10    25       P1  7948  0.96
      P1  H  7989  7998       L1     8  0.20

> <Gold.Chemscore.Hbond.Weighted>
-8.3138

> <Gold.Chemscore.Metal.Weighted>
-0.0000

> <Gold.Chemscore.Lipo.Weighted>
-9.5637

> <Gold.Chemscore.Internal_Hbond.Weighted>
0.0000

> <Gold.Chemscore.DEClash.Weighted>
0.0883

> <Gold.Chemscore.DEInternal.Weighted>
2.7565

> <Gold.Chemscore.Rot.Weighted>
2.5600

> <Gold.Chemscore.Internal.Correction.Weighted>
   9.000000E+99

> <Gold.Protein.RotatedTorsions>
[ 6907 6896 6895 6894 ] final   33.89 input  -60.11 | X-H torsion
[ 7974 7965 7964 7962 ] final    3.69 input  175.53 | X-H torsion
[ 8008 7997 7996 7995 ] final  -34.22 input   59.86 | X-H torsion
[ 10167 10162 10161 10158 ] final  -16.39 input  -65.29 | X-H torsion
[ 10718 10713 10712 10709 ] final  -56.01 input   66.30 | X-H torsion
[ 10763 10752 10751 10750 ] final  135.74 input  -60.55 | X-H torsion
[ 11005 11000 10999 10996 ] final -131.69 input  -57.11 | X-H torsion

> <Gold.Protein.ActiveResidues>
 VAL166  LYS551  ARG553  GLY616  TRP617  ASP618  TYR619  PRO620  LYS621  CYS622 
 ASP623  PHE694  ASN695  SER759  ASP760  ASP761  ALA762  ILE779  LEU786  VAL792 
 PHE793  MET794  SER795  GLU796  ALA797  LYS798  CYS799  TRP800  GLU811  SER814 

> <Gold.Protein.RotatedAtoms>
  152.0947  134.9383  160.0570 H   0  0  0  0  0  0  0  0  0  0  0  0  # atno 6907 bound_to 6896
  152.0620  133.4062  159.4430 H   0  0  0  0  0  0  0  0  0  0  0  0  # atno 6908 bound_to 6896
  150.6837  134.3109  159.4789 H   0  0  0  0  0  0  0  0  0  0  0  0  # atno 6909 bound_to 6896
  146.2445  140.0647  142.8366 H   0  0  0  0  0  0  0  0  0  0  0  0  # atno 7974 bound_to 7965
  154.4127  140.1690  156.2014 H   0  0  0  0  0  0  0  0  0  0  0  0  # atno 8008 bound_to 7997
  155.9520  140.3400  155.6393 H   0  0  0  0  0  0  0  0  0  0  0  0  # atno 8009 bound_to 7997
  155.6857  140.0728  157.2458 H   0  0  0  0  0  0  0  0  0  0  0  0  # atno 8010 bound_to 7997
  140.7233  143.5121  150.9737 H   0  0  0  0  0  0  0  0  0  0  0  0  # atno 10167 bound_to 10162
  156.1322  130.4159  150.0248 H   0  0  0  0  0  0  0  0  0  0  0  0  # atno 10718 bound_to 10713
  153.8450  135.3086  155.3429 H   0  0  0  0  0  0  0  0  0  0  0  0  # atno 10763 bound_to 10752
  154.7916  135.4779  154.0068 H   0  0  0  0  0  0  0  0  0  0  0  0  # atno 10764 bound_to 10752
  153.1552  135.6851  153.8915 H   0  0  0  0  0  0  0  0  0  0  0  0  # atno 10765 bound_to 10752
  140.9236  134.1411  157.4293 H   0  0  0  0  0  0  0  0  0  0  0  0  # atno 11005 bound_to 11000
  145.0869  140.9258  143.4792 LP  0  0  0  0  0  0  0  0  0  0  0  0  # atno 17320 bound_to 7965
  145.0811  139.2959  143.5783 LP  0  0  0  0  0  0  0  0  0  0  0  0  # atno 17321 bound_to 7965
  139.8835  143.7042  152.3154 LP  0  0  0  0  0  0  0  0  0  0  0  0  # atno 17342 bound_to 10162
  139.7332  144.7577  151.0768 LP  0  0  0  0  0  0  0  0  0  0  0  0  # atno 17343 bound_to 10162
  156.8157  130.9341  151.3643 LP  0  0  0  0  0  0  0  0  0  0  0  0  # atno 17370 bound_to 10713
  157.6499  130.8875  149.9612 LP  0  0  0  0  0  0  0  0  0  0  0  0  # atno 17371 bound_to 10713
  139.8781  134.9980  156.5878 LP  0  0  0  0  0  0  0  0  0  0  0  0  # atno 17394 bound_to 11000
  140.7955  133.8548  155.8682 LP  0  0  0  0  0  0  0  0  0  0  0  0  # atno 17395 bound_to 11000

$$$$
