AV-unprocessed.smi:102|AV-procd|sdf|968|dock9
  -GOLD-   2262017513D 1   1.00000     0.00000
 Structure written by MMmdl.
 43 44  0  0  0  0  0  0  0  0  2 V2000
  153.6033  137.2940  159.5715 C   0  0  0  0  0  0  0  0  0  0  0  0
  153.7071  137.9716  158.2110 C   0  0  0  0  0  0  0  0  0  0  0  0
  154.5531  138.8382  157.9898 O   0  0  0  0  0  0  0  0  0  0  0  0
  152.7967  137.5162  157.3365 O   0  0  0  0  0  0  0  0  0  0  0  0
  152.7612  138.0481  156.0226 C   0  0  0  0  0  0  0  0  0  0  0  0
  151.4199  137.6805  155.3581 C   0  0  1  0  0  0  0  0  0  0  0  0
  151.3633  136.2704  155.1857 O   0  0  0  0  0  0  0  0  0  0  0  0
  150.8774  135.6738  156.3514 C   0  0  2  0  0  0  0  0  0  0  0  0
  150.0106  134.4948  155.9646 N   0  0  0  0  0  0  0  0  0  0  0  0
  149.7466  134.2274  154.6324 C   0  0  0  0  0  0  0  0  0  0  0  0
  148.9540  133.1981  154.2706 C   0  0  0  0  0  0  0  0  0  0  0  0
  148.7134  132.9644  152.9690 F   0  0  0  0  0  0  0  0  0  0  0  0
  148.3569  132.3489  155.2999 C   0  0  0  0  0  0  0  0  0  0  0  0
  147.6422  131.4059  154.9640 O   0  0  0  0  0  0  0  0  0  0  0  0
  148.6205  132.6475  156.6054 N   0  5  0  0  0  0  0  0  0  0  0  0
  149.4140  133.6948  156.9768 C   0  0  0  0  0  0  0  0  0  0  0  0
  149.6307  133.9913  158.1519 O   0  0  0  0  0  0  0  0  0  0  0  0
  150.1098  136.7511  157.1489 C   0  0  2  0  0  0  0  0  0  0  0  0
  148.7543  136.3860  157.3913 O   0  0  0  0  0  0  0  0  0  0  0  0
  148.1421  136.7567  158.5262 C   0  0  0  0  0  0  0  0  0  0  0  0
  146.6794  136.3355  158.5559 C   0  0  0  0  0  0  0  0  0  0  0  0
  148.6552  137.3712  159.4617 O   0  0  0  0  0  0  0  0  0  0  0  0
  150.1841  137.9578  156.2241 C   0  0  1  0  0  0  0  0  0  0  0  0
  150.2843  139.1582  156.9803 O   0  0  0  0  0  0  0  0  0  0  0  0
  150.6227  140.3103  156.3788 C   0  0  0  0  0  0  0  0  0  0  0  0
  150.6913  141.4752  157.3568 C   0  0  0  0  0  0  0  0  0  0  0  0
  150.8652  140.4595  155.1812 O   0  0  0  0  0  0  0  0  0  0  0  0
  153.0090  136.3820  159.5081 H   0  0  0  0  0  0  0  0  0  0  0  0
  153.1328  137.9645  160.2906 H   0  0  0  0  0  0  0  0  0  0  0  0
  154.5955  137.0331  159.9398 H   0  0  0  0  0  0  0  0  0  0  0  0
  152.9091  139.1286  156.0433 H   0  0  0  0  0  0  0  0  0  0  0  0
  153.5884  137.6175  155.4566 H   0  0  0  0  0  0  0  0  0  0  0  0
  151.3326  138.1881  154.3968 H   0  0  0  0  0  0  0  0  0  0  0  0
  151.7298  135.2707  156.9000 H   0  0  0  0  0  0  0  0  0  0  0  0
  150.1718  134.8550  153.8634 H   0  0  0  0  0  0  0  0  0  0  0  0
  150.6610  136.9246  158.0749 H   0  0  0  0  0  0  0  0  0  0  0  0
  146.5862  135.2744  158.3233 H   0  0  0  0  0  0  0  0  0  0  0  0
  146.1082  136.9031  157.8214 H   0  0  0  0  0  0  0  0  0  0  0  0
  146.2493  136.5119  159.5419 H   0  0  0  0  0  0  0  0  0  0  0  0
  149.2974  137.9630  155.5873 H   0  0  0  0  0  0  0  0  0  0  0  0
  149.7379  141.5931  157.8721 H   0  0  0  0  0  0  0  0  0  0  0  0
  150.9178  142.4037  156.8324 H   0  0  0  0  0  0  0  0  0  0  0  0
  151.4684  141.2994  158.1006 H   0  0  0  0  0  0  0  0  0  0  0  0
  1  2  1  0  0  0  0
  1 28  1  0  0  0  0
  1 29  1  0  0  0  0
  1 30  1  0  0  0  0
  2  3  2  0  0  0  0
  2  4  1  0  0  0  0
  4  5  1  0  0  0  0
  5  6  1  0  0  0  0
  5 31  1  0  0  0  0
  5 32  1  0  0  0  0
  6 23  1  0  0  0  0
  6  7  1  0  0  0  0
  6 33  1  0  0  0  0
  7  8  1  0  0  0  0
  8  9  1  0  0  0  0
  8 18  1  0  0  0  0
  8 34  1  0  0  0  0
  9 16  1  0  0  0  0
  9 10  1  0  0  0  0
 10 11  2  0  0  0  0
 10 35  1  0  0  0  0
 11 12  1  0  0  0  0
 11 13  1  0  0  0  0
 13 14  2  0  0  0  0
 13 15  1  0  0  0  0
 15 16  1  0  0  0  0
 16 17  2  0  0  0  0
 18 19  1  0  0  0  0
 18 23  1  0  0  0  0
 18 36  1  0  0  0  0
 19 20  1  0  0  0  0
 20 21  1  0  0  0  0
 20 22  2  0  0  0  0
 21 37  1  0  0  0  0
 21 38  1  0  0  0  0
 21 39  1  0  0  0  0
 23 24  1  0  0  0  0
 23 40  1  0  0  0  0
 24 25  1  0  0  0  0
 25 26  1  0  0  0  0
 25 27  2  0  0  0  0
 26 41  1  0  0  0  0
 26 42  1  0  0  0  0
 26 43  1  0  0  0  0
M  CHG  1  15  -1
M  END
> <s_m_source_file>
AV-unprocessed.smi

> <i_m_source_file_index>
102

> <i_lp_mmshare_version>
43012

> <i_f3d_flags>
0

> <s_epik_input>
W0NIM11DKD1PKU9bQ0gyXVtDQEBIXTFPW0NASF0oW0NAQEhdKE9DKD1PKVtDSDNdKVtDQEhdMU9DKD1PKVtDSDNdKW4yW2NIXWMoRiljKD1PKVtuSF1jMj1P

> <s_epik_cmdline>
J2VwaWtfcHl0aG9uJywgJy1waCcsICc3LjAnLCAnLXRuJywgJzgnLCAnLW1hJywgJzIwMCcsICctbWV0YWxfYmluZGluZycsICctaW1hZScsICc8aW5maWxlLm1hZT4nLCAnLW9tYWUnLCAnPG91dGZpbGUubWFlPic=

> <r_epik_Ionization_Penalty>
1.40304

> <r_epik_Ionization_Penalty_Charging>
1.43915e-08

> <r_epik_Ionization_Penalty_Neutral>
1.40304

> <r_epik_State_Penalty>
1.48536

> <r_epik_Charging_Adjusted_Penalty>
1.48536

> <i_epik_Tot_Q>
-1

> <i_epik_Tot_abs_Q>
1

> <r_epik_Metal_State_Penalty>
0.00663881

> <b_epik_Metal_Only>
0

> <s_epik_Chemistry_Notes>
This compound has an ester and may undergo hydrolysis at high or low pH. This compound contains an acetal/aminal-like group ( X-CH(R)-Y where X, Y are N, S, or O) that may be acid/base labile, releasing an aldehyde.

> <s_lp_Force_Field>
OPLS_2005

> <r_lp_Energy>
24.6661

> <b_lp_Chiralities_Consistent>
1

> <s_lp_Variant>
AV-unprocessed.smi:102-24

> <Gold.Version>
5.8.1

> <Gold.Id.Protein>
6NUR|6NUR_protein|mol2

> <Gold.PLP.Fitness>
39.5641

> <Gold.PLP.PLP>
-28.2372

> <Gold.PLP.part.hbond>
-5.2412

> <Gold.PLP.part.metal>
0.0000

> <Gold.PLP.part.buried>
-5.7315

> <Gold.PLP.part.nonpolar>
-19.0760

> <Gold.PLP.part.repulsive>
0.1957

> <Gold.PLP.ligand.clash>
0.0000

> <Gold.PLP.ligand.torsion>
0.7060

> <Gold.PLP.Chemscore.Hbond>
4.0000

> <Gold.PLP.Chemscore.CHOScore>
0.2130

> <Gold.PLP.Chemscore.Metal>
0.0000

> <Gold.Chemscore.Hbonds>
donor molecule, donor type, donor heavy atom, donor atom, acceptor molecule, acceptor atom, score
      P1  H  6896  6907       L1    17  1.00
      P1  H  7989  7998       L1    27  1.00
      P1  H  7997  8010       L1     3  0.73
      P1  H 10752 10765       L1     7  1.00
      L1  C    10    35       P1  7948  0.10

> <Gold.PLP.Chemscore.Internal.Correction>
0.1000

> <Gold.Rescore>
     Score         DG    S(hbond)    S(metal)    S(lipo)     H(rot)  DE(clash)    DE(int)     intcor
      7.74     -12.40       3.73        0.00      39.96       4.00       0.04       4.63       ----

> <Gold.Chemscore.Fitness>
7.7380

> <Gold.Chemscore.DG>
-12.4032

> <Gold.Chemscore.ZeroCoef>
-5.4800

> <Gold.Chemscore.Hbond>
3.7350

> <Gold.Chemscore.Metal>
0.0000

> <Gold.Chemscore.Lipo>
39.9646

> <Gold.Chemscore.Internal_Hbond>
0.0000

> <Gold.Chemscore.DEClash>
0.0385

> <Gold.Chemscore.DEInternal>
4.6267

> <Gold.Chemscore.Rot>
3.9951

> <Gold.Chemscore.Internal.Correction>
   9.000000E+99

> <Gold.Chemscore.Hbonds>
donor molecule, donor type, donor heavy atom, donor atom, acceptor molecule, acceptor atom, score
      P1  H  6896  6907       L1    17  0.97
      P1  H  7989  7998       L1    27  0.95
      P1  H  7997  8010       L1     3  0.71
      P1  H 10752 10765       L1     7  0.64

> <Gold.Chemscore.Hbond.Weighted>
-12.4748

> <Gold.Chemscore.Metal.Weighted>
-0.0000

> <Gold.Chemscore.Lipo.Weighted>
-4.6759

> <Gold.Chemscore.Internal_Hbond.Weighted>
0.0000

> <Gold.Chemscore.DEClash.Weighted>
0.0385

> <Gold.Chemscore.DEInternal.Weighted>
4.6267

> <Gold.Chemscore.Rot.Weighted>
10.2274

> <Gold.Chemscore.Internal.Correction.Weighted>
   9.000000E+99

> <Gold.Protein.RotatedTorsions>
[ 6907 6896 6895 6894 ] final -120.07 input  -60.11 | X-H torsion
[ 7974 7965 7964 7962 ] final   88.99 input  175.53 | X-H torsion
[ 8008 7997 7996 7995 ] final   17.57 input   59.86 | X-H torsion
[ 10167 10162 10161 10158 ] final -121.72 input  -65.29 | X-H torsion
[ 10718 10713 10712 10709 ] final  176.25 input   66.30 | X-H torsion
[ 10763 10752 10751 10750 ] final -169.79 input  -60.55 | X-H torsion
[ 11005 11000 10999 10996 ] final -100.51 input  -57.11 | X-H torsion

> <Gold.Protein.ActiveResidues>
 VAL166  LYS551  ARG553  GLY616  TRP617  ASP618  TYR619  PRO620  LYS621  CYS622 
 ASP623  PHE694  ASN695  SER759  ASP760  ASP761  ALA762  ILE779  LEU786  VAL792 
 PHE793  MET794  SER795  GLU796  ALA797  LYS798  CYS799  TRP800  GLU811  SER814 

> <Gold.Protein.RotatedAtoms>
  150.8361  133.8012  159.3078 H   0  0  0  0  0  0  0  0  0  0  0  0  # atno 6907 bound_to 6896
  151.5727  135.1060  160.0008 H   0  0  0  0  0  0  0  0  0  0  0  0  # atno 6908 bound_to 6896
  152.4433  133.7446  159.6716 H   0  0  0  0  0  0  0  0  0  0  0  0  # atno 6909 bound_to 6896
  145.5383  139.2287  143.2580 H   0  0  0  0  0  0  0  0  0  0  0  0  # atno 7974 bound_to 7965
  154.8934  140.2990  155.5358 H   0  0  0  0  0  0  0  0  0  0  0  0  # atno 8008 bound_to 7997
  156.3020  140.2420  156.3887 H   0  0  0  0  0  0  0  0  0  0  0  0  # atno 8009 bound_to 7997
  154.8595  140.0406  157.1645 H   0  0  0  0  0  0  0  0  0  0  0  0  # atno 8010 bound_to 7997
  140.0220  143.5334  152.2216 H   0  0  0  0  0  0  0  0  0  0  0  0  # atno 10167 bound_to 10162
  156.9229  130.9946  151.3001 H   0  0  0  0  0  0  0  0  0  0  0  0  # atno 10718 bound_to 10713
  154.6485  135.2908  155.0016 H   0  0  0  0  0  0  0  0  0  0  0  0  # atno 10763 bound_to 10752
  154.1117  135.6561  153.4890 H   0  0  0  0  0  0  0  0  0  0  0  0  # atno 10764 bound_to 10752
  153.0364  135.5267  154.7383 H   0  0  0  0  0  0  0  0  0  0  0  0  # atno 10765 bound_to 10752
  141.1267  133.8405  157.1112 H   0  0  0  0  0  0  0  0  0  0  0  0  # atno 11005 bound_to 11000
  146.1998  140.6202  142.9107 LP  0  0  0  0  0  0  0  0  0  0  0  0  # atno 17320 bound_to 7965
  144.7590  140.5377  143.6749 LP  0  0  0  0  0  0  0  0  0  0  0  0  # atno 17321 bound_to 7965
  139.6133  144.7614  151.2902 LP  0  0  0  0  0  0  0  0  0  0  0  0  # atno 17342 bound_to 10162
  140.7338  143.6783  150.8022 LP  0  0  0  0  0  0  0  0  0  0  0  0  # atno 17343 bound_to 10162
  157.5896  130.8434  149.8639 LP  0  0  0  0  0  0  0  0  0  0  0  0  # atno 17370 bound_to 10713
  156.0482  130.3723  150.1265 LP  0  0  0  0  0  0  0  0  0  0  0  0  # atno 17371 bound_to 10713
  140.0274  134.9917  157.0712 LP  0  0  0  0  0  0  0  0  0  0  0  0  # atno 17394 bound_to 11000
  140.4341  134.1750  155.7169 LP  0  0  0  0  0  0  0  0  0  0  0  0  # atno 17395 bound_to 11000

$$$$
