AV-unprocessed.smi:2267|AV-procd|sdf|9148|dock10
  -GOLD-   2272012353D 1   1.00000     0.00000
 Structure written by MMmdl.
 41 42  0  0  0  0  0  0  0  0  1 V2000
  152.3768  145.2801  158.9225 C   0  0  0  0  0  0  0  0  0  0  0  0
  152.1741  143.7808  158.9956 C   0  0  0  0  0  0  0  0  0  0  0  0
  152.6158  143.0574  160.1215 C   0  0  0  0  0  0  0  0  0  0  0  0
  152.4220  141.6653  160.1818 C   0  0  0  0  0  0  0  0  0  0  0  0
  151.7877  140.9956  159.1183 C   0  0  0  0  0  0  0  0  0  0  0  0
  151.3394  141.7035  157.9844 C   0  0  0  0  0  0  0  0  0  0  0  0
  150.7298  140.9684  156.9902 O   0  0  0  0  0  0  0  0  0  0  0  0
  150.2576  141.6533  155.8374 C   0  0  0  0  0  0  0  0  0  0  0  0
  149.6295  140.6316  154.8740 C   0  0  2  0  0  0  0  0  0  0  0  0
  150.6876  139.8681  154.3282 O   0  0  0  0  0  0  0  0  0  0  0  0
  148.8898  141.3206  153.7046 C   0  0  0  0  0  0  0  0  0  0  0  0
  147.5316  141.7485  154.0811 N   0  0  0  0  0  0  0  0  0  0  0  0
  147.2362  143.1102  153.9035 C   0  0  0  0  0  0  0  0  0  0  0  0
  146.0769  143.5986  154.2014 N   0  0  0  0  0  0  0  0  0  0  0  0
  145.0783  142.7633  154.7105 C   0  0  0  0  0  0  0  0  0  0  0  0
  143.7555  143.4391  155.0257 C   0  0  0  0  0  0  0  0  0  0  0  0
  145.2978  141.4334  154.8999 C   0  0  0  0  0  0  0  0  0  0  0  0
  144.2474  140.4752  155.4478 C   0  0  0  0  0  0  0  0  0  0  0  0
  146.6123  140.8629  154.5635 C   0  0  0  0  0  0  0  0  0  0  0  0
  146.8776  139.6672  154.7022 O   0  0  0  0  0  0  0  0  0  0  0  0
  151.5377  143.1069  157.9327 C   0  0  0  0  0  0  0  0  0  0  0  0
  153.0620  145.6262  159.6969 H   0  0  0  0  0  0  0  0  0  0  0  0
  151.4248  145.7950  159.0523 H   0  0  0  0  0  0  0  0  0  0  0  0
  152.7912  145.5617  157.9541 H   0  0  0  0  0  0  0  0  0  0  0  0
  153.1030  143.5657  160.9408 H   0  0  0  0  0  0  0  0  0  0  0  0
  152.7600  141.1099  161.0441 H   0  0  0  0  0  0  0  0  0  0  0  0
  151.6436  139.9264  159.1731 H   0  0  0  0  0  0  0  0  0  0  0  0
  149.4971  142.3674  156.1578 H   0  0  0  0  0  0  0  0  0  0  0  0
  151.0541  142.2133  155.3440 H   0  0  0  0  0  0  0  0  0  0  0  0
  148.9489  139.9826  155.4267 H   0  0  0  0  0  0  0  0  0  0  0  0
  150.5671  138.9647  154.5775 H   0  0  0  0  0  0  0  0  0  0  0  0
  149.4470  142.2050  153.3900 H   0  0  0  0  0  0  0  0  0  0  0  0
  148.8898  140.6803  152.8199 H   0  0  0  0  0  0  0  0  0  0  0  0
  148.0466  143.7177  153.4971 H   0  0  0  0  0  0  0  0  0  0  0  0
  143.5075  143.3226  156.0811 H   0  0  0  0  0  0  0  0  0  0  0  0
  142.9535  143.0051  154.4277 H   0  0  0  0  0  0  0  0  0  0  0  0
  143.7937  144.5072  154.8078 H   0  0  0  0  0  0  0  0  0  0  0  0
  144.0386  139.6911  154.7195 H   0  0  0  0  0  0  0  0  0  0  0  0
  143.3030  140.9622  155.6847 H   0  0  0  0  0  0  0  0  0  0  0  0
  144.6101  140.0021  156.3608 H   0  0  0  0  0  0  0  0  0  0  0  0
  151.2087  143.6895  157.0858 H   0  0  0  0  0  0  0  0  0  0  0  0
  1  2  1  0  0  0  0
  1 22  1  0  0  0  0
  1 23  1  0  0  0  0
  1 24  1  0  0  0  0
  2 21  1  0  0  0  0
  2  3  2  0  0  0  0
  3  4  1  0  0  0  0
  3 25  1  0  0  0  0
  4  5  2  0  0  0  0
  4 26  1  0  0  0  0
  5  6  1  0  0  0  0
  5 27  1  0  0  0  0
  6  7  1  0  0  0  0
  6 21  2  0  0  0  0
  7  8  1  0  0  0  0
  8  9  1  0  0  0  0
  8 28  1  0  0  0  0
  8 29  1  0  0  0  0
  9 10  1  0  0  0  0
  9 11  1  0  0  0  0
  9 30  1  0  0  0  0
 10 31  1  0  0  0  0
 11 12  1  0  0  0  0
 11 32  1  0  0  0  0
 11 33  1  0  0  0  0
 12 19  1  0  0  0  0
 12 13  1  0  0  0  0
 13 14  2  0  0  0  0
 13 34  1  0  0  0  0
 14 15  1  0  0  0  0
 15 16  1  0  0  0  0
 15 17  2  0  0  0  0
 16 35  1  0  0  0  0
 16 36  1  0  0  0  0
 16 37  1  0  0  0  0
 17 18  1  0  0  0  0
 17 19  1  0  0  0  0
 18 38  1  0  0  0  0
 18 39  1  0  0  0  0
 18 40  1  0  0  0  0
 19 20  2  0  0  0  0
 21 41  1  0  0  0  0
M  END
> <s_m_source_file>
AV-unprocessed.smi

> <i_m_source_file_index>
2267

> <i_lp_mmshare_version>
43012

> <i_f3d_flags>
0

> <s_epik_input>
W0NIM11jMVtjSF1bY0hdW2NIXWMoW2NIXTEpT1tDSDJdW0NASF0oW09IXSlbQ0gyXW4yW2NIXW5jKFtDSDNdKWMoW0NIM10pYzI9Tw==

> <s_epik_cmdline>
J2VwaWtfcHl0aG9uJywgJy1waCcsICc3LjAnLCAnLXRuJywgJzgnLCAnLW1hJywgJzIwMCcsICctbWV0YWxfYmluZGluZycsICctaW1hZScsICc8aW5maWxlLm1hZT4nLCAnLW9tYWUnLCAnPG91dGZpbGUubWFlPic=

> <r_lp_tautomer_probability>
1

> <r_epik_Ionization_Penalty>
3.72236e-05

> <r_epik_Ionization_Penalty_Charging>
8.38864e-08

> <r_epik_Ionization_Penalty_Neutral>
3.71397e-05

> <r_epik_State_Penalty>
-0

> <r_epik_Charging_Adjusted_Penalty>
8.38864e-08

> <i_epik_Tot_Q>
0

> <i_epik_Tot_abs_Q>
0

> <r_epik_Metal_State_Penalty>
-0

> <b_epik_Metal_Only>
0

> <s_lp_Force_Field>
OPLS_2005

> <r_lp_Energy>
23.9214

> <b_lp_Chiralities_Consistent>
1

> <s_lp_Variant>
AV-unprocessed.smi:2267-1

> <Gold.Version>
5.8.1

> <Gold.Id.Protein>
6NUR|6NUR_protein|mol2

> <Gold.PLP.Fitness>
45.5179

> <Gold.PLP.PLP>
-40.9610

> <Gold.PLP.part.hbond>
-1.1552

> <Gold.PLP.part.metal>
0.0000

> <Gold.PLP.part.buried>
-3.7576

> <Gold.PLP.part.nonpolar>
-36.3614

> <Gold.PLP.part.repulsive>
0.2752

> <Gold.PLP.ligand.clash>
0.0000

> <Gold.PLP.ligand.torsion>
0.2695

> <Gold.PLP.Chemscore.Hbond>
1.0000

> <Gold.PLP.Chemscore.CHOScore>
0.6847

> <Gold.PLP.Chemscore.Metal>
0.0000

> <Gold.Chemscore.Hbonds>
donor molecule, donor type, donor heavy atom, donor atom, acceptor molecule, acceptor atom, score
      P1  H  7989  7998       L1    10  1.00
      L1  C    13    34       P1  8028  0.38

> <Gold.PLP.Chemscore.Internal.Correction>
0.0419

> <Gold.Rescore>
     Score         DG    S(hbond)    S(metal)    S(lipo)     H(rot)  DE(clash)    DE(int)     intcor
     13.24     -14.71       0.93        0.00     103.86       2.35       0.05       1.42       ----

> <Gold.Chemscore.Fitness>
13.2385

> <Gold.Chemscore.DG>
-14.7144

> <Gold.Chemscore.ZeroCoef>
-5.4800

> <Gold.Chemscore.Hbond>
0.9269

> <Gold.Chemscore.Metal>
0.0000

> <Gold.Chemscore.Lipo>
103.8636

> <Gold.Chemscore.Internal_Hbond>
0.0000

> <Gold.Chemscore.DEClash>
0.0509

> <Gold.Chemscore.DEInternal>
1.4250

> <Gold.Chemscore.Rot>
2.3490

> <Gold.Chemscore.Internal.Correction>
   9.000000E+99

> <Gold.Chemscore.Hbonds>
donor molecule, donor type, donor heavy atom, donor atom, acceptor molecule, acceptor atom, score
      P1  H  7989  7998       L1    10  0.64

> <Gold.Chemscore.Hbond.Weighted>
-3.0959

> <Gold.Chemscore.Metal.Weighted>
-0.0000

> <Gold.Chemscore.Lipo.Weighted>
-12.1520

> <Gold.Chemscore.Internal_Hbond.Weighted>
0.0000

> <Gold.Chemscore.DEClash.Weighted>
0.0509

> <Gold.Chemscore.DEInternal.Weighted>
1.4250

> <Gold.Chemscore.Rot.Weighted>
6.0136

> <Gold.Chemscore.Internal.Correction.Weighted>
   9.000000E+99

> <Gold.Protein.RotatedTorsions>
[ 6907 6896 6895 6894 ] final  -91.71 input  -60.11 | X-H torsion
[ 7974 7965 7964 7962 ] final  136.98 input  175.53 | X-H torsion
[ 8008 7997 7996 7995 ] final   65.23 input   59.86 | X-H torsion
[ 10167 10162 10161 10158 ] final   41.39 input  -65.29 | X-H torsion
[ 10718 10713 10712 10709 ] final  155.39 input   66.30 | X-H torsion
[ 10763 10752 10751 10750 ] final  139.03 input  -60.55 | X-H torsion
[ 11005 11000 10999 10996 ] final   36.85 input  -57.11 | X-H torsion

> <Gold.Protein.ActiveResidues>
 VAL166  LYS551  ARG553  GLY616  TRP617  ASP618  TYR619  PRO620  LYS621  CYS622 
 ASP623  PHE694  ASN695  SER759  ASP760  ASP761  ALA762  ILE779  LEU786  VAL792 
 PHE793  MET794  SER795  GLU796  ALA797  LYS798  CYS799  TRP800  GLU811  SER814 

> <Gold.Protein.RotatedAtoms>
  150.6896  134.2235  159.4405 H   0  0  0  0  0  0  0  0  0  0  0  0  # atno 6907 bound_to 6896
  152.0189  134.9831  160.0579 H   0  0  0  0  0  0  0  0  0  0  0  0  # atno 6908 bound_to 6896
  152.1416  133.4432  159.4806 H   0  0  0  0  0  0  0  0  0  0  0  0  # atno 6909 bound_to 6896
  144.9512  139.4817  143.5525 H   0  0  0  0  0  0  0  0  0  0  0  0  # atno 7974 bound_to 7965
  155.6585  140.3497  155.4774 H   0  0  0  0  0  0  0  0  0  0  0  0  # atno 8008 bound_to 7997
  155.9788  140.1170  157.0768 H   0  0  0  0  0  0  0  0  0  0  0  0  # atno 8009 bound_to 7997
  154.4186  140.1142  156.5393 H   0  0  0  0  0  0  0  0  0  0  0  0  # atno 8010 bound_to 7997
  140.3648  144.2182  150.6136 H   0  0  0  0  0  0  0  0  0  0  0  0  # atno 10167 bound_to 10162
  157.2189  131.0714  151.1924 H   0  0  0  0  0  0  0  0  0  0  0  0  # atno 10718 bound_to 10713
  153.8993  135.3024  155.3448 H   0  0  0  0  0  0  0  0  0  0  0  0  # atno 10763 bound_to 10752
  154.7678  135.4901  153.9591 H   0  0  0  0  0  0  0  0  0  0  0  0  # atno 10764 bound_to 10752
  153.1253  135.6792  153.9366 H   0  0  0  0  0  0  0  0  0  0  0  0  # atno 10765 bound_to 10752
  140.2284  134.3556  155.7974 H   0  0  0  0  0  0  0  0  0  0  0  0  # atno 11005 bound_to 11000
  146.3321  139.8598  142.8858 LP  0  0  0  0  0  0  0  0  0  0  0  0  # atno 17320 bound_to 7965
  145.2842  141.0148  143.3700 LP  0  0  0  0  0  0  0  0  0  0  0  0  # atno 17321 bound_to 7965
  140.5092  143.2295  151.8562 LP  0  0  0  0  0  0  0  0  0  0  0  0  # atno 17342 bound_to 10162
  139.4810  144.4970  151.9110 LP  0  0  0  0  0  0  0  0  0  0  0  0  # atno 17343 bound_to 10162
  157.3596  130.7124  149.6493 LP  0  0  0  0  0  0  0  0  0  0  0  0  # atno 17370 bound_to 10713
  155.9684  130.4229  150.4539 LP  0  0  0  0  0  0  0  0  0  0  0  0  # atno 17371 bound_to 10713
  141.2219  133.7232  156.8692 LP  0  0  0  0  0  0  0  0  0  0  0  0  # atno 17394 bound_to 11000
  140.1776  134.9056  157.2909 LP  0  0  0  0  0  0  0  0  0  0  0  0  # atno 17395 bound_to 11000

$$$$
