AV-unprocessed.smi:1752|AV-procd|sdf|7058|dock5
  -GOLD-   22720 8273D 1   1.00000     0.00000
 Structure written by MMmdl.
 43 44  0  0  0  0  0  0  0  0  2 V2000
  148.2372  134.3579  158.1385 C   0  0  0  0  0  0  0  0  0  0  0  0
  148.6766  135.7437  158.6399 C   0  0  2  0  0  0  0  0  0  0  0  0
  147.4981  136.6864  158.9566 C   0  0  0  0  0  0  0  0  0  0  0  0
  147.0493  136.5854  160.3338 N   0  0  0  0  0  0  0  0  0  0  0  0
  145.9121  135.9756  160.8203 C   0  0  0  0  0  0  0  0  0  0  0  0
  145.9132  136.1362  162.1762 C   0  0  0  0  0  0  0  0  0  0  0  0
  147.1094  136.8643  162.4291 C   0  0  0  0  0  0  0  0  0  0  0  0
  147.7885  137.1296  161.3246 N   0  0  0  0  0  0  0  0  0  0  0  0
  149.5307  136.3713  157.6348 N   0  0  0  0  0  0  0  0  0  0  0  0
  150.7661  136.8654  157.8320 C   0  0  0  0  0  0  0  0  0  0  0  0
  151.3406  136.8050  158.9197 O   0  0  0  0  0  0  0  0  0  0  0  0
  151.3483  137.3760  156.7175 N   0  0  0  0  0  0  0  0  0  0  0  0
  150.8427  137.1481  155.3449 C   0  0  0  0  0  0  0  0  0  0  0  0
  151.0987  138.3223  154.3708 C   0  0  0  0  0  0  0  0  0  0  0  0
  150.5039  139.6792  154.8064 C   0  0  0  0  0  0  0  0  0  0  0  0
  150.6694  140.0074  156.2483 N   0  3  2  0  0  0  0  0  0  0  0  0
  150.1381  141.3505  156.5688 C   0  0  0  0  0  0  0  0  0  0  0  0
  152.0347  139.7968  156.8012 C   0  0  0  0  0  0  0  0  0  0  0  0
  152.4780  138.3144  156.8318 C   0  0  0  0  0  0  0  0  0  0  0  0
  147.6453  133.8298  158.8865 H   0  0  0  0  0  0  0  0  0  0  0  0
  149.1010  133.7321  157.9113 H   0  0  0  0  0  0  0  0  0  0  0  0
  147.6349  134.4366  157.2328 H   0  0  0  0  0  0  0  0  0  0  0  0
  149.2366  135.5929  159.5644 H   0  0  0  0  0  0  0  0  0  0  0  0
  147.7866  137.7222  158.7723 H   0  0  0  0  0  0  0  0  0  0  0  0
  146.6559  136.4765  158.2943 H   0  0  0  0  0  0  0  0  0  0  0  0
  145.2038  135.4864  160.1680 H   0  0  0  0  0  0  0  0  0  0  0  0
  145.1725  135.7873  162.8806 H   0  0  0  0  0  0  0  0  0  0  0  0
  147.5014  137.2055  163.3759 H   0  0  0  0  0  0  0  0  0  0  0  0
  149.1480  136.4357  156.7028 H   0  0  0  0  0  0  0  0  0  0  0  0
  151.3036  136.2403  154.9538 H   0  0  0  0  0  0  0  0  0  0  0  0
  149.7657  136.9713  155.3527 H   0  0  0  0  0  0  0  0  0  0  0  0
  152.1642  138.4345  154.1728 H   0  0  0  0  0  0  0  0  0  0  0  0
  150.6767  138.0623  153.3994 H   0  0  0  0  0  0  0  0  0  0  0  0
  150.9418  140.4719  154.1982 H   0  0  0  0  0  0  0  0  0  0  0  0
  149.4348  139.6786  154.5895 H   0  0  0  0  0  0  0  0  0  0  0  0
  150.7375  142.1299  156.0963 H   0  0  0  0  0  0  0  0  0  0  0  0
  150.1399  141.5223  157.6457 H   0  0  0  0  0  0  0  0  0  0  0  0
  149.1092  141.4519  156.2216 H   0  0  0  0  0  0  0  0  0  0  0  0
  152.7603  140.4047  156.2589 H   0  0  0  0  0  0  0  0  0  0  0  0
  152.0382  140.1614  157.8293 H   0  0  0  0  0  0  0  0  0  0  0  0
  153.0575  138.1286  157.7380 H   0  0  0  0  0  0  0  0  0  0  0  0
  153.1955  138.1143  156.0364 H   0  0  0  0  0  0  0  0  0  0  0  0
  150.0802  139.3553  156.7464 H   0  0  0  0  0  0  0  0  0  0  0  0
  1  2  1  0  0  0  0
  1 20  1  0  0  0  0
  1 21  1  0  0  0  0
  1 22  1  0  0  0  0
  2  3  1  0  0  0  0
  2  9  1  0  0  0  0
  2 23  1  0  0  0  0
  3  4  1  0  0  0  0
  3 24  1  0  0  0  0
  3 25  1  0  0  0  0
  4  8  1  0  0  0  0
  4  5  1  0  0  0  0
  5  6  2  0  0  0  0
  5 26  1  0  0  0  0
  6  7  1  0  0  0  0
  6 27  1  0  0  0  0
  7  8  2  0  0  0  0
  7 28  1  0  0  0  0
  9 10  1  0  0  0  0
  9 29  1  0  0  0  0
 10 11  2  0  0  0  0
 10 12  1  0  0  0  0
 12 19  1  0  0  0  0
 12 13  1  0  0  0  0
 13 14  1  0  0  0  0
 13 30  1  0  0  0  0
 13 31  1  0  0  0  0
 14 15  1  0  0  0  0
 14 32  1  0  0  0  0
 14 33  1  0  0  0  0
 15 16  1  0  0  0  0
 15 34  1  0  0  0  0
 15 35  1  0  0  0  0
 16 17  1  0  0  0  0
 16 18  1  0  0  0  0
 16 43  1  0  0  0  0
 17 36  1  0  0  0  0
 17 37  1  0  0  0  0
 17 38  1  0  0  0  0
 18 19  1  0  0  0  0
 18 39  1  0  0  0  0
 18 40  1  0  0  0  0
 19 41  1  0  0  0  0
 19 42  1  0  0  0  0
M  CHG  1  16   1
M  END
> <s_m_source_file>
AV-unprocessed.smi

> <i_m_source_file_index>
1752

> <i_lp_mmshare_version>
43012

> <i_f3d_flags>
0

> <s_epik_input>
bjFbY0hdW2NIXVtjSF1uMVtDSDJdW0NAQEhdKFtDSDNdKVtOSF1DKD1PKU4yW0NIMl1bQ0gyXVtDSDJdTihbQ0gzXSlbQ0gyXVtDSDJdMg==

> <s_epik_cmdline>
J2VwaWtfcHl0aG9uJywgJy1waCcsICc3LjAnLCAnLXRuJywgJzgnLCAnLW1hJywgJzIwMCcsICctbWV0YWxfYmluZGluZycsICctaW1hZScsICc8aW5maWxlLm1hZT4nLCAnLW9tYWUnLCAnPG91dGZpbGUubWFlPic=

> <r_lp_tautomer_probability>
1

> <r_epik_Ionization_Penalty>
0.00208423

> <r_epik_Ionization_Penalty_Charging>
0.00203643

> <r_epik_Ionization_Penalty_Neutral>
4.77939e-05

> <r_epik_State_Penalty>
0.00139278

> <r_epik_Charging_Adjusted_Penalty>
0.00342922

> <i_epik_Tot_Q>
1

> <i_epik_Tot_abs_Q>
1

> <r_epik_Metal_State_Penalty>
-0

> <b_epik_Metal_Only>
0

> <s_lp_Force_Field>
OPLS_2005

> <r_lp_Energy>
46.8375

> <b_lp_Chiralities_Consistent>
1

> <s_lp_Variant>
AV-unprocessed.smi:1752-1

> <Gold.Version>
5.8.1

> <Gold.Id.Protein>
6NUR|6NUR_protein|mol2

> <Gold.PLP.Fitness>
33.1795

> <Gold.PLP.PLP>
-26.2520

> <Gold.PLP.part.hbond>
-3.0000

> <Gold.PLP.part.metal>
0.0000

> <Gold.PLP.part.buried>
-3.2690

> <Gold.PLP.part.nonpolar>
-20.0332

> <Gold.PLP.part.repulsive>
0.1342

> <Gold.PLP.ligand.clash>
0.0000

> <Gold.PLP.ligand.torsion>
0.7932

> <Gold.PLP.Chemscore.Hbond>
2.8000

> <Gold.PLP.Chemscore.CHOScore>
0.0000

> <Gold.PLP.Chemscore.Metal>
0.0000

> <Gold.Chemscore.Hbonds>
donor molecule, donor type, donor heavy atom, donor atom, acceptor molecule, acceptor atom, score
      P1  H  6896  6909       L1    11  0.96
      P1  H  6931  6943       L1     8  1.00
      P1  H  6934  6947       L1     8  0.59

> <Gold.PLP.Chemscore.Internal.Correction>
0.1139

> <Gold.Rescore>
     Score         DG    S(hbond)    S(metal)    S(lipo)     H(rot)  DE(clash)    DE(int)     intcor
     15.58     -16.29       1.90        0.00      69.06       1.41       0.00       0.71       ----

> <Gold.Chemscore.Fitness>
15.5771

> <Gold.Chemscore.DG>
-16.2894

> <Gold.Chemscore.ZeroCoef>
-5.4800

> <Gold.Chemscore.Hbond>
1.8999

> <Gold.Chemscore.Metal>
0.0000

> <Gold.Chemscore.Lipo>
69.0580

> <Gold.Chemscore.Internal_Hbond>
0.0000

> <Gold.Chemscore.DEClash>
0.0048

> <Gold.Chemscore.DEInternal>
0.7075

> <Gold.Chemscore.Rot>
1.4125

> <Gold.Chemscore.Internal.Correction>
   9.000000E+99

> <Gold.Chemscore.Hbonds>
donor molecule, donor type, donor heavy atom, donor atom, acceptor molecule, acceptor atom, score
      P1  H  6896  6909       L1    11  0.88
      P1  H  6931  6943       L1     8  0.33
      P1  H  6934  6947       L1     8  0.02

> <Gold.Chemscore.Hbond.Weighted>
-6.3455

> <Gold.Chemscore.Metal.Weighted>
-0.0000

> <Gold.Chemscore.Lipo.Weighted>
-8.0798

> <Gold.Chemscore.Internal_Hbond.Weighted>
0.0000

> <Gold.Chemscore.DEClash.Weighted>
0.0048

> <Gold.Chemscore.DEInternal.Weighted>
0.7075

> <Gold.Chemscore.Rot.Weighted>
3.6160

> <Gold.Chemscore.Internal.Correction.Weighted>
   9.000000E+99

> <Gold.Protein.RotatedTorsions>
[ 6907 6896 6895 6894 ] final  101.42 input  -60.11 | X-H torsion
[ 7974 7965 7964 7962 ] final -130.03 input  175.53 | X-H torsion
[ 8008 7997 7996 7995 ] final  137.92 input   59.86 | X-H torsion
[ 10167 10162 10161 10158 ] final -131.36 input  -65.29 | X-H torsion
[ 10718 10713 10712 10709 ] final  -72.66 input   66.30 | X-H torsion
[ 10763 10752 10751 10750 ] final   41.94 input  -60.55 | X-H torsion
[ 11005 11000 10999 10996 ] final   15.84 input  -57.11 | X-H torsion

> <Gold.Protein.ActiveResidues>
 VAL166  LYS551  ARG553  GLY616  TRP617  ASP618  TYR619  PRO620  LYS621  CYS622 
 ASP623  PHE694  ASN695  SER759  ASP760  ASP761  ALA762  ILE779  LEU786  VAL792 
 PHE793  MET794  SER795  GLU796  ALA797  LYS798  CYS799  TRP800  GLU811  SER814 

> <Gold.Protein.RotatedAtoms>
  152.5350  134.0129  159.7946 H   0  0  0  0  0  0  0  0  0  0  0  0  # atno 6907 bound_to 6896
  151.0328  133.5767  159.2666 H   0  0  0  0  0  0  0  0  0  0  0  0  # atno 6908 bound_to 6896
  151.2765  135.0708  159.9207 H   0  0  0  0  0  0  0  0  0  0  0  0  # atno 6909 bound_to 6896
  144.9514  140.7348  143.4785 H   0  0  0  0  0  0  0  0  0  0  0  0  # atno 7974 bound_to 7965
  156.3000  140.2407  156.3989 H   0  0  0  0  0  0  0  0  0  0  0  0  # atno 8008 bound_to 7997
  154.8545  140.0422  157.1646 H   0  0  0  0  0  0  0  0  0  0  0  0  # atno 8009 bound_to 7997
  154.8962  140.2970  155.5346 H   0  0  0  0  0  0  0  0  0  0  0  0  # atno 8010 bound_to 7997
  139.9197  143.6397  152.2556 H   0  0  0  0  0  0  0  0  0  0  0  0  # atno 10167 bound_to 10162
  156.0311  130.4377  150.2625 H   0  0  0  0  0  0  0  0  0  0  0  0  # atno 10718 bound_to 10713
  152.9895  135.6147  154.2868 H   0  0  0  0  0  0  0  0  0  0  0  0  # atno 10763 bound_to 10752
  154.2595  135.2783  155.2785 H   0  0  0  0  0  0  0  0  0  0  0  0  # atno 10764 bound_to 10752
  154.5218  135.5812  153.6744 H   0  0  0  0  0  0  0  0  0  0  0  0  # atno 10765 bound_to 10752
  140.4537  134.1197  155.7706 H   0  0  0  0  0  0  0  0  0  0  0  0  # atno 11005 bound_to 11000
  145.2838  139.1908  143.4777 LP  0  0  0  0  0  0  0  0  0  0  0  0  # atno 17320 bound_to 7965
  146.3322  140.2804  142.8610 LP  0  0  0  0  0  0  0  0  0  0  0  0  # atno 17321 bound_to 7965
  139.6872  144.7650  151.1503 LP  0  0  0  0  0  0  0  0  0  0  0  0  # atno 17342 bound_to 10162
  140.7665  143.5640  150.9067 LP  0  0  0  0  0  0  0  0  0  0  0  0  # atno 17343 bound_to 10162
  157.0728  131.0121  151.3184 LP  0  0  0  0  0  0  0  0  0  0  0  0  # atno 17370 bound_to 10713
  157.4987  130.7866  149.7582 LP  0  0  0  0  0  0  0  0  0  0  0  0  # atno 17371 bound_to 10713
  141.1652  133.8716  157.1734 LP  0  0  0  0  0  0  0  0  0  0  0  0  # atno 17394 bound_to 11000
  139.9990  135.0035  157.0147 LP  0  0  0  0  0  0  0  0  0  0  0  0  # atno 17395 bound_to 11000

$$$$
