AV-unprocessed.smi:2751|AV-procd|sdf|10603|dock3
  -GOLD-   2272015 53D 1   1.00000     0.00000
 Structure written by MMmdl.
 33 34  0  0  0  0  0  0  0  0  2 V2000
  151.3307  141.0464  157.6511 O   0  0  0  0  0  0  0  0  0  0  0  0
  152.2404  140.2356  157.4606 C   0  0  0  0  0  0  0  0  0  0  0  0
  152.9564  139.7784  158.4984 N   0  0  0  0  0  0  0  0  0  0  0  0
  152.7708  140.1526  159.8964 C   0  0  0  0  0  0  0  0  0  0  0  0
  153.3645  141.5401  160.1951 C   0  0  0  0  0  0  0  0  0  0  0  0
  152.3579  142.6805  159.9757 C   0  0  2  0  0  0  0  0  0  0  0  0
  152.6626  143.4793  158.6933 C   0  0  0  0  0  0  0  0  0  0  0  0
  151.6864  144.6518  158.5431 C   0  0  0  0  0  0  0  0  0  0  0  0
  151.6896  145.4941  159.8231 C   0  0  0  0  0  0  0  0  0  0  0  0
  151.4429  144.6021  161.0501 C   0  0  0  0  0  0  0  0  0  0  0  0
  152.4146  143.5618  161.0965 O   0  0  0  0  0  0  0  0  0  0  0  0
  152.6236  139.7273  156.2674 N   0  5  0  0  0  0  0  0  0  0  0  0
  151.7058  139.2069  155.4367 C   0  0  0  0  0  0  0  0  0  0  0  0
  150.8289  139.8902  154.6990 N   0  0  0  0  0  0  0  0  0  0  0  0
  150.0877  138.9396  154.0141 C   0  0  0  0  0  0  0  0  0  0  0  0
  150.5515  137.7046  154.3767 C   0  0  0  0  0  0  0  0  0  0  0  0
  151.5684  137.8598  155.2775 O   0  0  0  0  0  0  0  0  0  0  0  0
  153.6910  139.1155  158.2976 H   0  0  0  0  0  0  0  0  0  0  0  0
  151.7110  140.1239  160.1550 H   0  0  0  0  0  0  0  0  0  0  0  0
  153.2593  139.3972  160.5121 H   0  0  0  0  0  0  0  0  0  0  0  0
  153.7359  141.5699  161.2203 H   0  0  0  0  0  0  0  0  0  0  0  0
  154.2296  141.7041  159.5514 H   0  0  0  0  0  0  0  0  0  0  0  0
  151.3556  142.2538  159.9041 H   0  0  0  0  0  0  0  0  0  0  0  0
  153.6849  143.8583  158.7295 H   0  0  0  0  0  0  0  0  0  0  0  0
  152.6007  142.8302  157.8191 H   0  0  0  0  0  0  0  0  0  0  0  0
  151.9560  145.2646  157.6828 H   0  0  0  0  0  0  0  0  0  0  0  0
  150.6816  144.2709  158.3561 H   0  0  0  0  0  0  0  0  0  0  0  0
  152.6513  145.9979  159.9278 H   0  0  0  0  0  0  0  0  0  0  0  0
  150.9309  146.2750  159.7640 H   0  0  0  0  0  0  0  0  0  0  0  0
  151.5161  145.1927  161.9632 H   0  0  0  0  0  0  0  0  0  0  0  0
  150.4388  144.1760  161.0265 H   0  0  0  0  0  0  0  0  0  0  0  0
  149.2978  139.2144  153.3310 H   0  0  0  0  0  0  0  0  0  0  0  0
  150.2874  136.6926  154.1093 H   0  0  0  0  0  0  0  0  0  0  0  0
  1  2  2  0  0  0  0
  2 12  1  0  0  0  0
  2  3  1  0  0  0  0
  3  4  1  0  0  0  0
  3 18  1  0  0  0  0
  4  5  1  0  0  0  0
  4 19  1  0  0  0  0
  4 20  1  0  0  0  0
  5  6  1  0  0  0  0
  5 21  1  0  0  0  0
  5 22  1  0  0  0  0
  6 11  1  0  0  0  0
  6  7  1  0  0  0  0
  6 23  1  0  0  0  0
  7  8  1  0  0  0  0
  7 24  1  0  0  0  0
  7 25  1  0  0  0  0
  8  9  1  0  0  0  0
  8 26  1  0  0  0  0
  8 27  1  0  0  0  0
  9 10  1  0  0  0  0
  9 28  1  0  0  0  0
  9 29  1  0  0  0  0
 10 11  1  0  0  0  0
 10 30  1  0  0  0  0
 10 31  1  0  0  0  0
 12 13  1  0  0  0  0
 13 17  1  0  0  0  0
 13 14  2  0  0  0  0
 14 15  1  0  0  0  0
 15 32  1  0  0  0  0
 15 16  2  0  0  0  0
 16 33  1  0  0  0  0
 16 17  1  0  0  0  0
M  CHG  1  12  -1
M  END
> <s_m_source_file>
AV-unprocessed.smi

> <i_m_source_file_index>
2751

> <i_lp_mmshare_version>
43012

> <i_f3d_flags>
0

> <s_epik_input>
bzFbY0hdW2NIXW5jMVtOSF1DKD1PKVtOSF1bQ0gyXVtDSDJdW0NAQEhdMltDSDJdW0NIMl1bQ0gyXVtDSDJdTzI=

> <s_epik_cmdline>
J2VwaWtfcHl0aG9uJywgJy1waCcsICc3LjAnLCAnLXRuJywgJzgnLCAnLW1hJywgJzIwMCcsICctbWV0YWxfYmluZGluZycsICctaW1hZScsICc8aW5maWxlLm1hZT4nLCAnLW9tYWUnLCAnPG91dGZpbGUubWFlPic=

> <r_lp_tautomer_probability>
0.107061

> <r_epik_Ionization_Penalty>
11.077

> <r_epik_Ionization_Penalty_Charging>
7.79122

> <r_epik_Ionization_Penalty_Neutral>
3.28583

> <r_epik_State_Penalty>
5.8984

> <r_epik_Charging_Adjusted_Penalty>
13.6896

> <i_epik_Tot_Q>
-1

> <i_epik_Tot_abs_Q>
1

> <r_epik_Metal_State_Penalty>
1.82322

> <b_epik_Metal_Only>
1

> <s_lp_Force_Field>
OPLS_2005

> <r_lp_Energy>
3.95886

> <b_lp_Chiralities_Consistent>
1

> <s_lp_Variant>
AV-unprocessed.smi:2751-9

> <Gold.Version>
5.8.1

> <Gold.Id.Protein>
6NUR|6NUR_protein|mol2

> <Gold.PLP.Fitness>
47.9152

> <Gold.PLP.PLP>
-37.5577

> <Gold.PLP.part.hbond>
-2.0000

> <Gold.PLP.part.metal>
0.0000

> <Gold.PLP.part.buried>
-2.0913

> <Gold.PLP.part.nonpolar>
-33.7150

> <Gold.PLP.part.repulsive>
0.3401

> <Gold.PLP.ligand.clash>
0.0000

> <Gold.PLP.ligand.torsion>
2.0955

> <Gold.PLP.Chemscore.Hbond>
3.0000

> <Gold.PLP.Chemscore.CHOScore>
1.8449

> <Gold.PLP.Chemscore.Metal>
0.0000

> <Gold.Chemscore.Hbonds>
donor molecule, donor type, donor heavy atom, donor atom, acceptor molecule, acceptor atom, score
      P1  H  7989  7998       L1    14  1.00
      P1  H  7997  8009       L1    12  2.00
      L1  C    15    32       P1  7957  0.90
      L1  C    16    33       P1  7948  0.57
      L1  C    16    33       P1  7949  0.05

> <Gold.PLP.Chemscore.Internal.Correction>
0.0136

> <Gold.Rescore>
     Score         DG    S(hbond)    S(metal)    S(lipo)     H(rot)  DE(clash)    DE(int)     intcor
     14.93     -17.64       1.57        0.00      94.26       1.60       0.47       2.23       ----

> <Gold.Chemscore.Fitness>
14.9346

> <Gold.Chemscore.DG>
-17.6360

> <Gold.Chemscore.ZeroCoef>
-5.4800

> <Gold.Chemscore.Hbond>
1.5678

> <Gold.Chemscore.Metal>
0.0000

> <Gold.Chemscore.Lipo>
94.2550

> <Gold.Chemscore.Internal_Hbond>
0.0000

> <Gold.Chemscore.DEClash>
0.4698

> <Gold.Chemscore.DEInternal>
2.2316

> <Gold.Chemscore.Rot>
1.6048

> <Gold.Chemscore.Internal.Correction>
   9.000000E+99

> <Gold.Chemscore.Hbonds>
donor molecule, donor type, donor heavy atom, donor atom, acceptor molecule, acceptor atom, score
      P1  H  7989  7998       L1    14  0.47
      P1  H  7997  8009       L1    12  0.45

> <Gold.Chemscore.Hbond.Weighted>
-5.2364

> <Gold.Chemscore.Metal.Weighted>
-0.0000

> <Gold.Chemscore.Lipo.Weighted>
-11.0278

> <Gold.Chemscore.Internal_Hbond.Weighted>
0.0000

> <Gold.Chemscore.DEClash.Weighted>
0.4698

> <Gold.Chemscore.DEInternal.Weighted>
2.2316

> <Gold.Chemscore.Rot.Weighted>
4.1082

> <Gold.Chemscore.Internal.Correction.Weighted>
   9.000000E+99

> <Gold.Protein.RotatedTorsions>
[ 6907 6896 6895 6894 ] final  -31.18 input  -60.11 | X-H torsion
[ 7974 7965 7964 7962 ] final   56.03 input  175.53 | X-H torsion
[ 8008 7997 7996 7995 ] final -150.14 input   59.86 | X-H torsion
[ 10167 10162 10161 10158 ] final  143.23 input  -65.29 | X-H torsion
[ 10718 10713 10712 10709 ] final  -89.26 input   66.30 | X-H torsion
[ 10763 10752 10751 10750 ] final -112.25 input  -60.55 | X-H torsion
[ 11005 11000 10999 10996 ] final   15.80 input  -57.11 | X-H torsion

> <Gold.Protein.ActiveResidues>
 VAL166  LYS551  ARG553  GLY616  TRP617  ASP618  TYR619  PRO620  LYS621  CYS622 
 ASP623  PHE694  ASN695  SER759  ASP760  ASP761  ALA762  ILE779  LEU786  VAL792 
 PHE793  MET794  SER795  GLU796  ALA797  LYS798  CYS799  TRP800  GLU811  SER814 

> <Gold.Protein.RotatedAtoms>
  151.0955  134.9941  159.8423 H   0  0  0  0  0  0  0  0  0  0  0  0  # atno 6907 bound_to 6896
  152.5433  134.2013  159.8723 H   0  0  0  0  0  0  0  0  0  0  0  0  # atno 6908 bound_to 6896
  151.2052  133.4543  159.2630 H   0  0  0  0  0  0  0  0  0  0  0  0  # atno 6909 bound_to 6896
  145.9441  139.3914  143.0346 H   0  0  0  0  0  0  0  0  0  0  0  0  # atno 7974 bound_to 7965
  155.6189  140.0679  157.2684 H   0  0  0  0  0  0  0  0  0  0  0  0  # atno 8008 bound_to 7997
  154.4234  140.1788  156.1399 H   0  0  0  0  0  0  0  0  0  0  0  0  # atno 8009 bound_to 7997
  156.0025  140.3334  155.6863 H   0  0  0  0  0  0  0  0  0  0  0  0  # atno 8010 bound_to 7997
  139.4974  144.6054  151.6390 H   0  0  0  0  0  0  0  0  0  0  0  0  # atno 10167 bound_to 10162
  155.9984  130.4865  150.5144 H   0  0  0  0  0  0  0  0  0  0  0  0  # atno 10718 bound_to 10713
  154.8340  135.4498  154.1164 H   0  0  0  0  0  0  0  0  0  0  0  0  # atno 10763 bound_to 10752
  153.2412  135.6916  153.7787 H   0  0  0  0  0  0  0  0  0  0  0  0  # atno 10764 bound_to 10752
  153.7134  135.3353  155.3227 H   0  0  0  0  0  0  0  0  0  0  0  0  # atno 10765 bound_to 10752
  140.4543  134.1192  155.7707 H   0  0  0  0  0  0  0  0  0  0  0  0  # atno 11005 bound_to 11000
  145.8260  140.9655  143.0874 LP  0  0  0  0  0  0  0  0  0  0  0  0  # atno 17320 bound_to 7965
  144.6784  140.0102  143.7484 LP  0  0  0  0  0  0  0  0  0  0  0  0  # atno 17321 bound_to 7965
  140.5714  144.0102  150.6219 LP  0  0  0  0  0  0  0  0  0  0  0  0  # atno 17342 bound_to 10162
  140.3221  143.3131  152.0774 LP  0  0  0  0  0  0  0  0  0  0  0  0  # atno 17343 bound_to 10162
  157.3113  131.0664  151.1999 LP  0  0  0  0  0  0  0  0  0  0  0  0  # atno 17370 bound_to 10713
  157.2944  130.6812  149.6131 LP  0  0  0  0  0  0  0  0  0  0  0  0  # atno 17371 bound_to 10713
  141.1650  133.8720  157.1740 LP  0  0  0  0  0  0  0  0  0  0  0  0  # atno 17394 bound_to 11000
  139.9986  135.0036  157.0140 LP  0  0  0  0  0  0  0  0  0  0  0  0  # atno 17395 bound_to 11000

$$$$
