AV-unprocessed.smi:1432|AV-procd|sdf|5833|dock9
  -GOLD-   22720 5493D 1   1.00000     0.00000
 Structure written by MMmdl.
 47 48  0  0  0  0  0  0  0  0  2 V2000
  144.2906  137.2629  152.7124 C   0  0  0  0  0  0  0  0  0  0  0  0
  145.6655  136.9636  152.0759 C   0  0  2  0  0  0  0  0  0  0  0  0
  145.5589  136.0019  150.8736 C   0  0  0  0  0  0  0  0  0  0  0  0
  145.2664  134.5594  151.3119 C   0  0  0  0  0  0  0  0  0  0  0  0
  146.3103  134.0994  152.3366 C   0  0  0  0  0  0  0  0  0  0  0  0
  146.3959  135.0759  153.5213 C   0  0  0  0  0  0  0  0  0  0  0  0
  146.6767  136.4614  153.0545 N   0  3  2  0  0  0  0  0  0  0  0  0
  146.9663  137.4158  154.1557 C   0  0  0  0  0  0  0  0  0  0  0  0
  147.5866  138.7288  153.6416 C   0  0  0  0  0  0  0  0  0  0  0  0
  147.7010  139.7213  154.7037 N   0  0  0  0  0  0  0  0  0  0  0  0
  148.8354  140.3495  155.0479 C   0  0  0  0  0  0  0  0  0  0  0  0
  149.9071  140.1640  154.4695 O   0  0  0  0  0  0  0  0  0  0  0  0
  148.7282  141.3505  156.2070 C   0  0  0  0  0  0  0  0  0  0  0  0
  149.7657  141.1620  157.2351 N   0  0  0  0  0  0  0  0  0  0  0  0
  150.4261  142.3159  157.7013 C   0  0  0  0  0  0  0  0  0  0  0  0
  151.4055  142.2770  158.6250 C   0  0  0  0  0  0  0  0  0  0  0  0
  152.0663  143.5446  159.1440 C   0  0  0  0  0  0  0  0  0  0  0  0
  152.6477  144.2231  158.1544 F   0  0  0  0  0  0  0  0  0  0  0  0
  151.1526  144.3335  159.7077 F   0  0  0  0  0  0  0  0  0  0  0  0
  152.9935  143.2632  160.0604 F   0  0  0  0  0  0  0  0  0  0  0  0
  151.7364  140.9707  159.1598 C   0  0  0  0  0  0  0  0  0  0  0  0
  151.1106  139.8580  158.7293 C   0  0  0  0  0  0  0  0  0  0  0  0
  150.0667  139.9137  157.7037 C   0  0  0  0  0  0  0  0  0  0  0  0
  149.4980  138.9027  157.2908 O   0  0  0  0  0  0  0  0  0  0  0  0
  143.5964  137.6449  151.9637 H   0  0  0  0  0  0  0  0  0  0  0  0
  144.3619  138.0212  153.4922 H   0  0  0  0  0  0  0  0  0  0  0  0
  143.8341  136.3770  153.1526 H   0  0  0  0  0  0  0  0  0  0  0  0
  146.0444  137.9088  151.6837 H   0  0  0  0  0  0  0  0  0  0  0  0
  144.7907  136.3452  150.1797 H   0  0  0  0  0  0  0  0  0  0  0  0
  146.4971  136.0200  150.3168 H   0  0  0  0  0  0  0  0  0  0  0  0
  144.2672  134.4920  151.7435 H   0  0  0  0  0  0  0  0  0  0  0  0
  145.2734  133.8961  150.4465 H   0  0  0  0  0  0  0  0  0  0  0  0
  146.0652  133.0990  152.6950 H   0  0  0  0  0  0  0  0  0  0  0  0
  147.2861  134.0242  151.8551 H   0  0  0  0  0  0  0  0  0  0  0  0
  145.4720  135.0533  154.1001 H   0  0  0  0  0  0  0  0  0  0  0  0
  147.1848  134.7367  154.1914 H   0  0  0  0  0  0  0  0  0  0  0  0
  146.0344  137.6542  154.6704 H   0  0  0  0  0  0  0  0  0  0  0  0
  147.6169  136.9461  154.8950 H   0  0  0  0  0  0  0  0  0  0  0  0
  148.5890  138.5584  153.2512 H   0  0  0  0  0  0  0  0  0  0  0  0
  146.9975  139.1332  152.8166 H   0  0  0  0  0  0  0  0  0  0  0  0
  146.8633  139.9322  155.2275 H   0  0  0  0  0  0  0  0  0  0  0  0
  148.7783  142.3577  155.7914 H   0  0  0  0  0  0  0  0  0  0  0  0
  147.7370  141.2788  156.6587 H   0  0  0  0  0  0  0  0  0  0  0  0
  150.0882  143.2394  157.2538 H   0  0  0  0  0  0  0  0  0  0  0  0
  152.5029  140.8813  159.9154 H   0  0  0  0  0  0  0  0  0  0  0  0
  151.3849  138.9007  159.1480 H   0  0  0  0  0  0  0  0  0  0  0  0
  147.5353  136.4018  152.5256 H   0  0  0  0  0  0  0  0  0  0  0  0
  1  2  1  0  0  0  0
  1 25  1  0  0  0  0
  1 26  1  0  0  0  0
  1 27  1  0  0  0  0
  2  7  1  0  0  0  0
  2  3  1  0  0  0  0
  2 28  1  0  0  0  0
  3  4  1  0  0  0  0
  3 29  1  0  0  0  0
  3 30  1  0  0  0  0
  4  5  1  0  0  0  0
  4 31  1  0  0  0  0
  4 32  1  0  0  0  0
  5  6  1  0  0  0  0
  5 33  1  0  0  0  0
  5 34  1  0  0  0  0
  6  7  1  0  0  0  0
  6 35  1  0  0  0  0
  6 36  1  0  0  0  0
  7  8  1  0  0  0  0
  7 47  1  0  0  0  0
  8  9  1  0  0  0  0
  8 37  1  0  0  0  0
  8 38  1  0  0  0  0
  9 10  1  0  0  0  0
  9 39  1  0  0  0  0
  9 40  1  0  0  0  0
 10 11  1  0  0  0  0
 10 41  1  0  0  0  0
 11 12  2  0  0  0  0
 11 13  1  0  0  0  0
 13 14  1  0  0  0  0
 13 42  1  0  0  0  0
 13 43  1  0  0  0  0
 14 23  1  0  0  0  0
 14 15  1  0  0  0  0
 15 16  2  0  0  0  0
 15 44  1  0  0  0  0
 16 17  1  0  0  0  0
 16 21  1  0  0  0  0
 17 18  1  0  0  0  0
 17 19  1  0  0  0  0
 17 20  1  0  0  0  0
 21 22  2  0  0  0  0
 21 45  1  0  0  0  0
 22 23  1  0  0  0  0
 22 46  1  0  0  0  0
 23 24  2  0  0  0  0
M  CHG  1   7   1
M  END
> <s_m_source_file>
AV-unprocessed.smi

> <i_m_source_file_index>
1432

> <i_lp_mmshare_version>
43012

> <i_f3d_flags>
0

> <s_epik_input>
W0NIM11bQ0BASF0xW0NIMl1bQ0gyXVtDSDJdW0NIMl1OMVtDSDJdW0NIMl1bTkhdQyg9TylbQ0gyXW4yW2NIXWMoQyhGKShGKUYpW2NIXVtjSF1jMj1P

> <s_epik_cmdline>
J2VwaWtfcHl0aG9uJywgJy1waCcsICc3LjAnLCAnLXRuJywgJzgnLCAnLW1hJywgJzIwMCcsICctbWV0YWxfYmluZGluZycsICctaW1hZScsICc8aW5maWxlLm1hZT4nLCAnLW9tYWUnLCAnPG91dGZpbGUubWFlPic=

> <r_lp_tautomer_probability>
1

> <r_epik_Ionization_Penalty>
0.00237222

> <r_epik_Ionization_Penalty_Charging>
0.00237213

> <r_epik_Ionization_Penalty_Neutral>
8.2065e-08

> <r_epik_State_Penalty>
0.00163922

> <r_epik_Charging_Adjusted_Penalty>
0.00401135

> <i_epik_Tot_Q>
1

> <i_epik_Tot_abs_Q>
1

> <r_epik_Metal_State_Penalty>
-0

> <b_epik_Metal_Only>
0

> <s_lp_Force_Field>
OPLS_2005

> <r_lp_Energy>
31.3892

> <b_lp_Chiralities_Consistent>
1

> <s_lp_Variant>
AV-unprocessed.smi:1432-3

> <Gold.Version>
5.8.1

> <Gold.Id.Protein>
6NUR|6NUR_protein|mol2

> <Gold.PLP.Fitness>
54.2046

> <Gold.PLP.PLP>
-43.1541

> <Gold.PLP.part.hbond>
-2.0000

> <Gold.PLP.part.metal>
0.0000

> <Gold.PLP.part.buried>
-5.4127

> <Gold.PLP.part.nonpolar>
-37.4386

> <Gold.PLP.part.repulsive>
0.1299

> <Gold.PLP.ligand.clash>
0.0000

> <Gold.PLP.ligand.torsion>
0.3780

> <Gold.PLP.Chemscore.Hbond>
2.8960

> <Gold.PLP.Chemscore.CHOScore>
1.0000

> <Gold.PLP.Chemscore.Metal>
0.0000

> <Gold.Chemscore.Hbonds>
donor molecule, donor type, donor heavy atom, donor atom, acceptor molecule, acceptor atom, score
      L1  H     7    47       P1  7948  2.00
      P1  H  7989  7998       L1    12  0.82
      L1  C    15    44       P1  8028  1.00

> <Gold.PLP.Chemscore.Internal.Correction>
0.1185

> <Gold.Rescore>
     Score         DG    S(hbond)    S(metal)    S(lipo)     H(rot)  DE(clash)    DE(int)     intcor
     13.53     -15.90       1.88        0.00      80.94       2.08       0.67       1.70       ----

> <Gold.Chemscore.Fitness>
13.5347

> <Gold.Chemscore.DG>
-15.8985

> <Gold.Chemscore.ZeroCoef>
-5.4800

> <Gold.Chemscore.Hbond>
1.8752

> <Gold.Chemscore.Metal>
0.0000

> <Gold.Chemscore.Lipo>
80.9426

> <Gold.Chemscore.Internal_Hbond>
0.0000

> <Gold.Chemscore.DEClash>
0.6687

> <Gold.Chemscore.DEInternal>
1.6951

> <Gold.Chemscore.Rot>
2.0762

> <Gold.Chemscore.Internal.Correction>
   9.000000E+99

> <Gold.Chemscore.Hbonds>
donor molecule, donor type, donor heavy atom, donor atom, acceptor molecule, acceptor atom, score
      L1  H     7    47       P1  7948  0.97
      P1  H  7989  7998       L1    12  0.77

> <Gold.Chemscore.Hbond.Weighted>
-6.2632

> <Gold.Chemscore.Metal.Weighted>
-0.0000

> <Gold.Chemscore.Lipo.Weighted>
-9.4703

> <Gold.Chemscore.Internal_Hbond.Weighted>
0.0000

> <Gold.Chemscore.DEClash.Weighted>
0.6687

> <Gold.Chemscore.DEInternal.Weighted>
1.6951

> <Gold.Chemscore.Rot.Weighted>
5.3150

> <Gold.Chemscore.Internal.Correction.Weighted>
   9.000000E+99

> <Gold.Protein.RotatedTorsions>
[ 6907 6896 6895 6894 ] final  -57.13 input  -60.11 | X-H torsion
[ 7974 7965 7964 7962 ] final -159.05 input  175.53 | X-H torsion
[ 8008 7997 7996 7995 ] final   22.70 input   59.86 | X-H torsion
[ 10167 10162 10161 10158 ] final  141.28 input  -65.29 | X-H torsion
[ 10718 10713 10712 10709 ] final    8.69 input   66.30 | X-H torsion
[ 10763 10752 10751 10750 ] final   75.60 input  -60.55 | X-H torsion
[ 11005 11000 10999 10996 ] final  -78.73 input  -57.11 | X-H torsion

> <Gold.Protein.ActiveResidues>
 VAL166  LYS551  ARG553  GLY616  TRP617  ASP618  TYR619  PRO620  LYS621  CYS622 
 ASP623  PHE694  ASN695  SER759  ASP760  ASP761  ALA762  ILE779  LEU786  VAL792 
 PHE793  MET794  SER795  GLU796  ALA797  LYS798  CYS799  TRP800  GLU811  SER814 

> <Gold.Protein.RotatedAtoms>
  150.8111  134.7266  159.6688 H   0  0  0  0  0  0  0  0  0  0  0  0  # atno 6907 bound_to 6896
  152.4230  134.5916  159.9985 H   0  0  0  0  0  0  0  0  0  0  0  0  # atno 6908 bound_to 6896
  151.6126  133.3309  159.3106 H   0  0  0  0  0  0  0  0  0  0  0  0  # atno 6909 bound_to 6896
  144.7480  140.3740  143.6070 H   0  0  0  0  0  0  0  0  0  0  0  0  # atno 7974 bound_to 7965
  154.9697  140.3088  155.4993 H   0  0  0  0  0  0  0  0  0  0  0  0  # atno 8008 bound_to 7997
  156.2967  140.2286  156.4728 H   0  0  0  0  0  0  0  0  0  0  0  0  # atno 8009 bound_to 7997
  154.7888  140.0441  157.1173 H   0  0  0  0  0  0  0  0  0  0  0  0  # atno 8010 bound_to 7997
  139.5025  144.6181  151.6115 H   0  0  0  0  0  0  0  0  0  0  0  0  # atno 10167 bound_to 10162
  156.9553  130.5912  149.5659 H   0  0  0  0  0  0  0  0  0  0  0  0  # atno 10718 bound_to 10713
  153.0666  135.4982  154.8213 H   0  0  0  0  0  0  0  0  0  0  0  0  # atno 10763 bound_to 10752
  154.6962  135.2993  154.9410 H   0  0  0  0  0  0  0  0  0  0  0  0  # atno 10764 bound_to 10752
  154.0149  135.6749  153.4821 H   0  0  0  0  0  0  0  0  0  0  0  0  # atno 10765 bound_to 10752
  141.1665  133.7075  156.8015 H   0  0  0  0  0  0  0  0  0  0  0  0  # atno 11005 bound_to 11000
  145.7048  139.1670  143.2572 LP  0  0  0  0  0  0  0  0  0  0  0  0  # atno 17320 bound_to 7965
  146.1389  140.7084  142.9376 LP  0  0  0  0  0  0  0  0  0  0  0  0  # atno 17321 bound_to 7965
  140.5875  143.9838  150.6304 LP  0  0  0  0  0  0  0  0  0  0  0  0  # atno 17342 bound_to 10162
  140.3007  143.3262  152.0974 LP  0  0  0  0  0  0  0  0  0  0  0  0  # atno 17343 bound_to 10162
  156.0345  130.5434  150.8619 LP  0  0  0  0  0  0  0  0  0  0  0  0  # atno 17370 bound_to 10713
  157.5694  131.0946  150.9440 LP  0  0  0  0  0  0  0  0  0  0  0  0  # atno 17371 bound_to 10713
  140.2253  134.8727  157.3420 LP  0  0  0  0  0  0  0  0  0  0  0  0  # atno 17394 bound_to 11000
  140.1946  134.4329  155.7696 LP  0  0  0  0  0  0  0  0  0  0  0  0  # atno 17395 bound_to 11000

$$$$
