AV-unprocessed.smi:1570|AV-procd|sdf|6319|dock8
  -GOLD-   22720 6523D 1   1.00000     0.00000
 Structure written by MMmdl.
 52 54  0  0  0  0  0  0  0  0  2 V2000
  151.0564  138.6990  156.8422 C   0  0  0  0  0  0  0  0  0  0  0  0
  150.3819  139.3192  158.0724 C   0  0  0  0  0  0  0  0  0  0  0  0
  151.3004  140.2002  158.7891 N   0  0  0  0  0  0  0  0  0  0  0  0
  152.3241  139.8200  159.5888 C   0  0  0  0  0  0  0  0  0  0  0  0
  152.6425  138.6616  159.8579 O   0  0  0  0  0  0  0  0  0  0  0  0
  152.9529  140.9362  160.0281 N   0  0  0  0  0  0  0  0  0  0  0  0
  154.1162  140.9839  160.9132 C   0  0  0  0  0  0  0  0  0  0  0  0
  155.1598  139.9084  160.5476 C   0  0  1  0  0  0  0  0  0  0  0  0
  155.6950  140.2259  159.2775 O   0  0  0  0  0  0  0  0  0  0  0  0
  156.3285  139.8796  161.5534 C   0  0  0  0  0  0  0  0  0  0  0  0
  155.8817  139.5470  162.9304 N   0  3  1  0  0  0  0  0  0  0  0  0
  155.6719  138.0932  163.1262 C   0  0  0  0  0  0  0  0  0  0  0  0
  155.1459  137.8098  164.5462 C   0  0  1  0  0  0  0  0  0  0  0  0
  154.9913  136.3092  164.8166 C   0  0  0  0  0  0  0  0  0  0  0  0
  156.0645  138.3390  165.4963 O   0  0  0  0  0  0  0  0  0  0  0  0
  156.2170  139.7497  165.3846 C   0  0  1  0  0  0  0  0  0  0  0  0
  157.1502  140.2201  166.5060 C   0  0  0  0  0  0  0  0  0  0  0  0
  156.7725  140.0854  163.9881 C   0  0  0  0  0  0  0  0  0  0  0  0
  152.3222  142.0633  159.4808 C   0  0  0  0  0  0  0  0  0  0  0  0
  152.5995  143.4358  159.6098 C   0  0  0  0  0  0  0  0  0  0  0  0
  151.7628  144.3337  158.9062 C   0  0  0  0  0  0  0  0  0  0  0  0
  150.6930  143.8558  158.1058 C   0  0  0  0  0  0  0  0  0  0  0  0
  150.4373  142.4694  157.9908 C   0  0  0  0  0  0  0  0  0  0  0  0
  151.2826  141.5993  158.7013 C   0  0  0  0  0  0  0  0  0  0  0  0
  150.3665  138.0433  156.3108 H   0  0  0  0  0  0  0  0  0  0  0  0
  151.9264  138.1061  157.1255 H   0  0  0  0  0  0  0  0  0  0  0  0
  151.3877  139.4679  156.1434 H   0  0  0  0  0  0  0  0  0  0  0  0
  149.4970  139.8802  157.7715 H   0  0  0  0  0  0  0  0  0  0  0  0
  150.0275  138.5304  158.7378 H   0  0  0  0  0  0  0  0  0  0  0  0
  154.5619  141.9789  160.9307 H   0  0  0  0  0  0  0  0  0  0  0  0
  153.7531  140.8114  161.9278 H   0  0  0  0  0  0  0  0  0  0  0  0
  154.6833  138.9301  160.4983 H   0  0  0  0  0  0  0  0  0  0  0  0
  156.6299  140.0880  159.2993 H   0  0  0  0  0  0  0  0  0  0  0  0
  157.0668  139.1517  161.2129 H   0  0  0  0  0  0  0  0  0  0  0  0
  156.8425  140.8418  161.5735 H   0  0  0  0  0  0  0  0  0  0  0  0
  154.9572  137.7225  162.3903 H   0  0  0  0  0  0  0  0  0  0  0  0
  156.6115  137.5643  162.9571 H   0  0  0  0  0  0  0  0  0  0  0  0
  154.1744  138.2888  164.6813 H   0  0  0  0  0  0  0  0  0  0  0  0
  154.2826  135.8560  164.1230 H   0  0  0  0  0  0  0  0  0  0  0  0
  154.6256  136.1311  165.8283 H   0  0  0  0  0  0  0  0  0  0  0  0
  155.9435  135.7886  164.7109 H   0  0  0  0  0  0  0  0  0  0  0  0
  155.2452  140.2283  165.5189 H   0  0  0  0  0  0  0  0  0  0  0  0
  157.2939  141.3003  166.4710 H   0  0  0  0  0  0  0  0  0  0  0  0
  158.1305  139.7489  166.4284 H   0  0  0  0  0  0  0  0  0  0  0  0
  156.7390  139.9724  167.4850 H   0  0  0  0  0  0  0  0  0  0  0  0
  157.7720  139.6626  163.8715 H   0  0  0  0  0  0  0  0  0  0  0  0
  156.8722  141.1658  163.8897 H   0  0  0  0  0  0  0  0  0  0  0  0
  153.4169  143.7967  160.2157 H   0  0  0  0  0  0  0  0  0  0  0  0
  151.9420  145.3964  158.9776 H   0  0  0  0  0  0  0  0  0  0  0  0
  150.0674  144.5589  157.5761 H   0  0  0  0  0  0  0  0  0  0  0  0
  149.6271  142.0998  157.3799 H   0  0  0  0  0  0  0  0  0  0  0  0
  154.9776  139.9826  163.0498 H   0  0  0  0  0  0  0  0  0  0  0  0
  1  2  1  0  0  0  0
  1 25  1  0  0  0  0
  1 26  1  0  0  0  0
  1 27  1  0  0  0  0
  2  3  1  0  0  0  0
  2 28  1  0  0  0  0
  2 29  1  0  0  0  0
  3 24  1  0  0  0  0
  3  4  1  0  0  0  0
  4  5  2  0  0  0  0
  4  6  1  0  0  0  0
  6  7  1  0  0  0  0
  6 19  1  0  0  0  0
  7  8  1  0  0  0  0
  7 30  1  0  0  0  0
  7 31  1  0  0  0  0
  8  9  1  0  0  0  0
  8 10  1  0  0  0  0
  8 32  1  0  0  0  0
  9 33  1  0  0  0  0
 10 11  1  0  0  0  0
 10 34  1  0  0  0  0
 10 35  1  0  0  0  0
 11 18  1  0  0  0  0
 11 12  1  0  0  0  0
 11 52  1  0  0  0  0
 12 13  1  0  0  0  0
 12 36  1  0  0  0  0
 12 37  1  0  0  0  0
 13 14  1  0  0  0  0
 13 15  1  0  0  0  0
 13 38  1  0  0  0  0
 14 39  1  0  0  0  0
 14 40  1  0  0  0  0
 14 41  1  0  0  0  0
 15 16  1  0  0  0  0
 16 17  1  0  0  0  0
 16 18  1  0  0  0  0
 16 42  1  0  0  0  0
 17 43  1  0  0  0  0
 17 44  1  0  0  0  0
 17 45  1  0  0  0  0
 18 46  1  0  0  0  0
 18 47  1  0  0  0  0
 19 24  2  0  0  0  0
 19 20  1  0  0  0  0
 20 21  2  0  0  0  0
 20 48  1  0  0  0  0
 21 22  1  0  0  0  0
 21 49  1  0  0  0  0
 22 23  2  0  0  0  0
 22 50  1  0  0  0  0
 23 24  1  0  0  0  0
 23 51  1  0  0  0  0
M  CHG  1  11   1
M  END
> <s_m_source_file>
AV-unprocessed.smi

> <i_m_source_file_index>
1570

> <i_lp_mmshare_version>
43012

> <i_f3d_flags>
0

> <s_epik_input>
W2NIXTFbY0hdW2NIXVtjSF1jKGMxMiluKFtDSDJdW0NIM10pYyg9TyluMltDSDJdW0NASF0oW09IXSlbQ0gyXU4zW0NIMl1bQ0BASF0oW0NIM10pT1tDQEBIXShbQ0gzXSlbQ0gyXTM=

> <s_epik_cmdline>
J2VwaWtfcHl0aG9uJywgJy1waCcsICc3LjAnLCAnLXRuJywgJzgnLCAnLW1hJywgJzIwMCcsICctbWV0YWxfYmluZGluZycsICctaW1hZScsICc8aW5maWxlLm1hZT4nLCAnLW9tYWUnLCAnPG91dGZpbGUubWFlPic=

> <r_epik_Ionization_Penalty>
0.706332

> <r_epik_Ionization_Penalty_Charging>
0.706318

> <r_epik_Ionization_Penalty_Neutral>
1.42224e-05

> <r_epik_State_Penalty>
0.729493

> <r_epik_Charging_Adjusted_Penalty>
1.43581

> <i_epik_Tot_Q>
1

> <i_epik_Tot_abs_Q>
1

> <r_epik_Metal_State_Penalty>
0.729493

> <b_epik_Metal_Only>
0

> <s_lp_Force_Field>
OPLS_2005

> <r_lp_Energy>
52.3817

> <b_lp_Chiralities_Consistent>
1

> <s_lp_Variant>
AV-unprocessed.smi:1570-8

> <Gold.Version>
5.8.1

> <Gold.Id.Protein>
6NUR|6NUR_protein|mol2

> <Gold.PLP.Fitness>
52.5970

> <Gold.PLP.PLP>
-51.1778

> <Gold.PLP.part.hbond>
-1.0000

> <Gold.PLP.part.metal>
0.0000

> <Gold.PLP.part.buried>
-5.6808

> <Gold.PLP.part.nonpolar>
-44.8620

> <Gold.PLP.part.repulsive>
0.0920

> <Gold.PLP.ligand.clash>
0.0000

> <Gold.PLP.ligand.torsion>
0.7226

> <Gold.PLP.Chemscore.Hbond>
0.9280

> <Gold.PLP.Chemscore.CHOScore>
0.0000

> <Gold.PLP.Chemscore.Metal>
0.0000

> <Gold.Chemscore.Hbonds>
donor molecule, donor type, donor heavy atom, donor atom, acceptor molecule, acceptor atom, score
      P1  H  7997  8010       L1     9  0.64

> <Gold.PLP.Chemscore.Internal.Correction>
0.0804

> <Gold.Rescore>
     Score         DG    S(hbond)    S(metal)    S(lipo)     H(rot)  DE(clash)    DE(int)     intcor
     16.95     -18.97       0.99        0.00     133.71       2.13       0.07       1.95       ----

> <Gold.Chemscore.Fitness>
16.9462

> <Gold.Chemscore.DG>
-18.9660

> <Gold.Chemscore.ZeroCoef>
-5.4800

> <Gold.Chemscore.Hbond>
0.9865

> <Gold.Chemscore.Metal>
0.0000

> <Gold.Chemscore.Lipo>
133.7146

> <Gold.Chemscore.Internal_Hbond>
0.0000

> <Gold.Chemscore.DEClash>
0.0696

> <Gold.Chemscore.DEInternal>
1.9502

> <Gold.Chemscore.Rot>
2.1303

> <Gold.Chemscore.Internal.Correction>
   9.000000E+99

> <Gold.Chemscore.Hbonds>
donor molecule, donor type, donor heavy atom, donor atom, acceptor molecule, acceptor atom, score
      P1  H  7997  8010       L1     9  0.07

> <Gold.Chemscore.Hbond.Weighted>
-3.2949

> <Gold.Chemscore.Metal.Weighted>
-0.0000

> <Gold.Chemscore.Lipo.Weighted>
-15.6446

> <Gold.Chemscore.Internal_Hbond.Weighted>
0.0000

> <Gold.Chemscore.DEClash.Weighted>
0.0696

> <Gold.Chemscore.DEInternal.Weighted>
1.9502

> <Gold.Chemscore.Rot.Weighted>
5.4535

> <Gold.Chemscore.Internal.Correction.Weighted>
   9.000000E+99

> <Gold.Protein.RotatedTorsions>
[ 6907 6896 6895 6894 ] final   15.29 input  -60.11 | X-H torsion
[ 7974 7965 7964 7962 ] final -130.67 input  175.53 | X-H torsion
[ 8008 7997 7996 7995 ] final  -27.44 input   59.86 | X-H torsion
[ 10167 10162 10161 10158 ] final   45.01 input  -65.29 | X-H torsion
[ 10718 10713 10712 10709 ] final -108.94 input   66.30 | X-H torsion
[ 10763 10752 10751 10750 ] final  -49.86 input  -60.55 | X-H torsion
[ 11005 11000 10999 10996 ] final  175.94 input  -57.11 | X-H torsion

> <Gold.Protein.ActiveResidues>
 VAL166  LYS551  ARG553  GLY616  TRP617  ASP618  TYR619  PRO620  LYS621  CYS622 
 ASP623  PHE694  ASN695  SER759  ASP760  ASP761  ALA762  ILE779  LEU786  VAL792 
 PHE793  MET794  SER795  GLU796  ALA797  LYS798  CYS799  TRP800  GLU811  SER814 

> <Gold.Protein.RotatedAtoms>
  151.8157  135.0667  160.0418 H   0  0  0  0  0  0  0  0  0  0  0  0  # atno 6907 bound_to 6896
  152.2988  133.5630  159.5613 H   0  0  0  0  0  0  0  0  0  0  0  0  # atno 6908 bound_to 6896
  150.7263  134.0238  159.3752 H   0  0  0  0  0  0  0  0  0  0  0  0  # atno 6909 bound_to 6896
  144.9452  140.7283  143.4822 H   0  0  0  0  0  0  0  0  0  0  0  0  # atno 7974 bound_to 7965
  154.4377  140.1872  156.0932 H   0  0  0  0  0  0  0  0  0  0  0  0  # atno 8008 bound_to 7997
  156.0349  140.3326  155.7154 H   0  0  0  0  0  0  0  0  0  0  0  0  # atno 8009 bound_to 7997
  155.5784  140.0619  157.2780 H   0  0  0  0  0  0  0  0  0  0  0  0  # atno 8010 bound_to 7997
  140.3285  144.2618  150.6171 H   0  0  0  0  0  0  0  0  0  0  0  0  # atno 10167 bound_to 10162
  156.0511  130.5738  150.8031 H   0  0  0  0  0  0  0  0  0  0  0  0  # atno 10718 bound_to 10713
  154.1010  135.6563  153.4868 H   0  0  0  0  0  0  0  0  0  0  0  0  # atno 10763 bound_to 10752
  153.0289  135.5225  154.7287 H   0  0  0  0  0  0  0  0  0  0  0  0  # atno 10764 bound_to 10752
  154.6439  135.2992  155.0039 H   0  0  0  0  0  0  0  0  0  0  0  0  # atno 10765 bound_to 10752
  140.3677  134.7057  157.4372 H   0  0  0  0  0  0  0  0  0  0  0  0  # atno 11005 bound_to 11000
  145.2929  139.1877  143.4731 LP  0  0  0  0  0  0  0  0  0  0  0  0  # atno 17320 bound_to 7965
  146.3301  140.2908  142.8615 LP  0  0  0  0  0  0  0  0  0  0  0  0  # atno 17321 bound_to 7965
  140.5419  143.2222  151.8071 LP  0  0  0  0  0  0  0  0  0  0  0  0  # atno 17342 bound_to 10162
  139.4861  144.4589  151.9564 LP  0  0  0  0  0  0  0  0  0  0  0  0  # atno 17343 bound_to 10162
  157.5438  131.0941  150.9790 LP  0  0  0  0  0  0  0  0  0  0  0  0  # atno 17370 bound_to 10713
  157.0067  130.5620  149.5316 LP  0  0  0  0  0  0  0  0  0  0  0  0  # atno 17371 bound_to 10713
  140.0576  134.6041  155.8786 LP  0  0  0  0  0  0  0  0  0  0  0  0  # atno 17394 bound_to 11000
  141.1964  133.6591  156.5691 LP  0  0  0  0  0  0  0  0  0  0  0  0  # atno 17395 bound_to 11000

$$$$
