AV-unprocessed.smi:290|AV-procd|sdf|2215|dock10
  -GOLD-   2262022 53D 1   1.00000     0.00000
 Structure written by MMmdl.
 59 62  0  0  0  0  0  0  0  0  2 V2000
  146.0718  129.7787  152.0346 C   0  0  0  0  0  0  0  0  0  0  0  0
  145.4661  131.1752  151.8288 C   0  0  2  0  0  0  0  0  0  0  0  0
  145.7203  131.6478  150.5085 O   0  0  0  0  0  0  0  0  0  0  0  0
  145.8930  133.0625  150.5169 C   0  0  0  0  0  0  0  0  0  0  0  0
  145.5735  133.5105  151.9402 C   0  0  0  0  0  0  0  0  0  0  0  0
  145.9627  132.2910  152.7674 C   0  0  1  0  0  0  0  0  0  0  0  0
  145.2152  132.2916  153.9697 O   0  0  0  0  0  0  0  0  0  0  0  0
  147.4778  132.2127  153.0991 C   0  0  0  0  0  0  0  0  0  0  0  0
  147.9346  133.2546  154.0051 N   0  0  0  0  0  0  0  0  0  0  0  0
  147.6453  134.5987  153.9322 C   0  0  0  0  0  0  0  0  0  0  0  0
  148.1771  135.3344  154.8700 N   0  0  0  0  0  0  0  0  0  0  0  0
  148.8843  134.4278  155.6505 C   0  0  0  0  0  0  0  0  0  0  0  0
  149.6909  134.5354  156.8185 C   0  0  0  0  0  0  0  0  0  0  0  0
  149.9555  135.6873  157.4708 N   0  0  0  0  0  0  0  0  0  0  0  0
  148.7750  136.3890  157.9702 C   0  0  0  0  0  0  0  0  0  0  0  0
  149.1040  137.8822  157.9035 C   0  0  0  0  0  0  0  0  0  0  0  0
  150.0359  137.9250  156.6900 C   0  0  1  0  0  0  0  0  0  0  0  0
  150.8048  139.1836  156.4379 N   0  3  1  0  0  0  0  0  0  0  0  0
  151.5082  139.1392  155.1316 C   0  0  0  0  0  0  0  0  0  0  0  0
  150.0451  140.4509  156.6323 C   0  0  0  0  0  0  0  0  0  0  0  0
  150.8493  141.7026  156.2369 C   0  0  0  0  0  0  0  0  0  0  0  0
  150.2358  142.8618  156.7590 O   0  0  0  0  0  0  0  0  0  0  0  0
  150.8622  136.6290  156.8138 C   0  0  1  0  0  0  0  0  0  0  0  0
  152.1680  136.7239  157.6197 C   0  0  0  0  0  0  0  0  0  0  0  0
  150.2255  133.4009  157.3312 N   0  0  0  0  0  0  0  0  0  0  0  0
  149.9997  132.2272  156.7327 C   0  0  0  0  0  0  0  0  0  0  0  0
  149.2800  131.9733  155.6374 N   0  0  0  0  0  0  0  0  0  0  0  0
  148.7339  133.1140  155.1259 C   0  0  0  0  0  0  0  0  0  0  0  0
  149.3972  137.7622  155.8198 H   0  0  0  0  0  0  0  0  0  0  0  0
  151.1261  136.2864  155.8121 H   0  0  0  0  0  0  0  0  0  0  0  0
  145.9082  129.4268  153.0535 H   0  0  0  0  0  0  0  0  0  0  0  0
  147.1443  129.7698  151.8408 H   0  0  0  0  0  0  0  0  0  0  0  0
  145.6133  129.0576  151.3578 H   0  0  0  0  0  0  0  0  0  0  0  0
  144.3808  131.0983  151.9182 H   0  0  0  0  0  0  0  0  0  0  0  0
  146.9295  133.2896  150.2652 H   0  0  0  0  0  0  0  0  0  0  0  0
  145.2526  133.5457  149.7786 H   0  0  0  0  0  0  0  0  0  0  0  0
  146.0748  134.4356  152.2221 H   0  0  0  0  0  0  0  0  0  0  0  0
  144.4999  133.6910  152.0183 H   0  0  0  0  0  0  0  0  0  0  0  0
  144.3100  132.4627  153.7592 H   0  0  0  0  0  0  0  0  0  0  0  0
  147.7199  131.2493  153.5498 H   0  0  0  0  0  0  0  0  0  0  0  0
  148.0694  132.2756  152.1851 H   0  0  0  0  0  0  0  0  0  0  0  0
  147.0261  135.0191  153.1531 H   0  0  0  0  0  0  0  0  0  0  0  0
  147.9070  136.1687  157.3462 H   0  0  0  0  0  0  0  0  0  0  0  0
  148.5400  136.0773  158.9882 H   0  0  0  0  0  0  0  0  0  0  0  0
  148.2168  138.5049  157.7860 H   0  0  0  0  0  0  0  0  0  0  0  0
  149.6071  138.1738  158.8247 H   0  0  0  0  0  0  0  0  0  0  0  0
  150.7941  139.1134  154.3074 H   0  0  0  0  0  0  0  0  0  0  0  0
  152.1414  138.2539  155.0612 H   0  0  0  0  0  0  0  0  0  0  0  0
  152.1610  139.9986  154.9898 H   0  0  0  0  0  0  0  0  0  0  0  0
  149.1178  140.4075  156.0593 H   0  0  0  0  0  0  0  0  0  0  0  0
  149.7521  140.5694  157.6735 H   0  0  0  0  0  0  0  0  0  0  0  0
  151.8867  141.6545  156.5652 H   0  0  0  0  0  0  0  0  0  0  0  0
  150.8726  141.7928  155.1506 H   0  0  0  0  0  0  0  0  0  0  0  0
  149.8810  143.3651  156.0414 H   0  0  0  0  0  0  0  0  0  0  0  0
  152.8668  137.4276  157.1694 H   0  0  0  0  0  0  0  0  0  0  0  0
  152.6673  135.7551  157.6527 H   0  0  0  0  0  0  0  0  0  0  0  0
  151.9873  137.0274  158.6508 H   0  0  0  0  0  0  0  0  0  0  0  0
  150.4625  131.3689  157.1972 H   0  0  0  0  0  0  0  0  0  0  0  0
  151.5340  139.1907  157.1375 H   0  0  0  0  0  0  0  0  0  0  0  0
  1  2  1  0  0  0  0
  1 31  1  0  0  0  0
  1 32  1  0  0  0  0
  1 33  1  0  0  0  0
  2  6  1  0  0  0  0
  2  3  1  0  0  0  0
  2 34  1  0  0  0  0
  3  4  1  0  0  0  0
  4  5  1  0  0  0  0
  4 35  1  0  0  0  0
  4 36  1  0  0  0  0
  5  6  1  0  0  0  0
  5 37  1  0  0  0  0
  5 38  1  0  0  0  0
  6  7  1  0  0  0  0
  6  8  1  0  0  0  0
  7 39  1  0  0  0  0
  8  9  1  0  0  0  0
  8 40  1  0  0  0  0
  8 41  1  0  0  0  0
  9 28  1  0  0  0  0
  9 10  1  0  0  0  0
 10 11  2  0  0  0  0
 10 42  1  0  0  0  0
 11 12  1  0  0  0  0
 12 28  2  0  0  0  0
 12 13  1  0  0  0  0
 13 14  1  0  0  0  0
 13 25  2  0  0  0  0
 14 23  1  0  0  0  0
 14 15  1  0  0  0  0
 15 16  1  0  0  0  0
 15 43  1  0  0  0  0
 15 44  1  0  0  0  0
 16 17  1  0  0  0  0
 16 45  1  0  0  0  0
 16 46  1  0  0  0  0
 17 29  1  0  0  0  0
 17 18  1  0  0  0  0
 17 23  1  0  0  0  0
 18 19  1  0  0  0  0
 18 20  1  0  0  0  0
 18 59  1  0  0  0  0
 19 47  1  0  0  0  0
 19 48  1  0  0  0  0
 19 49  1  0  0  0  0
 20 21  1  0  0  0  0
 20 50  1  0  0  0  0
 20 51  1  0  0  0  0
 21 22  1  0  0  0  0
 21 52  1  0  0  0  0
 21 53  1  0  0  0  0
 22 54  1  0  0  0  0
 23 30  1  0  0  0  0
 23 24  1  0  0  0  0
 24 55  1  0  0  0  0
 24 56  1  0  0  0  0
 24 57  1  0  0  0  0
 25 26  1  0  0  0  0
 26 27  2  0  0  0  0
 26 58  1  0  0  0  0
 27 28  1  0  0  0  0
M  CHG  1  18   1
M  END
> <s_m_source_file>
AV-unprocessed.smi

> <i_m_source_file_index>
290

> <i_lp_mmshare_version>
43012

> <i_f3d_flags>
0

> <s_epik_input>
W0NIMl0xW0NIMl1PW0NAQEhdKFtDSDNdKVtDQEBdMShbT0hdKVtDSDJdbihbY0hdbjIpYyhjMjMpbltjSF1uYzNONFtDSDJdW0NIMl1bQ0BIXShbQ0BIXTRbQ0gzXSlOKFtDSDNdKVtDSDJdW0NIMl1bT0hd

> <s_epik_cmdline>
J2VwaWtfcHl0aG9uJywgJy1waCcsICc3LjAnLCAnLXRuJywgJzgnLCAnLW1hJywgJzIwMCcsICctbWV0YWxfYmluZGluZycsICctaW1hZScsICc8aW5maWxlLm1hZT4nLCAnLW9tYWUnLCAnPG91dGZpbGUubWFlPic=

> <r_lp_tautomer_probability>
1

> <r_epik_Ionization_Penalty>
0.0036983

> <r_epik_Ionization_Penalty_Charging>
0.0032725

> <r_epik_Ionization_Penalty_Neutral>
0.000425798

> <r_epik_State_Penalty>
-0

> <r_epik_Charging_Adjusted_Penalty>
0.0032725

> <i_epik_Tot_Q>
1

> <i_epik_Tot_abs_Q>
1

> <r_epik_Metal_State_Penalty>
-0

> <b_epik_Metal_Only>
0

> <s_lp_Force_Field>
OPLS_2005

> <r_lp_Energy>
65.3188

> <b_lp_Chiralities_Consistent>
1

> <s_lp_Variant>
AV-unprocessed.smi:290-1

> <Gold.Version>
5.8.1

> <Gold.Id.Protein>
6NUR|6NUR_protein|mol2

> <Gold.PLP.Fitness>
43.8321

> <Gold.PLP.PLP>
-36.8045

> <Gold.PLP.part.hbond>
-3.9453

> <Gold.PLP.part.metal>
0.0000

> <Gold.PLP.part.buried>
-5.7547

> <Gold.PLP.part.nonpolar>
-28.4692

> <Gold.PLP.part.repulsive>
0.2929

> <Gold.PLP.ligand.clash>
0.0000

> <Gold.PLP.ligand.torsion>
0.5594

> <Gold.PLP.Chemscore.Hbond>
2.3634

> <Gold.PLP.Chemscore.CHOScore>
0.2334

> <Gold.PLP.Chemscore.Metal>
0.0000

> <Gold.Chemscore.Hbonds>
donor molecule, donor type, donor heavy atom, donor atom, acceptor molecule, acceptor atom, score
      L1  H     7    39       P1 10957  0.49
      L1  H    22    54       P1  8028  0.86
      P1  H  6896  6909       L1    25  0.61
      L1  C    10    42       P1  7948  0.28

> <Gold.PLP.Chemscore.Internal.Correction>
0.3562

> <Gold.Rescore>
     Score         DG    S(hbond)    S(metal)    S(lipo)     H(rot)  DE(clash)    DE(int)     intcor
     11.56     -12.11       2.27        0.00      71.96       3.67       0.02       0.53       ----

> <Gold.Chemscore.Fitness>
11.5574

> <Gold.Chemscore.DG>
-12.1073

> <Gold.Chemscore.ZeroCoef>
-5.4800

> <Gold.Chemscore.Hbond>
2.2733

> <Gold.Chemscore.Metal>
0.0000

> <Gold.Chemscore.Lipo>
71.9567

> <Gold.Chemscore.Internal_Hbond>
0.0000

> <Gold.Chemscore.DEClash>
0.0169

> <Gold.Chemscore.DEInternal>
0.5330

> <Gold.Chemscore.Rot>
3.6658

> <Gold.Chemscore.Internal.Correction>
   9.000000E+99

> <Gold.Chemscore.Hbonds>
donor molecule, donor type, donor heavy atom, donor atom, acceptor molecule, acceptor atom, score
      L1  H     7    39       P1 10957  0.16
      L1  H    22    54       P1  8028  0.85
      P1  H  6896  6909       L1    25  0.56

> <Gold.Chemscore.Hbond.Weighted>
-7.5928

> <Gold.Chemscore.Metal.Weighted>
-0.0000

> <Gold.Chemscore.Lipo.Weighted>
-8.4189

> <Gold.Chemscore.Internal_Hbond.Weighted>
0.0000

> <Gold.Chemscore.DEClash.Weighted>
0.0169

> <Gold.Chemscore.DEInternal.Weighted>
0.5330

> <Gold.Chemscore.Rot.Weighted>
9.3844

> <Gold.Chemscore.Internal.Correction.Weighted>
   9.000000E+99

> <Gold.Protein.RotatedTorsions>
[ 6907 6896 6895 6894 ] final  -34.02 input  -60.11 | X-H torsion
[ 7974 7965 7964 7962 ] final -175.78 input  175.53 | X-H torsion
[ 8008 7997 7996 7995 ] final  -37.01 input   59.86 | X-H torsion
[ 10167 10162 10161 10158 ] final   52.24 input  -65.29 | X-H torsion
[ 10718 10713 10712 10709 ] final   49.55 input   66.30 | X-H torsion
[ 10763 10752 10751 10750 ] final  -16.96 input  -60.55 | X-H torsion
[ 11005 11000 10999 10996 ] final   17.79 input  -57.11 | X-H torsion

> <Gold.Protein.ActiveResidues>
 VAL166  LYS551  ARG553  GLY616  TRP617  ASP618  TYR619  PRO620  LYS621  CYS622 
 ASP623  PHE694  ASN695  SER759  ASP760  ASP761  ALA762  ILE779  LEU786  VAL792 
 PHE793  MET794  SER795  GLU796  ALA797  LYS798  CYS799  TRP800  GLU811  SER814 

> <Gold.Protein.RotatedAtoms>
  151.0581  134.9718  159.8245 H   0  0  0  0  0  0  0  0  0  0  0  0  # atno 6907 bound_to 6896
  152.5391  134.2452  159.8887 H   0  0  0  0  0  0  0  0  0  0  0  0  # atno 6908 bound_to 6896
  151.2471  133.4326  159.2643 H   0  0  0  0  0  0  0  0  0  0  0  0  # atno 6909 bound_to 6896
  144.7127  140.1269  143.6401 H   0  0  0  0  0  0  0  0  0  0  0  0  # atno 7974 bound_to 7965
  154.4062  140.1615  156.2467 H   0  0  0  0  0  0  0  0  0  0  0  0  # atno 8008 bound_to 7997
  155.9155  140.3424  155.6109 H   0  0  0  0  0  0  0  0  0  0  0  0  # atno 8009 bound_to 7997
  155.7285  140.0777  157.2290 H   0  0  0  0  0  0  0  0  0  0  0  0  # atno 8010 bound_to 7997
  140.2535  144.3453  150.6340 H   0  0  0  0  0  0  0  0  0  0  0  0  # atno 10167 bound_to 10162
  157.4798  130.8308  149.8080 H   0  0  0  0  0  0  0  0  0  0  0  0  # atno 10718 bound_to 10713
  153.5665  135.7008  153.5524 H   0  0  0  0  0  0  0  0  0  0  0  0  # atno 10763 bound_to 10752
  153.3383  135.4028  155.1551 H   0  0  0  0  0  0  0  0  0  0  0  0  # atno 10764 bound_to 10752
  154.8640  135.3736  154.5185 H   0  0  0  0  0  0  0  0  0  0  0  0  # atno 10765 bound_to 10752
  140.4320  134.1410  155.7681 H   0  0  0  0  0  0  0  0  0  0  0  0  # atno 11005 bound_to 11000
  145.9321  139.2613  143.1319 LP  0  0  0  0  0  0  0  0  0  0  0  0  # atno 17320 bound_to 7965
  145.9512  140.8907  143.0258 LP  0  0  0  0  0  0  0  0  0  0  0  0  # atno 17321 bound_to 7965
  140.6022  143.2167  151.7050 LP  0  0  0  0  0  0  0  0  0  0  0  0  # atno 17342 bound_to 10162
  139.5039  144.3775  152.0409 LP  0  0  0  0  0  0  0  0  0  0  0  0  # atno 17343 bound_to 10162
  156.0115  130.3831  150.2248 LP  0  0  0  0  0  0  0  0  0  0  0  0  # atno 17370 bound_to 10713
  157.0434  131.0042  151.3276 LP  0  0  0  0  0  0  0  0  0  0  0  0  # atno 17371 bound_to 10713
  141.1741  133.8549  157.1476 LP  0  0  0  0  0  0  0  0  0  0  0  0  # atno 17394 bound_to 11000
  140.0128  134.9981  157.0430 LP  0  0  0  0  0  0  0  0  0  0  0  0  # atno 17395 bound_to 11000

$$$$
