AV-unprocessed.smi:104|AV-procd|sdf|1007|dock8
  -GOLD-   2262018 03D 1   1.00000     0.00000
 Structure written by MMmdl.
 47 49  0  0  0  0  0  0  0  0  1 V2000
  147.6167  134.8860  161.7713 C   0  0  0  0  0  0  0  0  0  0  0  0
  147.8117  136.0387  160.7957 C   0  0  0  0  0  0  0  0  0  0  0  0
  147.6224  137.2071  161.1349 O   0  0  0  0  0  0  0  0  0  0  0  0
  148.2029  135.6204  159.5821 O   0  0  0  0  0  0  0  0  0  0  0  0
  148.4777  136.5693  158.5644 C   0  0  0  0  0  0  0  0  0  0  0  0
  147.1512  137.1141  158.0058 C   0  0  2  0  0  0  0  0  0  0  0  0
  146.6497  136.1633  157.0626 O   0  0  0  0  0  0  0  0  0  0  0  0
  146.6122  136.7087  155.7785 C   0  0  2  0  0  0  0  0  0  0  0  0
  147.0390  135.6784  154.7774 N   0  0  0  0  0  0  0  0  0  0  0  0
  148.2209  134.9764  154.7323 C   0  0  0  0  0  0  0  0  0  0  0  0
  149.5932  135.2278  156.0280 Br  0  0  0  0  0  0  0  0  0  0  0  0
  148.3620  134.1027  153.7757 N   0  0  0  0  0  0  0  0  0  0  0  0
  147.1541  134.1983  153.0960 C   0  0  0  0  0  0  0  0  0  0  0  0
  146.6061  133.5390  151.9668 C   0  0  0  0  0  0  0  0  0  0  0  0
  147.2642  132.5941  151.2814 N   0  0  0  0  0  0  0  0  0  0  0  0
  145.3585  133.8743  151.5630 N   0  0  0  0  0  0  0  0  0  0  0  0
  144.6793  134.8113  152.2317 C   0  0  0  0  0  0  0  0  0  0  0  0
  145.0605  135.5146  153.3003 N   0  0  0  0  0  0  0  0  0  0  0  0
  146.3190  135.1788  153.7084 C   0  0  0  0  0  0  0  0  0  0  0  0
  147.5155  137.9474  155.7849 C   0  0  2  0  0  0  0  0  0  0  0  0
  148.8823  137.6018  155.5582 O   0  0  0  0  0  0  0  0  0  0  0  0
  149.7220  138.4618  154.9562 C   0  0  0  0  0  0  0  0  0  0  0  0
  151.1180  137.8795  154.7840 C   0  0  0  0  0  0  0  0  0  0  0  0
  149.4403  139.5889  154.5502 O   0  0  0  0  0  0  0  0  0  0  0  0
  147.2876  138.4230  157.2068 C   0  0  2  0  0  0  0  0  0  0  0  0
  148.3169  139.3056  157.6409 O   0  0  0  0  0  0  0  0  0  0  0  0
  148.4608  140.5113  157.0659 C   0  0  0  0  0  0  0  0  0  0  0  0
  149.5897  141.3203  157.6900 C   0  0  0  0  0  0  0  0  0  0  0  0
  147.7802  140.9599  156.1437 O   0  0  0  0  0  0  0  0  0  0  0  0
  148.5746  134.4181  161.9986 H   0  0  0  0  0  0  0  0  0  0  0  0
  146.9552  134.1332  161.3424 H   0  0  0  0  0  0  0  0  0  0  0  0
  147.1764  135.2423  162.7028 H   0  0  0  0  0  0  0  0  0  0  0  0
  149.0682  137.3747  159.0017 H   0  0  0  0  0  0  0  0  0  0  0  0
  149.0751  136.1280  157.7664 H   0  0  0  0  0  0  0  0  0  0  0  0
  146.4386  137.2494  158.8200 H   0  0  0  0  0  0  0  0  0  0  0  0
  145.5774  136.9440  155.5280 H   0  0  0  0  0  0  0  0  0  0  0  0
  148.1951  132.3234  151.5647 H   0  0  0  0  0  0  0  0  0  0  0  0
  146.8291  132.1555  150.4827 H   0  0  0  0  0  0  0  0  0  0  0  0
  143.6896  135.0298  151.8584 H   0  0  0  0  0  0  0  0  0  0  0  0
  147.1533  138.6781  155.0603 H   0  0  0  0  0  0  0  0  0  0  0  0
  151.3955  137.2857  155.6551 H   0  0  0  0  0  0  0  0  0  0  0  0
  151.8525  138.6757  154.6616 H   0  0  0  0  0  0  0  0  0  0  0  0
  151.1504  137.2387  153.9028 H   0  0  0  0  0  0  0  0  0  0  0  0
  146.3266  138.9407  157.2231 H   0  0  0  0  0  0  0  0  0  0  0  0
  150.5483  140.8345  157.5081 H   0  0  0  0  0  0  0  0  0  0  0  0
  149.4433  141.4082  158.7667 H   0  0  0  0  0  0  0  0  0  0  0  0
  149.6233  142.3231  157.2638 H   0  0  0  0  0  0  0  0  0  0  0  0
  1  2  1  0  0  0  0
  1 30  1  0  0  0  0
  1 31  1  0  0  0  0
  1 32  1  0  0  0  0
  2  3  2  0  0  0  0
  2  4  1  0  0  0  0
  4  5  1  0  0  0  0
  5  6  1  0  0  0  0
  5 33  1  0  0  0  0
  5 34  1  0  0  0  0
  6 25  1  0  0  0  0
  6  7  1  0  0  0  0
  6 35  1  0  0  0  0
  7  8  1  0  0  0  0
  8  9  1  0  0  0  0
  8 20  1  0  0  0  0
  8 36  1  0  0  0  0
  9 19  1  0  0  0  0
  9 10  1  0  0  0  0
 10 11  1  0  0  0  0
 10 12  2  0  0  0  0
 12 13  1  0  0  0  0
 13 19  2  0  0  0  0
 13 14  1  0  0  0  0
 14 15  1  0  0  0  0
 14 16  2  0  0  0  0
 15 37  1  0  0  0  0
 15 38  1  0  0  0  0
 16 17  1  0  0  0  0
 17 18  2  0  0  0  0
 17 39  1  0  0  0  0
 18 19  1  0  0  0  0
 20 21  1  0  0  0  0
 20 25  1  0  0  0  0
 20 40  1  0  0  0  0
 21 22  1  0  0  0  0
 22 23  1  0  0  0  0
 22 24  2  0  0  0  0
 23 41  1  0  0  0  0
 23 42  1  0  0  0  0
 23 43  1  0  0  0  0
 25 26  1  0  0  0  0
 25 44  1  0  0  0  0
 26 27  1  0  0  0  0
 27 28  1  0  0  0  0
 27 29  2  0  0  0  0
 28 45  1  0  0  0  0
 28 46  1  0  0  0  0
 28 47  1  0  0  0  0
M  END
> <s_m_source_file>
AV-unprocessed.smi

> <i_m_source_file_index>
104

> <i_lp_mmshare_version>
43012

> <i_f3d_flags>
0

> <s_epik_input>
W0NIM11DKD1PKU9bQ0gyXVtDQEBIXTFPW0NASF0oW0NAQEhdKE9DKD1PKVtDSDNdKVtDQEhdMU9DKD1PKVtDSDNdKW4oYyhCciluMiljKGMyMyluW2NIXW5jM1tOSDJd

> <s_epik_cmdline>
J2VwaWtfcHl0aG9uJywgJy1waCcsICc3LjAnLCAnLXRuJywgJzgnLCAnLW1hJywgJzIwMCcsICctbWV0YWxfYmluZGluZycsICctaW1hZScsICc8aW5maWxlLm1hZT4nLCAnLW9tYWUnLCAnPG91dGZpbGUubWFlPic=

> <r_lp_tautomer_probability>
1

> <r_epik_Ionization_Penalty>
7.36622e-05

> <r_epik_Ionization_Penalty_Charging>
0

> <r_epik_Ionization_Penalty_Neutral>
7.36622e-05

> <r_epik_State_Penalty>
-0

> <r_epik_Charging_Adjusted_Penalty>
0

> <i_epik_Tot_Q>
0

> <i_epik_Tot_abs_Q>
0

> <r_epik_Metal_State_Penalty>
-0

> <b_epik_Metal_Only>
0

> <s_epik_Chemistry_Notes>
This compound has an ester and may undergo hydrolysis at high or low pH. This compound contains an acetal/aminal-like group ( X-CH(R)-Y where X, Y are N, S, or O) that may be acid/base labile, releasing an aldehyde.

> <s_lp_Force_Field>
OPLS_2005

> <r_lp_Energy>
19.209

> <b_lp_Chiralities_Consistent>
1

> <s_lp_Variant>
AV-unprocessed.smi:104-15

> <Gold.Version>
5.8.1

> <Gold.Id.Protein>
6NUR|6NUR_protein|mol2

> <Gold.PLP.Fitness>
30.9000

> <Gold.PLP.PLP>
-25.4524

> <Gold.PLP.part.hbond>
-3.0000

> <Gold.PLP.part.metal>
0.0000

> <Gold.PLP.part.buried>
-6.5312

> <Gold.PLP.part.nonpolar>
-16.9566

> <Gold.PLP.part.repulsive>
0.6797

> <Gold.PLP.ligand.clash>
0.0000

> <Gold.PLP.ligand.torsion>
0.7183

> <Gold.PLP.Chemscore.Hbond>
2.1920

> <Gold.PLP.Chemscore.CHOScore>
0.0000

> <Gold.PLP.Chemscore.Metal>
0.0000

> <Gold.Chemscore.Hbonds>
donor molecule, donor type, donor heavy atom, donor atom, acceptor molecule, acceptor atom, score
      L1  H    15    37       P1 10747  0.20
      P1  H  6931  6943       L1     3  0.91
      P1  H  6934  6947       L1     3  0.90

> <Gold.PLP.Chemscore.Internal.Correction>
0.3081

> <Gold.Rescore>
     Score         DG    S(hbond)    S(metal)    S(lipo)     H(rot)  DE(clash)    DE(int)     intcor
      0.34      -5.27       2.17        0.00      30.38       4.31       0.06       4.87       ----

> <Gold.Chemscore.Fitness>
0.3411

> <Gold.Chemscore.DG>
-5.2693

> <Gold.Chemscore.ZeroCoef>
-5.4800

> <Gold.Chemscore.Hbond>
2.1738

> <Gold.Chemscore.Metal>
0.0000

> <Gold.Chemscore.Lipo>
30.3818

> <Gold.Chemscore.Internal_Hbond>
0.0000

> <Gold.Chemscore.DEClash>
0.0610

> <Gold.Chemscore.DEInternal>
4.8672

> <Gold.Chemscore.Rot>
4.3070

> <Gold.Chemscore.Internal.Correction>
   9.000000E+99

> <Gold.Chemscore.Hbonds>
donor molecule, donor type, donor heavy atom, donor atom, acceptor molecule, acceptor atom, score
      L1  H    15    37       P1 10747  0.20
      P1  H  6931  6943       L1     3  0.86
      P1  H  6934  6947       L1     3  0.88

> <Gold.Chemscore.Hbond.Weighted>
-7.2605

> <Gold.Chemscore.Metal.Weighted>
-0.0000

> <Gold.Chemscore.Lipo.Weighted>
-3.5547

> <Gold.Chemscore.Internal_Hbond.Weighted>
0.0000

> <Gold.Chemscore.DEClash.Weighted>
0.0610

> <Gold.Chemscore.DEInternal.Weighted>
4.8672

> <Gold.Chemscore.Rot.Weighted>
11.0259

> <Gold.Chemscore.Internal.Correction.Weighted>
   9.000000E+99

> <Gold.Protein.RotatedTorsions>
[ 6907 6896 6895 6894 ] final  -87.77 input  -60.11 | X-H torsion
[ 7974 7965 7964 7962 ] final  -38.32 input  175.53 | X-H torsion
[ 8008 7997 7996 7995 ] final   87.86 input   59.86 | X-H torsion
[ 10167 10162 10161 10158 ] final -108.78 input  -65.29 | X-H torsion
[ 10718 10713 10712 10709 ] final   41.93 input   66.30 | X-H torsion
[ 10763 10752 10751 10750 ] final  168.60 input  -60.55 | X-H torsion
[ 11005 11000 10999 10996 ] final  167.51 input  -57.11 | X-H torsion

> <Gold.Protein.ActiveResidues>
 VAL166  LYS551  ARG553  GLY616  TRP617  ASP618  TYR619  PRO620  LYS621  CYS622 
 ASP623  PHE694  ASN695  SER759  ASP760  ASP761  ALA762  ILE779  LEU786  VAL792 
 PHE793  MET794  SER795  GLU796  ALA797  LYS798  CYS799  TRP800  GLU811  SER814 

> <Gold.Protein.RotatedAtoms>
  150.6867  134.2845  159.4640 H   0  0  0  0  0  0  0  0  0  0  0  0  # atno 6907 bound_to 6896
  152.0756  134.9502  160.0583 H   0  0  0  0  0  0  0  0  0  0  0  0  # atno 6908 bound_to 6896
  152.0875  133.4149  159.4566 H   0  0  0  0  0  0  0  0  0  0  0  0  # atno 6909 bound_to 6896
  146.0497  140.6498  142.9048 H   0  0  0  0  0  0  0  0  0  0  0  0  # atno 7974 bound_to 7965
  155.9806  140.3377  155.6659 H   0  0  0  0  0  0  0  0  0  0  0  0  # atno 8008 bound_to 7997
  155.6554  140.0710  157.2591 H   0  0  0  0  0  0  0  0  0  0  0  0  # atno 8009 bound_to 7997
  154.4191  140.1718  156.1706 H   0  0  0  0  0  0  0  0  0  0  0  0  # atno 8010 bound_to 7997
  140.1625  143.4109  152.1415 H   0  0  0  0  0  0  0  0  0  0  0  0  # atno 10167 bound_to 10162
  157.3992  130.7850  149.7334 H   0  0  0  0  0  0  0  0  0  0  0  0  # atno 10718 bound_to 10713
  154.3709  135.2753  155.2267 H   0  0  0  0  0  0  0  0  0  0  0  0  # atno 10763 bound_to 10752
  154.4415  135.5953  153.6136 H   0  0  0  0  0  0  0  0  0  0  0  0  # atno 10764 bound_to 10752
  152.9838  135.6020  154.3940 H   0  0  0  0  0  0  0  0  0  0  0  0  # atno 10765 bound_to 10752
  140.2776  134.7776  157.3730 H   0  0  0  0  0  0  0  0  0  0  0  0  # atno 11005 bound_to 11000
  144.7116  140.4059  143.7076 LP  0  0  0  0  0  0  0  0  0  0  0  0  # atno 17320 bound_to 7965
  145.6745  139.1606  143.2735 LP  0  0  0  0  0  0  0  0  0  0  0  0  # atno 17321 bound_to 7965
  139.5375  144.7224  151.4845 LP  0  0  0  0  0  0  0  0  0  0  0  0  # atno 17342 bound_to 10162
  140.6634  143.8450  150.6914 LP  0  0  0  0  0  0  0  0  0  0  0  0  # atno 17343 bound_to 10162
  155.9818  130.4015  150.3449 LP  0  0  0  0  0  0  0  0  0  0  0  0  # atno 17370 bound_to 10713
  157.1574  131.0336  151.2857 LP  0  0  0  0  0  0  0  0  0  0  0  0  # atno 17371 bound_to 10713
  140.1314  134.5090  155.8103 LP  0  0  0  0  0  0  0  0  0  0  0  0  # atno 17394 bound_to 11000
  141.2168  133.6791  156.7046 LP  0  0  0  0  0  0  0  0  0  0  0  0  # atno 17395 bound_to 11000

$$$$
