AV-unprocessed.smi:2085|AV-procd|sdf|8516|dock8
  -GOLD-   2272011233D 1   1.00000     0.00000
 Structure written by MMmdl.
 30 31  0  0  0  0  0  0  0  0  1 V2000
  147.9027  141.0158  153.8066 C   0  0  0  0  0  0  0  0  0  0  0  0
  148.8940  141.3307  154.7788 O   0  0  0  0  0  0  0  0  0  0  0  0
  149.9526  140.4585  154.9485 C   0  0  0  0  0  0  0  0  0  0  0  0
  149.9772  139.3227  154.2066 N   0  0  0  0  0  0  0  0  0  0  0  0
  151.0060  138.4671  154.3745 C   0  0  0  0  0  0  0  0  0  0  0  0
  152.0531  138.6916  155.2865 C   0  0  0  0  0  0  0  0  0  0  0  0
  152.0302  139.8686  156.0574 C   0  0  0  0  0  0  0  0  0  0  0  0
  150.9641  140.7842  155.8825 C   0  0  0  0  0  0  0  0  0  0  0  0
  150.8296  141.9921  156.6224 N   0  0  0  0  0  0  0  0  0  0  0  0
  151.2251  142.2665  157.8796 C   0  0  0  0  0  0  0  0  0  0  0  0
  151.8444  141.4843  158.6004 O   0  0  0  0  0  0  0  0  0  0  0  0
  150.9102  143.6787  158.3951 C   0  0  2  0  0  0  0  0  0  0  0  0
  151.6847  144.7931  157.6781 C   0  0  0  0  0  0  0  0  0  0  0  0
  151.8549  145.8212  158.7738 C   0  0  0  0  0  0  0  0  0  0  0  0
  152.0773  144.9354  159.9926 C   0  0  0  0  0  0  0  0  0  0  0  0
  151.2575  143.7919  159.7782 O   0  0  0  0  0  0  0  0  0  0  0  0
  147.1451  141.7991  153.7983 H   0  0  0  0  0  0  0  0  0  0  0  0
  147.4020  140.0745  154.0370 H   0  0  0  0  0  0  0  0  0  0  0  0
  148.3303  140.9587  152.8045 H   0  0  0  0  0  0  0  0  0  0  0  0
  150.9906  137.5731  153.7689 H   0  0  0  0  0  0  0  0  0  0  0  0
  152.8529  137.9744  155.3969 H   0  0  0  0  0  0  0  0  0  0  0  0
  152.8192  140.0343  156.7740 H   0  0  0  0  0  0  0  0  0  0  0  0
  150.4192  142.7641  156.1162 H   0  0  0  0  0  0  0  0  0  0  0  0
  149.8379  143.8579  158.3070 H   0  0  0  0  0  0  0  0  0  0  0  0
  152.6641  144.4466  157.3425 H   0  0  0  0  0  0  0  0  0  0  0  0
  151.1500  145.1886  156.8140 H   0  0  0  0  0  0  0  0  0  0  0  0
  152.6781  146.5125  158.5913 H   0  0  0  0  0  0  0  0  0  0  0  0
  150.9381  146.4004  158.8913 H   0  0  0  0  0  0  0  0  0  0  0  0
  153.1186  144.6147  160.0445 H   0  0  0  0  0  0  0  0  0  0  0  0
  151.8285  145.4365  160.9281 H   0  0  0  0  0  0  0  0  0  0  0  0
  1  2  1  0  0  0  0
  1 17  1  0  0  0  0
  1 18  1  0  0  0  0
  1 19  1  0  0  0  0
  2  3  1  0  0  0  0
  3  8  1  0  0  0  0
  3  4  2  0  0  0  0
  4  5  1  0  0  0  0
  5  6  2  0  0  0  0
  5 20  1  0  0  0  0
  6  7  1  0  0  0  0
  6 21  1  0  0  0  0
  7  8  2  0  0  0  0
  7 22  1  0  0  0  0
  8  9  1  0  0  0  0
  9 10  1  0  0  0  0
  9 23  1  0  0  0  0
 10 11  2  0  0  0  0
 10 12  1  0  0  0  0
 12 16  1  0  0  0  0
 12 13  1  0  0  0  0
 12 24  1  0  0  0  0
 13 14  1  0  0  0  0
 13 25  1  0  0  0  0
 13 26  1  0  0  0  0
 14 15  1  0  0  0  0
 14 27  1  0  0  0  0
 14 28  1  0  0  0  0
 15 16  1  0  0  0  0
 15 29  1  0  0  0  0
 15 30  1  0  0  0  0
M  END
> <s_m_source_file>
AV-unprocessed.smi

> <i_m_source_file_index>
2085

> <i_lp_mmshare_version>
43012

> <i_f3d_flags>
0

> <s_epik_input>
W0NIM11PYzFuW2NIXVtjSF1bY0hdYzFbTkhdQyg9TylbQ0BASF0yW0NIMl1bQ0gyXVtDSDJdTzI=

> <s_epik_cmdline>
J2VwaWtfcHl0aG9uJywgJy1waCcsICc3LjAnLCAnLXRuJywgJzgnLCAnLW1hJywgJzIwMCcsICctbWV0YWxfYmluZGluZycsICctaW1hZScsICc8aW5maWxlLm1hZT4nLCAnLW9tYWUnLCAnPG91dGZpbGUubWFlPic=

> <r_lp_tautomer_probability>
1

> <r_epik_Ionization_Penalty>
2.59253e-05

> <r_epik_Ionization_Penalty_Charging>
0

> <r_epik_Ionization_Penalty_Neutral>
2.59253e-05

> <r_epik_State_Penalty>
-0

> <r_epik_Charging_Adjusted_Penalty>
0

> <i_epik_Tot_Q>
0

> <i_epik_Tot_abs_Q>
0

> <r_epik_Metal_State_Penalty>
-0

> <b_epik_Metal_Only>
0

> <s_lp_Force_Field>
OPLS_2005

> <r_lp_Energy>
24.0215

> <b_lp_Chiralities_Consistent>
1

> <s_lp_Variant>
AV-unprocessed.smi:2085-1

> <Gold.Version>
5.8.1

> <Gold.Id.Protein>
6NUR|6NUR_protein|mol2

> <Gold.PLP.Fitness>
39.8121

> <Gold.PLP.PLP>
-37.1247

> <Gold.PLP.part.hbond>
-0.5576

> <Gold.PLP.part.metal>
0.0000

> <Gold.PLP.part.buried>
-5.7507

> <Gold.PLP.part.nonpolar>
-31.7604

> <Gold.PLP.part.repulsive>
1.4067

> <Gold.PLP.ligand.clash>
0.0000

> <Gold.PLP.ligand.torsion>
0.3240

> <Gold.PLP.Chemscore.Hbond>
0.0000

> <Gold.PLP.Chemscore.CHOScore>
1.1094

> <Gold.PLP.Chemscore.Metal>
0.0000

> <Gold.Chemscore.Hbonds>
donor molecule, donor type, donor heavy atom, donor atom, acceptor molecule, acceptor atom, score
      L1  C     5    20       P1  7949  0.38

> <Gold.PLP.Chemscore.Internal.Correction>
0.0072

> <Gold.Rescore>
     Score         DG    S(hbond)    S(metal)    S(lipo)     H(rot)  DE(clash)    DE(int)     intcor
     11.53     -12.41       0.00        0.00      86.29       1.24       0.01       0.87       ----

> <Gold.Chemscore.Fitness>
11.5308

> <Gold.Chemscore.DG>
-12.4063

> <Gold.Chemscore.ZeroCoef>
-5.4800

> <Gold.Chemscore.Hbond>
0.0000

> <Gold.Chemscore.Metal>
0.0000

> <Gold.Chemscore.Lipo>
86.2886

> <Gold.Chemscore.Internal_Hbond>
0.0000

> <Gold.Chemscore.DEClash>
0.0082

> <Gold.Chemscore.DEInternal>
0.8673

> <Gold.Chemscore.Rot>
1.2381

> <Gold.Chemscore.Internal.Correction>
   9.000000E+99

> <Gold.Chemscore.Hbonds>
donor molecule, donor type, donor heavy atom, donor atom, acceptor molecule, acceptor atom, score
      L1  H     9    23       P1  8028  0.01

> <Gold.Chemscore.Hbond.Weighted>
-0.0000

> <Gold.Chemscore.Metal.Weighted>
-0.0000

> <Gold.Chemscore.Lipo.Weighted>
-10.0958

> <Gold.Chemscore.Internal_Hbond.Weighted>
0.0000

> <Gold.Chemscore.DEClash.Weighted>
0.0082

> <Gold.Chemscore.DEInternal.Weighted>
0.8673

> <Gold.Chemscore.Rot.Weighted>
3.1694

> <Gold.Chemscore.Internal.Correction.Weighted>
   9.000000E+99

> <Gold.Protein.RotatedTorsions>
[ 6907 6896 6895 6894 ] final  -36.84 input  -60.11 | X-H torsion
[ 7974 7965 7964 7962 ] final -175.66 input  175.53 | X-H torsion
[ 8008 7997 7996 7995 ] final   46.47 input   59.86 | X-H torsion
[ 10167 10162 10161 10158 ] final    4.57 input  -65.29 | X-H torsion
[ 10718 10713 10712 10709 ] final  -73.61 input   66.30 | X-H torsion
[ 10763 10752 10751 10750 ] final  102.81 input  -60.55 | X-H torsion
[ 11005 11000 10999 10996 ] final  106.99 input  -57.11 | X-H torsion

> <Gold.Protein.ActiveResidues>
 VAL166  LYS551  ARG553  GLY616  TRP617  ASP618  TYR619  PRO620  LYS621  CYS622 
 ASP623  PHE694  ASN695  SER759  ASP760  ASP761  ALA762  ILE779  LEU786  VAL792 
 PHE793  MET794  SER795  GLU796  ALA797  LYS798  CYS799  TRP800  GLU811  SER814 

> <Gold.Protein.RotatedAtoms>
  151.0222  134.9477  159.8065 H   0  0  0  0  0  0  0  0  0  0  0  0  # atno 6907 bound_to 6896
  152.5327  134.2889  159.9045 H   0  0  0  0  0  0  0  0  0  0  0  0  # atno 6908 bound_to 6896
  151.2897  133.4129  159.2666 H   0  0  0  0  0  0  0  0  0  0  0  0  # atno 6909 bound_to 6896
  144.7128  140.1288  143.6400 H   0  0  0  0  0  0  0  0  0  0  0  0  # atno 7974 bound_to 7965
  155.3530  140.3414  155.4239 H   0  0  0  0  0  0  0  0  0  0  0  0  # atno 8008 bound_to 7997
  156.1754  140.1645  156.8408 H   0  0  0  0  0  0  0  0  0  0  0  0  # atno 8009 bound_to 7997
  154.5276  140.0752  156.8269 H   0  0  0  0  0  0  0  0  0  0  0  0  # atno 8010 bound_to 7997
  140.6528  143.7502  150.7603 H   0  0  0  0  0  0  0  0  0  0  0  0  # atno 10167 bound_to 10162
  156.0273  130.4398  150.2768 H   0  0  0  0  0  0  0  0  0  0  0  0  # atno 10718 bound_to 10713
  153.3444  135.3998  155.1597 H   0  0  0  0  0  0  0  0  0  0  0  0  # atno 10763 bound_to 10752
  154.8650  135.3641  154.5303 H   0  0  0  0  0  0  0  0  0  0  0  0  # atno 10764 bound_to 10752
  153.5751  135.7078  153.5547 H   0  0  0  0  0  0  0  0  0  0  0  0  # atno 10765 bound_to 10752
  139.8822  134.9387  156.5751 H   0  0  0  0  0  0  0  0  0  0  0  0  # atno 11005 bound_to 11000
  145.9305  139.2603  143.1328 LP  0  0  0  0  0  0  0  0  0  0  0  0  # atno 17320 bound_to 7965
  145.9527  140.8896  143.0251 LP  0  0  0  0  0  0  0  0  0  0  0  0  # atno 17321 bound_to 7965
  140.1156  143.4658  152.2344 LP  0  0  0  0  0  0  0  0  0  0  0  0  # atno 17342 bound_to 10162
  139.5745  144.7480  151.3801 LP  0  0  0  0  0  0  0  0  0  0  0  0  # atno 17343 bound_to 10162
  157.0872  131.0159  151.3135 LP  0  0  0  0  0  0  0  0  0  0  0  0  # atno 17370 bound_to 10713
  157.4882  130.7806  149.7481 LP  0  0  0  0  0  0  0  0  0  0  0  0  # atno 17371 bound_to 10713
  140.8069  133.8460  155.8775 LP  0  0  0  0  0  0  0  0  0  0  0  0  # atno 17394 bound_to 11000
  140.9542  134.1740  157.4705 LP  0  0  0  0  0  0  0  0  0  0  0  0  # atno 17395 bound_to 11000

$$$$
