AV-unprocessed.smi:311|AV-procd|sdf|2304|dock10
  -GOLD-   2262022203D 1   1.00000     0.00000
 Structure written by MMmdl.
 44 46  0  0  0  0  0  0  0  0  2 V2000
  151.0799  131.1754  156.1122 C   0  0  0  0  0  0  0  0  0  0  0  0
  150.3995  132.5044  156.2752 C   0  0  0  0  0  0  0  0  0  0  0  0
  150.3587  133.0753  157.4670 N   0  0  0  0  0  0  0  0  0  0  0  0
  149.6795  134.2844  157.2897 O   0  0  0  0  0  0  0  0  0  0  0  0
  149.3387  134.3982  155.9810 C   0  0  0  0  0  0  0  0  0  0  0  0
  148.6093  135.6382  155.5881 C   0  0  0  0  0  0  0  0  0  0  0  0
  149.7657  133.3036  155.2802 C   0  0  0  0  0  0  0  0  0  0  0  0
  149.6226  133.0079  153.8086 C   0  0  0  0  0  0  0  0  0  0  0  0
  148.1397  132.9885  153.4413 C   0  0  0  0  0  0  0  0  0  0  0  0
  147.4427  132.0195  153.7407 O   0  0  0  0  0  0  0  0  0  0  0  0
  147.6804  134.0522  152.7641 N   0  0  0  0  0  0  0  0  0  0  0  0
  146.3367  134.1818  152.2106 C   0  0  1  0  0  0  0  0  0  0  0  0
  145.8302  135.6304  152.1928 C   0  0  0  0  0  0  0  0  0  0  0  0
  145.0344  135.7686  150.8791 C   0  0  0  0  0  0  0  0  0  0  0  0
  145.0505  134.4385  150.2268 N   0  3  2  0  0  0  0  0  0  0  0  0
  143.7966  133.6757  150.4800 C   0  0  0  0  0  0  0  0  0  0  0  0
  143.9009  132.2170  150.0156 C   0  0  0  0  0  0  0  0  0  0  0  0
  145.0764  131.5231  150.7086 C   0  0  0  0  0  0  0  0  0  0  0  0
  146.3693  132.2809  150.3926 C   0  0  0  0  0  0  0  0  0  0  0  0
  146.2844  133.7875  150.7288 C   0  0  2  0  0  0  0  0  0  0  0  0
  150.5358  130.5392  155.4139 H   0  0  0  0  0  0  0  0  0  0  0  0
  151.1501  130.6394  157.0594 H   0  0  0  0  0  0  0  0  0  0  0  0
  152.0910  131.3023  155.7248 H   0  0  0  0  0  0  0  0  0  0  0  0
  148.8031  135.8922  154.5458 H   0  0  0  0  0  0  0  0  0  0  0  0
  148.9196  136.4839  156.2025 H   0  0  0  0  0  0  0  0  0  0  0  0
  147.5342  135.5073  155.7113 H   0  0  0  0  0  0  0  0  0  0  0  0
  150.1331  133.7580  153.2034 H   0  0  0  0  0  0  0  0  0  0  0  0
  150.0684  132.0489  153.5428 H   0  0  0  0  0  0  0  0  0  0  0  0
  148.3296  134.8008  152.5694 H   0  0  0  0  0  0  0  0  0  0  0  0
  145.6275  133.5796  152.7812 H   0  0  0  0  0  0  0  0  0  0  0  0
  145.2112  135.8401  153.0658 H   0  0  0  0  0  0  0  0  0  0  0  0
  146.6570  136.3425  152.1992 H   0  0  0  0  0  0  0  0  0  0  0  0
  144.0219  136.1403  151.0442 H   0  0  0  0  0  0  0  0  0  0  0  0
  145.5347  136.4801  150.2210 H   0  0  0  0  0  0  0  0  0  0  0  0
  143.5555  133.6982  151.5441 H   0  0  0  0  0  0  0  0  0  0  0  0
  142.9722  134.1694  149.9643 H   0  0  0  0  0  0  0  0  0  0  0  0
  142.9734  131.6886  150.2384 H   0  0  0  0  0  0  0  0  0  0  0  0
  144.0289  132.1782  148.9330 H   0  0  0  0  0  0  0  0  0  0  0  0
  144.9126  131.4880  151.7863 H   0  0  0  0  0  0  0  0  0  0  0  0
  145.1561  130.4891  150.3712 H   0  0  0  0  0  0  0  0  0  0  0  0
  147.2127  131.8194  150.9059 H   0  0  0  0  0  0  0  0  0  0  0  0
  146.5794  132.1744  149.3276 H   0  0  0  0  0  0  0  0  0  0  0  0
  147.1206  134.2783  150.2262 H   0  0  0  0  0  0  0  0  0  0  0  0
  145.1315  134.5567  149.2269 H   0  0  0  0  0  0  0  0  0  0  0  0
  1  2  1  0  0  0  0
  1 21  1  0  0  0  0
  1 22  1  0  0  0  0
  1 23  1  0  0  0  0
  2  7  1  0  0  0  0
  2  3  2  0  0  0  0
  3  4  1  0  0  0  0
  4  5  1  0  0  0  0
  5  6  1  0  0  0  0
  5  7  2  0  0  0  0
  6 24  1  0  0  0  0
  6 25  1  0  0  0  0
  6 26  1  0  0  0  0
  7  8  1  0  0  0  0
  8  9  1  0  0  0  0
  8 27  1  0  0  0  0
  8 28  1  0  0  0  0
  9 10  2  0  0  0  0
  9 11  1  0  0  0  0
 11 12  1  0  0  0  0
 11 29  1  0  0  0  0
 12 20  1  0  0  0  0
 12 13  1  0  0  0  0
 12 30  1  0  0  0  0
 13 14  1  0  0  0  0
 13 31  1  0  0  0  0
 13 32  1  0  0  0  0
 14 15  1  0  0  0  0
 14 33  1  0  0  0  0
 14 34  1  0  0  0  0
 15 20  1  0  0  0  0
 15 16  1  0  0  0  0
 15 44  1  0  0  0  0
 16 17  1  0  0  0  0
 16 35  1  0  0  0  0
 16 36  1  0  0  0  0
 17 18  1  0  0  0  0
 17 37  1  0  0  0  0
 17 38  1  0  0  0  0
 18 19  1  0  0  0  0
 18 39  1  0  0  0  0
 18 40  1  0  0  0  0
 19 20  1  0  0  0  0
 19 41  1  0  0  0  0
 19 42  1  0  0  0  0
 20 43  1  0  0  0  0
M  CHG  1  15   1
M  END
> <s_m_source_file>
AV-unprocessed.smi

> <i_m_source_file_index>
311

> <i_lp_mmshare_version>
43012

> <i_f3d_flags>
0

> <s_epik_input>
W0NIM11jMW5vYyhbQ0gzXSljMVtDSDJdQyg9TylbTkhdW0NASF0oW0NIMl1bQ0gyXTIpW0NAQEhdKE4yMylbQ0gyXVtDSDJdW0NIMl1bQ0gyXTM=

> <s_epik_cmdline>
J2VwaWtfcHl0aG9uJywgJy1waCcsICc3LjAnLCAnLXRuJywgJzgnLCAnLW1hJywgJzIwMCcsICctbWV0YWxfYmluZGluZycsICctaW1hZScsICc8aW5maWxlLm1hZT4nLCAnLW9tYWUnLCAnPG91dGZpbGUubWFlPic=

> <r_epik_Ionization_Penalty>
0.00173669

> <r_epik_Ionization_Penalty_Charging>
0.0017366

> <r_epik_Ionization_Penalty_Neutral>
9.2145e-08

> <r_epik_State_Penalty>
0.00117499

> <r_epik_Charging_Adjusted_Penalty>
0.00291159

> <i_epik_Tot_Q>
1

> <i_epik_Tot_abs_Q>
1

> <r_epik_Metal_State_Penalty>
-0

> <b_epik_Metal_Only>
0

> <s_lp_Force_Field>
OPLS_2005

> <r_lp_Energy>
30.3664

> <b_lp_Chiralities_Consistent>
1

> <s_lp_Variant>
AV-unprocessed.smi:311-8

> <Gold.Version>
5.8.1

> <Gold.Id.Protein>
6NUR|6NUR_protein|mol2

> <Gold.PLP.Fitness>
42.0572

> <Gold.PLP.PLP>
-34.1491

> <Gold.PLP.part.hbond>
-3.5412

> <Gold.PLP.part.metal>
0.0000

> <Gold.PLP.part.buried>
-1.5615

> <Gold.PLP.part.nonpolar>
-28.7680

> <Gold.PLP.part.repulsive>
0.1162

> <Gold.PLP.ligand.clash>
0.0000

> <Gold.PLP.ligand.torsion>
0.5522

> <Gold.PLP.Chemscore.Hbond>
3.0000

> <Gold.PLP.Chemscore.CHOScore>
0.0000

> <Gold.PLP.Chemscore.Metal>
0.0000

> <Gold.Chemscore.Hbonds>
donor molecule, donor type, donor heavy atom, donor atom, acceptor molecule, acceptor atom, score
      L1  H    11    29       P1  7948  1.00
      L1  H    15    44       P1  7921  1.00
      P1  H  6896  6908       L1     3  0.95

> <Gold.PLP.Chemscore.Internal.Correction>
0.0125

> <Gold.Rescore>
     Score         DG    S(hbond)    S(metal)    S(lipo)     H(rot)  DE(clash)    DE(int)     intcor
     18.74     -20.53       2.51        0.00      86.61       1.36       1.31       0.48       ----

> <Gold.Chemscore.Fitness>
18.7404

> <Gold.Chemscore.DG>
-20.5308

> <Gold.Chemscore.ZeroCoef>
-5.4800

> <Gold.Chemscore.Hbond>
2.5122

> <Gold.Chemscore.Metal>
0.0000

> <Gold.Chemscore.Lipo>
86.6084

> <Gold.Chemscore.Internal_Hbond>
0.0000

> <Gold.Chemscore.DEClash>
1.3054

> <Gold.Chemscore.DEInternal>
0.4850

> <Gold.Chemscore.Rot>
1.3567

> <Gold.Chemscore.Internal.Correction>
   9.000000E+99

> <Gold.Chemscore.Hbonds>
donor molecule, donor type, donor heavy atom, donor atom, acceptor molecule, acceptor atom, score
      L1  H    11    29       P1  7948  0.39
      L1  H    15    44       P1  7921  0.97
      P1  H  6896  6908       L1     3  0.21

> <Gold.Chemscore.Hbond.Weighted>
-8.3907

> <Gold.Chemscore.Metal.Weighted>
-0.0000

> <Gold.Chemscore.Lipo.Weighted>
-10.1332

> <Gold.Chemscore.Internal_Hbond.Weighted>
0.0000

> <Gold.Chemscore.DEClash.Weighted>
1.3054

> <Gold.Chemscore.DEInternal.Weighted>
0.4850

> <Gold.Chemscore.Rot.Weighted>
3.4731

> <Gold.Chemscore.Internal.Correction.Weighted>
   9.000000E+99

> <Gold.Protein.RotatedTorsions>
[ 6907 6896 6895 6894 ] final   89.12 input  -60.11 | X-H torsion
[ 7974 7965 7964 7962 ] final   33.93 input  175.53 | X-H torsion
[ 8008 7997 7996 7995 ] final  -37.07 input   59.86 | X-H torsion
[ 10167 10162 10161 10158 ] final  -27.11 input  -65.29 | X-H torsion
[ 10718 10713 10712 10709 ] final  -25.01 input   66.30 | X-H torsion
[ 10763 10752 10751 10750 ] final  -56.40 input  -60.55 | X-H torsion
[ 11005 11000 10999 10996 ] final   38.55 input  -57.11 | X-H torsion

> <Gold.Protein.ActiveResidues>
 VAL166  LYS551  ARG553  GLY616  TRP617  ASP618  TYR619  PRO620  LYS621  CYS622 
 ASP623  PHE694  ASN695  SER759  ASP760  ASP761  ALA762  ILE779  LEU786  VAL792 
 PHE793  MET794  SER795  GLU796  ALA797  LYS798  CYS799  TRP800  GLU811  SER814 

> <Gold.Protein.RotatedAtoms>
  152.5433  134.2015  159.8713 H   0  0  0  0  0  0  0  0  0  0  0  0  # atno 6907 bound_to 6896
  151.2004  133.4607  159.2603 H   0  0  0  0  0  0  0  0  0  0  0  0  # atno 6908 bound_to 6896
  151.0995  134.9976  159.8497 H   0  0  0  0  0  0  0  0  0  0  0  0  # atno 6909 bound_to 6896
  146.1387  139.6334  142.9177 H   0  0  0  0  0  0  0  0  0  0  0  0  # atno 7974 bound_to 7965
  154.4060  140.1614  156.2477 H   0  0  0  0  0  0  0  0  0  0  0  0  # atno 8008 bound_to 7997
  155.9146  140.3425  155.6103 H   0  0  0  0  0  0  0  0  0  0  0  0  # atno 8009 bound_to 7997
  155.7295  140.0778  157.2286 H   0  0  0  0  0  0  0  0  0  0  0  0  # atno 8010 bound_to 7997
  140.7279  143.4121  151.1088 H   0  0  0  0  0  0  0  0  0  0  0  0  # atno 10167 bound_to 10162
  156.4700  130.4522  149.6875 H   0  0  0  0  0  0  0  0  0  0  0  0  # atno 10718 bound_to 10713
  154.2061  135.6402  153.5101 H   0  0  0  0  0  0  0  0  0  0  0  0  # atno 10763 bound_to 10752
  153.0000  135.5463  154.6264 H   0  0  0  0  0  0  0  0  0  0  0  0  # atno 10764 bound_to 10752
  154.5689  135.2915  155.0820 H   0  0  0  0  0  0  0  0  0  0  0  0  # atno 10765 bound_to 10752
  140.2116  134.3749  155.8046 H   0  0  0  0  0  0  0  0  0  0  0  0  # atno 11005 bound_to 11000
  145.5096  141.0436  143.2495 LP  0  0  0  0  0  0  0  0  0  0  0  0  # atno 17320 bound_to 7965
  144.7769  139.6611  143.7171 LP  0  0  0  0  0  0  0  0  0  0  0  0  # atno 17321 bound_to 7965
  139.7756  143.8430  152.3128 LP  0  0  0  0  0  0  0  0  0  0  0  0  # atno 17342 bound_to 10162
  139.8364  144.7230  150.9386 LP  0  0  0  0  0  0  0  0  0  0  0  0  # atno 17343 bound_to 10162
  156.3628  130.7490  151.2464 LP  0  0  0  0  0  0  0  0  0  0  0  0  # atno 17370 bound_to 10713
  157.7492  131.0345  150.4321 LP  0  0  0  0  0  0  0  0  0  0  0  0  # atno 17371 bound_to 10713
  141.2226  133.7146  156.8426 LP  0  0  0  0  0  0  0  0  0  0  0  0  # atno 17394 bound_to 11000
  140.1945  134.8941  157.3099 LP  0  0  0  0  0  0  0  0  0  0  0  0  # atno 17395 bound_to 11000

$$$$
