AV-unprocessed.smi:833|AV-procd|sdf|3880|dock8
  -GOLD-   22720 1333D 1   1.00000     0.00000
 Structure written by MMmdl.
 39 40  0  0  0  0  0  0  0  0  1 V2000
  147.1950  139.9363  152.6422 C   0  0  0  0  0  0  0  0  0  0  0  0
  147.6427  141.0925  153.5456 C   0  0  2  0  0  0  0  0  0  0  0  0
  149.0555  141.0921  153.5643 O   0  0  0  0  0  0  0  0  0  0  0  0
  147.1246  140.9288  154.9880 C   0  0  0  0  0  0  0  0  0  0  0  0
  147.6932  141.9270  155.8882 N   0  0  0  0  0  0  0  0  0  0  0  0
  147.3967  142.0493  157.1897 C   0  0  0  0  0  0  0  0  0  0  0  0
  146.5935  141.3224  157.7742 O   0  0  0  0  0  0  0  0  0  0  0  0
  148.0711  143.0699  157.7454 N   0  0  0  0  0  0  0  0  0  0  0  0
  148.0165  143.5486  159.0861 C   0  0  0  0  0  0  0  0  0  0  0  0
  146.8083  143.5724  159.8260 C   0  0  0  0  0  0  0  0  0  0  0  0
  146.8126  144.0745  161.1389 C   0  0  0  0  0  0  0  0  0  0  0  0
  148.0283  144.5341  161.6709 C   0  0  0  0  0  0  0  0  0  0  0  0
  149.1899  144.4999  160.9883 N   0  0  0  0  0  0  0  0  0  0  0  0
  149.2048  144.0046  159.7262 C   0  0  0  0  0  0  0  0  0  0  0  0
  150.4554  143.9699  159.0683 N   0  0  0  0  0  0  0  0  0  0  0  0
  151.1626  145.2079  158.7572 C   0  0  0  0  0  0  0  0  0  0  0  0
  152.5917  144.7768  158.4414 C   0  0  0  0  0  0  0  0  0  0  0  0
  152.8017  143.6180  159.4110 C   0  0  0  0  0  0  0  0  0  0  0  0
  151.4202  142.9597  159.4923 C   0  0  0  0  0  0  0  0  0  0  0  0
  146.1078  139.8970  152.5694 H   0  0  0  0  0  0  0  0  0  0  0  0
  147.5373  138.9745  153.0259 H   0  0  0  0  0  0  0  0  0  0  0  0
  147.5870  140.0521  151.6313 H   0  0  0  0  0  0  0  0  0  0  0  0
  147.2940  142.0310  153.1128 H   0  0  0  0  0  0  0  0  0  0  0  0
  149.3597  140.3139  153.1231 H   0  0  0  0  0  0  0  0  0  0  0  0
  146.0372  141.0225  155.0069 H   0  0  0  0  0  0  0  0  0  0  0  0
  147.3461  139.9313  155.3693 H   0  0  0  0  0  0  0  0  0  0  0  0
  148.3599  142.5712  155.4890 H   0  0  0  0  0  0  0  0  0  0  0  0
  148.6212  143.6317  157.1124 H   0  0  0  0  0  0  0  0  0  0  0  0
  145.8801  143.2076  159.4145 H   0  0  0  0  0  0  0  0  0  0  0  0
  145.9046  144.1078  161.7226 H   0  0  0  0  0  0  0  0  0  0  0  0
  148.0721  144.9321  162.6738 H   0  0  0  0  0  0  0  0  0  0  0  0
  150.7011  145.7292  157.9180 H   0  0  0  0  0  0  0  0  0  0  0  0
  151.1698  145.8792  159.6166 H   0  0  0  0  0  0  0  0  0  0  0  0
  152.6562  144.4188  157.4128 H   0  0  0  0  0  0  0  0  0  0  0  0
  153.3175  145.5803  158.5699 H   0  0  0  0  0  0  0  0  0  0  0  0
  153.5819  142.9281  159.0890 H   0  0  0  0  0  0  0  0  0  0  0  0
  153.0804  144.0078  160.3910 H   0  0  0  0  0  0  0  0  0  0  0  0
  151.2140  142.5892  160.4976 H   0  0  0  0  0  0  0  0  0  0  0  0
  151.3707  142.1163  158.8032 H   0  0  0  0  0  0  0  0  0  0  0  0
  1  2  1  0  0  0  0
  1 20  1  0  0  0  0
  1 21  1  0  0  0  0
  1 22  1  0  0  0  0
  2  3  1  0  0  0  0
  2  4  1  0  0  0  0
  2 23  1  0  0  0  0
  3 24  1  0  0  0  0
  4  5  1  0  0  0  0
  4 25  1  0  0  0  0
  4 26  1  0  0  0  0
  5  6  1  0  0  0  0
  5 27  1  0  0  0  0
  6  7  2  0  0  0  0
  6  8  1  0  0  0  0
  8  9  1  0  0  0  0
  8 28  1  0  0  0  0
  9 14  1  0  0  0  0
  9 10  2  0  0  0  0
 10 11  1  0  0  0  0
 10 29  1  0  0  0  0
 11 12  2  0  0  0  0
 11 30  1  0  0  0  0
 12 13  1  0  0  0  0
 12 31  1  0  0  0  0
 13 14  2  0  0  0  0
 14 15  1  0  0  0  0
 15 19  1  0  0  0  0
 15 16  1  0  0  0  0
 16 17  1  0  0  0  0
 16 32  1  0  0  0  0
 16 33  1  0  0  0  0
 17 18  1  0  0  0  0
 17 34  1  0  0  0  0
 17 35  1  0  0  0  0
 18 19  1  0  0  0  0
 18 36  1  0  0  0  0
 18 37  1  0  0  0  0
 19 38  1  0  0  0  0
 19 39  1  0  0  0  0
M  END
> <s_m_source_file>
AV-unprocessed.smi

> <i_m_source_file_index>
833

> <i_lp_mmshare_version>
43012

> <i_f3d_flags>
0

> <s_epik_input>
W0NIM11bQ0BIXShbT0hdKVtDSDJdW05IXUMoPU8pW05IXWMxW2NIXVtjSF1bY0hdbmMxTjJbQ0gyXVtDSDJdW0NIMl1bQ0gyXTI=

> <s_epik_cmdline>
J2VwaWtfcHl0aG9uJywgJy1waCcsICc3LjAnLCAnLXRuJywgJzgnLCAnLW1hJywgJzIwMCcsICctbWV0YWxfYmluZGluZycsICctaW1hZScsICc8aW5maWxlLm1hZT4nLCAnLW9tYWUnLCAnPG91dGZpbGUubWFlPic=

> <r_lp_tautomer_probability>
1

> <r_epik_Ionization_Penalty>
0.0986749

> <r_epik_Ionization_Penalty_Charging>
0

> <r_epik_Ionization_Penalty_Neutral>
0.0986749

> <r_epik_State_Penalty>
0.0881977

> <r_epik_Charging_Adjusted_Penalty>
0.0881977

> <i_epik_Tot_Q>
0

> <i_epik_Tot_abs_Q>
0

> <r_epik_Metal_State_Penalty>
0.0755487

> <b_epik_Metal_Only>
0

> <s_lp_Force_Field>
OPLS_2005

> <r_lp_Energy>
31.5613

> <b_lp_Chiralities_Consistent>
1

> <s_lp_Variant>
AV-unprocessed.smi:833-1

> <Gold.Version>
5.8.1

> <Gold.Id.Protein>
6NUR|6NUR_protein|mol2

> <Gold.PLP.Fitness>
42.7749

> <Gold.PLP.PLP>
-34.8416

> <Gold.PLP.part.hbond>
-6.3033

> <Gold.PLP.part.metal>
0.0000

> <Gold.PLP.part.buried>
0.6986

> <Gold.PLP.part.nonpolar>
-29.6522

> <Gold.PLP.part.repulsive>
0.4835

> <Gold.PLP.ligand.clash>
0.0000

> <Gold.PLP.ligand.torsion>
0.4762

> <Gold.PLP.Chemscore.Hbond>
2.8588

> <Gold.PLP.Chemscore.CHOScore>
0.0000

> <Gold.PLP.Chemscore.Metal>
0.0000

> <Gold.Chemscore.Hbonds>
donor molecule, donor type, donor heavy atom, donor atom, acceptor molecule, acceptor atom, score
      L1  H     3    24       P1  7957  0.54
      L1  H     5    27       P1  8028  0.43
      L1  H     8    28       P1  8028  0.80
      P1  H  8011  8017       L1     3  0.90

> <Gold.PLP.Chemscore.Internal.Correction>
0.3093

> <Gold.Rescore>
     Score         DG    S(hbond)    S(metal)    S(lipo)     H(rot)  DE(clash)    DE(int)     intcor
     13.22     -16.29       1.77        0.00      86.35       2.03       1.71       1.36       ----

> <Gold.Chemscore.Fitness>
13.2185

> <Gold.Chemscore.DG>
-16.2893

> <Gold.Chemscore.ZeroCoef>
-5.4800

> <Gold.Chemscore.Hbond>
1.7680

> <Gold.Chemscore.Metal>
0.0000

> <Gold.Chemscore.Lipo>
86.3461

> <Gold.Chemscore.Internal_Hbond>
0.0000

> <Gold.Chemscore.DEClash>
1.7077

> <Gold.Chemscore.DEInternal>
1.3631

> <Gold.Chemscore.Rot>
2.0306

> <Gold.Chemscore.Internal.Correction>
   9.000000E+99

> <Gold.Chemscore.Hbonds>
donor molecule, donor type, donor heavy atom, donor atom, acceptor molecule, acceptor atom, score
      L1  H     3    24       P1  7957  0.54
      L1  H     5    27       P1  8028  0.42
      L1  H     8    28       P1  8028  0.12
      P1  H  8011  8017       L1     3  0.14

> <Gold.Chemscore.Hbond.Weighted>
-5.9053

> <Gold.Chemscore.Metal.Weighted>
-0.0000

> <Gold.Chemscore.Lipo.Weighted>
-10.1025

> <Gold.Chemscore.Internal_Hbond.Weighted>
0.0000

> <Gold.Chemscore.DEClash.Weighted>
1.7077

> <Gold.Chemscore.DEInternal.Weighted>
1.3631

> <Gold.Chemscore.Rot.Weighted>
5.1984

> <Gold.Chemscore.Internal.Correction.Weighted>
   9.000000E+99

> <Gold.Protein.RotatedTorsions>
[ 6907 6896 6895 6894 ] final  -80.93 input  -60.11 | X-H torsion
[ 7974 7965 7964 7962 ] final  -80.42 input  175.53 | X-H torsion
[ 8008 7997 7996 7995 ] final -162.99 input   59.86 | X-H torsion
[ 10167 10162 10161 10158 ] final  111.30 input  -65.29 | X-H torsion
[ 10718 10713 10712 10709 ] final   51.09 input   66.30 | X-H torsion
[ 10763 10752 10751 10750 ] final   34.06 input  -60.55 | X-H torsion
[ 11005 11000 10999 10996 ] final  150.93 input  -57.11 | X-H torsion

> <Gold.Protein.ActiveResidues>
 VAL166  LYS551  ARG553  GLY616  TRP617  ASP618  TYR619  PRO620  LYS621  CYS622 
 ASP623  PHE694  ASN695  SER759  ASP760  ASP761  ALA762  ILE779  LEU786  VAL792 
 PHE793  MET794  SER795  GLU796  ALA797  LYS798  CYS799  TRP800  GLU811  SER814 

> <Gold.Protein.RotatedAtoms>
  150.6920  134.3895  159.5069 H   0  0  0  0  0  0  0  0  0  0  0  0  # atno 6907 bound_to 6896
  152.1685  134.8851  160.0545 H   0  0  0  0  0  0  0  0  0  0  0  0  # atno 6908 bound_to 6896
  151.9886  133.3748  159.4172 H   0  0  0  0  0  0  0  0  0  0  0  0  # atno 6909 bound_to 6896
  145.5602  140.9483  143.1451 H   0  0  0  0  0  0  0  0  0  0  0  0  # atno 7974 bound_to 7965
  155.8148  140.0911  157.1883 H   0  0  0  0  0  0  0  0  0  0  0  0  # atno 8008 bound_to 7997
  154.3979  140.1448  156.3489 H   0  0  0  0  0  0  0  0  0  0  0  0  # atno 8009 bound_to 7997
  155.8328  140.3442  155.5585 H   0  0  0  0  0  0  0  0  0  0  0  0  # atno 8010 bound_to 7997
  139.6622  144.7128  151.1845 H   0  0  0  0  0  0  0  0  0  0  0  0  # atno 10167 bound_to 10162
  157.4947  130.8399  149.8245 H   0  0  0  0  0  0  0  0  0  0  0  0  # atno 10718 bound_to 10713
  153.0182  135.6370  154.1610 H   0  0  0  0  0  0  0  0  0  0  0  0  # atno 10763 bound_to 10752
  154.1347  135.2838  155.3178 H   0  0  0  0  0  0  0  0  0  0  0  0  # atno 10764 bound_to 10752
  154.6169  135.5538  153.7594 H   0  0  0  0  0  0  0  0  0  0  0  0  # atno 10765 bound_to 10752
  140.1174  134.8886  157.2023 H   0  0  0  0  0  0  0  0  0  0  0  0  # atno 11005 bound_to 11000
  144.7487  139.7252  143.7282 LP  0  0  0  0  0  0  0  0  0  0  0  0  # atno 17320 bound_to 7965
  146.1856  139.5070  142.9838 LP  0  0  0  0  0  0  0  0  0  0  0  0  # atno 17321 bound_to 7965
  140.7584  143.5977  150.8732 LP  0  0  0  0  0  0  0  0  0  0  0  0  # atno 17342 bound_to 10162
  139.9635  143.6137  152.2995 LP  0  0  0  0  0  0  0  0  0  0  0  0  # atno 17343 bound_to 10162
  156.0194  130.3801  150.2009 LP  0  0  0  0  0  0  0  0  0  0  0  0  # atno 17370 bound_to 10713
  157.0198  130.9976  151.3343 LP  0  0  0  0  0  0  0  0  0  0  0  0  # atno 17371 bound_to 10713
  140.3010  134.3131  155.7290 LP  0  0  0  0  0  0  0  0  0  0  0  0  # atno 17394 bound_to 11000
  141.2144  133.7592  156.9641 LP  0  0  0  0  0  0  0  0  0  0  0  0  # atno 17395 bound_to 11000

$$$$
