AV-unprocessed.smi:701|AV-procd|sdf|3410|dock8
  -GOLD-   22720 0393D 1   1.00000     0.00000
 Structure written by MMmdl.
 49 51  0  0  0  0  0  0  0  0  1 V2000
  150.2878  141.7480  157.9039 C   0  0  0  0  0  0  0  0  0  0  0  0
  150.1357  141.2223  156.4750 C   0  0  0  0  0  0  0  0  0  0  0  0
  148.7899  141.3975  156.0665 O   0  0  0  0  0  0  0  0  0  0  0  0
  148.5363  140.9070  154.7607 C   0  0  2  0  0  0  0  0  0  0  0  0
  147.1218  141.1980  154.2510 C   0  0  0  0  0  0  0  0  0  0  0  0
  147.1921  139.8169  153.6020 C   0  0  2  0  0  0  0  0  0  0  0  0
  145.9156  139.1123  153.6384 N   0  0  0  0  0  0  0  0  0  0  0  0
  145.7793  137.7873  153.4854 C   0  0  0  0  0  0  0  0  0  0  0  0
  146.7335  137.0277  153.3130 O   0  0  0  0  0  0  0  0  0  0  0  0
  144.3496  137.2357  153.5664 C   0  0  0  0  0  0  0  0  0  0  0  0
  144.2290  135.8975  152.9705 N   0  0  0  0  0  0  0  0  0  0  0  0
  144.5362  135.6931  151.6327 C   0  0  0  0  0  0  0  0  0  0  0  0
  144.4318  134.4903  151.0192 C   0  0  0  0  0  0  0  0  0  0  0  0
  143.9772  133.3193  151.7615 C   0  0  0  0  0  0  0  0  0  0  0  0
  143.8515  132.1889  151.2959 O   0  0  0  0  0  0  0  0  0  0  0  0
  143.6765  133.5660  153.1036 N   0  0  0  0  0  0  0  0  0  0  0  0
  143.7798  134.8030  153.7414 C   0  0  0  0  0  0  0  0  0  0  0  0
  143.4839  134.9120  154.9308 O   0  0  0  0  0  0  0  0  0  0  0  0
  148.2088  139.3896  154.6968 C   0  0  0  0  0  0  0  0  0  0  0  0
  147.6216  138.7406  155.9775 C   0  0  0  0  0  0  0  0  0  0  0  0
  148.6712  138.4458  157.0665 C   0  0  0  0  0  0  0  0  0  0  0  0
  149.8293  137.6023  156.5209 C   0  0  0  0  0  0  0  0  0  0  0  0
  150.4267  138.2358  155.2593 C   0  0  0  0  0  0  0  0  0  0  0  0
  149.3414  138.4772  154.1991 C   0  0  0  0  0  0  0  0  0  0  0  0
  143.3556  132.7852  153.6575 H   0  0  0  0  0  0  0  0  0  0  0  0
  151.3128  141.6295  158.2559 H   0  0  0  0  0  0  0  0  0  0  0  0
  149.6334  141.2104  158.5904 H   0  0  0  0  0  0  0  0  0  0  0  0
  150.0347  142.8071  157.9592 H   0  0  0  0  0  0  0  0  0  0  0  0
  150.8098  141.7612  155.8079 H   0  0  0  0  0  0  0  0  0  0  0  0
  150.4057  140.1660  156.4354 H   0  0  0  0  0  0  0  0  0  0  0  0
  149.3083  141.1913  154.0415 H   0  0  0  0  0  0  0  0  0  0  0  0
  146.3822  141.2774  155.0498 H   0  0  0  0  0  0  0  0  0  0  0  0
  147.0525  142.0296  153.5494 H   0  0  0  0  0  0  0  0  0  0  0  0
  147.6409  139.8709  152.6068 H   0  0  0  0  0  0  0  0  0  0  0  0
  145.0851  139.6676  153.7842 H   0  0  0  0  0  0  0  0  0  0  0  0
  144.0574  137.2116  154.6172 H   0  0  0  0  0  0  0  0  0  0  0  0
  143.6495  137.9246  153.0890 H   0  0  0  0  0  0  0  0  0  0  0  0
  144.8722  136.5336  151.0422 H   0  0  0  0  0  0  0  0  0  0  0  0
  144.6840  134.3938  149.9731 H   0  0  0  0  0  0  0  0  0  0  0  0
  146.8414  139.3688  156.4076 H   0  0  0  0  0  0  0  0  0  0  0  0
  147.1305  137.8009  155.7219 H   0  0  0  0  0  0  0  0  0  0  0  0
  149.0640  139.3757  157.4761 H   0  0  0  0  0  0  0  0  0  0  0  0
  148.1999  137.9270  157.9015 H   0  0  0  0  0  0  0  0  0  0  0  0
  150.5996  137.4854  157.2836 H   0  0  0  0  0  0  0  0  0  0  0  0
  149.4692  136.5995  156.2872 H   0  0  0  0  0  0  0  0  0  0  0  0
  150.9082  139.1811  155.5134 H   0  0  0  0  0  0  0  0  0  0  0  0
  151.2059  137.5896  154.8543 H   0  0  0  0  0  0  0  0  0  0  0  0
  148.9317  137.5172  153.8822 H   0  0  0  0  0  0  0  0  0  0  0  0
  149.8068  138.9025  153.3093 H   0  0  0  0  0  0  0  0  0  0  0  0
  1  2  1  0  0  0  0
  1 26  1  0  0  0  0
  1 27  1  0  0  0  0
  1 28  1  0  0  0  0
  2  3  1  0  0  0  0
  2 29  1  0  0  0  0
  2 30  1  0  0  0  0
  3  4  1  0  0  0  0
  4 19  1  0  0  0  0
  4  5  1  0  0  0  0
  4 31  1  0  0  0  0
  5  6  1  0  0  0  0
  5 32  1  0  0  0  0
  5 33  1  0  0  0  0
  6  7  1  0  0  0  0
  6 19  1  0  0  0  0
  6 34  1  0  0  0  0
  7  8  1  0  0  0  0
  7 35  1  0  0  0  0
  8  9  2  0  0  0  0
  8 10  1  0  0  0  0
 10 11  1  0  0  0  0
 10 36  1  0  0  0  0
 10 37  1  0  0  0  0
 11 17  1  0  0  0  0
 11 12  1  0  0  0  0
 12 13  2  0  0  0  0
 12 38  1  0  0  0  0
 13 14  1  0  0  0  0
 13 39  1  0  0  0  0
 14 15  2  0  0  0  0
 14 16  1  0  0  0  0
 16 25  1  0  0  0  0
 16 17  1  0  0  0  0
 17 18  2  0  0  0  0
 19 24  1  0  0  0  0
 19 20  1  0  0  0  0
 20 21  1  0  0  0  0
 20 40  1  0  0  0  0
 20 41  1  0  0  0  0
 21 22  1  0  0  0  0
 21 42  1  0  0  0  0
 21 43  1  0  0  0  0
 22 23  1  0  0  0  0
 22 44  1  0  0  0  0
 22 45  1  0  0  0  0
 23 24  1  0  0  0  0
 23 46  1  0  0  0  0
 23 47  1  0  0  0  0
 24 48  1  0  0  0  0
 24 49  1  0  0  0  0
M  END
> <s_m_source_file>
AV-unprocessed.smi

> <i_m_source_file_index>
701

> <i_lp_mmshare_version>
43012

> <i_f3d_flags>
0

> <s_epik_input>
W0NIMl0xW0NIMl1bQ0gyXVtDSDJdW0NIMl1DMTJbQ0BIXShPW0NIMl1bQ0gzXSlbQ0gyXVtDQEhdMltOSF1DKD1PKVtDSDJdbjNbY0hdW2NIXWMoPU8pW25IXWMzPU8=

> <s_epik_cmdline>
J2VwaWtfcHl0aG9uJywgJy1waCcsICc3LjAnLCAnLXRuJywgJzgnLCAnLW1hJywgJzIwMCcsICctbWV0YWxfYmluZGluZycsICctaW1hZScsICc8aW5maWxlLm1hZT4nLCAnLW9tYWUnLCAnPG91dGZpbGUubWFlPic=

> <r_lp_tautomer_probability>
0.999537

> <r_epik_Ionization_Penalty>
0.00304597

> <r_epik_Ionization_Penalty_Charging>
0.00304595

> <r_epik_Ionization_Penalty_Neutral>
1.88422e-08

> <r_epik_State_Penalty>
0.00214084

> <r_epik_Charging_Adjusted_Penalty>
0.00518679

> <i_epik_Tot_Q>
0

> <i_epik_Tot_abs_Q>
0

> <r_epik_Metal_State_Penalty>
0.361872

> <b_epik_Metal_Only>
0

> <s_lp_Force_Field>
OPLS_2005

> <r_lp_Energy>
27.3359

> <b_lp_Chiralities_Consistent>
1

> <s_lp_Variant>
AV-unprocessed.smi:701-3

> <Gold.Version>
5.8.1

> <Gold.Id.Protein>
6NUR|6NUR_protein|mol2

> <Gold.PLP.Fitness>
37.9734

> <Gold.PLP.PLP>
-29.7511

> <Gold.PLP.part.hbond>
-2.0000

> <Gold.PLP.part.metal>
0.0000

> <Gold.PLP.part.buried>
-1.6821

> <Gold.PLP.part.nonpolar>
-29.5357

> <Gold.PLP.part.repulsive>
3.8134

> <Gold.PLP.ligand.clash>
0.0000

> <Gold.PLP.ligand.torsion>
0.5512

> <Gold.PLP.Chemscore.Hbond>
2.0000

> <Gold.PLP.Chemscore.CHOScore>
1.0000

> <Gold.PLP.Chemscore.Metal>
0.0000

> <Gold.Chemscore.Hbonds>
donor molecule, donor type, donor heavy atom, donor atom, acceptor molecule, acceptor atom, score
      L1  H     7    35       P1 10175  0.58
      L1  H    16    25       P1 10957  1.00
      L1  C    12    38       P1 10171  0.85

> <Gold.PLP.Chemscore.Internal.Correction>
0.3246

> <Gold.Rescore>
     Score         DG    S(hbond)    S(metal)    S(lipo)     H(rot)  DE(clash)    DE(int)     intcor
     12.24     -14.49       1.84        0.00      70.38       2.09       1.72       0.54       ----

> <Gold.Chemscore.Fitness>
12.2396

> <Gold.Chemscore.DG>
-14.4949

> <Gold.Chemscore.ZeroCoef>
-5.4800

> <Gold.Chemscore.Hbond>
1.8381

> <Gold.Chemscore.Metal>
0.0000

> <Gold.Chemscore.Lipo>
70.3807

> <Gold.Chemscore.Internal_Hbond>
0.0000

> <Gold.Chemscore.DEClash>
1.7193

> <Gold.Chemscore.DEInternal>
0.5359

> <Gold.Chemscore.Rot>
2.0933

> <Gold.Chemscore.Internal.Correction>
   9.000000E+99

> <Gold.Chemscore.Hbonds>
donor molecule, donor type, donor heavy atom, donor atom, acceptor molecule, acceptor atom, score
      L1  H     7    35       P1 10175  0.56
      L1  H    16    25       P1 10957  0.82

> <Gold.Chemscore.Hbond.Weighted>
-6.1391

> <Gold.Chemscore.Metal.Weighted>
-0.0000

> <Gold.Chemscore.Lipo.Weighted>
-8.2345

> <Gold.Chemscore.Internal_Hbond.Weighted>
0.0000

> <Gold.Chemscore.DEClash.Weighted>
1.7193

> <Gold.Chemscore.DEInternal.Weighted>
0.5359

> <Gold.Chemscore.Rot.Weighted>
5.3588

> <Gold.Chemscore.Internal.Correction.Weighted>
   9.000000E+99

> <Gold.Protein.RotatedTorsions>
[ 6907 6896 6895 6894 ] final  -33.17 input  -60.11 | X-H torsion
[ 7974 7965 7964 7962 ] final   62.14 input  175.53 | X-H torsion
[ 8008 7997 7996 7995 ] final   27.01 input   59.86 | X-H torsion
[ 10167 10162 10161 10158 ] final  136.67 input  -65.29 | X-H torsion
[ 10718 10713 10712 10709 ] final -137.37 input   66.30 | X-H torsion
[ 10763 10752 10751 10750 ] final -136.23 input  -60.55 | X-H torsion
[ 11005 11000 10999 10996 ] final -125.42 input  -57.11 | X-H torsion

> <Gold.Protein.ActiveResidues>
 VAL166  LYS551  ARG553  GLY616  TRP617  ASP618  TYR619  PRO620  LYS621  CYS622 
 ASP623  PHE694  ASN695  SER759  ASP760  ASP761  ALA762  ILE779  LEU786  VAL792 
 PHE793  MET794  SER795  GLU796  ALA797  LYS798  CYS799  TRP800  GLU811  SER814 

> <Gold.Protein.RotatedAtoms>
  151.0691  134.9787  159.8299 H   0  0  0  0  0  0  0  0  0  0  0  0  # atno 6907 bound_to 6896
  152.5406  134.2321  159.8839 H   0  0  0  0  0  0  0  0  0  0  0  0  # atno 6908 bound_to 6896
  151.2345  133.4389  159.2638 H   0  0  0  0  0  0  0  0  0  0  0  0  # atno 6909 bound_to 6896
  145.8768  139.3415  143.0730 H   0  0  0  0  0  0  0  0  0  0  0  0  # atno 7974 bound_to 7965
  155.0362  140.3164  155.4740 H   0  0  0  0  0  0  0  0  0  0  0  0  # atno 8008 bound_to 7997
  156.2864  140.2171  156.5428 H   0  0  0  0  0  0  0  0  0  0  0  0  # atno 8009 bound_to 7997
  154.7328  140.0480  157.0729 H   0  0  0  0  0  0  0  0  0  0  0  0  # atno 8010 bound_to 7997
  139.5171  144.6452  151.5460 H   0  0  0  0  0  0  0  0  0  0  0  0  # atno 10167 bound_to 10162
  156.2874  130.7355  151.1371 H   0  0  0  0  0  0  0  0  0  0  0  0  # atno 10718 bound_to 10713
  154.8688  135.3679  154.5027 H   0  0  0  0  0  0  0  0  0  0  0  0  # atno 10763 bound_to 10752
  153.5667  135.7021  153.5528 H   0  0  0  0  0  0  0  0  0  0  0  0  # atno 10764 bound_to 10752
  153.3579  135.4054  155.1659 H   0  0  0  0  0  0  0  0  0  0  0  0  # atno 10765 bound_to 10752
  140.9763  134.0736  157.3815 H   0  0  0  0  0  0  0  0  0  0  0  0  # atno 11005 bound_to 11000
  145.9071  140.9204  143.0473 LP  0  0  0  0  0  0  0  0  0  0  0  0  # atno 17320 bound_to 7965
  144.6726  140.1111  143.7455 LP  0  0  0  0  0  0  0  0  0  0  0  0  # atno 17321 bound_to 7965
  140.6234  143.9215  150.6544 LP  0  0  0  0  0  0  0  0  0  0  0  0  # atno 17342 bound_to 10162
  140.2496  143.3603  152.1417 LP  0  0  0  0  0  0  0  0  0  0  0  0  # atno 17343 bound_to 10162
  157.7332  131.0592  150.5587 LP  0  0  0  0  0  0  0  0  0  0  0  0  # atno 17370 bound_to 10713
  156.5699  130.4277  149.6024 LP  0  0  0  0  0  0  0  0  0  0  0  0  # atno 17371 bound_to 10713
  139.8932  135.0129  156.6885 LP  0  0  0  0  0  0  0  0  0  0  0  0  # atno 17394 bound_to 11000
  140.7254  133.9105  155.8175 LP  0  0  0  0  0  0  0  0  0  0  0  0  # atno 17395 bound_to 11000

$$$$
