AV-unprocessed.smi:523|AV-procd|sdf|2804|dock3
  -GOLD-   2262023283D 1   1.00000     0.00000
 Structure written by MMmdl.
 40 42  0  0  0  0  0  0  0  0  2 V2000
  148.6264  140.4379  156.9426 C   0  0  0  0  0  0  0  0  0  0  0  0
  149.2413  141.1574  157.9956 O   0  0  0  0  0  0  0  0  0  0  0  0
  149.6862  142.4422  157.5915 C   0  0  0  0  0  0  0  0  0  0  0  0
  151.1456  142.3572  157.1239 C   0  0  0  0  0  0  0  0  0  0  0  0
  151.8428  141.2151  157.7142 N   0  0  0  0  0  0  0  0  0  0  0  0
  152.4807  141.1321  158.9152 C   0  0  0  0  0  0  0  0  0  0  0  0
  152.5948  142.2183  159.7844 N   0  0  0  0  0  0  0  0  0  0  0  0
  152.5863  143.6333  159.4246 C   0  0  0  0  0  0  0  0  0  0  0  0
  151.6553  144.4280  160.3578 C   0  0  0  0  0  0  0  0  0  0  0  0
  152.1094  144.2838  161.6985 O   0  0  0  0  0  0  0  0  0  0  0  0
  152.1298  142.9202  162.1055 C   0  0  0  0  0  0  0  0  0  0  0  0
  153.0478  142.1147  161.1674 C   0  0  0  0  0  0  0  0  0  0  0  0
  152.9495  139.9184  159.2118 N   0  0  0  0  0  0  0  0  0  0  0  0
  152.6101  139.1700  158.0961 C   0  0  0  0  0  0  0  0  0  0  0  0
  151.9384  139.9232  157.1849 C   0  0  0  0  0  0  0  0  0  0  0  0
  151.4125  139.3912  155.9075 C   0  0  0  0  0  0  0  0  0  0  0  0
  150.7904  140.1092  155.1272 O   0  0  0  0  0  0  0  0  0  0  0  0
  151.7025  138.0618  155.7422 N   0  5  0  0  0  0  0  0  0  0  0  0
  152.3848  137.2640  156.6354 C   0  0  0  0  0  0  0  0  0  0  0  0
  152.5996  136.0722  156.4101 O   0  0  0  0  0  0  0  0  0  0  0  0
  152.8420  137.7966  157.8121 N   0  0  0  0  0  0  0  0  0  0  0  0
  153.5623  136.9707  158.7854 C   0  0  0  0  0  0  0  0  0  0  0  0
  148.3156  139.4573  157.3031 H   0  0  0  0  0  0  0  0  0  0  0  0
  149.3158  140.2886  156.1106 H   0  0  0  0  0  0  0  0  0  0  0  0
  147.7409  140.9583  156.5757 H   0  0  0  0  0  0  0  0  0  0  0  0
  149.0537  142.8203  156.7869 H   0  0  0  0  0  0  0  0  0  0  0  0
  149.6080  143.1423  158.4244 H   0  0  0  0  0  0  0  0  0  0  0  0
  151.1990  142.2904  156.0384 H   0  0  0  0  0  0  0  0  0  0  0  0
  151.6531  143.2837  157.3692 H   0  0  0  0  0  0  0  0  0  0  0  0
  153.6024  144.0221  159.5012 H   0  0  0  0  0  0  0  0  0  0  0  0
  152.3001  143.7642  158.3817 H   0  0  0  0  0  0  0  0  0  0  0  0
  151.6668  145.4849  160.0921 H   0  0  0  0  0  0  0  0  0  0  0  0
  150.6228  144.0857  160.2717 H   0  0  0  0  0  0  0  0  0  0  0  0
  152.4950  142.8626  163.1309 H   0  0  0  0  0  0  0  0  0  0  0  0
  151.1175  142.5138  162.1039 H   0  0  0  0  0  0  0  0  0  0  0  0
  153.0545  141.0679  161.4730 H   0  0  0  0  0  0  0  0  0  0  0  0
  154.0763  142.4705  161.2410 H   0  0  0  0  0  0  0  0  0  0  0  0
  154.4319  136.5007  158.3241 H   0  0  0  0  0  0  0  0  0  0  0  0
  152.9122  136.1838  159.1694 H   0  0  0  0  0  0  0  0  0  0  0  0
  153.9212  137.5444  159.6392 H   0  0  0  0  0  0  0  0  0  0  0  0
  1  2  1  0  0  0  0
  1 23  1  0  0  0  0
  1 24  1  0  0  0  0
  1 25  1  0  0  0  0
  2  3  1  0  0  0  0
  3  4  1  0  0  0  0
  3 26  1  0  0  0  0
  3 27  1  0  0  0  0
  4  5  1  0  0  0  0
  4 28  1  0  0  0  0
  4 29  1  0  0  0  0
  5 15  1  0  0  0  0
  5  6  1  0  0  0  0
  6  7  1  0  0  0  0
  6 13  2  0  0  0  0
  7 12  1  0  0  0  0
  7  8  1  0  0  0  0
  8  9  1  0  0  0  0
  8 30  1  0  0  0  0
  8 31  1  0  0  0  0
  9 10  1  0  0  0  0
  9 32  1  0  0  0  0
  9 33  1  0  0  0  0
 10 11  1  0  0  0  0
 11 12  1  0  0  0  0
 11 34  1  0  0  0  0
 11 35  1  0  0  0  0
 12 36  1  0  0  0  0
 12 37  1  0  0  0  0
 13 14  1  0  0  0  0
 14 21  1  0  0  0  0
 14 15  2  0  0  0  0
 15 16  1  0  0  0  0
 16 17  2  0  0  0  0
 16 18  1  0  0  0  0
 18 19  1  0  0  0  0
 19 20  2  0  0  0  0
 19 21  1  0  0  0  0
 21 22  1  0  0  0  0
 22 38  1  0  0  0  0
 22 39  1  0  0  0  0
 22 40  1  0  0  0  0
M  CHG  1  18  -1
M  END
> <s_m_source_file>
AV-unprocessed.smi

> <i_m_source_file_index>
523

> <i_lp_mmshare_version>
43012

> <i_f3d_flags>
0

> <s_epik_input>
W0NIM11uMWMoPU8pW25IXWMoPU8pYyhjMTIpbihbQ0gyXVtDSDJdT1tDSDNdKWMobjIpTjNbQ0gyXVtDSDJdT1tDSDJdW0NIMl0z

> <s_epik_cmdline>
J2VwaWtfcHl0aG9uJywgJy1waCcsICc3LjAnLCAnLXRuJywgJzgnLCAnLW1hJywgJzIwMCcsICctbWV0YWxfYmluZGluZycsICctaW1hZScsICc8aW5maWxlLm1hZT4nLCAnLW9tYWUnLCAnPG91dGZpbGUubWFlPic=

> <r_lp_tautomer_probability>
1

> <r_epik_Ionization_Penalty>
4.75788

> <r_epik_Ionization_Penalty_Charging>
0.0452179

> <r_epik_Ionization_Penalty_Neutral>
4.71266

> <r_epik_State_Penalty>
4.71244

> <r_epik_Charging_Adjusted_Penalty>
4.75766

> <i_epik_Tot_Q>
-1

> <i_epik_Tot_abs_Q>
1

> <r_epik_Metal_State_Penalty>
0.934872

> <b_epik_Metal_Only>
1

> <s_lp_Force_Field>
OPLS_2005

> <r_lp_Energy>
41.5278

> <b_lp_Chiralities_Consistent>
1

> <s_lp_Variant>
AV-unprocessed.smi:523-2

> <Gold.Version>
5.8.1

> <Gold.Id.Protein>
6NUR|6NUR_protein|mol2

> <Gold.PLP.Fitness>
40.9778

> <Gold.PLP.PLP>
-36.5355

> <Gold.PLP.part.hbond>
-2.0000

> <Gold.PLP.part.metal>
0.0000

> <Gold.PLP.part.buried>
-4.1956

> <Gold.PLP.part.nonpolar>
-31.0180

> <Gold.PLP.part.repulsive>
0.3739

> <Gold.PLP.ligand.clash>
0.0176

> <Gold.PLP.ligand.torsion>
0.9789

> <Gold.PLP.Chemscore.Hbond>
2.0000

> <Gold.PLP.Chemscore.CHOScore>
0.0000

> <Gold.PLP.Chemscore.Metal>
0.0000

> <Gold.Chemscore.Hbonds>
donor molecule, donor type, donor heavy atom, donor atom, acceptor molecule, acceptor atom, score
      P1  H  7989  7998       L1    17  1.00
      P1  H 10752 10765       L1    20  1.00

> <Gold.PLP.Chemscore.Internal.Correction>
0.4179

> <Gold.Rescore>
     Score         DG    S(hbond)    S(metal)    S(lipo)     H(rot)  DE(clash)    DE(int)     intcor
     14.52     -16.72       1.97        0.00      73.00       1.52       0.11       2.09       ----

> <Gold.Chemscore.Fitness>
14.5212

> <Gold.Chemscore.DG>
-16.7233

> <Gold.Chemscore.ZeroCoef>
-5.4800

> <Gold.Chemscore.Hbond>
1.9711

> <Gold.Chemscore.Metal>
0.0000

> <Gold.Chemscore.Lipo>
72.9953

> <Gold.Chemscore.Internal_Hbond>
0.0000

> <Gold.Chemscore.DEClash>
0.1120

> <Gold.Chemscore.DEInternal>
2.0901

> <Gold.Chemscore.Rot>
1.5159

> <Gold.Chemscore.Internal.Correction>
   9.000000E+99

> <Gold.Chemscore.Hbonds>
donor molecule, donor type, donor heavy atom, donor atom, acceptor molecule, acceptor atom, score
      P1  H  7989  7998       L1    17  0.96
      P1  H 10752 10765       L1    20  0.93

> <Gold.Chemscore.Hbond.Weighted>
-6.5834

> <Gold.Chemscore.Metal.Weighted>
-0.0000

> <Gold.Chemscore.Lipo.Weighted>
-8.5404

> <Gold.Chemscore.Internal_Hbond.Weighted>
0.0000

> <Gold.Chemscore.DEClash.Weighted>
0.1120

> <Gold.Chemscore.DEInternal.Weighted>
2.0901

> <Gold.Chemscore.Rot.Weighted>
3.8806

> <Gold.Chemscore.Internal.Correction.Weighted>
   9.000000E+99

> <Gold.Protein.RotatedTorsions>
[ 6907 6896 6895 6894 ] final -120.79 input  -60.11 | X-H torsion
[ 7974 7965 7964 7962 ] final  178.61 input  175.53 | X-H torsion
[ 8008 7997 7996 7995 ] final   69.37 input   59.86 | X-H torsion
[ 10167 10162 10161 10158 ] final   -1.58 input  -65.29 | X-H torsion
[ 10718 10713 10712 10709 ] final  -68.37 input   66.30 | X-H torsion
[ 10763 10752 10751 10750 ] final -133.36 input  -60.55 | X-H torsion
[ 11005 11000 10999 10996 ] final  -69.47 input  -57.11 | X-H torsion

> <Gold.Protein.ActiveResidues>
 VAL166  LYS551  ARG553  GLY616  TRP617  ASP618  TYR619  PRO620  LYS621  CYS622 
 ASP623  PHE694  ASN695  SER759  ASP760  ASP761  ALA762  ILE779  LEU786  VAL792 
 PHE793  MET794  SER795  GLU796  ALA797  LYS798  CYS799  TRP800  GLU811  SER814 

> <Gold.Protein.RotatedAtoms>
  150.8424  133.7914  159.3055 H   0  0  0  0  0  0  0  0  0  0  0  0  # atno 6907 bound_to 6896
  151.5611  135.1064  159.9982 H   0  0  0  0  0  0  0  0  0  0  0  0  # atno 6908 bound_to 6896
  152.4485  133.7541  159.6766 H   0  0  0  0  0  0  0  0  0  0  0  0  # atno 6909 bound_to 6896
  144.7154  140.0424  143.6437 H   0  0  0  0  0  0  0  0  0  0  0  0  # atno 7974 bound_to 7965
  155.7226  140.3493  155.5023 H   0  0  0  0  0  0  0  0  0  0  0  0  # atno 8008 bound_to 7997
  155.9256  140.1075  157.1194 H   0  0  0  0  0  0  0  0  0  0  0  0  # atno 8009 bound_to 7997
  154.4076  140.1241  156.4722 H   0  0  0  0  0  0  0  0  0  0  0  0  # atno 8010 bound_to 7997
  140.6816  143.6758  150.8146 H   0  0  0  0  0  0  0  0  0  0  0  0  # atno 10167 bound_to 10162
  156.0509  130.4293  150.1991 H   0  0  0  0  0  0  0  0  0  0  0  0  # atno 10718 bound_to 10713
  154.8733  135.3768  154.4559 H   0  0  0  0  0  0  0  0  0  0  0  0  # atno 10763 bound_to 10752
  153.5231  135.7028  153.5726 H   0  0  0  0  0  0  0  0  0  0  0  0  # atno 10764 bound_to 10752
  153.3964  135.3959  155.1923 H   0  0  0  0  0  0  0  0  0  0  0  0  # atno 10765 bound_to 10752
  141.1554  133.6765  156.6604 H   0  0  0  0  0  0  0  0  0  0  0  0  # atno 11005 bound_to 11000
  146.0012  139.3093  143.0926 LP  0  0  0  0  0  0  0  0  0  0  0  0  # atno 17320 bound_to 7965
  145.8790  140.9374  143.0611 LP  0  0  0  0  0  0  0  0  0  0  0  0  # atno 17321 bound_to 7965
  140.0459  143.5298  152.2696 LP  0  0  0  0  0  0  0  0  0  0  0  0  # atno 17342 bound_to 10162
  139.6143  144.7616  151.2882 LP  0  0  0  0  0  0  0  0  0  0  0  0  # atno 17343 bound_to 10162
  157.0074  130.9941  151.3375 LP  0  0  0  0  0  0  0  0  0  0  0  0  # atno 17370 bound_to 10713
  157.5433  130.8134  149.8055 LP  0  0  0  0  0  0  0  0  0  0  0  0  # atno 17371 bound_to 10713
  140.3252  134.7975  157.4283 LP  0  0  0  0  0  0  0  0  0  0  0  0  # atno 17394 bound_to 11000
  140.1063  134.5405  155.8306 LP  0  0  0  0  0  0  0  0  0  0  0  0  # atno 17395 bound_to 11000

$$$$
