AV-unprocessed.smi:2594|AV-procd|sdf|10166|dock8
  -GOLD-   2272014183D 1   1.00000     0.00000
 Structure written by MMmdl.
 29 30  0  0  0  0  0  0  0  0  1 V2000
  152.8699  139.5963  155.1058 O   0  0  0  0  0  0  0  0  0  0  0  0
  151.8019  139.1617  155.5403 C   0  0  0  0  0  0  0  0  0  0  0  0
  150.6706  138.7617  154.5840 C   0  0  0  0  0  0  0  0  0  0  0  0
  149.5620  139.7171  154.5820 N   0  0  0  0  0  0  0  0  0  0  0  0
  149.8279  141.0112  154.2576 N   0  0  0  0  0  0  0  0  0  0  0  0
  148.7721  141.7351  154.3143 C   0  0  0  0  0  0  0  0  0  0  0  0
  147.2806  140.9056  154.7781 S   0  0  0  0  0  0  0  0  0  0  0  0
  148.2424  139.4068  154.8996 C   0  0  0  0  0  0  0  0  0  0  0  0
  147.7660  138.3179  155.2160 O   0  0  0  0  0  0  0  0  0  0  0  0
  151.5570  138.9925  156.8483 N   0  0  0  0  0  0  0  0  0  0  0  0
  152.4826  139.3327  157.9226 C   0  0  0  0  0  0  0  0  0  0  0  0
  151.9574  140.5052  158.7679 C   0  0  2  0  0  0  0  0  0  0  0  0
  151.7736  141.7993  157.9800 C   0  0  0  0  0  0  0  0  0  0  0  0
  151.8228  142.8312  159.0838 C   0  0  0  0  0  0  0  0  0  0  0  0
  152.8856  142.2523  160.0155 C   0  0  0  0  0  0  0  0  0  0  0  0
  152.8879  140.8438  159.7924 O   0  0  0  0  0  0  0  0  0  0  0  0
  151.0847  138.6613  153.5796 H   0  0  0  0  0  0  0  0  0  0  0  0
  150.2886  137.7773  154.8599 H   0  0  0  0  0  0  0  0  0  0  0  0
  148.7122  142.8029  154.1045 H   0  0  0  0  0  0  0  0  0  0  0  0
  150.6562  138.6269  157.1211 H   0  0  0  0  0  0  0  0  0  0  0  0
  152.6243  138.4519  158.5493 H   0  0  0  0  0  0  0  0  0  0  0  0
  153.4607  139.5760  157.5045 H   0  0  0  0  0  0  0  0  0  0  0  0
  151.0098  140.2446  159.2426 H   0  0  0  0  0  0  0  0  0  0  0  0
  152.6028  141.9516  157.2875 H   0  0  0  0  0  0  0  0  0  0  0  0
  150.8427  141.8231  157.4127 H   0  0  0  0  0  0  0  0  0  0  0  0
  152.0668  143.8320  158.7268 H   0  0  0  0  0  0  0  0  0  0  0  0
  150.8599  142.8752  159.5949 H   0  0  0  0  0  0  0  0  0  0  0  0
  153.8720  142.6431  159.7635 H   0  0  0  0  0  0  0  0  0  0  0  0
  152.6860  142.4867  161.0611 H   0  0  0  0  0  0  0  0  0  0  0  0
  1  2  2  0  0  0  0
  2  3  1  0  0  0  0
  2 10  1  0  0  0  0
  3  4  1  0  0  0  0
  3 17  1  0  0  0  0
  3 18  1  0  0  0  0
  4  8  1  0  0  0  0
  4  5  1  0  0  0  0
  5  6  2  0  0  0  0
  6  7  1  0  0  0  0
  6 19  1  0  0  0  0
  7  8  1  0  0  0  0
  8  9  2  0  0  0  0
 10 11  1  0  0  0  0
 10 20  1  0  0  0  0
 11 12  1  0  0  0  0
 11 21  1  0  0  0  0
 11 22  1  0  0  0  0
 12 16  1  0  0  0  0
 12 13  1  0  0  0  0
 12 23  1  0  0  0  0
 13 14  1  0  0  0  0
 13 24  1  0  0  0  0
 13 25  1  0  0  0  0
 14 15  1  0  0  0  0
 14 26  1  0  0  0  0
 14 27  1  0  0  0  0
 15 16  1  0  0  0  0
 15 28  1  0  0  0  0
 15 29  1  0  0  0  0
M  END
> <s_m_source_file>
AV-unprocessed.smi

> <i_m_source_file_index>
2594

> <i_lp_mmshare_version>
43012

> <i_f3d_flags>
0

> <s_epik_input>
TzFbQ0gyXVtDSDJdW0NIMl1bQ0BIXTFbQ0gyXVtOSF1DKD1PKVtDSDJdbjJuW2NIXXNjMj1P

> <s_epik_cmdline>
J2VwaWtfcHl0aG9uJywgJy1waCcsICc3LjAnLCAnLXRuJywgJzgnLCAnLW1hJywgJzIwMCcsICctbWV0YWxfYmluZGluZycsICctaW1hZScsICc8aW5maWxlLm1hZT4nLCAnLW9tYWUnLCAnPG91dGZpbGUubWFlPic=

> <r_lp_tautomer_probability>
1

> <r_epik_Ionization_Penalty>
2.49222e-07

> <r_epik_Ionization_Penalty_Charging>
1.4085e-08

> <r_epik_Ionization_Penalty_Neutral>
2.35137e-07

> <r_epik_State_Penalty>
-0

> <r_epik_Charging_Adjusted_Penalty>
1.4085e-08

> <i_epik_Tot_Q>
0

> <i_epik_Tot_abs_Q>
0

> <r_epik_Metal_State_Penalty>
-0

> <b_epik_Metal_Only>
0

> <s_lp_Force_Field>
OPLS_2005

> <r_lp_Energy>
18.2258

> <b_lp_Chiralities_Consistent>
1

> <s_lp_Variant>
AV-unprocessed.smi:2594-1

> <Gold.Version>
5.8.1

> <Gold.Id.Protein>
6NUR|6NUR_protein|mol2

> <Gold.PLP.Fitness>
35.6849

> <Gold.PLP.PLP>
-28.4342

> <Gold.PLP.part.hbond>
-3.3427

> <Gold.PLP.part.metal>
0.0000

> <Gold.PLP.part.buried>
-3.1982

> <Gold.PLP.part.nonpolar>
-22.2887

> <Gold.PLP.part.repulsive>
0.2826

> <Gold.PLP.ligand.clash>
0.0000

> <Gold.PLP.ligand.torsion>
0.1938

> <Gold.PLP.Chemscore.Hbond>
1.5440

> <Gold.PLP.Chemscore.CHOScore>
1.0000

> <Gold.PLP.Chemscore.Metal>
0.0000

> <Gold.Chemscore.Hbonds>
donor molecule, donor type, donor heavy atom, donor atom, acceptor molecule, acceptor atom, score
      P1  H  7989  7998       L1     5  0.53
      P1  H  7997  8010       L1     1  1.00
      L1  C     6    19       P1  8028  1.00

> <Gold.PLP.Chemscore.Internal.Correction>
0.0063

> <Gold.Rescore>
     Score         DG    S(hbond)    S(metal)    S(lipo)     H(rot)  DE(clash)    DE(int)     intcor
     13.80     -14.12       1.87        0.00      64.21       2.00       0.11       0.20       ----

> <Gold.Chemscore.Fitness>
13.8043

> <Gold.Chemscore.DG>
-14.1185

> <Gold.Chemscore.ZeroCoef>
-5.4800

> <Gold.Chemscore.Hbond>
1.8662

> <Gold.Chemscore.Metal>
0.0000

> <Gold.Chemscore.Lipo>
64.2138

> <Gold.Chemscore.Internal_Hbond>
0.0000

> <Gold.Chemscore.DEClash>
0.1107

> <Gold.Chemscore.DEInternal>
0.2035

> <Gold.Chemscore.Rot>
1.9952

> <Gold.Chemscore.Internal.Correction>
   9.000000E+99

> <Gold.Chemscore.Hbonds>
donor molecule, donor type, donor heavy atom, donor atom, acceptor molecule, acceptor atom, score
      P1  H  7989  7998       L1     5  0.20
      P1  H  7997  8010       L1     1  1.00

> <Gold.Chemscore.Hbond.Weighted>
-6.2332

> <Gold.Chemscore.Metal.Weighted>
-0.0000

> <Gold.Chemscore.Lipo.Weighted>
-7.5130

> <Gold.Chemscore.Internal_Hbond.Weighted>
0.0000

> <Gold.Chemscore.DEClash.Weighted>
0.1107

> <Gold.Chemscore.DEInternal.Weighted>
0.2035

> <Gold.Chemscore.Rot.Weighted>
5.1077

> <Gold.Chemscore.Internal.Correction.Weighted>
   9.000000E+99

> <Gold.Protein.RotatedTorsions>
[ 6907 6896 6895 6894 ] final  174.16 input  -60.11 | X-H torsion
[ 7974 7965 7964 7962 ] final  -19.18 input  175.53 | X-H torsion
[ 8008 7997 7996 7995 ] final  103.83 input   59.86 | X-H torsion
[ 10167 10162 10161 10158 ] final  -80.84 input  -65.29 | X-H torsion
[ 10718 10713 10712 10709 ] final  171.27 input   66.30 | X-H torsion
[ 10763 10752 10751 10750 ] final   80.61 input  -60.55 | X-H torsion
[ 11005 11000 10999 10996 ] final -136.40 input  -57.11 | X-H torsion

> <Gold.Protein.ActiveResidues>
 VAL166  LYS551  ARG553  GLY616  TRP617  ASP618  TYR619  PRO620  LYS621  CYS622 
 ASP623  PHE694  ASN695  SER759  ASP760  ASP761  ALA762  ILE779  LEU786  VAL792 
 PHE793  MET794  SER795  GLU796  ALA797  LYS798  CYS799  TRP800  GLU811  SER814 

> <Gold.Protein.RotatedAtoms>
  151.7567  133.3331  159.3406 H   0  0  0  0  0  0  0  0  0  0  0  0  # atno 6907 bound_to 6896
  150.7514  134.6143  159.6112 H   0  0  0  0  0  0  0  0  0  0  0  0  # atno 6908 bound_to 6896
  152.3432  134.7108  160.0309 H   0  0  0  0  0  0  0  0  0  0  0  0  # atno 6909 bound_to 6896
  146.1854  140.4026  142.8478 H   0  0  0  0  0  0  0  0  0  0  0  0  # atno 7974 bound_to 7965
  156.1519  140.3158  155.8662 H   0  0  0  0  0  0  0  0  0  0  0  0  # atno 8008 bound_to 7997
  155.3954  140.0496  157.3056 H   0  0  0  0  0  0  0  0  0  0  0  0  # atno 8009 bound_to 7997
  154.5066  140.2149  155.9250 H   0  0  0  0  0  0  0  0  0  0  0  0  # atno 8010 bound_to 7997
  140.4467  143.2496  151.8548 H   0  0  0  0  0  0  0  0  0  0  0  0  # atno 10167 bound_to 10162
  156.9959  131.0162  151.2844 H   0  0  0  0  0  0  0  0  0  0  0  0  # atno 10718 bound_to 10713
  153.1048  135.4796  154.8931 H   0  0  0  0  0  0  0  0  0  0  0  0  # atno 10763 bound_to 10752
  154.7418  135.3084  154.8718 H   0  0  0  0  0  0  0  0  0  0  0  0  # atno 10764 bound_to 10752
  153.9324  135.6843  153.4799 H   0  0  0  0  0  0  0  0  0  0  0  0  # atno 10765 bound_to 10752
  140.8808  134.1934  157.4592 H   0  0  0  0  0  0  0  0  0  0  0  0  # atno 11005 bound_to 11000
  144.8388  140.6825  143.6243 LP  0  0  0  0  0  0  0  0  0  0  0  0  # atno 17320 bound_to 7965
  145.3953  139.1608  143.4207 LP  0  0  0  0  0  0  0  0  0  0  0  0  # atno 17321 bound_to 7965
  139.4793  144.5167  151.8857 LP  0  0  0  0  0  0  0  0  0  0  0  0  # atno 17342 bound_to 10162
  140.4256  144.2185  150.5887 LP  0  0  0  0  0  0  0  0  0  0  0  0  # atno 17343 bound_to 10162
  157.5425  130.8129  149.8046 LP  0  0  0  0  0  0  0  0  0  0  0  0  # atno 17370 bound_to 10713
  156.0189  130.3803  150.2023 LP  0  0  0  0  0  0  0  0  0  0  0  0  # atno 17371 bound_to 10713
  139.8719  134.9816  156.5124 LP  0  0  0  0  0  0  0  0  0  0  0  0  # atno 17394 bound_to 11000
  140.8463  133.8166  155.9124 LP  0  0  0  0  0  0  0  0  0  0  0  0  # atno 17395 bound_to 11000

$$$$
