AV-unprocessed.smi:62|AV-procd|sdf|606|dock4
  -GOLD-   2262016503D 1   1.00000     0.00000
 Structure written by MMmdl.
 30 31  0  0  0  0  0  0  0  0  2 V2000
  151.9176  144.9823  159.1763 C   0  0  0  0  0  0  0  0  0  0  0  0
  151.9237  143.6330  158.6537 N   0  0  0  0  0  0  0  0  0  0  0  0
  151.2693  143.1339  157.5512 C   0  0  0  0  0  0  0  0  0  0  0  0
  151.5747  141.8054  157.4435 C   0  0  0  0  0  0  0  0  0  0  0  0
  151.0822  140.8690  156.3653 C   0  0  0  0  0  0  0  0  0  0  0  0
  150.0271  141.4602  155.5480 N   0  0  0  0  0  0  0  0  0  0  0  0
  148.7536  141.6041  156.2333 C   0  0  0  0  0  0  0  0  0  0  0  0
  147.6851  141.7487  155.1407 C   0  0  0  0  0  0  0  0  0  0  0  0
  148.3890  141.2638  153.8625 C   0  0  2  0  0  0  0  0  0  0  0  0
  147.6297  140.3132  153.1454 O   0  0  0  0  0  0  0  0  0  0  0  0
  149.7043  140.6753  154.3754 C   0  0  0  0  0  0  0  0  0  0  0  0
  152.4450  141.5807  158.5645 C   0  0  0  0  0  0  0  0  0  0  0  0
  153.0434  140.2326  158.8707 C   0  0  0  0  0  0  0  0  0  0  0  0
  153.1364  139.3664  157.9735 O   0  0  0  0  0  0  0  0  0  0  0  0
  153.4296  140.0188  160.0413 O   0  5  0  0  0  0  0  0  0  0  0  0
  152.6466  142.6833  159.2754 N   0  0  0  0  0  0  0  0  0  0  0  0
  151.1975  145.5919  158.6298 H   0  0  0  0  0  0  0  0  0  0  0  0
  152.9097  145.4221  159.0695 H   0  0  0  0  0  0  0  0  0  0  0  0
  151.6422  144.9698  160.2314 H   0  0  0  0  0  0  0  0  0  0  0  0
  150.6458  143.7608  156.9315 H   0  0  0  0  0  0  0  0  0  0  0  0
  151.9086  140.5686  155.7210 H   0  0  0  0  0  0  0  0  0  0  0  0
  150.7190  139.9393  156.8057 H   0  0  0  0  0  0  0  0  0  0  0  0
  148.5432  140.7087  156.8205 H   0  0  0  0  0  0  0  0  0  0  0  0
  148.7620  142.4533  156.9174 H   0  0  0  0  0  0  0  0  0  0  0  0
  146.8023  141.1566  155.3856 H   0  0  0  0  0  0  0  0  0  0  0  0
  147.3709  142.7873  155.0323 H   0  0  0  0  0  0  0  0  0  0  0  0
  148.5984  142.1168  153.2155 H   0  0  0  0  0  0  0  0  0  0  0  0
  148.1217  140.0522  152.3821 H   0  0  0  0  0  0  0  0  0  0  0  0
  150.4989  140.7191  153.6298 H   0  0  0  0  0  0  0  0  0  0  0  0
  149.5637  139.6298  154.6562 H   0  0  0  0  0  0  0  0  0  0  0  0
  1  2  1  0  0  0  0
  1 17  1  0  0  0  0
  1 18  1  0  0  0  0
  1 19  1  0  0  0  0
  2 16  1  0  0  0  0
  2  3  1  0  0  0  0
  3  4  2  0  0  0  0
  3 20  1  0  0  0  0
  4  5  1  0  0  0  0
  4 12  1  0  0  0  0
  5  6  1  0  0  0  0
  5 21  1  0  0  0  0
  5 22  1  0  0  0  0
  6 11  1  0  0  0  0
  6  7  1  0  0  0  0
  7  8  1  0  0  0  0
  7 23  1  0  0  0  0
  7 24  1  0  0  0  0
  8  9  1  0  0  0  0
  8 25  1  0  0  0  0
  8 26  1  0  0  0  0
  9 10  1  0  0  0  0
  9 11  1  0  0  0  0
  9 27  1  0  0  0  0
 10 28  1  0  0  0  0
 11 29  1  0  0  0  0
 11 30  1  0  0  0  0
 12 13  1  0  0  0  0
 12 16  2  0  0  0  0
 13 14  2  0  0  0  0
 13 15  1  0  0  0  0
M  CHG  1  15  -1
M  END
> <s_m_source_file>
AV-unprocessed.smi

> <i_m_source_file_index>
62

> <i_lp_mmshare_version>
43012

> <i_f3d_flags>
0

> <s_epik_input>
W0NIM11uMVtjSF1jKGMobjEpQyg9TylbT0hdKVtDSDJdTjJbQ0gyXVtDSDJdW0NAQEhdKFtPSF0pW0NIMl0y

> <s_epik_cmdline>
J2VwaWtfcHl0aG9uJywgJy1waCcsICc3LjAnLCAnLXRuJywgJzgnLCAnLW1hJywgJzIwMCcsICctbWV0YWxfYmluZGluZycsICctaW1hZScsICc8aW5maWxlLm1hZT4nLCAnLW9tYWUnLCAnPG91dGZpbGUubWFlPic=

> <r_epik_Ionization_Penalty>
1.46526

> <r_epik_Ionization_Penalty_Charging>
0.000523675

> <r_epik_Ionization_Penalty_Neutral>
1.46474

> <r_epik_State_Penalty>
1.55202

> <r_epik_Charging_Adjusted_Penalty>
1.55254

> <i_epik_Tot_Q>
-1

> <i_epik_Tot_abs_Q>
1

> <r_epik_Metal_State_Penalty>
1.552

> <b_epik_Metal_Only>
0

> <s_lp_Force_Field>
OPLS_2005

> <r_lp_Energy>
37.4103

> <b_lp_Chiralities_Consistent>
1

> <s_lp_Variant>
AV-unprocessed.smi:62-6

> <Gold.Version>
5.8.1

> <Gold.Id.Protein>
6NUR|6NUR_protein|mol2

> <Gold.PLP.Fitness>
42.1088

> <Gold.PLP.PLP>
-30.8035

> <Gold.PLP.part.hbond>
-2.0000

> <Gold.PLP.part.metal>
0.0000

> <Gold.PLP.part.buried>
-2.5947

> <Gold.PLP.part.nonpolar>
-25.3536

> <Gold.PLP.part.repulsive>
0.0948

> <Gold.PLP.ligand.clash>
0.0000

> <Gold.PLP.ligand.torsion>
0.3538

> <Gold.PLP.Chemscore.Hbond>
3.0000

> <Gold.PLP.Chemscore.CHOScore>
1.0000

> <Gold.PLP.Chemscore.Metal>
0.0000

> <Gold.Chemscore.Hbonds>
donor molecule, donor type, donor heavy atom, donor atom, acceptor molecule, acceptor atom, score
      L1  H    10    28       P1  7957  1.00
      P1  H  7997  8009       L1    14  2.00
      L1  C     3    20       P1  8028  1.00

> <Gold.PLP.Chemscore.Internal.Correction>
0.0128

> <Gold.Rescore>
     Score         DG    S(hbond)    S(metal)    S(lipo)     H(rot)  DE(clash)    DE(int)     intcor
     14.39     -15.86       1.96        0.00      71.34       1.77       0.13       1.35       ----

> <Gold.Chemscore.Fitness>
14.3854

> <Gold.Chemscore.DG>
-15.8647

> <Gold.Chemscore.ZeroCoef>
-5.4800

> <Gold.Chemscore.Hbond>
1.9649

> <Gold.Chemscore.Metal>
0.0000

> <Gold.Chemscore.Lipo>
71.3359

> <Gold.Chemscore.Internal_Hbond>
0.0000

> <Gold.Chemscore.DEClash>
0.1334

> <Gold.Chemscore.DEInternal>
1.3459

> <Gold.Chemscore.Rot>
1.7674

> <Gold.Chemscore.Internal.Correction>
   9.000000E+99

> <Gold.Chemscore.Hbonds>
donor molecule, donor type, donor heavy atom, donor atom, acceptor molecule, acceptor atom, score
      L1  H    10    28       P1  7957  0.99
      P1  H  7997  8009       L1    14  0.40

> <Gold.Chemscore.Hbond.Weighted>
-6.5629

> <Gold.Chemscore.Metal.Weighted>
-0.0000

> <Gold.Chemscore.Lipo.Weighted>
-8.3463

> <Gold.Chemscore.Internal_Hbond.Weighted>
0.0000

> <Gold.Chemscore.DEClash.Weighted>
0.1334

> <Gold.Chemscore.DEInternal.Weighted>
1.3459

> <Gold.Chemscore.Rot.Weighted>
4.5245

> <Gold.Chemscore.Internal.Correction.Weighted>
   9.000000E+99

> <Gold.Protein.RotatedTorsions>
[ 6907 6896 6895 6894 ] final -153.10 input  -60.11 | X-H torsion
[ 7974 7965 7964 7962 ] final  -57.46 input  175.53 | X-H torsion
[ 8008 7997 7996 7995 ] final  168.78 input   59.86 | X-H torsion
[ 10167 10162 10161 10158 ] final  -39.35 input  -65.29 | X-H torsion
[ 10718 10713 10712 10709 ] final   43.79 input   66.30 | X-H torsion
[ 10763 10752 10751 10750 ] final -142.27 input  -60.55 | X-H torsion
[ 11005 11000 10999 10996 ] final    6.49 input  -57.11 | X-H torsion

> <Gold.Protein.ActiveResidues>
 VAL166  LYS551  ARG553  GLY616  TRP617  ASP618  TYR619  PRO620  LYS621  CYS622 
 ASP623  PHE694  ASN695  SER759  ASP760  ASP761  ALA762  ILE779  LEU786  VAL792 
 PHE793  MET794  SER795  GLU796  ALA797  LYS798  CYS799  TRP800  GLU811  SER814 

> <Gold.Protein.RotatedAtoms>
  151.2375  133.4417  159.2605 H   0  0  0  0  0  0  0  0  0  0  0  0  # atno 6907 bound_to 6896
  151.0736  134.9814  159.8331 H   0  0  0  0  0  0  0  0  0  0  0  0  # atno 6908 bound_to 6896
  152.5415  134.2319  159.8881 H   0  0  0  0  0  0  0  0  0  0  0  0  # atno 6909 bound_to 6896
  145.8508  140.8354  142.9987 H   0  0  0  0  0  0  0  0  0  0  0  0  # atno 7974 bound_to 7965
  156.1516  140.1581  156.8760 H   0  0  0  0  0  0  0  0  0  0  0  0  # atno 8008 bound_to 7997
  154.5077  140.0809  156.7963 H   0  0  0  0  0  0  0  0  0  0  0  0  # atno 8009 bound_to 7997
  155.3884  140.3408  155.4252 H   0  0  0  0  0  0  0  0  0  0  0  0  # atno 8010 bound_to 7997
  140.7066  143.3219  151.2770 H   0  0  0  0  0  0  0  0  0  0  0  0  # atno 10167 bound_to 10162
  157.4198  130.7962  149.7505 H   0  0  0  0  0  0  0  0  0  0  0  0  # atno 10718 bound_to 10713
  154.8515  135.3500  154.6001 H   0  0  0  0  0  0  0  0  0  0  0  0  # atno 10763 bound_to 10752
  153.6610  135.6989  153.5182 H   0  0  0  0  0  0  0  0  0  0  0  0  # atno 10764 bound_to 10752
  153.2817  135.4261  155.1042 H   0  0  0  0  0  0  0  0  0  0  0  0  # atno 10765 bound_to 10752
  140.5589  134.0212  155.7964 H   0  0  0  0  0  0  0  0  0  0  0  0  # atno 11005 bound_to 11000
  144.6729  140.0950  143.7463 LP  0  0  0  0  0  0  0  0  0  0  0  0  # atno 17320 bound_to 7965
  145.9360  139.2637  143.1297 LP  0  0  0  0  0  0  0  0  0  0  0  0  # atno 17321 bound_to 7965
  139.6676  144.0077  152.2733 LP  0  0  0  0  0  0  0  0  0  0  0  0  # atno 17342 bound_to 10162
  139.9665  144.6523  150.8030 LP  0  0  0  0  0  0  0  0  0  0  0  0  # atno 17343 bound_to 10162
  155.9877  130.3965  150.3154 LP  0  0  0  0  0  0  0  0  0  0  0  0  # atno 17370 bound_to 10713
  157.1300  131.0269  151.2973 LP  0  0  0  0  0  0  0  0  0  0  0  0  # atno 17371 bound_to 10713
  141.1127  133.9591  157.2881 LP  0  0  0  0  0  0  0  0  0  0  0  0  # atno 17394 bound_to 11000
  139.9418  135.0190  156.8731 LP  0  0  0  0  0  0  0  0  0  0  0  0  # atno 17395 bound_to 11000

$$$$
