AV-unprocessed.smi:3116|AV-procd|sdf|11872|dock1
  -GOLD-   2272017253D 1   1.00000     0.00000
 Structure written by MMmdl.
 33 33  0  0  0  0  0  0  0  0  1 V2000
  149.8713  140.9294  157.1326 C   0  0  0  0  0  0  0  0  0  0  0  0
  151.1711  140.1125  157.0715 C   0  0  2  0  0  0  0  0  0  0  0  0
  152.2485  140.8459  157.7574 N   0  0  0  0  0  0  0  0  0  0  0  0
  152.2159  140.7902  159.2198 C   0  0  1  0  0  0  0  0  0  0  0  0
  152.7639  139.4210  159.6601 C   0  0  0  0  0  0  0  0  0  0  0  0
  153.0054  141.9818  159.8247 C   0  0  2  0  0  0  0  0  0  0  0  0
  153.2320  141.8506  161.3420 C   0  0  0  0  0  0  0  0  0  0  0  0
  152.4426  143.2846  159.4789 N   0  0  0  0  0  0  0  0  0  0  0  0
  152.9713  144.2754  158.6744 C   0  0  0  0  0  0  0  0  0  0  0  0
  152.0887  145.3168  158.6710 C   0  0  0  0  0  0  0  0  0  0  0  0
  151.0368  144.8693  159.5169 C   0  0  0  0  0  0  0  0  0  0  0  0
  151.2521  143.6571  160.0005 N   0  0  0  0  0  0  0  0  0  0  0  0
  151.5154  139.7598  155.6154 C   0  0  0  0  0  0  0  0  0  0  0  0
  152.6352  139.0639  155.4039 N   0  0  0  0  0  0  0  0  0  0  0  0
  150.7879  140.1251  154.6936 O   0  0  0  0  0  0  0  0  0  0  0  0
  149.0475  140.4010  156.6509 H   0  0  0  0  0  0  0  0  0  0  0  0
  149.9797  141.8969  156.6404 H   0  0  0  0  0  0  0  0  0  0  0  0
  149.5777  141.1170  158.1660 H   0  0  0  0  0  0  0  0  0  0  0  0
  150.9981  139.1849  157.6202 H   0  0  0  0  0  0  0  0  0  0  0  0
  153.1614  140.5752  157.4199 H   0  0  0  0  0  0  0  0  0  0  0  0
  151.1904  140.8728  159.5826 H   0  0  0  0  0  0  0  0  0  0  0  0
  152.7922  139.3455  160.7473 H   0  0  0  0  0  0  0  0  0  0  0  0
  153.7755  139.2492  159.2902 H   0  0  0  0  0  0  0  0  0  0  0  0
  152.1383  138.6065  159.2947 H   0  0  0  0  0  0  0  0  0  0  0  0
  154.0007  141.9443  159.3779 H   0  0  0  0  0  0  0  0  0  0  0  0
  153.7320  140.9121  161.5823 H   0  0  0  0  0  0  0  0  0  0  0  0
  152.2947  141.8760  161.8981 H   0  0  0  0  0  0  0  0  0  0  0  0
  153.8592  142.6615  161.7139 H   0  0  0  0  0  0  0  0  0  0  0  0
  153.9231  144.1597  158.1774 H   0  0  0  0  0  0  0  0  0  0  0  0
  152.1815  146.2561  158.1465 H   0  0  0  0  0  0  0  0  0  0  0  0
  150.1301  145.3865  159.7939 H   0  0  0  0  0  0  0  0  0  0  0  0
  152.9021  138.8104  154.4638 H   0  0  0  0  0  0  0  0  0  0  0  0
  153.2120  138.7945  156.1876 H   0  0  0  0  0  0  0  0  0  0  0  0
  1  2  1  0  0  0  0
  1 16  1  0  0  0  0
  1 17  1  0  0  0  0
  1 18  1  0  0  0  0
  2  3  1  0  0  0  0
  2 13  1  0  0  0  0
  2 19  1  0  0  0  0
  3  4  1  0  0  0  0
  3 20  1  0  0  0  0
  4  5  1  0  0  0  0
  4  6  1  0  0  0  0
  4 21  1  0  0  0  0
  5 22  1  0  0  0  0
  5 23  1  0  0  0  0
  5 24  1  0  0  0  0
  6  7  1  0  0  0  0
  6  8  1  0  0  0  0
  6 25  1  0  0  0  0
  7 26  1  0  0  0  0
  7 27  1  0  0  0  0
  7 28  1  0  0  0  0
  8 12  1  0  0  0  0
  8  9  1  0  0  0  0
  9 10  2  0  0  0  0
  9 29  1  0  0  0  0
 10 11  1  0  0  0  0
 10 30  1  0  0  0  0
 11 12  2  0  0  0  0
 11 31  1  0  0  0  0
 13 14  1  0  0  0  0
 13 15  2  0  0  0  0
 14 32  1  0  0  0  0
 14 33  1  0  0  0  0
M  END
> <s_m_source_file>
AV-unprocessed.smi

> <i_m_source_file_index>
3116

> <i_lp_mmshare_version>
43012

> <i_f3d_flags>
0

> <s_epik_input>
W05IMl1DKD1PKVtDQEhdKFtDSDNdKVtOSF1bQ0BIXShbQ0gzXSlbQ0BIXShbQ0gzXSluMVtjSF1bY0hdW2NIXW4x

> <s_epik_cmdline>
J2VwaWtfcHl0aG9uJywgJy1waCcsICc3LjAnLCAnLXRuJywgJzgnLCAnLW1hJywgJzIwMCcsICctbWV0YWxfYmluZGluZycsICctaW1hZScsICc8aW5maWxlLm1hZT4nLCAnLW9tYWUnLCAnPG91dGZpbGUubWFlPic=

> <r_lp_tautomer_probability>
1

> <r_epik_Ionization_Penalty>
0.865977

> <r_epik_Ionization_Penalty_Charging>
0

> <r_epik_Ionization_Penalty_Neutral>
0.865977

> <r_epik_State_Penalty>
0.901888

> <r_epik_Charging_Adjusted_Penalty>
0.901888

> <i_epik_Tot_Q>
0

> <i_epik_Tot_abs_Q>
0

> <r_epik_Metal_State_Penalty>
0.901181

> <b_epik_Metal_Only>
0

> <s_lp_Force_Field>
OPLS_2005

> <r_lp_Energy>
10.1697

> <b_lp_Chiralities_Consistent>
1

> <s_lp_Variant>
AV-unprocessed.smi:3116-11

> <Gold.Version>
5.8.1

> <Gold.Id.Protein>
6NUR|6NUR_protein|mol2

> <Gold.PLP.Fitness>
39.2322

> <Gold.PLP.PLP>
-36.9058

> <Gold.PLP.part.hbond>
-1.3448

> <Gold.PLP.part.metal>
0.0000

> <Gold.PLP.part.buried>
-5.1064

> <Gold.PLP.part.nonpolar>
-30.1925

> <Gold.PLP.part.repulsive>
0.3612

> <Gold.PLP.ligand.clash>
0.0000

> <Gold.PLP.ligand.torsion>
0.5161

> <Gold.PLP.Chemscore.Hbond>
1.0000

> <Gold.PLP.Chemscore.CHOScore>
0.0000

> <Gold.PLP.Chemscore.Metal>
0.0000

> <Gold.Chemscore.Hbonds>
donor molecule, donor type, donor heavy atom, donor atom, acceptor molecule, acceptor atom, score
      P1  H  7989  7998       L1    15  1.00

> <Gold.PLP.Chemscore.Internal.Correction>
0.3586

> <Gold.Rescore>
     Score         DG    S(hbond)    S(metal)    S(lipo)     H(rot)  DE(clash)    DE(int)     intcor
     11.43     -12.36       1.00        0.00      82.54       2.38       0.00       0.93       ----

> <Gold.Chemscore.Fitness>
11.4291

> <Gold.Chemscore.DG>
-12.3584

> <Gold.Chemscore.ZeroCoef>
-5.4800

> <Gold.Chemscore.Hbond>
0.9950

> <Gold.Chemscore.Metal>
0.0000

> <Gold.Chemscore.Lipo>
82.5380

> <Gold.Chemscore.Internal_Hbond>
0.0000

> <Gold.Chemscore.DEClash>
0.0000

> <Gold.Chemscore.DEInternal>
0.9293

> <Gold.Chemscore.Rot>
2.3836

> <Gold.Chemscore.Internal.Correction>
   9.000000E+99

> <Gold.Chemscore.Hbonds>
donor molecule, donor type, donor heavy atom, donor atom, acceptor molecule, acceptor atom, score
      P1  H  7989  7998       L1    15  0.82

> <Gold.Chemscore.Hbond.Weighted>
-3.3234

> <Gold.Chemscore.Metal.Weighted>
-0.0000

> <Gold.Chemscore.Lipo.Weighted>
-9.6569

> <Gold.Chemscore.Internal_Hbond.Weighted>
0.0000

> <Gold.Chemscore.DEClash.Weighted>
0.0000

> <Gold.Chemscore.DEInternal.Weighted>
0.9293

> <Gold.Chemscore.Rot.Weighted>
6.1020

> <Gold.Chemscore.Internal.Correction.Weighted>
   9.000000E+99

> <Gold.Protein.RotatedTorsions>
[ 6907 6896 6895 6894 ] final  132.35 input  -60.11 | X-H torsion
[ 7974 7965 7964 7962 ] final   83.36 input  175.53 | X-H torsion
[ 8008 7997 7996 7995 ] final  -77.36 input   59.86 | X-H torsion
[ 10167 10162 10161 10158 ] final -132.69 input  -65.29 | X-H torsion
[ 10718 10713 10712 10709 ] final  104.51 input   66.30 | X-H torsion
[ 10763 10752 10751 10750 ] final -156.20 input  -60.55 | X-H torsion
[ 11005 11000 10999 10996 ] final  -26.85 input  -57.11 | X-H torsion

> <Gold.Protein.ActiveResidues>
 VAL166  LYS551  ARG553  GLY616  TRP617  ASP618  TYR619  PRO620  LYS621  CYS622 
 ASP623  PHE694  ASN695  SER759  ASP760  ASP761  ALA762  ILE779  LEU786  VAL792 
 PHE793  MET794  SER795  GLU796  ALA797  LYS798  CYS799  TRP800  GLU811  SER814 

> <Gold.Protein.RotatedAtoms>
  152.3333  133.5983  159.5824 H   0  0  0  0  0  0  0  0  0  0  0  0  # atno 6907 bound_to 6896
  150.7436  133.9834  159.3592 H   0  0  0  0  0  0  0  0  0  0  0  0  # atno 6908 bound_to 6896
  151.7706  135.0788  160.0410 H   0  0  0  0  0  0  0  0  0  0  0  0  # atno 6909 bound_to 6896
  145.6130  139.2372  143.2181 H   0  0  0  0  0  0  0  0  0  0  0  0  # atno 7974 bound_to 7965
  154.5589  140.0711  156.8788 H   0  0  0  0  0  0  0  0  0  0  0  0  # atno 8008 bound_to 7997
  155.2848  140.3374  155.4238 H   0  0  0  0  0  0  0  0  0  0  0  0  # atno 8009 bound_to 7997
  156.2026  140.1727  156.7853 H   0  0  0  0  0  0  0  0  0  0  0  0  # atno 8010 bound_to 7997
  139.9060  143.6551  152.2585 H   0  0  0  0  0  0  0  0  0  0  0  0  # atno 10167 bound_to 10162
  157.6738  131.0805  150.5716 H   0  0  0  0  0  0  0  0  0  0  0  0  # atno 10718 bound_to 10713
  154.7731  135.3151  154.8149 H   0  0  0  0  0  0  0  0  0  0  0  0  # atno 10763 bound_to 10752
  153.8879  135.6828  153.4767 H   0  0  0  0  0  0  0  0  0  0  0  0  # atno 10764 bound_to 10752
  153.1348  135.4764  154.9341 H   0  0  0  0  0  0  0  0  0  0  0  0  # atno 10765 bound_to 10752
  140.9067  133.7488  156.0615 H   0  0  0  0  0  0  0  0  0  0  0  0  # atno 11005 bound_to 11000
  146.1490  140.6952  142.9331 LP  0  0  0  0  0  0  0  0  0  0  0  0  # atno 17320 bound_to 7965
  144.7262  140.4532  143.6971 LP  0  0  0  0  0  0  0  0  0  0  0  0  # atno 17321 bound_to 7965
  139.6984  144.7638  151.1316 LP  0  0  0  0  0  0  0  0  0  0  0  0  # atno 17342 bound_to 10162
  140.7696  143.5492  150.9224 LP  0  0  0  0  0  0  0  0  0  0  0  0  # atno 17343 bound_to 10162
  156.6018  130.4356  149.5894 LP  0  0  0  0  0  0  0  0  0  0  0  0  # atno 17370 bound_to 10713
  156.2500  130.6902  151.1636 LP  0  0  0  0  0  0  0  0  0  0  0  0  # atno 17371 bound_to 10713
  140.8162  134.3342  157.5396 LP  0  0  0  0  0  0  0  0  0  0  0  0  # atno 17394 bound_to 11000
  139.8750  134.9283  156.3447 LP  0  0  0  0  0  0  0  0  0  0  0  0  # atno 17395 bound_to 11000

$$$$
