AV-unprocessed.smi:3248|AV-procd|sdf|12416|dock6
  -GOLD-   2272018303D 1   1.00000     0.00000
 Structure written by MMmdl.
 38 39  0  0  0  0  0  0  0  0  1 V2000
  150.1127  140.1897  157.8538 C   0  0  0  0  0  0  0  0  0  0  0  0
  151.2110  140.8919  157.0446 C   0  0  1  0  0  0  0  0  0  0  0  0
  150.6155  141.8966  156.0363 C   0  0  0  0  0  0  0  0  0  0  0  0
  149.6838  141.2723  155.1130 N   0  0  0  0  0  0  0  0  0  0  0  0
  148.3822  141.6328  154.8357 C   0  0  0  0  0  0  0  0  0  0  0  0
  147.9002  140.7413  153.9209 C   0  0  0  0  0  0  0  0  0  0  0  0
  148.9958  139.8620  153.6957 C   0  0  0  0  0  0  0  0  0  0  0  0
  150.0630  140.1837  154.4084 N   0  0  0  0  0  0  0  0  0  0  0  0
  152.1238  141.5695  157.9641 N   0  0  0  0  0  0  0  0  0  0  0  0
  151.7661  142.3734  158.9808 C   0  0  0  0  0  0  0  0  0  0  0  0
  150.6021  142.7256  159.1715 O   0  0  0  0  0  0  0  0  0  0  0  0
  152.8228  142.8289  159.6965 N   0  0  0  0  0  0  0  0  0  0  0  0
  153.9690  141.9515  159.9763 C   0  0  0  0  0  0  0  0  0  0  0  0
  153.7428  141.2777  161.3439 C   0  0  0  0  0  0  0  0  0  0  0  0
  153.5894  142.2716  162.3543 O   0  0  0  0  0  0  0  0  0  0  0  0
  152.5198  143.1792  162.0969 C   0  0  0  0  0  0  0  0  0  0  0  0
  152.7541  143.8714  160.7390 C   0  0  2  0  0  0  0  0  0  0  0  0
  151.7497  145.0114  160.4694 C   0  0  0  0  0  0  0  0  0  0  0  0
  149.4282  139.6501  157.1985 H   0  0  0  0  0  0  0  0  0  0  0  0
  149.5260  140.9039  158.4325 H   0  0  0  0  0  0  0  0  0  0  0  0
  150.5392  139.4665  158.5497 H   0  0  0  0  0  0  0  0  0  0  0  0
  151.7446  140.1192  156.4883 H   0  0  0  0  0  0  0  0  0  0  0  0
  150.0806  142.6857  156.5662 H   0  0  0  0  0  0  0  0  0  0  0  0
  151.4086  142.3865  155.4686 H   0  0  0  0  0  0  0  0  0  0  0  0
  147.9115  142.4801  155.3124 H   0  0  0  0  0  0  0  0  0  0  0  0
  146.9144  140.7189  153.4812 H   0  0  0  0  0  0  0  0  0  0  0  0
  149.0470  139.0046  153.0410 H   0  0  0  0  0  0  0  0  0  0  0  0
  153.1071  141.3699  157.8522 H   0  0  0  0  0  0  0  0  0  0  0  0
  154.1193  141.1841  159.2159 H   0  0  0  0  0  0  0  0  0  0  0  0
  154.8888  142.5374  159.9908 H   0  0  0  0  0  0  0  0  0  0  0  0
  152.8614  140.6354  161.3208 H   0  0  0  0  0  0  0  0  0  0  0  0
  154.5922  140.6437  161.5980 H   0  0  0  0  0  0  0  0  0  0  0  0
  151.5657  142.6499  162.1123 H   0  0  0  0  0  0  0  0  0  0  0  0
  152.4904  143.9156  162.9003 H   0  0  0  0  0  0  0  0  0  0  0  0
  153.7336  144.3519  160.7742 H   0  0  0  0  0  0  0  0  0  0  0  0
  151.9084  145.8308  161.1708 H   0  0  0  0  0  0  0  0  0  0  0  0
  150.7142  144.6938  160.5885 H   0  0  0  0  0  0  0  0  0  0  0  0
  151.8700  145.4164  159.4644 H   0  0  0  0  0  0  0  0  0  0  0  0
  1  2  1  0  0  0  0
  1 19  1  0  0  0  0
  1 20  1  0  0  0  0
  1 21  1  0  0  0  0
  2  3  1  0  0  0  0
  2  9  1  0  0  0  0
  2 22  1  0  0  0  0
  3  4  1  0  0  0  0
  3 23  1  0  0  0  0
  3 24  1  0  0  0  0
  4  8  1  0  0  0  0
  4  5  1  0  0  0  0
  5  6  2  0  0  0  0
  5 25  1  0  0  0  0
  6  7  1  0  0  0  0
  6 26  1  0  0  0  0
  7  8  2  0  0  0  0
  7 27  1  0  0  0  0
  9 10  1  0  0  0  0
  9 28  1  0  0  0  0
 10 11  2  0  0  0  0
 10 12  1  0  0  0  0
 12 17  1  0  0  0  0
 12 13  1  0  0  0  0
 13 14  1  0  0  0  0
 13 29  1  0  0  0  0
 13 30  1  0  0  0  0
 14 15  1  0  0  0  0
 14 31  1  0  0  0  0
 14 32  1  0  0  0  0
 15 16  1  0  0  0  0
 16 17  1  0  0  0  0
 16 33  1  0  0  0  0
 16 34  1  0  0  0  0
 17 18  1  0  0  0  0
 17 35  1  0  0  0  0
 18 36  1  0  0  0  0
 18 37  1  0  0  0  0
 18 38  1  0  0  0  0
M  END
> <s_m_source_file>
AV-unprocessed.smi

> <i_m_source_file_index>
3248

> <i_lp_mmshare_version>
43012

> <i_f3d_flags>
0

> <s_epik_input>
bjFbY0hdW2NIXVtjSF1uMVtDSDJdW0NAQEhdKFtDSDNdKVtOSF1DKD1PKU4yW0NIMl1bQ0gyXU9bQ0gyXVtDQEhdMltDSDNd

> <s_epik_cmdline>
J2VwaWtfcHl0aG9uJywgJy1waCcsICc3LjAnLCAnLXRuJywgJzgnLCAnLW1hJywgJzIwMCcsICctbWV0YWxfYmluZGluZycsICctaW1hZScsICc8aW5maWxlLm1hZT4nLCAnLW9tYWUnLCAnPG91dGZpbGUubWFlPic=

> <r_lp_tautomer_probability>
1

> <r_epik_Ionization_Penalty>
4.45233e-05

> <r_epik_Ionization_Penalty_Charging>
0

> <r_epik_Ionization_Penalty_Neutral>
4.45233e-05

> <r_epik_State_Penalty>
-0

> <r_epik_Charging_Adjusted_Penalty>
0

> <i_epik_Tot_Q>
0

> <i_epik_Tot_abs_Q>
0

> <r_epik_Metal_State_Penalty>
-0

> <b_epik_Metal_Only>
0

> <s_lp_Force_Field>
OPLS_2005

> <r_lp_Energy>
30.7838

> <b_lp_Chiralities_Consistent>
1

> <s_lp_Variant>
AV-unprocessed.smi:3248-4

> <Gold.Version>
5.8.1

> <Gold.Id.Protein>
6NUR|6NUR_protein|mol2

> <Gold.PLP.Fitness>
46.6103

> <Gold.PLP.PLP>
-39.9374

> <Gold.PLP.part.hbond>
-1.4303

> <Gold.PLP.part.metal>
0.0000

> <Gold.PLP.part.buried>
-0.4705

> <Gold.PLP.part.nonpolar>
-36.3074

> <Gold.PLP.part.repulsive>
0.2802

> <Gold.PLP.ligand.clash>
0.0000

> <Gold.PLP.ligand.torsion>
0.4667

> <Gold.PLP.Chemscore.Hbond>
1.0000

> <Gold.PLP.Chemscore.CHOScore>
1.3613

> <Gold.PLP.Chemscore.Metal>
0.0000

> <Gold.Chemscore.Hbonds>
donor molecule, donor type, donor heavy atom, donor atom, acceptor molecule, acceptor atom, score
      P1  H  7989  7998       L1     8  1.00
      L1  C     5    25       P1  8028  0.95
      L1  C     7    27       P1  7957  0.39

> <Gold.PLP.Chemscore.Internal.Correction>
0.5224

> <Gold.Rescore>
     Score         DG    S(hbond)    S(metal)    S(lipo)     H(rot)  DE(clash)    DE(int)     intcor
     11.54     -15.64       0.85        0.00      93.57       1.42       1.47       2.63       ----

> <Gold.Chemscore.Fitness>
11.5426

> <Gold.Chemscore.DG>
-15.6383

> <Gold.Chemscore.ZeroCoef>
-5.4800

> <Gold.Chemscore.Hbond>
0.8512

> <Gold.Chemscore.Metal>
0.0000

> <Gold.Chemscore.Lipo>
93.5741

> <Gold.Chemscore.Internal_Hbond>
0.0000

> <Gold.Chemscore.DEClash>
1.4698

> <Gold.Chemscore.DEInternal>
2.6258

> <Gold.Chemscore.Rot>
1.4191

> <Gold.Chemscore.Internal.Correction>
   9.000000E+99

> <Gold.Chemscore.Hbonds>
donor molecule, donor type, donor heavy atom, donor atom, acceptor molecule, acceptor atom, score
      P1  H  7989  7998       L1     8  0.27

> <Gold.Chemscore.Hbond.Weighted>
-2.8431

> <Gold.Chemscore.Metal.Weighted>
-0.0000

> <Gold.Chemscore.Lipo.Weighted>
-10.9482

> <Gold.Chemscore.Internal_Hbond.Weighted>
0.0000

> <Gold.Chemscore.DEClash.Weighted>
1.4698

> <Gold.Chemscore.DEInternal.Weighted>
2.6258

> <Gold.Chemscore.Rot.Weighted>
3.6330

> <Gold.Chemscore.Internal.Correction.Weighted>
   9.000000E+99

> <Gold.Protein.RotatedTorsions>
[ 6907 6896 6895 6894 ] final   99.48 input  -60.11 | X-H torsion
[ 7974 7965 7964 7962 ] final   49.59 input  175.53 | X-H torsion
[ 8008 7997 7996 7995 ] final   63.83 input   59.86 | X-H torsion
[ 10167 10162 10161 10158 ] final  -56.32 input  -65.29 | X-H torsion
[ 10718 10713 10712 10709 ] final -166.28 input   66.30 | X-H torsion
[ 10763 10752 10751 10750 ] final  -55.62 input  -60.55 | X-H torsion
[ 11005 11000 10999 10996 ] final -159.14 input  -57.11 | X-H torsion

> <Gold.Protein.ActiveResidues>
 VAL166  LYS551  ARG553  GLY616  TRP617  ASP618  TYR619  PRO620  LYS621  CYS622 
 ASP623  PHE694  ASN695  SER759  ASP760  ASP761  ALA762  ILE779  LEU786  VAL792 
 PHE793  MET794  SER795  GLU796  ALA797  LYS798  CYS799  TRP800  GLU811  SER814 

> <Gold.Protein.RotatedAtoms>
  152.5391  134.0423  159.8072 H   0  0  0  0  0  0  0  0  0  0  0  0  # atno 6907 bound_to 6896
  151.0577  133.5563  159.2644 H   0  0  0  0  0  0  0  0  0  0  0  0  # atno 6908 bound_to 6896
  151.2473  135.0618  159.9102 H   0  0  0  0  0  0  0  0  0  0  0  0  # atno 6909 bound_to 6896
  146.0094  139.4526  142.9965 H   0  0  0  0  0  0  0  0  0  0  0  0  # atno 7974 bound_to 7965
  155.6364  140.3496  155.4700 H   0  0  0  0  0  0  0  0  0  0  0  0  # atno 8008 bound_to 7997
  155.9962  140.1204  157.0615 H   0  0  0  0  0  0  0  0  0  0  0  0  # atno 8009 bound_to 7997
  154.4234  140.1109  156.5619 H   0  0  0  0  0  0  0  0  0  0  0  0  # atno 8010 bound_to 7997
  140.6324  143.2465  151.5207 H   0  0  0  0  0  0  0  0  0  0  0  0  # atno 10167 bound_to 10162
  156.6656  130.9063  151.3036 H   0  0  0  0  0  0  0  0  0  0  0  0  # atno 10718 bound_to 10713
  154.1938  135.6423  153.5067 H   0  0  0  0  0  0  0  0  0  0  0  0  # atno 10763 bound_to 10752
  153.0028  135.5435  154.6388 H   0  0  0  0  0  0  0  0  0  0  0  0  # atno 10764 bound_to 10752
  154.5783  135.2923  155.0731 H   0  0  0  0  0  0  0  0  0  0  0  0  # atno 10765 bound_to 10752
  140.6459  134.4502  157.5234 H   0  0  0  0  0  0  0  0  0  0  0  0  # atno 11005 bound_to 11000
  145.7366  141.0023  143.1323 LP  0  0  0  0  0  0  0  0  0  0  0  0  # atno 17320 bound_to 7965
  144.6947  139.9048  143.7460 LP  0  0  0  0  0  0  0  0  0  0  0  0  # atno 17321 bound_to 7965
  139.5537  144.2330  152.1575 LP  0  0  0  0  0  0  0  0  0  0  0  0  # atno 17342 bound_to 10162
  140.1578  144.5055  150.6650 LP  0  0  0  0  0  0  0  0  0  0  0  0  # atno 17343 bound_to 10162
  157.7095  130.9423  150.1040 LP  0  0  0  0  0  0  0  0  0  0  0  0  # atno 17370 bound_to 10713
  156.1978  130.3658  149.8827 LP  0  0  0  0  0  0  0  0  0  0  0  0  # atno 17371 bound_to 10713
  139.9063  134.8442  156.1694 LP  0  0  0  0  0  0  0  0  0  0  0  0  # atno 17394 bound_to 11000
  141.0573  133.6859  156.1884 LP  0  0  0  0  0  0  0  0  0  0  0  0  # atno 17395 bound_to 11000

$$$$
