AV-unprocessed.smi:3013|AV-procd|sdf|11464|dock2
  -GOLD-   2272016403D 1   1.00000     0.00000
 Structure written by MMmdl.
 45 46  0  0  0  0  0  0  0  0  2 V2000
  144.1182  134.6988  155.6801 C   0  0  0  0  0  0  0  0  0  0  0  0
  145.0792  134.5201  154.4854 C   0  0  2  0  0  0  0  0  0  0  0  0
  145.5756  135.8660  153.9131 C   0  0  0  0  0  0  0  0  0  0  0  0
  146.4556  136.6704  154.8892 C   0  0  0  0  0  0  0  0  0  0  0  0
  147.8001  136.8759  154.3615 N   0  0  0  0  0  0  0  0  0  0  0  0
  148.8127  137.4347  155.0406 C   0  0  0  0  0  0  0  0  0  0  0  0
  148.7147  137.8195  156.2063 O   0  0  0  0  0  0  0  0  0  0  0  0
  149.9234  137.5156  154.2882 N   0  0  0  0  0  0  0  0  0  0  0  0
  151.1909  138.0373  154.6633 C   0  0  0  0  0  0  0  0  0  0  0  0
  152.3688  137.4573  154.4547 N   0  0  0  0  0  0  0  0  0  0  0  0
  153.1883  138.3995  155.0083 C   0  0  0  0  0  0  0  0  0  0  0  0
  152.5841  139.4735  155.5171 N   0  0  0  0  0  0  0  0  0  0  0  0
  151.2754  139.2187  155.2822 N   0  0  0  0  0  0  0  0  0  0  0  0
  150.2483  140.1588  155.6873 C   0  0  0  0  0  0  0  0  0  0  0  0
  144.5083  133.6659  153.4023 N   0  3  0  0  0  0  0  0  0  0  0  0
  145.5042  132.8898  152.6124 C   0  0  0  0  0  0  0  0  0  0  0  0
  144.8031  131.8749  151.6943 C   0  0  0  0  0  0  0  0  0  0  0  0
  143.7991  132.5752  150.7687 C   0  0  0  0  0  0  0  0  0  0  0  0
  142.8067  133.4002  151.5989 C   0  0  0  0  0  0  0  0  0  0  0  0
  143.5438  134.3828  152.5250 C   0  0  0  0  0  0  0  0  0  0  0  0
  144.6160  135.1906  156.5154 H   0  0  0  0  0  0  0  0  0  0  0  0
  143.7547  133.7414  156.0530 H   0  0  0  0  0  0  0  0  0  0  0  0
  143.2521  135.3065  155.4175 H   0  0  0  0  0  0  0  0  0  0  0  0
  145.9652  134.0007  154.8535 H   0  0  0  0  0  0  0  0  0  0  0  0
  146.1515  135.6659  153.0084 H   0  0  0  0  0  0  0  0  0  0  0  0
  144.7305  136.4814  153.6034 H   0  0  0  0  0  0  0  0  0  0  0  0
  146.0209  137.6526  155.0727 H   0  0  0  0  0  0  0  0  0  0  0  0
  146.5123  136.1698  155.8573 H   0  0  0  0  0  0  0  0  0  0  0  0
  147.9651  136.5874  153.4082 H   0  0  0  0  0  0  0  0  0  0  0  0
  149.8569  137.1716  153.3417 H   0  0  0  0  0  0  0  0  0  0  0  0
  154.2625  138.2913  155.0359 H   0  0  0  0  0  0  0  0  0  0  0  0
  149.4976  139.6463  156.2894 H   0  0  0  0  0  0  0  0  0  0  0  0
  149.7701  140.5811  154.8034 H   0  0  0  0  0  0  0  0  0  0  0  0
  150.6804  140.9680  156.2774 H   0  0  0  0  0  0  0  0  0  0  0  0
  146.1121  133.5656  152.0095 H   0  0  0  0  0  0  0  0  0  0  0  0
  146.1843  132.3562  153.2755 H   0  0  0  0  0  0  0  0  0  0  0  0
  145.5425  131.3358  151.1013 H   0  0  0  0  0  0  0  0  0  0  0  0
  144.2870  131.1281  152.2992 H   0  0  0  0  0  0  0  0  0  0  0  0
  144.3303  133.2271  150.0740 H   0  0  0  0  0  0  0  0  0  0  0  0
  143.2669  131.8407  150.1638 H   0  0  0  0  0  0  0  0  0  0  0  0
  142.1311  133.9446  150.9385 H   0  0  0  0  0  0  0  0  0  0  0  0
  142.1840  132.7318  152.1953 H   0  0  0  0  0  0  0  0  0  0  0  0
  142.8107  134.9145  153.1325 H   0  0  0  0  0  0  0  0  0  0  0  0
  144.0668  135.1322  151.9299 H   0  0  0  0  0  0  0  0  0  0  0  0
  143.9507  132.9771  153.8871 H   0  0  0  0  0  0  0  0  0  0  0  0
  1  2  1  0  0  0  0
  1 21  1  0  0  0  0
  1 22  1  0  0  0  0
  1 23  1  0  0  0  0
  2  3  1  0  0  0  0
  2 15  1  0  0  0  0
  2 24  1  0  0  0  0
  3  4  1  0  0  0  0
  3 25  1  0  0  0  0
  3 26  1  0  0  0  0
  4  5  1  0  0  0  0
  4 27  1  0  0  0  0
  4 28  1  0  0  0  0
  5  6  1  0  0  0  0
  5 29  1  0  0  0  0
  6  7  2  0  0  0  0
  6  8  1  0  0  0  0
  8  9  1  0  0  0  0
  8 30  1  0  0  0  0
  9 13  1  0  0  0  0
  9 10  2  0  0  0  0
 10 11  1  0  0  0  0
 11 12  2  0  0  0  0
 11 31  1  0  0  0  0
 12 13  1  0  0  0  0
 13 14  1  0  0  0  0
 14 32  1  0  0  0  0
 14 33  1  0  0  0  0
 14 34  1  0  0  0  0
 15 20  1  0  0  0  0
 15 16  1  0  0  0  0
 15 45  1  0  0  0  0
 16 17  1  0  0  0  0
 16 35  1  0  0  0  0
 16 36  1  0  0  0  0
 17 18  1  0  0  0  0
 17 37  1  0  0  0  0
 17 38  1  0  0  0  0
 18 19  1  0  0  0  0
 18 39  1  0  0  0  0
 18 40  1  0  0  0  0
 19 20  1  0  0  0  0
 19 41  1  0  0  0  0
 19 42  1  0  0  0  0
 20 43  1  0  0  0  0
 20 44  1  0  0  0  0
M  CHG  1  15   1
M  END
> <s_m_source_file>
AV-unprocessed.smi

> <i_m_source_file_index>
3013

> <i_lp_mmshare_version>
43012

> <i_f3d_flags>
0

> <s_epik_input>
W0NIMl0xW0NIMl1bQ0gyXVtDSDJdW0NIMl1OMVtDQEhdKFtDSDNdKVtDSDJdW0NIMl1bTkhdQyg9TylbTkhdYzJuW2NIXW5uMltDSDNd

> <s_epik_cmdline>
J2VwaWtfcHl0aG9uJywgJy1waCcsICc3LjAnLCAnLXRuJywgJzgnLCAnLW1hJywgJzIwMCcsICctbWV0YWxfYmluZGluZycsICctaW1hZScsICc8aW5maWxlLm1hZT4nLCAnLW9tYWUnLCAnPG91dGZpbGUubWFlPic=

> <r_lp_tautomer_probability>
1

> <r_epik_Ionization_Penalty>
0.000375855

> <r_epik_Ionization_Penalty_Charging>
0.000355659

> <r_epik_Ionization_Penalty_Neutral>
2.01955e-05

> <r_epik_State_Penalty>
0.000216264

> <r_epik_Charging_Adjusted_Penalty>
0.000571923

> <i_epik_Tot_Q>
1

> <i_epik_Tot_abs_Q>
1

> <r_epik_Metal_State_Penalty>
-0

> <b_epik_Metal_Only>
0

> <s_lp_Force_Field>
OPLS_2005

> <r_lp_Energy>
21.7492

> <b_lp_Chiralities_Consistent>
1

> <s_lp_Variant>
AV-unprocessed.smi:3013-1

> <Gold.Version>
5.8.1

> <Gold.Id.Protein>
6NUR|6NUR_protein|mol2

> <Gold.PLP.Fitness>
44.2520

> <Gold.PLP.PLP>
-30.1760

> <Gold.PLP.part.hbond>
-6.0350

> <Gold.PLP.part.metal>
0.0000

> <Gold.PLP.part.buried>
-3.0207

> <Gold.PLP.part.nonpolar>
-23.3939

> <Gold.PLP.part.repulsive>
0.2051

> <Gold.PLP.ligand.clash>
0.0000

> <Gold.PLP.ligand.torsion>
1.2736

> <Gold.PLP.Chemscore.Hbond>
5.4865

> <Gold.PLP.Chemscore.CHOScore>
0.0000

> <Gold.PLP.Chemscore.Metal>
0.0000

> <Gold.Chemscore.Hbonds>
donor molecule, donor type, donor heavy atom, donor atom, acceptor molecule, acceptor atom, score
      L1  H     5    29       P1  7948  1.00
      L1  H     8    30       P1  7948  1.00
      L1  H    15    45       P1 10957  2.00
      P1  H  7997  8008       L1    12  0.40
      P1  H 10752 10765       L1    10  0.62

> <Gold.PLP.Chemscore.Internal.Correction>
0.1637

> <Gold.Rescore>
     Score         DG    S(hbond)    S(metal)    S(lipo)     H(rot)  DE(clash)    DE(int)     intcor
     12.56     -15.76       3.08        0.00      43.91       2.01       0.11       3.09       ----

> <Gold.Chemscore.Fitness>
12.5583

> <Gold.Chemscore.DG>
-15.7559

> <Gold.Chemscore.ZeroCoef>
-5.4800

> <Gold.Chemscore.Hbond>
3.0829

> <Gold.Chemscore.Metal>
0.0000

> <Gold.Chemscore.Lipo>
43.9054

> <Gold.Chemscore.Internal_Hbond>
0.0000

> <Gold.Chemscore.DEClash>
0.1103

> <Gold.Chemscore.DEInternal>
3.0874

> <Gold.Chemscore.Rot>
2.0148

> <Gold.Chemscore.Internal.Correction>
   9.000000E+99

> <Gold.Chemscore.Hbonds>
donor molecule, donor type, donor heavy atom, donor atom, acceptor molecule, acceptor atom, score
      L1  H     5    29       P1  7948  0.99
      L1  H     8    30       P1  7948  0.44
      L1  H    15    45       P1 10957  0.94
      P1  H  7997  8008       L1    12  0.01
      P1  H 10752 10765       L1    10  0.60

> <Gold.Chemscore.Hbond.Weighted>
-10.2969

> <Gold.Chemscore.Metal.Weighted>
-0.0000

> <Gold.Chemscore.Lipo.Weighted>
-5.1369

> <Gold.Chemscore.Internal_Hbond.Weighted>
0.0000

> <Gold.Chemscore.DEClash.Weighted>
0.1103

> <Gold.Chemscore.DEInternal.Weighted>
3.0874

> <Gold.Chemscore.Rot.Weighted>
5.1579

> <Gold.Chemscore.Internal.Correction.Weighted>
   9.000000E+99

> <Gold.Protein.RotatedTorsions>
[ 6907 6896 6895 6894 ] final  -79.63 input  -60.11 | X-H torsion
[ 7974 7965 7964 7962 ] final   51.51 input  175.53 | X-H torsion
[ 8008 7997 7996 7995 ] final  -22.08 input   59.86 | X-H torsion
[ 10167 10162 10161 10158 ] final -138.96 input  -65.29 | X-H torsion
[ 10718 10713 10712 10709 ] final   61.21 input   66.30 | X-H torsion
[ 10763 10752 10751 10750 ] final  142.07 input  -60.55 | X-H torsion
[ 11005 11000 10999 10996 ] final  128.58 input  -57.11 | X-H torsion

> <Gold.Protein.ActiveResidues>
 VAL166  LYS551  ARG553  GLY616  TRP617  ASP618  TYR619  PRO620  LYS621  CYS622 
 ASP623  PHE694  ASN695  SER759  ASP760  ASP761  ALA762  ILE779  LEU786  VAL792 
 PHE793  MET794  SER795  GLU796  ALA797  LYS798  CYS799  TRP800  GLU811  SER814 

> <Gold.Protein.RotatedAtoms>
  150.6946  134.4092  159.5153 H   0  0  0  0  0  0  0  0  0  0  0  0  # atno 6907 bound_to 6896
  152.1853  134.8716  160.0532 H   0  0  0  0  0  0  0  0  0  0  0  0  # atno 6908 bound_to 6896
  151.9692  133.3685  159.4101 H   0  0  0  0  0  0  0  0  0  0  0  0  # atno 6909 bound_to 6896
  145.9906  139.4335  143.0076 H   0  0  0  0  0  0  0  0  0  0  0  0  # atno 7974 bound_to 7965
  154.4666  140.2017  156.0102 H   0  0  0  0  0  0  0  0  0  0  0  0  # atno 8008 bound_to 7997
  156.0938  140.3254  155.7821 H   0  0  0  0  0  0  0  0  0  0  0  0  # atno 8009 bound_to 7997
  155.4913  140.0546  157.2944 H   0  0  0  0  0  0  0  0  0  0  0  0  # atno 8010 bound_to 7997
  139.8426  143.7302  152.2662 H   0  0  0  0  0  0  0  0  0  0  0  0  # atno 10167 bound_to 10162
  157.5811  130.8982  149.9433 H   0  0  0  0  0  0  0  0  0  0  0  0  # atno 10718 bound_to 10713
  153.9498  135.2971  155.3439 H   0  0  0  0  0  0  0  0  0  0  0  0  # atno 10763 bound_to 10752
  154.7432  135.5015  153.9162 H   0  0  0  0  0  0  0  0  0  0  0  0  # atno 10764 bound_to 10752
  153.1000  135.6731  153.9799 H   0  0  0  0  0  0  0  0  0  0  0  0  # atno 10765 bound_to 10752
  139.9568  134.9611  156.9023 H   0  0  0  0  0  0  0  0  0  0  0  0  # atno 11005 bound_to 11000
  145.7636  140.9925  143.1187 LP  0  0  0  0  0  0  0  0  0  0  0  0  # atno 17320 bound_to 7965
  144.6888  139.9360  143.7473 LP  0  0  0  0  0  0  0  0  0  0  0  0  # atno 17321 bound_to 7965
  139.7544  144.7525  151.0458 LP  0  0  0  0  0  0  0  0  0  0  0  0  # atno 17342 bound_to 10162
  140.7796  143.4823  151.0002 LP  0  0  0  0  0  0  0  0  0  0  0  0  # atno 17343 bound_to 10162
  156.0857  130.3668  150.0492 LP  0  0  0  0  0  0  0  0  0  0  0  0  # atno 17370 bound_to 10713
  156.8631  130.9498  151.3616 LP  0  0  0  0  0  0  0  0  0  0  0  0  # atno 17371 bound_to 10713
  140.5590  134.0553  155.7393 LP  0  0  0  0  0  0  0  0  0  0  0  0  # atno 17394 bound_to 11000
  141.1241  133.9412  157.2671 LP  0  0  0  0  0  0  0  0  0  0  0  0  # atno 17395 bound_to 11000

$$$$
