AV-unprocessed.smi:1604|AV-procd|sdf|6449|dock8
  -GOLD-   22720 7103D 1   1.00000     0.00000
 Structure written by MMmdl.
 47 49  0  0  0  0  0  0  0  0  2 V2000
  149.3761  135.0415  155.9894 O   0  0  0  0  0  0  0  0  0  0  0  0
  149.0922  135.4544  154.8649 C   0  0  0  0  0  0  0  0  0  0  0  0
  148.6875  134.6843  153.8425 N   0  0  0  0  0  0  0  0  0  0  0  0
  148.6114  133.2649  153.8163 C   0  0  0  0  0  0  0  0  0  0  0  0
  149.3555  132.4832  154.7359 C   0  0  0  0  0  0  0  0  0  0  0  0
  149.2109  131.0833  154.7442 C   0  0  0  0  0  0  0  0  0  0  0  0
  148.3124  130.4874  153.8425 C   0  0  0  0  0  0  0  0  0  0  0  0
  147.6114  131.2601  152.9869 N   0  3  0  0  0  0  0  0  0  0  0  0
  147.7178  132.6111  152.9195 C   0  0  0  0  0  0  0  0  0  0  0  0
  146.9326  133.2896  151.9593 N   0  0  0  0  0  0  0  0  0  0  0  0
  146.0949  134.4162  152.3537 C   0  0  0  0  0  0  0  0  0  0  0  0
  145.1607  134.6482  151.1693 C   0  0  0  0  0  0  0  0  0  0  0  0
  144.9191  133.2304  150.6605 C   0  0  0  0  0  0  0  0  0  0  0  0
  146.2484  132.5161  150.9267 C   0  0  0  0  0  0  0  0  0  0  0  0
  149.1786  136.7418  154.4986 N   0  0  0  0  0  0  0  0  0  0  0  0
  149.6860  137.8298  155.3377 C   0  0  2  0  0  0  0  0  0  0  0  0
  149.7289  139.1083  154.4697 C   0  0  0  0  0  0  0  0  0  0  0  0
  149.7204  140.4127  155.2855 C   0  0  0  0  0  0  0  0  0  0  0  0
  150.9597  140.6366  156.1655 C   0  0  0  0  0  0  0  0  0  0  0  0
  151.1448  139.5685  157.2569 C   0  0  0  0  0  0  0  0  0  0  0  0
  151.6943  138.3289  156.7237 N   0  0  0  0  0  0  0  0  0  0  0  0
  151.1141  137.5062  155.8368 C   0  0  0  0  0  0  0  0  0  0  0  0
  151.7135  136.5125  155.4247 O   0  0  0  0  0  0  0  0  0  0  0  0
  148.5780  135.1467  152.9518 H   0  0  0  0  0  0  0  0  0  0  0  0
  150.0215  132.9434  155.4508 H   0  0  0  0  0  0  0  0  0  0  0  0
  149.7724  130.4779  155.4408 H   0  0  0  0  0  0  0  0  0  0  0  0
  148.1312  129.4241  153.7812 H   0  0  0  0  0  0  0  0  0  0  0  0
  145.5083  134.1624  153.2374 H   0  0  0  0  0  0  0  0  0  0  0  0
  146.6923  135.3005  152.5775 H   0  0  0  0  0  0  0  0  0  0  0  0
  144.2423  135.1658  151.4469 H   0  0  0  0  0  0  0  0  0  0  0  0
  145.6659  135.2380  150.4031 H   0  0  0  0  0  0  0  0  0  0  0  0
  144.1270  132.7625  151.2469 H   0  0  0  0  0  0  0  0  0  0  0  0
  144.6232  133.1980  149.6114 H   0  0  0  0  0  0  0  0  0  0  0  0
  146.8588  132.5190  150.0232 H   0  0  0  0  0  0  0  0  0  0  0  0
  146.0878  131.4794  151.2263 H   0  0  0  0  0  0  0  0  0  0  0  0
  148.9271  136.9852  153.5520 H   0  0  0  0  0  0  0  0  0  0  0  0
  149.0135  137.9718  156.1857 H   0  0  0  0  0  0  0  0  0  0  0  0
  150.5843  139.0933  153.7916 H   0  0  0  0  0  0  0  0  0  0  0  0
  148.8483  139.1305  153.8255 H   0  0  0  0  0  0  0  0  0  0  0  0
  149.6312  141.2520  154.5950 H   0  0  0  0  0  0  0  0  0  0  0  0
  148.8245  140.4449  155.9068 H   0  0  0  0  0  0  0  0  0  0  0  0
  151.8555  140.7023  155.5466 H   0  0  0  0  0  0  0  0  0  0  0  0
  150.8597  141.6091  156.6489 H   0  0  0  0  0  0  0  0  0  0  0  0
  151.8496  139.9367  158.0027 H   0  0  0  0  0  0  0  0  0  0  0  0
  150.2104  139.3772  157.7864 H   0  0  0  0  0  0  0  0  0  0  0  0
  152.6223  138.0833  157.0373 H   0  0  0  0  0  0  0  0  0  0  0  0
  146.9682  130.7973  152.3445 H   0  0  0  0  0  0  0  0  0  0  0  0
  1  2  2  0  0  0  0
  2  3  1  0  0  0  0
  2 15  1  0  0  0  0
  3  4  1  0  0  0  0
  3 24  1  0  0  0  0
  4  9  1  0  0  0  0
  4  5  2  0  0  0  0
  5  6  1  0  0  0  0
  5 25  1  0  0  0  0
  6  7  2  0  0  0  0
  6 26  1  0  0  0  0
  7  8  1  0  0  0  0
  7 27  1  0  0  0  0
  8  9  2  0  0  0  0
  8 47  1  0  0  0  0
  9 10  1  0  0  0  0
 10 14  1  0  0  0  0
 10 11  1  0  0  0  0
 11 12  1  0  0  0  0
 11 28  1  0  0  0  0
 11 29  1  0  0  0  0
 12 13  1  0  0  0  0
 12 30  1  0  0  0  0
 12 31  1  0  0  0  0
 13 14  1  0  0  0  0
 13 32  1  0  0  0  0
 13 33  1  0  0  0  0
 14 34  1  0  0  0  0
 14 35  1  0  0  0  0
 15 16  1  0  0  0  0
 15 36  1  0  0  0  0
 16 22  1  0  0  0  0
 16 17  1  0  0  0  0
 16 37  1  0  0  0  0
 17 18  1  0  0  0  0
 17 38  1  0  0  0  0
 17 39  1  0  0  0  0
 18 19  1  0  0  0  0
 18 40  1  0  0  0  0
 18 41  1  0  0  0  0
 19 20  1  0  0  0  0
 19 42  1  0  0  0  0
 19 43  1  0  0  0  0
 20 21  1  0  0  0  0
 20 44  1  0  0  0  0
 20 45  1  0  0  0  0
 21 22  1  0  0  0  0
 21 46  1  0  0  0  0
 22 23  2  0  0  0  0
M  CHG  1   8   1
M  END
> <s_m_source_file>
AV-unprocessed.smi

> <i_m_source_file_index>
1604

> <i_lp_mmshare_version>
43012

> <i_f3d_flags>
0

> <s_epik_input>
Tz1DMVtOSF1bQ0gyXVtDSDJdW0NIMl1bQ0gyXVtDQEhdMVtOSF1DKD1PKVtOSF1jMltjSF1bY0hdW2NIXW5jMk4zW0NIMl1bQ0gyXVtDSDJdW0NIMl0z

> <s_epik_cmdline>
J2VwaWtfcHl0aG9uJywgJy1waCcsICc3LjAnLCAnLXRuJywgJzgnLCAnLW1hJywgJzIwMCcsICctbWV0YWxfYmluZGluZycsICctaW1hZScsICc8aW5maWxlLm1hZT4nLCAnLW9tYWUnLCAnPG91dGZpbGUubWFlPic=

> <r_lp_tautomer_probability>
0.999994

> <r_epik_Ionization_Penalty>
1.20452

> <r_epik_Ionization_Penalty_Charging>
1.2045

> <r_epik_Ionization_Penalty_Neutral>
1.88134e-05

> <r_epik_State_Penalty>
1.2704

> <r_epik_Charging_Adjusted_Penalty>
2.4749

> <i_epik_Tot_Q>
1

> <i_epik_Tot_abs_Q>
1

> <r_epik_Metal_State_Penalty>
1.34433

> <b_epik_Metal_Only>
0

> <s_lp_Force_Field>
OPLS_2005

> <r_lp_Energy>
45.117

> <b_lp_Chiralities_Consistent>
1

> <s_lp_Variant>
AV-unprocessed.smi:1604-3

> <Gold.Version>
5.8.1

> <Gold.Id.Protein>
6NUR|6NUR_protein|mol2

> <Gold.PLP.Fitness>
43.5778

> <Gold.PLP.PLP>
-35.3982

> <Gold.PLP.part.hbond>
-3.7281

> <Gold.PLP.part.metal>
0.0000

> <Gold.PLP.part.buried>
-3.2408

> <Gold.PLP.part.nonpolar>
-30.0726

> <Gold.PLP.part.repulsive>
0.3910

> <Gold.PLP.ligand.clash>
0.0000

> <Gold.PLP.ligand.torsion>
0.3233

> <Gold.PLP.Chemscore.Hbond>
2.8160

> <Gold.PLP.Chemscore.CHOScore>
0.0000

> <Gold.PLP.Chemscore.Metal>
0.0000

> <Gold.Chemscore.Hbonds>
donor molecule, donor type, donor heavy atom, donor atom, acceptor molecule, acceptor atom, score
      L1  H     3    24       P1  7948  1.00
      L1  H    15    36       P1  7948  0.77
      P1  H 10752 10764       L1    23  1.00

> <Gold.PLP.Chemscore.Internal.Correction>
0.3782

> <Gold.Rescore>
     Score         DG    S(hbond)    S(metal)    S(lipo)     H(rot)  DE(clash)    DE(int)     intcor
     16.15     -18.87       2.57        0.00      68.64       1.26       0.01       2.71       ----

> <Gold.Chemscore.Fitness>
16.1470

> <Gold.Chemscore.DG>
-18.8722

> <Gold.Chemscore.ZeroCoef>
-5.4800

> <Gold.Chemscore.Hbond>
2.5685

> <Gold.Chemscore.Metal>
0.0000

> <Gold.Chemscore.Lipo>
68.6354

> <Gold.Chemscore.Internal_Hbond>
0.0000

> <Gold.Chemscore.DEClash>
0.0135

> <Gold.Chemscore.DEInternal>
2.7118

> <Gold.Chemscore.Rot>
1.2566

> <Gold.Chemscore.Internal.Correction>
   9.000000E+99

> <Gold.Chemscore.Hbonds>
donor molecule, donor type, donor heavy atom, donor atom, acceptor molecule, acceptor atom, score
      L1  H     3    24       P1  7948  0.65
      L1  H    15    36       P1  7948  0.78
      P1  H 10752 10764       L1    23  1.00

> <Gold.Chemscore.Hbond.Weighted>
-8.5787

> <Gold.Chemscore.Metal.Weighted>
-0.0000

> <Gold.Chemscore.Lipo.Weighted>
-8.0303

> <Gold.Chemscore.Internal_Hbond.Weighted>
0.0000

> <Gold.Chemscore.DEClash.Weighted>
0.0135

> <Gold.Chemscore.DEInternal.Weighted>
2.7118

> <Gold.Chemscore.Rot.Weighted>
3.2168

> <Gold.Chemscore.Internal.Correction.Weighted>
   9.000000E+99

> <Gold.Protein.RotatedTorsions>
[ 6907 6896 6895 6894 ] final   24.73 input  -60.11 | X-H torsion
[ 7974 7965 7964 7962 ] final   22.34 input  175.53 | X-H torsion
[ 8008 7997 7996 7995 ] final -107.28 input   59.86 | X-H torsion
[ 10167 10162 10161 10158 ] final  175.33 input  -65.29 | X-H torsion
[ 10718 10713 10712 10709 ] final -177.46 input   66.30 | X-H torsion
[ 10763 10752 10751 10750 ] final  -44.34 input  -60.55 | X-H torsion
[ 11005 11000 10999 10996 ] final  -70.36 input  -57.11 | X-H torsion

> <Gold.Protein.ActiveResidues>
 VAL166  LYS551  ARG553  GLY616  TRP617  ASP618  TYR619  PRO620  LYS621  CYS622 
 ASP623  PHE694  ASN695  SER759  ASP760  ASP761  ALA762  ILE779  LEU786  VAL792 
 PHE793  MET794  SER795  GLU796  ALA797  LYS798  CYS799  TRP800  GLU811  SER814 

> <Gold.Protein.RotatedAtoms>
  151.9620  135.0119  160.0547 H   0  0  0  0  0  0  0  0  0  0  0  0  # atno 6907 bound_to 6896
  152.1860  133.4735  159.4991 H   0  0  0  0  0  0  0  0  0  0  0  0  # atno 6908 bound_to 6896
  150.6926  134.1690  159.4248 H   0  0  0  0  0  0  0  0  0  0  0  0  # atno 6909 bound_to 6896
  146.2033  139.7899  142.8745 H   0  0  0  0  0  0  0  0  0  0  0  0  # atno 7974 bound_to 7965
  154.9270  140.0406  157.2028 H   0  0  0  0  0  0  0  0  0  0  0  0  # atno 8008 bound_to 7997
  154.8198  140.2881  155.5773 H   0  0  0  0  0  0  0  0  0  0  0  0  # atno 8009 bound_to 7997
  156.2979  140.2521  156.3102 H   0  0  0  0  0  0  0  0  0  0  0  0  # atno 8010 bound_to 7997
  139.5173  144.3044  152.0349 H   0  0  0  0  0  0  0  0  0  0  0  0  # atno 10167 bound_to 10162
  156.8298  130.9649  151.3107 H   0  0  0  0  0  0  0  0  0  0  0  0  # atno 10718 bound_to 10713
  154.0105  135.6682  153.4765 H   0  0  0  0  0  0  0  0  0  0  0  0  # atno 10763 bound_to 10752
  153.0623  135.5021  154.8117 H   0  0  0  0  0  0  0  0  0  0  0  0  # atno 10764 bound_to 10752
  154.6999  135.3077  154.9321 H   0  0  0  0  0  0  0  0  0  0  0  0  # atno 10765 bound_to 10752
  141.1572  133.6788  156.6741 H   0  0  0  0  0  0  0  0  0  0  0  0  # atno 11005 bound_to 11000
  145.3408  141.0287  143.3393 LP  0  0  0  0  0  0  0  0  0  0  0  0  # atno 17320 bound_to 7965
  144.8733  139.5007  143.6757 LP  0  0  0  0  0  0  0  0  0  0  0  0  # atno 17321 bound_to 7965
  140.2490  144.4189  150.6229 LP  0  0  0  0  0  0  0  0  0  0  0  0  # atno 17342 bound_to 10162
  140.6238  143.2179  151.6640 LP  0  0  0  0  0  0  0  0  0  0  0  0  # atno 17343 bound_to 10162
  157.6412  130.8807  149.9453 LP  0  0  0  0  0  0  0  0  0  0  0  0  # atno 17370 bound_to 10713
  156.0940  130.3661  150.0341 LP  0  0  0  0  0  0  0  0  0  0  0  0  # atno 17371 bound_to 10713
  140.3153  134.8053  157.4209 LP  0  0  0  0  0  0  0  0  0  0  0  0  # atno 17394 bound_to 11000
  140.1144  134.5303  155.8238 LP  0  0  0  0  0  0  0  0  0  0  0  0  # atno 17395 bound_to 11000

$$$$
