AV-unprocessed.smi:1222|AV-procd|sdf|5122|dock2
  -GOLD-   22720 4183D 1   1.00000     0.00000
 Structure written by MMmdl.
 36 38  0  0  0  0  0  0  0  0  1 V2000
  146.7843  137.2087  152.9564 O   0  0  0  0  0  0  0  0  0  0  0  0
  145.9382  138.0860  152.7794 C   0  0  0  0  0  0  0  0  0  0  0  0
  146.1055  139.3928  153.0469 N   0  0  0  0  0  0  0  0  0  0  0  0
  147.2533  140.0412  153.5734 C   0  0  0  0  0  0  0  0  0  0  0  0
  147.3410  141.3578  153.7962 N   0  0  0  0  0  0  0  0  0  0  0  0
  148.5853  141.7194  154.3186 C   0  0  0  0  0  0  0  0  0  0  0  0
  149.4392  140.6578  154.4878 C   0  0  0  0  0  0  0  0  0  0  0  0
  148.7099  139.1528  153.9953 S   0  0  0  0  0  0  0  0  0  0  0  0
  144.7154  137.8453  152.2844 N   0  0  0  0  0  0  0  0  0  0  0  0
  144.2129  136.5335  151.8872 C   0  0  0  0  0  0  0  0  0  0  0  0
  144.1335  135.5836  153.0958 C   0  0  0  0  0  0  0  0  0  0  0  0
  143.7515  134.1605  152.6545 C   0  0  0  0  0  0  0  0  0  0  0  0
  144.7276  133.6519  151.6908 N   0  0  0  0  0  0  0  0  0  0  0  0
  144.3677  132.2897  151.3324 C   0  0  0  0  0  0  0  0  0  0  0  0
  145.2103  131.1711  151.9017 C   0  0  0  0  0  0  0  0  0  0  0  0
  145.3193  131.5273  150.4389 C   0  0  0  0  0  0  0  0  0  0  0  0
  144.7115  134.4798  150.4846 C   0  0  0  0  0  0  0  0  0  0  0  0
  145.1364  135.9198  150.8228 C   0  0  0  0  0  0  0  0  0  0  0  0
  145.3200  139.9949  152.8495 H   0  0  0  0  0  0  0  0  0  0  0  0
  148.7788  142.7582  154.5416 H   0  0  0  0  0  0  0  0  0  0  0  0
  150.4487  140.6703  154.8707 H   0  0  0  0  0  0  0  0  0  0  0  0
  144.0848  138.6256  152.1729 H   0  0  0  0  0  0  0  0  0  0  0  0
  143.2165  136.6453  151.4548 H   0  0  0  0  0  0  0  0  0  0  0  0
  145.0934  135.5560  153.6140 H   0  0  0  0  0  0  0  0  0  0  0  0
  143.4031  135.9504  153.8177 H   0  0  0  0  0  0  0  0  0  0  0  0
  143.7252  133.5063  153.5266 H   0  0  0  0  0  0  0  0  0  0  0  0
  142.7508  134.1536  152.2189 H   0  0  0  0  0  0  0  0  0  0  0  0
  143.3137  132.0507  151.1993 H   0  0  0  0  0  0  0  0  0  0  0  0
  146.0450  131.4390  152.5471 H   0  0  0  0  0  0  0  0  0  0  0  0
  144.7031  130.2431  152.1577 H   0  0  0  0  0  0  0  0  0  0  0  0
  144.8864  130.8349  149.7198 H   0  0  0  0  0  0  0  0  0  0  0  0
  146.2273  132.0312  150.1126 H   0  0  0  0  0  0  0  0  0  0  0  0
  145.3981  134.0626  149.7473 H   0  0  0  0  0  0  0  0  0  0  0  0
  143.7169  134.4737  150.0354 H   0  0  0  0  0  0  0  0  0  0  0  0
  145.1222  136.5295  149.9188 H   0  0  0  0  0  0  0  0  0  0  0  0
  146.1682  135.9165  151.1778 H   0  0  0  0  0  0  0  0  0  0  0  0
  1  2  2  0  0  0  0
  2  3  1  0  0  0  0
  2  9  1  0  0  0  0
  3  4  1  0  0  0  0
  3 19  1  0  0  0  0
  4  8  1  0  0  0  0
  4  5  2  0  0  0  0
  5  6  1  0  0  0  0
  6  7  2  0  0  0  0
  6 20  1  0  0  0  0
  7  8  1  0  0  0  0
  7 21  1  0  0  0  0
  9 10  1  0  0  0  0
  9 22  1  0  0  0  0
 10 18  1  0  0  0  0
 10 11  1  0  0  0  0
 10 23  1  0  0  0  0
 11 12  1  0  0  0  0
 11 24  1  0  0  0  0
 11 25  1  0  0  0  0
 12 13  1  0  0  0  0
 12 26  1  0  0  0  0
 12 27  1  0  0  0  0
 13 14  1  0  0  0  0
 13 17  1  0  0  0  0
 14 16  1  0  0  0  0
 14 15  1  0  0  0  0
 14 28  1  0  0  0  0
 15 16  1  0  0  0  0
 15 29  1  0  0  0  0
 15 30  1  0  0  0  0
 16 31  1  0  0  0  0
 16 32  1  0  0  0  0
 17 18  1  0  0  0  0
 17 33  1  0  0  0  0
 17 34  1  0  0  0  0
 18 35  1  0  0  0  0
 18 36  1  0  0  0  0
M  END
> <s_m_source_file>
AV-unprocessed.smi

> <i_m_source_file_index>
1222

> <i_lp_mmshare_version>
43012

> <i_f3d_flags>
0

> <s_epik_input>
czFbY0hdW2NIXW5jMVtOSF1DKD1PKVtOSF1bQ0hdMltDSDJdW0NIMl1OKFtDSDJdW0NIMl0yKVtDSF0zW0NIMl1bQ0gyXTM=

> <s_epik_cmdline>
J2VwaWtfcHl0aG9uJywgJy1waCcsICc3LjAnLCAnLXRuJywgJzgnLCAnLW1hJywgJzIwMCcsICctbWV0YWxfYmluZGluZycsICctaW1hZScsICc8aW5maWxlLm1hZT4nLCAnLW9tYWUnLCAnPG91dGZpbGUubWFlPic=

> <r_lp_tautomer_probability>
0.999

> <r_epik_Ionization_Penalty>
0.985554

> <r_epik_Ionization_Penalty_Charging>
0

> <r_epik_Ionization_Penalty_Neutral>
0.985554

> <r_epik_State_Penalty>
1.03262

> <r_epik_Charging_Adjusted_Penalty>
1.03262

> <i_epik_Tot_Q>
0

> <i_epik_Tot_abs_Q>
0

> <r_epik_Metal_State_Penalty>
1.07929

> <b_epik_Metal_Only>
0

> <s_lp_Force_Field>
OPLS_2005

> <r_lp_Energy>
20.1195

> <b_lp_Chiralities_Consistent>
1

> <s_lp_Variant>
AV-unprocessed.smi:1222-3

> <Gold.Version>
5.8.1

> <Gold.Id.Protein>
6NUR|6NUR_protein|mol2

> <Gold.PLP.Fitness>
38.0969

> <Gold.PLP.PLP>
-29.2872

> <Gold.PLP.part.hbond>
-3.0000

> <Gold.PLP.part.metal>
0.0000

> <Gold.PLP.part.buried>
-1.4371

> <Gold.PLP.part.nonpolar>
-27.3422

> <Gold.PLP.part.repulsive>
3.4714

> <Gold.PLP.ligand.clash>
0.0000

> <Gold.PLP.ligand.torsion>
0.6794

> <Gold.PLP.Chemscore.Hbond>
2.0000

> <Gold.PLP.Chemscore.CHOScore>
1.0000

> <Gold.PLP.Chemscore.Metal>
0.0000

> <Gold.Chemscore.Hbonds>
donor molecule, donor type, donor heavy atom, donor atom, acceptor molecule, acceptor atom, score
      L1  H     3    19       P1 10175  1.00
      L1  H     9    22       P1 10175  1.00
      L1  C     6    20       P1  8028  1.00

> <Gold.PLP.Chemscore.Internal.Correction>
1.1686

> <Gold.Rescore>
     Score         DG    S(hbond)    S(metal)    S(lipo)     H(rot)  DE(clash)    DE(int)     intcor
     12.67     -17.28       1.89        0.00      74.20       1.25       1.63       2.97       ----

> <Gold.Chemscore.Fitness>
12.6747

> <Gold.Chemscore.DG>
-17.2821

> <Gold.Chemscore.ZeroCoef>
-5.4800

> <Gold.Chemscore.Hbond>
1.8885

> <Gold.Chemscore.Metal>
0.0000

> <Gold.Chemscore.Lipo>
74.2031

> <Gold.Chemscore.Internal_Hbond>
0.0000

> <Gold.Chemscore.DEClash>
1.6347

> <Gold.Chemscore.DEInternal>
2.9726

> <Gold.Chemscore.Rot>
1.2451

> <Gold.Chemscore.Internal.Correction>
   9.000000E+99

> <Gold.Chemscore.Hbonds>
donor molecule, donor type, donor heavy atom, donor atom, acceptor molecule, acceptor atom, score
      L1  H     3    19       P1 10175  0.99
      L1  H     9    22       P1 10175  0.95

> <Gold.Chemscore.Hbond.Weighted>
-6.3077

> <Gold.Chemscore.Metal.Weighted>
-0.0000

> <Gold.Chemscore.Lipo.Weighted>
-8.6818

> <Gold.Chemscore.Internal_Hbond.Weighted>
0.0000

> <Gold.Chemscore.DEClash.Weighted>
1.6347

> <Gold.Chemscore.DEInternal.Weighted>
2.9726

> <Gold.Chemscore.Rot.Weighted>
3.1874

> <Gold.Chemscore.Internal.Correction.Weighted>
   9.000000E+99

> <Gold.Protein.RotatedTorsions>
[ 6907 6896 6895 6894 ] final -121.03 input  -60.11 | X-H torsion
[ 7974 7965 7964 7962 ] final  170.01 input  175.53 | X-H torsion
[ 8008 7997 7996 7995 ] final  134.03 input   59.86 | X-H torsion
[ 10167 10162 10161 10158 ] final  170.07 input  -65.29 | X-H torsion
[ 10718 10713 10712 10709 ] final  156.90 input   66.30 | X-H torsion
[ 10763 10752 10751 10750 ] final -118.77 input  -60.55 | X-H torsion
[ 11005 11000 10999 10996 ] final   -3.82 input  -57.11 | X-H torsion

> <Gold.Protein.ActiveResidues>
 VAL166  LYS551  ARG553  GLY616  TRP617  ASP618  TYR619  PRO620  LYS621  CYS622 
 ASP623  PHE694  ASN695  SER759  ASP760  ASP761  ALA762  ILE779  LEU786  VAL792 
 PHE793  MET794  SER795  GLU796  ALA797  LYS798  CYS799  TRP800  GLU811  SER814 

> <Gold.Protein.RotatedAtoms>
  150.8446  133.7881  159.3047 H   0  0  0  0  0  0  0  0  0  0  0  0  # atno 6907 bound_to 6896
  151.5572  135.1064  159.9973 H   0  0  0  0  0  0  0  0  0  0  0  0  # atno 6908 bound_to 6896
  152.4503  133.7573  159.6783 H   0  0  0  0  0  0  0  0  0  0  0  0  # atno 6909 bound_to 6896
  144.7337  139.9139  143.6416 H   0  0  0  0  0  0  0  0  0  0  0  0  # atno 7974 bound_to 7965
  156.2996  140.2506  156.3350 H   0  0  0  0  0  0  0  0  0  0  0  0  # atno 8008 bound_to 7997
  154.9109  140.0403  157.1965 H   0  0  0  0  0  0  0  0  0  0  0  0  # atno 8009 bound_to 7997
  154.8406  140.2890  155.5666 H   0  0  0  0  0  0  0  0  0  0  0  0  # atno 8010 bound_to 7997
  139.5009  144.3637  151.9798 H   0  0  0  0  0  0  0  0  0  0  0  0  # atno 10167 bound_to 10162
  157.1988  131.0671  151.2037 H   0  0  0  0  0  0  0  0  0  0  0  0  # atno 10718 bound_to 10713
  154.8597  135.4262  154.2191 H   0  0  0  0  0  0  0  0  0  0  0  0  # atno 10763 bound_to 10752
  153.3200  135.6981  153.7045 H   0  0  0  0  0  0  0  0  0  0  0  0  # atno 10764 bound_to 10752
  153.6103  135.3520  155.2950 H   0  0  0  0  0  0  0  0  0  0  0  0  # atno 10765 bound_to 10752
  140.6735  133.9216  155.8509 H   0  0  0  0  0  0  0  0  0  0  0  0  # atno 11005 bound_to 11000
  146.0980  139.3973  143.0364 LP  0  0  0  0  0  0  0  0  0  0  0  0  # atno 17320 bound_to 7965
  145.7618  140.9932  143.1196 LP  0  0  0  0  0  0  0  0  0  0  0  0  # atno 17321 bound_to 7965
  140.3073  144.3578  150.6043 LP  0  0  0  0  0  0  0  0  0  0  0  0  # atno 17342 bound_to 10162
  140.5826  143.2172  151.7400 LP  0  0  0  0  0  0  0  0  0  0  0  0  # atno 17343 bound_to 10162
  157.3788  130.7220  149.6615 LP  0  0  0  0  0  0  0  0  0  0  0  0  # atno 17370 bound_to 10713
  155.9703  130.4178  150.4298 LP  0  0  0  0  0  0  0  0  0  0  0  0  # atno 17371 bound_to 10713
  141.0374  134.0670  157.3943 LP  0  0  0  0  0  0  0  0  0  0  0  0  # atno 17394 bound_to 11000
  139.8974  135.0150  156.7099 LP  0  0  0  0  0  0  0  0  0  0  0  0  # atno 17395 bound_to 11000

$$$$
