AV-unprocessed.smi:3253|AV-procd|sdf|12451|dock10
  -GOLD-   2272018343D 1   1.00000     0.00000
 Structure written by MMmdl.
 36 37  0  0  0  0  0  0  0  0  1 V2000
  152.0590  140.3802  158.8143 C   0  0  0  0  0  0  0  0  0  0  0  0
  151.8241  141.2298  157.5546 C   0  0  2  0  0  0  0  0  0  0  0  0
  150.7406  142.3136  157.7470 C   0  0  0  0  0  0  0  0  0  0  0  0
  151.1933  143.4201  158.5686 N   0  0  0  0  0  0  0  0  0  0  0  0
  151.9002  143.3474  159.7618 C   0  0  0  0  0  0  0  0  0  0  0  0
  152.1042  144.6440  160.1770 C   0  0  0  0  0  0  0  0  0  0  0  0
  151.5300  145.5247  159.2635 N   0  0  0  0  0  0  0  0  0  0  0  0
  151.0072  144.7274  158.3408 C   0  0  0  0  0  0  0  0  0  0  0  0
  151.4671  140.3510  156.4447 N   0  0  0  0  0  0  0  0  0  0  0  0
  152.1415  139.2500  156.0776 C   0  0  0  0  0  0  0  0  0  0  0  0
  153.1598  138.8597  156.6498 O   0  0  0  0  0  0  0  0  0  0  0  0
  151.5794  138.4699  154.8790 C   0  0  1  0  0  0  0  0  0  0  0  0
  151.1588  137.0416  155.2819 C   0  0  0  0  0  0  0  0  0  0  0  0
  149.6470  137.0454  155.1296 C   0  0  0  0  0  0  0  0  0  0  0  0
  148.9408  136.0907  155.4505 O   0  0  0  0  0  0  0  0  0  0  0  0
  149.2205  138.2041  154.6202 N   0  0  0  0  0  0  0  0  0  0  0  0
  147.8335  138.5537  154.3452 C   0  0  0  0  0  0  0  0  0  0  0  0
  150.3026  139.1192  154.3008 C   0  0  0  0  0  0  0  0  0  0  0  0
  152.4187  140.9869  159.6455 H   0  0  0  0  0  0  0  0  0  0  0  0
  152.8072  139.6081  158.6321 H   0  0  0  0  0  0  0  0  0  0  0  0
  151.1415  139.8859  159.1355 H   0  0  0  0  0  0  0  0  0  0  0  0
  152.7691  141.7213  157.3143 H   0  0  0  0  0  0  0  0  0  0  0  0
  150.4270  142.7176  156.7832 H   0  0  0  0  0  0  0  0  0  0  0  0
  149.8510  141.8820  158.2080 H   0  0  0  0  0  0  0  0  0  0  0  0
  152.1941  142.4065  160.2029 H   0  0  0  0  0  0  0  0  0  0  0  0
  152.6144  145.0076  161.0565 H   0  0  0  0  0  0  0  0  0  0  0  0
  150.4786  145.1029  157.4769 H   0  0  0  0  0  0  0  0  0  0  0  0
  150.6421  140.5975  155.9172 H   0  0  0  0  0  0  0  0  0  0  0  0
  152.3420  138.4191  154.0996 H   0  0  0  0  0  0  0  0  0  0  0  0
  151.5897  136.2999  154.6087 H   0  0  0  0  0  0  0  0  0  0  0  0
  151.4381  136.7723  156.3019 H   0  0  0  0  0  0  0  0  0  0  0  0
  147.4112  137.8802  153.5986 H   0  0  0  0  0  0  0  0  0  0  0  0
  147.7525  139.5730  153.9666 H   0  0  0  0  0  0  0  0  0  0  0  0
  147.2332  138.4816  155.2528 H   0  0  0  0  0  0  0  0  0  0  0  0
  150.1002  140.1091  154.7140 H   0  0  0  0  0  0  0  0  0  0  0  0
  150.3784  139.2246  153.2178 H   0  0  0  0  0  0  0  0  0  0  0  0
  1  2  1  0  0  0  0
  1 19  1  0  0  0  0
  1 20  1  0  0  0  0
  1 21  1  0  0  0  0
  2  3  1  0  0  0  0
  2  9  1  0  0  0  0
  2 22  1  0  0  0  0
  3  4  1  0  0  0  0
  3 23  1  0  0  0  0
  3 24  1  0  0  0  0
  4  8  1  0  0  0  0
  4  5  1  0  0  0  0
  5  6  2  0  0  0  0
  5 25  1  0  0  0  0
  6  7  1  0  0  0  0
  6 26  1  0  0  0  0
  7  8  2  0  0  0  0
  8 27  1  0  0  0  0
  9 10  1  0  0  0  0
  9 28  1  0  0  0  0
 10 11  2  0  0  0  0
 10 12  1  0  0  0  0
 12 18  1  0  0  0  0
 12 13  1  0  0  0  0
 12 29  1  0  0  0  0
 13 14  1  0  0  0  0
 13 30  1  0  0  0  0
 13 31  1  0  0  0  0
 14 15  2  0  0  0  0
 14 16  1  0  0  0  0
 16 17  1  0  0  0  0
 16 18  1  0  0  0  0
 17 32  1  0  0  0  0
 17 33  1  0  0  0  0
 17 34  1  0  0  0  0
 18 35  1  0  0  0  0
 18 36  1  0  0  0  0
M  END
> <s_m_source_file>
AV-unprocessed.smi

> <i_m_source_file_index>
3253

> <i_lp_mmshare_version>
43012

> <i_f3d_flags>
0

> <s_epik_input>
W2NIXTFuW2NIXVtjSF1uMVtDSDJdW0NAQEhdKFtDSDNdKVtOSF1DKD1PKVtDQEBIXTJbQ0gyXUMoPU8pTihbQ0gzXSlbQ0gyXTI=

> <s_epik_cmdline>
J2VwaWtfcHl0aG9uJywgJy1waCcsICc3LjAnLCAnLXRuJywgJzgnLCAnLW1hJywgJzIwMCcsICctbWV0YWxfYmluZGluZycsICctaW1hZScsICc8aW5maWxlLm1hZT4nLCAnLW9tYWUnLCAnPG91dGZpbGUubWFlPic=

> <r_lp_tautomer_probability>
1

> <r_epik_Ionization_Penalty>
0.628884

> <r_epik_Ionization_Penalty_Charging>
0.628884

> <r_epik_Ionization_Penalty_Neutral>
2.35084e-08

> <r_epik_State_Penalty>
0.64556

> <r_epik_Charging_Adjusted_Penalty>
1.27444

> <i_epik_Tot_Q>
0

> <i_epik_Tot_abs_Q>
0

> <r_epik_Metal_State_Penalty>
0.308736

> <b_epik_Metal_Only>
0

> <s_lp_Force_Field>
OPLS_2005

> <r_lp_Energy>
12.6609

> <b_lp_Chiralities_Consistent>
1

> <s_lp_Variant>
AV-unprocessed.smi:3253-7

> <Gold.Version>
5.8.1

> <Gold.Id.Protein>
6NUR|6NUR_protein|mol2

> <Gold.PLP.Fitness>
39.2217

> <Gold.PLP.PLP>
-34.5419

> <Gold.PLP.part.hbond>
-1.9640

> <Gold.PLP.part.metal>
0.0000

> <Gold.PLP.part.buried>
-4.9680

> <Gold.PLP.part.nonpolar>
-28.0842

> <Gold.PLP.part.repulsive>
0.3650

> <Gold.PLP.ligand.clash>
0.6140

> <Gold.PLP.ligand.torsion>
0.3687

> <Gold.PLP.Chemscore.Hbond>
1.0000

> <Gold.PLP.Chemscore.CHOScore>
1.0000

> <Gold.PLP.Chemscore.Metal>
0.0000

> <Gold.Chemscore.Hbonds>
donor molecule, donor type, donor heavy atom, donor atom, acceptor molecule, acceptor atom, score
      P1  H  7997  8010       L1    11  1.00
      L1  C     8    27       P1  8028  0.79
      L1  C     8    27       P1  8029  0.07

> <Gold.PLP.Chemscore.Internal.Correction>
0.0312

> <Gold.Rescore>
     Score         DG    S(hbond)    S(metal)    S(lipo)     H(rot)  DE(clash)    DE(int)     intcor
      9.68     -11.57       0.90        0.00      69.38       1.97       0.05       1.83       ----

> <Gold.Chemscore.Fitness>
9.6845

> <Gold.Chemscore.DG>
-11.5698

> <Gold.Chemscore.ZeroCoef>
-5.4800

> <Gold.Chemscore.Hbond>
0.9005

> <Gold.Chemscore.Metal>
0.0000

> <Gold.Chemscore.Lipo>
69.3802

> <Gold.Chemscore.Internal_Hbond>
0.0000

> <Gold.Chemscore.DEClash>
0.0504

> <Gold.Chemscore.DEInternal>
1.8349

> <Gold.Chemscore.Rot>
1.9669

> <Gold.Chemscore.Internal.Correction>
   9.000000E+99

> <Gold.Chemscore.Hbonds>
donor molecule, donor type, donor heavy atom, donor atom, acceptor molecule, acceptor atom, score
      P1  H  7997  8010       L1    11  0.86

> <Gold.Chemscore.Hbond.Weighted>
-3.0075

> <Gold.Chemscore.Metal.Weighted>
-0.0000

> <Gold.Chemscore.Lipo.Weighted>
-8.1175

> <Gold.Chemscore.Internal_Hbond.Weighted>
0.0000

> <Gold.Chemscore.DEClash.Weighted>
0.0504

> <Gold.Chemscore.DEInternal.Weighted>
1.8349

> <Gold.Chemscore.Rot.Weighted>
5.0352

> <Gold.Chemscore.Internal.Correction.Weighted>
   9.000000E+99

> <Gold.Protein.RotatedTorsions>
[ 6907 6896 6895 6894 ] final -120.06 input  -60.11 | X-H torsion
[ 7974 7965 7964 7962 ] final  164.62 input  175.53 | X-H torsion
[ 8008 7997 7996 7995 ] final   53.55 input   59.86 | X-H torsion
[ 10167 10162 10161 10158 ] final   21.80 input  -65.29 | X-H torsion
[ 10718 10713 10712 10709 ] final   55.48 input   66.30 | X-H torsion
[ 10763 10752 10751 10750 ] final -149.25 input  -60.55 | X-H torsion
[ 11005 11000 10999 10996 ] final -177.63 input  -57.11 | X-H torsion

> <Gold.Protein.ActiveResidues>
 VAL166  LYS551  ARG553  GLY616  TRP617  ASP618  TYR619  PRO620  LYS621  CYS622 
 ASP623  PHE694  ASN695  SER759  ASP760  ASP761  ALA762  ILE779  LEU786  VAL792 
 PHE793  MET794  SER795  GLU796  ALA797  LYS798  CYS799  TRP800  GLU811  SER814 

> <Gold.Protein.RotatedAtoms>
  150.8359  133.8014  159.3079 H   0  0  0  0  0  0  0  0  0  0  0  0  # atno 6907 bound_to 6896
  151.5730  135.1060  160.0009 H   0  0  0  0  0  0  0  0  0  0  0  0  # atno 6908 bound_to 6896
  152.4432  133.7444  159.6715 H   0  0  0  0  0  0  0  0  0  0  0  0  # atno 6909 bound_to 6896
  144.7537  139.8352  143.6357 H   0  0  0  0  0  0  0  0  0  0  0  0  # atno 7974 bound_to 7965
  155.4701  140.3465  155.4324 H   0  0  0  0  0  0  0  0  0  0  0  0  # atno 8008 bound_to 7997
  156.1105  140.1460  156.9373 H   0  0  0  0  0  0  0  0  0  0  0  0  # atno 8009 bound_to 7997
  154.4753  140.0887  156.7226 H   0  0  0  0  0  0  0  0  0  0  0  0  # atno 8010 bound_to 7997
  140.5398  143.9697  150.6513 H   0  0  0  0  0  0  0  0  0  0  0  0  # atno 10167 bound_to 10162
  157.5349  130.8656  149.8739 H   0  0  0  0  0  0  0  0  0  0  0  0  # atno 10718 bound_to 10713
  154.8188  135.3314  154.7100 H   0  0  0  0  0  0  0  0  0  0  0  0  # atno 10763 bound_to 10752
  153.7736  135.6924  153.4906 H   0  0  0  0  0  0  0  0  0  0  0  0  # atno 10764 bound_to 10752
  153.2028  135.4510  155.0235 H   0  0  0  0  0  0  0  0  0  0  0  0  # atno 10765 bound_to 10752
  140.4388  134.6451  157.4747 H   0  0  0  0  0  0  0  0  0  0  0  0  # atno 11005 bound_to 11000
  146.1521  139.4607  143.0042 LP  0  0  0  0  0  0  0  0  0  0  0  0  # atno 17320 bound_to 7965
  145.6853  141.0179  143.1584 LP  0  0  0  0  0  0  0  0  0  0  0  0  # atno 17321 bound_to 7965
  140.3094  143.3208  152.0894 LP  0  0  0  0  0  0  0  0  0  0  0  0  # atno 17342 bound_to 10162
  139.4984  144.6646  151.6386 LP  0  0  0  0  0  0  0  0  0  0  0  0  # atno 17343 bound_to 10162
  156.0450  130.3730  150.1339 LP  0  0  0  0  0  0  0  0  0  0  0  0  # atno 17370 bound_to 10713
  156.9522  130.9778  151.3496 LP  0  0  0  0  0  0  0  0  0  0  0  0  # atno 17371 bound_to 10713
  140.0084  134.6728  155.9419 LP  0  0  0  0  0  0  0  0  0  0  0  0  # atno 17394 bound_to 11000
  141.1714  133.6537  156.4667 LP  0  0  0  0  0  0  0  0  0  0  0  0  # atno 17395 bound_to 11000

$$$$
