AV-unprocessed.smi:1123|AV-procd|sdf|4830|dock6
  -GOLD-   22720 3393D 1   1.00000     0.00000
 Structure written by MMmdl.
 37 38  0  0  0  0  0  0  0  0  1 V2000
  152.5914  142.5938  161.8557 C   0  0  0  0  0  0  0  0  0  0  0  0
  152.7249  142.9313  160.3567 C   0  0  1  0  0  0  0  0  0  0  0  0
  152.4962  141.7134  159.4464 C   0  0  0  0  0  0  0  0  0  0  0  0
  153.2692  140.7550  159.4700 O   0  0  0  0  0  0  0  0  0  0  0  0
  151.4218  141.7662  158.6427 N   0  0  0  0  0  0  0  0  0  0  0  0
  151.0171  140.7180  157.7143 C   0  0  0  0  0  0  0  0  0  0  0  0
  151.0043  141.2294  156.2614 C   0  0  0  0  0  0  0  0  0  0  0  0
  150.8734  140.1888  155.2432 N   0  0  0  0  0  0  0  0  0  0  0  0
  149.5548  139.5587  155.2466 C   0  0  0  0  0  0  0  0  0  0  0  0
  149.4469  138.4464  154.1883 C   0  0  0  0  0  0  0  0  0  0  0  0
  150.4727  137.4817  154.3986 O   0  0  0  0  0  0  0  0  0  0  0  0
  151.7771  138.0505  154.3549 C   0  0  0  0  0  0  0  0  0  0  0  0
  151.8909  139.1573  155.4174 C   0  0  0  0  0  0  0  0  0  0  0  0
  151.8515  144.0305  159.9635 N   0  0  0  0  0  0  0  0  0  0  0  0
  152.1564  145.2514  159.5187 C   0  0  0  0  0  0  0  0  0  0  0  0
  151.1011  145.9920  159.2105 N   0  0  0  0  0  0  0  0  0  0  0  0
  150.1060  145.1020  159.4999 C   0  0  0  0  0  0  0  0  0  0  0  0
  150.5004  143.9092  159.9447 N   0  0  0  0  0  0  0  0  0  0  0  0
  153.2919  141.8101  162.1457 H   0  0  0  0  0  0  0  0  0  0  0  0
  151.5879  142.2509  162.1113 H   0  0  0  0  0  0  0  0  0  0  0  0
  152.8073  143.4679  162.4706 H   0  0  0  0  0  0  0  0  0  0  0  0
  153.7511  143.2645  160.1935 H   0  0  0  0  0  0  0  0  0  0  0  0
  150.8387  142.5894  158.6825 H   0  0  0  0  0  0  0  0  0  0  0  0
  151.7230  139.8962  157.8288 H   0  0  0  0  0  0  0  0  0  0  0  0
  150.0361  140.3291  157.9923 H   0  0  0  0  0  0  0  0  0  0  0  0
  150.1671  141.9210  156.1582 H   0  0  0  0  0  0  0  0  0  0  0  0
  151.9027  141.8190  156.0729 H   0  0  0  0  0  0  0  0  0  0  0  0
  149.3470  139.1398  156.2323 H   0  0  0  0  0  0  0  0  0  0  0  0
  148.7801  140.2986  155.0504 H   0  0  0  0  0  0  0  0  0  0  0  0
  148.4762  137.9548  154.2519 H   0  0  0  0  0  0  0  0  0  0  0  0
  149.5303  138.8618  153.1829 H   0  0  0  0  0  0  0  0  0  0  0  0
  152.5138  137.2689  154.5404 H   0  0  0  0  0  0  0  0  0  0  0  0
  151.9753  138.4488  153.3586 H   0  0  0  0  0  0  0  0  0  0  0  0
  152.8841  139.6043  155.3646 H   0  0  0  0  0  0  0  0  0  0  0  0
  151.8017  138.7134  156.4101 H   0  0  0  0  0  0  0  0  0  0  0  0
  153.1716  145.6049  159.4148 H   0  0  0  0  0  0  0  0  0  0  0  0
  149.0598  145.3383  159.3733 H   0  0  0  0  0  0  0  0  0  0  0  0
  1  2  1  0  0  0  0
  1 19  1  0  0  0  0
  1 20  1  0  0  0  0
  1 21  1  0  0  0  0
  2  3  1  0  0  0  0
  2 14  1  0  0  0  0
  2 22  1  0  0  0  0
  3  4  2  0  0  0  0
  3  5  1  0  0  0  0
  5  6  1  0  0  0  0
  5 23  1  0  0  0  0
  6  7  1  0  0  0  0
  6 24  1  0  0  0  0
  6 25  1  0  0  0  0
  7  8  1  0  0  0  0
  7 26  1  0  0  0  0
  7 27  1  0  0  0  0
  8 13  1  0  0  0  0
  8  9  1  0  0  0  0
  9 10  1  0  0  0  0
  9 28  1  0  0  0  0
  9 29  1  0  0  0  0
 10 11  1  0  0  0  0
 10 30  1  0  0  0  0
 10 31  1  0  0  0  0
 11 12  1  0  0  0  0
 12 13  1  0  0  0  0
 12 32  1  0  0  0  0
 12 33  1  0  0  0  0
 13 34  1  0  0  0  0
 13 35  1  0  0  0  0
 14 18  1  0  0  0  0
 14 15  1  0  0  0  0
 15 16  2  0  0  0  0
 15 36  1  0  0  0  0
 16 17  1  0  0  0  0
 17 18  2  0  0  0  0
 17 37  1  0  0  0  0
M  END
> <s_m_source_file>
AV-unprocessed.smi

> <i_m_source_file_index>
1123

> <i_lp_mmshare_version>
43012

> <i_f3d_flags>
0

> <s_epik_input>
bjFbY0hdbltjSF1uMVtDQEhdKFtDSDNdKUMoPU8pW05IXVtDSDJdW0NIMl1OMltDSDJdW0NIMl1PW0NIMl1bQ0gyXTI=

> <s_epik_cmdline>
J2VwaWtfcHl0aG9uJywgJy1waCcsICc3LjAnLCAnLXRuJywgJzgnLCAnLW1hJywgJzIwMCcsICctbWV0YWxfYmluZGluZycsICctaW1hZScsICc8aW5maWxlLm1hZT4nLCAnLW9tYWUnLCAnPG91dGZpbGUubWFlPic=

> <r_lp_tautomer_probability>
1

> <r_epik_Ionization_Penalty>
0.211373

> <r_epik_Ionization_Penalty_Charging>
0

> <r_epik_Ionization_Penalty_Neutral>
0.211373

> <r_epik_State_Penalty>
0.201459

> <r_epik_Charging_Adjusted_Penalty>
0.201459

> <i_epik_Tot_Q>
0

> <i_epik_Tot_abs_Q>
0

> <r_epik_Metal_State_Penalty>
0.201458

> <b_epik_Metal_Only>
0

> <s_lp_Force_Field>
OPLS_2005

> <r_lp_Energy>
26.9465

> <b_lp_Chiralities_Consistent>
1

> <s_lp_Variant>
AV-unprocessed.smi:1123-2

> <Gold.Version>
5.8.1

> <Gold.Id.Protein>
6NUR|6NUR_protein|mol2

> <Gold.PLP.Fitness>
45.7585

> <Gold.PLP.PLP>
-40.1729

> <Gold.PLP.part.hbond>
-3.4250

> <Gold.PLP.part.metal>
0.0000

> <Gold.PLP.part.buried>
-5.3331

> <Gold.PLP.part.nonpolar>
-31.9654

> <Gold.PLP.part.repulsive>
0.6513

> <Gold.PLP.ligand.clash>
0.0000

> <Gold.PLP.ligand.torsion>
0.2550

> <Gold.PLP.Chemscore.Hbond>
1.0000

> <Gold.PLP.Chemscore.CHOScore>
0.9875

> <Gold.PLP.Chemscore.Metal>
0.0000

> <Gold.Chemscore.Hbonds>
donor molecule, donor type, donor heavy atom, donor atom, acceptor molecule, acceptor atom, score
      P1  H  7989  7998       L1     8  0.75
      L1  C    17    37       P1  8029  0.95

> <Gold.PLP.Chemscore.Internal.Correction>
0.1332

> <Gold.Rescore>
     Score         DG    S(hbond)    S(metal)    S(lipo)     H(rot)  DE(clash)    DE(int)     intcor
      5.25      -7.39       0.26        0.00      66.16       2.61       0.42       1.72       ----

> <Gold.Chemscore.Fitness>
5.2543

> <Gold.Chemscore.DG>
-7.3931

> <Gold.Chemscore.ZeroCoef>
-5.4800

> <Gold.Chemscore.Hbond>
0.2555

> <Gold.Chemscore.Metal>
0.0000

> <Gold.Chemscore.Lipo>
66.1585

> <Gold.Chemscore.Internal_Hbond>
0.0000

> <Gold.Chemscore.DEClash>
0.4215

> <Gold.Chemscore.DEInternal>
1.7173

> <Gold.Chemscore.Rot>
2.6097

> <Gold.Chemscore.Internal.Correction>
   9.000000E+99

> <Gold.Chemscore.Hbonds>
donor molecule, donor type, donor heavy atom, donor atom, acceptor molecule, acceptor atom, score
      P1  H  7989  7998       L1     8  0.06

> <Gold.Chemscore.Hbond.Weighted>
-0.8534

> <Gold.Chemscore.Metal.Weighted>
-0.0000

> <Gold.Chemscore.Lipo.Weighted>
-7.7405

> <Gold.Chemscore.Internal_Hbond.Weighted>
0.0000

> <Gold.Chemscore.DEClash.Weighted>
0.4215

> <Gold.Chemscore.DEInternal.Weighted>
1.7173

> <Gold.Chemscore.Rot.Weighted>
6.6809

> <Gold.Chemscore.Internal.Correction.Weighted>
   9.000000E+99

> <Gold.Protein.RotatedTorsions>
[ 6907 6896 6895 6894 ] final -172.04 input  -60.11 | X-H torsion
[ 7974 7965 7964 7962 ] final -111.06 input  175.53 | X-H torsion
[ 8008 7997 7996 7995 ] final -106.35 input   59.86 | X-H torsion
[ 10167 10162 10161 10158 ] final   18.74 input  -65.29 | X-H torsion
[ 10718 10713 10712 10709 ] final  156.38 input   66.30 | X-H torsion
[ 10763 10752 10751 10750 ] final  154.84 input  -60.55 | X-H torsion
[ 11005 11000 10999 10996 ] final  -80.96 input  -57.11 | X-H torsion

> <Gold.Protein.ActiveResidues>
 VAL166  LYS551  ARG553  GLY616  TRP617  ASP618  TYR619  PRO620  LYS621  CYS622 
 ASP623  PHE694  ASN695  SER759  ASP760  ASP761  ALA762  ILE779  LEU786  VAL792 
 PHE793  MET794  SER795  GLU796  ALA797  LYS798  CYS799  TRP800  GLU811  SER814 

> <Gold.Protein.RotatedAtoms>
  151.5335  133.3445  159.2922 H   0  0  0  0  0  0  0  0  0  0  0  0  # atno 6907 bound_to 6896
  150.8579  134.7925  159.7071 H   0  0  0  0  0  0  0  0  0  0  0  0  # atno 6908 bound_to 6896
  152.4607  134.5199  159.9831 H   0  0  0  0  0  0  0  0  0  0  0  0  # atno 6909 bound_to 6896
  145.1606  140.8876  143.3593 H   0  0  0  0  0  0  0  0  0  0  0  0  # atno 7974 bound_to 7965
  154.9132  140.0409  157.1957 H   0  0  0  0  0  0  0  0  0  0  0  0  # atno 8008 bound_to 7997
  154.8327  140.2902  155.5690 H   0  0  0  0  0  0  0  0  0  0  0  0  # atno 8009 bound_to 7997
  156.2988  140.2497  156.3256 H   0  0  0  0  0  0  0  0  0  0  0  0  # atno 8010 bound_to 7997
  140.5631  143.9301  150.6656 H   0  0  0  0  0  0  0  0  0  0  0  0  # atno 10167 bound_to 10162
  157.2057  131.0686  151.1999 H   0  0  0  0  0  0  0  0  0  0  0  0  # atno 10718 bound_to 10713
  154.1588  135.2811  155.3114 H   0  0  0  0  0  0  0  0  0  0  0  0  # atno 10763 bound_to 10752
  154.6162  135.5482  153.7529 H   0  0  0  0  0  0  0  0  0  0  0  0  # atno 10764 bound_to 10752
  153.0198  135.6427  154.1731 H   0  0  0  0  0  0  0  0  0  0  0  0  # atno 10765 bound_to 10752
  141.1667  133.7174  156.8350 H   0  0  0  0  0  0  0  0  0  0  0  0  # atno 11005 bound_to 11000
  145.0335  139.3321  143.6013 LP  0  0  0  0  0  0  0  0  0  0  0  0  # atno 17320 bound_to 7965
  146.3483  139.9681  142.8709 LP  0  0  0  0  0  0  0  0  0  0  0  0  # atno 17321 bound_to 7965
  140.2757  143.3424  152.1197 LP  0  0  0  0  0  0  0  0  0  0  0  0  # atno 17342 bound_to 10162
  139.5079  144.6841  151.5933 LP  0  0  0  0  0  0  0  0  0  0  0  0  # atno 17343 bound_to 10162
  157.3723  130.7187  149.6573 LP  0  0  0  0  0  0  0  0  0  0  0  0  # atno 17370 bound_to 10713
  155.9696  130.4195  150.4380 LP  0  0  0  0  0  0  0  0  0  0  0  0  # atno 17371 bound_to 10713
  140.2023  134.8888  157.3183 LP  0  0  0  0  0  0  0  0  0  0  0  0  # atno 17394 bound_to 11000
  140.2174  134.4065  155.7582 LP  0  0  0  0  0  0  0  0  0  0  0  0  # atno 17395 bound_to 11000

$$$$
