AV-unprocessed.smi:1769|AV-procd|sdf|7154|dock9
  -GOLD-   22720 8393D 1   1.00000     0.00000
 Structure written by MMmdl.
 42 43  0  0  0  0  0  0  0  0  2 V2000
  151.9349  145.4222  160.7065 C   0  0  0  0  0  0  0  0  0  0  0  0
  151.4321  144.9270  159.3486 C   0  0  0  0  0  0  0  0  0  0  0  0
  150.3922  145.4134  158.9033 O   0  0  0  0  0  0  0  0  0  0  0  0
  152.1371  143.9780  158.6871 N   0  0  0  0  0  0  0  0  0  0  0  0
  153.3372  143.3000  159.1939 C   0  0  0  0  0  0  0  0  0  0  0  0
  152.9778  141.8403  159.5262 C   0  0  0  0  0  0  0  0  0  0  0  0
  152.3738  141.1260  158.3013 C   0  0  0  0  0  0  0  0  0  0  0  0
  151.2201  141.9440  157.6751 C   0  0  2  0  0  0  0  0  0  0  0  0
  150.7133  141.3054  156.3767 C   0  0  0  0  0  0  0  0  0  0  0  0
  151.2125  140.2577  155.9644 O   0  0  0  0  0  0  0  0  0  0  0  0
  149.7446  141.9675  155.7233 N   0  0  0  0  0  0  0  0  0  0  0  0
  149.1869  141.5934  154.4258 C   0  0  0  0  0  0  0  0  0  0  0  0
  147.7916  140.9492  154.5533 C   0  0  0  0  0  0  0  0  0  0  0  0
  146.6677  141.9577  154.7225 C   0  0  0  0  0  0  0  0  0  0  0  0
  146.3717  142.8875  153.7003 C   0  0  0  0  0  0  0  0  0  0  0  0
  145.2968  143.7844  153.8706 C   0  0  0  0  0  0  0  0  0  0  0  0
  144.5443  143.7350  155.0618 C   0  0  0  0  0  0  0  0  0  0  0  0
  144.8605  142.8362  156.0199 N   0  3  0  0  0  0  0  0  0  0  0  0
  145.8811  141.9599  155.8945 C   0  0  0  0  0  0  0  0  0  0  0  0
  151.6825  143.3959  157.4191 C   0  0  0  0  0  0  0  0  0  0  0  0
  152.0131  144.5976  161.4156 H   0  0  0  0  0  0  0  0  0  0  0  0
  151.2475  146.1574  161.1267 H   0  0  0  0  0  0  0  0  0  0  0  0
  152.9107  145.8981  160.6060 H   0  0  0  0  0  0  0  0  0  0  0  0
  154.1130  143.3264  158.4272 H   0  0  0  0  0  0  0  0  0  0  0  0
  153.7759  143.7821  160.0663 H   0  0  0  0  0  0  0  0  0  0  0  0
  153.8629  141.3049  159.8705 H   0  0  0  0  0  0  0  0  0  0  0  0
  152.2639  141.8206  160.3507 H   0  0  0  0  0  0  0  0  0  0  0  0
  153.1633  140.9709  157.5641 H   0  0  0  0  0  0  0  0  0  0  0  0
  152.0226  140.1341  158.5885 H   0  0  0  0  0  0  0  0  0  0  0  0
  150.3958  141.9700  158.3908 H   0  0  0  0  0  0  0  0  0  0  0  0
  149.3915  142.8170  156.1405 H   0  0  0  0  0  0  0  0  0  0  0  0
  149.1411  142.4601  153.7644 H   0  0  0  0  0  0  0  0  0  0  0  0
  149.8713  140.8892  153.9523 H   0  0  0  0  0  0  0  0  0  0  0  0
  147.5873  140.3439  153.6695 H   0  0  0  0  0  0  0  0  0  0  0  0
  147.7825  140.2603  155.3989 H   0  0  0  0  0  0  0  0  0  0  0  0
  146.9497  142.9042  152.7878 H   0  0  0  0  0  0  0  0  0  0  0  0
  145.0502  144.4954  153.0956 H   0  0  0  0  0  0  0  0  0  0  0  0
  143.7046  144.3801  155.2750 H   0  0  0  0  0  0  0  0  0  0  0  0
  146.0274  141.2832  156.7237 H   0  0  0  0  0  0  0  0  0  0  0  0
  150.8791  143.9744  156.9606 H   0  0  0  0  0  0  0  0  0  0  0  0
  152.5051  143.4179  156.7020 H   0  0  0  0  0  0  0  0  0  0  0  0
  144.3019  142.8152  156.8733 H   0  0  0  0  0  0  0  0  0  0  0  0
  1  2  1  0  0  0  0
  1 21  1  0  0  0  0
  1 22  1  0  0  0  0
  1 23  1  0  0  0  0
  2  3  2  0  0  0  0
  2  4  1  0  0  0  0
  4 20  1  0  0  0  0
  4  5  1  0  0  0  0
  5  6  1  0  0  0  0
  5 24  1  0  0  0  0
  5 25  1  0  0  0  0
  6  7  1  0  0  0  0
  6 26  1  0  0  0  0
  6 27  1  0  0  0  0
  7  8  1  0  0  0  0
  7 28  1  0  0  0  0
  7 29  1  0  0  0  0
  8  9  1  0  0  0  0
  8 20  1  0  0  0  0
  8 30  1  0  0  0  0
  9 10  2  0  0  0  0
  9 11  1  0  0  0  0
 11 12  1  0  0  0  0
 11 31  1  0  0  0  0
 12 13  1  0  0  0  0
 12 32  1  0  0  0  0
 12 33  1  0  0  0  0
 13 14  1  0  0  0  0
 13 34  1  0  0  0  0
 13 35  1  0  0  0  0
 14 19  1  0  0  0  0
 14 15  2  0  0  0  0
 15 16  1  0  0  0  0
 15 36  1  0  0  0  0
 16 17  2  0  0  0  0
 16 37  1  0  0  0  0
 17 18  1  0  0  0  0
 17 38  1  0  0  0  0
 18 19  2  0  0  0  0
 18 42  1  0  0  0  0
 19 39  1  0  0  0  0
 20 40  1  0  0  0  0
 20 41  1  0  0  0  0
M  CHG  1  18   1
M  END
> <s_m_source_file>
AV-unprocessed.smi

> <i_m_source_file_index>
1769

> <i_lp_mmshare_version>
43012

> <i_f3d_flags>
0

> <s_epik_input>
W0NIM11DKD1PKU4xW0NIMl1bQ0gyXVtDSDJdW0NASF0oW0NIMl0xKUMoPU8pW05IXVtDSDJdW0NIMl1jMltjSF1bY0hdW2NIXW5bY0hdMg==

> <s_epik_cmdline>
J2VwaWtfcHl0aG9uJywgJy1waCcsICc3LjAnLCAnLXRuJywgJzgnLCAnLW1hJywgJzIwMCcsICctbWV0YWxfYmluZGluZycsICctaW1hZScsICc8aW5maWxlLm1hZT4nLCAnLW9tYWUnLCAnPG91dGZpbGUubWFlPic=

> <r_epik_Ionization_Penalty>
2.25127

> <r_epik_Ionization_Penalty_Charging>
2.25127

> <r_epik_Ionization_Penalty_Neutral>
1.02261e-06

> <r_epik_State_Penalty>
2.39841

> <r_epik_Charging_Adjusted_Penalty>
4.64968

> <i_epik_Tot_Q>
1

> <i_epik_Tot_abs_Q>
1

> <r_epik_Metal_State_Penalty>
2.41159

> <b_epik_Metal_Only>
0

> <s_lp_Force_Field>
OPLS_2005

> <r_lp_Energy>
29.6354

> <b_lp_Chiralities_Consistent>
1

> <s_lp_Variant>
AV-unprocessed.smi:1769-4

> <Gold.Version>
5.8.1

> <Gold.Id.Protein>
6NUR|6NUR_protein|mol2

> <Gold.PLP.Fitness>
47.3493

> <Gold.PLP.PLP>
-45.2985

> <Gold.PLP.part.hbond>
-1.5687

> <Gold.PLP.part.metal>
0.0000

> <Gold.PLP.part.buried>
-4.5279

> <Gold.PLP.part.nonpolar>
-39.3771

> <Gold.PLP.part.repulsive>
1.0626

> <Gold.PLP.ligand.clash>
0.0000

> <Gold.PLP.ligand.torsion>
0.2366

> <Gold.PLP.Chemscore.Hbond>
0.8320

> <Gold.PLP.Chemscore.CHOScore>
0.0000

> <Gold.PLP.Chemscore.Metal>
0.0000

> <Gold.Chemscore.Hbonds>
donor molecule, donor type, donor heavy atom, donor atom, acceptor molecule, acceptor atom, score
      L1  H    11    31       P1  8028  0.82

> <Gold.PLP.Chemscore.Internal.Correction>
0.0280

> <Gold.Rescore>
     Score         DG    S(hbond)    S(metal)    S(lipo)     H(rot)  DE(clash)    DE(int)     intcor
     15.31     -16.18       0.88        0.00     101.57       1.61       0.64       0.23       ----

> <Gold.Chemscore.Fitness>
15.3054

> <Gold.Chemscore.DG>
-16.1772

> <Gold.Chemscore.ZeroCoef>
-5.4800

> <Gold.Chemscore.Hbond>
0.8788

> <Gold.Chemscore.Metal>
0.0000

> <Gold.Chemscore.Lipo>
101.5691

> <Gold.Chemscore.Internal_Hbond>
0.0000

> <Gold.Chemscore.DEClash>
0.6441

> <Gold.Chemscore.DEInternal>
0.2277

> <Gold.Chemscore.Rot>
1.6100

> <Gold.Chemscore.Internal.Correction>
   9.000000E+99

> <Gold.Chemscore.Hbonds>
donor molecule, donor type, donor heavy atom, donor atom, acceptor molecule, acceptor atom, score
      L1  H    11    31       P1  8028  0.76

> <Gold.Chemscore.Hbond.Weighted>
-2.9352

> <Gold.Chemscore.Metal.Weighted>
-0.0000

> <Gold.Chemscore.Lipo.Weighted>
-11.8836

> <Gold.Chemscore.Internal_Hbond.Weighted>
0.0000

> <Gold.Chemscore.DEClash.Weighted>
0.6441

> <Gold.Chemscore.DEInternal.Weighted>
0.2277

> <Gold.Chemscore.Rot.Weighted>
4.1216

> <Gold.Chemscore.Internal.Correction.Weighted>
   9.000000E+99

> <Gold.Protein.RotatedTorsions>
[ 6907 6896 6895 6894 ] final    1.49 input  -60.11 | X-H torsion
[ 7974 7965 7964 7962 ] final -103.35 input  175.53 | X-H torsion
[ 8008 7997 7996 7995 ] final  -55.32 input   59.86 | X-H torsion
[ 10167 10162 10161 10158 ] final   99.27 input  -65.29 | X-H torsion
[ 10718 10713 10712 10709 ] final  -10.86 input   66.30 | X-H torsion
[ 10763 10752 10751 10750 ] final   32.25 input  -60.55 | X-H torsion
[ 11005 11000 10999 10996 ] final  115.57 input  -57.11 | X-H torsion

> <Gold.Protein.ActiveResidues>
 VAL166  LYS551  ARG553  GLY616  TRP617  ASP618  TYR619  PRO620  LYS621  CYS622 
 ASP623  PHE694  ASN695  SER759  ASP760  ASP761  ALA762  ILE779  LEU786  VAL792 
 PHE793  MET794  SER795  GLU796  ALA797  LYS798  CYS799  TRP800  GLU811  SER814 

> <Gold.Protein.RotatedAtoms>
  151.5934  135.1052  160.0043 H   0  0  0  0  0  0  0  0  0  0  0  0  # atno 6907 bound_to 6896
  152.4294  133.7248  159.6564 H   0  0  0  0  0  0  0  0  0  0  0  0  # atno 6908 bound_to 6896
  150.8186  133.8222  159.3172 H   0  0  0  0  0  0  0  0  0  0  0  0  # atno 6909 bound_to 6896
  145.2570  140.9257  143.3062 H   0  0  0  0  0  0  0  0  0  0  0  0  # atno 7974 bound_to 7965
  154.4191  140.1155  156.5458 H   0  0  0  0  0  0  0  0  0  0  0  0  # atno 8008 bound_to 7997
  155.6461  140.3496  155.4712 H   0  0  0  0  0  0  0  0  0  0  0  0  # atno 8009 bound_to 7997
  155.9831  140.1164  157.0698 H   0  0  0  0  0  0  0  0  0  0  0  0  # atno 8010 bound_to 7997
  139.7632  144.6947  151.0262 H   0  0  0  0  0  0  0  0  0  0  0  0  # atno 10167 bound_to 10162
  156.6674  130.4999  149.6011 H   0  0  0  0  0  0  0  0  0  0  0  0  # atno 10718 bound_to 10713
  153.0272  135.6418  154.1326 H   0  0  0  0  0  0  0  0  0  0  0  0  # atno 10763 bound_to 10752
  154.1054  135.2856  155.3244 H   0  0  0  0  0  0  0  0  0  0  0  0  # atno 10764 bound_to 10752
  154.6369  135.5473  153.7807 H   0  0  0  0  0  0  0  0  0  0  0  0  # atno 10765 bound_to 10752
  139.9014  134.9586  156.7065 H   0  0  0  0  0  0  0  0  0  0  0  0  # atno 11005 bound_to 11000
  144.9452  139.4144  143.6429 LP  0  0  0  0  0  0  0  0  0  0  0  0  # atno 17320 bound_to 7965
  146.3286  139.8432  142.8886 LP  0  0  0  0  0  0  0  0  0  0  0  0  # atno 17321 bound_to 7965
  140.7809  143.4673  151.0195 LP  0  0  0  0  0  0  0  0  0  0  0  0  # atno 17342 bound_to 10162
  139.8358  143.7629  152.3180 LP  0  0  0  0  0  0  0  0  0  0  0  0  # atno 17343 bound_to 10162
  156.1965  130.6592  151.1119 LP  0  0  0  0  0  0  0  0  0  0  0  0  # atno 17370 bound_to 10713
  157.7089  131.0743  150.6571 LP  0  0  0  0  0  0  0  0  0  0  0  0  # atno 17371 bound_to 10713
  140.7109  133.9224  155.8084 LP  0  0  0  0  0  0  0  0  0  0  0  0  # atno 17394 bound_to 11000
  141.0301  134.0768  157.4024 LP  0  0  0  0  0  0  0  0  0  0  0  0  # atno 17395 bound_to 11000

$$$$
