AV-unprocessed.smi:2667|AV-procd|sdf|10334|dock9
  -GOLD-   2272014353D 1   1.00000     0.00000
 Structure written by MMmdl.
 44 46  0  0  0  0  0  0  0  0  1 V2000
  144.4382  146.0129  155.9911 C   0  0  0  0  0  0  0  0  0  0  0  0
  144.4446  144.7419  155.1270 C   0  0  0  0  0  0  0  0  0  0  0  0
  144.9635  143.4934  155.8572 C   0  0  0  0  0  0  0  0  0  0  0  0
  144.3800  143.0864  156.8630 O   0  0  0  0  0  0  0  0  0  0  0  0
  146.1729  142.8236  155.2966 C   0  0  0  0  0  0  0  0  0  0  0  0
  146.6919  143.1571  154.0237 C   0  0  0  0  0  0  0  0  0  0  0  0
  147.8323  142.5009  153.5229 C   0  0  0  0  0  0  0  0  0  0  0  0
  148.4821  141.5015  154.2736 C   0  0  0  0  0  0  0  0  0  0  0  0
  149.5878  140.9080  153.7040 O   0  0  0  0  0  0  0  0  0  0  0  0
  150.2532  139.8818  154.4298 C   0  0  0  0  0  0  0  0  0  0  0  0
  151.2288  140.5040  155.4428 C   0  0  2  0  0  0  0  0  0  0  0  0
  152.4419  139.7738  155.4165 O   0  0  0  0  0  0  0  0  0  0  0  0
  150.6264  140.7038  156.8595 C   0  0  0  0  0  0  0  0  0  0  0  0
  151.2355  141.7782  157.6264 N   0  0  0  0  0  0  0  0  0  0  0  0
  151.1515  143.0998  157.3787 C   0  0  0  0  0  0  0  0  0  0  0  0
  151.7987  143.9174  158.2039 N   0  0  0  0  0  0  0  0  0  0  0  0
  152.3648  143.0225  159.0958 C   0  0  0  0  0  0  0  0  0  0  0  0
  153.1851  143.2481  160.2244 C   0  0  0  0  0  0  0  0  0  0  0  0
  153.6504  142.1641  160.9979 C   0  0  0  0  0  0  0  0  0  0  0  0
  153.3004  140.8411  160.6581 C   0  0  0  0  0  0  0  0  0  0  0  0
  152.4830  140.5923  159.5393 C   0  0  0  0  0  0  0  0  0  0  0  0
  152.0262  141.6753  158.7660 C   0  0  0  0  0  0  0  0  0  0  0  0
  147.9668  141.1686  155.5500 C   0  0  0  0  0  0  0  0  0  0  0  0
  146.8255  141.8233  156.0522 C   0  0  0  0  0  0  0  0  0  0  0  0
  144.0634  146.8624  155.4200 H   0  0  0  0  0  0  0  0  0  0  0  0
  145.4417  146.2659  156.3355 H   0  0  0  0  0  0  0  0  0  0  0  0
  143.7980  145.8970  156.8662 H   0  0  0  0  0  0  0  0  0  0  0  0
  143.4321  144.5428  154.7750 H   0  0  0  0  0  0  0  0  0  0  0  0
  145.0632  144.9109  154.2453 H   0  0  0  0  0  0  0  0  0  0  0  0
  146.2310  143.9152  153.4086 H   0  0  0  0  0  0  0  0  0  0  0  0
  148.2125  142.7707  152.5487 H   0  0  0  0  0  0  0  0  0  0  0  0
  149.5346  139.2387  154.9414 H   0  0  0  0  0  0  0  0  0  0  0  0
  150.8201  139.2602  153.7350 H   0  0  0  0  0  0  0  0  0  0  0  0
  151.4917  141.4919  155.0626 H   0  0  0  0  0  0  0  0  0  0  0  0
  152.2387  138.8562  155.3203 H   0  0  0  0  0  0  0  0  0  0  0  0
  149.5608  140.9198  156.7728 H   0  0  0  0  0  0  0  0  0  0  0  0
  150.6879  139.7859  157.4452 H   0  0  0  0  0  0  0  0  0  0  0  0
  150.5881  143.4825  156.5402 H   0  0  0  0  0  0  0  0  0  0  0  0
  153.4573  144.2574  160.4953 H   0  0  0  0  0  0  0  0  0  0  0  0
  154.2778  142.3488  161.8574 H   0  0  0  0  0  0  0  0  0  0  0  0
  153.6593  140.0171  161.2570 H   0  0  0  0  0  0  0  0  0  0  0  0
  152.2094  139.5814  159.2795 H   0  0  0  0  0  0  0  0  0  0  0  0
  148.4278  140.4116  156.1658 H   0  0  0  0  0  0  0  0  0  0  0  0
  146.4567  141.5447  157.0291 H   0  0  0  0  0  0  0  0  0  0  0  0
  1  2  1  0  0  0  0
  1 25  1  0  0  0  0
  1 26  1  0  0  0  0
  1 27  1  0  0  0  0
  2  3  1  0  0  0  0
  2 28  1  0  0  0  0
  2 29  1  0  0  0  0
  3  4  2  0  0  0  0
  3  5  1  0  0  0  0
  5 24  1  0  0  0  0
  5  6  2  0  0  0  0
  6  7  1  0  0  0  0
  6 30  1  0  0  0  0
  7  8  2  0  0  0  0
  7 31  1  0  0  0  0
  8  9  1  0  0  0  0
  8 23  1  0  0  0  0
  9 10  1  0  0  0  0
 10 11  1  0  0  0  0
 10 32  1  0  0  0  0
 10 33  1  0  0  0  0
 11 12  1  0  0  0  0
 11 13  1  0  0  0  0
 11 34  1  0  0  0  0
 12 35  1  0  0  0  0
 13 14  1  0  0  0  0
 13 36  1  0  0  0  0
 13 37  1  0  0  0  0
 14 22  1  0  0  0  0
 14 15  1  0  0  0  0
 15 16  2  0  0  0  0
 15 38  1  0  0  0  0
 16 17  1  0  0  0  0
 17 22  2  0  0  0  0
 17 18  1  0  0  0  0
 18 19  2  0  0  0  0
 18 39  1  0  0  0  0
 19 20  1  0  0  0  0
 19 40  1  0  0  0  0
 20 21  2  0  0  0  0
 20 41  1  0  0  0  0
 21 22  1  0  0  0  0
 21 42  1  0  0  0  0
 23 24  2  0  0  0  0
 23 43  1  0  0  0  0
 24 44  1  0  0  0  0
M  END
> <s_m_source_file>
AV-unprocessed.smi

> <i_m_source_file_index>
2667

> <i_lp_mmshare_version>
43012

> <i_f3d_flags>
0

> <s_epik_input>
W0NIM11bQ0gyXUMoPU8pYzFbY0hdW2NIXWMoW2NIXVtjSF0xKU9bQ0gyXVtDQEhdKFtPSF0pW0NIMl1uKFtjSF1uMiljKGMyMylbY0hdW2NIXVtjSF1bY0hdMw==

> <s_epik_cmdline>
J2VwaWtfcHl0aG9uJywgJy1waCcsICc3LjAnLCAnLXRuJywgJzgnLCAnLW1hJywgJzIwMCcsICctbWV0YWxfYmluZGluZycsICctaW1hZScsICc8aW5maWxlLm1hZT4nLCAnLW9tYWUnLCAnPG91dGZpbGUubWFlPic=

> <r_lp_tautomer_probability>
0.9999

> <r_epik_Ionization_Penalty>
0.0583018

> <r_epik_Ionization_Penalty_Charging>
0

> <r_epik_Ionization_Penalty_Neutral>
0.0583018

> <r_epik_State_Penalty>
0.0504087

> <r_epik_Charging_Adjusted_Penalty>
0.0504087

> <i_epik_Tot_Q>
0

> <i_epik_Tot_abs_Q>
0

> <r_epik_Metal_State_Penalty>
5.26129e-05

> <b_epik_Metal_Only>
0

> <s_lp_Force_Field>
OPLS_2005

> <r_lp_Energy>
26.5089

> <b_lp_Chiralities_Consistent>
1

> <s_lp_Variant>
AV-unprocessed.smi:2667-1

> <Gold.Version>
5.8.1

> <Gold.Id.Protein>
6NUR|6NUR_protein|mol2

> <Gold.PLP.Fitness>
51.4755

> <Gold.PLP.PLP>
-45.2524

> <Gold.PLP.part.hbond>
-3.8416

> <Gold.PLP.part.metal>
0.0000

> <Gold.PLP.part.buried>
-1.8709

> <Gold.PLP.part.nonpolar>
-40.7659

> <Gold.PLP.part.repulsive>
2.7527

> <Gold.PLP.ligand.clash>
0.0000

> <Gold.PLP.ligand.torsion>
1.0188

> <Gold.PLP.Chemscore.Hbond>
1.6988

> <Gold.PLP.Chemscore.CHOScore>
1.0000

> <Gold.PLP.Chemscore.Metal>
0.0000

> <Gold.Chemscore.Hbonds>
donor molecule, donor type, donor heavy atom, donor atom, acceptor molecule, acceptor atom, score
      P1  H  7997  8009       L1    12  0.88
      P1  H  8011  8017       L1     9  0.62
      L1  C    15    38       P1  8028  1.00

> <Gold.PLP.Chemscore.Internal.Correction>
0.1644

> <Gold.Rescore>
     Score         DG    S(hbond)    S(metal)    S(lipo)     H(rot)  DE(clash)    DE(int)     intcor
     14.15     -15.69       0.97        0.00     114.05       2.49       0.35       1.19       ----

> <Gold.Chemscore.Fitness>
14.1493

> <Gold.Chemscore.DG>
-15.6857

> <Gold.Chemscore.ZeroCoef>
-5.4800

> <Gold.Chemscore.Hbond>
0.9712

> <Gold.Chemscore.Metal>
0.0000

> <Gold.Chemscore.Lipo>
114.0543

> <Gold.Chemscore.Internal_Hbond>
0.0000

> <Gold.Chemscore.DEClash>
0.3486

> <Gold.Chemscore.DEInternal>
1.1878

> <Gold.Chemscore.Rot>
2.4932

> <Gold.Chemscore.Internal.Correction>
   9.000000E+99

> <Gold.Chemscore.Hbonds>
donor molecule, donor type, donor heavy atom, donor atom, acceptor molecule, acceptor atom, score
      P1  H  7997  8009       L1    12  0.78
      P1  H  8011  8017       L1     9  0.05

> <Gold.Chemscore.Hbond.Weighted>
-3.2440

> <Gold.Chemscore.Metal.Weighted>
-0.0000

> <Gold.Chemscore.Lipo.Weighted>
-13.3444

> <Gold.Chemscore.Internal_Hbond.Weighted>
0.0000

> <Gold.Chemscore.DEClash.Weighted>
0.3486

> <Gold.Chemscore.DEInternal.Weighted>
1.1878

> <Gold.Chemscore.Rot.Weighted>
6.3826

> <Gold.Chemscore.Internal.Correction.Weighted>
   9.000000E+99

> <Gold.Protein.RotatedTorsions>
[ 6907 6896 6895 6894 ] final   14.14 input  -60.11 | X-H torsion
[ 7974 7965 7964 7962 ] final -110.27 input  175.53 | X-H torsion
[ 8008 7997 7996 7995 ] final -142.93 input   59.86 | X-H torsion
[ 10167 10162 10161 10158 ] final -144.66 input  -65.29 | X-H torsion
[ 10718 10713 10712 10709 ] final -115.82 input   66.30 | X-H torsion
[ 10763 10752 10751 10750 ] final  -55.17 input  -60.55 | X-H torsion
[ 11005 11000 10999 10996 ] final   86.48 input  -57.11 | X-H torsion

> <Gold.Protein.ActiveResidues>
 VAL166  LYS551  ARG553  GLY616  TRP617  ASP618  TYR619  PRO620  LYS621  CYS622 
 ASP623  PHE694  ASN695  SER759  ASP760  ASP761  ALA762  ILE779  LEU786  VAL792 
 PHE793  MET794  SER795  GLU796  ALA797  LYS798  CYS799  TRP800  GLU811  SER814 

> <Gold.Protein.RotatedAtoms>
  151.7974  135.0718  160.0395 H   0  0  0  0  0  0  0  0  0  0  0  0  # atno 6907 bound_to 6896
  152.3113  133.5751  159.5691 H   0  0  0  0  0  0  0  0  0  0  0  0  # atno 6908 bound_to 6896
  150.7321  134.0064  159.3697 H   0  0  0  0  0  0  0  0  0  0  0  0  # atno 6909 bound_to 6896
  145.1704  140.8922  143.3539 H   0  0  0  0  0  0  0  0  0  0  0  0  # atno 7974 bound_to 7965
  155.5022  140.0576  157.2937 H   0  0  0  0  0  0  0  0  0  0  0  0  # atno 8008 bound_to 7997
  154.4583  140.1983  156.0267 H   0  0  0  0  0  0  0  0  0  0  0  0  # atno 8009 bound_to 7997
  156.0841  140.3243  155.7735 H   0  0  0  0  0  0  0  0  0  0  0  0  # atno 8010 bound_to 7997
  139.7878  143.8009  152.2646 H   0  0  0  0  0  0  0  0  0  0  0  0  # atno 10167 bound_to 10162
  156.0922  130.6102  150.8956 H   0  0  0  0  0  0  0  0  0  0  0  0  # atno 10718 bound_to 10713
  154.1865  135.6434  153.5048 H   0  0  0  0  0  0  0  0  0  0  0  0  # atno 10763 bound_to 10752
  153.0046  135.5418  154.6460 H   0  0  0  0  0  0  0  0  0  0  0  0  # atno 10764 bound_to 10752
  154.5837  135.2927  155.0679 H   0  0  0  0  0  0  0  0  0  0  0  0  # atno 10765 bound_to 10752
  139.8943  134.8358  156.2726 H   0  0  0  0  0  0  0  0  0  0  0  0  # atno 11005 bound_to 11000
  145.0239  139.3400  143.6058 LP  0  0  0  0  0  0  0  0  0  0  0  0  # atno 17320 bound_to 7965
  146.3469  139.9550  142.8724 LP  0  0  0  0  0  0  0  0  0  0  0  0  # atno 17321 bound_to 7965
  139.8091  144.7343  150.9721 LP  0  0  0  0  0  0  0  0  0  0  0  0  # atno 17342 bound_to 10162
  140.7820  143.4268  151.0755 LP  0  0  0  0  0  0  0  0  0  0  0  0  # atno 17343 bound_to 10162
  157.6074  131.0938  150.8856 LP  0  0  0  0  0  0  0  0  0  0  0  0  # atno 17370 bound_to 10713
  156.9002  130.5244  149.5283 LP  0  0  0  0  0  0  0  0  0  0  0  0  # atno 17371 bound_to 10713
  141.0091  133.7106  156.1082 LP  0  0  0  0  0  0  0  0  0  0  0  0  # atno 17394 bound_to 11000
  140.7393  134.4168  157.5557 LP  0  0  0  0  0  0  0  0  0  0  0  0  # atno 17395 bound_to 11000

$$$$
