AV-unprocessed.smi:3303|AV-procd|sdf|12661|dock4
  -GOLD-   2272018593D 1   1.00000     0.00000
 Structure written by MMmdl.
 45 46  0  0  0  0  0  0  0  0  3 V2000
  145.2351  136.0270  151.9972 C   0  0  0  0  0  0  0  0  0  0  0  0
  145.6414  134.8897  151.0427 C   0  0  2  0  0  0  0  0  0  0  0  0
  144.4248  134.4496  150.2002 C   0  0  0  0  0  0  0  0  0  0  0  0
  144.7721  133.3484  149.2673 N   0  3  2  0  0  0  0  0  0  0  0  0
  143.6875  133.0459  148.3055 C   0  0  0  0  0  0  0  0  0  0  0  0
  145.3320  132.1497  149.9534 C   0  0  2  0  0  0  0  0  0  0  0  0
  144.2910  131.3625  150.7788 C   0  0  0  0  0  0  0  0  0  0  0  0
  146.5616  132.5511  150.7926 C   0  0  0  0  0  0  0  0  0  0  0  0
  146.2547  133.6853  151.7951 C   0  0  1  0  0  0  0  0  0  0  0  0
  147.4833  134.0938  152.5166 N   0  3  0  0  0  0  0  0  0  0  0  0
  148.3457  132.9837  152.9723 C   0  0  0  0  0  0  0  0  0  0  0  0
  149.3620  133.4692  154.0145 C   0  0  0  0  0  0  0  0  0  0  0  0
  150.1261  132.3198  154.6432 C   0  0  0  0  0  0  0  0  0  0  0  0
  149.8950  130.9892  154.2338 C   0  0  0  0  0  0  0  0  0  0  0  0
  150.6406  129.9617  154.8436 C   0  0  0  0  0  0  0  0  0  0  0  0
  151.5835  130.3031  155.8324 C   0  0  0  0  0  0  0  0  0  0  0  0
  151.7401  131.6624  156.1692 C   0  0  0  0  0  0  0  0  0  0  0  0
  151.0312  132.6555  155.5896 N   0  0  0  0  0  0  0  0  0  0  0  0
  144.4975  135.6896  152.7262 H   0  0  0  0  0  0  0  0  0  0  0  0
  144.7982  136.8617  151.4478 H   0  0  0  0  0  0  0  0  0  0  0  0
  146.0909  136.4192  152.5469 H   0  0  0  0  0  0  0  0  0  0  0  0
  146.3937  135.2847  150.3577 H   0  0  0  0  0  0  0  0  0  0  0  0
  143.5993  134.1458  150.8451 H   0  0  0  0  0  0  0  0  0  0  0  0
  144.0638  135.3002  149.6199 H   0  0  0  0  0  0  0  0  0  0  0  0
  142.7728  132.7399  148.8141 H   0  0  0  0  0  0  0  0  0  0  0  0
  143.9857  132.2508  147.6213 H   0  0  0  0  0  0  0  0  0  0  0  0
  143.4563  133.9271  147.7061 H   0  0  0  0  0  0  0  0  0  0  0  0
  145.6887  131.4771  149.1718 H   0  0  0  0  0  0  0  0  0  0  0  0
  144.7563  130.5046  151.2649 H   0  0  0  0  0  0  0  0  0  0  0  0
  143.4909  130.9698  150.1515 H   0  0  0  0  0  0  0  0  0  0  0  0
  143.8333  131.9668  151.5610 H   0  0  0  0  0  0  0  0  0  0  0  0
  146.9462  131.6714  151.3086 H   0  0  0  0  0  0  0  0  0  0  0  0
  147.3573  132.8744  150.1195 H   0  0  0  0  0  0  0  0  0  0  0  0
  145.5293  133.3350  152.5309 H   0  0  0  0  0  0  0  0  0  0  0  0
  148.0224  134.7141  151.9292 H   0  0  0  0  0  0  0  0  0  0  0  0
  147.7243  132.1973  153.4031 H   0  0  0  0  0  0  0  0  0  0  0  0
  148.8708  132.5507  152.1210 H   0  0  0  0  0  0  0  0  0  0  0  0
  150.0744  134.1554  153.5531 H   0  0  0  0  0  0  0  0  0  0  0  0
  148.8543  134.0343  154.7978 H   0  0  0  0  0  0  0  0  0  0  0  0
  149.1658  130.7573  153.4711 H   0  0  0  0  0  0  0  0  0  0  0  0
  150.4924  128.9309  154.5578 H   0  0  0  0  0  0  0  0  0  0  0  0
  152.1730  129.5416  156.3215 H   0  0  0  0  0  0  0  0  0  0  0  0
  152.4544  131.9600  156.9228 H   0  0  0  0  0  0  0  0  0  0  0  0
  147.1977  134.6038  153.3406 H   0  0  0  0  0  0  0  0  0  0  0  0
  145.5287  133.7058  148.7014 H   0  0  0  0  0  0  0  0  0  0  0  0
  1  2  1  0  0  0  0
  1 19  1  0  0  0  0
  1 20  1  0  0  0  0
  1 21  1  0  0  0  0
  2  9  1  0  0  0  0
  2  3  1  0  0  0  0
  2 22  1  0  0  0  0
  3  4  1  0  0  0  0
  3 23  1  0  0  0  0
  3 24  1  0  0  0  0
  4  5  1  0  0  0  0
  4  6  1  0  0  0  0
  4 45  1  0  0  0  0
  5 25  1  0  0  0  0
  5 26  1  0  0  0  0
  5 27  1  0  0  0  0
  6  7  1  0  0  0  0
  6  8  1  0  0  0  0
  6 28  1  0  0  0  0
  7 29  1  0  0  0  0
  7 30  1  0  0  0  0
  7 31  1  0  0  0  0
  8  9  1  0  0  0  0
  8 32  1  0  0  0  0
  8 33  1  0  0  0  0
  9 10  1  0  0  0  0
  9 34  1  0  0  0  0
 10 11  1  0  0  0  0
 10 35  1  0  0  0  0
 10 44  1  0  0  0  0
 11 12  1  0  0  0  0
 11 36  1  0  0  0  0
 11 37  1  0  0  0  0
 12 13  1  0  0  0  0
 12 38  1  0  0  0  0
 12 39  1  0  0  0  0
 13 18  1  0  0  0  0
 13 14  2  0  0  0  0
 14 15  1  0  0  0  0
 14 40  1  0  0  0  0
 15 16  2  0  0  0  0
 15 41  1  0  0  0  0
 16 17  1  0  0  0  0
 16 42  1  0  0  0  0
 17 18  2  0  0  0  0
 17 43  1  0  0  0  0
M  CHG  1   4   1
M  CHG  1  10   1
M  END
> <s_m_source_file>
AV-unprocessed.smi

> <i_m_source_file_index>
3303

> <i_lp_mmshare_version>
43012

> <i_f3d_flags>
0

> <s_epik_input>
W0NIM11bQ0BASF0xW0NIMl1OKFtDSDNdKVtDQEBIXShbQ0gzXSlbQ0gyXVtDQEhdMVtOSF1bQ0gyXVtDSDJdYzJbY0hdW2NIXVtjSF1bY0hdbjI=

> <s_epik_cmdline>
J2VwaWtfcHl0aG9uJywgJy1waCcsICc3LjAnLCAnLXRuJywgJzgnLCAnLW1hJywgJzIwMCcsICctbWV0YWxfYmluZGluZycsICctaW1hZScsICc8aW5maWxlLm1hZT4nLCAnLW9tYWUnLCAnPG91dGZpbGUubWFlPic=

> <r_epik_Ionization_Penalty>
0.0769462

> <r_epik_Ionization_Penalty_Charging>
0.0759813

> <r_epik_Ionization_Penalty_Neutral>
0.000964829

> <r_epik_State_Penalty>
0.0654373

> <r_epik_Charging_Adjusted_Penalty>
0.141419

> <i_epik_Tot_Q>
2

> <i_epik_Tot_abs_Q>
2

> <r_epik_Metal_State_Penalty>
0.0656439

> <b_epik_Metal_Only>
0

> <s_lp_Force_Field>
OPLS_2005

> <r_lp_Energy>
28.3665

> <b_lp_Chiralities_Consistent>
1

> <s_lp_Variant>
AV-unprocessed.smi:3303-5

> <Gold.Version>
5.8.1

> <Gold.Id.Protein>
6NUR|6NUR_protein|mol2

> <Gold.PLP.Fitness>
47.5343

> <Gold.PLP.PLP>
-38.9263

> <Gold.PLP.part.hbond>
-2.0000

> <Gold.PLP.part.metal>
0.0000

> <Gold.PLP.part.buried>
-1.0775

> <Gold.PLP.part.nonpolar>
-35.5222

> <Gold.PLP.part.repulsive>
0.1650

> <Gold.PLP.ligand.clash>
0.0000

> <Gold.PLP.ligand.torsion>
0.2020

> <Gold.PLP.Chemscore.Hbond>
3.0000

> <Gold.PLP.Chemscore.CHOScore>
0.0000

> <Gold.PLP.Chemscore.Metal>
0.0000

> <Gold.Chemscore.Hbonds>
donor molecule, donor type, donor heavy atom, donor atom, acceptor molecule, acceptor atom, score
      L1  H     4    45       P1  7921  1.00
      L1  H    10    35       P1  7948  1.79

> <Gold.PLP.Chemscore.Internal.Correction>
0.0119

> <Gold.Rescore>
     Score         DG    S(hbond)    S(metal)    S(lipo)     H(rot)  DE(clash)    DE(int)     intcor
     19.66     -20.05       1.86        0.00     101.67       1.37       0.19       0.20       ----

> <Gold.Chemscore.Fitness>
19.6621

> <Gold.Chemscore.DG>
-20.0534

> <Gold.Chemscore.ZeroCoef>
-5.4800

> <Gold.Chemscore.Hbond>
1.8551

> <Gold.Chemscore.Metal>
0.0000

> <Gold.Chemscore.Lipo>
101.6747

> <Gold.Chemscore.Internal_Hbond>
0.0000

> <Gold.Chemscore.DEClash>
0.1945

> <Gold.Chemscore.DEInternal>
0.1968

> <Gold.Chemscore.Rot>
1.3744

> <Gold.Chemscore.Internal.Correction>
   9.000000E+99

> <Gold.Chemscore.Hbonds>
donor molecule, donor type, donor heavy atom, donor atom, acceptor molecule, acceptor atom, score
      L1  H     4    45       P1  7921  0.38
      L1  H    10    35       P1  7948  0.20

> <Gold.Chemscore.Hbond.Weighted>
-6.1959

> <Gold.Chemscore.Metal.Weighted>
-0.0000

> <Gold.Chemscore.Lipo.Weighted>
-11.8959

> <Gold.Chemscore.Internal_Hbond.Weighted>
0.0000

> <Gold.Chemscore.DEClash.Weighted>
0.1945

> <Gold.Chemscore.DEInternal.Weighted>
0.1968

> <Gold.Chemscore.Rot.Weighted>
3.5185

> <Gold.Chemscore.Internal.Correction.Weighted>
   9.000000E+99

> <Gold.Protein.RotatedTorsions>
[ 6907 6896 6895 6894 ] final -132.01 input  -60.11 | X-H torsion
[ 7974 7965 7964 7962 ] final  -42.14 input  175.53 | X-H torsion
[ 8008 7997 7996 7995 ] final  172.25 input   59.86 | X-H torsion
[ 10167 10162 10161 10158 ] final -135.41 input  -65.29 | X-H torsion
[ 10718 10713 10712 10709 ] final -111.47 input   66.30 | X-H torsion
[ 10763 10752 10751 10750 ] final -111.18 input  -60.55 | X-H torsion
[ 11005 11000 10999 10996 ] final  -49.94 input  -57.11 | X-H torsion

> <Gold.Protein.ActiveResidues>
 VAL166  LYS551  ARG553  GLY616  TRP617  ASP618  TYR619  PRO620  LYS621  CYS622 
 ASP623  PHE694  ASN695  SER759  ASP760  ASP761  ALA762  ILE779  LEU786  VAL792 
 PHE793  MET794  SER795  GLU796  ALA797  LYS798  CYS799  TRP800  GLU811  SER814 

> <Gold.Protein.RotatedAtoms>
  150.9575  133.6482  159.2760 H   0  0  0  0  0  0  0  0  0  0  0  0  # atno 6907 bound_to 6896
  151.3816  135.0939  159.9507 H   0  0  0  0  0  0  0  0  0  0  0  0  # atno 6908 bound_to 6896
  152.5134  133.9108  159.7541 H   0  0  0  0  0  0  0  0  0  0  0  0  # atno 6909 bound_to 6896
  146.0144  140.6926  142.9209 H   0  0  0  0  0  0  0  0  0  0  0  0  # atno 7974 bound_to 7965
  156.1193  140.1491  156.9228 H   0  0  0  0  0  0  0  0  0  0  0  0  # atno 8008 bound_to 7997
  154.4823  140.0875  156.7449 H   0  0  0  0  0  0  0  0  0  0  0  0  # atno 8009 bound_to 7997
  155.4457  140.3433  155.4297 H   0  0  0  0  0  0  0  0  0  0  0  0  # atno 8010 bound_to 7997
  139.8782  143.6872  152.2631 H   0  0  0  0  0  0  0  0  0  0  0  0  # atno 10167 bound_to 10162
  156.0649  130.5869  150.8377 H   0  0  0  0  0  0  0  0  0  0  0  0  # atno 10718 bound_to 10713
  154.8287  135.4537  154.0999 H   0  0  0  0  0  0  0  0  0  0  0  0  # atno 10763 bound_to 10752
  153.2291  135.6903  153.7917 H   0  0  0  0  0  0  0  0  0  0  0  0  # atno 10764 bound_to 10752
  153.7306  135.3327  155.3261 H   0  0  0  0  0  0  0  0  0  0  0  0  # atno 10765 bound_to 10752
  141.0788  133.6659  156.3658 H   0  0  0  0  0  0  0  0  0  0  0  0  # atno 11005 bound_to 11000
  144.6965  140.3455  143.7191 LP  0  0  0  0  0  0  0  0  0  0  0  0  # atno 17320 bound_to 7965
  145.7292  139.1731  143.2440 LP  0  0  0  0  0  0  0  0  0  0  0  0  # atno 17321 bound_to 7965
  139.7221  144.7600  151.0939 LP  0  0  0  0  0  0  0  0  0  0  0  0  # atno 17342 bound_to 10162
  140.7749  143.5195  150.9554 LP  0  0  0  0  0  0  0  0  0  0  0  0  # atno 17343 bound_to 10162
  157.5683  131.0946  150.9456 LP  0  0  0  0  0  0  0  0  0  0  0  0  # atno 17370 bound_to 10713
  156.9678  130.5479  149.5289 LP  0  0  0  0  0  0  0  0  0  0  0  0  # atno 17371 bound_to 10713
  140.5515  134.6023  157.5409 LP  0  0  0  0  0  0  0  0  0  0  0  0  # atno 17394 bound_to 11000
  139.9601  134.7468  156.0256 LP  0  0  0  0  0  0  0  0  0  0  0  0  # atno 17395 bound_to 11000

$$$$
