AV-unprocessed.smi:2226|AV-procd|sdf|9001|dock4
  -GOLD-   2272012213D 1   1.00000     0.00000
 Structure written by MMmdl.
 40 42  0  0  0  0  0  0  0  0  2 V2000
  144.2588  137.8127  156.2506 C   0  0  0  0  0  0  0  0  0  0  0  0
  144.9938  138.2436  155.0375 N   0  3  2  0  0  0  0  0  0  0  0  0
  145.4038  137.1418  154.1343 C   0  0  2  0  0  0  0  0  0  0  0  0
  146.5341  136.2868  154.7603 C   0  0  0  0  0  0  0  0  0  0  0  0
  147.7342  137.1044  155.2718 C   0  0  0  0  0  0  0  0  0  0  0  0
  147.3080  138.3996  155.9851 C   0  0  0  0  0  0  0  0  0  0  0  0
  146.1414  139.1467  155.2923 C   0  0  1  0  0  0  0  0  0  0  0  0
  146.5155  139.8726  153.9792 C   0  0  0  0  0  0  0  0  0  0  0  0
  146.6362  138.9723  152.7175 C   0  0  1  0  0  0  0  0  0  0  0  0
  148.0151  138.6149  152.3916 N   0  0  0  0  0  0  0  0  0  0  0  0
  149.0234  139.4778  152.1963 C   0  0  0  0  0  0  0  0  0  0  0  0
  148.8983  140.6995  152.2842 O   0  0  0  0  0  0  0  0  0  0  0  0
  150.1643  138.8344  151.8984 N   0  0  0  0  0  0  0  0  0  0  0  0
  151.4373  139.4066  151.6513 C   0  0  0  0  0  0  0  0  0  0  0  0
  152.6027  138.7597  151.5999 N   0  0  0  0  0  0  0  0  0  0  0  0
  153.5384  139.7475  151.3294 C   0  0  0  0  0  0  0  0  0  0  0  0
  152.8793  140.9458  151.2312 C   0  0  0  0  0  0  0  0  0  0  0  0
  151.5404  140.7441  151.4328 O   0  0  0  0  0  0  0  0  0  0  0  0
  145.7151  137.7257  152.7365 C   0  0  0  0  0  0  0  0  0  0  0  0
  144.8713  137.1992  156.9106 H   0  0  0  0  0  0  0  0  0  0  0  0
  143.3772  137.2340  155.9740 H   0  0  0  0  0  0  0  0  0  0  0  0
  143.9177  138.6801  156.8163 H   0  0  0  0  0  0  0  0  0  0  0  0
  144.5439  136.4832  154.0034 H   0  0  0  0  0  0  0  0  0  0  0  0
  146.1225  135.7236  155.5981 H   0  0  0  0  0  0  0  0  0  0  0  0
  146.8756  135.5351  154.0479 H   0  0  0  0  0  0  0  0  0  0  0  0
  148.3261  136.4926  155.9534 H   0  0  0  0  0  0  0  0  0  0  0  0
  148.4128  137.3312  154.4569 H   0  0  0  0  0  0  0  0  0  0  0  0
  147.0084  138.1489  157.0031 H   0  0  0  0  0  0  0  0  0  0  0  0
  148.1674  139.0622  156.0922 H   0  0  0  0  0  0  0  0  0  0  0  0
  145.8063  139.9216  155.9834 H   0  0  0  0  0  0  0  0  0  0  0  0
  145.7204  140.5923  153.7793 H   0  0  0  0  0  0  0  0  0  0  0  0
  147.4095  140.4801  154.1241 H   0  0  0  0  0  0  0  0  0  0  0  0
  146.3034  139.5746  151.8695 H   0  0  0  0  0  0  0  0  0  0  0  0
  148.2155  137.6300  152.2966 H   0  0  0  0  0  0  0  0  0  0  0  0
  150.1213  137.8275  151.8454 H   0  0  0  0  0  0  0  0  0  0  0  0
  154.5901  139.5230  151.2287 H   0  0  0  0  0  0  0  0  0  0  0  0
  153.1937  141.9603  151.0363 H   0  0  0  0  0  0  0  0  0  0  0  0
  146.0959  136.9483  152.0723 H   0  0  0  0  0  0  0  0  0  0  0  0
  144.7612  138.0259  152.2999 H   0  0  0  0  0  0  0  0  0  0  0  0
  144.3253  138.7919  154.5154 H   0  0  0  0  0  0  0  0  0  0  0  0
  1  2  1  0  0  0  0
  1 20  1  0  0  0  0
  1 21  1  0  0  0  0
  1 22  1  0  0  0  0
  2  7  1  0  0  0  0
  2  3  1  0  0  0  0
  2 40  1  0  0  0  0
  3 19  1  0  0  0  0
  3  4  1  0  0  0  0
  3 23  1  0  0  0  0
  4  5  1  0  0  0  0
  4 24  1  0  0  0  0
  4 25  1  0  0  0  0
  5  6  1  0  0  0  0
  5 26  1  0  0  0  0
  5 27  1  0  0  0  0
  6  7  1  0  0  0  0
  6 28  1  0  0  0  0
  6 29  1  0  0  0  0
  7  8  1  0  0  0  0
  7 30  1  0  0  0  0
  8  9  1  0  0  0  0
  8 31  1  0  0  0  0
  8 32  1  0  0  0  0
  9 10  1  0  0  0  0
  9 19  1  0  0  0  0
  9 33  1  0  0  0  0
 10 11  1  0  0  0  0
 10 34  1  0  0  0  0
 11 12  2  0  0  0  0
 11 13  1  0  0  0  0
 13 14  1  0  0  0  0
 13 35  1  0  0  0  0
 14 18  1  0  0  0  0
 14 15  2  0  0  0  0
 15 16  1  0  0  0  0
 16 17  2  0  0  0  0
 16 36  1  0  0  0  0
 17 18  1  0  0  0  0
 17 37  1  0  0  0  0
 19 38  1  0  0  0  0
 19 39  1  0  0  0  0
M  CHG  1   2   1
M  END
> <s_m_source_file>
AV-unprocessed.smi

> <i_m_source_file_index>
2226

> <i_lp_mmshare_version>
43012

> <i_f3d_flags>
0

> <s_epik_input>
W0NIMl0xW0NIMl1bQ0gyXVtDQEhdKE4oW0NIM10pW0NIXTEyKVtDSDJdW0NASF0oW0NIMl0yKVtOSF1DKD1PKVtOSF1jM25bY0hdW2NIXW8z

> <s_epik_cmdline>
J2VwaWtfcHl0aG9uJywgJy1waCcsICc3LjAnLCAnLXRuJywgJzgnLCAnLW1hJywgJzIwMCcsICctbWV0YWxfYmluZGluZycsICctaW1hZScsICc8aW5maWxlLm1hZT4nLCAnLW9tYWUnLCAnPG91dGZpbGUubWFlPic=

> <r_lp_tautomer_probability>
0.785861

> <r_epik_Ionization_Penalty>
0.000929358

> <r_epik_Ionization_Penalty_Charging>
0.000890041

> <r_epik_Ionization_Penalty_Neutral>
3.93161e-05

> <r_epik_State_Penalty>
0.0312137

> <r_epik_Charging_Adjusted_Penalty>
0.0321037

> <i_epik_Tot_Q>
1

> <i_epik_Tot_abs_Q>
1

> <r_epik_Metal_State_Penalty>
0.0605703

> <b_epik_Metal_Only>
0

> <s_lp_Force_Field>
OPLS_2005

> <r_lp_Energy>
36.0435

> <b_lp_Chiralities_Consistent>
1

> <s_lp_Variant>
AV-unprocessed.smi:2226-1

> <Gold.Version>
5.8.1

> <Gold.Id.Protein>
6NUR|6NUR_protein|mol2

> <Gold.PLP.Fitness>
37.9057

> <Gold.PLP.PLP>
-21.7056

> <Gold.PLP.part.hbond>
-6.6123

> <Gold.PLP.part.metal>
0.0000

> <Gold.PLP.part.buried>
7.1213

> <Gold.PLP.part.nonpolar>
-22.9657

> <Gold.PLP.part.repulsive>
0.3719

> <Gold.PLP.ligand.clash>
0.0000

> <Gold.PLP.ligand.torsion>
0.0683

> <Gold.PLP.Chemscore.Hbond>
5.4271

> <Gold.PLP.Chemscore.CHOScore>
0.0000

> <Gold.PLP.Chemscore.Metal>
0.0000

> <Gold.Chemscore.Hbonds>
donor molecule, donor type, donor heavy atom, donor atom, acceptor molecule, acceptor atom, score
      L1  H    10    34       P1  7948  1.00
      L1  H    13    35       P1  7948  0.09
      P1  H  8011  8017       L1    12  1.00

> <Gold.PLP.Chemscore.Internal.Correction>
0.0553

> <Gold.Rescore>
     Score         DG    S(hbond)    S(metal)    S(lipo)     H(rot)  DE(clash)    DE(int)     intcor
     14.98     -18.18       2.96        0.00      45.96       1.00       1.70       1.50       ----

> <Gold.Chemscore.Fitness>
14.9823

> <Gold.Chemscore.DG>
-18.1802

> <Gold.Chemscore.ZeroCoef>
-5.4800

> <Gold.Chemscore.Hbond>
2.9591

> <Gold.Chemscore.Metal>
0.0000

> <Gold.Chemscore.Lipo>
45.9564

> <Gold.Chemscore.Internal_Hbond>
0.0000

> <Gold.Chemscore.DEClash>
1.6957

> <Gold.Chemscore.DEInternal>
1.5022

> <Gold.Chemscore.Rot>
1.0000

> <Gold.Chemscore.Internal.Correction>
   9.000000E+99

> <Gold.Chemscore.Hbonds>
donor molecule, donor type, donor heavy atom, donor atom, acceptor molecule, acceptor atom, score
      L1  H    10    34       P1  7948  0.99
      P1  H  8011  8017       L1    12  0.99

> <Gold.Chemscore.Hbond.Weighted>
-9.8833

> <Gold.Chemscore.Metal.Weighted>
-0.0000

> <Gold.Chemscore.Lipo.Weighted>
-5.3769

> <Gold.Chemscore.Internal_Hbond.Weighted>
0.0000

> <Gold.Chemscore.DEClash.Weighted>
1.6957

> <Gold.Chemscore.DEInternal.Weighted>
1.5022

> <Gold.Chemscore.Rot.Weighted>
2.5600

> <Gold.Chemscore.Internal.Correction.Weighted>
   9.000000E+99

> <Gold.Protein.RotatedTorsions>
[ 6907 6896 6895 6894 ] final  141.33 input  -60.11 | X-H torsion
[ 7974 7965 7964 7962 ] final -170.61 input  175.53 | X-H torsion
[ 8008 7997 7996 7995 ] final   93.47 input   59.86 | X-H torsion
[ 10167 10162 10161 10158 ] final -149.65 input  -65.29 | X-H torsion
[ 10718 10713 10712 10709 ] final   78.06 input   66.30 | X-H torsion
[ 10763 10752 10751 10750 ] final  161.40 input  -60.55 | X-H torsion
[ 11005 11000 10999 10996 ] final -176.07 input  -57.11 | X-H torsion

> <Gold.Protein.ActiveResidues>
 VAL166  LYS551  ARG553  GLY616  TRP617  ASP618  TYR619  PRO620  LYS621  CYS622 
 ASP623  PHE694  ASN695  SER759  ASP760  ASP761  ALA762  ILE779  LEU786  VAL792 
 PHE793  MET794  SER795  GLU796  ALA797  LYS798  CYS799  TRP800  GLU811  SER814 

> <Gold.Protein.RotatedAtoms>
  152.2322  133.5068  159.5222 H   0  0  0  0  0  0  0  0  0  0  0  0  # atno 6907 bound_to 6896
  150.7041  134.1200  159.4040 H   0  0  0  0  0  0  0  0  0  0  0  0  # atno 6908 bound_to 6896
  151.9122  135.0334  160.0566 H   0  0  0  0  0  0  0  0  0  0  0  0  # atno 6909 bound_to 6896
  144.7168  140.2046  143.6334 H   0  0  0  0  0  0  0  0  0  0  0  0  # atno 7974 bound_to 7965
  156.0471  140.3312  155.7309 H   0  0  0  0  0  0  0  0  0  0  0  0  # atno 8008 bound_to 7997
  155.5656  140.0623  157.2836 H   0  0  0  0  0  0  0  0  0  0  0  0  # atno 8009 bound_to 7997
  154.4419  140.1869  156.0816 H   0  0  0  0  0  0  0  0  0  0  0  0  # atno 8010 bound_to 7997
  139.7424  143.8642  152.2566 H   0  0  0  0  0  0  0  0  0  0  0  0  # atno 10167 bound_to 10162
  157.6732  130.9851  150.1732 H   0  0  0  0  0  0  0  0  0  0  0  0  # atno 10718 bound_to 10713
  154.2623  135.2768  155.2773 H   0  0  0  0  0  0  0  0  0  0  0  0  # atno 10763 bound_to 10752
  154.5373  135.5712  153.6813 H   0  0  0  0  0  0  0  0  0  0  0  0  # atno 10764 bound_to 10752
  152.9960  135.6242  154.2774 H   0  0  0  0  0  0  0  0  0  0  0  0  # atno 10765 bound_to 10752
  140.4562  134.6297  157.4823 H   0  0  0  0  0  0  0  0  0  0  0  0  # atno 11005 bound_to 11000
  145.8648  139.2241  143.1695 LP  0  0  0  0  0  0  0  0  0  0  0  0  # atno 17320 bound_to 7965
  146.0140  140.8409  142.9956 LP  0  0  0  0  0  0  0  0  0  0  0  0  # atno 17321 bound_to 7965
  139.8596  144.7123  150.9115 LP  0  0  0  0  0  0  0  0  0  0  0  0  # atno 17342 bound_to 10162
  140.7787  143.3828  151.1446 LP  0  0  0  0  0  0  0  0  0  0  0  0  # atno 17343 bound_to 10162
  156.2481  130.3697  149.8262 LP  0  0  0  0  0  0  0  0  0  0  0  0  # atno 17370 bound_to 10713
  156.6043  130.8560  151.3439 LP  0  0  0  0  0  0  0  0  0  0  0  0  # atno 17371 bound_to 10713
  139.9974  134.6889  155.9586 LP  0  0  0  0  0  0  0  0  0  0  0  0  # atno 17394 bound_to 11000
  141.1642  133.6537  156.4421 LP  0  0  0  0  0  0  0  0  0  0  0  0  # atno 17395 bound_to 11000

$$$$
