AV-unprocessed.smi:522|AV-procd|sdf|2801|dock10
  -GOLD-   2262023273D 1   1.00000     0.00000
 Structure written by MMmdl.
 41 42  0  0  0  0  0  0  0  0  1 V2000
  150.3363  145.2346  159.8043 C   0  0  0  0  0  0  0  0  0  0  0  0
  151.7344  145.4601  159.7607 O   0  0  0  0  0  0  0  0  0  0  0  0
  152.4520  144.2987  159.3749 C   0  0  0  0  0  0  0  0  0  0  0  0
  152.1862  143.1578  160.3662 C   0  0  0  0  0  0  0  0  0  0  0  0
  152.8035  141.9100  159.9410 N   0  0  0  0  0  0  0  0  0  0  0  0
  152.6260  141.2369  158.7770 C   0  0  0  0  0  0  0  0  0  0  0  0
  151.5389  141.8315  157.5157 S   0  0  0  0  0  0  0  0  0  0  0  0
  150.5459  140.3354  157.2219 C   0  0  0  0  0  0  0  0  0  0  0  0
  150.4195  140.0317  155.7272 C   0  0  0  0  0  0  0  0  0  0  0  0
  151.4517  139.7628  155.1114 O   0  0  0  0  0  0  0  0  0  0  0  0
  149.0592  140.0846  155.1239 C   0  0  0  0  0  0  0  0  0  0  0  0
  148.1017  141.0551  155.5513 C   0  0  0  0  0  0  0  0  0  0  0  0
  147.3140  141.8286  155.9003 N   0  0  0  0  0  0  0  0  0  0  0  0
  148.6658  139.2257  154.1455 C   0  0  0  0  0  0  0  0  0  0  0  0
  147.2745  139.2835  153.5330 C   0  0  0  0  0  0  0  0  0  0  0  0
  149.4421  138.2207  153.5921 N   0  0  0  0  0  0  0  0  0  0  0  0
  153.3345  140.1132  158.6508 N   0  0  0  0  0  0  0  0  0  0  0  0
  154.0167  140.0417  159.8487 C   0  0  0  0  0  0  0  0  0  0  0  0
  154.9260  139.0742  160.3325 C   0  0  0  0  0  0  0  0  0  0  0  0
  155.5052  139.2159  161.6105 C   0  0  0  0  0  0  0  0  0  0  0  0
  155.1855  140.3251  162.4203 C   0  0  0  0  0  0  0  0  0  0  0  0
  154.2824  141.3009  161.9562 C   0  0  0  0  0  0  0  0  0  0  0  0
  153.7064  141.1535  160.6802 C   0  0  0  0  0  0  0  0  0  0  0  0
  149.8245  146.1427  160.1184 H   0  0  0  0  0  0  0  0  0  0  0  0
  150.0853  144.4471  160.5156 H   0  0  0  0  0  0  0  0  0  0  0  0
  149.9517  144.9562  158.8222 H   0  0  0  0  0  0  0  0  0  0  0  0
  152.1504  143.9909  158.3727 H   0  0  0  0  0  0  0  0  0  0  0  0
  153.5207  144.5166  159.3395 H   0  0  0  0  0  0  0  0  0  0  0  0
  152.5405  143.4264  161.3610 H   0  0  0  0  0  0  0  0  0  0  0  0
  151.1124  142.9946  160.4624 H   0  0  0  0  0  0  0  0  0  0  0  0
  151.0240  139.4918  157.7199 H   0  0  0  0  0  0  0  0  0  0  0  0
  149.5584  140.4445  157.6699 H   0  0  0  0  0  0  0  0  0  0  0  0
  146.5149  139.1262  154.2995 H   0  0  0  0  0  0  0  0  0  0  0  0
  147.1329  138.5219  152.7645 H   0  0  0  0  0  0  0  0  0  0  0  0
  147.1011  140.2567  153.0723 H   0  0  0  0  0  0  0  0  0  0  0  0
  150.3920  138.0510  153.8905 H   0  0  0  0  0  0  0  0  0  0  0  0
  149.0901  137.6238  152.8559 H   0  0  0  0  0  0  0  0  0  0  0  0
  155.1778  138.2214  159.7197 H   0  0  0  0  0  0  0  0  0  0  0  0
  156.1983  138.4701  161.9711 H   0  0  0  0  0  0  0  0  0  0  0  0
  155.6339  140.4260  163.3978 H   0  0  0  0  0  0  0  0  0  0  0  0
  154.0346  142.1515  162.5737 H   0  0  0  0  0  0  0  0  0  0  0  0
  1  2  1  0  0  0  0
  1 24  1  0  0  0  0
  1 25  1  0  0  0  0
  1 26  1  0  0  0  0
  2  3  1  0  0  0  0
  3  4  1  0  0  0  0
  3 27  1  0  0  0  0
  3 28  1  0  0  0  0
  4  5  1  0  0  0  0
  4 29  1  0  0  0  0
  4 30  1  0  0  0  0
  5 23  1  0  0  0  0
  5  6  1  0  0  0  0
  6  7  1  0  0  0  0
  6 17  2  0  0  0  0
  7  8  1  0  0  0  0
  8  9  1  0  0  0  0
  8 31  1  0  0  0  0
  8 32  1  0  0  0  0
  9 10  2  0  0  0  0
  9 11  1  0  0  0  0
 11 12  1  0  0  0  0
 11 14  2  0  0  0  0
 12 13  3  0  0  0  0
 14 15  1  0  0  0  0
 14 16  1  0  0  0  0
 15 33  1  0  0  0  0
 15 34  1  0  0  0  0
 15 35  1  0  0  0  0
 16 36  1  0  0  0  0
 16 37  1  0  0  0  0
 17 18  1  0  0  0  0
 18 23  2  0  0  0  0
 18 19  1  0  0  0  0
 19 20  2  0  0  0  0
 19 38  1  0  0  0  0
 20 21  1  0  0  0  0
 20 39  1  0  0  0  0
 21 22  2  0  0  0  0
 21 40  1  0  0  0  0
 22 23  1  0  0  0  0
 22 41  1  0  0  0  0
M  END
> <s_m_source_file>
AV-unprocessed.smi

> <i_m_source_file_index>
522

> <i_lp_mmshare_version>
43012

> <i_f3d_flags>
0

> <s_epik_input>
W2NIXTFbY0hdW2NIXVtjSF1jKGMxMiluKFtDSDJdW0NIMl1PW0NIM10pYyhuMilTW0NIMl1DKD1PKS9DKEMjTik9QygvW0NIM10pW05IMl0=

> <s_epik_cmdline>
J2VwaWtfcHl0aG9uJywgJy1waCcsICc3LjAnLCAnLXRuJywgJzgnLCAnLW1hJywgJzIwMCcsICctbWV0YWxfYmluZGluZycsICctaW1hZScsICc8aW5maWxlLm1hZT4nLCAnLW9tYWUnLCAnPG91dGZpbGUubWFlPic=

> <r_lp_tautomer_probability>
0.5

> <r_epik_Ionization_Penalty>
0.0129021

> <r_epik_Ionization_Penalty_Charging>
0

> <r_epik_Ionization_Penalty_Neutral>
0.0129021

> <r_epik_State_Penalty>
0.42069

> <r_epik_Charging_Adjusted_Penalty>
0.42069

> <i_epik_Tot_Q>
0

> <i_epik_Tot_abs_Q>
0

> <r_epik_Metal_State_Penalty>
0.41068

> <b_epik_Metal_Only>
0

> <s_lp_Force_Field>
OPLS_2005

> <r_lp_Energy>
14.5632

> <b_lp_Chiralities_Consistent>
1

> <s_lp_Variant>
AV-unprocessed.smi:522-1

> <Gold.Version>
5.8.1

> <Gold.Id.Protein>
6NUR|6NUR_protein|mol2

> <Gold.PLP.Fitness>
53.0594

> <Gold.PLP.PLP>
-45.9469

> <Gold.PLP.part.hbond>
-4.0000

> <Gold.PLP.part.metal>
0.0000

> <Gold.PLP.part.buried>
-3.3637

> <Gold.PLP.part.nonpolar>
-37.8586

> <Gold.PLP.part.repulsive>
0.8628

> <Gold.PLP.ligand.clash>
0.0000

> <Gold.PLP.ligand.torsion>
0.9673

> <Gold.PLP.Chemscore.Hbond>
2.9920

> <Gold.PLP.Chemscore.CHOScore>
0.0000

> <Gold.PLP.Chemscore.Metal>
0.0000

> <Gold.Chemscore.Hbonds>
donor molecule, donor type, donor heavy atom, donor atom, acceptor molecule, acceptor atom, score
      L1  H    16    37       P1  7948  1.00
      P1  H  7989  7998       L1    10  1.00
      P1  H  7997  8009       L1    17  0.98

> <Gold.PLP.Chemscore.Internal.Correction>
0.0711

> <Gold.Rescore>
     Score         DG    S(hbond)    S(metal)    S(lipo)     H(rot)  DE(clash)    DE(int)     intcor
     19.71     -20.57       2.62        0.00     105.26       2.33       0.01       0.86       ----

> <Gold.Chemscore.Fitness>
19.7075

> <Gold.Chemscore.DG>
-20.5735

> <Gold.Chemscore.ZeroCoef>
-5.4800

> <Gold.Chemscore.Hbond>
2.6162

> <Gold.Chemscore.Metal>
0.0000

> <Gold.Chemscore.Lipo>
105.2574

> <Gold.Chemscore.Internal_Hbond>
0.0000

> <Gold.Chemscore.DEClash>
0.0059

> <Gold.Chemscore.DEInternal>
0.8600

> <Gold.Chemscore.Rot>
2.3280

> <Gold.Chemscore.Internal.Correction>
   9.000000E+99

> <Gold.Chemscore.Hbonds>
donor molecule, donor type, donor heavy atom, donor atom, acceptor molecule, acceptor atom, score
      L1  H    16    37       P1  7948  0.99
      P1  H  7989  7998       L1    10  0.80
      P1  H  7997  8009       L1    17  0.54

> <Gold.Chemscore.Hbond.Weighted>
-8.7382

> <Gold.Chemscore.Metal.Weighted>
-0.0000

> <Gold.Chemscore.Lipo.Weighted>
-12.3151

> <Gold.Chemscore.Internal_Hbond.Weighted>
0.0000

> <Gold.Chemscore.DEClash.Weighted>
0.0059

> <Gold.Chemscore.DEInternal.Weighted>
0.8600

> <Gold.Chemscore.Rot.Weighted>
5.9598

> <Gold.Chemscore.Internal.Correction.Weighted>
   9.000000E+99

> <Gold.Protein.RotatedTorsions>
[ 6907 6896 6895 6894 ] final   59.65 input  -60.11 | X-H torsion
[ 7974 7965 7964 7962 ] final -123.08 input  175.53 | X-H torsion
[ 8008 7997 7996 7995 ] final  146.63 input   59.86 | X-H torsion
[ 10167 10162 10161 10158 ] final  122.64 input  -65.29 | X-H torsion
[ 10718 10713 10712 10709 ] final -104.79 input   66.30 | X-H torsion
[ 10763 10752 10751 10750 ] final -122.31 input  -60.55 | X-H torsion
[ 11005 11000 10999 10996 ] final  163.95 input  -57.11 | X-H torsion

> <Gold.Protein.ActiveResidues>
 VAL166  LYS551  ARG553  GLY616  TRP617  ASP618  TYR619  PRO620  LYS621  CYS622 
 ASP623  PHE694  ASN695  SER759  ASP760  ASP761  ALA762  ILE779  LEU786  VAL792 
 PHE793  MET794  SER795  GLU796  ALA797  LYS798  CYS799  TRP800  GLU811  SER814 

> <Gold.Protein.RotatedAtoms>
  152.3933  134.6405  160.0098 H   0  0  0  0  0  0  0  0  0  0  0  0  # atno 6907 bound_to 6896
  151.6633  133.3310  159.3187 H   0  0  0  0  0  0  0  0  0  0  0  0  # atno 6908 bound_to 6896
  150.7845  134.6862  159.6516 H   0  0  0  0  0  0  0  0  0  0  0  0  # atno 6909 bound_to 6896
  145.0225  140.8000  143.4372 H   0  0  0  0  0  0  0  0  0  0  0  0  # atno 7974 bound_to 7965
  156.2849  140.2177  156.5407 H   0  0  0  0  0  0  0  0  0  0  0  0  # atno 8008 bound_to 7997
  154.7372  140.0490  157.0801 H   0  0  0  0  0  0  0  0  0  0  0  0  # atno 8009 bound_to 7997
  155.0277  140.3131  155.4773 H   0  0  0  0  0  0  0  0  0  0  0  0  # atno 8010 bound_to 7997
  139.5846  144.7001  151.3440 H   0  0  0  0  0  0  0  0  0  0  0  0  # atno 10167 bound_to 10162
  156.0319  130.5532  150.7447 H   0  0  0  0  0  0  0  0  0  0  0  0  # atno 10718 bound_to 10713
  154.8687  135.4137  154.2762 H   0  0  0  0  0  0  0  0  0  0  0  0  # atno 10763 bound_to 10752
  153.3663  135.7005  153.6678 H   0  0  0  0  0  0  0  0  0  0  0  0  # atno 10764 bound_to 10752
  153.5559  135.3619  155.2751 H   0  0  0  0  0  0  0  0  0  0  0  0  # atno 10765 bound_to 10752
  140.2409  134.8051  157.3410 H   0  0  0  0  0  0  0  0  0  0  0  0  # atno 11005 bound_to 11000
  145.1877  139.2318  143.5259 LP  0  0  0  0  0  0  0  0  0  0  0  0  # atno 17320 bound_to 7965
  146.3487  140.1665  142.8590 LP  0  0  0  0  0  0  0  0  0  0  0  0  # atno 17321 bound_to 7965
  140.7120  143.7365  150.7584 LP  0  0  0  0  0  0  0  0  0  0  0  0  # atno 17342 bound_to 10162
  140.0907  143.4881  152.2480 LP  0  0  0  0  0  0  0  0  0  0  0  0  # atno 17343 bound_to 10162
  157.5007  131.0918  151.0318 LP  0  0  0  0  0  0  0  0  0  0  0  0  # atno 17370 bound_to 10713
  157.0699  130.5860  149.5401 LP  0  0  0  0  0  0  0  0  0  0  0  0  # atno 17371 bound_to 10713
  140.1654  134.4676  155.7866 LP  0  0  0  0  0  0  0  0  0  0  0  0  # atno 17394 bound_to 11000
  141.2210  133.6919  156.7616 LP  0  0  0  0  0  0  0  0  0  0  0  0  # atno 17395 bound_to 11000

$$$$
