AV-unprocessed.smi:774|AV-procd|sdf|3693|dock10
  -GOLD-   22720 1113D 1   1.00000     0.00000
 Structure written by MMmdl.
 37 38  0  0  0  0  0  0  0  0  1 V2000
  151.5135  139.1541  155.3563 C   0  0  0  0  0  0  0  0  0  0  0  0
  150.1731  139.1169  154.6177 C   0  0  0  0  0  0  0  0  0  0  0  0
  149.3462  140.7306  154.6622 S   0  0  0  0  0  0  0  0  0  0  0  0
  147.6560  140.2453  154.2079 C   0  0  2  0  0  0  0  0  0  0  0  0
  147.0421  139.2265  155.1666 C   0  0  0  0  0  0  0  0  0  0  0  0
  145.9031  138.5973  154.3639 C   0  0  0  0  0  0  0  0  0  0  0  0
  146.3435  138.6479  152.8871 C   0  0  2  0  0  0  0  0  0  0  0  0
  146.6471  137.3154  152.3711 N   0  0  0  0  0  0  0  0  0  0  0  0
  145.7345  136.3869  152.0515 C   0  0  0  0  0  0  0  0  0  0  0  0
  144.5214  136.5591  152.1695 O   0  0  0  0  0  0  0  0  0  0  0  0
  146.3216  135.2592  151.6153 N   0  0  0  0  0  0  0  0  0  0  0  0
  145.7063  134.0574  151.1720 C   0  0  0  0  0  0  0  0  0  0  0  0
  144.2975  134.0113  151.1322 C   0  0  0  0  0  0  0  0  0  0  0  0
  143.6608  132.8272  150.7143 C   0  0  0  0  0  0  0  0  0  0  0  0
  144.4629  131.7254  150.3595 C   0  0  0  0  0  0  0  0  0  0  0  0
  145.8115  131.7464  150.4065 N   0  0  0  0  0  0  0  0  0  0  0  0
  146.4159  132.8862  150.8065 C   0  0  0  0  0  0  0  0  0  0  0  0
  147.5910  139.5505  152.8446 C   0  0  0  0  0  0  0  0  0  0  0  0
  152.0017  138.1800  155.3244 H   0  0  0  0  0  0  0  0  0  0  0  0
  151.3777  139.4245  156.4037 H   0  0  0  0  0  0  0  0  0  0  0  0
  152.1904  139.8811  154.9065 H   0  0  0  0  0  0  0  0  0  0  0  0
  150.3295  138.8232  153.5797 H   0  0  0  0  0  0  0  0  0  0  0  0
  149.5194  138.3707  155.0700 H   0  0  0  0  0  0  0  0  0  0  0  0
  147.0276  141.1365  154.1781 H   0  0  0  0  0  0  0  0  0  0  0  0
  147.7765  138.4607  155.4203 H   0  0  0  0  0  0  0  0  0  0  0  0
  146.6937  139.6765  156.0965 H   0  0  0  0  0  0  0  0  0  0  0  0
  145.6668  137.5917  154.7147 H   0  0  0  0  0  0  0  0  0  0  0  0
  145.0010  139.1977  154.4886 H   0  0  0  0  0  0  0  0  0  0  0  0
  145.5508  139.1009  152.2882 H   0  0  0  0  0  0  0  0  0  0  0  0
  147.6229  137.0865  152.2496 H   0  0  0  0  0  0  0  0  0  0  0  0
  147.3299  135.2397  151.6552 H   0  0  0  0  0  0  0  0  0  0  0  0
  143.7092  134.8726  151.4141 H   0  0  0  0  0  0  0  0  0  0  0  0
  142.5837  132.7646  150.6680 H   0  0  0  0  0  0  0  0  0  0  0  0
  144.0092  130.8007  150.0346 H   0  0  0  0  0  0  0  0  0  0  0  0
  147.4925  132.8328  150.8490 H   0  0  0  0  0  0  0  0  0  0  0  0
  147.5520  140.2673  152.0237 H   0  0  0  0  0  0  0  0  0  0  0  0
  148.4899  138.9479  152.7007 H   0  0  0  0  0  0  0  0  0  0  0  0
  1  2  1  0  0  0  0
  1 19  1  0  0  0  0
  1 20  1  0  0  0  0
  1 21  1  0  0  0  0
  2  3  1  0  0  0  0
  2 22  1  0  0  0  0
  2 23  1  0  0  0  0
  3  4  1  0  0  0  0
  4 18  1  0  0  0  0
  4  5  1  0  0  0  0
  4 24  1  0  0  0  0
  5  6  1  0  0  0  0
  5 25  1  0  0  0  0
  5 26  1  0  0  0  0
  6  7  1  0  0  0  0
  6 27  1  0  0  0  0
  6 28  1  0  0  0  0
  7  8  1  0  0  0  0
  7 18  1  0  0  0  0
  7 29  1  0  0  0  0
  8  9  1  0  0  0  0
  8 30  1  0  0  0  0
  9 10  2  0  0  0  0
  9 11  1  0  0  0  0
 11 12  1  0  0  0  0
 11 31  1  0  0  0  0
 12 17  1  0  0  0  0
 12 13  2  0  0  0  0
 13 14  1  0  0  0  0
 13 32  1  0  0  0  0
 14 15  2  0  0  0  0
 14 33  1  0  0  0  0
 15 16  1  0  0  0  0
 15 34  1  0  0  0  0
 16 17  2  0  0  0  0
 17 35  1  0  0  0  0
 18 36  1  0  0  0  0
 18 37  1  0  0  0  0
M  END
> <s_m_source_file>
AV-unprocessed.smi

> <i_m_source_file_index>
774

> <i_lp_mmshare_version>
43012

> <i_f3d_flags>
0

> <s_epik_input>
W0NIM11bQ0gyXVNbQ0BASF0xW0NIMl1bQ0gyXVtDQEhdKFtDSDJdMSlbTkhdQyg9TylbTkhdYzJbY0hdW2NIXVtjSF1uW2NIXTI=

> <s_epik_cmdline>
J2VwaWtfcHl0aG9uJywgJy1waCcsICc3LjAnLCAnLXRuJywgJzgnLCAnLW1hJywgJzIwMCcsICctbWV0YWxfYmluZGluZycsICctaW1hZScsICc8aW5maWxlLm1hZT4nLCAnLW9tYWUnLCAnPG91dGZpbGUubWFlPic=

> <r_epik_Ionization_Penalty>
0.00485718

> <r_epik_Ionization_Penalty_Charging>
0

> <r_epik_Ionization_Penalty_Neutral>
0.00485718

> <r_epik_State_Penalty>
0.00349461

> <r_epik_Charging_Adjusted_Penalty>
0.00349461

> <i_epik_Tot_Q>
0

> <i_epik_Tot_abs_Q>
0

> <r_epik_Metal_State_Penalty>
-0

> <b_epik_Metal_Only>
0

> <s_lp_Force_Field>
OPLS_2005

> <r_lp_Energy>
20.2727

> <b_lp_Chiralities_Consistent>
1

> <s_lp_Variant>
AV-unprocessed.smi:774-3

> <Gold.Version>
5.8.1

> <Gold.Id.Protein>
6NUR|6NUR_protein|mol2

> <Gold.PLP.Fitness>
39.1640

> <Gold.PLP.PLP>
-30.7831

> <Gold.PLP.part.hbond>
-2.0000

> <Gold.PLP.part.metal>
0.0000

> <Gold.PLP.part.buried>
-0.6783

> <Gold.PLP.part.nonpolar>
-28.9314

> <Gold.PLP.part.repulsive>
0.4151

> <Gold.PLP.ligand.clash>
0.0000

> <Gold.PLP.ligand.torsion>
0.2344

> <Gold.PLP.Chemscore.Hbond>
2.0000

> <Gold.PLP.Chemscore.CHOScore>
0.9477

> <Gold.PLP.Chemscore.Metal>
0.0000

> <Gold.Chemscore.Hbonds>
donor molecule, donor type, donor heavy atom, donor atom, acceptor molecule, acceptor atom, score
      L1  H     8    30       P1  7948  1.00
      L1  H    11    31       P1  7948  0.98
      L1  C    17    35       P1 10747  0.97

> <Gold.PLP.Chemscore.Internal.Correction>
0.0066

> <Gold.Rescore>
     Score         DG    S(hbond)    S(metal)    S(lipo)     H(rot)  DE(clash)    DE(int)     intcor
     15.73     -18.07       1.94        0.00      80.66       1.30       0.66       1.68       ----

> <Gold.Chemscore.Fitness>
15.7342

> <Gold.Chemscore.DG>
-18.0704

> <Gold.Chemscore.ZeroCoef>
-5.4800

> <Gold.Chemscore.Hbond>
1.9435

> <Gold.Chemscore.Metal>
0.0000

> <Gold.Chemscore.Lipo>
80.6627

> <Gold.Chemscore.Internal_Hbond>
0.0000

> <Gold.Chemscore.DEClash>
0.6599

> <Gold.Chemscore.DEInternal>
1.6763

> <Gold.Chemscore.Rot>
1.3041

> <Gold.Chemscore.Internal.Correction>
   9.000000E+99

> <Gold.Chemscore.Hbonds>
donor molecule, donor type, donor heavy atom, donor atom, acceptor molecule, acceptor atom, score
      L1  H     8    30       P1  7948  0.99
      L1  H    11    31       P1  7948  0.85

> <Gold.Chemscore.Hbond.Weighted>
-6.4913

> <Gold.Chemscore.Metal.Weighted>
-0.0000

> <Gold.Chemscore.Lipo.Weighted>
-9.4375

> <Gold.Chemscore.Internal_Hbond.Weighted>
0.0000

> <Gold.Chemscore.DEClash.Weighted>
0.6599

> <Gold.Chemscore.DEInternal.Weighted>
1.6763

> <Gold.Chemscore.Rot.Weighted>
3.3384

> <Gold.Chemscore.Internal.Correction.Weighted>
   9.000000E+99

> <Gold.Protein.RotatedTorsions>
[ 6907 6896 6895 6894 ] final  -56.74 input  -60.11 | X-H torsion
[ 7974 7965 7964 7962 ] final  -18.81 input  175.53 | X-H torsion
[ 8008 7997 7996 7995 ] final   40.13 input   59.86 | X-H torsion
[ 10167 10162 10161 10158 ] final  -55.49 input  -65.29 | X-H torsion
[ 10718 10713 10712 10709 ] final   64.53 input   66.30 | X-H torsion
[ 10763 10752 10751 10750 ] final  -13.27 input  -60.55 | X-H torsion
[ 11005 11000 10999 10996 ] final   46.81 input  -57.11 | X-H torsion

> <Gold.Protein.ActiveResidues>
 VAL166  LYS551  ARG553  GLY616  TRP617  ASP618  TYR619  PRO620  LYS621  CYS622 
 ASP623  PHE694  ASN695  SER759  ASP760  ASP761  ALA762  ILE779  LEU786  VAL792 
 PHE793  MET794  SER795  GLU796  ALA797  LYS798  CYS799  TRP800  GLU811  SER814 

> <Gold.Protein.RotatedAtoms>
  150.8142  134.7315  159.6715 H   0  0  0  0  0  0  0  0  0  0  0  0  # atno 6907 bound_to 6896
  152.4262  134.5861  159.9971 H   0  0  0  0  0  0  0  0  0  0  0  0  # atno 6908 bound_to 6896
  151.6062  133.3314  159.3094 H   0  0  0  0  0  0  0  0  0  0  0  0  # atno 6909 bound_to 6896
  146.1873  140.3973  142.8471 H   0  0  0  0  0  0  0  0  0  0  0  0  # atno 7974 bound_to 7965
  155.2481  140.3350  155.4285 H   0  0  0  0  0  0  0  0  0  0  0  0  # atno 8008 bound_to 7997
  156.2227  140.1816  156.7482 H   0  0  0  0  0  0  0  0  0  0  0  0  # atno 8009 bound_to 7997
  154.5850  140.0647  156.9144 H   0  0  0  0  0  0  0  0  0  0  0  0  # atno 8010 bound_to 7997
  140.6371  143.2488  151.5088 H   0  0  0  0  0  0  0  0  0  0  0  0  # atno 10167 bound_to 10162
  157.6045  130.9165  149.9857 H   0  0  0  0  0  0  0  0  0  0  0  0  # atno 10718 bound_to 10713
  153.5108  135.7016  153.5782 H   0  0  0  0  0  0  0  0  0  0  0  0  # atno 10763 bound_to 10752
  153.3873  135.3905  155.1898 H   0  0  0  0  0  0  0  0  0  0  0  0  # atno 10764 bound_to 10752
  154.8703  135.3849  154.4588 H   0  0  0  0  0  0  0  0  0  0  0  0  # atno 10765 bound_to 10752
  140.1335  134.4675  155.8503 H   0  0  0  0  0  0  0  0  0  0  0  0  # atno 11005 bound_to 11000
  144.8421  140.6873  143.6222 LP  0  0  0  0  0  0  0  0  0  0  0  0  # atno 17320 bound_to 7965
  145.3899  139.1619  143.4235 LP  0  0  0  0  0  0  0  0  0  0  0  0  # atno 17321 bound_to 7965
  139.5581  144.2224  152.1647 LP  0  0  0  0  0  0  0  0  0  0  0  0  # atno 17342 bound_to 10162
  140.1483  144.5138  150.6702 LP  0  0  0  0  0  0  0  0  0  0  0  0  # atno 17343 bound_to 10162
  156.1128  130.3649  150.0020 LP  0  0  0  0  0  0  0  0  0  0  0  0  # atno 17370 bound_to 10713
  156.8115  130.9326  151.3644 LP  0  0  0  0  0  0  0  0  0  0  0  0  # atno 17371 bound_to 10713
  141.2174  133.6805  156.7114 LP  0  0  0  0  0  0  0  0  0  0  0  0  # atno 17394 bound_to 11000
  140.2812  134.8315  157.3934 LP  0  0  0  0  0  0  0  0  0  0  0  0  # atno 17395 bound_to 11000

$$$$
