AV-unprocessed.smi:37|AV-procd|sdf|308|dock5
  -GOLD-   2262016123D 1   1.00000     0.00000
 Structure written by MMmdl.
 44 45  0  0  0  0  0  0  0  0  1 V2000
  145.9813  134.7073  161.7969 C   0  0  0  0  0  0  0  0  0  0  0  0
  147.4652  134.8800  161.4479 C   0  0  0  0  0  0  0  0  0  0  0  0
  147.6986  136.0326  160.4741 C   0  0  0  0  0  0  0  0  0  0  0  0
  148.3263  137.0373  160.8085 O   0  0  0  0  0  0  0  0  0  0  0  0
  147.1659  135.8009  159.2633 O   0  0  0  0  0  0  0  0  0  0  0  0
  147.5446  136.6004  158.1537 C   0  0  0  0  0  0  0  0  0  0  0  0
  149.0686  136.5221  157.9537 C   0  0  1  0  0  0  0  0  0  0  0  0
  149.3593  135.2096  157.4667 O   0  0  0  0  0  0  0  0  0  0  0  0
  149.9254  135.2856  156.1949 C   0  0  1  0  0  0  0  0  0  0  0  0
  149.3445  134.1787  155.3486 N   0  0  0  0  0  0  0  0  0  0  0  0
  148.4318  134.4689  154.3441 C   0  0  0  0  0  0  0  0  0  0  0  0
  147.8573  133.5173  153.5714 C   0  0  0  0  0  0  0  0  0  0  0  0
  146.9828  133.8766  152.6165 F   0  0  0  0  0  0  0  0  0  0  0  0
  148.1756  132.1064  153.7695 C   0  0  0  0  0  0  0  0  0  0  0  0
  147.7101  131.1721  153.1199 O   0  0  0  0  0  0  0  0  0  0  0  0
  149.0897  131.8605  154.7984 N   0  0  0  0  0  0  0  0  0  0  0  0
  149.6885  132.8319  155.6032 C   0  0  0  0  0  0  0  0  0  0  0  0
  150.4836  132.4936  156.4786 O   0  0  0  0  0  0  0  0  0  0  0  0
  149.5878  136.6623  155.6365 C   0  0  2  0  0  0  0  0  0  0  0  0
  150.9265  137.2676  154.2935 Br  0  0  0  0  0  0  0  0  0  0  0  0
  149.6400  137.4920  156.8993 C   0  0  1  0  0  0  0  0  0  0  0  0
  148.9018  138.6953  156.7291 O   0  0  0  0  0  0  0  0  0  0  0  0
  149.3279  139.6375  155.8682 C   0  0  0  0  0  0  0  0  0  0  0  0
  150.3701  139.6003  155.2143 O   0  0  0  0  0  0  0  0  0  0  0  0
  148.3808  140.8325  155.7877 C   0  0  0  0  0  0  0  0  0  0  0  0
  148.8940  141.9187  154.8331 C   0  0  0  0  0  0  0  0  0  0  0  0
  149.3380  130.8977  154.9741 H   0  0  0  0  0  0  0  0  0  0  0  0
  145.8487  133.8976  162.5143 H   0  0  0  0  0  0  0  0  0  0  0  0
  145.3877  134.4658  160.9145 H   0  0  0  0  0  0  0  0  0  0  0  0
  145.5708  135.6138  162.2427 H   0  0  0  0  0  0  0  0  0  0  0  0
  148.0409  135.0618  162.3557 H   0  0  0  0  0  0  0  0  0  0  0  0
  147.8534  133.9623  161.0053 H   0  0  0  0  0  0  0  0  0  0  0  0
  147.0330  136.2117  157.2726 H   0  0  0  0  0  0  0  0  0  0  0  0
  147.2332  137.6388  158.2753 H   0  0  0  0  0  0  0  0  0  0  0  0
  149.5720  136.6583  158.9114 H   0  0  0  0  0  0  0  0  0  0  0  0
  150.9993  135.1291  156.3047 H   0  0  0  0  0  0  0  0  0  0  0  0
  148.1604  135.4992  154.1655 H   0  0  0  0  0  0  0  0  0  0  0  0
  148.5944  136.6716  155.1866 H   0  0  0  0  0  0  0  0  0  0  0  0
  150.6870  137.6957  157.1309 H   0  0  0  0  0  0  0  0  0  0  0  0
  147.3999  140.4838  155.4639 H   0  0  0  0  0  0  0  0  0  0  0  0
  148.2541  141.2484  156.7876 H   0  0  0  0  0  0  0  0  0  0  0  0
  148.2246  142.7790  154.8353 H   0  0  0  0  0  0  0  0  0  0  0  0
  148.9559  141.5533  153.8074 H   0  0  0  0  0  0  0  0  0  0  0  0
  149.8840  142.2700  155.1262 H   0  0  0  0  0  0  0  0  0  0  0  0
  1  2  1  0  0  0  0
  1 28  1  0  0  0  0
  1 29  1  0  0  0  0
  1 30  1  0  0  0  0
  2  3  1  0  0  0  0
  2 31  1  0  0  0  0
  2 32  1  0  0  0  0
  3  4  2  0  0  0  0
  3  5  1  0  0  0  0
  5  6  1  0  0  0  0
  6  7  1  0  0  0  0
  6 33  1  0  0  0  0
  6 34  1  0  0  0  0
  7 21  1  0  0  0  0
  7  8  1  0  0  0  0
  7 35  1  0  0  0  0
  8  9  1  0  0  0  0
  9 10  1  0  0  0  0
  9 19  1  0  0  0  0
  9 36  1  0  0  0  0
 10 17  1  0  0  0  0
 10 11  1  0  0  0  0
 11 12  2  0  0  0  0
 11 37  1  0  0  0  0
 12 13  1  0  0  0  0
 12 14  1  0  0  0  0
 14 15  2  0  0  0  0
 14 16  1  0  0  0  0
 16 27  1  0  0  0  0
 16 17  1  0  0  0  0
 17 18  2  0  0  0  0
 19 20  1  0  0  0  0
 19 21  1  0  0  0  0
 19 38  1  0  0  0  0
 21 22  1  0  0  0  0
 21 39  1  0  0  0  0
 22 23  1  0  0  0  0
 23 24  2  0  0  0  0
 23 25  1  0  0  0  0
 25 26  1  0  0  0  0
 25 40  1  0  0  0  0
 25 41  1  0  0  0  0
 26 42  1  0  0  0  0
 26 43  1  0  0  0  0
 26 44  1  0  0  0  0
M  END
> <s_m_source_file>
AV-unprocessed.smi

> <i_m_source_file_index>
37

> <i_lp_mmshare_version>
43012

> <i_f3d_flags>
0

> <s_epik_input>
W0NIM11bQ0gyXUMoPU8pT1tDSDJdW0NAQEhdMU9bQ0BASF0objJbY0hdYyhGKWMoPU8pW25IXWMyPU8pW0NAQEhdKEJyKVtDQEhdMU9DKD1PKVtDSDJdW0NIM10=

> <s_epik_cmdline>
J2VwaWtfcHl0aG9uJywgJy1waCcsICc3LjAnLCAnLXRuJywgJzgnLCAnLW1hJywgJzIwMCcsICctbWV0YWxfYmluZGluZycsICctaW1hZScsICc8aW5maWxlLm1hZT4nLCAnLW9tYWUnLCAnPG91dGZpbGUubWFlPic=

> <r_lp_tautomer_probability>
0.999537

> <r_epik_Ionization_Penalty>
0.104106

> <r_epik_Ionization_Penalty_Charging>
0.104106

> <r_epik_Ionization_Penalty_Neutral>
3.94675e-16

> <r_epik_State_Penalty>
0.0940182

> <r_epik_Charging_Adjusted_Penalty>
0.198124

> <i_epik_Tot_Q>
0

> <i_epik_Tot_abs_Q>
0

> <r_epik_Metal_State_Penalty>
3.05314

> <b_epik_Metal_Only>
0

> <s_epik_Chemistry_Notes>
This compound has an ester and may undergo hydrolysis at high or low pH. This compound contains an acetal/aminal-like group ( X-CH(R)-Y where X, Y are N, S, or O) that may be acid/base labile, releasing an aldehyde.

> <s_lp_Force_Field>
OPLS_2005

> <r_lp_Energy>
26.2696

> <b_lp_Chiralities_Consistent>
1

> <s_lp_Variant>
AV-unprocessed.smi:37-6

> <Gold.Version>
5.8.1

> <Gold.Id.Protein>
6NUR|6NUR_protein|mol2

> <Gold.PLP.Fitness>
46.4749

> <Gold.PLP.PLP>
-36.3550

> <Gold.PLP.part.hbond>
-4.0000

> <Gold.PLP.part.metal>
0.0000

> <Gold.PLP.part.buried>
-4.6222

> <Gold.PLP.part.nonpolar>
-27.8016

> <Gold.PLP.part.repulsive>
0.1499

> <Gold.PLP.ligand.clash>
0.0000

> <Gold.PLP.ligand.torsion>
0.4865

> <Gold.PLP.Chemscore.Hbond>
3.3120

> <Gold.PLP.Chemscore.CHOScore>
0.3125

> <Gold.PLP.Chemscore.Metal>
0.0000

> <Gold.Chemscore.Hbonds>
donor molecule, donor type, donor heavy atom, donor atom, acceptor molecule, acceptor atom, score
      P1  H  6931  6943       L1     4  0.94
      P1  H  6934  6947       L1     4  0.23
      L1  C    11    37       P1  7948  0.59

> <Gold.PLP.Chemscore.Internal.Correction>
0.2194

> <Gold.Rescore>
     Score         DG    S(hbond)    S(metal)    S(lipo)     H(rot)  DE(clash)    DE(int)     intcor
     12.00     -14.23       3.28        0.00      53.87       3.33       0.30       1.94       ----

> <Gold.Chemscore.Fitness>
11.9959

> <Gold.Chemscore.DG>
-14.2288

> <Gold.Chemscore.ZeroCoef>
-5.4800

> <Gold.Chemscore.Hbond>
3.2848

> <Gold.Chemscore.Metal>
0.0000

> <Gold.Chemscore.Lipo>
53.8724

> <Gold.Chemscore.Internal_Hbond>
0.0000

> <Gold.Chemscore.DEClash>
0.2950

> <Gold.Chemscore.DEInternal>
1.9379

> <Gold.Chemscore.Rot>
3.3303

> <Gold.Chemscore.Internal.Correction>
   9.000000E+99

> <Gold.Chemscore.Hbonds>
donor molecule, donor type, donor heavy atom, donor atom, acceptor molecule, acceptor atom, score
      P1  H  6931  6943       L1     4  0.91
      P1  H  6934  6947       L1     4  0.23
      P1  H  7989  7998       L1    24  0.03

> <Gold.Chemscore.Hbond.Weighted>
-10.9713

> <Gold.Chemscore.Metal.Weighted>
-0.0000

> <Gold.Chemscore.Lipo.Weighted>
-6.3031

> <Gold.Chemscore.Internal_Hbond.Weighted>
0.0000

> <Gold.Chemscore.DEClash.Weighted>
0.2950

> <Gold.Chemscore.DEInternal.Weighted>
1.9379

> <Gold.Chemscore.Rot.Weighted>
8.5256

> <Gold.Chemscore.Internal.Correction.Weighted>
   9.000000E+99

> <Gold.Protein.RotatedTorsions>
[ 6907 6896 6895 6894 ] final  -63.21 input  -60.11 | X-H torsion
[ 7974 7965 7964 7962 ] final -174.68 input  175.53 | X-H torsion
[ 8008 7997 7996 7995 ] final  170.79 input   59.86 | X-H torsion
[ 10167 10162 10161 10158 ] final -156.17 input  -65.29 | X-H torsion
[ 10718 10713 10712 10709 ] final  -50.27 input   66.30 | X-H torsion
[ 10763 10752 10751 10750 ] final  -65.00 input  -60.55 | X-H torsion
[ 11005 11000 10999 10996 ] final  132.72 input  -57.11 | X-H torsion

> <Gold.Protein.ActiveResidues>
 VAL166  LYS551  ARG553  GLY616  TRP617  ASP618  TYR619  PRO620  LYS621  CYS622 
 ASP623  PHE694  ASN695  SER759  ASP760  ASP761  ALA762  ILE779  LEU786  VAL792 
 PHE793  MET794  SER795  GLU796  ALA797  LYS798  CYS799  TRP800  GLU811  SER814 

> <Gold.Protein.RotatedAtoms>
  150.7664  134.6466  159.6265 H   0  0  0  0  0  0  0  0  0  0  0  0  # atno 6907 bound_to 6896
  152.3697  134.6748  160.0189 H   0  0  0  0  0  0  0  0  0  0  0  0  # atno 6908 bound_to 6896
  151.7112  133.3276  159.3327 H   0  0  0  0  0  0  0  0  0  0  0  0  # atno 6909 bound_to 6896
  144.7131  140.1434  143.6390 H   0  0  0  0  0  0  0  0  0  0  0  0  # atno 7974 bound_to 7965
  156.1332  140.1528  156.9034 H   0  0  0  0  0  0  0  0  0  0  0  0  # atno 8008 bound_to 7997
  154.4926  140.0847  156.7667 H   0  0  0  0  0  0  0  0  0  0  0  0  # atno 8009 bound_to 7997
  155.4217  140.3423  155.4274 H   0  0  0  0  0  0  0  0  0  0  0  0  # atno 8010 bound_to 7997
  139.6872  143.9482  152.2367 H   0  0  0  0  0  0  0  0  0  0  0  0  # atno 10167 bound_to 10162
  156.1816  130.4150  149.9499 H   0  0  0  0  0  0  0  0  0  0  0  0  # atno 10718 bound_to 10713
  154.3385  135.6161  153.5585 H   0  0  0  0  0  0  0  0  0  0  0  0  # atno 10763 bound_to 10752
  152.9806  135.5764  154.4879 H   0  0  0  0  0  0  0  0  0  0  0  0  # atno 10764 bound_to 10752
  154.4579  135.2855  155.1711 H   0  0  0  0  0  0  0  0  0  0  0  0  # atno 10765 bound_to 10752
  139.9807  134.9549  156.9622 H   0  0  0  0  0  0  0  0  0  0  0  0  # atno 11005 bound_to 11000
  145.9181  139.2528  143.1398 LP  0  0  0  0  0  0  0  0  0  0  0  0  # atno 17320 bound_to 7965
  145.9648  140.8807  143.0192 LP  0  0  0  0  0  0  0  0  0  0  0  0  # atno 17321 bound_to 7965
  139.9288  144.6754  150.8384 LP  0  0  0  0  0  0  0  0  0  0  0  0  # atno 17342 bound_to 10162
  140.7671  143.3323  151.2383 LP  0  0  0  0  0  0  0  0  0  0  0  0  # atno 17343 bound_to 10162
  156.7268  130.9028  151.3622 LP  0  0  0  0  0  0  0  0  0  0  0  0  # atno 17370 bound_to 10713
  157.6871  130.9197  150.0416 LP  0  0  0  0  0  0  0  0  0  0  0  0  # atno 17371 bound_to 10713
  140.5102  134.1009  155.7269 LP  0  0  0  0  0  0  0  0  0  0  0  0  # atno 17394 bound_to 11000
  141.1479  133.9021  157.2170 LP  0  0  0  0  0  0  0  0  0  0  0  0  # atno 17395 bound_to 11000

$$$$
