AV-unprocessed.smi:1174|AV-procd|sdf|4949|dock3
  -GOLD-   22720 3533D 1   1.00000     0.00000
 Structure written by MMmdl.
 41 42  0  0  0  0  0  0  0  0  1 V2000
  152.0060  140.4429  158.4169 C   0  0  0  0  0  0  0  0  0  0  0  0
  150.8390  141.1246  157.6896 C   0  0  1  0  0  0  0  0  0  0  0  0
  151.2372  142.5327  157.1959 C   0  0  0  0  0  0  0  0  0  0  0  0
  151.4824  143.4660  158.2808 N   0  0  0  0  0  0  0  0  0  0  0  0
  150.8833  144.6851  158.5176 C   0  0  0  0  0  0  0  0  0  0  0  0
  151.4413  145.1971  159.6537 C   0  0  0  0  0  0  0  0  0  0  0  0
  152.3840  144.2061  160.0445 C   0  0  0  0  0  0  0  0  0  0  0  0
  152.4112  143.1742  159.2171 N   0  0  0  0  0  0  0  0  0  0  0  0
  150.4201  140.2718  156.5779 N   0  0  0  0  0  0  0  0  0  0  0  0
  151.2150  139.7873  155.6101 C   0  0  0  0  0  0  0  0  0  0  0  0
  152.4300  139.9830  155.5789 O   0  0  0  0  0  0  0  0  0  0  0  0
  150.5189  138.9651  154.5087 C   0  0  1  0  0  0  0  0  0  0  0  0
  149.8399  137.6897  155.0673 C   0  0  0  0  0  0  0  0  0  0  0  0
  148.4747  137.9622  155.7316 C   0  0  0  0  0  0  0  0  0  0  0  0
  147.5816  138.8230  154.8234 C   0  0  0  0  0  0  0  0  0  0  0  0
  148.2888  140.0685  154.4799 N   0  0  0  0  0  0  0  0  0  0  0  0
  147.8671  141.3275  154.7557 C   0  0  0  0  0  0  0  0  0  0  0  0
  148.8186  142.2656  154.7214 N   0  0  0  0  0  0  0  0  0  0  0  0
  146.6924  141.6256  154.9639 O   0  0  0  0  0  0  0  0  0  0  0  0
  149.5039  139.8048  153.6939 C   0  0  0  0  0  0  0  0  0  0  0  0
  152.3242  141.0270  159.2808 H   0  0  0  0  0  0  0  0  0  0  0  0
  152.8687  140.3229  157.7605 H   0  0  0  0  0  0  0  0  0  0  0  0
  151.7208  139.4541  158.7778 H   0  0  0  0  0  0  0  0  0  0  0  0
  150.0236  141.2149  158.4097 H   0  0  0  0  0  0  0  0  0  0  0  0
  152.1486  142.4750  156.5988 H   0  0  0  0  0  0  0  0  0  0  0  0
  150.4667  142.9447  156.5425 H   0  0  0  0  0  0  0  0  0  0  0  0
  150.1142  145.0799  157.8698 H   0  0  0  0  0  0  0  0  0  0  0  0
  151.2066  146.1349  160.1351 H   0  0  0  0  0  0  0  0  0  0  0  0
  153.0463  144.2071  160.8974 H   0  0  0  0  0  0  0  0  0  0  0  0
  149.4356  140.0548  156.5246 H   0  0  0  0  0  0  0  0  0  0  0  0
  151.2986  138.6373  153.8189 H   0  0  0  0  0  0  0  0  0  0  0  0
  149.6906  136.9908  154.2435 H   0  0  0  0  0  0  0  0  0  0  0  0
  150.4992  137.1798  155.7712 H   0  0  0  0  0  0  0  0  0  0  0  0
  147.9786  137.0167  155.9526 H   0  0  0  0  0  0  0  0  0  0  0  0
  148.6120  138.4621  156.6907 H   0  0  0  0  0  0  0  0  0  0  0  0
  147.3593  138.2800  153.9037 H   0  0  0  0  0  0  0  0  0  0  0  0
  146.6160  138.9822  155.3032 H   0  0  0  0  0  0  0  0  0  0  0  0
  148.5858  143.2255  154.9289 H   0  0  0  0  0  0  0  0  0  0  0  0
  149.7689  142.0061  154.5010 H   0  0  0  0  0  0  0  0  0  0  0  0
  149.9863  140.7203  153.3473 H   0  0  0  0  0  0  0  0  0  0  0  0
  149.2244  139.2658  152.7878 H   0  0  0  0  0  0  0  0  0  0  0  0
  1  2  1  0  0  0  0
  1 21  1  0  0  0  0
  1 22  1  0  0  0  0
  1 23  1  0  0  0  0
  2  3  1  0  0  0  0
  2  9  1  0  0  0  0
  2 24  1  0  0  0  0
  3  4  1  0  0  0  0
  3 25  1  0  0  0  0
  3 26  1  0  0  0  0
  4  8  1  0  0  0  0
  4  5  1  0  0  0  0
  5  6  2  0  0  0  0
  5 27  1  0  0  0  0
  6  7  1  0  0  0  0
  6 28  1  0  0  0  0
  7  8  2  0  0  0  0
  7 29  1  0  0  0  0
  9 10  1  0  0  0  0
  9 30  1  0  0  0  0
 10 11  2  0  0  0  0
 10 12  1  0  0  0  0
 12 20  1  0  0  0  0
 12 13  1  0  0  0  0
 12 31  1  0  0  0  0
 13 14  1  0  0  0  0
 13 32  1  0  0  0  0
 13 33  1  0  0  0  0
 14 15  1  0  0  0  0
 14 34  1  0  0  0  0
 14 35  1  0  0  0  0
 15 16  1  0  0  0  0
 15 36  1  0  0  0  0
 15 37  1  0  0  0  0
 16 17  1  0  0  0  0
 16 20  1  0  0  0  0
 17 18  1  0  0  0  0
 17 19  2  0  0  0  0
 18 38  1  0  0  0  0
 18 39  1  0  0  0  0
 20 40  1  0  0  0  0
 20 41  1  0  0  0  0
M  END
> <s_m_source_file>
AV-unprocessed.smi

> <i_m_source_file_index>
1174

> <i_lp_mmshare_version>
43012

> <i_f3d_flags>
0

> <s_epik_input>
bjFbY0hdW2NIXVtjSF1uMVtDSDJdW0NAQEhdKFtDSDNdKVtOSF1DKD1PKVtDQEBIXTJbQ0gyXVtDSDJdW0NIMl1OKFtDSDJdMilDKD1PKVtOSDJd

> <s_epik_cmdline>
J2VwaWtfcHl0aG9uJywgJy1waCcsICc3LjAnLCAnLXRuJywgJzgnLCAnLW1hJywgJzIwMCcsICctbWV0YWxfYmluZGluZycsICctaW1hZScsICc8aW5maWxlLm1hZT4nLCAnLW9tYWUnLCAnPG91dGZpbGUubWFlPic=

> <r_lp_tautomer_probability>
1

> <r_epik_Ionization_Penalty>
0.000372452

> <r_epik_Ionization_Penalty_Charging>
0

> <r_epik_Ionization_Penalty_Neutral>
0.000372452

> <r_epik_State_Penalty>
-0

> <r_epik_Charging_Adjusted_Penalty>
0

> <i_epik_Tot_Q>
0

> <i_epik_Tot_abs_Q>
0

> <r_epik_Metal_State_Penalty>
-0

> <b_epik_Metal_Only>
0

> <s_lp_Force_Field>
OPLS_2005

> <r_lp_Energy>
22.2792

> <b_lp_Chiralities_Consistent>
1

> <s_lp_Variant>
AV-unprocessed.smi:1174-4

> <Gold.Version>
5.8.1

> <Gold.Id.Protein>
6NUR|6NUR_protein|mol2

> <Gold.PLP.Fitness>
43.1804

> <Gold.PLP.PLP>
-34.8939

> <Gold.PLP.part.hbond>
-2.7096

> <Gold.PLP.part.metal>
0.0000

> <Gold.PLP.part.buried>
-2.1838

> <Gold.PLP.part.nonpolar>
-30.9944

> <Gold.PLP.part.repulsive>
1.0382

> <Gold.PLP.ligand.clash>
0.0000

> <Gold.PLP.ligand.torsion>
0.3505

> <Gold.PLP.Chemscore.Hbond>
2.0000

> <Gold.PLP.Chemscore.CHOScore>
0.9800

> <Gold.PLP.Chemscore.Metal>
0.0000

> <Gold.Chemscore.Hbonds>
donor molecule, donor type, donor heavy atom, donor atom, acceptor molecule, acceptor atom, score
      L1  H    18    38       P1  8028  1.00
      P1  H  7997  8008       L1    11  0.99
      L1  C     5    27       P1  8028  0.40
      L1  C     5    27       P1  8029  0.56

> <Gold.PLP.Chemscore.Internal.Correction>
0.0475

> <Gold.Rescore>
     Score         DG    S(hbond)    S(metal)    S(lipo)     H(rot)  DE(clash)    DE(int)     intcor
     11.09     -16.74       1.94        0.00      80.57       1.82       1.59       4.07       ----

> <Gold.Chemscore.Fitness>
11.0851

> <Gold.Chemscore.DG>
-16.7410

> <Gold.Chemscore.ZeroCoef>
-5.4800

> <Gold.Chemscore.Hbond>
1.9445

> <Gold.Chemscore.Metal>
0.0000

> <Gold.Chemscore.Lipo>
80.5735

> <Gold.Chemscore.Internal_Hbond>
0.0000

> <Gold.Chemscore.DEClash>
1.5888

> <Gold.Chemscore.DEInternal>
4.0672

> <Gold.Chemscore.Rot>
1.8206

> <Gold.Chemscore.Internal.Correction>
   9.000000E+99

> <Gold.Chemscore.Hbonds>
donor molecule, donor type, donor heavy atom, donor atom, acceptor molecule, acceptor atom, score
      L1  H    18    38       P1  8028  0.97
      P1  H  7997  8008       L1    11  0.92

> <Gold.Chemscore.Hbond.Weighted>
-6.4946

> <Gold.Chemscore.Metal.Weighted>
-0.0000

> <Gold.Chemscore.Lipo.Weighted>
-9.4271

> <Gold.Chemscore.Internal_Hbond.Weighted>
0.0000

> <Gold.Chemscore.DEClash.Weighted>
1.5888

> <Gold.Chemscore.DEInternal.Weighted>
4.0672

> <Gold.Chemscore.Rot.Weighted>
4.6607

> <Gold.Chemscore.Internal.Correction.Weighted>
   9.000000E+99

> <Gold.Protein.RotatedTorsions>
[ 6907 6896 6895 6894 ] final  125.24 input  -60.11 | X-H torsion
[ 7974 7965 7964 7962 ] final  -99.15 input  175.53 | X-H torsion
[ 8008 7997 7996 7995 ] final  -18.92 input   59.86 | X-H torsion
[ 10167 10162 10161 10158 ] final   87.35 input  -65.29 | X-H torsion
[ 10718 10713 10712 10709 ] final   50.30 input   66.30 | X-H torsion
[ 10763 10752 10751 10750 ] final -164.54 input  -60.55 | X-H torsion
[ 11005 11000 10999 10996 ] final   33.62 input  -57.11 | X-H torsion

> <Gold.Protein.ActiveResidues>
 VAL166  LYS551  ARG553  GLY616  TRP617  ASP618  TYR619  PRO620  LYS621  CYS622 
 ASP623  PHE694  ASN695  SER759  ASP760  ASP761  ALA762  ILE779  LEU786  VAL792 
 PHE793  MET794  SER795  GLU796  ALA797  LYS798  CYS799  TRP800  GLU811  SER814 

> <Gold.Protein.RotatedAtoms>
  152.4009  133.6816  159.6315 H   0  0  0  0  0  0  0  0  0  0  0  0  # atno 6907 bound_to 6896
  150.7900  133.8793  159.3290 H   0  0  0  0  0  0  0  0  0  0  0  0  # atno 6908 bound_to 6896
  151.6559  135.0997  160.0221 H   0  0  0  0  0  0  0  0  0  0  0  0  # atno 6909 bound_to 6896
  145.3113  140.9401  143.2768 H   0  0  0  0  0  0  0  0  0  0  0  0  # atno 7974 bound_to 7965
  154.4872  140.2102  155.9629 H   0  0  0  0  0  0  0  0  0  0  0  0  # atno 8008 bound_to 7997
  156.1253  140.3206  155.8237 H   0  0  0  0  0  0  0  0  0  0  0  0  # atno 8009 bound_to 7997
  155.4394  140.0509  157.3002 H   0  0  0  0  0  0  0  0  0  0  0  0  # atno 8010 bound_to 7997
  139.8782  144.6455  150.8872 H   0  0  0  0  0  0  0  0  0  0  0  0  # atno 10167 bound_to 10162
  157.4871  130.8352  149.8159 H   0  0  0  0  0  0  0  0  0  0  0  0  # atno 10718 bound_to 10713
  154.7018  135.2989  154.9329 H   0  0  0  0  0  0  0  0  0  0  0  0  # atno 10763 bound_to 10752
  154.0258  135.6676  153.4780 H   0  0  0  0  0  0  0  0  0  0  0  0  # atno 10764 bound_to 10752
  153.0687  135.5073  154.8167 H   0  0  0  0  0  0  0  0  0  0  0  0  # atno 10765 bound_to 10752
  140.2612  134.3190  155.7857 H   0  0  0  0  0  0  0  0  0  0  0  0  # atno 11005 bound_to 11000
  144.9013  139.4646  143.6631 LP  0  0  0  0  0  0  0  0  0  0  0  0  # atno 17320 bound_to 7965
  146.3117  139.7769  142.9015 LP  0  0  0  0  0  0  0  0  0  0  0  0  # atno 17321 bound_to 7965
  140.7749  143.3607  151.1834 LP  0  0  0  0  0  0  0  0  0  0  0  0  # atno 17342 bound_to 10162
  139.7220  143.9208  152.2989 LP  0  0  0  0  0  0  0  0  0  0  0  0  # atno 17343 bound_to 10162
  156.0153  130.3816  150.2132 LP  0  0  0  0  0  0  0  0  0  0  0  0  # atno 17370 bound_to 10713
  157.0319  131.0010  151.3309 LP  0  0  0  0  0  0  0  0  0  0  0  0  # atno 17371 bound_to 10713
  141.2190  133.7411  156.9190 LP  0  0  0  0  0  0  0  0  0  0  0  0  # atno 17394 bound_to 11000
  140.1462  134.9260  157.2533 LP  0  0  0  0  0  0  0  0  0  0  0  0  # atno 17395 bound_to 11000

$$$$
