AV-unprocessed.smi:1009|AV-procd|sdf|4414|dock7
  -GOLD-   22720 2363D 1   1.00000     0.00000
 Structure written by MMmdl.
 33 33  0  0  0  0  0  0  0  0  2 V2000
  147.2483  141.1121  153.4808 C   0  0  0  0  0  0  0  0  0  0  0  0
  146.4770  139.9341  153.0265 N   0  3  0  0  0  0  0  0  0  0  0  0
  146.2174  138.9929  154.1406 C   0  0  0  0  0  0  0  0  0  0  0  0
  147.0964  139.2842  151.8448 C   0  0  0  0  0  0  0  0  0  0  0  0
  146.1130  138.3692  151.0898 C   0  0  0  0  0  0  0  0  0  0  0  0
  146.4158  136.9633  151.3249 N   0  0  0  0  0  0  0  0  0  0  0  0
  145.5131  136.0279  151.6587 C   0  0  0  0  0  0  0  0  0  0  0  0
  144.3095  136.2584  151.7734 O   0  0  0  0  0  0  0  0  0  0  0  0
  146.0527  134.6211  151.9181 C   0  0  0  0  0  0  0  0  0  0  0  0
  145.5170  133.6769  150.9541 N   0  0  0  0  0  0  0  0  0  0  0  0
  146.1856  132.6771  150.2729 C   0  0  0  0  0  0  0  0  0  0  0  0
  145.2791  132.0555  149.4613 C   0  0  0  0  0  0  0  0  0  0  0  0
  144.0762  132.7623  149.7289 C   0  0  0  0  0  0  0  0  0  0  0  0
  142.8644  132.4671  149.1103 N   0  0  0  0  0  0  0  0  0  0  0  0
  144.2080  133.7307  150.6165 N   0  0  0  0  0  0  0  0  0  0  0  0
  148.2487  140.8227  153.8062 H   0  0  0  0  0  0  0  0  0  0  0  0
  146.7463  141.6050  154.3142 H   0  0  0  0  0  0  0  0  0  0  0  0
  147.3473  141.8441  152.6784 H   0  0  0  0  0  0  0  0  0  0  0  0
  147.1455  138.5474  154.5011 H   0  0  0  0  0  0  0  0  0  0  0  0
  145.5481  138.1885  153.8378 H   0  0  0  0  0  0  0  0  0  0  0  0
  145.7431  139.5089  154.9764 H   0  0  0  0  0  0  0  0  0  0  0  0
  147.4398  140.0541  151.1519 H   0  0  0  0  0  0  0  0  0  0  0  0
  147.9855  138.7338  152.1569 H   0  0  0  0  0  0  0  0  0  0  0  0
  145.0795  138.5664  151.3760 H   0  0  0  0  0  0  0  0  0  0  0  0
  146.1793  138.5554  150.0176 H   0  0  0  0  0  0  0  0  0  0  0  0
  147.3840  136.6831  151.2560 H   0  0  0  0  0  0  0  0  0  0  0  0
  147.1412  134.6196  151.8452 H   0  0  0  0  0  0  0  0  0  0  0  0
  145.7980  134.2966  152.9285 H   0  0  0  0  0  0  0  0  0  0  0  0
  147.2405  132.4962  150.4195 H   0  0  0  0  0  0  0  0  0  0  0  0
  145.4514  131.2305  148.7861 H   0  0  0  0  0  0  0  0  0  0  0  0
  142.7855  131.7237  148.4313 H   0  0  0  0  0  0  0  0  0  0  0  0
  142.0118  132.9394  149.3738 H   0  0  0  0  0  0  0  0  0  0  0  0
  145.5802  140.2876  152.7246 H   0  0  0  0  0  0  0  0  0  0  0  0
  1  2  1  0  0  0  0
  1 16  1  0  0  0  0
  1 17  1  0  0  0  0
  1 18  1  0  0  0  0
  2  3  1  0  0  0  0
  2  4  1  0  0  0  0
  2 33  1  0  0  0  0
  3 19  1  0  0  0  0
  3 20  1  0  0  0  0
  3 21  1  0  0  0  0
  4  5  1  0  0  0  0
  4 22  1  0  0  0  0
  4 23  1  0  0  0  0
  5  6  1  0  0  0  0
  5 24  1  0  0  0  0
  5 25  1  0  0  0  0
  6  7  1  0  0  0  0
  6 26  1  0  0  0  0
  7  8  2  0  0  0  0
  7  9  1  0  0  0  0
  9 10  1  0  0  0  0
  9 27  1  0  0  0  0
  9 28  1  0  0  0  0
 10 15  1  0  0  0  0
 10 11  1  0  0  0  0
 11 12  2  0  0  0  0
 11 29  1  0  0  0  0
 12 13  1  0  0  0  0
 12 30  1  0  0  0  0
 13 14  1  0  0  0  0
 13 15  2  0  0  0  0
 14 31  1  0  0  0  0
 14 32  1  0  0  0  0
M  CHG  1   2   1
M  END
> <s_m_source_file>
AV-unprocessed.smi

> <i_m_source_file_index>
1009

> <i_lp_mmshare_version>
43012

> <i_f3d_flags>
0

> <s_epik_input>
W0NIM11OKFtDSDNdKVtDSDJdW0NIMl1bTkhdQyg9TylbQ0gyXW4xW2NIXVtjSF1jKG4xKVtOSDJd

> <s_epik_cmdline>
J2VwaWtfcHl0aG9uJywgJy1waCcsICc3LjAnLCAnLXRuJywgJzgnLCAnLW1hJywgJzIwMCcsICctbWV0YWxfYmluZGluZycsICctaW1hZScsICc8aW5maWxlLm1hZT4nLCAnLW9tYWUnLCAnPG91dGZpbGUubWFlPic=

> <r_lp_tautomer_probability>
1

> <r_epik_Ionization_Penalty>
0.00595791

> <r_epik_Ionization_Penalty_Charging>
0.00581587

> <r_epik_Ionization_Penalty_Neutral>
0.000142034

> <r_epik_State_Penalty>
0.00427192

> <r_epik_Charging_Adjusted_Penalty>
0.0100878

> <i_epik_Tot_Q>
1

> <i_epik_Tot_abs_Q>
1

> <r_epik_Metal_State_Penalty>
-0

> <b_epik_Metal_Only>
0

> <s_lp_Force_Field>
OPLS_2005

> <r_lp_Energy>
4.99311

> <b_lp_Chiralities_Consistent>
1

> <s_lp_Variant>
AV-unprocessed.smi:1009-1

> <Gold.Version>
5.8.1

> <Gold.Id.Protein>
6NUR|6NUR_protein|mol2

> <Gold.PLP.Fitness>
43.7822

> <Gold.PLP.PLP>
-30.2449

> <Gold.PLP.part.hbond>
-3.9325

> <Gold.PLP.part.metal>
0.0000

> <Gold.PLP.part.buried>
0.9016

> <Gold.PLP.part.nonpolar>
-27.4822

> <Gold.PLP.part.repulsive>
1.3238

> <Gold.PLP.ligand.clash>
0.0000

> <Gold.PLP.ligand.torsion>
0.7460

> <Gold.PLP.Chemscore.Hbond>
4.0000

> <Gold.PLP.Chemscore.CHOScore>
1.0000

> <Gold.PLP.Chemscore.Metal>
0.0000

> <Gold.Chemscore.Hbonds>
donor molecule, donor type, donor heavy atom, donor atom, acceptor molecule, acceptor atom, score
      L1  H     2    33       P1 10175  2.00
      L1  H     6    26       P1  7948  1.00
      L1  H    14    32       P1 10186  1.00
      L1  C    11    29       P1 10747  1.00

> <Gold.PLP.Chemscore.Internal.Correction>
0.0292

> <Gold.Rescore>
     Score         DG    S(hbond)    S(metal)    S(lipo)     H(rot)  DE(clash)    DE(int)     intcor
     12.15     -14.65       2.96        0.00      47.57       2.45       0.26       2.24       ----

> <Gold.Chemscore.Fitness>
12.1538

> <Gold.Chemscore.DG>
-14.6546

> <Gold.Chemscore.ZeroCoef>
-5.4800

> <Gold.Chemscore.Hbond>
2.9581

> <Gold.Chemscore.Metal>
0.0000

> <Gold.Chemscore.Lipo>
47.5723

> <Gold.Chemscore.Internal_Hbond>
0.0000

> <Gold.Chemscore.DEClash>
0.2603

> <Gold.Chemscore.DEInternal>
2.2405

> <Gold.Chemscore.Rot>
2.4497

> <Gold.Chemscore.Internal.Correction>
   9.000000E+99

> <Gold.Chemscore.Hbonds>
donor molecule, donor type, donor heavy atom, donor atom, acceptor molecule, acceptor atom, score
      L1  H     2    33       P1 10175  0.88
      L1  H     6    26       P1  7948  0.99
      L1  H    14    32       P1 10186  0.97

> <Gold.Chemscore.Hbond.Weighted>
-9.8799

> <Gold.Chemscore.Metal.Weighted>
-0.0000

> <Gold.Chemscore.Lipo.Weighted>
-5.5660

> <Gold.Chemscore.Internal_Hbond.Weighted>
0.0000

> <Gold.Chemscore.DEClash.Weighted>
0.2603

> <Gold.Chemscore.DEInternal.Weighted>
2.2405

> <Gold.Chemscore.Rot.Weighted>
6.2713

> <Gold.Chemscore.Internal.Correction.Weighted>
   9.000000E+99

> <Gold.Protein.RotatedTorsions>
[ 6907 6896 6895 6894 ] final  158.88 input  -60.11 | X-H torsion
[ 7974 7965 7964 7962 ] final -169.68 input  175.53 | X-H torsion
[ 8008 7997 7996 7995 ] final  145.84 input   59.86 | X-H torsion
[ 10167 10162 10161 10158 ] final -178.20 input  -65.29 | X-H torsion
[ 10718 10713 10712 10709 ] final -137.45 input   66.30 | X-H torsion
[ 10763 10752 10751 10750 ] final -107.00 input  -60.55 | X-H torsion
[ 11005 11000 10999 10996 ] final  -51.21 input  -57.11 | X-H torsion

> <Gold.Protein.ActiveResidues>
 VAL166  LYS551  ARG553  GLY616  TRP617  ASP618  TYR619  PRO620  LYS621  CYS622 
 ASP623  PHE694  ASN695  SER759  ASP760  ASP761  ALA762  ILE779  LEU786  VAL792 
 PHE793  MET794  SER795  GLU796  ALA797  LYS798  CYS799  TRP800  GLU811  SER814 

> <Gold.Protein.RotatedAtoms>
  151.9939  133.3801  159.4154 H   0  0  0  0  0  0  0  0  0  0  0  0  # atno 6907 bound_to 6896
  150.6918  134.3907  159.5084 H   0  0  0  0  0  0  0  0  0  0  0  0  # atno 6908 bound_to 6896
  152.1644  134.8885  160.0590 H   0  0  0  0  0  0  0  0  0  0  0  0  # atno 6909 bound_to 6896
  144.7181  140.2185  143.6319 H   0  0  0  0  0  0  0  0  0  0  0  0  # atno 7974 bound_to 7965
  156.2872  140.2198  156.5280 H   0  0  0  0  0  0  0  0  0  0  0  0  # atno 8008 bound_to 7997
  154.7473  140.0483  157.0885 H   0  0  0  0  0  0  0  0  0  0  0  0  # atno 8009 bound_to 7997
  155.0154  140.3118  155.4816 H   0  0  0  0  0  0  0  0  0  0  0  0  # atno 8010 bound_to 7997
  139.5443  144.2276  152.0958 H   0  0  0  0  0  0  0  0  0  0  0  0  # atno 10167 bound_to 10162
  156.2882  130.7360  151.1377 H   0  0  0  0  0  0  0  0  0  0  0  0  # atno 10718 bound_to 10713
  154.8048  135.4691  154.0365 H   0  0  0  0  0  0  0  0  0  0  0  0  # atno 10763 bound_to 10752
  153.1842  135.6845  153.8444 H   0  0  0  0  0  0  0  0  0  0  0  0  # atno 10764 bound_to 10752
  153.7984  135.3233  155.3364 H   0  0  0  0  0  0  0  0  0  0  0  0  # atno 10765 bound_to 10752
  141.0859  133.6643  156.3845 H   0  0  0  0  0  0  0  0  0  0  0  0  # atno 11005 bound_to 11000
  145.8523  139.2182  143.1764 LP  0  0  0  0  0  0  0  0  0  0  0  0  # atno 17320 bound_to 7965
  146.0249  140.8313  142.9905 LP  0  0  0  0  0  0  0  0  0  0  0  0  # atno 17321 bound_to 7965
  140.1760  144.4890  150.6553 LP  0  0  0  0  0  0  0  0  0  0  0  0  # atno 17342 bound_to 10162
  140.6686  143.2277  151.5681 LP  0  0  0  0  0  0  0  0  0  0  0  0  # atno 17343 bound_to 10162
  157.7335  131.0590  150.5575 LP  0  0  0  0  0  0  0  0  0  0  0  0  # atno 17370 bound_to 10713
  156.5688  130.4274  149.6029 LP  0  0  0  0  0  0  0  0  0  0  0  0  # atno 17371 bound_to 10713
  140.5364  134.6162  157.5366 LP  0  0  0  0  0  0  0  0  0  0  0  0  # atno 17394 bound_to 11000
  139.9677  134.7345  156.0105 LP  0  0  0  0  0  0  0  0  0  0  0  0  # atno 17395 bound_to 11000

$$$$
