AV-unprocessed.smi:2526|AV-procd|sdf|9941|dock3
  -GOLD-   2272013583D 1   1.00000     0.00000
 Structure written by MMmdl.
 28 29  0  0  0  0  0  0  0  0  1 V2000
  148.6836  141.0108  154.0215 C   0  0  0  0  0  0  0  0  0  0  0  0
  149.6319  141.0094  155.1148 N   0  0  0  0  0  0  0  0  0  0  0  0
  149.5793  141.7137  156.2977 C   0  0  0  0  0  0  0  0  0  0  0  0
  150.6987  141.3979  157.0183 C   0  0  0  0  0  0  0  0  0  0  0  0
  151.1308  141.8859  158.3814 C   0  0  1  0  0  0  0  0  0  0  0  0
  152.3262  141.1669  158.8341 N   0  0  0  0  0  0  0  0  0  0  0  0
  153.3715  141.6729  159.5128 C   0  0  0  0  0  0  0  0  0  0  0  0
  154.3013  140.9598  159.8828 O   0  0  0  0  0  0  0  0  0  0  0  0
  153.4156  143.1801  159.8022 C   0  0  0  0  0  0  0  0  0  0  0  0
  152.0461  143.8627  159.6736 C   0  0  0  0  0  0  0  0  0  0  0  0
  151.3432  143.4188  158.3858 C   0  0  2  0  0  0  0  0  0  0  0  0
  150.0796  144.1213  158.2511 N   0  0  0  0  0  0  0  0  0  0  0  0
  151.3784  140.4747  156.1718 C   0  0  0  0  0  0  0  0  0  0  0  0
  150.7411  140.2471  155.0351 N   0  0  0  0  0  0  0  0  0  0  0  0
  147.7129  141.3637  154.3713 H   0  0  0  0  0  0  0  0  0  0  0  0
  148.5688  140.0022  153.6225 H   0  0  0  0  0  0  0  0  0  0  0  0
  149.0388  141.6714  153.2302 H   0  0  0  0  0  0  0  0  0  0  0  0
  148.7572  142.3755  156.5280 H   0  0  0  0  0  0  0  0  0  0  0  0
  150.3598  141.6464  159.1156 H   0  0  0  0  0  0  0  0  0  0  0  0
  152.3427  140.1753  158.6443 H   0  0  0  0  0  0  0  0  0  0  0  0
  153.8250  143.3486  160.7989 H   0  0  0  0  0  0  0  0  0  0  0  0
  154.1145  143.6310  159.0969 H   0  0  0  0  0  0  0  0  0  0  0  0
  151.4312  143.6194  160.5418 H   0  0  0  0  0  0  0  0  0  0  0  0
  152.1789  144.9452  159.6804 H   0  0  0  0  0  0  0  0  0  0  0  0
  151.9704  143.6976  157.5377 H   0  0  0  0  0  0  0  0  0  0  0  0
  149.8533  144.2290  157.2727 H   0  0  0  0  0  0  0  0  0  0  0  0
  149.3391  143.5670  158.6565 H   0  0  0  0  0  0  0  0  0  0  0  0
  152.3145  139.9666  156.3505 H   0  0  0  0  0  0  0  0  0  0  0  0
  1  2  1  0  0  0  0
  1 15  1  0  0  0  0
  1 16  1  0  0  0  0
  1 17  1  0  0  0  0
  2 14  1  0  0  0  0
  2  3  1  0  0  0  0
  3  4  2  0  0  0  0
  3 18  1  0  0  0  0
  4  5  1  0  0  0  0
  4 13  1  0  0  0  0
  5 11  1  0  0  0  0
  5  6  1  0  0  0  0
  5 19  1  0  0  0  0
  6  7  1  0  0  0  0
  6 20  1  0  0  0  0
  7  8  2  0  0  0  0
  7  9  1  0  0  0  0
  9 10  1  0  0  0  0
  9 21  1  0  0  0  0
  9 22  1  0  0  0  0
 10 11  1  0  0  0  0
 10 23  1  0  0  0  0
 10 24  1  0  0  0  0
 11 12  1  0  0  0  0
 11 25  1  0  0  0  0
 12 26  1  0  0  0  0
 12 27  1  0  0  0  0
 13 14  2  0  0  0  0
 13 28  1  0  0  0  0
M  END
> <s_m_source_file>
AV-unprocessed.smi

> <i_m_source_file_index>
2526

> <i_lp_mmshare_version>
43012

> <i_f3d_flags>
0

> <s_epik_input>
W0NIM11uMVtjSF1jKFtjSF1uMSlbQ0BASF0yW05IXUMoPU8pW0NIMl1bQ0gyXVtDQEhdMltOSDJd

> <s_epik_cmdline>
J2VwaWtfcHl0aG9uJywgJy1waCcsICc3LjAnLCAnLXRuJywgJzgnLCAnLW1hJywgJzIwMCcsICctbWV0YWxfYmluZGluZycsICctaW1hZScsICc8aW5maWxlLm1hZT4nLCAnLW9tYWUnLCAnPG91dGZpbGUubWFlPic=

> <r_lp_tautomer_probability>
1

> <r_epik_Ionization_Penalty>
2.50279

> <r_epik_Ionization_Penalty_Charging>
0

> <r_epik_Ionization_Penalty_Neutral>
2.50279

> <r_epik_State_Penalty>
2.66754

> <r_epik_Charging_Adjusted_Penalty>
2.66754

> <i_epik_Tot_Q>
0

> <i_epik_Tot_abs_Q>
0

> <r_epik_Metal_State_Penalty>
2.66721

> <b_epik_Metal_Only>
0

> <s_lp_Force_Field>
OPLS_2005

> <r_lp_Energy>
8.34042

> <b_lp_Chiralities_Consistent>
1

> <s_lp_Variant>
AV-unprocessed.smi:2526-8

> <Gold.Version>
5.8.1

> <Gold.Id.Protein>
6NUR|6NUR_protein|mol2

> <Gold.PLP.Fitness>
39.0512

> <Gold.PLP.PLP>
-30.8054

> <Gold.PLP.part.hbond>
-3.0000

> <Gold.PLP.part.metal>
0.0000

> <Gold.PLP.part.buried>
-2.6813

> <Gold.PLP.part.nonpolar>
-25.3561

> <Gold.PLP.part.repulsive>
0.1650

> <Gold.PLP.ligand.clash>
0.0000

> <Gold.PLP.ligand.torsion>
0.0398

> <Gold.PLP.Chemscore.Hbond>
2.0000

> <Gold.PLP.Chemscore.CHOScore>
0.7664

> <Gold.PLP.Chemscore.Metal>
0.0000

> <Gold.Chemscore.Hbonds>
donor molecule, donor type, donor heavy atom, donor atom, acceptor molecule, acceptor atom, score
      L1  H    12    26       P1  8028  1.00
      P1  H  7989  7998       L1    14  1.00
      L1  C     3    18       P1  8028  0.76

> <Gold.PLP.Chemscore.Internal.Correction>
0.0260

> <Gold.Rescore>
     Score         DG    S(hbond)    S(metal)    S(lipo)     H(rot)  DE(clash)    DE(int)     intcor
     15.17     -15.42       1.26        0.00      70.87       1.00       0.08       0.17       ----

> <Gold.Chemscore.Fitness>
15.1659

> <Gold.Chemscore.DG>
-15.4188

> <Gold.Chemscore.ZeroCoef>
-5.4800

> <Gold.Chemscore.Hbond>
1.2595

> <Gold.Chemscore.Metal>
0.0000

> <Gold.Chemscore.Lipo>
70.8712

> <Gold.Chemscore.Internal_Hbond>
0.0000

> <Gold.Chemscore.DEClash>
0.0846

> <Gold.Chemscore.DEInternal>
0.1683

> <Gold.Chemscore.Rot>
1.0000

> <Gold.Chemscore.Internal.Correction>
   9.000000E+99

> <Gold.Chemscore.Hbonds>
donor molecule, donor type, donor heavy atom, donor atom, acceptor molecule, acceptor atom, score
      L1  H    12    26       P1  8028  0.50
      P1  H  7989  7998       L1    14  0.39

> <Gold.Chemscore.Hbond.Weighted>
-4.2068

> <Gold.Chemscore.Metal.Weighted>
-0.0000

> <Gold.Chemscore.Lipo.Weighted>
-8.2919

> <Gold.Chemscore.Internal_Hbond.Weighted>
0.0000

> <Gold.Chemscore.DEClash.Weighted>
0.0846

> <Gold.Chemscore.DEInternal.Weighted>
0.1683

> <Gold.Chemscore.Rot.Weighted>
2.5600

> <Gold.Chemscore.Internal.Correction.Weighted>
   9.000000E+99

> <Gold.Protein.RotatedTorsions>
[ 6907 6896 6895 6894 ] final   -7.66 input  -60.11 | X-H torsion
[ 7974 7965 7964 7962 ] final   50.59 input  175.53 | X-H torsion
[ 8008 7997 7996 7995 ] final -123.86 input   59.86 | X-H torsion
[ 10167 10162 10161 10158 ] final -158.97 input  -65.29 | X-H torsion
[ 10718 10713 10712 10709 ] final   92.27 input   66.30 | X-H torsion
[ 10763 10752 10751 10750 ] final -173.65 input  -60.55 | X-H torsion
[ 11005 11000 10999 10996 ] final  150.22 input  -57.11 | X-H torsion

> <Gold.Protein.ActiveResidues>
 VAL166  LYS551  ARG553  GLY616  TRP617  ASP618  TYR619  PRO620  LYS621  CYS622 
 ASP623  PHE694  ASN695  SER759  ASP760  ASP761  ALA762  ILE779  LEU786  VAL792 
 PHE793  MET794  SER795  GLU796  ALA797  LYS798  CYS799  TRP800  GLU811  SER814 

> <Gold.Protein.RotatedAtoms>
  151.4460  135.1025  159.9683 H   0  0  0  0  0  0  0  0  0  0  0  0  # atno 6907 bound_to 6896
  152.4905  133.8484  159.7199 H   0  0  0  0  0  0  0  0  0  0  0  0  # atno 6908 bound_to 6896
  150.9055  133.7005  159.2895 H   0  0  0  0  0  0  0  0  0  0  0  0  # atno 6909 bound_to 6896
  145.9997  139.4426  143.0022 H   0  0  0  0  0  0  0  0  0  0  0  0  # atno 7974 bound_to 7965
  155.1874  140.0412  157.2894 H   0  0  0  0  0  0  0  0  0  0  0  0  # atno 8008 bound_to 7997
  154.6162  140.2489  155.7579 H   0  0  0  0  0  0  0  0  0  0  0  0  # atno 8009 bound_to 7997
  156.2407  140.2904  156.0448 H   0  0  0  0  0  0  0  0  0  0  0  0  # atno 8010 bound_to 7997
  139.6651  143.9844  152.2250 H   0  0  0  0  0  0  0  0  0  0  0  0  # atno 10167 bound_to 10162
  157.6959  131.0437  150.3855 H   0  0  0  0  0  0  0  0  0  0  0  0  # atno 10718 bound_to 10713
  154.6054  135.2859  155.0491 H   0  0  0  0  0  0  0  0  0  0  0  0  # atno 10763 bound_to 10752
  154.1740  135.6468  153.5020 H   0  0  0  0  0  0  0  0  0  0  0  0  # atno 10764 bound_to 10752
  153.0173  135.5408  154.6788 H   0  0  0  0  0  0  0  0  0  0  0  0  # atno 10765 bound_to 10752
  140.1112  134.8923  157.1939 H   0  0  0  0  0  0  0  0  0  0  0  0  # atno 11005 bound_to 11000
  145.7506  140.9974  143.1252 LP  0  0  0  0  0  0  0  0  0  0  0  0  # atno 17320 bound_to 7965
  144.6915  139.9209  143.7468 LP  0  0  0  0  0  0  0  0  0  0  0  0  # atno 17321 bound_to 7965
  139.9593  144.6568  150.8095 LP  0  0  0  0  0  0  0  0  0  0  0  0  # atno 17342 bound_to 10162
  140.7596  143.3132  151.2795 LP  0  0  0  0  0  0  0  0  0  0  0  0  # atno 17343 bound_to 10162
  156.4265  130.3963  149.6789 LP  0  0  0  0  0  0  0  0  0  0  0  0  # atno 17370 bound_to 10713
  156.4022  130.7680  151.2689 LP  0  0  0  0  0  0  0  0  0  0  0  0  # atno 17371 bound_to 10713
  140.3088  134.3047  155.7272 LP  0  0  0  0  0  0  0  0  0  0  0  0  # atno 17394 bound_to 11000
  141.2130  133.7637  156.9747 LP  0  0  0  0  0  0  0  0  0  0  0  0  # atno 17395 bound_to 11000

$$$$
