AV-unprocessed.smi:2247|AV-procd|sdf|9089|dock3
  -GOLD-   2272012293D 1   1.00000     0.00000
 Structure written by MMmdl.
 34 35  0  0  0  0  0  0  0  0  1 V2000
  151.4484  144.8786  160.5223 C   0  0  0  0  0  0  0  0  0  0  0  0
  152.4743  144.3308  159.5164 C   0  0  0  0  0  0  0  0  0  0  0  0
  152.3658  144.9828  158.1298 C   0  0  0  0  0  0  0  0  0  0  0  0
  152.4184  142.8666  159.4111 N   0  0  0  0  0  0  0  0  0  0  0  0
  153.5868  142.0326  159.6470 C   0  0  0  0  0  0  0  0  0  0  0  0
  153.1682  140.6375  159.1733 C   0  0  0  0  0  0  0  0  0  0  0  0
  151.6315  140.6366  159.1528 C   0  0  2  0  0  0  0  0  0  0  0  0
  151.1461  139.9764  157.9417 N   0  0  0  0  0  0  0  0  0  0  0  0
  150.2652  138.9652  157.9021 C   0  0  0  0  0  0  0  0  0  0  0  0
  149.7994  138.4676  158.9321 O   0  0  0  0  0  0  0  0  0  0  0  0
  150.0203  138.5923  156.5901 N   0  0  0  0  0  0  0  0  0  0  0  0
  149.5289  139.4713  155.7733 C   0  0  0  0  0  0  0  0  0  0  0  0
  149.2433  139.3117  154.4268 N   0  0  0  0  0  0  0  0  0  0  0  0
  148.7313  140.4900  153.9583 C   0  0  0  0  0  0  0  0  0  0  0  0
  148.6925  141.3552  154.9677 C   0  0  0  0  0  0  0  0  0  0  0  0
  149.1734  140.7612  156.0953 O   0  0  0  0  0  0  0  0  0  0  0  0
  151.3314  142.1360  159.1245 C   0  0  0  0  0  0  0  0  0  0  0  0
  150.2075  142.5819  158.8923 O   0  0  0  0  0  0  0  0  0  0  0  0
  151.6093  145.9427  160.6969 H   0  0  0  0  0  0  0  0  0  0  0  0
  151.5303  144.3720  161.4845 H   0  0  0  0  0  0  0  0  0  0  0  0
  150.4257  144.7603  160.1639 H   0  0  0  0  0  0  0  0  0  0  0  0
  153.4533  144.6059  159.9124 H   0  0  0  0  0  0  0  0  0  0  0  0
  152.4838  146.0645  158.1975 H   0  0  0  0  0  0  0  0  0  0  0  0
  151.3976  144.7839  157.6694 H   0  0  0  0  0  0  0  0  0  0  0  0
  153.1386  144.6085  157.4577 H   0  0  0  0  0  0  0  0  0  0  0  0
  154.4692  142.3795  159.1100 H   0  0  0  0  0  0  0  0  0  0  0  0
  153.8147  142.0272  160.7138 H   0  0  0  0  0  0  0  0  0  0  0  0
  153.5700  140.4680  158.1723 H   0  0  0  0  0  0  0  0  0  0  0  0
  153.5676  139.8527  159.8164 H   0  0  0  0  0  0  0  0  0  0  0  0
  151.2263  140.1957  160.0652 H   0  0  0  0  0  0  0  0  0  0  0  0
  151.4935  140.3303  157.0622 H   0  0  0  0  0  0  0  0  0  0  0  0
  149.3801  138.4932  153.8513 H   0  0  0  0  0  0  0  0  0  0  0  0
  148.4422  140.5865  152.9221 H   0  0  0  0  0  0  0  0  0  0  0  0
  148.3673  142.3822  155.0422 H   0  0  0  0  0  0  0  0  0  0  0  0
  1  2  1  0  0  0  0
  1 19  1  0  0  0  0
  1 20  1  0  0  0  0
  1 21  1  0  0  0  0
  2  3  1  0  0  0  0
  2  4  1  0  0  0  0
  2 22  1  0  0  0  0
  3 23  1  0  0  0  0
  3 24  1  0  0  0  0
  3 25  1  0  0  0  0
  4 17  1  0  0  0  0
  4  5  1  0  0  0  0
  5  6  1  0  0  0  0
  5 26  1  0  0  0  0
  5 27  1  0  0  0  0
  6  7  1  0  0  0  0
  6 28  1  0  0  0  0
  6 29  1  0  0  0  0
  7  8  1  0  0  0  0
  7 17  1  0  0  0  0
  7 30  1  0  0  0  0
  8 31  1  0  0  0  0
  8  9  1  0  0  0  0
  9 11  1  0  0  0  0
  9 10  2  0  0  0  0
 11 12  2  0  0  0  0
 12 16  1  0  0  0  0
 12 13  1  0  0  0  0
 13 32  1  0  0  0  0
 13 14  1  0  0  0  0
 14 33  1  0  0  0  0
 14 15  2  0  0  0  0
 15 34  1  0  0  0  0
 15 16  1  0  0  0  0
 17 18  2  0  0  0  0
M  END
> <s_m_source_file>
AV-unprocessed.smi

> <i_m_source_file_index>
2247

> <i_lp_mmshare_version>
43012

> <i_f3d_flags>
0

> <s_epik_input>
W0NIM11bQ0hdKFtDSDNdKU4xW0NIMl1bQ0gyXVtDQEhdKEMxPU8pW05IXUMoPU8pW05IXWMybltjSF1bY0hdbzI=

> <s_epik_cmdline>
J2VwaWtfcHl0aG9uJywgJy1waCcsICc3LjAnLCAnLXRuJywgJzgnLCAnLW1hJywgJzIwMCcsICctbWV0YWxfYmluZGluZycsICctaW1hZScsICc8aW5maWxlLm1hZT4nLCAnLW9tYWUnLCAnPG91dGZpbGUubWFlPic=

> <r_lp_tautomer_probability>
0.107061

> <r_epik_Ionization_Penalty>
0.180736

> <r_epik_Ionization_Penalty_Charging>
0.180388

> <r_epik_Ionization_Penalty_Neutral>
0.000348501

> <r_epik_State_Penalty>
2.44396

> <r_epik_Charging_Adjusted_Penalty>
2.62435

> <i_epik_Tot_Q>
0

> <i_epik_Tot_abs_Q>
0

> <r_epik_Metal_State_Penalty>
4.38331

> <b_epik_Metal_Only>
0

> <s_lp_Force_Field>
OPLS_2005

> <r_lp_Energy>
45.2886

> <b_lp_Chiralities_Consistent>
1

> <s_lp_Variant>
AV-unprocessed.smi:2247-4

> <Gold.Version>
5.8.1

> <Gold.Id.Protein>
6NUR|6NUR_protein|mol2

> <Gold.PLP.Fitness>
37.3927

> <Gold.PLP.PLP>
-32.7374

> <Gold.PLP.part.hbond>
-1.0741

> <Gold.PLP.part.metal>
0.0000

> <Gold.PLP.part.buried>
-3.2559

> <Gold.PLP.part.nonpolar>
-29.0825

> <Gold.PLP.part.repulsive>
0.2927

> <Gold.PLP.ligand.clash>
0.0000

> <Gold.PLP.ligand.torsion>
0.7220

> <Gold.PLP.Chemscore.Hbond>
0.0000

> <Gold.PLP.Chemscore.CHOScore>
2.0000

> <Gold.PLP.Chemscore.Metal>
0.0000

> <Gold.Chemscore.Hbonds>
donor molecule, donor type, donor heavy atom, donor atom, acceptor molecule, acceptor atom, score
      L1  C    14    33       P1  7957  0.97
      L1  C    15    34       P1  8028  1.00

> <Gold.PLP.Chemscore.Internal.Correction>
0.0991

> <Gold.Rescore>
     Score         DG    S(hbond)    S(metal)    S(lipo)     H(rot)  DE(clash)    DE(int)     intcor
     10.29     -11.15       0.00        0.00      77.60       1.33       0.01       0.84       ----

> <Gold.Chemscore.Fitness>
10.2946

> <Gold.Chemscore.DG>
-11.1450

> <Gold.Chemscore.ZeroCoef>
-5.4800

> <Gold.Chemscore.Hbond>
0.0000

> <Gold.Chemscore.Metal>
0.0000

> <Gold.Chemscore.Lipo>
77.6028

> <Gold.Chemscore.Internal_Hbond>
0.0000

> <Gold.Chemscore.DEClash>
0.0081

> <Gold.Chemscore.DEInternal>
0.8423

> <Gold.Chemscore.Rot>
1.3338

> <Gold.Chemscore.Internal.Correction>
   9.000000E+99

> <Gold.Chemscore.Hbond.Weighted>
-0.0000

> <Gold.Chemscore.Metal.Weighted>
-0.0000

> <Gold.Chemscore.Lipo.Weighted>
-9.0795

> <Gold.Chemscore.Internal_Hbond.Weighted>
0.0000

> <Gold.Chemscore.DEClash.Weighted>
0.0081

> <Gold.Chemscore.DEInternal.Weighted>
0.8423

> <Gold.Chemscore.Rot.Weighted>
3.4145

> <Gold.Chemscore.Internal.Correction.Weighted>
   9.000000E+99

> <Gold.Protein.RotatedTorsions>
[ 6907 6896 6895 6894 ] final  -51.80 input  -60.11 | X-H torsion
[ 7974 7965 7964 7962 ] final   10.57 input  175.53 | X-H torsion
[ 8008 7997 7996 7995 ] final   38.50 input   59.86 | X-H torsion
[ 10167 10162 10161 10158 ] final  -61.87 input  -65.29 | X-H torsion
[ 10718 10713 10712 10709 ] final   33.83 input   66.30 | X-H torsion
[ 10763 10752 10751 10750 ] final -150.95 input  -60.55 | X-H torsion
[ 11005 11000 10999 10996 ] final  -19.83 input  -57.11 | X-H torsion

> <Gold.Protein.ActiveResidues>
 VAL166  LYS551  ARG553  GLY616  TRP617  ASP618  TYR619  PRO620  LYS621  CYS622 
 ASP623  PHE694  ASN695  SER759  ASP760  ASP761  ALA762  ILE779  LEU786  VAL792 
 PHE793  MET794  SER795  GLU796  ALA797  LYS798  CYS799  TRP800  GLU811  SER814 

> <Gold.Protein.RotatedAtoms>
  150.8578  134.7921  159.7058 H   0  0  0  0  0  0  0  0  0  0  0  0  # atno 6907 bound_to 6896
  152.4624  134.5150  159.9775 H   0  0  0  0  0  0  0  0  0  0  0  0  # atno 6908 bound_to 6896
  151.5260  133.3419  159.2945 H   0  0  0  0  0  0  0  0  0  0  0  0  # atno 6909 bound_to 6896
  146.2386  139.9615  142.8458 H   0  0  0  0  0  0  0  0  0  0  0  0  # atno 7974 bound_to 7965
  155.2212  140.3331  155.4315 H   0  0  0  0  0  0  0  0  0  0  0  0  # atno 8008 bound_to 7997
  156.2332  140.1860  156.7234 H   0  0  0  0  0  0  0  0  0  0  0  0  # atno 8009 bound_to 7997
  154.6014  140.0622  156.9359 H   0  0  0  0  0  0  0  0  0  0  0  0  # atno 8010 bound_to 7997
  140.5977  143.2354  151.5999 H   0  0  0  0  0  0  0  0  0  0  0  0  # atno 10167 bound_to 10162
  157.3028  130.7359  149.6677 H   0  0  0  0  0  0  0  0  0  0  0  0  # atno 10718 bound_to 10713
  154.8088  135.3272  154.7361 H   0  0  0  0  0  0  0  0  0  0  0  0  # atno 10763 bound_to 10752
  153.8014  135.6903  153.4859 H   0  0  0  0  0  0  0  0  0  0  0  0  # atno 10764 bound_to 10752
  153.1852  135.4571  155.0024 H   0  0  0  0  0  0  0  0  0  0  0  0  # atno 10765 bound_to 10752
  140.8405  133.7930  155.9855 H   0  0  0  0  0  0  0  0  0  0  0  0  # atno 11005 bound_to 11000
  145.1766  140.9747  143.4290 LP  0  0  0  0  0  0  0  0  0  0  0  0  # atno 17320 bound_to 7965
  144.9980  139.3626  143.6182 LP  0  0  0  0  0  0  0  0  0  0  0  0  # atno 17321 bound_to 7965
  139.5269  144.3032  152.1056 LP  0  0  0  0  0  0  0  0  0  0  0  0  # atno 17342 bound_to 10162
  140.2207  144.4469  150.6343 LP  0  0  0  0  0  0  0  0  0  0  0  0  # atno 17343 bound_to 10162
  155.9672  130.4275  150.4745 LP  0  0  0  0  0  0  0  0  0  0  0  0  # atno 17370 bound_to 10713
  157.2729  131.0591  151.2248 LP  0  0  0  0  0  0  0  0  0  0  0  0  # atno 17371 bound_to 10713
  140.8901  134.2506  157.5099 LP  0  0  0  0  0  0  0  0  0  0  0  0  # atno 17394 bound_to 11000
  139.8703  134.9657  156.4538 LP  0  0  0  0  0  0  0  0  0  0  0  0  # atno 17395 bound_to 11000

$$$$
