AV-unprocessed.smi:374|AV-procd|sdf|2452|dock4
  -GOLD-   2262022393D 1   1.00000     0.00000
 Structure written by MMmdl.
 37 38  0  0  0  0  0  0  0  0  1 V2000
  151.9242  138.3128  153.9991 C   0  0  0  0  0  0  0  0  0  0  0  0
  151.2672  138.8444  155.2894 C   0  0  1  0  0  0  0  0  0  0  0  0
  152.2927  139.4478  156.2608 C   0  0  0  0  0  0  0  0  0  0  0  0
  153.4997  139.3461  156.0384 O   0  0  0  0  0  0  0  0  0  0  0  0
  151.7941  140.0757  157.3382 N   0  0  0  0  0  0  0  0  0  0  0  0
  152.5814  140.7356  158.3759 C   0  0  0  0  0  0  0  0  0  0  0  0
  151.9203  142.0327  158.8887 C   0  0  0  0  0  0  0  0  0  0  0  0
  151.5952  142.9733  157.7095 C   0  0  0  0  0  0  0  0  0  0  0  0
  150.9275  144.2760  158.1785 C   0  0  0  0  0  0  0  0  0  0  0  0
  151.7936  145.0009  159.2187 C   0  0  0  0  0  0  0  0  0  0  0  0
  152.1129  144.0797  160.4048 C   0  0  0  0  0  0  0  0  0  0  0  0
  152.7794  142.7756  159.9373 C   0  0  0  0  0  0  0  0  0  0  0  0
  150.2077  139.8086  155.0187 N   0  0  0  0  0  0  0  0  0  0  0  0
  149.0302  139.6382  154.4136 C   0  0  0  0  0  0  0  0  0  0  0  0
  148.2776  140.7290  154.3803 N   0  0  0  0  0  0  0  0  0  0  0  0
  149.1017  141.5942  155.0423 C   0  0  0  0  0  0  0  0  0  0  0  0
  150.2650  141.0917  155.4556 N   0  0  0  0  0  0  0  0  0  0  0  0
  152.6701  137.5502  154.2252 H   0  0  0  0  0  0  0  0  0  0  0  0
  152.4223  139.1026  153.4351 H   0  0  0  0  0  0  0  0  0  0  0  0
  151.1811  137.8575  153.3436 H   0  0  0  0  0  0  0  0  0  0  0  0
  150.8011  137.9915  155.7862 H   0  0  0  0  0  0  0  0  0  0  0  0
  150.7905  140.1073  157.4435 H   0  0  0  0  0  0  0  0  0  0  0  0
  152.7819  140.0572  159.2070 H   0  0  0  0  0  0  0  0  0  0  0  0
  153.5532  140.9700  157.9405 H   0  0  0  0  0  0  0  0  0  0  0  0
  150.9765  141.7590  159.3632 H   0  0  0  0  0  0  0  0  0  0  0  0
  152.5111  143.2122  157.1674 H   0  0  0  0  0  0  0  0  0  0  0  0
  150.9408  142.4674  156.9987 H   0  0  0  0  0  0  0  0  0  0  0  0
  150.7492  144.9299  157.3242 H   0  0  0  0  0  0  0  0  0  0  0  0
  149.9495  144.0530  158.6068 H   0  0  0  0  0  0  0  0  0  0  0  0
  152.7222  145.3352  158.7544 H   0  0  0  0  0  0  0  0  0  0  0  0
  151.2823  145.8977  159.5699 H   0  0  0  0  0  0  0  0  0  0  0  0
  152.7632  144.5959  161.1118 H   0  0  0  0  0  0  0  0  0  0  0  0
  151.1937  143.8465  160.9436 H   0  0  0  0  0  0  0  0  0  0  0  0
  152.9535  142.1417  160.8066 H   0  0  0  0  0  0  0  0  0  0  0  0
  153.7611  142.9979  159.5166 H   0  0  0  0  0  0  0  0  0  0  0  0
  148.7146  138.6949  153.9925 H   0  0  0  0  0  0  0  0  0  0  0  0
  148.8334  142.6235  155.2310 H   0  0  0  0  0  0  0  0  0  0  0  0
  1  2  1  0  0  0  0
  1 18  1  0  0  0  0
  1 19  1  0  0  0  0
  1 20  1  0  0  0  0
  2  3  1  0  0  0  0
  2 13  1  0  0  0  0
  2 21  1  0  0  0  0
  3  4  2  0  0  0  0
  3  5  1  0  0  0  0
  5  6  1  0  0  0  0
  5 22  1  0  0  0  0
  6  7  1  0  0  0  0
  6 23  1  0  0  0  0
  6 24  1  0  0  0  0
  7 12  1  0  0  0  0
  7  8  1  0  0  0  0
  7 25  1  0  0  0  0
  8  9  1  0  0  0  0
  8 26  1  0  0  0  0
  8 27  1  0  0  0  0
  9 10  1  0  0  0  0
  9 28  1  0  0  0  0
  9 29  1  0  0  0  0
 10 11  1  0  0  0  0
 10 30  1  0  0  0  0
 10 31  1  0  0  0  0
 11 12  1  0  0  0  0
 11 32  1  0  0  0  0
 11 33  1  0  0  0  0
 12 34  1  0  0  0  0
 12 35  1  0  0  0  0
 13 17  1  0  0  0  0
 13 14  1  0  0  0  0
 14 15  2  0  0  0  0
 14 36  1  0  0  0  0
 15 16  1  0  0  0  0
 16 17  2  0  0  0  0
 16 37  1  0  0  0  0
M  END
> <s_m_source_file>
AV-unprocessed.smi

> <i_m_source_file_index>
374

> <i_lp_mmshare_version>
43012

> <i_f3d_flags>
0

> <s_epik_input>
bjFbY0hdbltjSF1uMVtDQEhdKFtDSDNdKUMoPU8pW05IXVtDSDJdW0NIXTJbQ0gyXVtDSDJdW0NIMl1bQ0gyXVtDSDJdMg==

> <s_epik_cmdline>
J2VwaWtfcHl0aG9uJywgJy1waCcsICc3LjAnLCAnLXRuJywgJzgnLCAnLW1hJywgJzIwMCcsICctbWV0YWxfYmluZGluZycsICctaW1hZScsICc8aW5maWxlLm1hZT4nLCAnLW9tYWUnLCAnPG91dGZpbGUubWFlPic=

> <r_lp_tautomer_probability>
1

> <r_epik_Ionization_Penalty>
1.24899e-05

> <r_epik_Ionization_Penalty_Charging>
0

> <r_epik_Ionization_Penalty_Neutral>
1.24899e-05

> <r_epik_State_Penalty>
-0

> <r_epik_Charging_Adjusted_Penalty>
0

> <i_epik_Tot_Q>
0

> <i_epik_Tot_abs_Q>
0

> <r_epik_Metal_State_Penalty>
-0

> <b_epik_Metal_Only>
0

> <s_lp_Force_Field>
OPLS_2005

> <r_lp_Energy>
16.3067

> <b_lp_Chiralities_Consistent>
1

> <s_lp_Variant>
AV-unprocessed.smi:374-2

> <Gold.Version>
5.8.1

> <Gold.Id.Protein>
6NUR|6NUR_protein|mol2

> <Gold.PLP.Fitness>
43.3320

> <Gold.PLP.PLP>
-38.2449

> <Gold.PLP.part.hbond>
-1.8214

> <Gold.PLP.part.metal>
0.0000

> <Gold.PLP.part.buried>
-3.3522

> <Gold.PLP.part.nonpolar>
-32.9876

> <Gold.PLP.part.repulsive>
0.2828

> <Gold.PLP.ligand.clash>
0.0000

> <Gold.PLP.ligand.torsion>
0.4926

> <Gold.PLP.Chemscore.Hbond>
0.9913

> <Gold.PLP.Chemscore.CHOScore>
1.0000

> <Gold.PLP.Chemscore.Metal>
0.0000

> <Gold.Chemscore.Hbonds>
donor molecule, donor type, donor heavy atom, donor atom, acceptor molecule, acceptor atom, score
      P1  H  7997  8010       L1     4  0.15
      L1  C    16    37       P1  8028  1.00

> <Gold.PLP.Chemscore.Internal.Correction>
0.0986

> <Gold.Rescore>
     Score         DG    S(hbond)    S(metal)    S(lipo)     H(rot)  DE(clash)    DE(int)     intcor
     11.76     -13.72       0.97        0.00      89.54       2.14       0.00       1.96       ----

> <Gold.Chemscore.Fitness>
11.7555

> <Gold.Chemscore.DG>
-13.7178

> <Gold.Chemscore.ZeroCoef>
-5.4800

> <Gold.Chemscore.Hbond>
0.9686

> <Gold.Chemscore.Metal>
0.0000

> <Gold.Chemscore.Lipo>
89.5441

> <Gold.Chemscore.Internal_Hbond>
0.0000

> <Gold.Chemscore.DEClash>
0.0000

> <Gold.Chemscore.DEInternal>
1.9623

> <Gold.Chemscore.Rot>
2.1383

> <Gold.Chemscore.Internal.Correction>
   9.000000E+99

> <Gold.Chemscore.Hbonds>
donor molecule, donor type, donor heavy atom, donor atom, acceptor molecule, acceptor atom, score
      P1  H  7997  8010       L1     4  0.17

> <Gold.Chemscore.Hbond.Weighted>
-3.2352

> <Gold.Chemscore.Metal.Weighted>
-0.0000

> <Gold.Chemscore.Lipo.Weighted>
-10.4767

> <Gold.Chemscore.Internal_Hbond.Weighted>
0.0000

> <Gold.Chemscore.DEClash.Weighted>
0.0000

> <Gold.Chemscore.DEInternal.Weighted>
1.9623

> <Gold.Chemscore.Rot.Weighted>
5.4741

> <Gold.Chemscore.Internal.Correction.Weighted>
   9.000000E+99

> <Gold.Protein.RotatedTorsions>
[ 6907 6896 6895 6894 ] final -176.57 input  -60.11 | X-H torsion
[ 7974 7965 7964 7962 ] final -144.48 input  175.53 | X-H torsion
[ 8008 7997 7996 7995 ] final   71.75 input   59.86 | X-H torsion
[ 10167 10162 10161 10158 ] final  100.75 input  -65.29 | X-H torsion
[ 10718 10713 10712 10709 ] final   41.41 input   66.30 | X-H torsion
[ 10763 10752 10751 10750 ] final   31.49 input  -60.55 | X-H torsion
[ 11005 11000 10999 10996 ] final  165.92 input  -57.11 | X-H torsion

> <Gold.Protein.ActiveResidues>
 VAL166  LYS551  ARG553  GLY616  TRP617  ASP618  TYR619  PRO620  LYS621  CYS622 
 ASP623  PHE694  ASN695  SER759  ASP760  ASP761  ALA762  ILE779  LEU786  VAL792 
 PHE793  MET794  SER795  GLU796  ALA797  LYS798  CYS799  TRP800  GLU811  SER814 

> <Gold.Protein.RotatedAtoms>
  151.6069  133.3351  159.3058 H   0  0  0  0  0  0  0  0  0  0  0  0  # atno 6907 bound_to 6896
  150.8177  134.7372  159.6756 H   0  0  0  0  0  0  0  0  0  0  0  0  # atno 6908 bound_to 6896
  152.4273  134.5850  160.0010 H   0  0  0  0  0  0  0  0  0  0  0  0  # atno 6909 bound_to 6896
  144.8295  140.5705  143.5525 H   0  0  0  0  0  0  0  0  0  0  0  0  # atno 7974 bound_to 7965
  155.7585  140.3487  155.5186 H   0  0  0  0  0  0  0  0  0  0  0  0  # atno 8008 bound_to 7997
  155.8936  140.1022  157.1421 H   0  0  0  0  0  0  0  0  0  0  0  0  # atno 8009 bound_to 7997
  154.4036  140.1299  156.4335 H   0  0  0  0  0  0  0  0  0  0  0  0  # atno 8010 bound_to 7997
  139.7499  144.6987  151.0447 H   0  0  0  0  0  0  0  0  0  0  0  0  # atno 10167 bound_to 10162
  157.3932  130.7818  149.7287 H   0  0  0  0  0  0  0  0  0  0  0  0  # atno 10718 bound_to 10713
  153.0313  135.6437  154.1207 H   0  0  0  0  0  0  0  0  0  0  0  0  # atno 10763 bound_to 10752
  154.0929  135.2865  155.3269 H   0  0  0  0  0  0  0  0  0  0  0  0  # atno 10764 bound_to 10752
  154.6452  135.5445  153.7900 H   0  0  0  0  0  0  0  0  0  0  0  0  # atno 10765 bound_to 10752
  140.2611  134.7901  157.3591 H   0  0  0  0  0  0  0  0  0  0  0  0  # atno 11005 bound_to 11000
  145.4927  139.1488  143.3701 LP  0  0  0  0  0  0  0  0  0  0  0  0  # atno 17320 bound_to 7965
  146.2598  140.5066  142.8858 LP  0  0  0  0  0  0  0  0  0  0  0  0  # atno 17321 bound_to 7965
  140.7796  143.4821  151.0004 LP  0  0  0  0  0  0  0  0  0  0  0  0  # atno 17342 bound_to 10162
  139.8509  143.7440  152.3178 LP  0  0  0  0  0  0  0  0  0  0  0  0  # atno 17343 bound_to 10162
  155.9804  130.4030  150.3533 LP  0  0  0  0  0  0  0  0  0  0  0  0  # atno 17370 bound_to 10713
  157.1652  131.0355  151.2822 LP  0  0  0  0  0  0  0  0  0  0  0  0  # atno 17371 bound_to 10713
  140.1464  134.4906  155.7993 LP  0  0  0  0  0  0  0  0  0  0  0  0  # atno 17394 bound_to 11000
  141.2190  133.6845  156.7300 LP  0  0  0  0  0  0  0  0  0  0  0  0  # atno 17395 bound_to 11000

$$$$
