AV-unprocessed.smi:3292|AV-procd|sdf|12625|dock1
  -GOLD-   2272018563D 1   1.00000     0.00000
 Structure written by MMmdl.
 38 39  0  0  0  0  0  0  0  0  1 V2000
  146.6321  132.1934  154.1010 C   0  0  0  0  0  0  0  0  0  0  0  0
  146.4562  133.3060  153.0587 C   0  0  2  0  0  0  0  0  0  0  0  0
  146.6192  132.7616  151.6237 C   0  0  0  0  0  0  0  0  0  0  0  0
  145.3478  132.5084  150.9703 N   0  0  0  0  0  0  0  0  0  0  0  0
  144.0808  132.6279  151.5263 C   0  0  0  0  0  0  0  0  0  0  0  0
  143.1842  132.2930  150.5370 C   0  0  0  0  0  0  0  0  0  0  0  0
  143.8731  131.9562  149.3741 N   0  0  0  0  0  0  0  0  0  0  0  0
  145.1484  132.1053  149.7079 C   0  0  0  0  0  0  0  0  0  0  0  0
  147.4266  134.3668  153.3282 N   0  0  0  0  0  0  0  0  0  0  0  0
  147.7573  134.8312  154.5421 C   0  0  0  0  0  0  0  0  0  0  0  0
  147.2847  134.4072  155.5968 O   0  0  0  0  0  0  0  0  0  0  0  0
  148.6522  135.8261  154.4663 N   0  0  0  0  0  0  0  0  0  0  0  0
  149.1799  136.5725  155.6041 C   0  0  0  0  0  0  0  0  0  0  0  0
  150.3208  137.5188  155.1856 C   0  0  2  0  0  0  0  0  0  0  0  0
  151.0036  138.2073  156.3492 C   0  0  0  0  0  0  0  0  0  0  0  0
  151.7198  139.3611  155.6547 C   0  0  0  0  0  0  0  0  0  0  0  0
  150.8978  139.7164  154.5469 O   0  0  0  0  0  0  0  0  0  0  0  0
  149.8964  138.7239  154.3427 C   0  0  0  0  0  0  0  0  0  0  0  0
  145.9026  131.3972  153.9509 H   0  0  0  0  0  0  0  0  0  0  0  0
  146.4950  132.5772  155.1126 H   0  0  0  0  0  0  0  0  0  0  0  0
  147.6261  131.7483  154.0448 H   0  0  0  0  0  0  0  0  0  0  0  0
  145.4422  133.6939  153.1729 H   0  0  0  0  0  0  0  0  0  0  0  0
  147.1993  133.4555  151.0133 H   0  0  0  0  0  0  0  0  0  0  0  0
  147.1745  131.8231  151.6403 H   0  0  0  0  0  0  0  0  0  0  0  0
  143.9265  132.9403  152.5486 H   0  0  0  0  0  0  0  0  0  0  0  0
  142.1051  132.2667  150.5727 H   0  0  0  0  0  0  0  0  0  0  0  0
  145.9566  131.9242  149.0143 H   0  0  0  0  0  0  0  0  0  0  0  0
  147.8714  134.7865  152.5250 H   0  0  0  0  0  0  0  0  0  0  0  0
  148.9799  136.1016  153.5521 H   0  0  0  0  0  0  0  0  0  0  0  0
  148.3870  137.1261  156.1102 H   0  0  0  0  0  0  0  0  0  0  0  0
  149.5552  135.8502  156.3294 H   0  0  0  0  0  0  0  0  0  0  0  0
  151.0728  136.9541  154.6316 H   0  0  0  0  0  0  0  0  0  0  0  0
  150.2634  138.5957  157.0507 H   0  0  0  0  0  0  0  0  0  0  0  0
  151.6837  137.5539  156.8966 H   0  0  0  0  0  0  0  0  0  0  0  0
  151.8848  140.2099  156.3185 H   0  0  0  0  0  0  0  0  0  0  0  0
  152.6890  139.0338  155.2760 H   0  0  0  0  0  0  0  0  0  0  0  0
  149.7965  138.4761  153.2861 H   0  0  0  0  0  0  0  0  0  0  0  0
  148.9420  139.1239  154.6879 H   0  0  0  0  0  0  0  0  0  0  0  0
  1  2  1  0  0  0  0
  1 19  1  0  0  0  0
  1 20  1  0  0  0  0
  1 21  1  0  0  0  0
  2  3  1  0  0  0  0
  2  9  1  0  0  0  0
  2 22  1  0  0  0  0
  3  4  1  0  0  0  0
  3 23  1  0  0  0  0
  3 24  1  0  0  0  0
  4  8  1  0  0  0  0
  4  5  1  0  0  0  0
  5  6  2  0  0  0  0
  5 25  1  0  0  0  0
  6  7  1  0  0  0  0
  6 26  1  0  0  0  0
  7  8  2  0  0  0  0
  8 27  1  0  0  0  0
  9 10  1  0  0  0  0
  9 28  1  0  0  0  0
 10 11  2  0  0  0  0
 10 12  1  0  0  0  0
 12 13  1  0  0  0  0
 12 29  1  0  0  0  0
 13 14  1  0  0  0  0
 13 30  1  0  0  0  0
 13 31  1  0  0  0  0
 14 18  1  0  0  0  0
 14 15  1  0  0  0  0
 14 32  1  0  0  0  0
 15 16  1  0  0  0  0
 15 33  1  0  0  0  0
 15 34  1  0  0  0  0
 16 17  1  0  0  0  0
 16 35  1  0  0  0  0
 16 36  1  0  0  0  0
 17 18  1  0  0  0  0
 18 37  1  0  0  0  0
 18 38  1  0  0  0  0
M  END
> <s_m_source_file>
AV-unprocessed.smi

> <i_m_source_file_index>
3292

> <i_lp_mmshare_version>
43012

> <i_f3d_flags>
0

> <s_epik_input>
W2NIXTFuW2NIXVtjSF1uMVtDSDJdW0NAQEhdKFtDSDNdKVtOSF1DKD1PKVtOSF1bQ0gyXVtDQEBIXTJbQ0gyXVtDSDJdT1tDSDJdMg==

> <s_epik_cmdline>
J2VwaWtfcHl0aG9uJywgJy1waCcsICc3LjAnLCAnLXRuJywgJzgnLCAnLW1hJywgJzIwMCcsICctbWV0YWxfYmluZGluZycsICctaW1hZScsICc8aW5maWxlLm1hZT4nLCAnLW9tYWUnLCAnPG91dGZpbGUubWFlPic=

> <r_lp_tautomer_probability>
1

> <r_epik_Ionization_Penalty>
0.621291

> <r_epik_Ionization_Penalty_Charging>
0.621234

> <r_epik_Ionization_Penalty_Neutral>
5.72199e-05

> <r_epik_State_Penalty>
0.637278

> <r_epik_Charging_Adjusted_Penalty>
1.25851

> <i_epik_Tot_Q>
0

> <i_epik_Tot_abs_Q>
0

> <r_epik_Metal_State_Penalty>
0.306757

> <b_epik_Metal_Only>
0

> <s_lp_Force_Field>
OPLS_2005

> <r_lp_Energy>
18.0177

> <b_lp_Chiralities_Consistent>
1

> <s_lp_Variant>
AV-unprocessed.smi:3292-5

> <Gold.Version>
5.8.1

> <Gold.Id.Protein>
6NUR|6NUR_protein|mol2

> <Gold.PLP.Fitness>
43.2982

> <Gold.PLP.PLP>
-28.6066

> <Gold.PLP.part.hbond>
-4.0000

> <Gold.PLP.part.metal>
0.0000

> <Gold.PLP.part.buried>
-4.2015

> <Gold.PLP.part.nonpolar>
-22.0488

> <Gold.PLP.part.repulsive>
0.3685

> <Gold.PLP.ligand.clash>
0.0000

> <Gold.PLP.ligand.torsion>
0.8781

> <Gold.PLP.Chemscore.Hbond>
3.7392

> <Gold.PLP.Chemscore.CHOScore>
1.6845

> <Gold.PLP.Chemscore.Metal>
0.0000

> <Gold.Chemscore.Hbonds>
donor molecule, donor type, donor heavy atom, donor atom, acceptor molecule, acceptor atom, score
      L1  H     9    28       P1  7948  0.96
      L1  H    12    29       P1  7948  1.00
      P1  H  7989  7998       L1    17  1.00
      P1  H 10785 10796       L1     7  0.79
      L1  C     5    25       P1 10957  0.29
      L1  C     6    26       P1 10186  0.53
      L1  C     6    26       P1 10952  0.84

> <Gold.PLP.Chemscore.Internal.Correction>
0.1768

> <Gold.Rescore>
     Score         DG    S(hbond)    S(metal)    S(lipo)     H(rot)  DE(clash)    DE(int)     intcor
     16.02     -18.34       3.60        0.00      54.47       2.16       0.06       2.26       ----

> <Gold.Chemscore.Fitness>
16.0211

> <Gold.Chemscore.DG>
-18.3375

> <Gold.Chemscore.ZeroCoef>
-5.4800

> <Gold.Chemscore.Hbond>
3.5953

> <Gold.Chemscore.Metal>
0.0000

> <Gold.Chemscore.Lipo>
54.4683

> <Gold.Chemscore.Internal_Hbond>
0.0000

> <Gold.Chemscore.DEClash>
0.0554

> <Gold.Chemscore.DEInternal>
2.2610

> <Gold.Chemscore.Rot>
2.1577

> <Gold.Chemscore.Internal.Correction>
   9.000000E+99

> <Gold.Chemscore.Hbonds>
donor molecule, donor type, donor heavy atom, donor atom, acceptor molecule, acceptor atom, score
      L1  H     9    28       P1  7948  0.76
      L1  H    12    29       P1  7948  0.97
      P1  H  7989  7998       L1    17  0.85
      P1  H 10785 10796       L1     7  0.50

> <Gold.Chemscore.Hbond.Weighted>
-12.0084

> <Gold.Chemscore.Metal.Weighted>
-0.0000

> <Gold.Chemscore.Lipo.Weighted>
-6.3728

> <Gold.Chemscore.Internal_Hbond.Weighted>
0.0000

> <Gold.Chemscore.DEClash.Weighted>
0.0554

> <Gold.Chemscore.DEInternal.Weighted>
2.2610

> <Gold.Chemscore.Rot.Weighted>
5.5237

> <Gold.Chemscore.Internal.Correction.Weighted>
   9.000000E+99

> <Gold.Protein.RotatedTorsions>
[ 6907 6896 6895 6894 ] final -148.21 input  -60.11 | X-H torsion
[ 7974 7965 7964 7962 ] final  -26.56 input  175.53 | X-H torsion
[ 8008 7997 7996 7995 ] final  -59.66 input   59.86 | X-H torsion
[ 10167 10162 10161 10158 ] final    6.05 input  -65.29 | X-H torsion
[ 10718 10713 10712 10709 ] final  122.04 input   66.30 | X-H torsion
[ 10763 10752 10751 10750 ] final -177.53 input  -60.55 | X-H torsion
[ 11005 11000 10999 10996 ] final   89.12 input  -57.11 | X-H torsion

> <Gold.Protein.ActiveResidues>
 VAL166  LYS551  ARG553  GLY616  TRP617  ASP618  TYR619  PRO620  LYS621  CYS622 
 ASP623  PHE694  ASN695  SER759  ASP760  ASP761  ALA762  ILE779  LEU786  VAL792 
 PHE793  MET794  SER795  GLU796  ALA797  LYS798  CYS799  TRP800  GLU811  SER814 

> <Gold.Protein.RotatedAtoms>
  151.1667  133.4810  159.2593 H   0  0  0  0  0  0  0  0  0  0  0  0  # atno 6907 bound_to 6896
  151.1398  135.0173  159.8631 H   0  0  0  0  0  0  0  0  0  0  0  0  # atno 6908 bound_to 6896
  152.5462  134.1561  159.8592 H   0  0  0  0  0  0  0  0  0  0  0  0  # atno 6909 bound_to 6896
  146.1417  140.5036  142.8649 H   0  0  0  0  0  0  0  0  0  0  0  0  # atno 7974 bound_to 7965
  154.4362  140.1057  156.6150 H   0  0  0  0  0  0  0  0  0  0  0  0  # atno 8008 bound_to 7997
  155.5769  140.3490  155.4511 H   0  0  0  0  0  0  0  0  0  0  0  0  # atno 8009 bound_to 7997
  156.0348  140.1268  157.0209 H   0  0  0  0  0  0  0  0  0  0  0  0  # atno 8010 bound_to 7997
  140.6449  143.7686  150.7483 H   0  0  0  0  0  0  0  0  0  0  0  0  # atno 10167 bound_to 10162
  157.5772  131.1078  150.8256 H   0  0  0  0  0  0  0  0  0  0  0  0  # atno 10718 bound_to 10713
  154.5589  135.2818  155.0938 H   0  0  0  0  0  0  0  0  0  0  0  0  # atno 10763 bound_to 10752
  154.2354  135.6366  153.5193 H   0  0  0  0  0  0  0  0  0  0  0  0  # atno 10764 bound_to 10752
  153.0023  135.5547  154.6178 H   0  0  0  0  0  0  0  0  0  0  0  0  # atno 10765 bound_to 10752
  139.8882  134.8531  156.3097 H   0  0  0  0  0  0  0  0  0  0  0  0  # atno 11005 bound_to 11000
  144.7800  140.5820  143.6612 LP  0  0  0  0  0  0  0  0  0  0  0  0  # atno 17320 bound_to 7965
  145.5031  139.1482  143.3646 LP  0  0  0  0  0  0  0  0  0  0  0  0  # atno 17321 bound_to 7965
  140.1325  143.4513  152.2245 LP  0  0  0  0  0  0  0  0  0  0  0  0  # atno 17342 bound_to 10162
  139.5659  144.7435  151.4024 LP  0  0  0  0  0  0  0  0  0  0  0  0  # atno 17343 bound_to 10162
  156.8712  130.5147  149.5296 LP  0  0  0  0  0  0  0  0  0  0  0  0  # atno 17370 bound_to 10713
  156.0817  130.5826  150.9575 LP  0  0  0  0  0  0  0  0  0  0  0  0  # atno 17371 bound_to 10713
  140.9858  133.7239  156.0740 LP  0  0  0  0  0  0  0  0  0  0  0  0  # atno 17394 bound_to 11000
  140.7689  134.3855  157.5511 LP  0  0  0  0  0  0  0  0  0  0  0  0  # atno 17395 bound_to 11000

$$$$
