AV-unprocessed.smi:1724|AV-procd|sdf|6951|dock3
  -GOLD-   22720 8163D 1   1.00000     0.00000
 Structure written by MMmdl.
 37 38  0  0  0  0  0  0  0  0  2 V2000
  152.5338  136.7623  156.3757 O   0  0  0  0  0  0  0  0  0  0  0  0
  151.4035  137.0630  156.7586 C   0  0  0  0  0  0  0  0  0  0  0  0
  150.2854  136.5955  156.1844 N   0  0  0  0  0  0  0  0  0  0  0  0
  150.2310  135.6974  155.0339 C   0  0  0  0  0  0  0  0  0  0  0  0
  149.9044  134.2442  155.4358 C   0  0  2  0  0  0  0  0  0  0  0  0
  151.0516  133.5537  156.1980 C   0  0  0  0  0  0  0  0  0  0  0  0
  150.6984  132.0887  156.4784 C   0  0  0  0  0  0  0  0  0  0  0  0
  150.2877  131.3769  155.1811 C   0  0  0  0  0  0  0  0  0  0  0  0
  149.2024  132.0705  154.5761 O   0  0  0  0  0  0  0  0  0  0  0  0
  149.5356  133.4021  154.1969 C   0  0  0  0  0  0  0  0  0  0  0  0
  151.1052  137.8705  157.7931 N   0  0  0  0  0  0  0  0  0  0  0  0
  151.9579  138.5838  158.6540 C   0  0  0  0  0  0  0  0  0  0  0  0
  151.8958  139.9252  158.8826 C   0  0  0  0  0  0  0  0  0  0  0  0
  152.8031  140.6040  159.7992 C   0  0  0  0  0  0  0  0  0  0  0  0
  152.8246  142.1087  160.0015 C   0  0  0  0  0  0  0  0  0  0  0  0
  151.8388  142.6983  159.3248 F   0  0  0  0  0  0  0  0  0  0  0  0
  152.6940  142.4194  161.2913 F   0  0  0  0  0  0  0  0  0  0  0  0
  153.9817  142.6078  159.5693 F   0  0  0  0  0  0  0  0  0  0  0  0
  153.7096  139.7372  160.3778 C   0  0  0  0  0  0  0  0  0  0  0  0
  153.8225  138.3996  160.2271 N   0  5  0  0  0  0  0  0  0  0  0  0
  152.9686  137.7750  159.3677 C   0  0  0  0  0  0  0  0  0  0  0  0
  153.0223  136.5592  159.1779 O   0  0  0  0  0  0  0  0  0  0  0  0
  149.4005  136.8896  156.5710 H   0  0  0  0  0  0  0  0  0  0  0  0
  149.4536  136.0737  154.3684 H   0  0  0  0  0  0  0  0  0  0  0  0
  151.1597  135.7342  154.4614 H   0  0  0  0  0  0  0  0  0  0  0  0
  149.0313  134.2660  156.0902 H   0  0  0  0  0  0  0  0  0  0  0  0
  151.9695  133.6036  155.6104 H   0  0  0  0  0  0  0  0  0  0  0  0
  151.2553  134.0636  157.1399 H   0  0  0  0  0  0  0  0  0  0  0  0
  151.5455  131.5786  156.9377 H   0  0  0  0  0  0  0  0  0  0  0  0
  149.8776  132.0406  157.1951 H   0  0  0  0  0  0  0  0  0  0  0  0
  151.1274  131.3148  154.4869 H   0  0  0  0  0  0  0  0  0  0  0  0
  149.9765  130.3546  155.3969 H   0  0  0  0  0  0  0  0  0  0  0  0
  148.6745  133.8381  153.6896 H   0  0  0  0  0  0  0  0  0  0  0  0
  150.3535  133.3887  153.4746 H   0  0  0  0  0  0  0  0  0  0  0  0
  150.1245  137.9738  158.0097 H   0  0  0  0  0  0  0  0  0  0  0  0
  151.1529  140.5382  158.4011 H   0  0  0  0  0  0  0  0  0  0  0  0
  154.4605  140.1874  161.0616 H   0  0  0  0  0  0  0  0  0  0  0  0
  1  2  2  0  0  0  0
  2  3  1  0  0  0  0
  2 11  1  0  0  0  0
  3  4  1  0  0  0  0
  3 23  1  0  0  0  0
  4  5  1  0  0  0  0
  4 24  1  0  0  0  0
  4 25  1  0  0  0  0
  5 10  1  0  0  0  0
  5  6  1  0  0  0  0
  5 26  1  0  0  0  0
  6  7  1  0  0  0  0
  6 27  1  0  0  0  0
  6 28  1  0  0  0  0
  7  8  1  0  0  0  0
  7 29  1  0  0  0  0
  7 30  1  0  0  0  0
  8  9  1  0  0  0  0
  8 31  1  0  0  0  0
  8 32  1  0  0  0  0
  9 10  1  0  0  0  0
 10 33  1  0  0  0  0
 10 34  1  0  0  0  0
 11 12  1  0  0  0  0
 11 35  1  0  0  0  0
 12 21  1  0  0  0  0
 12 13  2  0  0  0  0
 13 14  1  0  0  0  0
 13 36  1  0  0  0  0
 14 15  1  0  0  0  0
 14 19  2  0  0  0  0
 15 16  1  0  0  0  0
 15 17  1  0  0  0  0
 15 18  1  0  0  0  0
 19 20  1  0  0  0  0
 19 37  1  0  0  0  0
 20 21  1  0  0  0  0
 21 22  2  0  0  0  0
M  CHG  1  20  -1
M  END
> <s_m_source_file>
AV-unprocessed.smi

> <i_m_source_file_index>
1724

> <i_lp_mmshare_version>
43012

> <i_f3d_flags>
0

> <s_epik_input>
Tz1jMVtuSF1bY0hdYyhDKEYpKEYpRilbY0hdYzFbTkhdQyg9TylbTkhdW0NIMl1bQ0BASF0yW0NIMl1bQ0gyXVtDSDJdT1tDSDJdMg==

> <s_epik_cmdline>
J2VwaWtfcHl0aG9uJywgJy1waCcsICc3LjAnLCAnLXRuJywgJzgnLCAnLW1hJywgJzIwMCcsICctbWV0YWxfYmluZGluZycsICctaW1hZScsICc8aW5maWxlLm1hZT4nLCAnLW9tYWUnLCAnPG91dGZpbGUubWFlPic=

> <r_lp_tautomer_probability>
1

> <r_epik_Ionization_Penalty>
3.16025

> <r_epik_Ionization_Penalty_Charging>
0.171172

> <r_epik_Ionization_Penalty_Neutral>
2.98908

> <r_epik_State_Penalty>
2.98521

> <r_epik_Charging_Adjusted_Penalty>
3.15638

> <i_epik_Tot_Q>
-1

> <i_epik_Tot_abs_Q>
1

> <r_epik_Metal_State_Penalty>
0.452642

> <b_epik_Metal_Only>
1

> <s_lp_Force_Field>
OPLS_2005

> <r_lp_Energy>
24.3751

> <b_lp_Chiralities_Consistent>
1

> <s_lp_Variant>
AV-unprocessed.smi:1724-3

> <Gold.Version>
5.8.1

> <Gold.Id.Protein>
6NUR|6NUR_protein|mol2

> <Gold.PLP.Fitness>
40.8855

> <Gold.PLP.PLP>
-36.3311

> <Gold.PLP.part.hbond>
-2.0000

> <Gold.PLP.part.metal>
0.0000

> <Gold.PLP.part.buried>
-5.9367

> <Gold.PLP.part.nonpolar>
-27.7870

> <Gold.PLP.part.repulsive>
0.1317

> <Gold.PLP.ligand.clash>
0.0000

> <Gold.PLP.ligand.torsion>
0.7375

> <Gold.PLP.Chemscore.Hbond>
1.9920

> <Gold.PLP.Chemscore.CHOScore>
0.0000

> <Gold.PLP.Chemscore.Metal>
0.0000

> <Gold.Chemscore.Hbonds>
donor molecule, donor type, donor heavy atom, donor atom, acceptor molecule, acceptor atom, score
      P1  H  6896  6907       L1    22  0.99
      P1  H 10752 10765       L1     1  1.00

> <Gold.PLP.Chemscore.Internal.Correction>
0.0534

> <Gold.Rescore>
     Score         DG    S(hbond)    S(metal)    S(lipo)     H(rot)  DE(clash)    DE(int)     intcor
     14.98     -16.36       1.96        0.00      65.96       1.32       0.01       1.37       ----

> <Gold.Chemscore.Fitness>
14.9765

> <Gold.Chemscore.DG>
-16.3637

> <Gold.Chemscore.ZeroCoef>
-5.4800

> <Gold.Chemscore.Hbond>
1.9635

> <Gold.Chemscore.Metal>
0.0000

> <Gold.Chemscore.Lipo>
65.9570

> <Gold.Chemscore.Internal_Hbond>
0.0000

> <Gold.Chemscore.DEClash>
0.0149

> <Gold.Chemscore.DEInternal>
1.3723

> <Gold.Chemscore.Rot>
1.3248

> <Gold.Chemscore.Internal.Correction>
   9.000000E+99

> <Gold.Chemscore.Hbonds>
donor molecule, donor type, donor heavy atom, donor atom, acceptor molecule, acceptor atom, score
      P1  H  6896  6907       L1    22  0.91
      P1  H 10752 10765       L1     1  0.96

> <Gold.Chemscore.Hbond.Weighted>
-6.5582

> <Gold.Chemscore.Metal.Weighted>
-0.0000

> <Gold.Chemscore.Lipo.Weighted>
-7.7170

> <Gold.Chemscore.Internal_Hbond.Weighted>
0.0000

> <Gold.Chemscore.DEClash.Weighted>
0.0149

> <Gold.Chemscore.DEInternal.Weighted>
1.3723

> <Gold.Chemscore.Rot.Weighted>
3.3915

> <Gold.Chemscore.Internal.Correction.Weighted>
   9.000000E+99

> <Gold.Protein.RotatedTorsions>
[ 6907 6896 6895 6894 ] final   30.39 input  -60.11 | X-H torsion
[ 7974 7965 7964 7962 ] final  -21.77 input  175.53 | X-H torsion
[ 8008 7997 7996 7995 ] final  -15.08 input   59.86 | X-H torsion
[ 10167 10162 10161 10158 ] final  123.01 input  -65.29 | X-H torsion
[ 10718 10713 10712 10709 ] final  -31.15 input   66.30 | X-H torsion
[ 10763 10752 10751 10750 ] final -143.56 input  -60.55 | X-H torsion
[ 11005 11000 10999 10996 ] final -172.21 input  -57.11 | X-H torsion

> <Gold.Protein.ActiveResidues>
 VAL166  LYS551  ARG553  GLY616  TRP617  ASP618  TYR619  PRO620  LYS621  CYS622 
 ASP623  PHE694  ASN695  SER759  ASP760  ASP761  ALA762  ILE779  LEU786  VAL792 
 PHE793  MET794  SER795  GLU796  ALA797  LYS798  CYS799  TRP800  GLU811  SER814 

> <Gold.Protein.RotatedAtoms>
  152.0452  134.9687  160.0574 H   0  0  0  0  0  0  0  0  0  0  0  0  # atno 6907 bound_to 6896
  152.1110  133.4296  159.4639 H   0  0  0  0  0  0  0  0  0  0  0  0  # atno 6908 bound_to 6896
  150.6843  134.2567  159.4576 H   0  0  0  0  0  0  0  0  0  0  0  0  # atno 6909 bound_to 6896
  146.1714  140.4387  142.8531 H   0  0  0  0  0  0  0  0  0  0  0  0  # atno 7974 bound_to 7965
  154.5158  140.2206  155.9068 H   0  0  0  0  0  0  0  0  0  0  0  0  # atno 8008 bound_to 7997
  156.1606  140.3143  155.8767 H   0  0  0  0  0  0  0  0  0  0  0  0  # atno 8009 bound_to 7997
  155.3758  140.0469  157.3035 H   0  0  0  0  0  0  0  0  0  0  0  0  # atno 8010 bound_to 7997
  139.5824  144.6992  151.3494 H   0  0  0  0  0  0  0  0  0  0  0  0  # atno 10167 bound_to 10162
  156.3909  130.4372  149.7396 H   0  0  0  0  0  0  0  0  0  0  0  0  # atno 10718 bound_to 10713
  154.8465  135.3464  154.6207 H   0  0  0  0  0  0  0  0  0  0  0  0  # atno 10763 bound_to 10752
  153.6816  135.6980  153.5121 H   0  0  0  0  0  0  0  0  0  0  0  0  # atno 10764 bound_to 10752
  153.2664  135.4307  155.0900 H   0  0  0  0  0  0  0  0  0  0  0  0  # atno 10765 bound_to 10752
  140.4995  134.5907  157.4983 H   0  0  0  0  0  0  0  0  0  0  0  0  # atno 11005 bound_to 11000
  144.8169  140.6483  143.6378 LP  0  0  0  0  0  0  0  0  0  0  0  0  # atno 17320 bound_to 7965
  145.4330  139.1546  143.4012 LP  0  0  0  0  0  0  0  0  0  0  0  0  # atno 17321 bound_to 7965
  140.7101  143.7413  150.7551 LP  0  0  0  0  0  0  0  0  0  0  0  0  # atno 17342 bound_to 10162
  140.0949  143.4842  152.2458 LP  0  0  0  0  0  0  0  0  0  0  0  0  # atno 17343 bound_to 10162
  156.4449  130.7879  151.2900 LP  0  0  0  0  0  0  0  0  0  0  0  0  # atno 17370 bound_to 10713
  157.7499  131.0113  150.3341 LP  0  0  0  0  0  0  0  0  0  0  0  0  # atno 17371 bound_to 10713
  139.9721  134.7275  156.0020 LP  0  0  0  0  0  0  0  0  0  0  0  0  # atno 17394 bound_to 11000
  141.1442  133.6559  156.3820 LP  0  0  0  0  0  0  0  0  0  0  0  0  # atno 17395 bound_to 11000

$$$$
