AV-unprocessed.smi:104|AV-procd|sdf|1008|dock6
  -GOLD-   2262018 03D 1   1.00000     0.00000
 Structure written by MMmdl.
 47 49  0  0  0  0  0  0  0  0  1 V2000
  147.1005  134.8164  162.6266 C   0  0  0  0  0  0  0  0  0  0  0  0
  147.5943  135.9771  161.7733 C   0  0  0  0  0  0  0  0  0  0  0  0
  148.0163  137.0163  162.2811 O   0  0  0  0  0  0  0  0  0  0  0  0
  147.5047  135.7204  160.4605 O   0  0  0  0  0  0  0  0  0  0  0  0
  147.9668  136.6824  159.5247 C   0  0  0  0  0  0  0  0  0  0  0  0
  147.2904  136.4708  158.1642 C   0  0  1  0  0  0  0  0  0  0  0  0
  145.9346  136.8888  158.2225 O   0  0  0  0  0  0  0  0  0  0  0  0
  145.5234  137.3994  156.9954 C   0  0  2  0  0  0  0  0  0  0  0  0
  144.6642  136.3664  156.3057 N   0  0  0  0  0  0  0  0  0  0  0  0
  144.2216  135.1621  156.8126 C   0  0  0  0  0  0  0  0  0  0  0  0
  144.6156  134.5791  158.5833 Br  0  0  0  0  0  0  0  0  0  0  0  0
  143.4969  134.4110  156.0336 N   0  0  0  0  0  0  0  0  0  0  0  0
  143.4306  135.1559  154.8661 C   0  0  0  0  0  0  0  0  0  0  0  0
  142.8077  134.9525  153.6089 C   0  0  0  0  0  0  0  0  0  0  0  0
  142.0929  133.8575  153.3161 N   0  0  0  0  0  0  0  0  0  0  0  0
  142.9379  135.9063  152.6587 N   0  0  0  0  0  0  0  0  0  0  0  0
  143.6466  137.0064  152.9263 C   0  0  0  0  0  0  0  0  0  0  0  0
  144.2860  137.3324  154.0515 N   0  0  0  0  0  0  0  0  0  0  0  0
  144.1579  136.3739  155.0150 C   0  0  0  0  0  0  0  0  0  0  0  0
  146.7804  137.8288  156.2054 C   0  0  2  0  0  0  0  0  0  0  0  0
  146.7508  137.4286  154.8361 O   0  0  0  0  0  0  0  0  0  0  0  0
  147.3949  138.1476  153.9018 C   0  0  0  0  0  0  0  0  0  0  0  0
  146.7060  138.0804  152.5461 C   0  0  0  0  0  0  0  0  0  0  0  0
  148.4155  138.8136  154.0756 O   0  0  0  0  0  0  0  0  0  0  0  0
  147.9470  137.2257  156.9979 C   0  0  2  0  0  0  0  0  0  0  0  0
  148.7419  136.3225  156.2346 O   0  0  0  0  0  0  0  0  0  0  0  0
  149.7192  135.6094  156.8201 C   0  0  0  0  0  0  0  0  0  0  0  0
  150.4777  134.7425  155.8243 C   0  0  0  0  0  0  0  0  0  0  0  0
  150.0148  135.6275  158.0149 O   0  0  0  0  0  0  0  0  0  0  0  0
  147.5649  133.8836  162.3057 H   0  0  0  0  0  0  0  0  0  0  0  0
  146.0191  134.7146  162.5347 H   0  0  0  0  0  0  0  0  0  0  0  0
  147.3442  134.9814  163.6762 H   0  0  0  0  0  0  0  0  0  0  0  0
  147.7428  137.6841  159.8942 H   0  0  0  0  0  0  0  0  0  0  0  0
  149.0502  136.6079  159.4190 H   0  0  0  0  0  0  0  0  0  0  0  0
  147.2843  135.4011  157.9620 H   0  0  0  0  0  0  0  0  0  0  0  0
  144.8554  138.2415  157.1642 H   0  0  0  0  0  0  0  0  0  0  0  0
  141.9795  133.1304  154.0078 H   0  0  0  0  0  0  0  0  0  0  0  0
  141.6729  133.7592  152.4032 H   0  0  0  0  0  0  0  0  0  0  0  0
  143.7109  137.7287  152.1261 H   0  0  0  0  0  0  0  0  0  0  0  0
  146.8615  138.9145  156.2765 H   0  0  0  0  0  0  0  0  0  0  0  0
  146.6915  137.0537  152.1806 H   0  0  0  0  0  0  0  0  0  0  0  0
  147.2298  138.6999  151.8178 H   0  0  0  0  0  0  0  0  0  0  0  0
  145.6783  138.4348  152.6272 H   0  0  0  0  0  0  0  0  0  0  0  0
  148.5628  138.0374  157.3876 H   0  0  0  0  0  0  0  0  0  0  0  0
  149.8115  133.9998  155.3853 H   0  0  0  0  0  0  0  0  0  0  0  0
  151.2995  134.2226  156.3167 H   0  0  0  0  0  0  0  0  0  0  0  0
  150.8878  135.3579  155.0233 H   0  0  0  0  0  0  0  0  0  0  0  0
  1  2  1  0  0  0  0
  1 30  1  0  0  0  0
  1 31  1  0  0  0  0
  1 32  1  0  0  0  0
  2  3  2  0  0  0  0
  2  4  1  0  0  0  0
  4  5  1  0  0  0  0
  5  6  1  0  0  0  0
  5 33  1  0  0  0  0
  5 34  1  0  0  0  0
  6 25  1  0  0  0  0
  6  7  1  0  0  0  0
  6 35  1  0  0  0  0
  7  8  1  0  0  0  0
  8  9  1  0  0  0  0
  8 20  1  0  0  0  0
  8 36  1  0  0  0  0
  9 19  1  0  0  0  0
  9 10  1  0  0  0  0
 10 11  1  0  0  0  0
 10 12  2  0  0  0  0
 12 13  1  0  0  0  0
 13 19  2  0  0  0  0
 13 14  1  0  0  0  0
 14 15  1  0  0  0  0
 14 16  2  0  0  0  0
 15 37  1  0  0  0  0
 15 38  1  0  0  0  0
 16 17  1  0  0  0  0
 17 18  2  0  0  0  0
 17 39  1  0  0  0  0
 18 19  1  0  0  0  0
 20 21  1  0  0  0  0
 20 25  1  0  0  0  0
 20 40  1  0  0  0  0
 21 22  1  0  0  0  0
 22 23  1  0  0  0  0
 22 24  2  0  0  0  0
 23 41  1  0  0  0  0
 23 42  1  0  0  0  0
 23 43  1  0  0  0  0
 25 26  1  0  0  0  0
 25 44  1  0  0  0  0
 26 27  1  0  0  0  0
 27 28  1  0  0  0  0
 27 29  2  0  0  0  0
 28 45  1  0  0  0  0
 28 46  1  0  0  0  0
 28 47  1  0  0  0  0
M  END
> <s_m_source_file>
AV-unprocessed.smi

> <i_m_source_file_index>
104

> <i_lp_mmshare_version>
43012

> <i_f3d_flags>
0

> <s_epik_input>
W0NIM11DKD1PKU9bQ0gyXVtDQEBIXTFPW0NASF0oW0NAQEhdKE9DKD1PKVtDSDNdKVtDQEhdMU9DKD1PKVtDSDNdKW4oYyhCciluMiljKGMyMyluW2NIXW5jM1tOSDJd

> <s_epik_cmdline>
J2VwaWtfcHl0aG9uJywgJy1waCcsICc3LjAnLCAnLXRuJywgJzgnLCAnLW1hJywgJzIwMCcsICctbWV0YWxfYmluZGluZycsICctaW1hZScsICc8aW5maWxlLm1hZT4nLCAnLW9tYWUnLCAnPG91dGZpbGUubWFlPic=

> <r_lp_tautomer_probability>
1

> <r_epik_Ionization_Penalty>
7.36622e-05

> <r_epik_Ionization_Penalty_Charging>
0

> <r_epik_Ionization_Penalty_Neutral>
7.36622e-05

> <r_epik_State_Penalty>
-0

> <r_epik_Charging_Adjusted_Penalty>
0

> <i_epik_Tot_Q>
0

> <i_epik_Tot_abs_Q>
0

> <r_epik_Metal_State_Penalty>
-0

> <b_epik_Metal_Only>
0

> <s_epik_Chemistry_Notes>
This compound has an ester and may undergo hydrolysis at high or low pH. This compound contains an acetal/aminal-like group ( X-CH(R)-Y where X, Y are N, S, or O) that may be acid/base labile, releasing an aldehyde.

> <s_lp_Force_Field>
OPLS_2005

> <r_lp_Energy>
19.0996

> <b_lp_Chiralities_Consistent>
1

> <s_lp_Variant>
AV-unprocessed.smi:104-16

> <Gold.Version>
5.8.1

> <Gold.Id.Protein>
6NUR|6NUR_protein|mol2

> <Gold.PLP.Fitness>
38.9888

> <Gold.PLP.PLP>
-26.2685

> <Gold.PLP.part.hbond>
-3.8793

> <Gold.PLP.part.metal>
0.0000

> <Gold.PLP.part.buried>
-6.0784

> <Gold.PLP.part.nonpolar>
-17.3338

> <Gold.PLP.part.repulsive>
0.6749

> <Gold.PLP.ligand.clash>
0.0000

> <Gold.PLP.ligand.torsion>
1.0763

> <Gold.PLP.Chemscore.Hbond>
2.9200

> <Gold.PLP.Chemscore.CHOScore>
1.9572

> <Gold.PLP.Chemscore.Metal>
0.0000

> <Gold.Chemscore.Hbonds>
donor molecule, donor type, donor heavy atom, donor atom, acceptor molecule, acceptor atom, score
      L1  H    15    37       P1 10957  0.96
      P1  H  6896  6909       L1    29  0.85
      P1  H  6931  6943       L1     3  1.00
      L1  C    17    39       P1 10171  1.00
      L1  C    17    39       P1 10175  0.47

> <Gold.PLP.Chemscore.Internal.Correction>
0.2413

> <Gold.Rescore>
     Score         DG    S(hbond)    S(metal)    S(lipo)     H(rot)  DE(clash)    DE(int)     intcor
     -0.80      -7.57       2.85        0.00      30.83       4.31       0.09       8.28       ----

> <Gold.Chemscore.Fitness>
-0.7979

> <Gold.Chemscore.DG>
-7.5702

> <Gold.Chemscore.ZeroCoef>
-5.4800

> <Gold.Chemscore.Hbond>
2.8469

> <Gold.Chemscore.Metal>
0.0000

> <Gold.Chemscore.Lipo>
30.8322

> <Gold.Chemscore.Internal_Hbond>
0.0000

> <Gold.Chemscore.DEClash>
0.0859

> <Gold.Chemscore.DEInternal>
8.2822

> <Gold.Chemscore.Rot>
4.3070

> <Gold.Chemscore.Internal.Correction>
   9.000000E+99

> <Gold.Chemscore.Hbonds>
donor molecule, donor type, donor heavy atom, donor atom, acceptor molecule, acceptor atom, score
      L1  H    15    37       P1 10957  0.92
      P1  H  6896  6909       L1    29  0.83
      P1  H  6931  6943       L1     3  0.97

> <Gold.Chemscore.Hbond.Weighted>
-9.5087

> <Gold.Chemscore.Metal.Weighted>
-0.0000

> <Gold.Chemscore.Lipo.Weighted>
-3.6074

> <Gold.Chemscore.Internal_Hbond.Weighted>
0.0000

> <Gold.Chemscore.DEClash.Weighted>
0.0859

> <Gold.Chemscore.DEInternal.Weighted>
8.2822

> <Gold.Chemscore.Rot.Weighted>
11.0259

> <Gold.Chemscore.Internal.Correction.Weighted>
   9.000000E+99

> <Gold.Protein.RotatedTorsions>
[ 6907 6896 6895 6894 ] final   61.92 input  -60.11 | X-H torsion
[ 7974 7965 7964 7962 ] final  -33.48 input  175.53 | X-H torsion
[ 8008 7997 7996 7995 ] final -103.68 input   59.86 | X-H torsion
[ 10167 10162 10161 10158 ] final   75.50 input  -65.29 | X-H torsion
[ 10718 10713 10712 10709 ] final  -13.62 input   66.30 | X-H torsion
[ 10763 10752 10751 10750 ] final  -77.55 input  -60.55 | X-H torsion
[ 11005 11000 10999 10996 ] final  108.67 input  -57.11 | X-H torsion

> <Gold.Protein.ActiveResidues>
 VAL166  LYS551  ARG553  GLY616  TRP617  ASP618  TYR619  PRO620  LYS621  CYS622 
 ASP623  PHE694  ASN695  SER759  ASP760  ASP761  ALA762  ILE779  LEU786  VAL792 
 PHE793  MET794  SER795  GLU796  ALA797  LYS798  CYS799  TRP800  GLU811  SER814 

> <Gold.Protein.RotatedAtoms>
  152.4129  134.6093  160.0021 H   0  0  0  0  0  0  0  0  0  0  0  0  # atno 6907 bound_to 6896
  151.6265  133.3329  159.3107 H   0  0  0  0  0  0  0  0  0  0  0  0  # atno 6908 bound_to 6896
  150.8019  134.7158  159.6674 H   0  0  0  0  0  0  0  0  0  0  0  0  # atno 6909 bound_to 6896
  146.0907  140.5921  142.8865 H   0  0  0  0  0  0  0  0  0  0  0  0  # atno 7974 bound_to 7965
  154.8745  140.0421  157.1744 H   0  0  0  0  0  0  0  0  0  0  0  0  # atno 8008 bound_to 7997
  154.8704  140.2957  155.5464 H   0  0  0  0  0  0  0  0  0  0  0  0  # atno 8009 bound_to 7997
  156.2999  140.2430  156.3692 H   0  0  0  0  0  0  0  0  0  0  0  0  # atno 8010 bound_to 7997
  140.0023  144.5676  150.7726 H   0  0  0  0  0  0  0  0  0  0  0  0  # atno 10167 bound_to 10162
  156.6277  130.4893  149.6141 H   0  0  0  0  0  0  0  0  0  0  0  0  # atno 10718 bound_to 10713
  154.5143  135.5760  153.6630 H   0  0  0  0  0  0  0  0  0  0  0  0  # atno 10763 bound_to 10752
  152.9903  135.6166  154.2837 H   0  0  0  0  0  0  0  0  0  0  0  0  # atno 10764 bound_to 10752
  154.2754  135.2852  155.2700 H   0  0  0  0  0  0  0  0  0  0  0  0  # atno 10765 bound_to 10752
  139.8848  134.9437  156.6007 H   0  0  0  0  0  0  0  0  0  0  0  0  # atno 11005 bound_to 11000
  144.7358  140.4804  143.6904 LP  0  0  0  0  0  0  0  0  0  0  0  0  # atno 17320 bound_to 7965
  145.6044  139.1507  143.3111 LP  0  0  0  0  0  0  0  0  0  0  0  0  # atno 17321 bound_to 7965
  140.7414  143.2817  151.3579 LP  0  0  0  0  0  0  0  0  0  0  0  0  # atno 17342 bound_to 10162
  139.6263  144.0808  152.2437 LP  0  0  0  0  0  0  0  0  0  0  0  0  # atno 17343 bound_to 10162
  156.2260  130.6766  151.1416 LP  0  0  0  0  0  0  0  0  0  0  0  0  # atno 17370 bound_to 10713
  157.7209  131.0682  150.6138 LP  0  0  0  0  0  0  0  0  0  0  0  0  # atno 17371 bound_to 10713
  140.7885  133.8601  155.8626 LP  0  0  0  0  0  0  0  0  0  0  0  0  # atno 17394 bound_to 11000
  140.9698  134.1546  157.4586 LP  0  0  0  0  0  0  0  0  0  0  0  0  # atno 17395 bound_to 11000

$$$$
