AV-unprocessed.smi:75|AV-procd|sdf|766|dock1
  -GOLD-   2262017103D 1   1.00000     0.00000
 Structure written by MMmdl.
 51 54  0  0  0  0  0  0  0  0  1 V2000
  145.9857  141.9373  157.2151 N   0  0  0  0  0  0  0  0  0  0  0  0
  145.6158  141.4869  156.0137 C   0  0  0  0  0  0  0  0  0  0  0  0
  145.9615  142.0394  154.9718 O   0  0  0  0  0  0  0  0  0  0  0  0
  144.7035  140.2559  155.9808 C   0  0  0  0  0  0  0  0  0  0  0  0
  145.2329  139.0252  156.7702 C   0  0  1  0  0  0  0  0  0  0  0  0
  144.9964  139.2533  158.2803 C   0  0  0  0  0  0  0  0  0  0  0  0
  145.4691  138.1454  159.0369 O   0  0  0  0  0  0  0  0  0  0  0  0
  144.7788  136.9490  158.7030 C   0  0  0  0  0  0  0  0  0  0  0  0
  145.0339  136.6264  157.2253 C   0  0  0  0  0  0  0  0  0  0  0  0
  144.6235  137.7435  156.3801 N   0  0  0  0  0  0  0  0  0  0  0  0
  144.6930  137.3957  155.0767 C   0  0  0  0  0  0  0  0  0  0  0  0
  145.3817  138.2236  154.2540 N   0  0  0  0  0  0  0  0  0  0  0  0
  145.4926  137.9303  152.9549 C   0  0  0  0  0  0  0  0  0  0  0  0
  144.9969  136.8849  152.2888 N   0  0  0  0  0  0  0  0  0  0  0  0
  144.2957  136.0550  153.1144 C   0  0  0  0  0  0  0  0  0  0  0  0
  144.0905  136.2363  154.5107 C   0  0  0  0  0  0  0  0  0  0  0  0
  143.3275  135.1921  155.0191 N   0  0  0  0  0  0  0  0  0  0  0  0
  143.0980  134.4337  153.9822 C   0  0  0  0  0  0  0  0  0  0  0  0
  143.6419  134.8764  152.7967 N   0  0  0  0  0  0  0  0  0  0  0  0
  143.5390  134.2392  151.5150 C   0  0  0  0  0  0  0  0  0  0  0  0
  143.8761  132.7559  151.3459 C   0  0  0  0  0  0  0  0  0  0  0  0
  144.4045  133.0525  149.9224 C   0  0  0  0  0  0  0  0  0  0  0  0
  145.6921  132.3294  149.4808 C   0  0  0  0  0  0  0  0  0  0  0  0
  146.7484  132.4903  150.4069 O   0  0  0  0  0  0  0  0  0  0  0  0
  143.3752  132.8836  148.7891 C   0  0  0  0  0  0  0  0  0  0  0  0
  143.3178  134.0297  147.9642 O   0  0  0  0  0  0  0  0  0  0  0  0
  144.5676  134.5101  150.4137 C   0  0  0  0  0  0  0  0  0  0  0  0
  146.5880  142.7449  157.2833 H   0  0  0  0  0  0  0  0  0  0  0  0
  145.6652  141.4699  158.0508 H   0  0  0  0  0  0  0  0  0  0  0  0
  143.7452  140.5729  156.3949 H   0  0  0  0  0  0  0  0  0  0  0  0
  144.4963  139.9788  154.9460 H   0  0  0  0  0  0  0  0  0  0  0  0
  146.3105  138.9452  156.6207 H   0  0  0  0  0  0  0  0  0  0  0  0
  145.5278  140.1445  158.6153 H   0  0  0  0  0  0  0  0  0  0  0  0
  143.9379  139.4197  158.4887 H   0  0  0  0  0  0  0  0  0  0  0  0
  145.1442  136.1384  159.3336 H   0  0  0  0  0  0  0  0  0  0  0  0
  143.7114  137.0562  158.9032 H   0  0  0  0  0  0  0  0  0  0  0  0
  146.0942  136.4187  157.0758 H   0  0  0  0  0  0  0  0  0  0  0  0
  144.4869  135.7245  156.9457 H   0  0  0  0  0  0  0  0  0  0  0  0
  146.0614  138.6329  152.3643 H   0  0  0  0  0  0  0  0  0  0  0  0
  142.5200  133.5237  154.0547 H   0  0  0  0  0  0  0  0  0  0  0  0
  142.5327  134.4372  151.1421 H   0  0  0  0  0  0  0  0  0  0  0  0
  144.6502  132.4202  152.0372 H   0  0  0  0  0  0  0  0  0  0  0  0
  143.0097  132.0955  151.3899 H   0  0  0  0  0  0  0  0  0  0  0  0
  145.5215  131.2591  149.3616 H   0  0  0  0  0  0  0  0  0  0  0  0
  146.0342  132.7026  148.5149 H   0  0  0  0  0  0  0  0  0  0  0  0
  147.4469  131.8990  150.1708 H   0  0  0  0  0  0  0  0  0  0  0  0
  143.6186  132.0304  148.1557 H   0  0  0  0  0  0  0  0  0  0  0  0
  142.3791  132.6904  149.1893 H   0  0  0  0  0  0  0  0  0  0  0  0
  144.1883  134.3910  147.8933 H   0  0  0  0  0  0  0  0  0  0  0  0
  144.2626  135.2714  149.6950 H   0  0  0  0  0  0  0  0  0  0  0  0
  145.5582  134.7335  150.8120 H   0  0  0  0  0  0  0  0  0  0  0  0
  1  2  1  0  0  0  0
  1 28  1  0  0  0  0
  1 29  1  0  0  0  0
  2  3  2  0  0  0  0
  2  4  1  0  0  0  0
  4  5  1  0  0  0  0
  4 30  1  0  0  0  0
  4 31  1  0  0  0  0
  5 10  1  0  0  0  0
  5  6  1  0  0  0  0
  5 32  1  0  0  0  0
  6  7  1  0  0  0  0
  6 33  1  0  0  0  0
  6 34  1  0  0  0  0
  7  8  1  0  0  0  0
  8  9  1  0  0  0  0
  8 35  1  0  0  0  0
  8 36  1  0  0  0  0
  9 10  1  0  0  0  0
  9 37  1  0  0  0  0
  9 38  1  0  0  0  0
 10 11  1  0  0  0  0
 11 16  1  0  0  0  0
 11 12  2  0  0  0  0
 12 13  1  0  0  0  0
 13 14  2  0  0  0  0
 13 39  1  0  0  0  0
 14 15  1  0  0  0  0
 15 19  1  0  0  0  0
 15 16  2  0  0  0  0
 16 17  1  0  0  0  0
 17 18  2  0  0  0  0
 18 19  1  0  0  0  0
 18 40  1  0  0  0  0
 19 20  1  0  0  0  0
 20 27  1  0  0  0  0
 20 21  1  0  0  0  0
 20 41  1  0  0  0  0
 21 22  1  0  0  0  0
 21 42  1  0  0  0  0
 21 43  1  0  0  0  0
 22 23  1  0  0  0  0
 22 25  1  0  0  0  0
 22 27  1  0  0  0  0
 23 24  1  0  0  0  0
 23 44  1  0  0  0  0
 23 45  1  0  0  0  0
 24 46  1  0  0  0  0
 25 26  1  0  0  0  0
 25 47  1  0  0  0  0
 25 48  1  0  0  0  0
 26 49  1  0  0  0  0
 27 50  1  0  0  0  0
 27 51  1  0  0  0  0
M  END
> <s_m_source_file>
AV-unprocessed.smi

> <i_m_source_file_index>
75

> <i_lp_mmshare_version>
43012

> <i_f3d_flags>
0

> <s_epik_input>
W05IMl1DKD1PKVtDSDJdW0NAQEhdMVtDSDJdT1tDSDJdW0NIMl1OMWMobltjSF1uMiljKGMyMyluW2NIXW4zW0NIXShbQ0gyXTQpW0NIMl1DNChbQ0gyXVtPSF0pW0NIMl1bT0hd

> <s_epik_cmdline>
J2VwaWtfcHl0aG9uJywgJy1waCcsICc3LjAnLCAnLXRuJywgJzgnLCAnLW1hJywgJzIwMCcsICctbWV0YWxfYmluZGluZycsICctaW1hZScsICc8aW5maWxlLm1hZT4nLCAnLW9tYWUnLCAnPG91dGZpbGUubWFlPic=

> <r_lp_tautomer_probability>
1

> <r_epik_Ionization_Penalty>
5.29078e-05

> <r_epik_Ionization_Penalty_Charging>
0

> <r_epik_Ionization_Penalty_Neutral>
5.29078e-05

> <r_epik_State_Penalty>
-0

> <r_epik_Charging_Adjusted_Penalty>
0

> <i_epik_Tot_Q>
0

> <i_epik_Tot_abs_Q>
0

> <r_epik_Metal_State_Penalty>
-0

> <b_epik_Metal_Only>
0

> <s_lp_Force_Field>
OPLS_2005

> <r_lp_Energy>
41.8109

> <b_lp_Chiralities_Consistent>
1

> <s_lp_Variant>
AV-unprocessed.smi:75-2

> <Gold.Version>
5.8.1

> <Gold.Id.Protein>
6NUR|6NUR_protein|mol2

> <Gold.PLP.Fitness>
46.5565

> <Gold.PLP.PLP>
-33.9721

> <Gold.PLP.part.hbond>
-6.8961

> <Gold.PLP.part.metal>
0.0000

> <Gold.PLP.part.buried>
-3.9144

> <Gold.PLP.part.nonpolar>
-25.0426

> <Gold.PLP.part.repulsive>
0.6767

> <Gold.PLP.ligand.clash>
0.0000

> <Gold.PLP.ligand.torsion>
1.5613

> <Gold.PLP.Chemscore.Hbond>
4.0000

> <Gold.PLP.Chemscore.CHOScore>
1.0000

> <Gold.PLP.Chemscore.Metal>
0.0000

> <Gold.Chemscore.Hbonds>
donor molecule, donor type, donor heavy atom, donor atom, acceptor molecule, acceptor atom, score
      L1  H    24    46       P1 10747  1.00
      L1  H    26    49       P1  7921  1.00
      P1  H 10192 10197       L1    26  1.00
      L1  C    18    40       P1 10957  0.68

> <Gold.PLP.Chemscore.Internal.Correction>
0.7070

> <Gold.Rescore>
     Score         DG    S(hbond)    S(metal)    S(lipo)     H(rot)  DE(clash)    DE(int)     intcor
      8.18     -12.63       3.68        0.00      57.39       4.63       0.34       4.12       ----

> <Gold.Chemscore.Fitness>
8.1800

> <Gold.Chemscore.DG>
-12.6338

> <Gold.Chemscore.ZeroCoef>
-5.4800

> <Gold.Chemscore.Hbond>
3.6774

> <Gold.Chemscore.Metal>
0.0000

> <Gold.Chemscore.Lipo>
57.3872

> <Gold.Chemscore.Internal_Hbond>
0.0000

> <Gold.Chemscore.DEClash>
0.3355

> <Gold.Chemscore.DEInternal>
4.1184

> <Gold.Chemscore.Rot>
4.6261

> <Gold.Chemscore.Internal.Correction>
   9.000000E+99

> <Gold.Chemscore.Hbonds>
donor molecule, donor type, donor heavy atom, donor atom, acceptor molecule, acceptor atom, score
      L1  H    24    46       P1 10747  1.00
      L1  H    26    49       P1  7921  0.97
      P1  H 10192 10197       L1    26  0.82

> <Gold.Chemscore.Hbond.Weighted>
-12.2824

> <Gold.Chemscore.Metal.Weighted>
-0.0000

> <Gold.Chemscore.Lipo.Weighted>
-6.7143

> <Gold.Chemscore.Internal_Hbond.Weighted>
0.0000

> <Gold.Chemscore.DEClash.Weighted>
0.3355

> <Gold.Chemscore.DEInternal.Weighted>
4.1184

> <Gold.Chemscore.Rot.Weighted>
11.8429

> <Gold.Chemscore.Internal.Correction.Weighted>
   9.000000E+99

> <Gold.Protein.RotatedTorsions>
[ 6907 6896 6895 6894 ] final  144.40 input  -60.11 | X-H torsion
[ 7974 7965 7964 7962 ] final -154.52 input  175.53 | X-H torsion
[ 8008 7997 7996 7995 ] final   25.55 input   59.86 | X-H torsion
[ 10167 10162 10161 10158 ] final   24.81 input  -65.29 | X-H torsion
[ 10718 10713 10712 10709 ] final   42.77 input   66.30 | X-H torsion
[ 10763 10752 10751 10750 ] final   28.64 input  -60.55 | X-H torsion
[ 11005 11000 10999 10996 ] final  -59.18 input  -57.11 | X-H torsion

> <Gold.Protein.ActiveResidues>
 VAL166  LYS551  ARG553  GLY616  TRP617  ASP618  TYR619  PRO620  LYS621  CYS622 
 ASP623  PHE694  ASN695  SER759  ASP760  ASP761  ALA762  ILE779  LEU786  VAL792 
 PHE793  MET794  SER795  GLU796  ALA797  LYS798  CYS799  TRP800  GLU811  SER814 

> <Gold.Protein.RotatedAtoms>
  152.1942  133.4794  159.5023 H   0  0  0  0  0  0  0  0  0  0  0  0  # atno 6907 bound_to 6896
  150.6957  134.1674  159.4208 H   0  0  0  0  0  0  0  0  0  0  0  0  # atno 6908 bound_to 6896
  151.9589  135.0133  160.0597 H   0  0  0  0  0  0  0  0  0  0  0  0  # atno 6909 bound_to 6896
  144.7685  140.4376  143.5924 H   0  0  0  0  0  0  0  0  0  0  0  0  # atno 7974 bound_to 7965
  155.0135  140.3139  155.4820 H   0  0  0  0  0  0  0  0  0  0  0  0  # atno 8008 bound_to 7997
  156.2905  140.2210  156.5192 H   0  0  0  0  0  0  0  0  0  0  0  0  # atno 8009 bound_to 7997
  154.7514  140.0466  157.0884 H   0  0  0  0  0  0  0  0  0  0  0  0  # atno 8010 bound_to 7997
  140.5158  144.0085  150.6393 H   0  0  0  0  0  0  0  0  0  0  0  0  # atno 10167 bound_to 10162
  157.4085  130.7901  149.7410 H   0  0  0  0  0  0  0  0  0  0  0  0  # atno 10718 bound_to 10713
  153.0479  135.6508  154.0769 H   0  0  0  0  0  0  0  0  0  0  0  0  # atno 10763 bound_to 10752
  154.0463  135.2899  155.3349 H   0  0  0  0  0  0  0  0  0  0  0  0  # atno 10764 bound_to 10752
  154.6749  135.5342  153.8252 H   0  0  0  0  0  0  0  0  0  0  0  0  # atno 10765 bound_to 10752
  141.1238  133.6615  156.5032 H   0  0  0  0  0  0  0  0  0  0  0  0  # atno 11005 bound_to 11000
  145.6396  139.1548  143.2923 LP  0  0  0  0  0  0  0  0  0  0  0  0  # atno 17320 bound_to 7965
  146.1813  140.6493  142.9188 LP  0  0  0  0  0  0  0  0  0  0  0  0  # atno 17321 bound_to 7965
  140.3420  143.3014  152.0578 LP  0  0  0  0  0  0  0  0  0  0  0  0  # atno 17342 bound_to 10162
  139.4909  144.6435  151.6827 LP  0  0  0  0  0  0  0  0  0  0  0  0  # atno 17343 bound_to 10162
  155.9843  130.3992  150.3316 LP  0  0  0  0  0  0  0  0  0  0  0  0  # atno 17370 bound_to 10713
  157.1451  131.0306  151.2910 LP  0  0  0  0  0  0  0  0  0  0  0  0  # atno 17371 bound_to 10713
  140.4429  134.6999  157.5001 LP  0  0  0  0  0  0  0  0  0  0  0  0  # atno 17394 bound_to 11000
  140.0217  134.6537  155.9230 LP  0  0  0  0  0  0  0  0  0  0  0  0  # atno 17395 bound_to 11000

$$$$
