AV-unprocessed.smi:1103|AV-procd|sdf|4771|dock7
  -GOLD-   22720 3313D 1   1.00000     0.00000
 Structure written by MMmdl.
 44 45  0  0  0  0  0  0  0  0  2 V2000
  146.7551  128.6632  151.9695 C   0  0  0  0  0  0  0  0  0  0  0  0
  145.7814  129.8426  151.8306 C   0  0  0  0  0  0  0  0  0  0  0  0
  146.4792  131.1506  151.7465 N   0  3  1  0  0  0  0  0  0  0  0  0
  145.6099  132.2125  151.1781 C   0  0  0  0  0  0  0  0  0  0  0  0
  146.3967  133.5147  150.9678 C   0  0  0  0  0  0  0  0  0  0  0  0
  147.0363  133.9844  152.2797 C   0  0  0  0  0  0  0  0  0  0  0  0
  147.9144  132.8714  152.8775 C   0  0  1  0  0  0  0  0  0  0  0  0
  148.5559  133.3323  154.2050 C   0  0  0  0  0  0  0  0  0  0  0  0
  149.3436  134.5531  154.0619 N   0  0  0  0  0  0  0  0  0  0  0  0
  150.2554  134.9894  154.9443 C   0  0  0  0  0  0  0  0  0  0  0  0
  150.5191  134.3907  155.9882 O   0  0  0  0  0  0  0  0  0  0  0  0
  150.9680  136.2978  154.5823 C   0  0  0  0  0  0  0  0  0  0  0  0
  150.1079  137.4598  154.7346 N   0  0  0  0  0  0  0  0  0  0  0  0
  149.6799  138.3439  153.7657 C   0  0  0  0  0  0  0  0  0  0  0  0
  148.8864  139.2723  154.3775 C   0  0  0  0  0  0  0  0  0  0  0  0
  148.1718  140.4431  153.7671 C   0  0  0  0  0  0  0  0  0  0  0  0
  148.8945  138.8665  155.7425 C   0  0  0  0  0  0  0  0  0  0  0  0
  149.6267  137.7851  155.9533 N   0  0  0  0  0  0  0  0  0  0  0  0
  147.0891  131.5743  153.0360 C   0  0  0  0  0  0  0  0  0  0  0  0
  146.2150  127.7165  151.9356 H   0  0  0  0  0  0  0  0  0  0  0  0
  147.3007  128.6877  152.9122 H   0  0  0  0  0  0  0  0  0  0  0  0
  147.4836  128.6560  151.1581 H   0  0  0  0  0  0  0  0  0  0  0  0
  145.2020  129.6848  150.9200 H   0  0  0  0  0  0  0  0  0  0  0  0
  145.0649  129.8513  152.6533 H   0  0  0  0  0  0  0  0  0  0  0  0
  145.2022  131.8849  150.2208 H   0  0  0  0  0  0  0  0  0  0  0  0
  144.7614  132.3862  151.8420 H   0  0  0  0  0  0  0  0  0  0  0  0
  147.1720  133.3580  150.2164 H   0  0  0  0  0  0  0  0  0  0  0  0
  145.7380  134.2900  150.5755 H   0  0  0  0  0  0  0  0  0  0  0  0
  147.6320  134.8799  152.0991 H   0  0  0  0  0  0  0  0  0  0  0  0
  146.2560  134.2660  152.9882 H   0  0  0  0  0  0  0  0  0  0  0  0
  148.7173  132.6721  152.1659 H   0  0  0  0  0  0  0  0  0  0  0  0
  147.7871  133.4867  154.9641 H   0  0  0  0  0  0  0  0  0  0  0  0
  149.2126  132.5524  154.5916 H   0  0  0  0  0  0  0  0  0  0  0  0
  149.1956  135.0978  153.2244 H   0  0  0  0  0  0  0  0  0  0  0  0
  151.8514  136.4125  155.2126 H   0  0  0  0  0  0  0  0  0  0  0  0
  151.3119  136.2616  153.5479 H   0  0  0  0  0  0  0  0  0  0  0  0
  149.9695  138.2368  152.7308 H   0  0  0  0  0  0  0  0  0  0  0  0
  147.5496  140.9631  154.4959 H   0  0  0  0  0  0  0  0  0  0  0  0
  147.5189  140.1342  152.9505 H   0  0  0  0  0  0  0  0  0  0  0  0
  148.8712  141.1745  153.3622 H   0  0  0  0  0  0  0  0  0  0  0  0
  148.3919  139.3234  156.5822 H   0  0  0  0  0  0  0  0  0  0  0  0
  146.3038  131.7161  153.7805 H   0  0  0  0  0  0  0  0  0  0  0  0
  147.7349  130.7806  153.4090 H   0  0  0  0  0  0  0  0  0  0  0  0
  147.2360  131.0280  151.0889 H   0  0  0  0  0  0  0  0  0  0  0  0
  1  2  1  0  0  0  0
  1 20  1  0  0  0  0
  1 21  1  0  0  0  0
  1 22  1  0  0  0  0
  2  3  1  0  0  0  0
  2 23  1  0  0  0  0
  2 24  1  0  0  0  0
  3 19  1  0  0  0  0
  3  4  1  0  0  0  0
  3 44  1  0  0  0  0
  4  5  1  0  0  0  0
  4 25  1  0  0  0  0
  4 26  1  0  0  0  0
  5  6  1  0  0  0  0
  5 27  1  0  0  0  0
  5 28  1  0  0  0  0
  6  7  1  0  0  0  0
  6 29  1  0  0  0  0
  6 30  1  0  0  0  0
  7  8  1  0  0  0  0
  7 19  1  0  0  0  0
  7 31  1  0  0  0  0
  8  9  1  0  0  0  0
  8 32  1  0  0  0  0
  8 33  1  0  0  0  0
  9 10  1  0  0  0  0
  9 34  1  0  0  0  0
 10 11  2  0  0  0  0
 10 12  1  0  0  0  0
 12 13  1  0  0  0  0
 12 35  1  0  0  0  0
 12 36  1  0  0  0  0
 13 18  1  0  0  0  0
 13 14  1  0  0  0  0
 14 15  2  0  0  0  0
 14 37  1  0  0  0  0
 15 16  1  0  0  0  0
 15 17  1  0  0  0  0
 16 38  1  0  0  0  0
 16 39  1  0  0  0  0
 16 40  1  0  0  0  0
 17 18  2  0  0  0  0
 17 41  1  0  0  0  0
 19 42  1  0  0  0  0
 19 43  1  0  0  0  0
M  CHG  1   3   1
M  END
> <s_m_source_file>
AV-unprocessed.smi

> <i_m_source_file_index>
1103

> <i_lp_mmshare_version>
43012

> <i_f3d_flags>
0

> <s_epik_input>
W0NIM11bQ0gyXU4xW0NIMl1bQ0gyXVtDSDJdW0NASF0oW0NIMl0xKVtDSDJdW05IXUMoPU8pW0NIMl1uMltjSF1jKFtDSDNdKVtjSF1uMg==

> <s_epik_cmdline>
J2VwaWtfcHl0aG9uJywgJy1waCcsICc3LjAnLCAnLXRuJywgJzgnLCAnLW1hJywgJzIwMCcsICctbWV0YWxfYmluZGluZycsICctaW1hZScsICc8aW5maWxlLm1hZT4nLCAnLW9tYWUnLCAnPG91dGZpbGUubWFlPic=

> <r_lp_tautomer_probability>
1

> <r_epik_Ionization_Penalty>
0.000672456

> <r_epik_Ionization_Penalty_Charging>
0.000647327

> <r_epik_Ionization_Penalty_Neutral>
2.51297e-05

> <r_epik_State_Penalty>
0.000409793

> <r_epik_Charging_Adjusted_Penalty>
0.00105712

> <i_epik_Tot_Q>
1

> <i_epik_Tot_abs_Q>
1

> <r_epik_Metal_State_Penalty>
-0

> <b_epik_Metal_Only>
0

> <s_lp_Force_Field>
OPLS_2005

> <r_lp_Energy>
19.0507

> <b_lp_Chiralities_Consistent>
1

> <s_lp_Variant>
AV-unprocessed.smi:1103-1

> <Gold.Version>
5.8.1

> <Gold.Id.Protein>
6NUR|6NUR_protein|mol2

> <Gold.PLP.Fitness>
39.8821

> <Gold.PLP.PLP>
-29.4505

> <Gold.PLP.part.hbond>
-2.0000

> <Gold.PLP.part.metal>
0.0000

> <Gold.PLP.part.buried>
-1.2711

> <Gold.PLP.part.nonpolar>
-25.9814

> <Gold.PLP.part.repulsive>
0.0553

> <Gold.PLP.ligand.clash>
0.0000

> <Gold.PLP.ligand.torsion>
0.3914

> <Gold.PLP.Chemscore.Hbond>
2.0000

> <Gold.PLP.Chemscore.CHOScore>
1.7230

> <Gold.PLP.Chemscore.Metal>
0.0000

> <Gold.Chemscore.Hbonds>
donor molecule, donor type, donor heavy atom, donor atom, acceptor molecule, acceptor atom, score
      L1  H     3    44       P1 10747  1.00
      L1  H     9    34       P1  7948  0.75
      L1  C    14    37       P1  7948  0.60
      L1  C    14    37       P1  7957  0.80

> <Gold.PLP.Chemscore.Internal.Correction>
0.0454

> <Gold.Rescore>
     Score         DG    S(hbond)    S(metal)    S(lipo)     H(rot)  DE(clash)    DE(int)     intcor
     15.12     -15.41       1.60        0.00      75.94       1.68       0.02       0.27       ----

> <Gold.Chemscore.Fitness>
15.1183

> <Gold.Chemscore.DG>
-15.4058

> <Gold.Chemscore.ZeroCoef>
-5.4800

> <Gold.Chemscore.Hbond>
1.6009

> <Gold.Chemscore.Metal>
0.0000

> <Gold.Chemscore.Lipo>
75.9438

> <Gold.Chemscore.Internal_Hbond>
0.0000

> <Gold.Chemscore.DEClash>
0.0202

> <Gold.Chemscore.DEInternal>
0.2672

> <Gold.Chemscore.Rot>
1.6823

> <Gold.Chemscore.Internal.Correction>
   9.000000E+99

> <Gold.Chemscore.Hbonds>
donor molecule, donor type, donor heavy atom, donor atom, acceptor molecule, acceptor atom, score
      L1  H     3    44       P1 10747  0.99
      L1  H     9    34       P1  7948  0.09

> <Gold.Chemscore.Hbond.Weighted>
-5.3469

> <Gold.Chemscore.Metal.Weighted>
-0.0000

> <Gold.Chemscore.Lipo.Weighted>
-8.8854

> <Gold.Chemscore.Internal_Hbond.Weighted>
0.0000

> <Gold.Chemscore.DEClash.Weighted>
0.0202

> <Gold.Chemscore.DEInternal.Weighted>
0.2672

> <Gold.Chemscore.Rot.Weighted>
4.3066

> <Gold.Chemscore.Internal.Correction.Weighted>
   9.000000E+99

> <Gold.Protein.RotatedTorsions>
[ 6907 6896 6895 6894 ] final  171.47 input  -60.11 | X-H torsion
[ 7974 7965 7964 7962 ] final  -13.03 input  175.53 | X-H torsion
[ 8008 7997 7996 7995 ] final -128.84 input   59.86 | X-H torsion
[ 10167 10162 10161 10158 ] final  136.16 input  -65.29 | X-H torsion
[ 10718 10713 10712 10709 ] final   62.97 input   66.30 | X-H torsion
[ 10763 10752 10751 10750 ] final  119.77 input  -60.55 | X-H torsion
[ 11005 11000 10999 10996 ] final  169.37 input  -57.11 | X-H torsion

> <Gold.Protein.ActiveResidues>
 VAL166  LYS551  ARG553  GLY616  TRP617  ASP618  TYR619  PRO620  LYS621  CYS622 
 ASP623  PHE694  ASN695  SER759  ASP760  ASP761  ALA762  ILE779  LEU786  VAL792 
 PHE793  MET794  SER795  GLU796  ALA797  LYS798  CYS799  TRP800  GLU811  SER814 

> <Gold.Protein.RotatedAtoms>
  151.7996  133.3368  159.3522 H   0  0  0  0  0  0  0  0  0  0  0  0  # atno 6907 bound_to 6896
  150.7363  134.5766  159.5926 H   0  0  0  0  0  0  0  0  0  0  0  0  # atno 6908 bound_to 6896
  152.3152  134.7450  160.0378 H   0  0  0  0  0  0  0  0  0  0  0  0  # atno 6909 bound_to 6896
  146.2130  140.3143  142.8385 H   0  0  0  0  0  0  0  0  0  0  0  0  # atno 7974 bound_to 7965
  155.2694  140.0439  157.3005 H   0  0  0  0  0  0  0  0  0  0  0  0  # atno 8008 bound_to 7997
  154.5663  140.2360  155.8228 H   0  0  0  0  0  0  0  0  0  0  0  0  # atno 8009 bound_to 7997
  156.2087  140.3005  155.9692 H   0  0  0  0  0  0  0  0  0  0  0  0  # atno 8010 bound_to 7997
  139.5190  144.6479  151.5387 H   0  0  0  0  0  0  0  0  0  0  0  0  # atno 10167 bound_to 10162
  157.5938  130.9079  149.9655 H   0  0  0  0  0  0  0  0  0  0  0  0  # atno 10718 bound_to 10713
  153.5881  135.3471  155.2900 H   0  0  0  0  0  0  0  0  0  0  0  0  # atno 10763 bound_to 10752
  154.8657  135.4198  154.2546 H   0  0  0  0  0  0  0  0  0  0  0  0  # atno 10764 bound_to 10752
  153.3347  135.7046  153.6988 H   0  0  0  0  0  0  0  0  0  0  0  0  # atno 10765 bound_to 10752
  140.2970  134.7626  157.3885 H   0  0  0  0  0  0  0  0  0  0  0  0  # atno 11005 bound_to 11000
  144.8965  140.7590  143.5893 LP  0  0  0  0  0  0  0  0  0  0  0  0  # atno 17320 bound_to 7965
  145.3068  139.1832  143.4660 LP  0  0  0  0  0  0  0  0  0  0  0  0  # atno 17321 bound_to 7965
  140.6271  143.9147  150.6574 LP  0  0  0  0  0  0  0  0  0  0  0  0  # atno 17342 bound_to 10162
  140.2439  143.3643  152.1463 LP  0  0  0  0  0  0  0  0  0  0  0  0  # atno 17343 bound_to 10162
  156.0997  130.3656  150.0241 LP  0  0  0  0  0  0  0  0  0  0  0  0  # atno 17370 bound_to 10713
  156.8358  130.9408  151.3634 LP  0  0  0  0  0  0  0  0  0  0  0  0  # atno 17371 bound_to 10713
  140.1143  134.5304  155.8238 LP  0  0  0  0  0  0  0  0  0  0  0  0  # atno 17394 bound_to 11000
  141.2135  133.6735  156.6748 LP  0  0  0  0  0  0  0  0  0  0  0  0  # atno 17395 bound_to 11000

$$$$
