AV-unprocessed.smi:249|AV-procd|sdf|1911|dock7
  -GOLD-   2262021 03D 1   1.00000     0.00000
 Structure written by MMmdl.
 64 67  0  0  0  0  0  0  0  0  2 V2000
  146.8074  129.4771  152.3214 C   0  0  0  0  0  0  0  0  0  0  0  0
  145.8170  130.5895  151.9439 C   0  0  0  0  0  0  0  0  0  0  0  0
  146.4773  131.7840  151.3391 N   0  3  1  0  0  0  0  0  0  0  0  0
  145.6154  132.5409  150.3871 C   0  0  0  0  0  0  0  0  0  0  0  0
  144.5164  133.3403  151.1140 C   0  0  0  0  0  0  0  0  0  0  0  0
  145.1291  134.2823  152.1682 C   0  0  1  0  0  0  0  0  0  0  0  0
  144.1064  135.0390  152.8961 N   0  0  0  0  0  0  0  0  0  0  0  0
  142.6952  134.9360  152.5308 C   0  0  0  0  0  0  0  0  0  0  0  0
  144.4944  136.1021  153.6474 C   0  0  0  0  0  0  0  0  0  0  0  0
  144.0542  136.1968  154.9302 N   0  0  0  0  0  0  0  0  0  0  0  0
  144.4107  137.2335  155.6940 C   0  0  0  0  0  0  0  0  0  0  0  0
  145.1920  138.2688  155.3826 N   0  0  0  0  0  0  0  0  0  0  0  0
  145.6507  138.1735  154.1025 C   0  0  0  0  0  0  0  0  0  0  0  0
  145.3550  137.1349  153.1741 C   0  0  0  0  0  0  0  0  0  0  0  0
  146.0156  137.3765  151.9738 N   0  0  0  0  0  0  0  0  0  0  0  0
  146.6487  138.4997  152.1752 C   0  0  0  0  0  0  0  0  0  0  0  0
  146.4787  139.0505  153.4244 N   0  0  0  0  0  0  0  0  0  0  0  0
  147.0622  140.2884  153.9100 C   0  0  0  0  0  0  0  0  0  0  0  0
  148.6136  140.3069  153.8751 C   0  0  1  0  0  0  0  0  0  0  0  0
  149.2075  141.5143  154.6458 C   0  0  0  0  0  0  0  0  0  0  0  0
  148.5647  142.7254  154.3052 O   0  0  0  0  0  0  0  0  0  0  0  0
  149.1836  138.9689  154.4151 C   0  0  1  0  0  0  0  0  0  0  0  0
  150.6780  138.7791  154.2112 C   0  0  0  0  0  0  0  0  0  0  0  0
  151.0021  137.6826  155.2167 C   0  0  0  0  0  0  0  0  0  0  0  0
  150.1591  137.9432  156.3304 O   0  0  0  0  0  0  0  0  0  0  0  0
  149.0838  138.7918  155.9376 C   0  0  0  0  0  0  0  0  0  0  0  0
  146.0624  133.5056  153.1162 C   0  0  0  0  0  0  0  0  0  0  0  0
  147.1195  132.7169  152.3159 C   0  0  1  0  0  0  0  0  0  0  0  0
  148.1627  132.0397  153.2231 C   0  0  0  0  0  0  0  0  0  0  0  0
  146.3029  128.6978  152.8933 H   0  0  0  0  0  0  0  0  0  0  0  0
  147.6203  129.8624  152.9376 H   0  0  0  0  0  0  0  0  0  0  0  0
  147.2409  128.9956  151.4456 H   0  0  0  0  0  0  0  0  0  0  0  0
  145.0436  130.1949  151.2855 H   0  0  0  0  0  0  0  0  0  0  0  0
  145.3137  130.8751  152.8654 H   0  0  0  0  0  0  0  0  0  0  0  0
  146.2485  133.2312  149.8280 H   0  0  0  0  0  0  0  0  0  0  0  0
  145.1770  131.8840  149.6378 H   0  0  0  0  0  0  0  0  0  0  0  0
  143.9478  133.9220  150.3873 H   0  0  0  0  0  0  0  0  0  0  0  0
  143.8057  132.6543  151.5746 H   0  0  0  0  0  0  0  0  0  0  0  0
  145.7527  134.9776  151.6079 H   0  0  0  0  0  0  0  0  0  0  0  0
  142.0588  135.1241  153.3962 H   0  0  0  0  0  0  0  0  0  0  0  0
  142.4528  133.9438  152.1523 H   0  0  0  0  0  0  0  0  0  0  0  0
  142.4459  135.6614  151.7558 H   0  0  0  0  0  0  0  0  0  0  0  0
  144.0113  137.2339  156.6976 H   0  0  0  0  0  0  0  0  0  0  0  0
  147.2579  138.9634  151.4128 H   0  0  0  0  0  0  0  0  0  0  0  0
  146.6638  141.1159  153.3217 H   0  0  0  0  0  0  0  0  0  0  0  0
  146.6980  140.4339  154.9269 H   0  0  0  0  0  0  0  0  0  0  0  0
  148.9255  140.3895  152.8325 H   0  0  0  0  0  0  0  0  0  0  0  0
  149.1449  141.3566  155.7229 H   0  0  0  0  0  0  0  0  0  0  0  0
  150.2614  141.6551  154.4123 H   0  0  0  0  0  0  0  0  0  0  0  0
  148.9389  143.4179  154.8281 H   0  0  0  0  0  0  0  0  0  0  0  0
  148.6660  138.1361  153.9354 H   0  0  0  0  0  0  0  0  0  0  0  0
  150.9437  138.4946  153.1928 H   0  0  0  0  0  0  0  0  0  0  0  0
  151.2190  139.6919  154.4657 H   0  0  0  0  0  0  0  0  0  0  0  0
  150.7493  136.7041  154.8066 H   0  0  0  0  0  0  0  0  0  0  0  0
  152.0538  137.6708  155.5028 H   0  0  0  0  0  0  0  0  0  0  0  0
  149.2024  139.7470  156.4507 H   0  0  0  0  0  0  0  0  0  0  0  0
  148.1287  138.3637  156.2424 H   0  0  0  0  0  0  0  0  0  0  0  0
  146.5586  134.2078  153.7871 H   0  0  0  0  0  0  0  0  0  0  0  0
  145.4956  132.8259  153.7524 H   0  0  0  0  0  0  0  0  0  0  0  0
  147.6773  133.4387  151.7168 H   0  0  0  0  0  0  0  0  0  0  0  0
  148.7465  132.7888  153.7587 H   0  0  0  0  0  0  0  0  0  0  0  0
  148.8607  131.4358  152.6426 H   0  0  0  0  0  0  0  0  0  0  0  0
  147.7030  131.4014  153.9778 H   0  0  0  0  0  0  0  0  0  0  0  0
  147.2357  131.4109  150.7858 H   0  0  0  0  0  0  0  0  0  0  0  0
  1  2  1  0  0  0  0
  1 30  1  0  0  0  0
  1 31  1  0  0  0  0
  1 32  1  0  0  0  0
  2  3  1  0  0  0  0
  2 33  1  0  0  0  0
  2 34  1  0  0  0  0
  3 28  1  0  0  0  0
  3  4  1  0  0  0  0
  3 64  1  0  0  0  0
  4  5  1  0  0  0  0
  4 35  1  0  0  0  0
  4 36  1  0  0  0  0
  5  6  1  0  0  0  0
  5 37  1  0  0  0  0
  5 38  1  0  0  0  0
  6  7  1  0  0  0  0
  6 27  1  0  0  0  0
  6 39  1  0  0  0  0
  7  8  1  0  0  0  0
  7  9  1  0  0  0  0
  8 40  1  0  0  0  0
  8 41  1  0  0  0  0
  8 42  1  0  0  0  0
  9 14  1  0  0  0  0
  9 10  2  0  0  0  0
 10 11  1  0  0  0  0
 11 12  2  0  0  0  0
 11 43  1  0  0  0  0
 12 13  1  0  0  0  0
 13 17  1  0  0  0  0
 13 14  2  0  0  0  0
 14 15  1  0  0  0  0
 15 16  2  0  0  0  0
 16 17  1  0  0  0  0
 16 44  1  0  0  0  0
 17 18  1  0  0  0  0
 18 19  1  0  0  0  0
 18 45  1  0  0  0  0
 18 46  1  0  0  0  0
 19 20  1  0  0  0  0
 19 22  1  0  0  0  0
 19 47  1  0  0  0  0
 20 21  1  0  0  0  0
 20 48  1  0  0  0  0
 20 49  1  0  0  0  0
 21 50  1  0  0  0  0
 22 26  1  0  0  0  0
 22 23  1  0  0  0  0
 22 51  1  0  0  0  0
 23 24  1  0  0  0  0
 23 52  1  0  0  0  0
 23 53  1  0  0  0  0
 24 25  1  0  0  0  0
 24 54  1  0  0  0  0
 24 55  1  0  0  0  0
 25 26  1  0  0  0  0
 26 56  1  0  0  0  0
 26 57  1  0  0  0  0
 27 28  1  0  0  0  0
 27 58  1  0  0  0  0
 27 59  1  0  0  0  0
 28 29  1  0  0  0  0
 28 60  1  0  0  0  0
 29 61  1  0  0  0  0
 29 62  1  0  0  0  0
 29 63  1  0  0  0  0
M  CHG  1   3   1
M  END
> <s_m_source_file>
AV-unprocessed.smi

> <i_m_source_file_index>
249

> <i_lp_mmshare_version>
43012

> <i_f3d_flags>
0

> <s_epik_input>
W0NIM11bQ0gyXU4xW0NIMl1bQ0gyXVtDQEhdKFtDSDJdW0NASF0xW0NIM10pTihbQ0gzXSljKG5bY0hdbjIpYyhjMjMpbltjSF1uM1tDSDJdW0NASF0oW0NIMl1bT0hdKVtDQEBIXTRbQ0gyXVtDSDJdT1tDSDJdNA==

> <s_epik_cmdline>
J2VwaWtfcHl0aG9uJywgJy1waCcsICc3LjAnLCAnLXRuJywgJzgnLCAnLW1hJywgJzIwMCcsICctbWV0YWxfYmluZGluZycsICctaW1hZScsICc8aW5maWxlLm1hZT4nLCAnLW9tYWUnLCAnPG91dGZpbGUubWFlPic=

> <r_lp_tautomer_probability>
1

> <r_epik_Ionization_Penalty>
0.00294688

> <r_epik_Ionization_Penalty_Charging>
0.00169971

> <r_epik_Ionization_Penalty_Neutral>
0.00124717

> <r_epik_State_Penalty>
-0

> <r_epik_Charging_Adjusted_Penalty>
0.00169971

> <i_epik_Tot_Q>
1

> <i_epik_Tot_abs_Q>
1

> <r_epik_Metal_State_Penalty>
-0

> <b_epik_Metal_Only>
0

> <s_lp_Force_Field>
OPLS_2005

> <r_lp_Energy>
53.8972

> <b_lp_Chiralities_Consistent>
1

> <s_lp_Variant>
AV-unprocessed.smi:249-14

> <Gold.Version>
5.8.1

> <Gold.Id.Protein>
6NUR|6NUR_protein|mol2

> <Gold.PLP.Fitness>
49.1502

> <Gold.PLP.PLP>
-43.0390

> <Gold.PLP.part.hbond>
-3.3254

> <Gold.PLP.part.metal>
0.0000

> <Gold.PLP.part.buried>
-4.3438

> <Gold.PLP.part.nonpolar>
-37.0141

> <Gold.PLP.part.repulsive>
0.4206

> <Gold.PLP.ligand.clash>
0.0000

> <Gold.PLP.ligand.torsion>
1.7432

> <Gold.PLP.Chemscore.Hbond>
2.0017

> <Gold.PLP.Chemscore.CHOScore>
0.9883

> <Gold.PLP.Chemscore.Metal>
0.0000

> <Gold.Chemscore.Hbonds>
donor molecule, donor type, donor heavy atom, donor atom, acceptor molecule, acceptor atom, score
      L1  H     3    64       P1 10747  1.00
      L1  H    21    50       P1  8028  0.98
      L1  C    16    44       P1  7957  0.95

> <Gold.PLP.Chemscore.Internal.Correction>
0.6276

> <Gold.Rescore>
     Score         DG    S(hbond)    S(metal)    S(lipo)     H(rot)  DE(clash)    DE(int)     intcor
     14.90     -17.27       1.93        0.00     103.54       2.65       0.52       1.84       ----

> <Gold.Chemscore.Fitness>
14.9041

> <Gold.Chemscore.DG>
-17.2662

> <Gold.Chemscore.ZeroCoef>
-5.4800

> <Gold.Chemscore.Hbond>
1.9342

> <Gold.Chemscore.Metal>
0.0000

> <Gold.Chemscore.Lipo>
103.5373

> <Gold.Chemscore.Internal_Hbond>
0.0000

> <Gold.Chemscore.DEClash>
0.5191

> <Gold.Chemscore.DEInternal>
1.8430

> <Gold.Chemscore.Rot>
2.6515

> <Gold.Chemscore.Internal.Correction>
   9.000000E+99

> <Gold.Chemscore.Hbonds>
donor molecule, donor type, donor heavy atom, donor atom, acceptor molecule, acceptor atom, score
      L1  H     3    64       P1 10747  1.00
      L1  H    21    50       P1  8028  0.90

> <Gold.Chemscore.Hbond.Weighted>
-6.4603

> <Gold.Chemscore.Metal.Weighted>
-0.0000

> <Gold.Chemscore.Lipo.Weighted>
-12.1139

> <Gold.Chemscore.Internal_Hbond.Weighted>
0.0000

> <Gold.Chemscore.DEClash.Weighted>
0.5191

> <Gold.Chemscore.DEInternal.Weighted>
1.8430

> <Gold.Chemscore.Rot.Weighted>
6.7880

> <Gold.Chemscore.Internal.Correction.Weighted>
   9.000000E+99

> <Gold.Protein.RotatedTorsions>
[ 6907 6896 6895 6894 ] final   91.36 input  -60.11 | X-H torsion
[ 7974 7965 7964 7962 ] final -103.30 input  175.53 | X-H torsion
[ 8008 7997 7996 7995 ] final   14.98 input   59.86 | X-H torsion
[ 10167 10162 10161 10158 ] final   11.88 input  -65.29 | X-H torsion
[ 10718 10713 10712 10709 ] final -160.69 input   66.30 | X-H torsion
[ 10763 10752 10751 10750 ] final  169.76 input  -60.55 | X-H torsion
[ 11005 11000 10999 10996 ] final  -52.10 input  -57.11 | X-H torsion

> <Gold.Protein.ActiveResidues>
 VAL166  LYS551  ARG553  GLY616  TRP617  ASP618  TYR619  PRO620  LYS621  CYS622 
 ASP623  PHE694  ASN695  SER759  ASP760  ASP761  ALA762  ILE779  LEU786  VAL792 
 PHE793  MET794  SER795  GLU796  ALA797  LYS798  CYS799  TRP800  GLU811  SER814 

> <Gold.Protein.RotatedAtoms>
  152.5449  134.1669  159.8580 H   0  0  0  0  0  0  0  0  0  0  0  0  # atno 6907 bound_to 6896
  151.1682  133.4794  159.2601 H   0  0  0  0  0  0  0  0  0  0  0  0  # atno 6908 bound_to 6896
  151.1302  135.0137  159.8634 H   0  0  0  0  0  0  0  0  0  0  0  0  # atno 6909 bound_to 6896
  145.2577  140.9259  143.3059 H   0  0  0  0  0  0  0  0  0  0  0  0  # atno 7974 bound_to 7965
  154.8561  140.2937  155.5568 H   0  0  0  0  0  0  0  0  0  0  0  0  # atno 8008 bound_to 7997
  156.3018  140.2487  156.3460 H   0  0  0  0  0  0  0  0  0  0  0  0  # atno 8009 bound_to 7997
  154.8969  140.0392  157.1860 H   0  0  0  0  0  0  0  0  0  0  0  0  # atno 8010 bound_to 7997
  140.6104  143.8420  150.7059 H   0  0  0  0  0  0  0  0  0  0  0  0  # atno 10167 bound_to 10162
  156.5856  130.8748  151.2876 H   0  0  0  0  0  0  0  0  0  0  0  0  # atno 10718 bound_to 10713
  154.3878  135.2754  155.2173 H   0  0  0  0  0  0  0  0  0  0  0  0  # atno 10763 bound_to 10752
  154.4252  135.5990  153.6038 H   0  0  0  0  0  0  0  0  0  0  0  0  # atno 10764 bound_to 10752
  152.9833  135.5982  154.4129 H   0  0  0  0  0  0  0  0  0  0  0  0  # atno 10765 bound_to 10752
  141.0906  133.6633  156.3975 H   0  0  0  0  0  0  0  0  0  0  0  0  # atno 11005 bound_to 11000
  144.9446  139.4150  143.6432 LP  0  0  0  0  0  0  0  0  0  0  0  0  # atno 17320 bound_to 7965
  146.3284  139.8424  142.8888 LP  0  0  0  0  0  0  0  0  0  0  0  0  # atno 17321 bound_to 7965
  140.1987  143.3977  152.1808 LP  0  0  0  0  0  0  0  0  0  0  0  0  # atno 17342 bound_to 10162
  139.5357  144.7206  151.4903 LP  0  0  0  0  0  0  0  0  0  0  0  0  # atno 17343 bound_to 10162
  157.7316  130.9702  150.1887 LP  0  0  0  0  0  0  0  0  0  0  0  0  # atno 17370 bound_to 10713
  156.2593  130.3709  149.8147 LP  0  0  0  0  0  0  0  0  0  0  0  0  # atno 17371 bound_to 10713
  140.5260  134.6258  157.5334 LP  0  0  0  0  0  0  0  0  0  0  0  0  # atno 17394 bound_to 11000
  139.9732  134.7259  156.0001 LP  0  0  0  0  0  0  0  0  0  0  0  0  # atno 17395 bound_to 11000

$$$$
