AV-unprocessed.smi:972|AV-procd|sdf|4297|dock2
  -GOLD-   22720 2203D 1   1.00000     0.00000
 Structure written by MMmdl.
 51 53  0  0  0  0  0  0  0  0  2 V2000
  151.4187  142.9554  156.5314 C   0  0  0  0  0  0  0  0  0  0  0  0
  150.7430  141.7530  157.2319 C   0  0  0  0  0  0  0  0  0  0  0  0
  151.8857  140.9456  157.8921 C   0  0  0  0  0  0  0  0  0  0  0  0
  149.7797  142.2632  158.3193 C   0  0  0  0  0  0  0  0  0  0  0  0
  149.9657  140.8903  156.2223 C   0  0  0  0  0  0  0  0  0  0  0  0
  148.6960  140.5922  156.5265 N   0  0  0  0  0  0  0  0  0  0  0  0
  148.0379  139.7328  155.7195 C   0  0  0  0  0  0  0  0  0  0  0  0
  148.6681  139.1318  154.6026 C   0  0  0  0  0  0  0  0  0  0  0  0
  148.0641  138.2130  153.7009 N   0  0  0  0  0  0  0  0  0  0  0  0
  146.7620  138.0227  153.4284 C   0  0  0  0  0  0  0  0  0  0  0  0
  145.8260  138.6434  153.9303 O   0  0  0  0  0  0  0  0  0  0  0  0
  146.5964  137.0516  152.5188 N   0  0  0  0  0  0  0  0  0  0  0  0
  145.3094  136.5978  151.9993 C   0  0  2  0  0  0  0  0  0  0  0  0
  144.6316  135.6262  152.9842 C   0  0  0  0  0  0  0  0  0  0  0  0
  143.3246  135.0597  152.3982 C   0  0  0  0  0  0  0  0  0  0  0  0
  143.5360  134.4171  151.0755 N   0  3  2  0  0  0  0  0  0  0  0  0
  144.2010  133.0958  151.1644 C   0  0  0  0  0  0  0  0  0  0  0  0
  144.5297  132.4909  149.8193 C   0  0  0  0  0  0  0  0  0  0  0  0
  143.3648  131.9593  150.6240 C   0  0  0  0  0  0  0  0  0  0  0  0
  144.1819  135.3369  150.1040 C   0  0  0  0  0  0  0  0  0  0  0  0
  145.5090  135.9079  150.6396 C   0  0  0  0  0  0  0  0  0  0  0  0
  150.0181  139.4839  154.4030 C   0  0  0  0  0  0  0  0  0  0  0  0
  150.6634  140.3440  155.2181 N   0  0  0  0  0  0  0  0  0  0  0  0
  152.0096  143.5438  157.2341 H   0  0  0  0  0  0  0  0  0  0  0  0
  150.6888  143.6347  156.0898 H   0  0  0  0  0  0  0  0  0  0  0  0
  152.0883  142.6265  155.7355 H   0  0  0  0  0  0  0  0  0  0  0  0
  152.5726  140.5456  157.1452 H   0  0  0  0  0  0  0  0  0  0  0  0
  151.5082  140.1065  158.4777 H   0  0  0  0  0  0  0  0  0  0  0  0
  152.4684  141.5665  158.5735 H   0  0  0  0  0  0  0  0  0  0  0  0
  150.2989  142.8791  159.0541 H   0  0  0  0  0  0  0  0  0  0  0  0
  149.3125  141.4355  158.8541 H   0  0  0  0  0  0  0  0  0  0  0  0
  148.9811  142.8682  157.8885 H   0  0  0  0  0  0  0  0  0  0  0  0
  147.0156  139.5366  155.9991 H   0  0  0  0  0  0  0  0  0  0  0  0
  148.7106  137.6301  153.1897 H   0  0  0  0  0  0  0  0  0  0  0  0
  147.4212  136.5954  152.1572 H   0  0  0  0  0  0  0  0  0  0  0  0
  144.6601  137.4629  151.8500 H   0  0  0  0  0  0  0  0  0  0  0  0
  145.3114  134.8094  153.2305 H   0  0  0  0  0  0  0  0  0  0  0  0
  144.4154  136.1347  153.9248 H   0  0  0  0  0  0  0  0  0  0  0  0
  142.8740  134.3480  153.0908 H   0  0  0  0  0  0  0  0  0  0  0  0
  142.6020  135.8675  152.2759 H   0  0  0  0  0  0  0  0  0  0  0  0
  144.8616  132.9335  152.0137 H   0  0  0  0  0  0  0  0  0  0  0  0
  144.3001  133.0661  148.9241 H   0  0  0  0  0  0  0  0  0  0  0  0
  145.4167  131.8641  149.7538 H   0  0  0  0  0  0  0  0  0  0  0  0
  143.4846  130.9830  151.0893 H   0  0  0  0  0  0  0  0  0  0  0  0
  142.3623  132.1819  150.2627 H   0  0  0  0  0  0  0  0  0  0  0  0
  144.3440  134.8232  149.1557 H   0  0  0  0  0  0  0  0  0  0  0  0
  143.4922  136.1557  149.8950 H   0  0  0  0  0  0  0  0  0  0  0  0
  145.9176  136.6177  149.9191 H   0  0  0  0  0  0  0  0  0  0  0  0
  146.2451  135.1082  150.7302 H   0  0  0  0  0  0  0  0  0  0  0  0
  150.5904  139.0679  153.5868 H   0  0  0  0  0  0  0  0  0  0  0  0
  142.6147  134.2253  150.7085 H   0  0  0  0  0  0  0  0  0  0  0  0
  1  2  1  0  0  0  0
  1 24  1  0  0  0  0
  1 25  1  0  0  0  0
  1 26  1  0  0  0  0
  2  3  1  0  0  0  0
  2  4  1  0  0  0  0
  2  5  1  0  0  0  0
  3 27  1  0  0  0  0
  3 28  1  0  0  0  0
  3 29  1  0  0  0  0
  4 30  1  0  0  0  0
  4 31  1  0  0  0  0
  4 32  1  0  0  0  0
  5 23  1  0  0  0  0
  5  6  2  0  0  0  0
  6  7  1  0  0  0  0
  7  8  2  0  0  0  0
  7 33  1  0  0  0  0
  8  9  1  0  0  0  0
  8 22  1  0  0  0  0
  9 10  1  0  0  0  0
  9 34  1  0  0  0  0
 10 11  2  0  0  0  0
 10 12  1  0  0  0  0
 12 13  1  0  0  0  0
 12 35  1  0  0  0  0
 13 21  1  0  0  0  0
 13 14  1  0  0  0  0
 13 36  1  0  0  0  0
 14 15  1  0  0  0  0
 14 37  1  0  0  0  0
 14 38  1  0  0  0  0
 15 16  1  0  0  0  0
 15 39  1  0  0  0  0
 15 40  1  0  0  0  0
 16 17  1  0  0  0  0
 16 20  1  0  0  0  0
 16 51  1  0  0  0  0
 17 19  1  0  0  0  0
 17 18  1  0  0  0  0
 17 41  1  0  0  0  0
 18 19  1  0  0  0  0
 18 42  1  0  0  0  0
 18 43  1  0  0  0  0
 19 44  1  0  0  0  0
 19 45  1  0  0  0  0
 20 21  1  0  0  0  0
 20 46  1  0  0  0  0
 20 47  1  0  0  0  0
 21 48  1  0  0  0  0
 21 49  1  0  0  0  0
 22 23  2  0  0  0  0
 22 50  1  0  0  0  0
M  CHG  1  16   1
M  END
> <s_m_source_file>
AV-unprocessed.smi

> <i_m_source_file_index>
972

> <i_lp_mmshare_version>
43012

> <i_f3d_flags>
0

> <s_epik_input>
W0NIM11DKFtDSDNdKShbQ0gzXSljMW5bY0hdYyhbY0hdbjEpW05IXUMoPU8pW05IXVtDSF0yW0NIMl1bQ0gyXU4oW0NIMl1bQ0gyXTIpW0NIXTNbQ0gyXVtDSDJdMw==

> <s_epik_cmdline>
J2VwaWtfcHl0aG9uJywgJy1waCcsICc3LjAnLCAnLXRuJywgJzgnLCAnLW1hJywgJzIwMCcsICctbWV0YWxfYmluZGluZycsICctaW1hZScsICc8aW5maWxlLm1hZT4nLCAnLW9tYWUnLCAnPG91dGZpbGUubWFlPic=

> <r_lp_tautomer_probability>
1

> <r_epik_Ionization_Penalty>
0.123264

> <r_epik_Ionization_Penalty_Charging>
0.123242

> <r_epik_Ionization_Penalty_Neutral>
2.24743e-05

> <r_epik_State_Penalty>
0.112739

> <r_epik_Charging_Adjusted_Penalty>
0.235981

> <i_epik_Tot_Q>
1

> <i_epik_Tot_abs_Q>
1

> <r_epik_Metal_State_Penalty>
0.112739

> <b_epik_Metal_Only>
0

> <s_lp_Force_Field>
OPLS_2005

> <r_lp_Energy>
26.5088

> <b_lp_Chiralities_Consistent>
1

> <s_lp_Variant>
AV-unprocessed.smi:972-2

> <Gold.Version>
5.8.1

> <Gold.Id.Protein>
6NUR|6NUR_protein|mol2

> <Gold.PLP.Fitness>
45.9229

> <Gold.PLP.PLP>
-33.6592

> <Gold.PLP.part.hbond>
-4.0000

> <Gold.PLP.part.metal>
0.0000

> <Gold.PLP.part.buried>
-1.5510

> <Gold.PLP.part.nonpolar>
-27.8109

> <Gold.PLP.part.repulsive>
0.3167

> <Gold.PLP.ligand.clash>
0.0000

> <Gold.PLP.ligand.torsion>
1.2969

> <Gold.PLP.Chemscore.Hbond>
4.0265

> <Gold.PLP.Chemscore.CHOScore>
0.4572

> <Gold.PLP.Chemscore.Metal>
0.0000

> <Gold.Chemscore.Hbonds>
donor molecule, donor type, donor heavy atom, donor atom, acceptor molecule, acceptor atom, score
      L1  H     9    34       P1  7948  0.96
      L1  H    12    35       P1  7948  1.00
      L1  H    16    51       P1 10186  2.00
      P1  H  7989  7998       L1    23  0.20
      L1  C    22    50       P1  7957  0.23

> <Gold.PLP.Chemscore.Internal.Correction>
1.4066

> <Gold.Rescore>
     Score         DG    S(hbond)    S(metal)    S(lipo)     H(rot)  DE(clash)    DE(int)     intcor
     19.70     -22.07       2.61        0.00      96.23       1.32       0.45       1.91       ----

> <Gold.Chemscore.Fitness>
19.6967

> <Gold.Chemscore.DG>
-22.0650

> <Gold.Chemscore.ZeroCoef>
-5.4800

> <Gold.Chemscore.Hbond>
2.6068

> <Gold.Chemscore.Metal>
0.0000

> <Gold.Chemscore.Lipo>
96.2334

> <Gold.Chemscore.Internal_Hbond>
0.0000

> <Gold.Chemscore.DEClash>
0.4547

> <Gold.Chemscore.DEInternal>
1.9136

> <Gold.Chemscore.Rot>
1.3207

> <Gold.Chemscore.Internal.Correction>
   9.000000E+99

> <Gold.Chemscore.Hbonds>
donor molecule, donor type, donor heavy atom, donor atom, acceptor molecule, acceptor atom, score
      L1  H     9    34       P1  7948  0.92
      L1  H    12    35       P1  7948  0.98
      L1  H    16    51       P1 10186  0.48

> <Gold.Chemscore.Hbond.Weighted>
-8.7066

> <Gold.Chemscore.Metal.Weighted>
-0.0000

> <Gold.Chemscore.Lipo.Weighted>
-11.2593

> <Gold.Chemscore.Internal_Hbond.Weighted>
0.0000

> <Gold.Chemscore.DEClash.Weighted>
0.4547

> <Gold.Chemscore.DEInternal.Weighted>
1.9136

> <Gold.Chemscore.Rot.Weighted>
3.3809

> <Gold.Chemscore.Internal.Correction.Weighted>
   9.000000E+99

> <Gold.Protein.RotatedTorsions>
[ 6907 6896 6895 6894 ] final  -46.93 input  -60.11 | X-H torsion
[ 7974 7965 7964 7962 ] final  136.20 input  175.53 | X-H torsion
[ 8008 7997 7996 7995 ] final  114.61 input   59.86 | X-H torsion
[ 10167 10162 10161 10158 ] final   26.90 input  -65.29 | X-H torsion
[ 10718 10713 10712 10709 ] final  138.20 input   66.30 | X-H torsion
[ 10763 10752 10751 10750 ] final  -68.40 input  -60.55 | X-H torsion
[ 11005 11000 10999 10996 ] final  132.66 input  -57.11 | X-H torsion

> <Gold.Protein.ActiveResidues>
 VAL166  LYS551  ARG553  GLY616  TRP617  ASP618  TYR619  PRO620  LYS621  CYS622 
 ASP623  PHE694  ASN695  SER759  ASP760  ASP761  ALA762  ILE779  LEU786  VAL792 
 PHE793  MET794  SER795  GLU796  ALA797  LYS798  CYS799  TRP800  GLU811  SER814 

> <Gold.Protein.RotatedAtoms>
  150.9061  134.8475  159.7392 H   0  0  0  0  0  0  0  0  0  0  0  0  # atno 6907 bound_to 6896
  152.4919  134.4430  159.9559 H   0  0  0  0  0  0  0  0  0  0  0  0  # atno 6908 bound_to 6896
  151.4477  133.3587  159.2826 H   0  0  0  0  0  0  0  0  0  0  0  0  # atno 6909 bound_to 6896
  144.9588  139.4734  143.5490 H   0  0  0  0  0  0  0  0  0  0  0  0  # atno 7974 bound_to 7965
  156.2332  140.2955  156.0242 H   0  0  0  0  0  0  0  0  0  0  0  0  # atno 8008 bound_to 7997
  155.2167  140.0414  157.2959 H   0  0  0  0  0  0  0  0  0  0  0  0  # atno 8009 bound_to 7997
  154.6031  140.2432  155.7773 H   0  0  0  0  0  0  0  0  0  0  0  0  # atno 8010 bound_to 7997
  140.4983  144.0355  150.6323 H   0  0  0  0  0  0  0  0  0  0  0  0  # atno 10167 bound_to 10162
  157.4278  131.1045  151.0283 H   0  0  0  0  0  0  0  0  0  0  0  0  # atno 10718 bound_to 10713
  154.3884  135.6058  153.5829 H   0  0  0  0  0  0  0  0  0  0  0  0  # atno 10763 bound_to 10752
  152.9787  135.5878  154.4327 H   0  0  0  0  0  0  0  0  0  0  0  0  # atno 10764 bound_to 10752
  154.4107  135.2844  155.2016 H   0  0  0  0  0  0  0  0  0  0  0  0  # atno 10765 bound_to 10752
  139.9803  134.9550  156.9613 H   0  0  0  0  0  0  0  0  0  0  0  0  # atno 11005 bound_to 11000
  146.3346  139.8723  142.8838 LP  0  0  0  0  0  0  0  0  0  0  0  0  # atno 17320 bound_to 7965
  145.2732  141.0115  143.3760 LP  0  0  0  0  0  0  0  0  0  0  0  0  # atno 17321 bound_to 7965
  140.3644  143.2889  152.0348 LP  0  0  0  0  0  0  0  0  0  0  0  0  # atno 17342 bound_to 10162
  139.4866  144.6278  151.7130 LP  0  0  0  0  0  0  0  0  0  0  0  0  # atno 17343 bound_to 10162
  157.1190  130.6053  149.5500 LP  0  0  0  0  0  0  0  0  0  0  0  0  # atno 17370 bound_to 10713
  155.9903  130.4953  150.7249 LP  0  0  0  0  0  0  0  0  0  0  0  0  # atno 17371 bound_to 10713
  140.5109  134.1003  155.7270 LP  0  0  0  0  0  0  0  0  0  0  0  0  # atno 17394 bound_to 11000
  141.1476  133.9027  157.2177 LP  0  0  0  0  0  0  0  0  0  0  0  0  # atno 17395 bound_to 11000

$$$$
