AV-unprocessed.smi:1061|AV-procd|sdf|4660|dock3
  -GOLD-   22720 3173D 1   1.00000     0.00000
 Structure written by MMmdl.
 50 52  0  0  0  0  0  0  0  0  1 V2000
  146.5944  139.3561  153.9897 O   0  0  0  0  0  0  0  0  0  0  0  0
  147.3995  138.6601  153.3714 C   0  0  0  0  0  0  0  0  0  0  0  0
  147.0424  137.8032  152.4041 N   0  0  0  0  0  0  0  0  0  0  0  0
  145.6722  137.5633  151.9638 C   0  0  0  0  0  0  0  0  0  0  0  0
  145.5636  136.2766  151.1202 C   0  0  0  0  0  0  0  0  0  0  0  0
  144.4097  135.3543  151.5479 C   0  0  0  0  0  0  0  0  0  0  0  0
  143.4653  135.8125  152.1928 O   0  0  0  0  0  0  0  0  0  0  0  0
  144.4699  134.0533  151.1945 N   0  0  0  0  0  0  0  0  0  0  0  0
  143.4533  133.0416  151.4819 C   0  0  0  0  0  0  0  0  0  0  0  0
  143.8566  131.8092  150.6714 C   0  0  0  0  0  0  0  0  0  0  0  0
  145.3615  131.9554  150.4949 C   0  0  0  0  0  0  0  0  0  0  0  0
  145.5867  133.4672  150.4559 C   0  0  0  0  0  0  0  0  0  0  0  0
  148.7317  138.6621  153.5507 N   0  0  0  0  0  0  0  0  0  0  0  0
  149.5079  139.4232  154.4672 C   0  0  0  0  0  0  0  0  0  0  0  0
  150.8217  139.0941  154.8749 C   0  0  0  0  0  0  0  0  0  0  0  0
  151.4875  139.9412  155.7814 C   0  0  0  0  0  0  0  0  0  0  0  0
  150.8319  141.1009  156.2574 C   0  0  0  0  0  0  0  0  0  0  0  0
  151.4817  141.9610  157.1695 N   0  0  0  0  0  0  0  0  0  0  0  0
  151.8927  141.3510  158.4318 C   0  0  0  0  0  0  0  0  0  0  0  0
  152.8468  142.2867  159.1942 C   0  0  0  0  0  0  0  0  0  0  0  0
  152.2358  143.5602  159.3700 O   0  0  0  0  0  0  0  0  0  0  0  0
  151.9468  144.1849  158.1238 C   0  0  0  0  0  0  0  0  0  0  0  0
  150.9593  143.3174  157.3249 C   0  0  0  0  0  0  0  0  0  0  0  0
  149.5799  141.4231  155.8490 N   0  0  0  0  0  0  0  0  0  0  0  0
  148.9448  140.6079  154.9815 C   0  0  0  0  0  0  0  0  0  0  0  0
  147.7682  137.2745  151.9425 H   0  0  0  0  0  0  0  0  0  0  0  0
  145.0458  137.4834  152.8530 H   0  0  0  0  0  0  0  0  0  0  0  0
  145.3096  138.4274  151.4036 H   0  0  0  0  0  0  0  0  0  0  0  0
  145.4226  136.5442  150.0724 H   0  0  0  0  0  0  0  0  0  0  0  0
  146.4985  135.7186  151.1839 H   0  0  0  0  0  0  0  0  0  0  0  0
  143.4670  132.8151  152.5490 H   0  0  0  0  0  0  0  0  0  0  0  0
  142.4492  133.3736  151.2156 H   0  0  0  0  0  0  0  0  0  0  0  0
  143.5749  130.8735  151.1554 H   0  0  0  0  0  0  0  0  0  0  0  0
  143.3721  131.8393  149.6943 H   0  0  0  0  0  0  0  0  0  0  0  0
  145.8729  131.5313  151.3601 H   0  0  0  0  0  0  0  0  0  0  0  0
  145.7351  131.4488  149.6047 H   0  0  0  0  0  0  0  0  0  0  0  0
  145.5632  133.8315  149.4278 H   0  0  0  0  0  0  0  0  0  0  0  0
  146.5515  133.7349  150.8892 H   0  0  0  0  0  0  0  0  0  0  0  0
  149.2623  138.0808  152.9186 H   0  0  0  0  0  0  0  0  0  0  0  0
  151.3407  138.2244  154.5044 H   0  0  0  0  0  0  0  0  0  0  0  0
  152.4956  139.7015  156.0845 H   0  0  0  0  0  0  0  0  0  0  0  0
  151.0035  141.1556  159.0327 H   0  0  0  0  0  0  0  0  0  0  0  0
  152.3868  140.3930  158.2767 H   0  0  0  0  0  0  0  0  0  0  0  0
  153.0795  141.8677  160.1733 H   0  0  0  0  0  0  0  0  0  0  0  0
  153.7931  142.3947  158.6613 H   0  0  0  0  0  0  0  0  0  0  0  0
  151.5148  145.1680  158.3114 H   0  0  0  0  0  0  0  0  0  0  0  0
  152.8683  144.3436  157.5613 H   0  0  0  0  0  0  0  0  0  0  0  0
  150.7901  143.7717  156.3479 H   0  0  0  0  0  0  0  0  0  0  0  0
  149.9975  143.2774  157.8380 H   0  0  0  0  0  0  0  0  0  0  0  0
  147.9500  140.9131  154.6911 H   0  0  0  0  0  0  0  0  0  0  0  0
  1  2  2  0  0  0  0
  2  3  1  0  0  0  0
  2 13  1  0  0  0  0
  3  4  1  0  0  0  0
  3 26  1  0  0  0  0
  4  5  1  0  0  0  0
  4 27  1  0  0  0  0
  4 28  1  0  0  0  0
  5  6  1  0  0  0  0
  5 29  1  0  0  0  0
  5 30  1  0  0  0  0
  6  7  2  0  0  0  0
  6  8  1  0  0  0  0
  8 12  1  0  0  0  0
  8  9  1  0  0  0  0
  9 10  1  0  0  0  0
  9 31  1  0  0  0  0
  9 32  1  0  0  0  0
 10 11  1  0  0  0  0
 10 33  1  0  0  0  0
 10 34  1  0  0  0  0
 11 12  1  0  0  0  0
 11 35  1  0  0  0  0
 11 36  1  0  0  0  0
 12 37  1  0  0  0  0
 12 38  1  0  0  0  0
 13 14  1  0  0  0  0
 13 39  1  0  0  0  0
 14 25  1  0  0  0  0
 14 15  2  0  0  0  0
 15 16  1  0  0  0  0
 15 40  1  0  0  0  0
 16 17  2  0  0  0  0
 16 41  1  0  0  0  0
 17 18  1  0  0  0  0
 17 24  1  0  0  0  0
 18 23  1  0  0  0  0
 18 19  1  0  0  0  0
 19 20  1  0  0  0  0
 19 42  1  0  0  0  0
 19 43  1  0  0  0  0
 20 21  1  0  0  0  0
 20 44  1  0  0  0  0
 20 45  1  0  0  0  0
 21 22  1  0  0  0  0
 22 23  1  0  0  0  0
 22 46  1  0  0  0  0
 22 47  1  0  0  0  0
 23 48  1  0  0  0  0
 23 49  1  0  0  0  0
 24 25  2  0  0  0  0
 25 50  1  0  0  0  0
M  END
> <s_m_source_file>
AV-unprocessed.smi

> <i_m_source_file_index>
1061

> <i_lp_mmshare_version>
43012

> <i_f3d_flags>
0

> <s_epik_input>
W0NIMl0xW0NIMl1bQ0gyXVtDSDJdTjFDKD1PKVtDSDJdW0NIMl1bTkhdQyg9TylbTkhdYzJbY0hdW2NIXWMobltjSF0yKU4zW0NIMl1bQ0gyXU9bQ0gyXVtDSDJdMw==

> <s_epik_cmdline>
J2VwaWtfcHl0aG9uJywgJy1waCcsICc3LjAnLCAnLXRuJywgJzgnLCAnLW1hJywgJzIwMCcsICctbWV0YWxfYmluZGluZycsICctaW1hZScsICc8aW5maWxlLm1hZT4nLCAnLW9tYWUnLCAnPG91dGZpbGUubWFlPic=

> <r_lp_tautomer_probability>
1

> <r_epik_Ionization_Penalty>
0.00191188

> <r_epik_Ionization_Penalty_Charging>
0

> <r_epik_Ionization_Penalty_Neutral>
0.00191188

> <r_epik_State_Penalty>
0.00127902

> <r_epik_Charging_Adjusted_Penalty>
0.00127902

> <i_epik_Tot_Q>
0

> <i_epik_Tot_abs_Q>
0

> <r_epik_Metal_State_Penalty>
-0

> <b_epik_Metal_Only>
0

> <s_lp_Force_Field>
OPLS_2005

> <r_lp_Energy>
44.4165

> <b_lp_Chiralities_Consistent>
1

> <s_lp_Variant>
AV-unprocessed.smi:1061-1

> <Gold.Version>
5.8.1

> <Gold.Id.Protein>
6NUR|6NUR_protein|mol2

> <Gold.PLP.Fitness>
52.3589

> <Gold.PLP.PLP>
-49.4905

> <Gold.PLP.part.hbond>
-2.7793

> <Gold.PLP.part.metal>
0.0000

> <Gold.PLP.part.buried>
-0.8576

> <Gold.PLP.part.nonpolar>
-47.5756

> <Gold.PLP.part.repulsive>
0.6280

> <Gold.PLP.ligand.clash>
0.0000

> <Gold.PLP.ligand.torsion>
1.0662

> <Gold.PLP.Chemscore.Hbond>
1.5405

> <Gold.PLP.Chemscore.CHOScore>
0.0000

> <Gold.PLP.Chemscore.Metal>
0.0000

> <Gold.Chemscore.Hbonds>
donor molecule, donor type, donor heavy atom, donor atom, acceptor molecule, acceptor atom, score
      L1  H     3    26       P1  7948  1.00
      L1  H    13    39       P1  7948  0.60

> <Gold.PLP.Chemscore.Internal.Correction>
0.3793

> <Gold.Rescore>
     Score         DG    S(hbond)    S(metal)    S(lipo)     H(rot)  DE(clash)    DE(int)     intcor
     17.02     -19.97       1.54        0.00     117.25       1.71       0.54       2.41       ----

> <Gold.Chemscore.Fitness>
17.0237

> <Gold.Chemscore.DG>
-19.9722

> <Gold.Chemscore.ZeroCoef>
-5.4800

> <Gold.Chemscore.Hbond>
1.5446

> <Gold.Chemscore.Metal>
0.0000

> <Gold.Chemscore.Lipo>
117.2507

> <Gold.Chemscore.Internal_Hbond>
0.0000

> <Gold.Chemscore.DEClash>
0.5377

> <Gold.Chemscore.DEInternal>
2.4109

> <Gold.Chemscore.Rot>
1.7129

> <Gold.Chemscore.Internal.Correction>
   9.000000E+99

> <Gold.Chemscore.Hbonds>
donor molecule, donor type, donor heavy atom, donor atom, acceptor molecule, acceptor atom, score
      L1  H     3    26       P1  7948  0.95
      L1  H    13    39       P1  7948  0.56

> <Gold.Chemscore.Hbond.Weighted>
-5.1589

> <Gold.Chemscore.Metal.Weighted>
-0.0000

> <Gold.Chemscore.Lipo.Weighted>
-13.7183

> <Gold.Chemscore.Internal_Hbond.Weighted>
0.0000

> <Gold.Chemscore.DEClash.Weighted>
0.5377

> <Gold.Chemscore.DEInternal.Weighted>
2.4109

> <Gold.Chemscore.Rot.Weighted>
4.3849

> <Gold.Chemscore.Internal.Correction.Weighted>
   9.000000E+99

> <Gold.Protein.RotatedTorsions>
[ 6907 6896 6895 6894 ] final   65.31 input  -60.11 | X-H torsion
[ 7974 7965 7964 7962 ] final -147.78 input  175.53 | X-H torsion
[ 8008 7997 7996 7995 ] final -108.34 input   59.86 | X-H torsion
[ 10167 10162 10161 10158 ] final  143.53 input  -65.29 | X-H torsion
[ 10718 10713 10712 10709 ] final   94.59 input   66.30 | X-H torsion
[ 10763 10752 10751 10750 ] final  -88.26 input  -60.55 | X-H torsion
[ 11005 11000 10999 10996 ] final  152.57 input  -57.11 | X-H torsion

> <Gold.Protein.ActiveResidues>
 VAL166  LYS551  ARG553  GLY616  TRP617  ASP618  TYR619  PRO620  LYS621  CYS622 
 ASP623  PHE694  ASN695  SER759  ASP760  ASP761  ALA762  ILE779  LEU786  VAL792 
 PHE793  MET794  SER795  GLU796  ALA797  LYS798  CYS799  TRP800  GLU811  SER814 

> <Gold.Protein.RotatedAtoms>
  152.4398  134.5614  159.9894 H   0  0  0  0  0  0  0  0  0  0  0  0  # atno 6907 bound_to 6896
  151.5714  133.3384  159.2998 H   0  0  0  0  0  0  0  0  0  0  0  0  # atno 6908 bound_to 6896
  150.8302  134.7586  159.6911 H   0  0  0  0  0  0  0  0  0  0  0  0  # atno 6909 bound_to 6896
  144.8071  140.5282  143.5667 H   0  0  0  0  0  0  0  0  0  0  0  0  # atno 7974 bound_to 7965
  154.9429  140.0402  157.2105 H   0  0  0  0  0  0  0  0  0  0  0  0  # atno 8008 bound_to 7997
  154.8052  140.2858  155.5871 H   0  0  0  0  0  0  0  0  0  0  0  0  # atno 8009 bound_to 7997
  156.2966  140.2547  156.2929 H   0  0  0  0  0  0  0  0  0  0  0  0  # atno 8010 bound_to 7997
  139.4967  144.6034  151.6432 H   0  0  0  0  0  0  0  0  0  0  0  0  # atno 10167 bound_to 10162
  157.6946  131.0517  150.4210 H   0  0  0  0  0  0  0  0  0  0  0  0  # atno 10718 bound_to 10713
  154.6426  135.5383  153.7807 H   0  0  0  0  0  0  0  0  0  0  0  0  # atno 10763 bound_to 10752
  153.0342  135.6463  154.1137 H   0  0  0  0  0  0  0  0  0  0  0  0  # atno 10764 bound_to 10752
  154.1060  135.2930  155.3221 H   0  0  0  0  0  0  0  0  0  0  0  0  # atno 10765 bound_to 10752
  140.1319  134.8796  157.2215 H   0  0  0  0  0  0  0  0  0  0  0  0  # atno 11005 bound_to 11000
  145.5411  139.1475  143.3446 LP  0  0  0  0  0  0  0  0  0  0  0  0  # atno 17320 bound_to 7965
  146.2364  140.5551  142.8953 LP  0  0  0  0  0  0  0  0  0  0  0  0  # atno 17321 bound_to 7965
  140.5689  144.0142  150.6206 LP  0  0  0  0  0  0  0  0  0  0  0  0  # atno 17342 bound_to 10162
  140.3253  143.3111  152.0742 LP  0  0  0  0  0  0  0  0  0  0  0  0  # atno 17343 bound_to 10162
  156.4585  130.4027  149.6591 LP  0  0  0  0  0  0  0  0  0  0  0  0  # atno 17370 bound_to 10713
  156.3715  130.7533  151.2516 LP  0  0  0  0  0  0  0  0  0  0  0  0  # atno 17371 bound_to 10713
  140.2831  134.3327  155.7337 LP  0  0  0  0  0  0  0  0  0  0  0  0  # atno 17394 bound_to 11000
  141.2172  133.7490  156.9393 LP  0  0  0  0  0  0  0  0  0  0  0  0  # atno 17395 bound_to 11000

$$$$
