AV-unprocessed.smi:1940|AV-procd|sdf|7837|dock2
  -GOLD-   22720 9583D 1   1.00000     0.00000
 Structure written by MMmdl.
 49 51  0  0  0  0  0  0  0  0  1 V2000
  144.2912  136.9095  152.7186 C   0  0  0  0  0  0  0  0  0  0  0  0
  145.3418  135.7910  152.8001 C   0  0  2  0  0  0  0  0  0  0  0  0
  146.6532  136.3920  153.0383 N   0  0  0  0  0  0  0  0  0  0  0  0
  146.9528  137.2601  154.0153 C   0  0  0  0  0  0  0  0  0  0  0  0
  146.1335  137.6763  154.8340 O   0  0  0  0  0  0  0  0  0  0  0  0
  148.2470  137.6200  153.9620 N   0  0  0  0  0  0  0  0  0  0  0  0
  148.9507  138.5147  154.8130 C   0  0  0  0  0  0  0  0  0  0  0  0
  148.6058  138.7670  156.1622 C   0  0  0  0  0  0  0  0  0  0  0  0
  149.3894  139.6681  156.9078 C   0  0  0  0  0  0  0  0  0  0  0  0
  150.4969  140.2816  156.2878 C   0  0  0  0  0  0  0  0  0  0  0  0
  151.2734  141.1874  157.0242 N   0  0  0  0  0  0  0  0  0  0  0  0
  151.8242  140.6094  158.2475 C   0  0  0  0  0  0  0  0  0  0  0  0
  152.8417  141.5663  158.8927 C   0  0  0  0  0  0  0  0  0  0  0  0
  152.2211  142.9534  159.1261 C   0  0  0  0  0  0  0  0  0  0  0  0
  151.6260  143.4976  157.8171 C   0  0  0  0  0  0  0  0  0  0  0  0
  150.6382  142.4907  157.2026 C   0  0  0  0  0  0  0  0  0  0  0  0
  150.8437  140.0329  155.0028 N   0  0  0  0  0  0  0  0  0  0  0  0
  150.0880  139.1676  154.2937 C   0  0  0  0  0  0  0  0  0  0  0  0
  145.3955  134.9351  151.5190 C   0  0  2  0  0  0  0  0  0  0  0  0
  144.1237  134.1334  151.2344 C   0  0  0  0  0  0  0  0  0  0  0  0
  144.6548  133.0040  150.3825 C   0  0  0  0  0  0  0  0  0  0  0  0
  145.9936  132.7150  151.0530 C   0  0  0  0  0  0  0  0  0  0  0  0
  146.4237  133.9501  151.6199 O   0  0  0  0  0  0  0  0  0  0  0  0
  143.2866  136.5034  152.5994 H   0  0  0  0  0  0  0  0  0  0  0  0
  144.4835  137.5757  151.8768 H   0  0  0  0  0  0  0  0  0  0  0  0
  144.2902  137.5123  153.6274 H   0  0  0  0  0  0  0  0  0  0  0  0
  145.0683  135.1393  153.6319 H   0  0  0  0  0  0  0  0  0  0  0  0
  147.3952  136.1121  152.4140 H   0  0  0  0  0  0  0  0  0  0  0  0
  148.7771  137.2564  153.1836 H   0  0  0  0  0  0  0  0  0  0  0  0
  147.7700  138.2828  156.6426 H   0  0  0  0  0  0  0  0  0  0  0  0
  149.1442  139.8801  157.9384 H   0  0  0  0  0  0  0  0  0  0  0  0
  151.0140  140.4036  158.9487 H   0  0  0  0  0  0  0  0  0  0  0  0
  152.3025  139.6553  158.0221 H   0  0  0  0  0  0  0  0  0  0  0  0
  153.1993  141.1512  159.8353 H   0  0  0  0  0  0  0  0  0  0  0  0
  153.7143  141.6613  158.2448 H   0  0  0  0  0  0  0  0  0  0  0  0
  151.4386  142.8823  159.8826 H   0  0  0  0  0  0  0  0  0  0  0  0
  152.9714  143.6422  159.5152 H   0  0  0  0  0  0  0  0  0  0  0  0
  151.1261  144.4492  157.9987 H   0  0  0  0  0  0  0  0  0  0  0  0
  152.4294  143.6997  157.1075 H   0  0  0  0  0  0  0  0  0  0  0  0
  150.2795  142.8611  156.2413 H   0  0  0  0  0  0  0  0  0  0  0  0
  149.7669  142.3858  157.8509 H   0  0  0  0  0  0  0  0  0  0  0  0
  150.3994  138.9971  153.2734 H   0  0  0  0  0  0  0  0  0  0  0  0
  145.6219  135.5612  150.6540 H   0  0  0  0  0  0  0  0  0  0  0  0
  143.7027  133.7346  152.1587 H   0  0  0  0  0  0  0  0  0  0  0  0
  143.3534  134.7191  150.7319 H   0  0  0  0  0  0  0  0  0  0  0  0
  143.9949  132.1365  150.3564 H   0  0  0  0  0  0  0  0  0  0  0  0
  144.8108  133.3479  149.3591 H   0  0  0  0  0  0  0  0  0  0  0  0
  145.8678  131.9910  151.8590 H   0  0  0  0  0  0  0  0  0  0  0  0
  146.7304  132.3190  150.3540 H   0  0  0  0  0  0  0  0  0  0  0  0
  1  2  1  0  0  0  0
  1 24  1  0  0  0  0
  1 25  1  0  0  0  0
  1 26  1  0  0  0  0
  2  3  1  0  0  0  0
  2 19  1  0  0  0  0
  2 27  1  0  0  0  0
  3  4  1  0  0  0  0
  3 28  1  0  0  0  0
  4  5  2  0  0  0  0
  4  6  1  0  0  0  0
  6  7  1  0  0  0  0
  6 29  1  0  0  0  0
  7 18  1  0  0  0  0
  7  8  2  0  0  0  0
  8  9  1  0  0  0  0
  8 30  1  0  0  0  0
  9 10  2  0  0  0  0
  9 31  1  0  0  0  0
 10 11  1  0  0  0  0
 10 17  1  0  0  0  0
 11 16  1  0  0  0  0
 11 12  1  0  0  0  0
 12 13  1  0  0  0  0
 12 32  1  0  0  0  0
 12 33  1  0  0  0  0
 13 14  1  0  0  0  0
 13 34  1  0  0  0  0
 13 35  1  0  0  0  0
 14 15  1  0  0  0  0
 14 36  1  0  0  0  0
 14 37  1  0  0  0  0
 15 16  1  0  0  0  0
 15 38  1  0  0  0  0
 15 39  1  0  0  0  0
 16 40  1  0  0  0  0
 16 41  1  0  0  0  0
 17 18  2  0  0  0  0
 18 42  1  0  0  0  0
 19 23  1  0  0  0  0
 19 20  1  0  0  0  0
 19 43  1  0  0  0  0
 20 21  1  0  0  0  0
 20 44  1  0  0  0  0
 20 45  1  0  0  0  0
 21 22  1  0  0  0  0
 21 46  1  0  0  0  0
 21 47  1  0  0  0  0
 22 23  1  0  0  0  0
 22 48  1  0  0  0  0
 22 49  1  0  0  0  0
M  END
> <s_m_source_file>
AV-unprocessed.smi

> <i_m_source_file_index>
1940

> <i_lp_mmshare_version>
43012

> <i_f3d_flags>
0

> <s_epik_input>
TzFbQ0gyXVtDSDJdW0NIMl1bQ0BIXTFbQ0BIXShbQ0gzXSlbTkhdQyg9TylbTkhdYzJbY0hdW2NIXWMobltjSF0yKU4zW0NIMl1bQ0gyXVtDSDJdW0NIMl1bQ0gyXTM=

> <s_epik_cmdline>
J2VwaWtfcHl0aG9uJywgJy1waCcsICc3LjAnLCAnLXRuJywgJzgnLCAnLW1hJywgJzIwMCcsICctbWV0YWxfYmluZGluZycsICctaW1hZScsICc8aW5maWxlLm1hZT4nLCAnLW9tYWUnLCAnPG91dGZpbGUubWFlPic=

> <r_lp_tautomer_probability>
1

> <r_epik_Ionization_Penalty>
0.105688

> <r_epik_Ionization_Penalty_Charging>
0

> <r_epik_Ionization_Penalty_Neutral>
0.105688

> <r_epik_State_Penalty>
0.0895745

> <r_epik_Charging_Adjusted_Penalty>
0.0895745

> <i_epik_Tot_Q>
0

> <i_epik_Tot_abs_Q>
0

> <r_epik_Metal_State_Penalty>
0.0765749

> <b_epik_Metal_Only>
0

> <s_lp_Force_Field>
OPLS_2005

> <r_lp_Energy>
35.6484

> <b_lp_Chiralities_Consistent>
1

> <s_lp_Variant>
AV-unprocessed.smi:1940-1

> <Gold.Version>
5.8.1

> <Gold.Id.Protein>
6NUR|6NUR_protein|mol2

> <Gold.PLP.Fitness>
45.4154

> <Gold.PLP.PLP>
-34.6586

> <Gold.PLP.part.hbond>
-3.0000

> <Gold.PLP.part.metal>
0.0000

> <Gold.PLP.part.buried>
-4.8936

> <Gold.PLP.part.nonpolar>
-27.9095

> <Gold.PLP.part.repulsive>
0.3369

> <Gold.PLP.ligand.clash>
0.0000

> <Gold.PLP.ligand.torsion>
0.4164

> <Gold.PLP.Chemscore.Hbond>
2.8000

> <Gold.PLP.Chemscore.CHOScore>
1.0000

> <Gold.PLP.Chemscore.Metal>
0.0000

> <Gold.Chemscore.Hbonds>
donor molecule, donor type, donor heavy atom, donor atom, acceptor molecule, acceptor atom, score
      L1  H     3    28       P1  7948  1.00
      L1  H     6    29       P1  7948  1.00
      P1  H  7989  7998       L1    17  0.80
      L1  C    18    42       P1  7957  1.00

> <Gold.PLP.Chemscore.Internal.Correction>
0.1896

> <Gold.Rescore>
     Score         DG    S(hbond)    S(metal)    S(lipo)     H(rot)  DE(clash)    DE(int)     intcor
     18.65     -20.03       2.19        0.00      91.24       1.34       0.04       1.34       ----

> <Gold.Chemscore.Fitness>
18.6486

> <Gold.Chemscore.DG>
-20.0337

> <Gold.Chemscore.ZeroCoef>
-5.4800

> <Gold.Chemscore.Hbond>
2.1852

> <Gold.Chemscore.Metal>
0.0000

> <Gold.Chemscore.Lipo>
91.2387

> <Gold.Chemscore.Internal_Hbond>
0.0000

> <Gold.Chemscore.DEClash>
0.0430

> <Gold.Chemscore.DEInternal>
1.3422

> <Gold.Chemscore.Rot>
1.3359

> <Gold.Chemscore.Internal.Correction>
   9.000000E+99

> <Gold.Chemscore.Hbonds>
donor molecule, donor type, donor heavy atom, donor atom, acceptor molecule, acceptor atom, score
      L1  H     3    28       P1  7948  0.97
      L1  H     6    29       P1  7948  0.97
      P1  H  7989  7998       L1    17  0.12

> <Gold.Chemscore.Hbond.Weighted>
-7.2987

> <Gold.Chemscore.Metal.Weighted>
-0.0000

> <Gold.Chemscore.Lipo.Weighted>
-10.6749

> <Gold.Chemscore.Internal_Hbond.Weighted>
0.0000

> <Gold.Chemscore.DEClash.Weighted>
0.0430

> <Gold.Chemscore.DEInternal.Weighted>
1.3422

> <Gold.Chemscore.Rot.Weighted>
3.4199

> <Gold.Chemscore.Internal.Correction.Weighted>
   9.000000E+99

> <Gold.Protein.RotatedTorsions>
[ 6907 6896 6895 6894 ] final  170.25 input  -60.11 | X-H torsion
[ 7974 7965 7964 7962 ] final -176.52 input  175.53 | X-H torsion
[ 8008 7997 7996 7995 ] final -120.42 input   59.86 | X-H torsion
[ 10167 10162 10161 10158 ] final -108.02 input  -65.29 | X-H torsion
[ 10718 10713 10712 10709 ] final  154.83 input   66.30 | X-H torsion
[ 10763 10752 10751 10750 ] final  -46.47 input  -60.55 | X-H torsion
[ 11005 11000 10999 10996 ] final -155.00 input  -57.11 | X-H torsion

> <Gold.Protein.ActiveResidues>
 VAL166  LYS551  ARG553  GLY616  TRP617  ASP618  TYR619  PRO620  LYS621  CYS622 
 ASP623  PHE694  ASN695  SER759  ASP760  ASP761  ALA762  ILE779  LEU786  VAL792 
 PHE793  MET794  SER795  GLU796  ALA797  LYS798  CYS799  TRP800  GLU811  SER814 

> <Gold.Protein.RotatedAtoms>
  151.8190  133.3392  159.3578 H   0  0  0  0  0  0  0  0  0  0  0  0  # atno 6907 bound_to 6896
  150.7301  134.5591  159.5842 H   0  0  0  0  0  0  0  0  0  0  0  0  # atno 6908 bound_to 6896
  152.3019  134.7601  160.0407 H   0  0  0  0  0  0  0  0  0  0  0  0  # atno 6909 bound_to 6896
  144.7127  140.1157  143.6408 H   0  0  0  0  0  0  0  0  0  0  0  0  # atno 7974 bound_to 7965
  155.1315  140.0400  157.2776 H   0  0  0  0  0  0  0  0  0  0  0  0  # atno 8008 bound_to 7997
  154.6539  140.2575  155.7157 H   0  0  0  0  0  0  0  0  0  0  0  0  # atno 8009 bound_to 7997
  156.2589  140.2830  156.0984 H   0  0  0  0  0  0  0  0  0  0  0  0  # atno 8010 bound_to 7997
  140.1707  143.4045  152.1357 H   0  0  0  0  0  0  0  0  0  0  0  0  # atno 10167 bound_to 10162
  157.2265  131.0730  151.1880 H   0  0  0  0  0  0  0  0  0  0  0  0  # atno 10718 bound_to 10713
  154.0455  135.6638  153.4794 H   0  0  0  0  0  0  0  0  0  0  0  0  # atno 10763 bound_to 10752
  153.0484  135.5100  154.7801 H   0  0  0  0  0  0  0  0  0  0  0  0  # atno 10764 bound_to 10752
  154.6791  135.3042  154.9604 H   0  0  0  0  0  0  0  0  0  0  0  0  # atno 10765 bound_to 10752
  140.6912  134.4039  157.5219 H   0  0  0  0  0  0  0  0  0  0  0  0  # atno 11005 bound_to 11000
  145.9415  139.2672  143.1266 LP  0  0  0  0  0  0  0  0  0  0  0  0  # atno 17320 bound_to 7965
  145.9418  140.8974  143.0303 LP  0  0  0  0  0  0  0  0  0  0  0  0  # atno 17321 bound_to 7965
  139.5339  144.7189  151.4959 LP  0  0  0  0  0  0  0  0  0  0  0  0  # atno 17342 bound_to 10162
  140.6584  143.8551  150.6860 LP  0  0  0  0  0  0  0  0  0  0  0  0  # atno 17343 bound_to 10162
  157.3522  130.7088  149.6448 LP  0  0  0  0  0  0  0  0  0  0  0  0  # atno 17370 bound_to 10713
  155.9678  130.4249  150.4630 LP  0  0  0  0  0  0  0  0  0  0  0  0  # atno 17371 bound_to 10713
  139.8923  134.8758  156.2278 LP  0  0  0  0  0  0  0  0  0  0  0  0  # atno 17394 bound_to 11000
  141.0240  133.7025  156.1316 LP  0  0  0  0  0  0  0  0  0  0  0  0  # atno 17395 bound_to 11000

$$$$
