AV-unprocessed.smi:536|AV-procd|sdf|2862|dock6
  -GOLD-   2262023353D 1   1.00000     0.00000
 Structure written by MMmdl.
 46 48  0  0  0  0  0  0  0  0  1 V2000
  150.7744  137.9989  158.9853 C   0  0  0  0  0  0  0  0  0  0  0  0
  150.5724  137.7794  157.6010 O   0  0  0  0  0  0  0  0  0  0  0  0
  151.7668  137.9041  156.8475 C   0  0  0  0  0  0  0  0  0  0  0  0
  152.0740  139.3849  156.5722 C   0  0  0  0  0  0  0  0  0  0  0  0
  150.8830  140.1259  156.1705 N   0  0  0  0  0  0  0  0  0  0  0  0
  150.3785  141.2565  156.7278 C   0  0  0  0  0  0  0  0  0  0  0  0
  151.0292  141.8956  157.7794 N   0  0  0  0  0  0  0  0  0  0  0  0
  150.9255  143.3391  157.9748 C   0  0  0  0  0  0  0  0  0  0  0  0
  152.2519  144.0490  158.3048 C   0  0  0  0  0  0  0  0  0  0  0  0
  152.6928  143.8432  159.7620 C   0  0  0  0  0  0  0  0  0  0  0  0
  153.4440  142.5289  160.0332 C   0  0  0  0  0  0  0  0  0  0  0  0
  153.0134  141.3229  159.1820 C   0  0  0  0  0  0  0  0  0  0  0  0
  151.4966  141.1858  158.9672 C   0  0  0  0  0  0  0  0  0  0  0  0
  149.2497  141.7042  156.1724 N   0  0  0  0  0  0  0  0  0  0  0  0
  149.0229  140.7836  155.1598 C   0  0  0  0  0  0  0  0  0  0  0  0
  149.9955  139.8373  155.1332 C   0  0  0  0  0  0  0  0  0  0  0  0
  150.0084  138.7503  154.1456 C   0  0  0  0  0  0  0  0  0  0  0  0
  150.8870  137.8928  154.0897 O   0  0  0  0  0  0  0  0  0  0  0  0
  148.9533  138.7938  153.2960 N   0  0  0  0  0  0  0  0  0  0  0  0
  147.9398  139.7129  153.2722 C   0  0  0  0  0  0  0  0  0  0  0  0
  147.0478  139.6142  152.4300 O   0  0  0  0  0  0  0  0  0  0  0  0
  147.9705  140.7196  154.2053 N   0  0  0  0  0  0  0  0  0  0  0  0
  146.9397  141.7582  154.2603 C   0  0  0  0  0  0  0  0  0  0  0  0
  148.9125  138.0662  152.5972 H   0  0  0  0  0  0  0  0  0  0  0  0
  149.8286  137.8844  159.5148 H   0  0  0  0  0  0  0  0  0  0  0  0
  151.1465  139.0066  159.1749 H   0  0  0  0  0  0  0  0  0  0  0  0
  151.4817  137.2797  159.3999 H   0  0  0  0  0  0  0  0  0  0  0  0
  152.5887  137.4475  157.3991 H   0  0  0  0  0  0  0  0  0  0  0  0
  151.6687  137.3673  155.9029 H   0  0  0  0  0  0  0  0  0  0  0  0
  152.4989  139.8463  157.4628 H   0  0  0  0  0  0  0  0  0  0  0  0
  152.8369  139.4820  155.8008 H   0  0  0  0  0  0  0  0  0  0  0  0
  150.5284  143.7690  157.0541 H   0  0  0  0  0  0  0  0  0  0  0  0
  150.1800  143.5457  158.7437 H   0  0  0  0  0  0  0  0  0  0  0  0
  153.0414  143.7699  157.6060 H   0  0  0  0  0  0  0  0  0  0  0  0
  152.0922  145.1176  158.1576 H   0  0  0  0  0  0  0  0  0  0  0  0
  153.3335  144.6719  160.0656 H   0  0  0  0  0  0  0  0  0  0  0  0
  151.8176  143.9023  160.4102 H   0  0  0  0  0  0  0  0  0  0  0  0
  154.5112  142.6891  159.8760 H   0  0  0  0  0  0  0  0  0  0  0  0
  153.3373  142.2836  161.0906 H   0  0  0  0  0  0  0  0  0  0  0  0
  153.5222  141.3603  158.2190 H   0  0  0  0  0  0  0  0  0  0  0  0
  153.3832  140.4200  159.6688 H   0  0  0  0  0  0  0  0  0  0  0  0
  150.9448  141.5086  159.8507 H   0  0  0  0  0  0  0  0  0  0  0  0
  151.2589  140.1295  158.8342 H   0  0  0  0  0  0  0  0  0  0  0  0
  146.1542  141.6453  153.5126 H   0  0  0  0  0  0  0  0  0  0  0  0
  147.3929  142.7391  154.1133 H   0  0  0  0  0  0  0  0  0  0  0  0
  146.4595  141.7542  155.2394 H   0  0  0  0  0  0  0  0  0  0  0  0
  1  2  1  0  0  0  0
  1 25  1  0  0  0  0
  1 26  1  0  0  0  0
  1 27  1  0  0  0  0
  2  3  1  0  0  0  0
  3  4  1  0  0  0  0
  3 28  1  0  0  0  0
  3 29  1  0  0  0  0
  4  5  1  0  0  0  0
  4 30  1  0  0  0  0
  4 31  1  0  0  0  0
  5 16  1  0  0  0  0
  5  6  1  0  0  0  0
  6  7  1  0  0  0  0
  6 14  2  0  0  0  0
  7 13  1  0  0  0  0
  7  8  1  0  0  0  0
  8  9  1  0  0  0  0
  8 32  1  0  0  0  0
  8 33  1  0  0  0  0
  9 10  1  0  0  0  0
  9 34  1  0  0  0  0
  9 35  1  0  0  0  0
 10 11  1  0  0  0  0
 10 36  1  0  0  0  0
 10 37  1  0  0  0  0
 11 12  1  0  0  0  0
 11 38  1  0  0  0  0
 11 39  1  0  0  0  0
 12 13  1  0  0  0  0
 12 40  1  0  0  0  0
 12 41  1  0  0  0  0
 13 42  1  0  0  0  0
 13 43  1  0  0  0  0
 14 15  1  0  0  0  0
 15 22  1  0  0  0  0
 15 16  2  0  0  0  0
 16 17  1  0  0  0  0
 17 18  2  0  0  0  0
 17 19  1  0  0  0  0
 19 24  1  0  0  0  0
 19 20  1  0  0  0  0
 20 21  2  0  0  0  0
 20 22  1  0  0  0  0
 22 23  1  0  0  0  0
 23 44  1  0  0  0  0
 23 45  1  0  0  0  0
 23 46  1  0  0  0  0
M  END
> <s_m_source_file>
AV-unprocessed.smi

> <i_m_source_file_index>
536

> <i_lp_mmshare_version>
43012

> <i_f3d_flags>
0

> <s_epik_input>
W0NIM11uMWMoPU8pW25IXWMoPU8pYyhjMTIpbihbQ0gyXVtDSDJdT1tDSDNdKWMobjIpTjNbQ0gyXVtDSDJdW0NIMl1bQ0gyXVtDSDJdW0NIMl0z

> <s_epik_cmdline>
J2VwaWtfcHl0aG9uJywgJy1waCcsICc3LjAnLCAnLXRuJywgJzgnLCAnLW1hJywgJzIwMCcsICctbWV0YWxfYmluZGluZycsICctaW1hZScsICc8aW5maWxlLm1hZT4nLCAnLW9tYWUnLCAnPG91dGZpbGUubWFlPic=

> <r_lp_tautomer_probability>
1

> <r_epik_Ionization_Penalty>
0.000219348

> <r_epik_Ionization_Penalty_Charging>
2.05342e-05

> <r_epik_Ionization_Penalty_Neutral>
0.000198814

> <r_epik_State_Penalty>
-0

> <r_epik_Charging_Adjusted_Penalty>
2.05342e-05

> <i_epik_Tot_Q>
0

> <i_epik_Tot_abs_Q>
0

> <r_epik_Metal_State_Penalty>
0.0195159

> <b_epik_Metal_Only>
0

> <s_lp_Force_Field>
OPLS_2005

> <r_lp_Energy>
45.5568

> <b_lp_Chiralities_Consistent>
1

> <s_lp_Variant>
AV-unprocessed.smi:536-1

> <Gold.Version>
5.8.1

> <Gold.Id.Protein>
6NUR|6NUR_protein|mol2

> <Gold.PLP.Fitness>
45.4001

> <Gold.PLP.PLP>
-42.9687

> <Gold.PLP.part.hbond>
-1.9453

> <Gold.PLP.part.metal>
0.0000

> <Gold.PLP.part.buried>
-4.5028

> <Gold.PLP.part.nonpolar>
-39.9402

> <Gold.PLP.part.repulsive>
2.7721

> <Gold.PLP.ligand.clash>
0.0000

> <Gold.PLP.ligand.torsion>
0.7941

> <Gold.PLP.Chemscore.Hbond>
1.0000

> <Gold.PLP.Chemscore.CHOScore>
0.0000

> <Gold.PLP.Chemscore.Metal>
0.0000

> <Gold.Chemscore.Hbonds>
donor molecule, donor type, donor heavy atom, donor atom, acceptor molecule, acceptor atom, score
      L1  H    19    24       P1  7948  1.00

> <Gold.PLP.Chemscore.Internal.Correction>
1.0195

> <Gold.Rescore>
     Score         DG    S(hbond)    S(metal)    S(lipo)     H(rot)  DE(clash)    DE(int)     intcor
     13.82     -16.85       1.32        0.00      91.45       1.46       0.22       2.81       ----

> <Gold.Chemscore.Fitness>
13.8220

> <Gold.Chemscore.DG>
-16.8478

> <Gold.Chemscore.ZeroCoef>
-5.4800

> <Gold.Chemscore.Hbond>
1.3157

> <Gold.Chemscore.Metal>
0.0000

> <Gold.Chemscore.Lipo>
91.4543

> <Gold.Chemscore.Internal_Hbond>
0.0000

> <Gold.Chemscore.DEClash>
0.2183

> <Gold.Chemscore.DEInternal>
2.8075

> <Gold.Chemscore.Rot>
1.4557

> <Gold.Chemscore.Internal.Correction>
   9.000000E+99

> <Gold.Chemscore.Hbonds>
donor molecule, donor type, donor heavy atom, donor atom, acceptor molecule, acceptor atom, score
      L1  H    19    24       P1  7948  0.98

> <Gold.Chemscore.Hbond.Weighted>
-4.3943

> <Gold.Chemscore.Metal.Weighted>
-0.0000

> <Gold.Chemscore.Lipo.Weighted>
-10.7002

> <Gold.Chemscore.Internal_Hbond.Weighted>
0.0000

> <Gold.Chemscore.DEClash.Weighted>
0.2183

> <Gold.Chemscore.DEInternal.Weighted>
2.8075

> <Gold.Chemscore.Rot.Weighted>
3.7267

> <Gold.Chemscore.Internal.Correction.Weighted>
   9.000000E+99

> <Gold.Protein.RotatedTorsions>
[ 6907 6896 6895 6894 ] final -179.48 input  -60.11 | X-H torsion
[ 7974 7965 7964 7962 ] final   58.01 input  175.53 | X-H torsion
[ 8008 7997 7996 7995 ] final -164.83 input   59.86 | X-H torsion
[ 10167 10162 10161 10158 ] final -153.45 input  -65.29 | X-H torsion
[ 10718 10713 10712 10709 ] final  -67.34 input   66.30 | X-H torsion
[ 10763 10752 10751 10750 ] final  160.14 input  -60.55 | X-H torsion
[ 11005 11000 10999 10996 ] final  -48.13 input  -57.11 | X-H torsion

> <Gold.Protein.ActiveResidues>
 VAL166  LYS551  ARG553  GLY616  TRP617  ASP618  TYR619  PRO620  LYS621  CYS622 
 ASP623  PHE694  ASN695  SER759  ASP760  ASP761  ALA762  ILE779  LEU786  VAL792 
 PHE793  MET794  SER795  GLU796  ALA797  LYS798  CYS799  TRP800  GLU811  SER814 

> <Gold.Protein.RotatedAtoms>
  151.6541  133.3319  159.3158 H   0  0  0  0  0  0  0  0  0  0  0  0  # atno 6907 bound_to 6896
  150.7946  134.6999  159.6554 H   0  0  0  0  0  0  0  0  0  0  0  0  # atno 6908 bound_to 6896
  152.4031  134.6257  160.0114 H   0  0  0  0  0  0  0  0  0  0  0  0  # atno 6909 bound_to 6896
  145.9228  139.3743  143.0468 H   0  0  0  0  0  0  0  0  0  0  0  0  # atno 7974 bound_to 7965
  155.8412  140.0948  157.1733 H   0  0  0  0  0  0  0  0  0  0  0  0  # atno 8008 bound_to 7997
  154.3982  140.1401  156.3792 H   0  0  0  0  0  0  0  0  0  0  0  0  # atno 8009 bound_to 7997
  155.8063  140.3451  155.5434 H   0  0  0  0  0  0  0  0  0  0  0  0  # atno 8010 bound_to 7997
  139.7096  143.9130  152.2462 H   0  0  0  0  0  0  0  0  0  0  0  0  # atno 10167 bound_to 10162
  156.0563  130.4276  150.1841 H   0  0  0  0  0  0  0  0  0  0  0  0  # atno 10718 bound_to 10713
  154.2428  135.2774  155.2847 H   0  0  0  0  0  0  0  0  0  0  0  0  # atno 10763 bound_to 10752
  154.5531  135.5669  153.6943 H   0  0  0  0  0  0  0  0  0  0  0  0  # atno 10764 bound_to 10752
  152.9996  135.6279  154.2572 H   0  0  0  0  0  0  0  0  0  0  0  0  # atno 10765 bound_to 10752
  141.0682  133.6687  156.3397 H   0  0  0  0  0  0  0  0  0  0  0  0  # atno 11005 bound_to 11000
  145.8527  140.9519  143.0741 LP  0  0  0  0  0  0  0  0  0  0  0  0  # atno 17320 bound_to 7965
  144.6755  140.0428  143.7480 LP  0  0  0  0  0  0  0  0  0  0  0  0  # atno 17321 bound_to 7965
  139.8996  144.6919  150.8680 LP  0  0  0  0  0  0  0  0  0  0  0  0  # atno 17342 bound_to 10162
  140.7730  143.3524  151.1988 LP  0  0  0  0  0  0  0  0  0  0  0  0  # atno 17343 bound_to 10162
  156.9916  130.9895  151.3413 LP  0  0  0  0  0  0  0  0  0  0  0  0  # atno 17370 bound_to 10713
  157.5535  130.8198  149.8174 LP  0  0  0  0  0  0  0  0  0  0  0  0  # atno 17371 bound_to 10713
  140.5728  134.5823  157.5461 LP  0  0  0  0  0  0  0  0  0  0  0  0  # atno 17394 bound_to 11000
  139.9497  134.7638  156.0477 LP  0  0  0  0  0  0  0  0  0  0  0  0  # atno 17395 bound_to 11000

$$$$
