AV-unprocessed.smi:2702|AV-procd|sdf|10433|dock7
  -GOLD-   2272014473D 1   1.00000     0.00000
 Structure written by MMmdl.
 47 48  0  0  0  0  0  0  0  0  1 V2000
  146.7278  138.9205  151.5348 C   0  0  0  0  0  0  0  0  0  0  0  0
  147.3101  138.8822  152.8255 O   0  0  0  0  0  0  0  0  0  0  0  0
  147.3875  140.1645  153.4254 C   0  0  0  0  0  0  0  0  0  0  0  0
  148.0924  140.0832  154.7645 C   0  0  0  0  0  0  0  0  0  0  0  0
  147.4813  140.4317  155.9209 C   0  0  0  0  0  0  0  0  0  0  0  0
  148.1913  140.3412  157.1966 C   0  0  0  0  0  0  0  0  0  0  0  0
  147.6703  140.6491  158.2692 O   0  0  0  0  0  0  0  0  0  0  0  0
  149.4779  139.8907  157.1082 N   0  0  0  0  0  0  0  0  0  0  0  0
  150.3214  139.7510  158.3091 C   0  0  0  0  0  0  0  0  0  0  0  0
  151.6111  140.5793  158.2297 C   0  0  0  0  0  0  0  0  0  0  0  0
  152.4864  140.2955  157.4112 O   0  0  0  0  0  0  0  0  0  0  0  0
  151.7030  141.6072  159.0873 N   0  0  0  0  0  0  0  0  0  0  0  0
  152.8421  142.5167  159.2302 C   0  0  1  0  0  0  0  0  0  0  0  0
  152.3778  143.9705  159.0252 C   0  0  0  0  0  0  0  0  0  0  0  0
  151.4983  144.4606  160.1847 C   0  0  0  0  0  0  0  0  0  0  0  0
  152.2189  144.2946  161.5293 C   0  0  0  0  0  0  0  0  0  0  0  0
  152.6685  142.8390  161.7728 C   0  0  2  0  0  0  0  0  0  0  0  0
  153.3660  142.7325  163.1404 C   0  0  0  0  0  0  0  0  0  0  0  0
  153.5543  142.3357  160.5985 C   0  0  1  0  0  0  0  0  0  0  0  0
  154.0519  140.8890  160.7949 C   0  0  0  0  0  0  0  0  0  0  0  0
  150.0619  139.5291  155.8778 C   0  0  0  0  0  0  0  0  0  0  0  0
  149.4114  139.6184  154.7615 N   0  0  0  0  0  0  0  0  0  0  0  0
  146.6896  137.9132  151.1203 H   0  0  0  0  0  0  0  0  0  0  0  0
  147.3134  139.5422  150.8563 H   0  0  0  0  0  0  0  0  0  0  0  0
  145.7085  139.3071  151.5731 H   0  0  0  0  0  0  0  0  0  0  0  0
  147.9159  140.8548  152.7655 H   0  0  0  0  0  0  0  0  0  0  0  0
  146.3857  140.5680  153.5810 H   0  0  0  0  0  0  0  0  0  0  0  0
  146.4607  140.7860  155.9101 H   0  0  0  0  0  0  0  0  0  0  0  0
  149.7871  140.0423  159.2149 H   0  0  0  0  0  0  0  0  0  0  0  0
  150.5713  138.6985  158.4565 H   0  0  0  0  0  0  0  0  0  0  0  0
  150.9281  141.7601  159.7164 H   0  0  0  0  0  0  0  0  0  0  0  0
  153.5676  142.3049  158.4430 H   0  0  0  0  0  0  0  0  0  0  0  0
  153.2522  144.6174  158.9435 H   0  0  0  0  0  0  0  0  0  0  0  0
  151.8406  144.0668  158.0807 H   0  0  0  0  0  0  0  0  0  0  0  0
  151.2353  145.5077  160.0322 H   0  0  0  0  0  0  0  0  0  0  0  0
  150.5586  143.9076  160.2006 H   0  0  0  0  0  0  0  0  0  0  0  0
  153.0860  144.9562  161.5577 H   0  0  0  0  0  0  0  0  0  0  0  0
  151.5588  144.6211  162.3337 H   0  0  0  0  0  0  0  0  0  0  0  0
  151.7733  142.2172  161.8181 H   0  0  0  0  0  0  0  0  0  0  0  0
  154.3134  143.2722  163.1464 H   0  0  0  0  0  0  0  0  0  0  0  0
  153.5669  141.6965  163.4120 H   0  0  0  0  0  0  0  0  0  0  0  0
  152.7420  143.1504  163.9309 H   0  0  0  0  0  0  0  0  0  0  0  0
  154.4440  142.9669  160.5716 H   0  0  0  0  0  0  0  0  0  0  0  0
  153.2269  140.2003  160.9791 H   0  0  0  0  0  0  0  0  0  0  0  0
  154.7416  140.8117  161.6348 H   0  0  0  0  0  0  0  0  0  0  0  0
  154.5875  140.5364  159.9132 H   0  0  0  0  0  0  0  0  0  0  0  0
  151.0900  139.1678  155.9339 H   0  0  0  0  0  0  0  0  0  0  0  0
  1  2  1  0  0  0  0
  1 23  1  0  0  0  0
  1 24  1  0  0  0  0
  1 25  1  0  0  0  0
  2  3  1  0  0  0  0
  3  4  1  0  0  0  0
  3 26  1  0  0  0  0
  3 27  1  0  0  0  0
  4 22  1  0  0  0  0
  4  5  2  0  0  0  0
  5  6  1  0  0  0  0
  5 28  1  0  0  0  0
  6  7  2  0  0  0  0
  6  8  1  0  0  0  0
  8  9  1  0  0  0  0
  8 21  1  0  0  0  0
  9 10  1  0  0  0  0
  9 29  1  0  0  0  0
  9 30  1  0  0  0  0
 10 11  2  0  0  0  0
 10 12  1  0  0  0  0
 12 13  1  0  0  0  0
 12 31  1  0  0  0  0
 13 19  1  0  0  0  0
 13 14  1  0  0  0  0
 13 32  1  0  0  0  0
 14 15  1  0  0  0  0
 14 33  1  0  0  0  0
 14 34  1  0  0  0  0
 15 16  1  0  0  0  0
 15 35  1  0  0  0  0
 15 36  1  0  0  0  0
 16 17  1  0  0  0  0
 16 37  1  0  0  0  0
 16 38  1  0  0  0  0
 17 18  1  0  0  0  0
 17 19  1  0  0  0  0
 17 39  1  0  0  0  0
 18 40  1  0  0  0  0
 18 41  1  0  0  0  0
 18 42  1  0  0  0  0
 19 20  1  0  0  0  0
 19 43  1  0  0  0  0
 20 44  1  0  0  0  0
 20 45  1  0  0  0  0
 20 46  1  0  0  0  0
 21 22  2  0  0  0  0
 21 47  1  0  0  0  0
M  END
> <s_m_source_file>
AV-unprocessed.smi

> <i_m_source_file_index>
2702

> <i_lp_mmshare_version>
43012

> <i_f3d_flags>
0

> <s_epik_input>
W0NIM11PW0NIMl1jMVtjSF1jKD1PKW4oW2NIXW4xKVtDSDJdQyg9TylbTkhdW0NAQEhdMltDSDJdW0NIMl1bQ0gyXVtDQEBIXShbQ0gzXSlbQ0BIXTJbQ0gzXQ==

> <s_epik_cmdline>
J2VwaWtfcHl0aG9uJywgJy1waCcsICc3LjAnLCAnLXRuJywgJzgnLCAnLW1hJywgJzIwMCcsICctbWV0YWxfYmluZGluZycsICctaW1hZScsICc8aW5maWxlLm1hZT4nLCAnLW9tYWUnLCAnPG91dGZpbGUubWFlPic=

> <r_lp_tautomer_probability>
1

> <r_epik_Ionization_Penalty>
1.22164e-06

> <r_epik_Ionization_Penalty_Charging>
3.17988e-07

> <r_epik_Ionization_Penalty_Neutral>
9.03656e-07

> <r_epik_State_Penalty>
-0

> <r_epik_Charging_Adjusted_Penalty>
3.17988e-07

> <i_epik_Tot_Q>
0

> <i_epik_Tot_abs_Q>
0

> <r_epik_Metal_State_Penalty>
-0

> <b_epik_Metal_Only>
0

> <s_lp_Force_Field>
OPLS_2005

> <r_lp_Energy>
16.6041

> <b_lp_Chiralities_Consistent>
1

> <s_lp_Variant>
AV-unprocessed.smi:2702-4

> <Gold.Version>
5.8.1

> <Gold.Id.Protein>
6NUR|6NUR_protein|mol2

> <Gold.PLP.Fitness>
47.8664

> <Gold.PLP.PLP>
-45.1021

> <Gold.PLP.part.hbond>
-2.0000

> <Gold.PLP.part.metal>
0.0000

> <Gold.PLP.part.buried>
-3.6647

> <Gold.PLP.part.nonpolar>
-40.4407

> <Gold.PLP.part.repulsive>
1.1422

> <Gold.PLP.ligand.clash>
0.0000

> <Gold.PLP.ligand.torsion>
0.0907

> <Gold.PLP.Chemscore.Hbond>
0.9760

> <Gold.PLP.Chemscore.CHOScore>
0.0000

> <Gold.PLP.Chemscore.Metal>
0.0000

> <Gold.Chemscore.Hbonds>
donor molecule, donor type, donor heavy atom, donor atom, acceptor molecule, acceptor atom, score
      P1  H  7997  8009       L1    11  0.95

> <Gold.PLP.Chemscore.Internal.Correction>
0.0177

> <Gold.Rescore>
     Score         DG    S(hbond)    S(metal)    S(lipo)     H(rot)  DE(clash)    DE(int)     intcor
     16.66     -17.88       0.90        0.00     122.41       1.93       0.08       1.14       ----

> <Gold.Chemscore.Fitness>
16.6638

> <Gold.Chemscore.DG>
-17.8831

> <Gold.Chemscore.ZeroCoef>
-5.4800

> <Gold.Chemscore.Hbond>
0.9037

> <Gold.Chemscore.Metal>
0.0000

> <Gold.Chemscore.Lipo>
122.4061

> <Gold.Chemscore.Internal_Hbond>
0.0000

> <Gold.Chemscore.DEClash>
0.0836

> <Gold.Chemscore.DEInternal>
1.1358

> <Gold.Chemscore.Rot>
1.9284

> <Gold.Chemscore.Internal.Correction>
   9.000000E+99

> <Gold.Chemscore.Hbonds>
donor molecule, donor type, donor heavy atom, donor atom, acceptor molecule, acceptor atom, score
      P1  H  7997  8009       L1    11  0.85

> <Gold.Chemscore.Hbond.Weighted>
-3.0184

> <Gold.Chemscore.Metal.Weighted>
-0.0000

> <Gold.Chemscore.Lipo.Weighted>
-14.3215

> <Gold.Chemscore.Internal_Hbond.Weighted>
0.0000

> <Gold.Chemscore.DEClash.Weighted>
0.0836

> <Gold.Chemscore.DEInternal.Weighted>
1.1358

> <Gold.Chemscore.Rot.Weighted>
4.9368

> <Gold.Chemscore.Internal.Correction.Weighted>
   9.000000E+99

> <Gold.Protein.RotatedTorsions>
[ 6907 6896 6895 6894 ] final  131.17 input  -60.11 | X-H torsion
[ 7974 7965 7964 7962 ] final -134.18 input  175.53 | X-H torsion
[ 8008 7997 7996 7995 ] final  175.90 input   59.86 | X-H torsion
[ 10167 10162 10161 10158 ] final  109.95 input  -65.29 | X-H torsion
[ 10718 10713 10712 10709 ] final  177.58 input   66.30 | X-H torsion
[ 10763 10752 10751 10750 ] final  -18.98 input  -60.55 | X-H torsion
[ 11005 11000 10999 10996 ] final  -66.21 input  -57.11 | X-H torsion

> <Gold.Protein.ActiveResidues>
 VAL166  LYS551  ARG553  GLY616  TRP617  ASP618  TYR619  PRO620  LYS621  CYS622 
 ASP623  PHE694  ASN695  SER759  ASP760  ASP761  ALA762  ILE779  LEU786  VAL792 
 PHE793  MET794  SER795  GLU796  ALA797  LYS798  CYS799  TRP800  GLU811  SER814 

> <Gold.Protein.RotatedAtoms>
  152.3453  133.6115  159.5905 H   0  0  0  0  0  0  0  0  0  0  0  0  # atno 6907 bound_to 6896
  150.7504  133.9658  159.3539 H   0  0  0  0  0  0  0  0  0  0  0  0  # atno 6908 bound_to 6896
  151.7517  135.0832  160.0383 H   0  0  0  0  0  0  0  0  0  0  0  0  # atno 6909 bound_to 6896
  144.9126  140.6914  143.5016 H   0  0  0  0  0  0  0  0  0  0  0  0  # atno 7974 bound_to 7965
  156.0821  140.1397  156.9699 H   0  0  0  0  0  0  0  0  0  0  0  0  # atno 8008 bound_to 7997
  154.4591  140.0950  156.6892 H   0  0  0  0  0  0  0  0  0  0  0  0  # atno 8009 bound_to 7997
  155.5058  140.3452  155.4381 H   0  0  0  0  0  0  0  0  0  0  0  0  # atno 8010 bound_to 7997
  139.6726  144.7124  151.1660 H   0  0  0  0  0  0  0  0  0  0  0  0  # atno 10167 bound_to 10162
  156.9032  130.9886  151.3032 H   0  0  0  0  0  0  0  0  0  0  0  0  # atno 10718 bound_to 10713
  153.5977  135.7000  153.5397 H   0  0  0  0  0  0  0  0  0  0  0  0  # atno 10763 bound_to 10752
  153.3124  135.4097  155.1347 H   0  0  0  0  0  0  0  0  0  0  0  0  # atno 10764 bound_to 10752
  154.8588  135.3675  154.5511 H   0  0  0  0  0  0  0  0  0  0  0  0  # atno 10765 bound_to 10752
  141.1476  133.6695  156.6104 H   0  0  0  0  0  0  0  0  0  0  0  0  # atno 11005 bound_to 11000
  145.3429  139.1727  143.4476 LP  0  0  0  0  0  0  0  0  0  0  0  0  # atno 17320 bound_to 7965
  146.3166  140.3472  142.8653 LP  0  0  0  0  0  0  0  0  0  0  0  0  # atno 17321 bound_to 7965
  140.7624  143.5821  150.8884 LP  0  0  0  0  0  0  0  0  0  0  0  0  # atno 17342 bound_to 10162
  139.9487  143.6297  152.3035 LP  0  0  0  0  0  0  0  0  0  0  0  0  # atno 17343 bound_to 10162
  157.6013  130.8514  149.8806 LP  0  0  0  0  0  0  0  0  0  0  0  0  # atno 17370 bound_to 10713
  156.0571  130.3706  150.1065 LP  0  0  0  0  0  0  0  0  0  0  0  0  # atno 17371 bound_to 10713
  140.3618  134.7680  157.4539 LP  0  0  0  0  0  0  0  0  0  0  0  0  # atno 17394 bound_to 11000
  140.0779  134.5772  155.8572 LP  0  0  0  0  0  0  0  0  0  0  0  0  # atno 17395 bound_to 11000

$$$$
