AV-unprocessed.smi:1833|AV-procd|sdf|7465|dock8
  -GOLD-   22720 9163D 1   1.00000     0.00000
 Structure written by MMmdl.
 42 43  0  0  0  0  0  0  0  0  2 V2000
  145.7712  134.6648  151.9940 C   0  0  0  0  0  0  0  0  0  0  0  0
  146.1030  135.4603  153.2650 C   0  0  0  0  0  0  0  0  0  0  0  0
  146.7366  136.7702  152.9696 N   0  3  1  0  0  0  0  0  0  0  0  0
  145.8678  137.6359  152.1298 C   0  0  0  0  0  0  0  0  0  0  0  0
  146.5961  138.9268  151.7197 C   0  0  0  0  0  0  0  0  0  0  0  0
  147.1004  139.6910  152.9506 C   0  0  0  0  0  0  0  0  0  0  0  0
  147.9707  138.7688  153.8188 C   0  0  1  0  0  0  0  0  0  0  0  0
  148.3884  139.4650  155.0328 N   0  0  0  0  0  0  0  0  0  0  0  0
  149.1800  140.5461  155.0784 C   0  0  0  0  0  0  0  0  0  0  0  0
  149.6616  141.0944  154.0871 O   0  0  0  0  0  0  0  0  0  0  0  0
  149.3863  140.9573  156.3371 N   0  0  0  0  0  0  0  0  0  0  0  0
  150.2162  142.0943  156.7181 C   0  0  0  0  0  0  0  0  0  0  0  0
  150.7696  141.9437  158.1442 C   0  0  0  0  0  0  0  0  0  0  0  0
  151.1172  143.2573  158.7597 C   0  0  0  0  0  0  0  0  0  0  0  0
  150.5634  143.7125  159.8870 N   0  0  0  0  0  0  0  0  0  0  0  0
  151.0305  144.9817  160.2373 C   0  0  0  0  0  0  0  0  0  0  0  0
  151.9411  145.4944  159.3486 C   0  0  0  0  0  0  0  0  0  0  0  0
  152.2470  144.3950  158.0319 S   0  0  0  0  0  0  0  0  0  0  0  0
  147.2028  137.4858  154.1877 C   0  0  0  0  0  0  0  0  0  0  0  0
  145.2206  133.7578  152.2442 H   0  0  0  0  0  0  0  0  0  0  0  0
  146.6668  134.3574  151.4552 H   0  0  0  0  0  0  0  0  0  0  0  0
  145.1509  135.2489  151.3135 H   0  0  0  0  0  0  0  0  0  0  0  0
  145.1685  135.6281  153.8022 H   0  0  0  0  0  0  0  0  0  0  0  0
  146.7407  134.8763  153.9301 H   0  0  0  0  0  0  0  0  0  0  0  0
  145.5667  137.0964  151.2309 H   0  0  0  0  0  0  0  0  0  0  0  0
  144.9543  137.8760  152.6762 H   0  0  0  0  0  0  0  0  0  0  0  0
  147.4382  138.6817  151.0709 H   0  0  0  0  0  0  0  0  0  0  0  0
  145.9302  139.5616  151.1345 H   0  0  0  0  0  0  0  0  0  0  0  0
  147.6689  140.5682  152.6388 H   0  0  0  0  0  0  0  0  0  0  0  0
  146.2499  140.0573  153.5276 H   0  0  0  0  0  0  0  0  0  0  0  0
  148.8458  138.4755  153.2353 H   0  0  0  0  0  0  0  0  0  0  0  0
  148.0453  139.0966  155.9082 H   0  0  0  0  0  0  0  0  0  0  0  0
  148.9462  140.4445  157.0872 H   0  0  0  0  0  0  0  0  0  0  0  0
  151.0397  142.1625  156.0067 H   0  0  0  0  0  0  0  0  0  0  0  0
  149.6469  143.0210  156.6240 H   0  0  0  0  0  0  0  0  0  0  0  0
  150.0427  141.4418  158.7844 H   0  0  0  0  0  0  0  0  0  0  0  0
  151.6626  141.3180  158.1365 H   0  0  0  0  0  0  0  0  0  0  0  0
  150.6580  145.4491  161.1368 H   0  0  0  0  0  0  0  0  0  0  0  0
  152.4459  146.4482  159.3872 H   0  0  0  0  0  0  0  0  0  0  0  0
  146.3452  137.7228  154.8199 H   0  0  0  0  0  0  0  0  0  0  0  0
  147.8577  136.8411  154.7732 H   0  0  0  0  0  0  0  0  0  0  0  0
  147.5563  136.5717  152.4138 H   0  0  0  0  0  0  0  0  0  0  0  0
  1  2  1  0  0  0  0
  1 20  1  0  0  0  0
  1 21  1  0  0  0  0
  1 22  1  0  0  0  0
  2  3  1  0  0  0  0
  2 23  1  0  0  0  0
  2 24  1  0  0  0  0
  3 19  1  0  0  0  0
  3  4  1  0  0  0  0
  3 42  1  0  0  0  0
  4  5  1  0  0  0  0
  4 25  1  0  0  0  0
  4 26  1  0  0  0  0
  5  6  1  0  0  0  0
  5 27  1  0  0  0  0
  5 28  1  0  0  0  0
  6  7  1  0  0  0  0
  6 29  1  0  0  0  0
  6 30  1  0  0  0  0
  7  8  1  0  0  0  0
  7 19  1  0  0  0  0
  7 31  1  0  0  0  0
  8  9  1  0  0  0  0
  8 32  1  0  0  0  0
  9 10  2  0  0  0  0
  9 11  1  0  0  0  0
 11 12  1  0  0  0  0
 11 33  1  0  0  0  0
 12 13  1  0  0  0  0
 12 34  1  0  0  0  0
 12 35  1  0  0  0  0
 13 14  1  0  0  0  0
 13 36  1  0  0  0  0
 13 37  1  0  0  0  0
 14 18  1  0  0  0  0
 14 15  2  0  0  0  0
 15 16  1  0  0  0  0
 16 17  2  0  0  0  0
 16 38  1  0  0  0  0
 17 18  1  0  0  0  0
 17 39  1  0  0  0  0
 19 40  1  0  0  0  0
 19 41  1  0  0  0  0
M  CHG  1   3   1
M  END
> <s_m_source_file>
AV-unprocessed.smi

> <i_m_source_file_index>
1833

> <i_lp_mmshare_version>
43012

> <i_f3d_flags>
0

> <s_epik_input>
W0NIM11bQ0gyXU4xW0NIMl1bQ0gyXVtDSDJdW0NASF0oW0NIMl0xKVtOSF1DKD1PKVtOSF1bQ0gyXVtDSDJdYzJuW2NIXVtjSF1zMg==

> <s_epik_cmdline>
J2VwaWtfcHl0aG9uJywgJy1waCcsICc3LjAnLCAnLXRuJywgJzgnLCAnLW1hJywgJzIwMCcsICctbWV0YWxfYmluZGluZycsICctaW1hZScsICc8aW5maWxlLm1hZT4nLCAnLW9tYWUnLCAnPG91dGZpbGUubWFlPic=

> <r_lp_tautomer_probability>
1

> <r_epik_Ionization_Penalty>
0.00269629

> <r_epik_Ionization_Penalty_Charging>
0.00233899

> <r_epik_Ionization_Penalty_Neutral>
0.000357304

> <r_epik_State_Penalty>
-0

> <r_epik_Charging_Adjusted_Penalty>
0.00233899

> <i_epik_Tot_Q>
1

> <i_epik_Tot_abs_Q>
1

> <r_epik_Metal_State_Penalty>
-0

> <b_epik_Metal_Only>
0

> <s_lp_Force_Field>
OPLS_2005

> <r_lp_Energy>
7.28856

> <b_lp_Chiralities_Consistent>
1

> <s_lp_Variant>
AV-unprocessed.smi:1833-1

> <Gold.Version>
5.8.1

> <Gold.Id.Protein>
6NUR|6NUR_protein|mol2

> <Gold.PLP.Fitness>
43.7817

> <Gold.PLP.PLP>
-35.6674

> <Gold.PLP.part.hbond>
-3.4676

> <Gold.PLP.part.metal>
0.0000

> <Gold.PLP.part.buried>
0.1727

> <Gold.PLP.part.nonpolar>
-33.5620

> <Gold.PLP.part.repulsive>
0.5437

> <Gold.PLP.ligand.clash>
0.0000

> <Gold.PLP.ligand.torsion>
0.3526

> <Gold.PLP.Chemscore.Hbond>
2.9226

> <Gold.PLP.Chemscore.CHOScore>
0.0000

> <Gold.PLP.Chemscore.Metal>
0.0000

> <Gold.Chemscore.Hbonds>
donor molecule, donor type, donor heavy atom, donor atom, acceptor molecule, acceptor atom, score
      L1  H     3    42       P1  7948  2.00
      P1  H  7989  7998       L1    10  0.42
      P1  H  8011  8017       L1    10  0.47

> <Gold.PLP.Chemscore.Internal.Correction>
0.0516

> <Gold.Rescore>
     Score         DG    S(hbond)    S(metal)    S(lipo)     H(rot)  DE(clash)    DE(int)     intcor
     18.82     -19.72       2.01        0.00     101.77       1.71       0.55       0.35       ----

> <Gold.Chemscore.Fitness>
18.8160

> <Gold.Chemscore.DG>
-19.7180

> <Gold.Chemscore.ZeroCoef>
-5.4800

> <Gold.Chemscore.Hbond>
2.0120

> <Gold.Chemscore.Metal>
0.0000

> <Gold.Chemscore.Lipo>
101.7738

> <Gold.Chemscore.Internal_Hbond>
0.0000

> <Gold.Chemscore.DEClash>
0.5522

> <Gold.Chemscore.DEInternal>
0.3498

> <Gold.Chemscore.Rot>
1.7147

> <Gold.Chemscore.Internal.Correction>
   9.000000E+99

> <Gold.Chemscore.Hbonds>
donor molecule, donor type, donor heavy atom, donor atom, acceptor molecule, acceptor atom, score
      L1  H     3    42       P1  7948  0.93
      P1  H  7989  7998       L1    10  0.38
      P1  H  8011  8017       L1    10  0.46

> <Gold.Chemscore.Hbond.Weighted>
-6.7201

> <Gold.Chemscore.Metal.Weighted>
-0.0000

> <Gold.Chemscore.Lipo.Weighted>
-11.9075

> <Gold.Chemscore.Internal_Hbond.Weighted>
0.0000

> <Gold.Chemscore.DEClash.Weighted>
0.5522

> <Gold.Chemscore.DEInternal.Weighted>
0.3498

> <Gold.Chemscore.Rot.Weighted>
4.3896

> <Gold.Chemscore.Internal.Correction.Weighted>
   9.000000E+99

> <Gold.Protein.RotatedTorsions>
[ 6907 6896 6895 6894 ] final  151.66 input  -60.11 | X-H torsion
[ 7974 7965 7964 7962 ] final  -24.96 input  175.53 | X-H torsion
[ 8008 7997 7996 7995 ] final  128.26 input   59.86 | X-H torsion
[ 10167 10162 10161 10158 ] final  163.41 input  -65.29 | X-H torsion
[ 10718 10713 10712 10709 ] final  -35.44 input   66.30 | X-H torsion
[ 10763 10752 10751 10750 ] final   93.70 input  -60.55 | X-H torsion
[ 11005 11000 10999 10996 ] final  149.33 input  -57.11 | X-H torsion

> <Gold.Protein.ActiveResidues>
 VAL166  LYS551  ARG553  GLY616  TRP617  ASP618  TYR619  PRO620  LYS621  CYS622 
 ASP623  PHE694  ASN695  SER759  ASP760  ASP761  ALA762  ILE779  LEU786  VAL792 
 PHE793  MET794  SER795  GLU796  ALA797  LYS798  CYS799  TRP800  GLU811  SER814 

> <Gold.Protein.RotatedAtoms>
  152.0976  133.4233  159.4572 H   0  0  0  0  0  0  0  0  0  0  0  0  # atno 6907 bound_to 6896
  150.6863  134.2798  159.4632 H   0  0  0  0  0  0  0  0  0  0  0  0  # atno 6908 bound_to 6896
  152.0655  134.9566  160.0625 H   0  0  0  0  0  0  0  0  0  0  0  0  # atno 6909 bound_to 6896
  146.1522  140.4822  142.8607 H   0  0  0  0  0  0  0  0  0  0  0  0  # atno 7974 bound_to 7965
  156.2911  140.2649  156.2407 H   0  0  0  0  0  0  0  0  0  0  0  0  # atno 8008 bound_to 7997
  154.9980  140.0388  157.2366 H   0  0  0  0  0  0  0  0  0  0  0  0  # atno 8009 bound_to 7997
  154.7627  140.2763  155.6206 H   0  0  0  0  0  0  0  0  0  0  0  0  # atno 8010 bound_to 7997
  139.4873  144.4340  151.9035 H   0  0  0  0  0  0  0  0  0  0  0  0  # atno 10167 bound_to 10162
  156.3386  130.4290  149.7807 H   0  0  0  0  0  0  0  0  0  0  0  0  # atno 10718 bound_to 10713
  153.2333  135.4316  155.0618 H   0  0  0  0  0  0  0  0  0  0  0  0  # atno 10763 bound_to 10752
  154.8307  135.3385  154.6756 H   0  0  0  0  0  0  0  0  0  0  0  0  # atno 10764 bound_to 10752
  153.7182  135.7018  153.5076 H   0  0  0  0  0  0  0  0  0  0  0  0  # atno 10765 bound_to 10752
  140.1036  134.8968  157.1832 H   0  0  0  0  0  0  0  0  0  0  0  0  # atno 11005 bound_to 11000
  144.7918  140.6046  143.6537 LP  0  0  0  0  0  0  0  0  0  0  0  0  # atno 17320 bound_to 7965
  145.4797  139.1496  143.3769 LP  0  0  0  0  0  0  0  0  0  0  0  0  # atno 17321 bound_to 7965
  140.3789  144.2762  150.5911 LP  0  0  0  0  0  0  0  0  0  0  0  0  # atno 17342 bound_to 10162
  140.5251  143.2256  151.8327 LP  0  0  0  0  0  0  0  0  0  0  0  0  # atno 17343 bound_to 10162
  156.5052  130.8147  151.3148 LP  0  0  0  0  0  0  0  0  0  0  0  0  # atno 17370 bound_to 10713
  157.7443  130.9931  150.2662 LP  0  0  0  0  0  0  0  0  0  0  0  0  # atno 17371 bound_to 10713
  140.3186  134.2942  155.7251 LP  0  0  0  0  0  0  0  0  0  0  0  0  # atno 17394 bound_to 11000
  141.2112  133.7696  156.9879 LP  0  0  0  0  0  0  0  0  0  0  0  0  # atno 17395 bound_to 11000

$$$$
