AV-unprocessed.smi:1684|AV-procd|sdf|6756|dock5
  -GOLD-   22720 7513D 1   1.00000     0.00000
 Structure written by MMmdl.
 43 44  0  0  0  0  0  0  0  0  2 V2000
  151.2650  141.8181  157.2645 C   0  0  0  0  0  0  0  0  0  0  0  0
  151.2251  142.7227  158.4859 C   0  0  0  0  0  0  0  0  0  0  0  0
  152.3801  142.8522  159.2861 C   0  0  0  0  0  0  0  0  0  0  0  0
  152.3416  143.6864  160.4165 C   0  0  0  0  0  0  0  0  0  0  0  0
  151.1417  144.3599  160.7011 C   0  0  0  0  0  0  0  0  0  0  0  0
  150.0331  144.2420  159.9419 N   0  0  0  0  0  0  0  0  0  0  0  0
  150.0545  143.4432  158.8451 C   0  0  0  0  0  0  0  0  0  0  0  0
  148.9217  143.2709  157.9998 N   0  0  0  0  0  0  0  0  0  0  0  0
  147.7200  142.7539  158.3103 C   0  0  0  0  0  0  0  0  0  0  0  0
  147.3751  142.3730  159.4292 O   0  0  0  0  0  0  0  0  0  0  0  0
  146.9263  142.6822  157.2305 N   0  0  0  0  0  0  0  0  0  0  0  0
  145.5556  142.1682  157.2034 C   0  0  1  0  0  0  0  0  0  0  0  0
  144.7180  142.9257  158.2426 C   0  0  0  0  0  0  0  0  0  0  0  0
  144.9348  142.2848  155.7914 C   0  0  0  0  0  0  0  0  0  0  0  0
  145.4410  141.2582  154.8454 N   0  3  0  0  0  0  0  0  0  0  0  0
  146.6575  141.6776  154.1081 C   0  0  0  0  0  0  0  0  0  0  0  0
  147.0553  140.5974  153.0887 C   0  0  0  0  0  0  0  0  0  0  0  0
  147.2606  139.3607  153.7618 O   0  0  0  0  0  0  0  0  0  0  0  0
  146.0816  138.9063  154.4154 C   0  0  0  0  0  0  0  0  0  0  0  0
  145.6488  139.9339  155.4754 C   0  0  0  0  0  0  0  0  0  0  0  0
  152.2354  141.3311  157.1633 H   0  0  0  0  0  0  0  0  0  0  0  0
  151.0821  142.3937  156.3566 H   0  0  0  0  0  0  0  0  0  0  0  0
  150.5063  141.0384  157.3408 H   0  0  0  0  0  0  0  0  0  0  0  0
  153.2868  142.3189  159.0398 H   0  0  0  0  0  0  0  0  0  0  0  0
  153.2090  143.8069  161.0486 H   0  0  0  0  0  0  0  0  0  0  0  0
  151.0682  145.0097  161.5605 H   0  0  0  0  0  0  0  0  0  0  0  0
  149.0533  143.5563  157.0407 H   0  0  0  0  0  0  0  0  0  0  0  0
  147.2948  143.0218  156.3538 H   0  0  0  0  0  0  0  0  0  0  0  0
  145.5618  141.1205  157.5071 H   0  0  0  0  0  0  0  0  0  0  0  0
  143.6960  142.5467  158.2737 H   0  0  0  0  0  0  0  0  0  0  0  0
  144.6706  143.9916  158.0168 H   0  0  0  0  0  0  0  0  0  0  0  0
  145.1384  142.8157  159.2428 H   0  0  0  0  0  0  0  0  0  0  0  0
  143.8462  142.2303  155.8414 H   0  0  0  0  0  0  0  0  0  0  0  0
  145.1698  143.2764  155.4009 H   0  0  0  0  0  0  0  0  0  0  0  0
  146.4826  142.6192  153.5886 H   0  0  0  0  0  0  0  0  0  0  0  0
  147.4748  141.8475  154.8108 H   0  0  0  0  0  0  0  0  0  0  0  0
  146.2885  140.4854  152.3203 H   0  0  0  0  0  0  0  0  0  0  0  0
  147.9770  140.8809  152.5804 H   0  0  0  0  0  0  0  0  0  0  0  0
  145.2871  138.7429  153.6853 H   0  0  0  0  0  0  0  0  0  0  0  0
  146.2852  137.9440  154.8852 H   0  0  0  0  0  0  0  0  0  0  0  0
  146.4067  140.0132  156.2565 H   0  0  0  0  0  0  0  0  0  0  0  0
  144.7267  139.5996  155.9522 H   0  0  0  0  0  0  0  0  0  0  0  0
  144.7143  141.1287  154.1554 H   0  0  0  0  0  0  0  0  0  0  0  0
  1  2  1  0  0  0  0
  1 21  1  0  0  0  0
  1 22  1  0  0  0  0
  1 23  1  0  0  0  0
  2  7  1  0  0  0  0
  2  3  2  0  0  0  0
  3  4  1  0  0  0  0
  3 24  1  0  0  0  0
  4  5  2  0  0  0  0
  4 25  1  0  0  0  0
  5  6  1  0  0  0  0
  5 26  1  0  0  0  0
  6  7  2  0  0  0  0
  7  8  1  0  0  0  0
  8  9  1  0  0  0  0
  8 27  1  0  0  0  0
  9 10  2  0  0  0  0
  9 11  1  0  0  0  0
 11 12  1  0  0  0  0
 11 28  1  0  0  0  0
 12 13  1  0  0  0  0
 12 14  1  0  0  0  0
 12 29  1  0  0  0  0
 13 30  1  0  0  0  0
 13 31  1  0  0  0  0
 13 32  1  0  0  0  0
 14 15  1  0  0  0  0
 14 33  1  0  0  0  0
 14 34  1  0  0  0  0
 15 20  1  0  0  0  0
 15 16  1  0  0  0  0
 15 43  1  0  0  0  0
 16 17  1  0  0  0  0
 16 35  1  0  0  0  0
 16 36  1  0  0  0  0
 17 18  1  0  0  0  0
 17 37  1  0  0  0  0
 17 38  1  0  0  0  0
 18 19  1  0  0  0  0
 19 20  1  0  0  0  0
 19 39  1  0  0  0  0
 19 40  1  0  0  0  0
 20 41  1  0  0  0  0
 20 42  1  0  0  0  0
M  CHG  1  15   1
M  END
> <s_m_source_file>
AV-unprocessed.smi

> <i_m_source_file_index>
1684

> <i_lp_mmshare_version>
43012

> <i_f3d_flags>
0

> <s_epik_input>
W0NIM11jMVtjSF1bY0hdW2NIXW5jMVtOSF1DKD1PKVtOSF1bQ0BIXShbQ0gzXSlbQ0gyXU4yW0NIMl1bQ0gyXU9bQ0gyXVtDSDJdMg==

> <s_epik_cmdline>
J2VwaWtfcHl0aG9uJywgJy1waCcsICc3LjAnLCAnLXRuJywgJzgnLCAnLW1hJywgJzIwMCcsICctbWV0YWxfYmluZGluZycsICctaW1hZScsICc8aW5maWxlLm1hZT4nLCAnLW9tYWUnLCAnPG91dGZpbGUubWFlPic=

> <r_epik_Ionization_Penalty>
0.602571

> <r_epik_Ionization_Penalty_Charging>
0.602531

> <r_epik_Ionization_Penalty_Neutral>
4.09763e-05

> <r_epik_State_Penalty>
0.617039

> <r_epik_Charging_Adjusted_Penalty>
1.21957

> <i_epik_Tot_Q>
1

> <i_epik_Tot_abs_Q>
1

> <r_epik_Metal_State_Penalty>
0.617043

> <b_epik_Metal_Only>
0

> <s_lp_Force_Field>
OPLS_2005

> <r_lp_Energy>
24.8229

> <b_lp_Chiralities_Consistent>
1

> <s_lp_Variant>
AV-unprocessed.smi:1684-4

> <Gold.Version>
5.8.1

> <Gold.Id.Protein>
6NUR|6NUR_protein|mol2

> <Gold.PLP.Fitness>
39.6226

> <Gold.PLP.PLP>
-30.5209

> <Gold.PLP.part.hbond>
-5.8246

> <Gold.PLP.part.metal>
0.0000

> <Gold.PLP.part.buried>
-2.6637

> <Gold.PLP.part.nonpolar>
-23.5075

> <Gold.PLP.part.repulsive>
0.4820

> <Gold.PLP.ligand.clash>
0.0000

> <Gold.PLP.ligand.torsion>
1.0310

> <Gold.PLP.Chemscore.Hbond>
3.7066

> <Gold.PLP.Chemscore.CHOScore>
0.0000

> <Gold.PLP.Chemscore.Metal>
0.0000

> <Gold.Chemscore.Hbonds>
donor molecule, donor type, donor heavy atom, donor atom, acceptor molecule, acceptor atom, score
      L1  H     8    27       P1  8028  1.00
      L1  H    11    28       P1  8028  0.04
      L1  H    15    43       P1 10175  1.89
      P1  H  6933  6944       L1    10  0.18
      P1  H  6934  6946       L1    10  0.62

> <Gold.PLP.Chemscore.Internal.Correction>
0.0439

> <Gold.Rescore>
     Score         DG    S(hbond)    S(metal)    S(lipo)     H(rot)  DE(clash)    DE(int)     intcor
     15.48     -17.77       2.27        0.00      73.26       1.51       0.06       2.23       ----

> <Gold.Chemscore.Fitness>
15.4819

> <Gold.Chemscore.DG>
-17.7707

> <Gold.Chemscore.ZeroCoef>
-5.4800

> <Gold.Chemscore.Hbond>
2.2678

> <Gold.Chemscore.Metal>
0.0000

> <Gold.Chemscore.Lipo>
73.2643

> <Gold.Chemscore.Internal_Hbond>
0.0000

> <Gold.Chemscore.DEClash>
0.0603

> <Gold.Chemscore.DEInternal>
2.2284

> <Gold.Chemscore.Rot>
1.5061

> <Gold.Chemscore.Internal.Correction>
   9.000000E+99

> <Gold.Chemscore.Hbonds>
donor molecule, donor type, donor heavy atom, donor atom, acceptor molecule, acceptor atom, score
      L1  H     8    27       P1  8028  0.58
      L1  H    15    43       P1 10175  0.70
      P1  H  6933  6944       L1    10  0.19
      P1  H  6934  6946       L1    10  0.58

> <Gold.Chemscore.Hbond.Weighted>
-7.5745

> <Gold.Chemscore.Metal.Weighted>
-0.0000

> <Gold.Chemscore.Lipo.Weighted>
-8.5719

> <Gold.Chemscore.Internal_Hbond.Weighted>
0.0000

> <Gold.Chemscore.DEClash.Weighted>
0.0603

> <Gold.Chemscore.DEInternal.Weighted>
2.2284

> <Gold.Chemscore.Rot.Weighted>
3.8557

> <Gold.Chemscore.Internal.Correction.Weighted>
   9.000000E+99

> <Gold.Protein.RotatedTorsions>
[ 6907 6896 6895 6894 ] final  115.61 input  -60.11 | X-H torsion
[ 7974 7965 7964 7962 ] final  176.08 input  175.53 | X-H torsion
[ 8008 7997 7996 7995 ] final  -35.04 input   59.86 | X-H torsion
[ 10167 10162 10161 10158 ] final  -10.73 input  -65.29 | X-H torsion
[ 10718 10713 10712 10709 ] final -152.34 input   66.30 | X-H torsion
[ 10763 10752 10751 10750 ] final   19.00 input  -60.55 | X-H torsion
[ 11005 11000 10999 10996 ] final   65.24 input  -57.11 | X-H torsion

> <Gold.Protein.ActiveResidues>
 VAL166  LYS551  ARG553  GLY616  TRP617  ASP618  TYR619  PRO620  LYS621  CYS622 
 ASP623  PHE694  ASN695  SER759  ASP760  ASP761  ALA762  ILE779  LEU786  VAL792 
 PHE793  MET794  SER795  GLU796  ALA797  LYS798  CYS799  TRP800  GLU811  SER814 

> <Gold.Protein.RotatedAtoms>
  152.4731  133.8075  159.6985 H   0  0  0  0  0  0  0  0  0  0  0  0  # atno 6907 bound_to 6896
  150.8731  133.7467  159.2961 H   0  0  0  0  0  0  0  0  0  0  0  0  # atno 6908 bound_to 6896
  151.4996  135.1064  159.9877 H   0  0  0  0  0  0  0  0  0  0  0  0  # atno 6909 bound_to 6896
  144.7190  140.0043  143.6440 H   0  0  0  0  0  0  0  0  0  0  0  0  # atno 7974 bound_to 7965
  154.4105  140.1668  156.2147 H   0  0  0  0  0  0  0  0  0  0  0  0  # atno 8008 bound_to 7997
  155.9414  140.3407  155.6307 H   0  0  0  0  0  0  0  0  0  0  0  0  # atno 8009 bound_to 7997
  155.6984  140.0742  157.2411 H   0  0  0  0  0  0  0  0  0  0  0  0  # atno 8010 bound_to 7997
  140.7121  143.5716  150.9086 H   0  0  0  0  0  0  0  0  0  0  0  0  # atno 10167 bound_to 10162
  156.4712  130.8259  151.2489 H   0  0  0  0  0  0  0  0  0  0  0  0  # atno 10718 bound_to 10713
  153.1200  135.6717  153.9353 H   0  0  0  0  0  0  0  0  0  0  0  0  # atno 10763 bound_to 10752
  153.8871  135.3051  155.3448 H   0  0  0  0  0  0  0  0  0  0  0  0  # atno 10764 bound_to 10752
  154.7612  135.4987  153.9547 H   0  0  0  0  0  0  0  0  0  0  0  0  # atno 10765 bound_to 10752
  139.9907  134.6596  156.0096 H   0  0  0  0  0  0  0  0  0  0  0  0  # atno 11005 bound_to 11000
  146.0310  139.3335  143.0755 LP  0  0  0  0  0  0  0  0  0  0  0  0  # atno 17320 bound_to 7965
  145.8453  140.9558  143.0778 LP  0  0  0  0  0  0  0  0  0  0  0  0  # atno 17321 bound_to 7965
  139.9442  143.6346  152.3046 LP  0  0  0  0  0  0  0  0  0  0  0  0  # atno 17342 bound_to 10162
  139.6842  144.7653  151.1554 LP  0  0  0  0  0  0  0  0  0  0  0  0  # atno 17343 bound_to 10162
  157.7491  131.0075  150.3194 LP  0  0  0  0  0  0  0  0  0  0  0  0  # atno 17370 bound_to 10713
  156.3616  130.3848  149.7246 LP  0  0  0  0  0  0  0  0  0  0  0  0  # atno 17371 bound_to 10713
  141.1563  133.6542  156.4173 LP  0  0  0  0  0  0  0  0  0  0  0  0  # atno 17394 bound_to 11000
  140.4914  134.6572  157.5212 LP  0  0  0  0  0  0  0  0  0  0  0  0  # atno 17395 bound_to 11000

$$$$
