AV-unprocessed.smi:1055|AV-procd|sdf|4625|dock1
  -GOLD-   22720 3123D 1   1.00000     0.00000
 Structure written by MMmdl.
 52 53  0  0  0  0  0  0  0  0  3 V2000
  146.3133  140.0482  157.7789 C   0  0  0  0  0  0  0  0  0  0  0  0
  146.2078  141.3775  157.9402 C   0  0  0  0  0  0  0  0  0  0  0  0
  145.0585  142.0051  158.7063 C   0  0  0  0  0  0  0  0  0  0  0  0
  147.2284  142.3445  157.3607 C   0  0  0  0  0  0  0  0  0  0  0  0
  147.3917  142.1650  155.8964 N   0  3  2  0  0  0  0  0  0  0  0  0
  146.0897  142.1728  155.1825 C   0  0  0  0  0  0  0  0  0  0  0  0
  146.2904  142.1441  153.6565 C   0  0  0  0  0  0  0  0  0  0  0  0
  147.1541  140.9530  153.2067 C   0  0  2  0  0  0  0  0  0  0  0  0
  146.4073  139.7005  153.3259 N   0  0  0  0  0  0  0  0  0  0  0  0
  146.2390  138.8058  152.3411 C   0  0  0  0  0  0  0  0  0  0  0  0
  146.7279  138.9342  151.2193 O   0  0  0  0  0  0  0  0  0  0  0  0
  145.4939  137.7638  152.7492 N   0  0  0  0  0  0  0  0  0  0  0  0
  145.0642  136.6358  151.9979 C   0  0  0  0  0  0  0  0  0  0  0  0
  144.2244  135.6997  152.6363 C   0  0  0  0  0  0  0  0  0  0  0  0
  143.7599  134.5733  151.9264 C   0  0  0  0  0  0  0  0  0  0  0  0
  144.1307  134.3918  150.5715 C   0  0  0  0  0  0  0  0  0  0  0  0
  143.7049  133.2930  149.7940 N   0  0  0  0  0  0  0  0  0  0  0  0
  143.4748  132.0006  150.4299 C   0  0  0  0  0  0  0  0  0  0  0  0
  143.4777  133.4606  148.3647 C   0  0  0  0  0  0  0  0  0  0  0  0
  144.9293  135.3245  149.9979 N   0  3  0  0  0  0  0  0  0  0  0  0
  145.3985  136.4158  150.6404 C   0  0  0  0  0  0  0  0  0  0  0  0
  148.4639  140.9196  154.0191 C   0  0  0  0  0  0  0  0  0  0  0  0
  148.2075  140.9754  155.5354 C   0  0  0  0  0  0  0  0  0  0  0  0
  145.5793  139.3727  158.1940 H   0  0  0  0  0  0  0  0  0  0  0  0
  147.1353  139.6130  157.2294 H   0  0  0  0  0  0  0  0  0  0  0  0
  144.5093  142.6961  158.0663 H   0  0  0  0  0  0  0  0  0  0  0  0
  145.4278  142.5568  159.5710 H   0  0  0  0  0  0  0  0  0  0  0  0
  144.3596  141.2480  159.0640 H   0  0  0  0  0  0  0  0  0  0  0  0
  146.9495  143.3772  157.5770 H   0  0  0  0  0  0  0  0  0  0  0  0
  148.1774  142.1634  157.8673 H   0  0  0  0  0  0  0  0  0  0  0  0
  145.4909  141.3194  155.5045 H   0  0  0  0  0  0  0  0  0  0  0  0
  145.5299  143.0696  155.4509 H   0  0  0  0  0  0  0  0  0  0  0  0
  145.3243  142.1248  153.1506 H   0  0  0  0  0  0  0  0  0  0  0  0
  146.7744  143.0713  153.3465 H   0  0  0  0  0  0  0  0  0  0  0  0
  147.3997  141.0985  152.1531 H   0  0  0  0  0  0  0  0  0  0  0  0
  145.9709  139.5128  154.2167 H   0  0  0  0  0  0  0  0  0  0  0  0
  145.2295  137.7611  153.7234 H   0  0  0  0  0  0  0  0  0  0  0  0
  143.9373  135.8375  153.6686 H   0  0  0  0  0  0  0  0  0  0  0  0
  143.1229  133.8661  152.4360 H   0  0  0  0  0  0  0  0  0  0  0  0
  144.3816  131.6471  150.9219 H   0  0  0  0  0  0  0  0  0  0  0  0
  143.1770  131.2466  149.7010 H   0  0  0  0  0  0  0  0  0  0  0  0
  142.6823  132.0770  151.1748 H   0  0  0  0  0  0  0  0  0  0  0  0
  144.3962  133.7692  147.8647 H   0  0  0  0  0  0  0  0  0  0  0  0
  142.7111  134.2144  148.1836 H   0  0  0  0  0  0  0  0  0  0  0  0
  143.1446  132.5304  147.9042 H   0  0  0  0  0  0  0  0  0  0  0  0
  146.0088  137.0679  150.0343 H   0  0  0  0  0  0  0  0  0  0  0  0
  149.0486  140.0333  153.7704 H   0  0  0  0  0  0  0  0  0  0  0  0
  149.0801  141.7733  153.7341 H   0  0  0  0  0  0  0  0  0  0  0  0
  149.1669  141.0050  156.0520 H   0  0  0  0  0  0  0  0  0  0  0  0
  147.7003  140.0685  155.8680 H   0  0  0  0  0  0  0  0  0  0  0  0
  147.8977  142.9757  155.5688 H   0  0  0  0  0  0  0  0  0  0  0  0
  145.1904  135.1975  149.0199 H   0  0  0  0  0  0  0  0  0  0  0  0
  1  2  2  0  0  0  0
  1 24  1  0  0  0  0
  1 25  1  0  0  0  0
  2  3  1  0  0  0  0
  2  4  1  0  0  0  0
  3 26  1  0  0  0  0
  3 27  1  0  0  0  0
  3 28  1  0  0  0  0
  4  5  1  0  0  0  0
  4 29  1  0  0  0  0
  4 30  1  0  0  0  0
  5 23  1  0  0  0  0
  5  6  1  0  0  0  0
  5 51  1  0  0  0  0
  6  7  1  0  0  0  0
  6 31  1  0  0  0  0
  6 32  1  0  0  0  0
  7  8  1  0  0  0  0
  7 33  1  0  0  0  0
  7 34  1  0  0  0  0
  8  9  1  0  0  0  0
  8 22  1  0  0  0  0
  8 35  1  0  0  0  0
  9 10  1  0  0  0  0
  9 36  1  0  0  0  0
 10 11  2  0  0  0  0
 10 12  1  0  0  0  0
 12 13  1  0  0  0  0
 12 37  1  0  0  0  0
 13 21  1  0  0  0  0
 13 14  2  0  0  0  0
 14 15  1  0  0  0  0
 14 38  1  0  0  0  0
 15 16  2  0  0  0  0
 15 39  1  0  0  0  0
 16 17  1  0  0  0  0
 16 20  1  0  0  0  0
 17 18  1  0  0  0  0
 17 19  1  0  0  0  0
 18 40  1  0  0  0  0
 18 41  1  0  0  0  0
 18 42  1  0  0  0  0
 19 43  1  0  0  0  0
 19 44  1  0  0  0  0
 19 45  1  0  0  0  0
 20 21  2  0  0  0  0
 20 52  1  0  0  0  0
 21 46  1  0  0  0  0
 22 23  1  0  0  0  0
 22 47  1  0  0  0  0
 22 48  1  0  0  0  0
 23 49  1  0  0  0  0
 23 50  1  0  0  0  0
M  CHG  1   5   1
M  CHG  1  20   1
M  END
> <s_m_source_file>
AV-unprocessed.smi

> <i_m_source_file_index>
1055

> <i_lp_mmshare_version>
43012

> <i_f3d_flags>
0

> <s_epik_input>
W0NIMl09QyhbQ0gzXSlbQ0gyXU4xW0NIMl1bQ0gyXVtDSF0oW0NIMl1bQ0gyXTEpW05IXUMoPU8pW05IXWMyW2NIXVtjSF1jKE4oW0NIM10pW0NIM10pbltjSF0y

> <s_epik_cmdline>
J2VwaWtfcHl0aG9uJywgJy1waCcsICc3LjAnLCAnLXRuJywgJzgnLCAnLW1hJywgJzIwMCcsICctbWV0YWxfYmluZGluZycsICctaW1hZScsICc8aW5maWxlLm1hZT4nLCAnLW9tYWUnLCAnPG91dGZpbGUubWFlPic=

> <r_lp_tautomer_probability>
0.999994

> <r_epik_Ionization_Penalty>
0.344238

> <r_epik_Ionization_Penalty_Charging>
0.344219

> <r_epik_Ionization_Penalty_Neutral>
1.87459e-05

> <r_epik_State_Penalty>
0.320654

> <r_epik_Charging_Adjusted_Penalty>
0.664873

> <i_epik_Tot_Q>
2

> <i_epik_Tot_abs_Q>
2

> <r_epik_Metal_State_Penalty>
0.58246

> <b_epik_Metal_Only>
0

> <s_lp_Force_Field>
OPLS_2005

> <r_lp_Energy>
26.4869

> <b_lp_Chiralities_Consistent>
1

> <s_lp_Variant>
AV-unprocessed.smi:1055-2

> <Gold.Version>
5.8.1

> <Gold.Id.Protein>
6NUR|6NUR_protein|mol2

> <Gold.PLP.Fitness>
50.0518

> <Gold.PLP.PLP>
-39.1028

> <Gold.PLP.part.hbond>
-3.5865

> <Gold.PLP.part.metal>
0.0000

> <Gold.PLP.part.buried>
-4.2124

> <Gold.PLP.part.nonpolar>
-32.8034

> <Gold.PLP.part.repulsive>
2.5076

> <Gold.PLP.ligand.clash>
0.0000

> <Gold.PLP.ligand.torsion>
0.5993

> <Gold.PLP.Chemscore.Hbond>
4.0000

> <Gold.PLP.Chemscore.CHOScore>
0.0000

> <Gold.PLP.Chemscore.Metal>
0.0000

> <Gold.Chemscore.Hbonds>
donor molecule, donor type, donor heavy atom, donor atom, acceptor molecule, acceptor atom, score
      L1  H     5    51       P1  8028  2.00
      L1  H    20    52       P1  7921  1.00
      P1  H  7954  7966       L1    11  0.49

> <Gold.PLP.Chemscore.Internal.Correction>
0.1475

> <Gold.Rescore>
     Score         DG    S(hbond)    S(metal)    S(lipo)     H(rot)  DE(clash)    DE(int)     intcor
     17.05     -20.05       2.63        0.00      78.93       1.35       1.12       1.88       ----

> <Gold.Chemscore.Fitness>
17.0546

> <Gold.Chemscore.DG>
-20.0546

> <Gold.Chemscore.ZeroCoef>
-5.4800

> <Gold.Chemscore.Hbond>
2.6308

> <Gold.Chemscore.Metal>
0.0000

> <Gold.Chemscore.Lipo>
78.9292

> <Gold.Chemscore.Internal_Hbond>
0.0000

> <Gold.Chemscore.DEClash>
1.1157

> <Gold.Chemscore.DEInternal>
1.8843

> <Gold.Chemscore.Rot>
1.3465

> <Gold.Chemscore.Internal.Correction>
   9.000000E+99

> <Gold.Chemscore.Hbonds>
donor molecule, donor type, donor heavy atom, donor atom, acceptor molecule, acceptor atom, score
      L1  H     5    51       P1  8028  0.68
      L1  H    20    52       P1  7921  1.00
      P1  H  7954  7966       L1    11  0.46

> <Gold.Chemscore.Hbond.Weighted>
-8.7869

> <Gold.Chemscore.Metal.Weighted>
-0.0000

> <Gold.Chemscore.Lipo.Weighted>
-9.2347

> <Gold.Chemscore.Internal_Hbond.Weighted>
0.0000

> <Gold.Chemscore.DEClash.Weighted>
1.1157

> <Gold.Chemscore.DEInternal.Weighted>
1.8843

> <Gold.Chemscore.Rot.Weighted>
3.4470

> <Gold.Chemscore.Internal.Correction.Weighted>
   9.000000E+99

> <Gold.Protein.RotatedTorsions>
[ 6907 6896 6895 6894 ] final -114.13 input  -60.11 | X-H torsion
[ 7974 7965 7964 7962 ] final -109.10 input  175.53 | X-H torsion
[ 8008 7997 7996 7995 ] final  146.74 input   59.86 | X-H torsion
[ 10167 10162 10161 10158 ] final   70.75 input  -65.29 | X-H torsion
[ 10718 10713 10712 10709 ] final   96.25 input   66.30 | X-H torsion
[ 10763 10752 10751 10750 ] final  101.69 input  -60.55 | X-H torsion
[ 11005 11000 10999 10996 ] final  -72.88 input  -57.11 | X-H torsion

> <Gold.Protein.ActiveResidues>
 VAL166  LYS551  ARG553  GLY616  TRP617  ASP618  TYR619  PRO620  LYS621  CYS622 
 ASP623  PHE694  ASN695  SER759  ASP760  ASP761  ALA762  ILE779  LEU786  VAL792 
 PHE793  MET794  SER795  GLU796  ALA797  LYS798  CYS799  TRP800  GLU811  SER814 

> <Gold.Protein.RotatedAtoms>
  150.7879  133.8846  159.3295 H   0  0  0  0  0  0  0  0  0  0  0  0  # atno 6907 bound_to 6896
  151.6691  135.0977  160.0204 H   0  0  0  0  0  0  0  0  0  0  0  0  # atno 6908 bound_to 6896
  152.3947  133.6691  159.6302 H   0  0  0  0  0  0  0  0  0  0  0  0  # atno 6909 bound_to 6896
  145.1847  140.8987  143.3459 H   0  0  0  0  0  0  0  0  0  0  0  0  # atno 7974 bound_to 7965
  156.2846  140.2174  156.5425 H   0  0  0  0  0  0  0  0  0  0  0  0  # atno 8008 bound_to 7997
  154.7358  140.0491  157.0789 H   0  0  0  0  0  0  0  0  0  0  0  0  # atno 8009 bound_to 7997
  155.0294  140.3133  155.4767 H   0  0  0  0  0  0  0  0  0  0  0  0  # atno 8010 bound_to 7997
  140.0536  144.5291  150.7345 H   0  0  0  0  0  0  0  0  0  0  0  0  # atno 10167 bound_to 10162
  157.6929  131.0572  150.4463 H   0  0  0  0  0  0  0  0  0  0  0  0  # atno 10718 bound_to 10713
  153.3299  135.4036  155.1486 H   0  0  0  0  0  0  0  0  0  0  0  0  # atno 10763 bound_to 10752
  154.8620  135.3608  154.5485 H   0  0  0  0  0  0  0  0  0  0  0  0  # atno 10764 bound_to 10752
  153.5923  135.7073  153.5477 H   0  0  0  0  0  0  0  0  0  0  0  0  # atno 10765 bound_to 10752
  141.1615  133.6860  156.7126 H   0  0  0  0  0  0  0  0  0  0  0  0  # atno 11005 bound_to 11000
  145.0101  139.3518  143.6124 LP  0  0  0  0  0  0  0  0  0  0  0  0  # atno 17320 bound_to 7965
  146.3447  139.9360  142.8747 LP  0  0  0  0  0  0  0  0  0  0  0  0  # atno 17321 bound_to 7965
  140.7205  143.2584  151.4294 LP  0  0  0  0  0  0  0  0  0  0  0  0  # atno 17342 bound_to 10162
  139.5937  144.1443  152.2119 LP  0  0  0  0  0  0  0  0  0  0  0  0  # atno 17343 bound_to 10162
  156.4818  130.4075  149.6457 LP  0  0  0  0  0  0  0  0  0  0  0  0  # atno 17370 bound_to 10713
  156.3500  130.7427  151.2385 LP  0  0  0  0  0  0  0  0  0  0  0  0  # atno 17371 bound_to 10713
  140.2875  134.8267  157.3988 LP  0  0  0  0  0  0  0  0  0  0  0  0  # atno 17394 bound_to 11000
  140.1376  134.5013  155.8056 LP  0  0  0  0  0  0  0  0  0  0  0  0  # atno 17395 bound_to 11000

$$$$
