AV-unprocessed.smi:1987|AV-procd|sdf|8056|dock7
  -GOLD-   2272010263D 1   1.00000     0.00000
 Structure written by MMmdl.
 37 39  0  0  0  0  0  0  0  0  2 V2000
  150.6620  135.4339  156.4047 O   0  0  0  0  0  0  0  0  0  0  0  0
  150.2092  135.8014  155.3209 C   0  0  0  0  0  0  0  0  0  0  0  0
  150.2602  137.2773  154.9294 C   0  0  0  0  0  0  0  0  0  0  0  0
  151.5926  137.8088  155.1453 N   0  0  0  0  0  0  0  0  0  0  0  0
  152.1101  139.0107  154.8835 C   0  0  0  0  0  0  0  0  0  0  0  0
  153.3726  139.0945  155.2746 N   0  0  0  0  0  0  0  0  0  0  0  0
  153.6212  137.8412  155.8091 N   0  0  0  0  0  0  0  0  0  0  0  0
  152.5686  137.0739  155.7358 N   0  0  0  0  0  0  0  0  0  0  0  0
  149.6866  134.9633  154.4129 N   0  0  0  0  0  0  0  0  0  0  0  0
  149.6662  133.5100  154.5254 C   0  0  0  0  0  0  0  0  0  0  0  0
  148.3262  132.9209  154.0415 C   0  0  2  0  0  0  0  0  0  0  0  0
  148.2083  131.4023  154.1655 C   0  0  0  0  0  0  0  0  0  0  0  0
  147.0698  131.0818  153.2020 C   0  0  0  0  0  0  0  0  0  0  0  0
  147.2295  132.0266  152.0756 N   0  3  1  0  0  0  0  0  0  0  0  0
  145.9571  132.4016  151.4228 C   0  0  0  0  0  0  0  0  0  0  0  0
  145.1106  131.2166  151.0237 C   0  0  0  0  0  0  0  0  0  0  0  0
  145.8790  131.9883  149.9726 C   0  0  0  0  0  0  0  0  0  0  0  0
  148.0266  133.1793  152.5586 C   0  0  0  0  0  0  0  0  0  0  0  0
  149.9822  137.4053  153.8821 H   0  0  0  0  0  0  0  0  0  0  0  0
  149.5496  137.8495  155.5275 H   0  0  0  0  0  0  0  0  0  0  0  0
  151.5639  139.8191  154.4198 H   0  0  0  0  0  0  0  0  0  0  0  0
  149.3309  135.3590  153.5541 H   0  0  0  0  0  0  0  0  0  0  0  0
  150.4972  133.0795  153.9639 H   0  0  0  0  0  0  0  0  0  0  0  0
  149.8332  133.2534  155.5719 H   0  0  0  0  0  0  0  0  0  0  0  0
  147.5145  133.3629  154.6222 H   0  0  0  0  0  0  0  0  0  0  0  0
  149.1282  130.9197  153.8325 H   0  0  0  0  0  0  0  0  0  0  0  0
  148.0020  131.0726  155.1848 H   0  0  0  0  0  0  0  0  0  0  0  0
  147.0857  130.0460  152.8619 H   0  0  0  0  0  0  0  0  0  0  0  0
  146.1146  131.2570  153.7003 H   0  0  0  0  0  0  0  0  0  0  0  0
  145.4914  133.3262  151.7605 H   0  0  0  0  0  0  0  0  0  0  0  0
  145.4669  130.2197  151.2769 H   0  0  0  0  0  0  0  0  0  0  0  0
  144.0298  131.3423  151.0425 H   0  0  0  0  0  0  0  0  0  0  0  0
  145.3039  132.6217  149.3002 H   0  0  0  0  0  0  0  0  0  0  0  0
  146.7465  131.5044  149.5271 H   0  0  0  0  0  0  0  0  0  0  0  0
  147.5125  134.1317  152.4196 H   0  0  0  0  0  0  0  0  0  0  0  0
  148.9464  133.2164  151.9738 H   0  0  0  0  0  0  0  0  0  0  0  0
  147.7980  131.5607  151.3827 H   0  0  0  0  0  0  0  0  0  0  0  0
  1  2  2  0  0  0  0
  2  3  1  0  0  0  0
  2  9  1  0  0  0  0
  3  4  1  0  0  0  0
  3 19  1  0  0  0  0
  3 20  1  0  0  0  0
  4  8  1  0  0  0  0
  4  5  1  0  0  0  0
  5  6  2  0  0  0  0
  5 21  1  0  0  0  0
  6  7  1  0  0  0  0
  7  8  2  0  0  0  0
  9 10  1  0  0  0  0
  9 22  1  0  0  0  0
 10 11  1  0  0  0  0
 10 23  1  0  0  0  0
 10 24  1  0  0  0  0
 11 18  1  0  0  0  0
 11 12  1  0  0  0  0
 11 25  1  0  0  0  0
 12 13  1  0  0  0  0
 12 26  1  0  0  0  0
 12 27  1  0  0  0  0
 13 14  1  0  0  0  0
 13 28  1  0  0  0  0
 13 29  1  0  0  0  0
 14 15  1  0  0  0  0
 14 18  1  0  0  0  0
 14 37  1  0  0  0  0
 15 17  1  0  0  0  0
 15 16  1  0  0  0  0
 15 30  1  0  0  0  0
 16 17  1  0  0  0  0
 16 31  1  0  0  0  0
 16 32  1  0  0  0  0
 17 33  1  0  0  0  0
 17 34  1  0  0  0  0
 18 35  1  0  0  0  0
 18 36  1  0  0  0  0
M  CHG  1  14   1
M  END
> <s_m_source_file>
AV-unprocessed.smi

> <i_m_source_file_index>
1987

> <i_lp_mmshare_version>
43012

> <i_f3d_flags>
0

> <s_epik_input>
bjFubltjSF1uMVtDSDJdQyg9TylbTkhdW0NIMl1bQ0BASF0yW0NIMl1bQ0gyXU4oW0NIMl0yKVtDSF0zW0NIMl1bQ0gyXTM=

> <s_epik_cmdline>
J2VwaWtfcHl0aG9uJywgJy1waCcsICc3LjAnLCAnLXRuJywgJzgnLCAnLW1hJywgJzIwMCcsICctbWV0YWxfYmluZGluZycsICctaW1hZScsICc8aW5maWxlLm1hZT4nLCAnLW9tYWUnLCAnPG91dGZpbGUubWFlPic=

> <r_lp_tautomer_probability>
1

> <r_epik_Ionization_Penalty>
0.000242849

> <r_epik_Ionization_Penalty_Charging>
0.000241326

> <r_epik_Ionization_Penalty_Neutral>
1.52322e-06

> <r_epik_State_Penalty>
-0

> <r_epik_Charging_Adjusted_Penalty>
0.000241326

> <i_epik_Tot_Q>
1

> <i_epik_Tot_abs_Q>
1

> <r_epik_Metal_State_Penalty>
-0

> <b_epik_Metal_Only>
0

> <s_lp_Force_Field>
OPLS_2005

> <r_lp_Energy>
38.2804

> <b_lp_Chiralities_Consistent>
1

> <s_lp_Variant>
AV-unprocessed.smi:1987-3

> <Gold.Version>
5.8.1

> <Gold.Id.Protein>
6NUR|6NUR_protein|mol2

> <Gold.PLP.Fitness>
46.1519

> <Gold.PLP.PLP>
-35.6342

> <Gold.PLP.part.hbond>
-5.5029

> <Gold.PLP.part.metal>
0.0000

> <Gold.PLP.part.buried>
-5.4405

> <Gold.PLP.part.nonpolar>
-25.2967

> <Gold.PLP.part.repulsive>
0.0690

> <Gold.PLP.ligand.clash>
0.0000

> <Gold.PLP.ligand.torsion>
1.0324

> <Gold.PLP.Chemscore.Hbond>
3.7680

> <Gold.PLP.Chemscore.CHOScore>
0.0000

> <Gold.PLP.Chemscore.Metal>
0.0000

> <Gold.Chemscore.Hbonds>
donor molecule, donor type, donor heavy atom, donor atom, acceptor molecule, acceptor atom, score
      L1  H     9    22       P1  7948  1.00
      L1  H    14    37       P1 10747  1.00
      P1  H  7997  8008       L1     6  1.00
      P1  H 10752 10765       L1     8  0.75

> <Gold.PLP.Chemscore.Internal.Correction>
1.2785

> <Gold.Rescore>
     Score         DG    S(hbond)    S(metal)    S(lipo)     H(rot)  DE(clash)    DE(int)     intcor
     13.46     -16.40       3.07        0.00      63.06       2.62       0.09       2.85       ----

> <Gold.Chemscore.Fitness>
13.4556

> <Gold.Chemscore.DG>
-16.3995

> <Gold.Chemscore.ZeroCoef>
-5.4800

> <Gold.Chemscore.Hbond>
3.0720

> <Gold.Chemscore.Metal>
0.0000

> <Gold.Chemscore.Lipo>
63.0562

> <Gold.Chemscore.Internal_Hbond>
0.0000

> <Gold.Chemscore.DEClash>
0.0939

> <Gold.Chemscore.DEInternal>
2.8500

> <Gold.Chemscore.Rot>
2.6244

> <Gold.Chemscore.Internal.Correction>
   9.000000E+99

> <Gold.Chemscore.Hbonds>
donor molecule, donor type, donor heavy atom, donor atom, acceptor molecule, acceptor atom, score
      L1  H     9    22       P1  7948  0.26
      L1  H    14    37       P1 10747  1.00
      P1  H  7997  8008       L1     6  0.73
      P1  H 10752 10765       L1     8  0.41

> <Gold.Chemscore.Hbond.Weighted>
-10.2605

> <Gold.Chemscore.Metal.Weighted>
-0.0000

> <Gold.Chemscore.Lipo.Weighted>
-7.3776

> <Gold.Chemscore.Internal_Hbond.Weighted>
0.0000

> <Gold.Chemscore.DEClash.Weighted>
0.0939

> <Gold.Chemscore.DEInternal.Weighted>
2.8500

> <Gold.Chemscore.Rot.Weighted>
6.7186

> <Gold.Chemscore.Internal.Correction.Weighted>
   9.000000E+99

> <Gold.Protein.RotatedTorsions>
[ 6907 6896 6895 6894 ] final -110.45 input  -60.11 | X-H torsion
[ 7974 7965 7964 7962 ] final  163.92 input  175.53 | X-H torsion
[ 8008 7997 7996 7995 ] final  -12.45 input   59.86 | X-H torsion
[ 10167 10162 10161 10158 ] final  -53.19 input  -65.29 | X-H torsion
[ 10718 10713 10712 10709 ] final -139.04 input   66.30 | X-H torsion
[ 10763 10752 10751 10750 ] final -156.65 input  -60.55 | X-H torsion
[ 11005 11000 10999 10996 ] final  111.07 input  -57.11 | X-H torsion

> <Gold.Protein.ActiveResidues>
 VAL166  LYS551  ARG553  GLY616  TRP617  ASP618  TYR619  PRO620  LYS621  CYS622 
 ASP623  PHE694  ASN695  SER759  ASP760  ASP761  ALA762  ILE779  LEU786  VAL792 
 PHE793  MET794  SER795  GLU796  ALA797  LYS798  CYS799  TRP800  GLU811  SER814 

> <Gold.Protein.RotatedAtoms>
  150.7626  133.9379  159.3446 H   0  0  0  0  0  0  0  0  0  0  0  0  # atno 6907 bound_to 6896
  151.7285  135.0878  160.0305 H   0  0  0  0  0  0  0  0  0  0  0  0  # atno 6908 bound_to 6896
  152.3605  133.6253  159.6047 H   0  0  0  0  0  0  0  0  0  0  0  0  # atno 6909 bound_to 6896
  144.7568  139.8252  143.6347 H   0  0  0  0  0  0  0  0  0  0  0  0  # atno 7974 bound_to 7965
  154.5376  140.2275  155.8696 H   0  0  0  0  0  0  0  0  0  0  0  0  # atno 8008 bound_to 7997
  156.1827  140.3096  155.9141 H   0  0  0  0  0  0  0  0  0  0  0  0  # atno 8009 bound_to 7997
  155.3323  140.0446  157.3033 H   0  0  0  0  0  0  0  0  0  0  0  0  # atno 8010 bound_to 7997
  140.6498  143.2558  151.4756 H   0  0  0  0  0  0  0  0  0  0  0  0  # atno 10167 bound_to 10162
  156.3062  130.7456  151.1520 H   0  0  0  0  0  0  0  0  0  0  0  0  # atno 10718 bound_to 10713
  154.7697  135.3141  154.8215 H   0  0  0  0  0  0  0  0  0  0  0  0  # atno 10763 bound_to 10752
  153.8954  135.6821  153.4762 H   0  0  0  0  0  0  0  0  0  0  0  0  # atno 10764 bound_to 10752
  153.1308  135.4781  154.9280 H   0  0  0  0  0  0  0  0  0  0  0  0  # atno 10765 bound_to 10752
  139.8895  134.9499  156.6376 H   0  0  0  0  0  0  0  0  0  0  0  0  # atno 11005 bound_to 11000
  146.1587  139.4693  143.0002 LP  0  0  0  0  0  0  0  0  0  0  0  0  # atno 17320 bound_to 7965
  145.6753  141.0206  143.1636 LP  0  0  0  0  0  0  0  0  0  0  0  0  # atno 17321 bound_to 7965
  139.5712  144.1925  152.1838 LP  0  0  0  0  0  0  0  0  0  0  0  0  # atno 17342 bound_to 10162
  140.1221  144.5364  150.6856 LP  0  0  0  0  0  0  0  0  0  0  0  0  # atno 17343 bound_to 10162
  157.7380  131.0546  150.5321 LP  0  0  0  0  0  0  0  0  0  0  0  0  # atno 17370 bound_to 10713
  156.5455  130.4218  149.6133 LP  0  0  0  0  0  0  0  0  0  0  0  0  # atno 17371 bound_to 10713
  140.7618  133.8811  155.8424 LP  0  0  0  0  0  0  0  0  0  0  0  0  # atno 17394 bound_to 11000
  140.9915  134.1272  157.4403 LP  0  0  0  0  0  0  0  0  0  0  0  0  # atno 17395 bound_to 11000

$$$$
