AV-unprocessed.smi:2478|AV-procd|sdf|9763|dock5
  -GOLD-   2272013403D 1   1.00000     0.00000
 Structure written by MMmdl.
 42 43  0  0  0  0  0  0  0  0  1 V2000
  147.4685  141.7412  154.1572 C   0  0  0  0  0  0  0  0  0  0  0  0
  148.4532  140.6917  154.6982 C   0  0  2  0  0  0  0  0  0  0  0  0
  149.7102  141.3731  155.2766 C   0  0  0  0  0  0  0  0  0  0  0  0
  150.7174  140.3476  155.8183 C   0  0  0  0  0  0  0  0  0  0  0  0
  151.1050  139.3324  154.7348 C   0  0  0  0  0  0  0  0  0  0  0  0
  149.8618  138.6379  154.1606 C   0  0  0  0  0  0  0  0  0  0  0  0
  148.8398  139.6584  153.6153 C   0  0  1  0  0  0  0  0  0  0  0  0
  147.6570  138.9743  153.2196 O   0  0  0  0  0  0  0  0  0  0  0  0
  147.1795  138.0321  154.1689 C   0  0  0  0  0  0  0  0  0  0  0  0
  146.1184  137.1606  153.5001 C   0  0  0  0  0  0  0  0  0  0  0  0
  144.9639  137.5780  153.4085 O   0  0  0  0  0  0  0  0  0  0  0  0
  146.5416  135.9665  153.0454 N   0  0  0  0  0  0  0  0  0  0  0  0
  145.7870  134.9421  152.4103 C   0  0  0  0  0  0  0  0  0  0  0  0
  144.4988  135.1071  152.0182 N   0  0  0  0  0  0  0  0  0  0  0  0
  143.8480  134.0820  151.4324 C   0  0  0  0  0  0  0  0  0  0  0  0
  144.4395  132.8278  151.2060 C   0  0  0  0  0  0  0  0  0  0  0  0
  145.7738  132.6423  151.6062 C   0  0  0  0  0  0  0  0  0  0  0  0
  146.4710  133.7161  152.2110 C   0  0  0  0  0  0  0  0  0  0  0  0
  147.7754  133.5972  152.6406 O   0  0  0  0  0  0  0  0  0  0  0  0
  148.0914  132.6298  153.5421 C   0  0  0  0  0  0  0  0  0  0  0  0
  149.3869  132.7593  153.9167 F   0  0  0  0  0  0  0  0  0  0  0  0
  147.3278  132.7528  154.6554 F   0  0  0  0  0  0  0  0  0  0  0  0
  147.9031  142.3033  153.3300 H   0  0  0  0  0  0  0  0  0  0  0  0
  147.1897  142.4542  154.9333 H   0  0  0  0  0  0  0  0  0  0  0  0
  146.5501  141.2769  153.7971 H   0  0  0  0  0  0  0  0  0  0  0  0
  147.9574  140.1600  155.5119 H   0  0  0  0  0  0  0  0  0  0  0  0
  150.1897  141.9778  154.5055 H   0  0  0  0  0  0  0  0  0  0  0  0
  149.4277  142.0607  156.0745 H   0  0  0  0  0  0  0  0  0  0  0  0
  151.6084  140.8579  156.1848 H   0  0  0  0  0  0  0  0  0  0  0  0
  150.2857  139.8254  156.6733 H   0  0  0  0  0  0  0  0  0  0  0  0
  151.6454  139.8387  153.9337 H   0  0  0  0  0  0  0  0  0  0  0  0
  151.7876  138.5894  155.1483 H   0  0  0  0  0  0  0  0  0  0  0  0
  150.1690  137.9447  153.3779 H   0  0  0  0  0  0  0  0  0  0  0  0
  149.3933  138.0338  154.9387 H   0  0  0  0  0  0  0  0  0  0  0  0
  149.2708  140.1930  152.7662 H   0  0  0  0  0  0  0  0  0  0  0  0
  148.0047  137.4180  154.5347 H   0  0  0  0  0  0  0  0  0  0  0  0
  146.7283  138.5291  155.0276 H   0  0  0  0  0  0  0  0  0  0  0  0
  147.5221  135.7630  153.1735 H   0  0  0  0  0  0  0  0  0  0  0  0
  142.8246  134.2663  151.1408 H   0  0  0  0  0  0  0  0  0  0  0  0
  143.8831  132.0276  150.7408 H   0  0  0  0  0  0  0  0  0  0  0  0
  146.2453  131.6834  151.4515 H   0  0  0  0  0  0  0  0  0  0  0  0
  147.9638  131.6310  153.1238 H   0  0  0  0  0  0  0  0  0  0  0  0
  1  2  1  0  0  0  0
  1 23  1  0  0  0  0
  1 24  1  0  0  0  0
  1 25  1  0  0  0  0
  2  7  1  0  0  0  0
  2  3  1  0  0  0  0
  2 26  1  0  0  0  0
  3  4  1  0  0  0  0
  3 27  1  0  0  0  0
  3 28  1  0  0  0  0
  4  5  1  0  0  0  0
  4 29  1  0  0  0  0
  4 30  1  0  0  0  0
  5  6  1  0  0  0  0
  5 31  1  0  0  0  0
  5 32  1  0  0  0  0
  6  7  1  0  0  0  0
  6 33  1  0  0  0  0
  6 34  1  0  0  0  0
  7  8  1  0  0  0  0
  7 35  1  0  0  0  0
  8  9  1  0  0  0  0
  9 10  1  0  0  0  0
  9 36  1  0  0  0  0
  9 37  1  0  0  0  0
 10 11  2  0  0  0  0
 10 12  1  0  0  0  0
 12 13  1  0  0  0  0
 12 38  1  0  0  0  0
 13 18  1  0  0  0  0
 13 14  2  0  0  0  0
 14 15  1  0  0  0  0
 15 16  2  0  0  0  0
 15 39  1  0  0  0  0
 16 17  1  0  0  0  0
 16 40  1  0  0  0  0
 17 18  2  0  0  0  0
 17 41  1  0  0  0  0
 18 19  1  0  0  0  0
 19 20  1  0  0  0  0
 20 21  1  0  0  0  0
 20 22  1  0  0  0  0
 20 42  1  0  0  0  0
M  END
> <s_m_source_file>
AV-unprocessed.smi

> <i_m_source_file_index>
2478

> <i_lp_mmshare_version>
43012

> <i_f3d_flags>
0

> <s_epik_input>
W0NIM11bQ0BASF0xW0NIMl1bQ0gyXVtDSDJdW0NIMl1bQ0BIXTFPW0NIMl1DKD1PKVtOSF1jMm5bY0hdW2NIXVtjSF1jMk9bQ0hdKEYpRg==

> <s_epik_cmdline>
J2VwaWtfcHl0aG9uJywgJy1waCcsICc3LjAnLCAnLXRuJywgJzgnLCAnLW1hJywgJzIwMCcsICctbWV0YWxfYmluZGluZycsICctaW1hZScsICc8aW5maWxlLm1hZT4nLCAnLW9tYWUnLCAnPG91dGZpbGUubWFlPic=

> <r_lp_tautomer_probability>
1

> <r_epik_Ionization_Penalty>
6.06012e-05

> <r_epik_Ionization_Penalty_Charging>
0

> <r_epik_Ionization_Penalty_Neutral>
6.06012e-05

> <r_epik_State_Penalty>
-0

> <r_epik_Charging_Adjusted_Penalty>
0

> <i_epik_Tot_Q>
0

> <i_epik_Tot_abs_Q>
0

> <r_epik_Metal_State_Penalty>
-0

> <b_epik_Metal_Only>
0

> <s_lp_Force_Field>
OPLS_2005

> <r_lp_Energy>
14.0723

> <b_lp_Chiralities_Consistent>
1

> <s_lp_Variant>
AV-unprocessed.smi:2478-1

> <Gold.Version>
5.8.1

> <Gold.Id.Protein>
6NUR|6NUR_protein|mol2

> <Gold.PLP.Fitness>
38.4332

> <Gold.PLP.PLP>
-34.8218

> <Gold.PLP.part.hbond>
-1.0000

> <Gold.PLP.part.metal>
0.0000

> <Gold.PLP.part.buried>
-1.4077

> <Gold.PLP.part.nonpolar>
-34.1363

> <Gold.PLP.part.repulsive>
3.0584

> <Gold.PLP.ligand.clash>
0.0063

> <Gold.PLP.ligand.torsion>
0.4772

> <Gold.PLP.Chemscore.Hbond>
0.4960

> <Gold.PLP.Chemscore.CHOScore>
1.0000

> <Gold.PLP.Chemscore.Metal>
0.0000

> <Gold.Chemscore.Hbonds>
donor molecule, donor type, donor heavy atom, donor atom, acceptor molecule, acceptor atom, score
      L1  H    12    38       P1  7948  0.50
      L1  C    15    39       P1 10186  1.00

> <Gold.PLP.Chemscore.Internal.Correction>
0.0843

> <Gold.Rescore>
     Score         DG    S(hbond)    S(metal)    S(lipo)     H(rot)  DE(clash)    DE(int)     intcor
      8.57     -11.82       0.47        0.00      81.14       1.85       1.44       1.80       ----

> <Gold.Chemscore.Fitness>
8.5735

> <Gold.Chemscore.DG>
-11.8180

> <Gold.Chemscore.ZeroCoef>
-5.4800

> <Gold.Chemscore.Hbond>
0.4717

> <Gold.Chemscore.Metal>
0.0000

> <Gold.Chemscore.Lipo>
81.1419

> <Gold.Chemscore.Internal_Hbond>
0.0000

> <Gold.Chemscore.DEClash>
1.4417

> <Gold.Chemscore.DEInternal>
1.8028

> <Gold.Chemscore.Rot>
1.8481

> <Gold.Chemscore.Internal.Correction>
   9.000000E+99

> <Gold.Chemscore.Hbonds>
donor molecule, donor type, donor heavy atom, donor atom, acceptor molecule, acceptor atom, score
      L1  H    12    38       P1  7948  0.48

> <Gold.Chemscore.Hbond.Weighted>
-1.5755

> <Gold.Chemscore.Metal.Weighted>
-0.0000

> <Gold.Chemscore.Lipo.Weighted>
-9.4936

> <Gold.Chemscore.Internal_Hbond.Weighted>
0.0000

> <Gold.Chemscore.DEClash.Weighted>
1.4417

> <Gold.Chemscore.DEInternal.Weighted>
1.8028

> <Gold.Chemscore.Rot.Weighted>
4.7311

> <Gold.Chemscore.Internal.Correction.Weighted>
   9.000000E+99

> <Gold.Protein.RotatedTorsions>
[ 6907 6896 6895 6894 ] final   36.35 input  -60.11 | X-H torsion
[ 7974 7965 7964 7962 ] final   59.45 input  175.53 | X-H torsion
[ 8008 7997 7996 7995 ] final  -55.25 input   59.86 | X-H torsion
[ 10167 10162 10161 10158 ] final   99.51 input  -65.29 | X-H torsion
[ 10718 10713 10712 10709 ] final  -10.03 input   66.30 | X-H torsion
[ 10763 10752 10751 10750 ] final -144.00 input  -60.55 | X-H torsion
[ 11005 11000 10999 10996 ] final  174.81 input  -57.11 | X-H torsion

> <Gold.Protein.ActiveResidues>
 VAL166  LYS551  ARG553  GLY616  TRP617  ASP618  TYR619  PRO620  LYS621  CYS622 
 ASP623  PHE694  ASN695  SER759  ASP760  ASP761  ALA762  ILE779  LEU786  VAL792 
 PHE793  MET794  SER795  GLU796  ALA797  LYS798  CYS799  TRP800  GLU811  SER814 

> <Gold.Protein.RotatedAtoms>
  152.1286  134.9152  160.0559 H   0  0  0  0  0  0  0  0  0  0  0  0  # atno 6907 bound_to 6896
  152.0265  133.3915  159.4288 H   0  0  0  0  0  0  0  0  0  0  0  0  # atno 6908 bound_to 6896
  150.6854  134.3489  159.4944 H   0  0  0  0  0  0  0  0  0  0  0  0  # atno 6909 bound_to 6896
  145.9070  139.3625  143.0558 H   0  0  0  0  0  0  0  0  0  0  0  0  # atno 7974 bound_to 7965
  154.4189  140.1157  156.5447 H   0  0  0  0  0  0  0  0  0  0  0  0  # atno 8008 bound_to 7997
  155.6472  140.3496  155.4716 H   0  0  0  0  0  0  0  0  0  0  0  0  # atno 8009 bound_to 7997
  155.9822  140.1162  157.0705 H   0  0  0  0  0  0  0  0  0  0  0  0  # atno 8010 bound_to 7997
  139.7611  144.6954  151.0291 H   0  0  0  0  0  0  0  0  0  0  0  0  # atno 10167 bound_to 10162
  156.6794  130.5032  149.5976 H   0  0  0  0  0  0  0  0  0  0  0  0  # atno 10718 bound_to 10713
  154.8447  135.3452  154.6276 H   0  0  0  0  0  0  0  0  0  0  0  0  # atno 10763 bound_to 10752
  153.6886  135.6976  153.5101 H   0  0  0  0  0  0  0  0  0  0  0  0  # atno 10764 bound_to 10752
  153.2613  135.4322  155.0852 H   0  0  0  0  0  0  0  0  0  0  0  0  # atno 10765 bound_to 10752
  140.3553  134.7160  157.4295 H   0  0  0  0  0  0  0  0  0  0  0  0  # atno 11005 bound_to 11000
  145.8719  140.9415  143.0646 LP  0  0  0  0  0  0  0  0  0  0  0  0  # atno 17320 bound_to 7965
  144.6740  140.0666  143.7474 LP  0  0  0  0  0  0  0  0  0  0  0  0  # atno 17321 bound_to 7965
  140.7807  143.4696  151.0165 LP  0  0  0  0  0  0  0  0  0  0  0  0  # atno 17342 bound_to 10162
  139.8382  143.7599  152.3180 LP  0  0  0  0  0  0  0  0  0  0  0  0  # atno 17343 bound_to 10162
  156.1879  130.6541  151.1028 LP  0  0  0  0  0  0  0  0  0  0  0  0  # atno 17370 bound_to 10713
  157.7049  131.0760  150.6699 LP  0  0  0  0  0  0  0  0  0  0  0  0  # atno 17371 bound_to 10713
  140.0670  134.5916  155.8684 LP  0  0  0  0  0  0  0  0  0  0  0  0  # atno 17394 bound_to 11000
  141.2000  133.6610  156.5874 LP  0  0  0  0  0  0  0  0  0  0  0  0  # atno 17395 bound_to 11000

$$$$
