AV-unprocessed.smi:2413|AV-procd|sdf|9537|dock6
  -GOLD-   2272013173D 1   1.00000     0.00000
 Structure written by MMmdl.
 46 47  0  0  0  0  0  0  0  0  2 V2000
  150.1039  144.3248  159.7859 C   0  0  0  0  0  0  0  0  0  0  0  0
  151.3151  143.5115  159.3410 C   0  0  0  0  0  0  0  0  0  0  0  0
  152.4499  143.9102  159.6004 O   0  0  0  0  0  0  0  0  0  0  0  0
  151.0632  142.3730  158.6774 N   0  0  0  0  0  0  0  0  0  0  0  0
  152.0766  141.4513  158.1737 C   0  0  0  0  0  0  0  0  0  0  0  0
  151.4722  140.2978  157.3516 C   0  0  1  0  0  0  0  0  0  0  0  0
  150.2647  140.7314  156.4926 C   0  0  0  0  0  0  0  0  0  0  0  0
  149.8104  139.6170  155.6717 N   0  0  0  0  0  0  0  0  0  0  0  0
  148.6368  139.8905  154.9592 C   0  0  0  0  0  0  0  0  0  0  0  0
  148.2993  139.2138  153.7715 C   0  0  0  0  0  0  0  0  0  0  0  0
  147.0895  139.5827  153.1568 C   0  0  0  0  0  0  0  0  0  0  0  0
  146.3073  140.5448  153.7039 N   0  3  0  0  0  0  0  0  0  0  0  0
  146.6835  141.1550  154.8423 C   0  0  0  0  0  0  0  0  0  0  0  0
  145.7712  142.2456  155.4244 C   0  0  0  0  0  0  0  0  0  0  0  0
  144.3384  141.7232  155.6889 C   0  0  0  0  0  0  0  0  0  0  0  0
  145.6567  143.4147  154.4253 C   0  0  0  0  0  0  0  0  0  0  0  0
  146.3418  142.7368  156.7697 C   0  0  0  0  0  0  0  0  0  0  0  0
  147.8307  140.8438  155.4665 N   0  0  0  0  0  0  0  0  0  0  0  0
  150.8743  139.0519  154.8527 C   0  0  0  0  0  0  0  0  0  0  0  0
  152.0664  138.6616  155.7418 C   0  0  0  0  0  0  0  0  0  0  0  0
  152.4923  139.7973  156.4893 O   0  0  0  0  0  0  0  0  0  0  0  0
  149.1782  143.9283  159.3667 H   0  0  0  0  0  0  0  0  0  0  0  0
  150.2069  145.3607  159.4626 H   0  0  0  0  0  0  0  0  0  0  0  0
  150.0212  144.3108  160.8728 H   0  0  0  0  0  0  0  0  0  0  0  0
  150.0987  142.1297  158.5037 H   0  0  0  0  0  0  0  0  0  0  0  0
  152.7724  142.0203  157.5564 H   0  0  0  0  0  0  0  0  0  0  0  0
  152.6593  141.0544  159.0067 H   0  0  0  0  0  0  0  0  0  0  0  0
  151.1678  139.4997  158.0314 H   0  0  0  0  0  0  0  0  0  0  0  0
  149.4460  141.0664  157.1308 H   0  0  0  0  0  0  0  0  0  0  0  0
  150.5423  141.5718  155.8548 H   0  0  0  0  0  0  0  0  0  0  0  0
  148.9333  138.4483  153.3483 H   0  0  0  0  0  0  0  0  0  0  0  0
  146.7203  139.1386  152.2438 H   0  0  0  0  0  0  0  0  0  0  0  0
  143.7009  142.5069  156.1000 H   0  0  0  0  0  0  0  0  0  0  0  0
  144.3342  140.8999  156.4047 H   0  0  0  0  0  0  0  0  0  0  0  0
  143.8620  141.3701  154.7732 H   0  0  0  0  0  0  0  0  0  0  0  0
  145.2547  143.0794  153.4685 H   0  0  0  0  0  0  0  0  0  0  0  0
  146.6247  143.8774  154.2308 H   0  0  0  0  0  0  0  0  0  0  0  0
  144.9967  144.1966  154.8026 H   0  0  0  0  0  0  0  0  0  0  0  0
  145.7020  143.4979  157.2182 H   0  0  0  0  0  0  0  0  0  0  0  0
  147.3323  143.1774  156.6516 H   0  0  0  0  0  0  0  0  0  0  0  0
  146.4291  141.9181  157.4849 H   0  0  0  0  0  0  0  0  0  0  0  0
  150.5045  138.1774  154.3159 H   0  0  0  0  0  0  0  0  0  0  0  0
  151.1944  139.7793  154.1058 H   0  0  0  0  0  0  0  0  0  0  0  0
  151.7999  137.8466  156.4169 H   0  0  0  0  0  0  0  0  0  0  0  0
  152.8947  138.3092  155.1270 H   0  0  0  0  0  0  0  0  0  0  0  0
  145.4322  140.8008  153.2456 H   0  0  0  0  0  0  0  0  0  0  0  0
  1  2  1  0  0  0  0
  1 22  1  0  0  0  0
  1 23  1  0  0  0  0
  1 24  1  0  0  0  0
  2  3  2  0  0  0  0
  2  4  1  0  0  0  0
  4  5  1  0  0  0  0
  4 25  1  0  0  0  0
  5  6  1  0  0  0  0
  5 26  1  0  0  0  0
  5 27  1  0  0  0  0
  6 21  1  0  0  0  0
  6  7  1  0  0  0  0
  6 28  1  0  0  0  0
  7  8  1  0  0  0  0
  7 29  1  0  0  0  0
  7 30  1  0  0  0  0
  8  9  1  0  0  0  0
  8 19  1  0  0  0  0
  9 18  1  0  0  0  0
  9 10  2  0  0  0  0
 10 11  1  0  0  0  0
 10 31  1  0  0  0  0
 11 12  2  0  0  0  0
 11 32  1  0  0  0  0
 12 13  1  0  0  0  0
 12 46  1  0  0  0  0
 13 14  1  0  0  0  0
 13 18  2  0  0  0  0
 14 15  1  0  0  0  0
 14 16  1  0  0  0  0
 14 17  1  0  0  0  0
 15 33  1  0  0  0  0
 15 34  1  0  0  0  0
 15 35  1  0  0  0  0
 16 36  1  0  0  0  0
 16 37  1  0  0  0  0
 16 38  1  0  0  0  0
 17 39  1  0  0  0  0
 17 40  1  0  0  0  0
 17 41  1  0  0  0  0
 19 20  1  0  0  0  0
 19 42  1  0  0  0  0
 19 43  1  0  0  0  0
 20 21  1  0  0  0  0
 20 44  1  0  0  0  0
 20 45  1  0  0  0  0
M  CHG  1  12   1
M  END
> <s_m_source_file>
AV-unprocessed.smi

> <i_m_source_file_index>
2413

> <i_lp_mmshare_version>
43012

> <i_f3d_flags>
0

> <s_epik_input>
W0NIM11DKD1PKVtOSF1bQ0gyXVtDQEBIXTFbQ0gyXU4oW0NIMl1bQ0gyXU8xKWMyW2NIXVtjSF1uYyhuMilDKFtDSDNdKShbQ0gzXSlbQ0gzXQ==

> <s_epik_cmdline>
J2VwaWtfcHl0aG9uJywgJy1waCcsICc3LjAnLCAnLXRuJywgJzgnLCAnLW1hJywgJzIwMCcsICctbWV0YWxfYmluZGluZycsICctaW1hZScsICc8aW5maWxlLm1hZT4nLCAnLW9tYWUnLCAnPG91dGZpbGUubWFlPic=

> <r_lp_tautomer_probability>
0.999336

> <r_epik_Ionization_Penalty>
2.26127

> <r_epik_Ionization_Penalty_Charging>
2.26127

> <r_epik_Ionization_Penalty_Neutral>
4.08984e-07

> <r_epik_State_Penalty>
2.40914

> <r_epik_Charging_Adjusted_Penalty>
4.67041

> <i_epik_Tot_Q>
1

> <i_epik_Tot_abs_Q>
1

> <r_epik_Metal_State_Penalty>
2.42208

> <b_epik_Metal_Only>
0

> <s_lp_Force_Field>
OPLS_2005

> <r_lp_Energy>
19.627

> <b_lp_Chiralities_Consistent>
1

> <s_lp_Variant>
AV-unprocessed.smi:2413-4

> <Gold.Version>
5.8.1

> <Gold.Id.Protein>
6NUR|6NUR_protein|mol2

> <Gold.PLP.Fitness>
38.3185

> <Gold.PLP.PLP>
-31.1630

> <Gold.PLP.part.hbond>
-2.0000

> <Gold.PLP.part.metal>
0.0000

> <Gold.PLP.part.buried>
-4.7145

> <Gold.PLP.part.nonpolar>
-24.1641

> <Gold.PLP.part.repulsive>
0.1524

> <Gold.PLP.ligand.clash>
0.0000

> <Gold.PLP.ligand.torsion>
0.9850

> <Gold.PLP.Chemscore.Hbond>
3.0000

> <Gold.PLP.Chemscore.CHOScore>
0.0000

> <Gold.PLP.Chemscore.Metal>
0.0000

> <Gold.Chemscore.Hbonds>
donor molecule, donor type, donor heavy atom, donor atom, acceptor molecule, acceptor atom, score
      L1  H    12    46       P1 10175  2.00
      P1  H  7997  8008       L1    21  1.00

> <Gold.PLP.Chemscore.Internal.Correction>
0.1255

> <Gold.Rescore>
     Score         DG    S(hbond)    S(metal)    S(lipo)     H(rot)  DE(clash)    DE(int)     intcor
     14.07     -15.31       1.96        0.00      66.77       1.77       0.40       0.84       ----

> <Gold.Chemscore.Fitness>
14.0697

> <Gold.Chemscore.DG>
-15.3088

> <Gold.Chemscore.ZeroCoef>
-5.4800

> <Gold.Chemscore.Hbond>
1.9621

> <Gold.Chemscore.Metal>
0.0000

> <Gold.Chemscore.Lipo>
66.7657

> <Gold.Chemscore.Internal_Hbond>
0.0000

> <Gold.Chemscore.DEClash>
0.3991

> <Gold.Chemscore.DEInternal>
0.8401

> <Gold.Chemscore.Rot>
1.7719

> <Gold.Chemscore.Internal.Correction>
   9.000000E+99

> <Gold.Chemscore.Hbonds>
donor molecule, donor type, donor heavy atom, donor atom, acceptor molecule, acceptor atom, score
      L1  H    12    46       P1 10175  0.69
      P1  H  7997  8008       L1    21  0.77

> <Gold.Chemscore.Hbond.Weighted>
-6.5533

> <Gold.Chemscore.Metal.Weighted>
-0.0000

> <Gold.Chemscore.Lipo.Weighted>
-7.8116

> <Gold.Chemscore.Internal_Hbond.Weighted>
0.0000

> <Gold.Chemscore.DEClash.Weighted>
0.3991

> <Gold.Chemscore.DEInternal.Weighted>
0.8401

> <Gold.Chemscore.Rot.Weighted>
4.5361

> <Gold.Chemscore.Internal.Correction.Weighted>
   9.000000E+99

> <Gold.Protein.RotatedTorsions>
[ 6907 6896 6895 6894 ] final -107.05 input  -60.11 | X-H torsion
[ 7974 7965 7964 7962 ] final   23.54 input  175.53 | X-H torsion
[ 8008 7997 7996 7995 ] final  -32.61 input   59.86 | X-H torsion
[ 10167 10162 10161 10158 ] final  165.28 input  -65.29 | X-H torsion
[ 10718 10713 10712 10709 ] final  -93.96 input   66.30 | X-H torsion
[ 10763 10752 10751 10750 ] final  -65.98 input  -60.55 | X-H torsion
[ 11005 11000 10999 10996 ] final  -79.19 input  -57.11 | X-H torsion

> <Gold.Protein.ActiveResidues>
 VAL166  LYS551  ARG553  GLY616  TRP617  ASP618  TYR619  PRO620  LYS621  CYS622 
 ASP623  PHE694  ASN695  SER759  ASP760  ASP761  ALA762  ILE779  LEU786  VAL792 
 PHE793  MET794  SER795  GLU796  ALA797  LYS798  CYS799  TRP800  GLU811  SER814 

> <Gold.Protein.RotatedAtoms>
  150.7423  133.9884  159.3598 H   0  0  0  0  0  0  0  0  0  0  0  0  # atno 6907 bound_to 6896
  151.7830  135.0754  160.0386 H   0  0  0  0  0  0  0  0  0  0  0  0  # atno 6908 bound_to 6896
  152.3261  133.5869  159.5813 H   0  0  0  0  0  0  0  0  0  0  0  0  # atno 6909 bound_to 6896
  146.1980  139.7731  142.8783 H   0  0  0  0  0  0  0  0  0  0  0  0  # atno 7974 bound_to 7965
  154.4174  140.1733  156.1755 H   0  0  0  0  0  0  0  0  0  0  0  0  # atno 8008 bound_to 7997
  155.9725  140.3384  155.6564 H   0  0  0  0  0  0  0  0  0  0  0  0  # atno 8009 bound_to 7997
  155.6607  140.0700  157.2546 H   0  0  0  0  0  0  0  0  0  0  0  0  # atno 8010 bound_to 7997
  139.4903  144.4148  151.9256 H   0  0  0  0  0  0  0  0  0  0  0  0  # atno 10167 bound_to 10162
  156.0020  130.5048  150.5855 H   0  0  0  0  0  0  0  0  0  0  0  0  # atno 10718 bound_to 10713
  154.3530  135.6132  153.5652 H   0  0  0  0  0  0  0  0  0  0  0  0  # atno 10763 bound_to 10752
  152.9797  135.5797  154.4721 H   0  0  0  0  0  0  0  0  0  0  0  0  # atno 10764 bound_to 10752
  154.4445  135.2851  155.1801 H   0  0  0  0  0  0  0  0  0  0  0  0  # atno 10765 bound_to 10752
  141.1667  133.7095  156.8085 H   0  0  0  0  0  0  0  0  0  0  0  0  # atno 11005 bound_to 11000
  145.3581  141.0320  143.3300 LP  0  0  0  0  0  0  0  0  0  0  0  0  # atno 17320 bound_to 7965
  144.8620  139.5163  143.6807 LP  0  0  0  0  0  0  0  0  0  0  0  0  # atno 17321 bound_to 7965
  140.3591  144.2995  150.5936 LP  0  0  0  0  0  0  0  0  0  0  0  0  # atno 17342 bound_to 10162
  140.5419  143.2222  151.8071 LP  0  0  0  0  0  0  0  0  0  0  0  0  # atno 17343 bound_to 10162
  157.3728  131.0768  151.1543 LP  0  0  0  0  0  0  0  0  0  0  0  0  # atno 17370 bound_to 10713
  157.2291  130.6517  149.5842 LP  0  0  0  0  0  0  0  0  0  0  0  0  # atno 17371 bound_to 10713
  140.2205  134.8760  157.3372 LP  0  0  0  0  0  0  0  0  0  0  0  0  # atno 17394 bound_to 11000
  140.1993  134.4275  155.7672 LP  0  0  0  0  0  0  0  0  0  0  0  0  # atno 17395 bound_to 11000

$$$$
