AV-unprocessed.smi:3330|AV-procd|sdf|12810|dock4
  -GOLD-   2272019173D 1   1.00000     0.00000
 Structure written by MMmdl.
 38 39  0  0  0  0  0  0  0  0  3 V2000
  146.8977  136.0932  155.0929 C   0  0  0  0  0  0  0  0  0  0  0  0
  146.5549  137.2530  154.1399 C   0  0  1  0  0  0  0  0  0  0  0  0
  147.8171  137.8384  153.6345 N   0  3  0  0  0  0  0  0  0  0  0  0
  148.8947  137.9594  154.6361 C   0  0  0  0  0  0  0  0  0  0  0  0
  150.0207  138.8647  154.1164 C   0  0  0  0  0  0  0  0  0  0  0  0
  151.1510  138.8906  155.0479 N   0  0  0  0  0  0  0  0  0  0  0  0
  151.7707  137.8023  155.5139 C   0  0  0  0  0  0  0  0  0  0  0  0
  151.5235  136.6241  155.2564 O   0  0  0  0  0  0  0  0  0  0  0  0
  152.8577  138.2663  156.4552 C   0  0  0  0  0  0  0  0  0  0  0  0
  152.7006  139.7030  156.4230 N   0  5  0  0  0  0  0  0  0  0  0  0
  151.6837  140.0052  155.5834 C   0  0  0  0  0  0  0  0  0  0  0  0
  151.2573  141.1283  155.3158 O   0  0  0  0  0  0  0  0  0  0  0  0
  145.6437  136.8166  152.9594 C   0  0  2  0  0  0  0  0  0  0  0  0
  145.6698  137.8046  151.7775 C   0  0  0  0  0  0  0  0  0  0  0  0
  144.2680  136.5878  153.3831 N   0  0  0  0  0  0  0  0  0  0  0  0
  143.1178  137.1889  152.9137 C   0  0  0  0  0  0  0  0  0  0  0  0
  142.0679  136.6617  153.6097 C   0  0  0  0  0  0  0  0  0  0  0  0
  142.6819  135.7372  154.4994 C   0  0  0  0  0  0  0  0  0  0  0  0
  143.9970  135.6958  154.3628 N   0  0  0  0  0  0  0  0  0  0  0  0
  146.0090  135.6889  155.5777 H   0  0  0  0  0  0  0  0  0  0  0  0
  147.5690  136.4244  155.8861 H   0  0  0  0  0  0  0  0  0  0  0  0
  147.3884  135.2765  154.5623 H   0  0  0  0  0  0  0  0  0  0  0  0
  146.0272  138.0038  154.7309 H   0  0  0  0  0  0  0  0  0  0  0  0
  148.1597  137.2534  152.8860 H   0  0  0  0  0  0  0  0  0  0  0  0
  148.4881  138.3640  155.5635 H   0  0  0  0  0  0  0  0  0  0  0  0
  149.2856  136.9663  154.8625 H   0  0  0  0  0  0  0  0  0  0  0  0
  150.3518  138.5230  153.1341 H   0  0  0  0  0  0  0  0  0  0  0  0
  149.6466  139.8788  153.9648 H   0  0  0  0  0  0  0  0  0  0  0  0
  152.6996  137.8374  157.4451 H   0  0  0  0  0  0  0  0  0  0  0  0
  153.8305  137.9314  156.0940 H   0  0  0  0  0  0  0  0  0  0  0  0
  146.0148  135.8591  152.5903 H   0  0  0  0  0  0  0  0  0  0  0  0
  146.6621  137.8692  151.3309 H   0  0  0  0  0  0  0  0  0  0  0  0
  145.3779  138.8086  152.0874 H   0  0  0  0  0  0  0  0  0  0  0  0
  144.9850  137.4891  150.9896 H   0  0  0  0  0  0  0  0  0  0  0  0
  143.1405  137.9333  152.1314 H   0  0  0  0  0  0  0  0  0  0  0  0
  141.0204  136.9015  153.5015 H   0  0  0  0  0  0  0  0  0  0  0  0
  142.2144  135.0999  155.2356 H   0  0  0  0  0  0  0  0  0  0  0  0
  147.6174  138.7545  153.2593 H   0  0  0  0  0  0  0  0  0  0  0  0
  1  2  1  0  0  0  0
  1 20  1  0  0  0  0
  1 21  1  0  0  0  0
  1 22  1  0  0  0  0
  2  3  1  0  0  0  0
  2 13  1  0  0  0  0
  2 23  1  0  0  0  0
  3  4  1  0  0  0  0
  3 24  1  0  0  0  0
  3 38  1  0  0  0  0
  4  5  1  0  0  0  0
  4 25  1  0  0  0  0
  4 26  1  0  0  0  0
  5  6  1  0  0  0  0
  5 27  1  0  0  0  0
  5 28  1  0  0  0  0
  6 11  1  0  0  0  0
  6  7  1  0  0  0  0
  7  8  2  0  0  0  0
  7  9  1  0  0  0  0
  9 10  1  0  0  0  0
  9 29  1  0  0  0  0
  9 30  1  0  0  0  0
 10 11  1  0  0  0  0
 11 12  2  0  0  0  0
 13 14  1  0  0  0  0
 13 15  1  0  0  0  0
 13 31  1  0  0  0  0
 14 32  1  0  0  0  0
 14 33  1  0  0  0  0
 14 34  1  0  0  0  0
 15 19  1  0  0  0  0
 15 16  1  0  0  0  0
 16 17  2  0  0  0  0
 16 35  1  0  0  0  0
 17 18  1  0  0  0  0
 17 36  1  0  0  0  0
 18 19  2  0  0  0  0
 18 37  1  0  0  0  0
M  CHG  1   3   1
M  CHG  1  10  -1
M  END
> <s_m_source_file>
AV-unprocessed.smi

> <i_m_source_file_index>
3330

> <i_lp_mmshare_version>
43012

> <i_f3d_flags>
0

> <s_epik_input>
bjFbY0hdW2NIXVtjSF1uMVtDQEBIXShbQ0gzXSlbQ0BIXShbQ0gzXSlbTkhdW0NIMl1bQ0gyXU4yQyg9TylbQ0gyXVtOSF1DMj1P

> <s_epik_cmdline>
J2VwaWtfcHl0aG9uJywgJy1waCcsICc3LjAnLCAnLXRuJywgJzgnLCAnLW1hJywgJzIwMCcsICctbWV0YWxfYmluZGluZycsICctaW1hZScsICc8aW5maWxlLm1hZT4nLCAnLW9tYWUnLCAnPG91dGZpbGUubWFlPic=

> <r_lp_tautomer_probability>
1

> <r_epik_Ionization_Penalty>
5.18149

> <r_epik_Ionization_Penalty_Charging>
5.18148

> <r_epik_Ionization_Penalty_Neutral>
9.83265e-06

> <r_epik_State_Penalty>
5.18201

> <r_epik_Charging_Adjusted_Penalty>
10.3635

> <i_epik_Tot_Q>
0

> <i_epik_Tot_abs_Q>
2

> <r_epik_Metal_State_Penalty>
1.25422

> <b_epik_Metal_Only>
1

> <s_lp_Force_Field>
OPLS_2005

> <r_lp_Energy>
16.6991

> <b_lp_Chiralities_Consistent>
1

> <s_lp_Variant>
AV-unprocessed.smi:3330-10

> <Gold.Version>
5.8.1

> <Gold.Id.Protein>
6NUR|6NUR_protein|mol2

> <Gold.PLP.Fitness>
48.5621

> <Gold.PLP.PLP>
-23.8963

> <Gold.PLP.part.hbond>
-4.0000

> <Gold.PLP.part.metal>
0.0000

> <Gold.PLP.part.buried>
-0.5988

> <Gold.PLP.part.nonpolar>
-20.4290

> <Gold.PLP.part.repulsive>
0.1886

> <Gold.PLP.ligand.clash>
0.0000

> <Gold.PLP.ligand.torsion>
0.5554

> <Gold.PLP.Chemscore.Hbond>
5.6978

> <Gold.PLP.Chemscore.CHOScore>
2.8310

> <Gold.PLP.Chemscore.Metal>
0.0000

> <Gold.Chemscore.Hbonds>
donor molecule, donor type, donor heavy atom, donor atom, acceptor molecule, acceptor atom, score
      L1  H     3    24       P1  7948  2.00
      P1  H  7989  7998       L1    12  0.35
      P1  H  7997  8010       L1    10  1.80
      P1  H 10752 10764       L1     8  1.00
      L1  C    16    35       P1 10171  1.00
      L1  C    16    35       P1 10175  0.85
      L1  C    18    37       P1 11000  0.78

> <Gold.PLP.Chemscore.Internal.Correction>
0.1901

> <Gold.Rescore>
     Score         DG    S(hbond)    S(metal)    S(lipo)     H(rot)  DE(clash)    DE(int)     intcor
      9.83     -12.98       2.85        0.00      39.33       2.59       0.26       2.89       ----

> <Gold.Chemscore.Fitness>
9.8346

> <Gold.Chemscore.DG>
-12.9808

> <Gold.Chemscore.ZeroCoef>
-5.4800

> <Gold.Chemscore.Hbond>
2.8535

> <Gold.Chemscore.Metal>
0.0000

> <Gold.Chemscore.Lipo>
39.3254

> <Gold.Chemscore.Internal_Hbond>
0.0000

> <Gold.Chemscore.DEClash>
0.2556

> <Gold.Chemscore.DEInternal>
2.8906

> <Gold.Chemscore.Rot>
2.5903

> <Gold.Chemscore.Internal.Correction>
   9.000000E+99

> <Gold.Chemscore.Hbonds>
donor molecule, donor type, donor heavy atom, donor atom, acceptor molecule, acceptor atom, score
      L1  H     3    24       P1  7948  1.00
      P1  H  7989  7998       L1    12  0.02
      P1  H  7997  8010       L1    10  0.18
      P1  H 10752 10764       L1     8  0.94

> <Gold.Chemscore.Hbond.Weighted>
-9.5309

> <Gold.Chemscore.Metal.Weighted>
-0.0000

> <Gold.Chemscore.Lipo.Weighted>
-4.6011

> <Gold.Chemscore.Internal_Hbond.Weighted>
0.0000

> <Gold.Chemscore.DEClash.Weighted>
0.2556

> <Gold.Chemscore.DEInternal.Weighted>
2.8906

> <Gold.Chemscore.Rot.Weighted>
6.6311

> <Gold.Chemscore.Internal.Correction.Weighted>
   9.000000E+99

> <Gold.Protein.RotatedTorsions>
[ 6907 6896 6895 6894 ] final  116.66 input  -60.11 | X-H torsion
[ 7974 7965 7964 7962 ] final  -34.11 input  175.53 | X-H torsion
[ 8008 7997 7996 7995 ] final   73.20 input   59.86 | X-H torsion
[ 10167 10162 10161 10158 ] final   95.63 input  -65.29 | X-H torsion
[ 10718 10713 10712 10709 ] final   47.19 input   66.30 | X-H torsion
[ 10763 10752 10751 10750 ] final  -54.44 input  -60.55 | X-H torsion
[ 11005 11000 10999 10996 ] final  141.35 input  -57.11 | X-H torsion

> <Gold.Protein.ActiveResidues>
 VAL166  LYS551  ARG553  GLY616  TRP617  ASP618  TYR619  PRO620  LYS621  CYS622 
 ASP623  PHE694  ASN695  SER759  ASP760  ASP761  ALA762  ILE779  LEU786  VAL792 
 PHE793  MET794  SER795  GLU796  ALA797  LYS798  CYS799  TRP800  GLU811  SER814 

> <Gold.Protein.RotatedAtoms>
  152.4663  133.7931  159.6912 H   0  0  0  0  0  0  0  0  0  0  0  0  # atno 6907 bound_to 6896
  150.8630  133.7606  159.2992 H   0  0  0  0  0  0  0  0  0  0  0  0  # atno 6908 bound_to 6896
  151.5165  135.1069  159.9919 H   0  0  0  0  0  0  0  0  0  0  0  0  # atno 6909 bound_to 6896
  146.0856  140.5998  142.8888 H   0  0  0  0  0  0  0  0  0  0  0  0  # atno 7974 bound_to 7965
  155.7801  140.3482  155.5293 H   0  0  0  0  0  0  0  0  0  0  0  0  # atno 8008 bound_to 7997
  155.8737  140.0990  157.1553 H   0  0  0  0  0  0  0  0  0  0  0  0  # atno 8009 bound_to 7997
  154.4019  140.1335  156.4097 H   0  0  0  0  0  0  0  0  0  0  0  0  # atno 8010 bound_to 7997
  139.7971  144.6829  150.9815 H   0  0  0  0  0  0  0  0  0  0  0  0  # atno 10167 bound_to 10162
  157.4559  130.8166  149.7836 H   0  0  0  0  0  0  0  0  0  0  0  0  # atno 10718 bound_to 10713
  154.1748  135.6453  153.5019 H   0  0  0  0  0  0  0  0  0  0  0  0  # atno 10763 bound_to 10752
  153.0074  135.5392  154.6575 H   0  0  0  0  0  0  0  0  0  0  0  0  # atno 10764 bound_to 10752
  154.5924  135.2935  155.0594 H   0  0  0  0  0  0  0  0  0  0  0  0  # atno 10765 bound_to 10752
  140.0394  134.9312  157.0815 H   0  0  0  0  0  0  0  0  0  0  0  0  # atno 11005 bound_to 11000
  144.7324  140.4709  143.6928 LP  0  0  0  0  0  0  0  0  0  0  0  0  # atno 17320 bound_to 7965
  145.6135  139.1516  143.3062 LP  0  0  0  0  0  0  0  0  0  0  0  0  # atno 17321 bound_to 7965
  140.7820  143.4320  151.0680 LP  0  0  0  0  0  0  0  0  0  0  0  0  # atno 17342 bound_to 10162
  139.7994  143.8105  152.3161 LP  0  0  0  0  0  0  0  0  0  0  0  0  # atno 17343 bound_to 10162
  156.0007  130.3882  150.2618 LP  0  0  0  0  0  0  0  0  0  0  0  0  # atno 17370 bound_to 10713
  157.0792  131.0138  151.3162 LP  0  0  0  0  0  0  0  0  0  0  0  0  # atno 17371 bound_to 10713
  140.4093  134.1998  155.7163 LP  0  0  0  0  0  0  0  0  0  0  0  0  # atno 17394 bound_to 11000
  141.1875  133.8280  157.1029 LP  0  0  0  0  0  0  0  0  0  0  0  0  # atno 17395 bound_to 11000

$$$$
