AV-unprocessed.smi:2706|AV-procd|sdf|10448|dock1
  -GOLD-   2272014493D 1   1.00000     0.00000
 Structure written by MMmdl.
 44 47  0  0  0  0  0  0  0  0  2 V2000
  145.9204  129.5757  152.2705 C   0  0  0  0  0  0  0  0  0  0  0  0
  146.3187  130.9603  152.4892 N   0  0  0  0  0  0  0  0  0  0  0  0
  145.4421  132.0479  152.0686 C   0  0  0  0  0  0  0  0  0  0  0  0
  147.4662  131.2431  153.2603 C   0  0  0  0  0  0  0  0  0  0  0  0
  148.2238  130.2448  153.9174 C   0  0  0  0  0  0  0  0  0  0  0  0
  149.3566  130.6132  154.6681 C   0  0  0  0  0  0  0  0  0  0  0  0
  149.7223  131.9705  154.7558 C   0  0  0  0  0  0  0  0  0  0  0  0
  148.9427  132.9464  154.0860 C   0  0  0  0  0  0  0  0  0  0  0  0
  149.1967  134.3468  154.0900 N   0  0  0  0  0  0  0  0  0  0  0  0
  149.7922  135.1098  155.0246 C   0  0  0  0  0  0  0  0  0  0  0  0
  150.2468  134.7069  156.0945 O   0  0  0  0  0  0  0  0  0  0  0  0
  149.8315  136.3944  154.6430 N   0  0  0  0  0  0  0  0  0  0  0  0
  150.3953  137.4674  155.3968 C   0  0  2  0  0  0  0  0  0  0  0  0
  149.5199  138.6829  155.6228 C   0  0  1  0  0  0  0  0  0  0  0  0
  149.7914  139.8476  156.5723 C   0  0  1  0  0  0  0  0  0  0  0  0
  151.0031  139.5586  157.4825 C   0  0  0  0  0  0  0  0  0  0  0  0
  152.1875  139.6306  156.4933 C   0  0  0  0  0  0  0  0  0  0  0  0
  151.4860  139.9503  155.1570 C   0  0  2  0  0  0  0  0  0  0  0  0
  150.3826  140.8915  155.6304 C   0  0  0  0  0  0  0  0  0  0  0  0
  150.6849  138.7533  154.6500 C   0  0  1  0  0  0  0  0  0  0  0  0
  147.8655  132.5333  153.3786 N   0  3  0  0  0  0  0  0  0  0  0  0
  145.7610  129.0681  153.2225 H   0  0  0  0  0  0  0  0  0  0  0  0
  146.6876  129.0385  151.7118 H   0  0  0  0  0  0  0  0  0  0  0  0
  144.9923  129.5150  151.7017 H   0  0  0  0  0  0  0  0  0  0  0  0
  145.0189  132.5552  152.9362 H   0  0  0  0  0  0  0  0  0  0  0  0
  144.6156  131.6785  151.4611 H   0  0  0  0  0  0  0  0  0  0  0  0
  145.9914  132.7767  151.4718 H   0  0  0  0  0  0  0  0  0  0  0  0
  147.9555  129.2007  153.8573 H   0  0  0  0  0  0  0  0  0  0  0  0
  149.9418  129.8588  155.1733 H   0  0  0  0  0  0  0  0  0  0  0  0
  150.5943  132.2234  155.3372 H   0  0  0  0  0  0  0  0  0  0  0  0
  148.8762  134.8394  153.2695 H   0  0  0  0  0  0  0  0  0  0  0  0
  149.4330  136.6374  153.7477 H   0  0  0  0  0  0  0  0  0  0  0  0
  151.0796  137.1846  156.1929 H   0  0  0  0  0  0  0  0  0  0  0  0
  148.5291  138.6852  155.1713 H   0  0  0  0  0  0  0  0  0  0  0  0
  148.8950  140.1633  157.1066 H   0  0  0  0  0  0  0  0  0  0  0  0
  151.1008  140.3284  158.2494 H   0  0  0  0  0  0  0  0  0  0  0  0
  150.9258  138.5974  157.9913 H   0  0  0  0  0  0  0  0  0  0  0  0
  152.8684  140.4356  156.7733 H   0  0  0  0  0  0  0  0  0  0  0  0
  152.7692  138.7092  156.4533 H   0  0  0  0  0  0  0  0  0  0  0  0
  152.1445  140.3615  154.3913 H   0  0  0  0  0  0  0  0  0  0  0  0
  149.6988  141.1901  154.8336 H   0  0  0  0  0  0  0  0  0  0  0  0
  150.7530  141.7841  156.1386 H   0  0  0  0  0  0  0  0  0  0  0  0
  150.4159  138.7995  153.5960 H   0  0  0  0  0  0  0  0  0  0  0  0
  147.3092  133.2401  152.8982 H   0  0  0  0  0  0  0  0  0  0  0  0
  1  2  1  0  0  0  0
  1 22  1  0  0  0  0
  1 23  1  0  0  0  0
  1 24  1  0  0  0  0
  2  3  1  0  0  0  0
  2  4  1  0  0  0  0
  3 25  1  0  0  0  0
  3 26  1  0  0  0  0
  3 27  1  0  0  0  0
  4 21  1  0  0  0  0
  4  5  2  0  0  0  0
  5  6  1  0  0  0  0
  5 28  1  0  0  0  0
  6  7  2  0  0  0  0
  6 29  1  0  0  0  0
  7  8  1  0  0  0  0
  7 30  1  0  0  0  0
  8  9  1  0  0  0  0
  8 21  2  0  0  0  0
  9 10  1  0  0  0  0
  9 31  1  0  0  0  0
 10 11  2  0  0  0  0
 10 12  1  0  0  0  0
 12 13  1  0  0  0  0
 12 32  1  0  0  0  0
 13 20  1  0  0  0  0
 13 14  1  0  0  0  0
 13 33  1  0  0  0  0
 14 20  1  0  0  0  0
 14 15  1  0  0  0  0
 14 34  1  0  0  0  0
 15 19  1  0  0  0  0
 15 16  1  0  0  0  0
 15 35  1  0  0  0  0
 16 17  1  0  0  0  0
 16 36  1  0  0  0  0
 16 37  1  0  0  0  0
 17 18  1  0  0  0  0
 17 38  1  0  0  0  0
 17 39  1  0  0  0  0
 18 19  1  0  0  0  0
 18 20  1  0  0  0  0
 18 40  1  0  0  0  0
 19 41  1  0  0  0  0
 19 42  1  0  0  0  0
 20 43  1  0  0  0  0
 21 44  1  0  0  0  0
M  CHG  1  21   1
M  END
> <s_m_source_file>
AV-unprocessed.smi

> <i_m_source_file_index>
2706

> <i_lp_mmshare_version>
43012

> <i_f3d_flags>
0

> <s_epik_input>
W0NIM11OKFtDSDNdKWMxW2NIXVtjSF1bY0hdYyhuMSlbTkhdQyg9TylbTkhdW0NASF0yW0NAQEhdM1tDQEBIXShbQ0gyXTQpW0NIMl1bQ0gyXVtDQEBIXTRbQ0BIXTIz

> <s_epik_cmdline>
J2VwaWtfcHl0aG9uJywgJy1waCcsICc3LjAnLCAnLXRuJywgJzgnLCAnLW1hJywgJzIwMCcsICctbWV0YWxfYmluZGluZycsICctaW1hZScsICc8aW5maWxlLm1hZT4nLCAnLW9tYWUnLCAnPG91dGZpbGUubWFlPic=

> <r_lp_tautomer_probability>
0.999994

> <r_epik_Ionization_Penalty>
1.8105

> <r_epik_Ionization_Penalty_Charging>
1.79227

> <r_epik_Ionization_Penalty_Neutral>
0.0182286

> <r_epik_State_Penalty>
1.90588

> <r_epik_Charging_Adjusted_Penalty>
3.69815

> <i_epik_Tot_Q>
1

> <i_epik_Tot_abs_Q>
1

> <r_epik_Metal_State_Penalty>
1.93501

> <b_epik_Metal_Only>
0

> <s_lp_Force_Field>
OPLS_2005

> <r_lp_Energy>
87.3902

> <b_lp_Chiralities_Consistent>
1

> <s_lp_Variant>
AV-unprocessed.smi:2706-5

> <Gold.Version>
5.8.1

> <Gold.Id.Protein>
6NUR|6NUR_protein|mol2

> <Gold.PLP.Fitness>
40.0729

> <Gold.PLP.PLP>
-34.8592

> <Gold.PLP.part.hbond>
-2.0000

> <Gold.PLP.part.metal>
0.0000

> <Gold.PLP.part.buried>
-1.9831

> <Gold.PLP.part.nonpolar>
-30.9534

> <Gold.PLP.part.repulsive>
0.0823

> <Gold.PLP.ligand.clash>
0.0000

> <Gold.PLP.ligand.torsion>
0.3482

> <Gold.PLP.Chemscore.Hbond>
1.9500

> <Gold.PLP.Chemscore.CHOScore>
0.0000

> <Gold.PLP.Chemscore.Metal>
0.0000

> <Gold.Chemscore.Hbonds>
donor molecule, donor type, donor heavy atom, donor atom, acceptor molecule, acceptor atom, score
      L1  H     9    31       P1  7948  1.00
      L1  H    12    32       P1  7948  1.00

> <Gold.PLP.Chemscore.Internal.Correction>
0.0602

> <Gold.Rescore>
     Score         DG    S(hbond)    S(metal)    S(lipo)     H(rot)  DE(clash)    DE(int)     intcor
     15.54     -15.87       1.45        0.00      69.33       1.00       0.05       0.28       ----

> <Gold.Chemscore.Fitness>
15.5391

> <Gold.Chemscore.DG>
-15.8741

> <Gold.Chemscore.ZeroCoef>
-5.4800

> <Gold.Chemscore.Hbond>
1.4499

> <Gold.Chemscore.Metal>
0.0000

> <Gold.Chemscore.Lipo>
69.3298

> <Gold.Chemscore.Internal_Hbond>
0.0000

> <Gold.Chemscore.DEClash>
0.0524

> <Gold.Chemscore.DEInternal>
0.2826

> <Gold.Chemscore.Rot>
1.0000

> <Gold.Chemscore.Internal.Correction>
   9.000000E+99

> <Gold.Chemscore.Hbonds>
donor molecule, donor type, donor heavy atom, donor atom, acceptor molecule, acceptor atom, score
      L1  H     9    31       P1  7948  0.25
      L1  H    12    32       P1  7948  0.84

> <Gold.Chemscore.Hbond.Weighted>
-4.8425

> <Gold.Chemscore.Metal.Weighted>
-0.0000

> <Gold.Chemscore.Lipo.Weighted>
-8.1116

> <Gold.Chemscore.Internal_Hbond.Weighted>
0.0000

> <Gold.Chemscore.DEClash.Weighted>
0.0524

> <Gold.Chemscore.DEInternal.Weighted>
0.2826

> <Gold.Chemscore.Rot.Weighted>
2.5600

> <Gold.Chemscore.Internal.Correction.Weighted>
   9.000000E+99

> <Gold.Protein.RotatedTorsions>
[ 6907 6896 6895 6894 ] final  149.57 input  -60.11 | X-H torsion
[ 7974 7965 7964 7962 ] final -158.18 input  175.53 | X-H torsion
[ 8008 7997 7996 7995 ] final  167.56 input   59.86 | X-H torsion
[ 10167 10162 10161 10158 ] final   -4.77 input  -65.29 | X-H torsion
[ 10718 10713 10712 10709 ] final  -68.72 input   66.30 | X-H torsion
[ 10763 10752 10751 10750 ] final   43.82 input  -60.55 | X-H torsion
[ 11005 11000 10999 10996 ] final -149.60 input  -57.11 | X-H torsion

> <Gold.Protein.ActiveResidues>
 VAL166  LYS551  ARG553  GLY616  TRP617  ASP618  TYR619  PRO620  LYS621  CYS622 
 ASP623  PHE694  ASN695  SER759  ASP760  ASP761  ALA762  ILE779  LEU786  VAL792 
 PHE793  MET794  SER795  GLU796  ALA797  LYS798  CYS799  TRP800  GLU811  SER814 

> <Gold.Protein.RotatedAtoms>
  152.1262  133.4381  159.4698 H   0  0  0  0  0  0  0  0  0  0  0  0  # atno 6907 bound_to 6896
  150.6875  134.2476  159.4507 H   0  0  0  0  0  0  0  0  0  0  0  0  # atno 6908 bound_to 6896
  152.0356  134.9741  160.0624 H   0  0  0  0  0  0  0  0  0  0  0  0  # atno 6909 bound_to 6896
  144.7516  140.3864  143.6043 H   0  0  0  0  0  0  0  0  0  0  0  0  # atno 7974 bound_to 7965
  156.1623  140.1614  156.8590 H   0  0  0  0  0  0  0  0  0  0  0  0  # atno 8008 bound_to 7997
  154.5173  140.0786  156.8141 H   0  0  0  0  0  0  0  0  0  0  0  0  # atno 8009 bound_to 7997
  155.3681  140.3399  155.4245 H   0  0  0  0  0  0  0  0  0  0  0  0  # atno 8010 bound_to 7997
  140.6939  143.6386  150.8457 H   0  0  0  0  0  0  0  0  0  0  0  0  # atno 10167 bound_to 10162
  156.0491  130.4300  150.2042 H   0  0  0  0  0  0  0  0  0  0  0  0  # atno 10718 bound_to 10713
  152.9853  135.6089  154.3174 H   0  0  0  0  0  0  0  0  0  0  0  0  # atno 10763 bound_to 10752
  154.2886  135.2775  155.2667 H   0  0  0  0  0  0  0  0  0  0  0  0  # atno 10764 bound_to 10752
  154.4973  135.5876  153.6560 H   0  0  0  0  0  0  0  0  0  0  0  0  # atno 10765 bound_to 10752
  140.7490  134.3428  157.5130 H   0  0  0  0  0  0  0  0  0  0  0  0  # atno 11005 bound_to 11000
  145.6923  139.1642  143.2640 LP  0  0  0  0  0  0  0  0  0  0  0  0  # atno 17320 bound_to 7965
  146.1475  140.6973  142.9338 LP  0  0  0  0  0  0  0  0  0  0  0  0  # atno 17321 bound_to 7965
  140.0101  143.5651  152.2842 LP  0  0  0  0  0  0  0  0  0  0  0  0  # atno 17342 bound_to 10162
  139.6372  144.7651  151.2413 LP  0  0  0  0  0  0  0  0  0  0  0  0  # atno 17343 bound_to 10162
  157.0128  130.9956  151.3361 LP  0  0  0  0  0  0  0  0  0  0  0  0  # atno 17370 bound_to 10713
  157.5398  130.8113  149.8016 LP  0  0  0  0  0  0  0  0  0  0  0  0  # atno 17371 bound_to 10713
  139.8791  134.9130  156.3073 LP  0  0  0  0  0  0  0  0  0  0  0  0  # atno 17394 bound_to 11000
  140.9768  133.7292  156.0614 LP  0  0  0  0  0  0  0  0  0  0  0  0  # atno 17395 bound_to 11000

$$$$
