AV-unprocessed.smi:2838|AV-procd|sdf|10928|dock3
  -GOLD-   2272015373D 1   1.00000     0.00000
 Structure written by MMmdl.
 48 49  0  0  0  0  0  0  0  0  1 V2000
  153.1698  138.7452  154.5213 C   0  0  0  0  0  0  0  0  0  0  0  0
  152.2903  138.1217  155.6188 C   0  0  2  0  0  0  0  0  0  0  0  0
  151.3273  137.2329  154.9663 N   0  0  0  0  0  0  0  0  0  0  0  0
  151.2436  135.9043  155.1328 C   0  0  0  0  0  0  0  0  0  0  0  0
  151.9651  135.2649  155.8979 O   0  0  0  0  0  0  0  0  0  0  0  0
  150.2896  135.3761  154.3481 N   0  0  0  0  0  0  0  0  0  0  0  0
  149.8877  134.0171  154.2579 C   0  0  0  0  0  0  0  0  0  0  0  0
  148.8095  133.5422  153.4743 C   0  0  0  0  0  0  0  0  0  0  0  0
  148.4957  132.2302  153.4237 N   0  0  0  0  0  0  0  0  0  0  0  0
  149.2623  131.3762  154.1146 C   0  0  0  0  0  0  0  0  0  0  0  0
  148.7971  129.9106  154.1763 C   0  0  0  0  0  0  0  0  0  0  0  0
  149.8512  128.9619  153.5582 C   0  0  0  0  0  0  0  0  0  0  0  0
  147.5030  129.7050  153.3544 C   0  0  0  0  0  0  0  0  0  0  0  0
  148.5487  129.5141  155.6433 C   0  0  0  0  0  0  0  0  0  0  0  0
  150.2844  131.7278  154.9061 N   0  0  0  0  0  0  0  0  0  0  0  0
  150.6125  133.0356  154.9626 C   0  0  0  0  0  0  0  0  0  0  0  0
  151.5679  139.1794  156.4983 C   0  0  0  0  0  0  0  0  0  0  0  0
  151.0778  140.3918  155.6793 C   0  0  0  0  0  0  0  0  0  0  0  0
  150.4331  141.4556  156.5824 C   0  0  0  0  0  0  0  0  0  0  0  0
  151.3542  141.8692  157.5832 O   0  0  0  0  0  0  0  0  0  0  0  0
  151.7328  140.8072  158.4491 C   0  0  0  0  0  0  0  0  0  0  0  0
  152.4503  139.7075  157.6501 C   0  0  0  0  0  0  0  0  0  0  0  0
  154.0075  139.3015  154.9406 H   0  0  0  0  0  0  0  0  0  0  0  0
  152.5964  139.4252  153.8901 H   0  0  0  0  0  0  0  0  0  0  0  0
  153.5952  137.9748  153.8770 H   0  0  0  0  0  0  0  0  0  0  0  0
  152.9481  137.5348  156.2622 H   0  0  0  0  0  0  0  0  0  0  0  0
  150.6889  137.6652  154.3146 H   0  0  0  0  0  0  0  0  0  0  0  0
  149.8378  136.0086  153.7038 H   0  0  0  0  0  0  0  0  0  0  0  0
  148.1963  134.1935  152.8712 H   0  0  0  0  0  0  0  0  0  0  0  0
  149.5027  127.9284  153.5555 H   0  0  0  0  0  0  0  0  0  0  0  0
  150.7889  128.9752  154.1148 H   0  0  0  0  0  0  0  0  0  0  0  0
  150.0750  129.2345  152.5261 H   0  0  0  0  0  0  0  0  0  0  0  0
  147.6406  130.0067  152.3152 H   0  0  0  0  0  0  0  0  0  0  0  0
  146.6669  130.2773  153.7572 H   0  0  0  0  0  0  0  0  0  0  0  0
  147.1950  128.6589  153.3530 H   0  0  0  0  0  0  0  0  0  0  0  0
  148.2149  128.4794  155.7260 H   0  0  0  0  0  0  0  0  0  0  0  0
  147.7842  130.1438  156.0998 H   0  0  0  0  0  0  0  0  0  0  0  0
  149.4566  129.6161  156.2391 H   0  0  0  0  0  0  0  0  0  0  0  0
  151.4528  133.2995  155.5877 H   0  0  0  0  0  0  0  0  0  0  0  0
  150.6933  138.7039  156.9454 H   0  0  0  0  0  0  0  0  0  0  0  0
  151.9150  140.8361  155.1392 H   0  0  0  0  0  0  0  0  0  0  0  0
  150.3498  140.0850  154.9291 H   0  0  0  0  0  0  0  0  0  0  0  0
  150.1458  142.3243  155.9900 H   0  0  0  0  0  0  0  0  0  0  0  0
  149.5227  141.0722  157.0459 H   0  0  0  0  0  0  0  0  0  0  0  0
  152.3944  141.2015  159.2204 H   0  0  0  0  0  0  0  0  0  0  0  0
  150.8544  140.4075  158.9584 H   0  0  0  0  0  0  0  0  0  0  0  0
  152.7220  138.9019  158.3316 H   0  0  0  0  0  0  0  0  0  0  0  0
  153.3840  140.1029  157.2482 H   0  0  0  0  0  0  0  0  0  0  0  0
  1  2  1  0  0  0  0
  1 23  1  0  0  0  0
  1 24  1  0  0  0  0
  1 25  1  0  0  0  0
  2  3  1  0  0  0  0
  2 17  1  0  0  0  0
  2 26  1  0  0  0  0
  3  4  1  0  0  0  0
  3 27  1  0  0  0  0
  4  5  2  0  0  0  0
  4  6  1  0  0  0  0
  6  7  1  0  0  0  0
  6 28  1  0  0  0  0
  7 16  1  0  0  0  0
  7  8  2  0  0  0  0
  8  9  1  0  0  0  0
  8 29  1  0  0  0  0
  9 10  2  0  0  0  0
 10 11  1  0  0  0  0
 10 15  1  0  0  0  0
 11 12  1  0  0  0  0
 11 13  1  0  0  0  0
 11 14  1  0  0  0  0
 12 30  1  0  0  0  0
 12 31  1  0  0  0  0
 12 32  1  0  0  0  0
 13 33  1  0  0  0  0
 13 34  1  0  0  0  0
 13 35  1  0  0  0  0
 14 36  1  0  0  0  0
 14 37  1  0  0  0  0
 14 38  1  0  0  0  0
 15 16  2  0  0  0  0
 16 39  1  0  0  0  0
 17 22  1  0  0  0  0
 17 18  1  0  0  0  0
 17 40  1  0  0  0  0
 18 19  1  0  0  0  0
 18 41  1  0  0  0  0
 18 42  1  0  0  0  0
 19 20  1  0  0  0  0
 19 43  1  0  0  0  0
 19 44  1  0  0  0  0
 20 21  1  0  0  0  0
 21 22  1  0  0  0  0
 21 45  1  0  0  0  0
 21 46  1  0  0  0  0
 22 47  1  0  0  0  0
 22 48  1  0  0  0  0
M  END
> <s_m_source_file>
AV-unprocessed.smi

> <i_m_source_file_index>
2838

> <i_lp_mmshare_version>
43012

> <i_f3d_flags>
0

> <s_epik_input>
W0NIMl0xW0NIMl1PW0NIMl1bQ0gyXVtDSF0xW0NASF0oW0NIM10pW05IXUMoPU8pW05IXWMyW2NIXW5jKEMoW0NIM10pKFtDSDNdKVtDSDNdKW5bY0hdMg==

> <s_epik_cmdline>
J2VwaWtfcHl0aG9uJywgJy1waCcsICc3LjAnLCAnLXRuJywgJzgnLCAnLW1hJywgJzIwMCcsICctbWV0YWxfYmluZGluZycsICctaW1hZScsICc8aW5maWxlLm1hZT4nLCAnLW9tYWUnLCAnPG91dGZpbGUubWFlPic=

> <r_lp_tautomer_probability>
1

> <r_epik_Ionization_Penalty>
2.74753e-05

> <r_epik_Ionization_Penalty_Charging>
0

> <r_epik_Ionization_Penalty_Neutral>
2.74753e-05

> <r_epik_State_Penalty>
-0

> <r_epik_Charging_Adjusted_Penalty>
0

> <i_epik_Tot_Q>
0

> <i_epik_Tot_abs_Q>
0

> <r_epik_Metal_State_Penalty>
-0

> <b_epik_Metal_Only>
0

> <s_lp_Force_Field>
OPLS_2005

> <r_lp_Energy>
9.68517

> <b_lp_Chiralities_Consistent>
1

> <s_lp_Variant>
AV-unprocessed.smi:2838-1

> <Gold.Version>
5.8.1

> <Gold.Id.Protein>
6NUR|6NUR_protein|mol2

> <Gold.PLP.Fitness>
40.1607

> <Gold.PLP.PLP>
-33.2618

> <Gold.PLP.part.hbond>
-2.5056

> <Gold.PLP.part.metal>
0.0000

> <Gold.PLP.part.buried>
-2.7686

> <Gold.PLP.part.nonpolar>
-28.2471

> <Gold.PLP.part.repulsive>
0.3320

> <Gold.PLP.ligand.clash>
0.0000

> <Gold.PLP.ligand.torsion>
0.6261

> <Gold.PLP.Chemscore.Hbond>
1.7616

> <Gold.PLP.Chemscore.CHOScore>
0.9036

> <Gold.PLP.Chemscore.Metal>
0.0000

> <Gold.Chemscore.Hbonds>
donor molecule, donor type, donor heavy atom, donor atom, acceptor molecule, acceptor atom, score
      L1  H     6    28       P1  7948  0.78
      P1  H 10752 10763       L1     5  0.83
      L1  C     8    29       P1  7948  0.88

> <Gold.PLP.Chemscore.Internal.Correction>
0.1556

> <Gold.Rescore>
     Score         DG    S(hbond)    S(metal)    S(lipo)     H(rot)  DE(clash)    DE(int)     intcor
     11.95     -14.73       1.18        0.00      74.71       1.34       0.17       2.61       ----

> <Gold.Chemscore.Fitness>
11.9453

> <Gold.Chemscore.DG>
-14.7274

> <Gold.Chemscore.ZeroCoef>
-5.4800

> <Gold.Chemscore.Hbond>
1.1753

> <Gold.Chemscore.Metal>
0.0000

> <Gold.Chemscore.Lipo>
74.7054

> <Gold.Chemscore.Internal_Hbond>
0.0000

> <Gold.Chemscore.DEClash>
0.1685

> <Gold.Chemscore.DEInternal>
2.6136

> <Gold.Chemscore.Rot>
1.3354

> <Gold.Chemscore.Internal.Correction>
   9.000000E+99

> <Gold.Chemscore.Hbonds>
donor molecule, donor type, donor heavy atom, donor atom, acceptor molecule, acceptor atom, score
      L1  H     6    28       P1  7948  0.12
      P1  H 10752 10763       L1     5  0.27

> <Gold.Chemscore.Hbond.Weighted>
-3.9254

> <Gold.Chemscore.Metal.Weighted>
-0.0000

> <Gold.Chemscore.Lipo.Weighted>
-8.7405

> <Gold.Chemscore.Internal_Hbond.Weighted>
0.0000

> <Gold.Chemscore.DEClash.Weighted>
0.1685

> <Gold.Chemscore.DEInternal.Weighted>
2.6136

> <Gold.Chemscore.Rot.Weighted>
3.4185

> <Gold.Chemscore.Internal.Correction.Weighted>
   9.000000E+99

> <Gold.Protein.RotatedTorsions>
[ 6907 6896 6895 6894 ] final -113.91 input  -60.11 | X-H torsion
[ 7974 7965 7964 7962 ] final -150.05 input  175.53 | X-H torsion
[ 8008 7997 7996 7995 ] final  -92.48 input   59.86 | X-H torsion
[ 10167 10162 10161 10158 ] final  -54.05 input  -65.29 | X-H torsion
[ 10718 10713 10712 10709 ] final  123.67 input   66.30 | X-H torsion
[ 10763 10752 10751 10750 ] final  107.10 input  -60.55 | X-H torsion
[ 11005 11000 10999 10996 ] final  -82.14 input  -57.11 | X-H torsion

> <Gold.Protein.ActiveResidues>
 VAL166  LYS551  ARG553  GLY616  TRP617  ASP618  TYR619  PRO620  LYS621  CYS622 
 ASP623  PHE694  ASN695  SER759  ASP760  ASP761  ALA762  ILE779  LEU786  VAL792 
 PHE793  MET794  SER795  GLU796  ALA797  LYS798  CYS799  TRP800  GLU811  SER814 

> <Gold.Protein.RotatedAtoms>
  150.7863  133.8877  159.3303 H   0  0  0  0  0  0  0  0  0  0  0  0  # atno 6907 bound_to 6896
  151.6726  135.0972  160.0210 H   0  0  0  0  0  0  0  0  0  0  0  0  # atno 6908 bound_to 6896
  152.3928  133.6664  159.6287 H   0  0  0  0  0  0  0  0  0  0  0  0  # atno 6909 bound_to 6896
  144.7930  140.4983  143.5759 H   0  0  0  0  0  0  0  0  0  0  0  0  # atno 7974 bound_to 7965
  154.7237  140.0508  157.0663 H   0  0  0  0  0  0  0  0  0  0  0  0  # atno 8008 bound_to 7997
  155.0394  140.3167  155.4711 H   0  0  0  0  0  0  0  0  0  0  0  0  # atno 8009 bound_to 7997
  156.2823  140.2135  156.5517 H   0  0  0  0  0  0  0  0  0  0  0  0  # atno 8010 bound_to 7997
  140.6452  143.2531  151.4880 H   0  0  0  0  0  0  0  0  0  0  0  0  # atno 10167 bound_to 10162
  157.5646  131.1087  150.8477 H   0  0  0  0  0  0  0  0  0  0  0  0  # atno 10718 bound_to 10713
  153.4021  135.3855  155.1994 H   0  0  0  0  0  0  0  0  0  0  0  0  # atno 10763 bound_to 10752
  154.8730  135.3774  154.4606 H   0  0  0  0  0  0  0  0  0  0  0  0  # atno 10764 bound_to 10752
  153.5104  135.7087  153.5846 H   0  0  0  0  0  0  0  0  0  0  0  0  # atno 10765 bound_to 10752
  141.1664  133.7230  156.8527 H   0  0  0  0  0  0  0  0  0  0  0  0  # atno 11005 bound_to 11000
  145.5744  139.1485  143.3270 LP  0  0  0  0  0  0  0  0  0  0  0  0  # atno 17320 bound_to 7965
  146.2189  140.5876  142.9026 LP  0  0  0  0  0  0  0  0  0  0  0  0  # atno 17321 bound_to 7965
  139.5662  144.2036  152.1768 LP  0  0  0  0  0  0  0  0  0  0  0  0  # atno 17342 bound_to 10162
  140.1319  144.5281  150.6797 LP  0  0  0  0  0  0  0  0  0  0  0  0  # atno 17343 bound_to 10162
  156.8965  130.5231  149.5284 LP  0  0  0  0  0  0  0  0  0  0  0  0  # atno 17370 bound_to 10713
  156.0695  130.5731  150.9356 LP  0  0  0  0  0  0  0  0  0  0  0  0  # atno 17371 bound_to 10713
  140.1904  134.8970  157.3053 LP  0  0  0  0  0  0  0  0  0  0  0  0  # atno 17394 bound_to 11000
  140.2297  134.3924  155.7527 LP  0  0  0  0  0  0  0  0  0  0  0  0  # atno 17395 bound_to 11000

$$$$
