AV-unprocessed.smi:100|AV-procd|sdf|897|dock5
  -GOLD-   2262017393D 1   1.00000     0.00000
 Structure written by MMmdl.
 31 33  0  0  0  0  0  0  0  0  1 V2000
  154.8636  141.1058  161.4031 N   0  0  0  0  0  0  0  0  0  0  0  0
  154.0096  141.4328  160.4235 C   0  0  0  0  0  0  0  0  0  0  0  0
  153.8268  142.7441  160.1394 N   0  0  0  0  0  0  0  0  0  0  0  0
  152.9812  143.0959  159.1648 C   0  0  0  0  0  0  0  0  0  0  0  0
  152.2406  142.3114  158.3762 N   0  0  0  0  0  0  0  0  0  0  0  0
  152.4258  140.9907  158.6687 C   0  0  0  0  0  0  0  0  0  0  0  0
  153.2902  140.4708  159.6708 C   0  0  0  0  0  0  0  0  0  0  0  0
  153.2268  139.0833  159.6768 N   0  0  0  0  0  0  0  0  0  0  0  0
  152.3714  138.8041  158.7296 C   0  0  0  0  0  0  0  0  0  0  0  0
  151.8393  139.8948  158.0752 N   0  0  0  0  0  0  0  0  0  0  0  0
  150.8553  139.9202  156.9535 C   0  0  2  0  0  0  0  0  0  0  0  0
  150.5271  138.5951  156.6590 O   0  0  0  0  0  0  0  0  0  0  0  0
  150.5739  138.3632  155.2551 C   0  0  1  0  0  0  0  0  0  0  0  0
  149.1826  138.6330  154.6497 C   0  0  0  0  0  0  0  0  0  0  0  0
  149.2910  138.8151  153.2544 O   0  0  0  0  0  0  0  0  0  0  0  0
  151.6431  139.3457  154.7717 C   0  0  2  0  0  0  0  0  0  0  0  0
  152.8489  138.7963  154.9274 F   0  0  0  0  0  0  0  0  0  0  0  0
  151.5084  140.5375  155.7063 C   0  0  1  0  0  0  0  0  0  0  0  0
  150.7035  141.5430  155.1236 O   0  0  0  0  0  0  0  0  0  0  0  0
  155.0166  140.1342  161.6320 H   0  0  0  0  0  0  0  0  0  0  0  0
  155.3513  141.8300  161.9101 H   0  0  0  0  0  0  0  0  0  0  0  0
  152.8832  144.1576  158.9923 H   0  0  0  0  0  0  0  0  0  0  0  0
  152.1035  137.7875  158.4802 H   0  0  0  0  0  0  0  0  0  0  0  0
  149.9894  140.4662  157.3314 H   0  0  0  0  0  0  0  0  0  0  0  0
  150.8780  137.3369  155.0438 H   0  0  0  0  0  0  0  0  0  0  0  0
  148.4784  137.8300  154.8689 H   0  0  0  0  0  0  0  0  0  0  0  0
  148.7636  139.5505  155.0635 H   0  0  0  0  0  0  0  0  0  0  0  0
  148.8127  138.1239  152.8227 H   0  0  0  0  0  0  0  0  0  0  0  0
  151.5561  139.6026  153.7152 H   0  0  0  0  0  0  0  0  0  0  0  0
  152.4784  140.9773  155.9445 H   0  0  0  0  0  0  0  0  0  0  0  0
  150.5089  141.2909  154.2333 H   0  0  0  0  0  0  0  0  0  0  0  0
  1  2  1  0  0  0  0
  1 20  1  0  0  0  0
  1 21  1  0  0  0  0
  2  7  1  0  0  0  0
  2  3  2  0  0  0  0
  3  4  1  0  0  0  0
  4  5  2  0  0  0  0
  4 22  1  0  0  0  0
  5  6  1  0  0  0  0
  6 10  1  0  0  0  0
  6  7  2  0  0  0  0
  7  8  1  0  0  0  0
  8  9  2  0  0  0  0
  9 10  1  0  0  0  0
  9 23  1  0  0  0  0
 10 11  1  0  0  0  0
 11 18  1  0  0  0  0
 11 12  1  0  0  0  0
 11 24  1  0  0  0  0
 12 13  1  0  0  0  0
 13 14  1  0  0  0  0
 13 16  1  0  0  0  0
 13 25  1  0  0  0  0
 14 15  1  0  0  0  0
 14 26  1  0  0  0  0
 14 27  1  0  0  0  0
 15 28  1  0  0  0  0
 16 17  1  0  0  0  0
 16 18  1  0  0  0  0
 16 29  1  0  0  0  0
 18 19  1  0  0  0  0
 18 30  1  0  0  0  0
 19 31  1  0  0  0  0
M  END
> <s_m_source_file>
AV-unprocessed.smi

> <i_m_source_file_index>
100

> <i_lp_mmshare_version>
43012

> <i_f3d_flags>
0

> <s_epik_input>
bjFbY0hdbmMoW05IMl0pYyhjMTIpbltjSF1uMltDQEBIXTNPW0NAQEhdKFtDSDJdW09IXSlbQ0BIXShGKVtDQEhdM1tPSF0=

> <s_epik_cmdline>
J2VwaWtfcHl0aG9uJywgJy1waCcsICc3LjAnLCAnLXRuJywgJzgnLCAnLW1hJywgJzIwMCcsICctbWV0YWxfYmluZGluZycsICctaW1hZScsICc8aW5maWxlLm1hZT4nLCAnLW9tYWUnLCAnPG91dGZpbGUubWFlPic=

> <r_lp_tautomer_probability>
1

> <r_epik_Ionization_Penalty>
0.000750324

> <r_epik_Ionization_Penalty_Charging>
0

> <r_epik_Ionization_Penalty_Neutral>
0.000750324

> <r_epik_State_Penalty>
-0

> <r_epik_Charging_Adjusted_Penalty>
0

> <i_epik_Tot_Q>
0

> <i_epik_Tot_abs_Q>
0

> <r_epik_Metal_State_Penalty>
-0

> <b_epik_Metal_Only>
0

> <s_epik_Chemistry_Notes>
This compound contains an acetal/aminal-like group ( X-CH(R)-Y where X, Y are N, S, or O) that may be acid/base labile, releasing an aldehyde.

> <s_lp_Force_Field>
OPLS_2005

> <r_lp_Energy>
27.7777

> <b_lp_Chiralities_Consistent>
1

> <s_lp_Variant>
AV-unprocessed.smi:100-1

> <Gold.Version>
5.8.1

> <Gold.Id.Protein>
6NUR|6NUR_protein|mol2

> <Gold.PLP.Fitness>
36.6880

> <Gold.PLP.PLP>
-33.9231

> <Gold.PLP.part.hbond>
-4.0000

> <Gold.PLP.part.metal>
0.0000

> <Gold.PLP.part.buried>
-3.1985

> <Gold.PLP.part.nonpolar>
-26.2295

> <Gold.PLP.part.repulsive>
0.0058

> <Gold.PLP.ligand.clash>
0.0000

> <Gold.PLP.ligand.torsion>
0.1261

> <Gold.PLP.Chemscore.Hbond>
1.0000

> <Gold.PLP.Chemscore.CHOScore>
0.0000

> <Gold.PLP.Chemscore.Metal>
0.0000

> <Gold.Chemscore.Hbonds>
donor molecule, donor type, donor heavy atom, donor atom, acceptor molecule, acceptor atom, score
      L1  H    15    28       P1  7948  0.74

> <Gold.PLP.Chemscore.Internal.Correction>
0.0172

> <Gold.Rescore>
     Score         DG    S(hbond)    S(metal)    S(lipo)     H(rot)  DE(clash)    DE(int)     intcor
      4.18      -4.42       0.98        0.00      32.65       3.19       0.01       0.23       ----

> <Gold.Chemscore.Fitness>
4.1821

> <Gold.Chemscore.DG>
-4.4199

> <Gold.Chemscore.ZeroCoef>
-5.4800

> <Gold.Chemscore.Hbond>
0.9839

> <Gold.Chemscore.Metal>
0.0000

> <Gold.Chemscore.Lipo>
32.6514

> <Gold.Chemscore.Internal_Hbond>
0.0000

> <Gold.Chemscore.DEClash>
0.0092

> <Gold.Chemscore.DEInternal>
0.2286

> <Gold.Chemscore.Rot>
3.1901

> <Gold.Chemscore.Internal.Correction>
   9.000000E+99

> <Gold.Chemscore.Hbonds>
donor molecule, donor type, donor heavy atom, donor atom, acceptor molecule, acceptor atom, score
      L1  H    15    28       P1  7948  0.72

> <Gold.Chemscore.Hbond.Weighted>
-3.2864

> <Gold.Chemscore.Metal.Weighted>
-0.0000

> <Gold.Chemscore.Lipo.Weighted>
-3.8202

> <Gold.Chemscore.Internal_Hbond.Weighted>
0.0000

> <Gold.Chemscore.DEClash.Weighted>
0.0092

> <Gold.Chemscore.DEInternal.Weighted>
0.2286

> <Gold.Chemscore.Rot.Weighted>
8.1667

> <Gold.Chemscore.Internal.Correction.Weighted>
   9.000000E+99

> <Gold.Protein.RotatedTorsions>
[ 6907 6896 6895 6894 ] final -116.97 input  -60.11 | X-H torsion
[ 7974 7965 7964 7962 ] final  134.85 input  175.53 | X-H torsion
[ 8008 7997 7996 7995 ] final  -51.76 input   59.86 | X-H torsion
[ 10167 10162 10161 10158 ] final -163.54 input  -65.29 | X-H torsion
[ 10718 10713 10712 10709 ] final   45.80 input   66.30 | X-H torsion
[ 10763 10752 10751 10750 ] final    4.73 input  -60.55 | X-H torsion
[ 11005 11000 10999 10996 ] final -115.63 input  -57.11 | X-H torsion

> <Gold.Protein.ActiveResidues>
 VAL166  LYS551  ARG553  GLY616  TRP617  ASP618  TYR619  PRO620  LYS621  CYS622 
 ASP623  PHE694  ASN695  SER759  ASP760  ASP761  ALA762  ILE779  LEU786  VAL792 
 PHE793  MET794  SER795  GLU796  ALA797  LYS798  CYS799  TRP800  GLU811  SER814 

> <Gold.Protein.RotatedAtoms>
  150.8099  133.8441  159.3187 H   0  0  0  0  0  0  0  0  0  0  0  0  # atno 6907 bound_to 6896
  151.6230  135.1028  160.0115 H   0  0  0  0  0  0  0  0  0  0  0  0  # atno 6908 bound_to 6896
  152.4190  133.7046  159.6500 H   0  0  0  0  0  0  0  0  0  0  0  0  # atno 6909 bound_to 6896
  144.9722  139.4593  143.5427 H   0  0  0  0  0  0  0  0  0  0  0  0  # atno 7974 bound_to 7965
  154.4090  140.1240  156.4881 H   0  0  0  0  0  0  0  0  0  0  0  0  # atno 8008 bound_to 7997
  155.7017  140.3494  155.4916 H   0  0  0  0  0  0  0  0  0  0  0  0  # atno 8009 bound_to 7997
  155.9379  140.1081  157.1070 H   0  0  0  0  0  0  0  0  0  0  0  0  # atno 8010 bound_to 7997
  139.6313  144.0433  152.2018 H   0  0  0  0  0  0  0  0  0  0  0  0  # atno 10167 bound_to 10162
  157.4414  130.8083  149.7697 H   0  0  0  0  0  0  0  0  0  0  0  0  # atno 10718 bound_to 10713
  153.2677  135.6929  153.7512 H   0  0  0  0  0  0  0  0  0  0  0  0  # atno 10763 bound_to 10752
  153.6547  135.3370  155.3111 H   0  0  0  0  0  0  0  0  0  0  0  0  # atno 10764 bound_to 10752
  154.8453  135.4463  154.1689 H   0  0  0  0  0  0  0  0  0  0  0  0  # atno 10765 bound_to 10752
  141.0475  133.9740  157.2893 H   0  0  0  0  0  0  0  0  0  0  0  0  # atno 11005 bound_to 11000
  146.3385  139.8942  142.8804 LP  0  0  0  0  0  0  0  0  0  0  0  0  # atno 17320 bound_to 7965
  145.2542  141.0054  143.3863 LP  0  0  0  0  0  0  0  0  0  0  0  0  # atno 17321 bound_to 7965
  140.0100  144.6231  150.7656 LP  0  0  0  0  0  0  0  0  0  0  0  0  # atno 17342 bound_to 10162
  140.7441  143.2855  151.3475 LP  0  0  0  0  0  0  0  0  0  0  0  0  # atno 17343 bound_to 10162
  155.9950  130.3914  150.2836 LP  0  0  0  0  0  0  0  0  0  0  0  0  # atno 17370 bound_to 10713
  157.1001  131.0193  151.3088 LP  0  0  0  0  0  0  0  0  0  0  0  0  # atno 17371 bound_to 10713
  139.9323  135.0199  156.8442 LP  0  0  0  0  0  0  0  0  0  0  0  0  # atno 17394 bound_to 11000
  140.6119  134.0074  155.7580 LP  0  0  0  0  0  0  0  0  0  0  0  0  # atno 17395 bound_to 11000

$$$$
