AV-unprocessed.smi:612|AV-procd|sdf|3062|dock2
  -GOLD-   2262023583D 1   1.00000     0.00000
 Structure written by MMmdl.
 50 52  0  0  0  0  0  0  0  0  2 V2000
  153.5733  141.2609  160.1052 C   0  0  0  0  0  0  0  0  0  0  0  0
  152.9054  142.1663  159.1667 N   0  0  0  0  0  0  0  0  0  0  0  0
  153.1466  143.5432  159.3085 C   0  0  0  0  0  0  0  0  0  0  0  0
  152.5757  144.4443  158.4973 C   0  0  0  0  0  0  0  0  0  0  0  0
  151.6937  143.9708  157.4578 C   0  0  0  0  0  0  0  0  0  0  0  0
  151.4524  142.6449  157.2977 C   0  0  0  0  0  0  0  0  0  0  0  0
  150.6033  142.0954  156.3202 N   0  0  0  0  0  0  0  0  0  0  0  0
  149.7194  141.0854  156.4211 C   0  0  0  0  0  0  0  0  0  0  0  0
  149.4703  140.4436  157.4410 O   0  0  0  0  0  0  0  0  0  0  0  0
  149.1088  140.8691  155.2465 N   0  0  0  0  0  0  0  0  0  0  0  0
  148.0643  139.8790  154.9951 C   0  0  2  0  0  0  0  0  0  0  0  0
  148.6129  138.4600  155.2022 C   0  0  0  0  0  0  0  0  0  0  0  0
  147.5578  137.3988  154.8448 C   0  0  0  0  0  0  0  0  0  0  0  0
  147.0624  137.5607  153.4487 N   0  3  1  0  0  0  0  0  0  0  0  0
  146.1145  136.4831  153.0399 C   0  0  0  0  0  0  0  0  0  0  0  0
  145.6184  136.6086  151.5917 C   0  0  0  0  0  0  0  0  0  0  0  0
  144.3315  135.7797  151.5305 C   0  0  0  0  0  0  0  0  0  0  0  0
  143.8053  135.6980  152.9697 C   0  0  0  0  0  0  0  0  0  0  0  0
  144.7984  136.4831  153.8320 C   0  0  0  0  0  0  0  0  0  0  0  0
  146.5113  138.9281  153.2328 C   0  0  0  0  0  0  0  0  0  0  0  0
  147.5478  140.0162  153.5566 C   0  0  0  0  0  0  0  0  0  0  0  0
  152.0814  141.6609  158.2011 C   0  0  0  0  0  0  0  0  0  0  0  0
  151.8842  140.4470  158.1022 O   0  0  0  0  0  0  0  0  0  0  0  0
  154.2142  141.7862  160.8143 H   0  0  0  0  0  0  0  0  0  0  0  0
  154.2003  140.5464  159.5696 H   0  0  0  0  0  0  0  0  0  0  0  0
  152.8379  140.7009  160.6846 H   0  0  0  0  0  0  0  0  0  0  0  0
  153.8171  143.8183  160.1097 H   0  0  0  0  0  0  0  0  0  0  0  0
  152.7707  145.4998  158.6182 H   0  0  0  0  0  0  0  0  0  0  0  0
  151.2305  144.7164  156.8330 H   0  0  0  0  0  0  0  0  0  0  0  0
  150.6494  142.5592  155.4244 H   0  0  0  0  0  0  0  0  0  0  0  0
  149.3785  141.4491  154.4653 H   0  0  0  0  0  0  0  0  0  0  0  0
  147.2240  140.0259  155.6761 H   0  0  0  0  0  0  0  0  0  0  0  0
  149.5015  138.3088  154.5871 H   0  0  0  0  0  0  0  0  0  0  0  0
  148.9284  138.3295  156.2381 H   0  0  0  0  0  0  0  0  0  0  0  0
  148.0094  136.4169  154.9803 H   0  0  0  0  0  0  0  0  0  0  0  0
  146.7171  137.4583  155.5380 H   0  0  0  0  0  0  0  0  0  0  0  0
  146.6009  135.5135  153.1631 H   0  0  0  0  0  0  0  0  0  0  0  0
  145.3867  137.6507  151.3657 H   0  0  0  0  0  0  0  0  0  0  0  0
  146.3504  136.2646  150.8603 H   0  0  0  0  0  0  0  0  0  0  0  0
  143.6024  136.2265  150.8536 H   0  0  0  0  0  0  0  0  0  0  0  0
  144.5474  134.7766  151.1601 H   0  0  0  0  0  0  0  0  0  0  0  0
  142.7957  136.1004  153.0598 H   0  0  0  0  0  0  0  0  0  0  0  0
  143.7702  134.6559  153.2901 H   0  0  0  0  0  0  0  0  0  0  0  0
  144.9002  136.0439  154.8248 H   0  0  0  0  0  0  0  0  0  0  0  0
  144.4380  137.5058  153.9557 H   0  0  0  0  0  0  0  0  0  0  0  0
  146.2012  139.0584  152.1967 H   0  0  0  0  0  0  0  0  0  0  0  0
  145.6209  139.0633  153.8489 H   0  0  0  0  0  0  0  0  0  0  0  0
  147.1029  141.0016  153.4129 H   0  0  0  0  0  0  0  0  0  0  0  0
  148.3786  139.9460  152.8526 H   0  0  0  0  0  0  0  0  0  0  0  0
  147.8681  137.4759  152.8453 H   0  0  0  0  0  0  0  0  0  0  0  0
  1  2  1  0  0  0  0
  1 24  1  0  0  0  0
  1 25  1  0  0  0  0
  1 26  1  0  0  0  0
  2 22  1  0  0  0  0
  2  3  1  0  0  0  0
  3  4  2  0  0  0  0
  3 27  1  0  0  0  0
  4  5  1  0  0  0  0
  4 28  1  0  0  0  0
  5  6  2  0  0  0  0
  5 29  1  0  0  0  0
  6  7  1  0  0  0  0
  6 22  1  0  0  0  0
  7  8  1  0  0  0  0
  7 30  1  0  0  0  0
  8  9  2  0  0  0  0
  8 10  1  0  0  0  0
 10 11  1  0  0  0  0
 10 31  1  0  0  0  0
 11 21  1  0  0  0  0
 11 12  1  0  0  0  0
 11 32  1  0  0  0  0
 12 13  1  0  0  0  0
 12 33  1  0  0  0  0
 12 34  1  0  0  0  0
 13 14  1  0  0  0  0
 13 35  1  0  0  0  0
 13 36  1  0  0  0  0
 14 15  1  0  0  0  0
 14 20  1  0  0  0  0
 14 50  1  0  0  0  0
 15 19  1  0  0  0  0
 15 16  1  0  0  0  0
 15 37  1  0  0  0  0
 16 17  1  0  0  0  0
 16 38  1  0  0  0  0
 16 39  1  0  0  0  0
 17 18  1  0  0  0  0
 17 40  1  0  0  0  0
 17 41  1  0  0  0  0
 18 19  1  0  0  0  0
 18 42  1  0  0  0  0
 18 43  1  0  0  0  0
 19 44  1  0  0  0  0
 19 45  1  0  0  0  0
 20 21  1  0  0  0  0
 20 46  1  0  0  0  0
 20 47  1  0  0  0  0
 21 48  1  0  0  0  0
 21 49  1  0  0  0  0
 22 23  2  0  0  0  0
M  CHG  1  14   1
M  END
> <s_m_source_file>
AV-unprocessed.smi

> <i_m_source_file_index>
612

> <i_lp_mmshare_version>
43012

> <i_f3d_flags>
0

> <s_epik_input>
W0NIM11uMVtjSF1bY0hdW2NIXWMoYzE9TylbTkhdQyg9TylbTkhdW0NIXTJbQ0gyXVtDSDJdTihbQ0gyXVtDSDJdMilbQ0hdM1tDSDJdW0NIMl1bQ0gyXVtDSDJdMw==

> <s_epik_cmdline>
J2VwaWtfcHl0aG9uJywgJy1waCcsICc3LjAnLCAnLXRuJywgJzgnLCAnLW1hJywgJzIwMCcsICctbWV0YWxfYmluZGluZycsICctaW1hZScsICc8aW5maWxlLm1hZT4nLCAnLW9tYWUnLCAnPG91dGZpbGUubWFlPic=

> <r_lp_tautomer_probability>
1

> <r_epik_Ionization_Penalty>
0.00200366

> <r_epik_Ionization_Penalty_Charging>
0.00198522

> <r_epik_Ionization_Penalty_Neutral>
1.84356e-05

> <r_epik_State_Penalty>
0.00135242

> <r_epik_Charging_Adjusted_Penalty>
0.00333764

> <i_epik_Tot_Q>
1

> <i_epik_Tot_abs_Q>
1

> <r_epik_Metal_State_Penalty>
-0

> <b_epik_Metal_Only>
0

> <s_lp_Force_Field>
OPLS_2005

> <r_lp_Energy>
50.284

> <b_lp_Chiralities_Consistent>
1

> <s_lp_Variant>
AV-unprocessed.smi:612-1

> <Gold.Version>
5.8.1

> <Gold.Id.Protein>
6NUR|6NUR_protein|mol2

> <Gold.PLP.Fitness>
45.0181

> <Gold.PLP.PLP>
-39.6779

> <Gold.PLP.part.hbond>
-1.9534

> <Gold.PLP.part.metal>
0.0000

> <Gold.PLP.part.buried>
-4.1444

> <Gold.PLP.part.nonpolar>
-34.9952

> <Gold.PLP.part.repulsive>
0.2327

> <Gold.PLP.ligand.clash>
0.0000

> <Gold.PLP.ligand.torsion>
0.3484

> <Gold.PLP.Chemscore.Hbond>
2.0000

> <Gold.PLP.Chemscore.CHOScore>
0.0000

> <Gold.PLP.Chemscore.Metal>
0.0000

> <Gold.Chemscore.Hbonds>
donor molecule, donor type, donor heavy atom, donor atom, acceptor molecule, acceptor atom, score
      L1  H    14    50       P1  7948  1.79

> <Gold.PLP.Chemscore.Internal.Correction>
0.0370

> <Gold.Rescore>
     Score         DG    S(hbond)    S(metal)    S(lipo)     H(rot)  DE(clash)    DE(int)     intcor
     13.95     -17.14       0.92        0.00      99.84       1.21       0.12       3.07       ----

> <Gold.Chemscore.Fitness>
13.9452

> <Gold.Chemscore.DG>
-17.1380

> <Gold.Chemscore.ZeroCoef>
-5.4800

> <Gold.Chemscore.Hbond>
0.9169

> <Gold.Chemscore.Metal>
0.0000

> <Gold.Chemscore.Lipo>
99.8447

> <Gold.Chemscore.Internal_Hbond>
0.0000

> <Gold.Chemscore.DEClash>
0.1227

> <Gold.Chemscore.DEInternal>
3.0701

> <Gold.Chemscore.Rot>
1.2056

> <Gold.Chemscore.Internal.Correction>
   9.000000E+99

> <Gold.Chemscore.Hbonds>
donor molecule, donor type, donor heavy atom, donor atom, acceptor molecule, acceptor atom, score
      L1  H    14    50       P1  7948  0.88

> <Gold.Chemscore.Hbond.Weighted>
-3.0624

> <Gold.Chemscore.Metal.Weighted>
-0.0000

> <Gold.Chemscore.Lipo.Weighted>
-11.6818

> <Gold.Chemscore.Internal_Hbond.Weighted>
0.0000

> <Gold.Chemscore.DEClash.Weighted>
0.1227

> <Gold.Chemscore.DEInternal.Weighted>
3.0701

> <Gold.Chemscore.Rot.Weighted>
3.0862

> <Gold.Chemscore.Internal.Correction.Weighted>
   9.000000E+99

> <Gold.Protein.RotatedTorsions>
[ 6907 6896 6895 6894 ] final  -17.42 input  -60.11 | X-H torsion
[ 7974 7965 7964 7962 ] final  -56.39 input  175.53 | X-H torsion
[ 8008 7997 7996 7995 ] final   98.77 input   59.86 | X-H torsion
[ 10167 10162 10161 10158 ] final   52.07 input  -65.29 | X-H torsion
[ 10718 10713 10712 10709 ] final -140.09 input   66.30 | X-H torsion
[ 10763 10752 10751 10750 ] final  150.19 input  -60.55 | X-H torsion
[ 11005 11000 10999 10996 ] final  -17.26 input  -57.11 | X-H torsion

> <Gold.Protein.ActiveResidues>
 VAL166  LYS551  ARG553  GLY616  TRP617  ASP618  TYR619  PRO620  LYS621  CYS622 
 ASP623  PHE694  ASN695  SER759  ASP760  ASP761  ALA762  ILE779  LEU786  VAL792 
 PHE793  MET794  SER795  GLU796  ALA797  LYS798  CYS799  TRP800  GLU811  SER814 

> <Gold.Protein.RotatedAtoms>
  151.2935  135.0749  159.9212 H   0  0  0  0  0  0  0  0  0  0  0  0  # atno 6907 bound_to 6896
  152.5312  133.9907  159.7859 H   0  0  0  0  0  0  0  0  0  0  0  0  # atno 6908 bound_to 6896
  151.0181  133.5851  159.2705 H   0  0  0  0  0  0  0  0  0  0  0  0  # atno 6909 bound_to 6896
  145.8632  140.8270  142.9926 H   0  0  0  0  0  0  0  0  0  0  0  0  # atno 7974 bound_to 7965
  156.1038  140.3239  155.7978 H   0  0  0  0  0  0  0  0  0  0  0  0  # atno 8008 bound_to 7997
  155.4792  140.0552  157.2986 H   0  0  0  0  0  0  0  0  0  0  0  0  # atno 8009 bound_to 7997
  154.4714  140.2013  156.0001 H   0  0  0  0  0  0  0  0  0  0  0  0  # atno 8010 bound_to 7997
  140.2553  144.3434  150.6335 H   0  0  0  0  0  0  0  0  0  0  0  0  # atno 10167 bound_to 10162
  156.3183  130.7520  151.1612 H   0  0  0  0  0  0  0  0  0  0  0  0  # atno 10718 bound_to 10713
  154.0835  135.2857  155.3286 H   0  0  0  0  0  0  0  0  0  0  0  0  # atno 10763 bound_to 10752
  154.6668  135.5314  153.8090 H   0  0  0  0  0  0  0  0  0  0  0  0  # atno 10764 bound_to 10752
  153.0440  135.6547  154.1008 H   0  0  0  0  0  0  0  0  0  0  0  0  # atno 10765 bound_to 10752
  140.8150  133.8111  155.9601 H   0  0  0  0  0  0  0  0  0  0  0  0  # atno 11005 bound_to 11000
  144.6726  140.1127  143.7454 LP  0  0  0  0  0  0  0  0  0  0  0  0  # atno 17320 bound_to 7965
  145.9223  139.2553  143.1374 LP  0  0  0  0  0  0  0  0  0  0  0  0  # atno 17321 bound_to 7965
  140.6009  143.2167  151.7074 LP  0  0  0  0  0  0  0  0  0  0  0  0  # atno 17342 bound_to 10162
  139.5033  144.3794  152.0391 LP  0  0  0  0  0  0  0  0  0  0  0  0  # atno 17343 bound_to 10162
  157.7406  131.0514  150.5153 LP  0  0  0  0  0  0  0  0  0  0  0  0  # atno 17370 bound_to 10713
  156.5302  130.4183  149.6206 LP  0  0  0  0  0  0  0  0  0  0  0  0  # atno 17371 bound_to 10713
  140.9158  134.2203  157.4957 LP  0  0  0  0  0  0  0  0  0  0  0  0  # atno 17394 bound_to 11000
  139.8711  134.9770  156.4944 LP  0  0  0  0  0  0  0  0  0  0  0  0  # atno 17395 bound_to 11000

$$$$
