AV-unprocessed.smi:212|AV-procd|sdf|1629|dock1
  -GOLD-   2262019573D 1   1.00000     0.00000
 Structure written by MMmdl.
 65 68  0  0  0  0  0  0  0  0  2 V2000
  146.7280  135.3359  155.5850 C   0  0  0  0  0  0  0  0  0  0  0  0
  145.8421  135.4111  154.3266 C   0  0  2  0  0  0  0  0  0  0  0  0
  146.4338  134.6636  153.1113 C   0  0  0  0  0  0  0  0  0  0  0  0
  145.5094  134.7156  151.9486 N   0  3  2  0  0  0  0  0  0  0  0  0
  146.0060  133.9522  150.7729 C   0  0  0  0  0  0  0  0  0  0  0  0
  145.7081  132.4377  150.8753 C   0  0  0  0  0  0  0  0  0  0  0  0
  144.2887  132.2143  151.4240 C   0  0  0  0  0  0  0  0  0  0  0  0
  145.8762  131.7166  149.5249 C   0  0  0  0  0  0  0  0  0  0  0  0
  146.5954  131.8509  151.8067 O   0  0  0  0  0  0  0  0  0  0  0  0
  145.0923  136.1034  151.6156 C   0  0  0  0  0  0  0  0  0  0  0  0
  144.4913  136.8117  152.8441 C   0  0  0  0  0  0  0  0  0  0  0  0
  145.4187  136.7716  153.9709 N   0  0  0  0  0  0  0  0  0  0  0  0
  146.3026  137.8025  153.9566 C   0  0  0  0  0  0  0  0  0  0  0  0
  146.6692  138.3890  152.7867 N   0  0  0  0  0  0  0  0  0  0  0  0
  147.5152  139.4238  152.7881 C   0  0  0  0  0  0  0  0  0  0  0  0
  148.0943  140.0270  153.8283 N   0  0  0  0  0  0  0  0  0  0  0  0
  147.7206  139.4482  155.0049 C   0  0  0  0  0  0  0  0  0  0  0  0
  146.8384  138.3425  155.1570 C   0  0  0  0  0  0  0  0  0  0  0  0
  146.6954  138.0280  156.5027 N   0  0  0  0  0  0  0  0  0  0  0  0
  147.4485  138.9022  157.1134 C   0  0  0  0  0  0  0  0  0  0  0  0
  148.0926  139.7985  156.2901 N   0  0  0  0  0  0  0  0  0  0  0  0
  148.9771  140.8760  156.6957 C   0  0  0  0  0  0  0  0  0  0  0  0
  150.4405  140.4271  156.9539 C   0  0  1  0  0  0  0  0  0  0  0  0
  151.3713  140.7174  155.7480 C   0  0  0  0  0  0  0  0  0  0  0  0
  150.8719  140.1634  154.5476 O   0  0  0  0  0  0  0  0  0  0  0  0
  150.9868  141.0855  158.2478 C   0  0  1  0  0  0  0  0  0  0  0  0
  152.4124  140.7031  158.6104 C   0  0  0  0  0  0  0  0  0  0  0  0
  152.8052  141.8112  159.5788 C   0  0  0  0  0  0  0  0  0  0  0  0
  152.1577  142.9781  159.0904 O   0  0  0  0  0  0  0  0  0  0  0  0
  151.1151  142.6145  158.1902 C   0  0  0  0  0  0  0  0  0  0  0  0
  146.8683  134.2996  155.8936 H   0  0  0  0  0  0  0  0  0  0  0  0
  146.2672  135.8646  156.4198 H   0  0  0  0  0  0  0  0  0  0  0  0
  147.7195  135.7588  155.4264 H   0  0  0  0  0  0  0  0  0  0  0  0
  144.9190  134.8924  154.5898 H   0  0  0  0  0  0  0  0  0  0  0  0
  147.4005  135.0788  152.8259 H   0  0  0  0  0  0  0  0  0  0  0  0
  146.6094  133.6210  153.3802 H   0  0  0  0  0  0  0  0  0  0  0  0
  145.5907  134.3667  149.8524 H   0  0  0  0  0  0  0  0  0  0  0  0
  147.0864  134.0792  150.6833 H   0  0  0  0  0  0  0  0  0  0  0  0
  143.5364  132.6352  150.7557 H   0  0  0  0  0  0  0  0  0  0  0  0
  144.1593  132.6834  152.4004 H   0  0  0  0  0  0  0  0  0  0  0  0
  144.0669  131.1524  151.5381 H   0  0  0  0  0  0  0  0  0  0  0  0
  145.2188  132.1433  148.7664 H   0  0  0  0  0  0  0  0  0  0  0  0
  145.6333  130.6567  149.6094 H   0  0  0  0  0  0  0  0  0  0  0  0
  146.8984  131.7845  149.1510 H   0  0  0  0  0  0  0  0  0  0  0  0
  147.4137  131.6676  151.3698 H   0  0  0  0  0  0  0  0  0  0  0  0
  145.9543  136.6621  151.2475 H   0  0  0  0  0  0  0  0  0  0  0  0
  144.3588  136.0910  150.8099 H   0  0  0  0  0  0  0  0  0  0  0  0
  144.2222  137.8381  152.5899 H   0  0  0  0  0  0  0  0  0  0  0  0
  143.5648  136.3188  153.1411 H   0  0  0  0  0  0  0  0  0  0  0  0
  147.7615  139.8283  151.8174 H   0  0  0  0  0  0  0  0  0  0  0  0
  147.5472  138.9239  158.1889 H   0  0  0  0  0  0  0  0  0  0  0  0
  148.9535  141.6482  155.9257 H   0  0  0  0  0  0  0  0  0  0  0  0
  148.5477  141.3224  157.5925 H   0  0  0  0  0  0  0  0  0  0  0  0
  150.4377  139.3486  157.1207 H   0  0  0  0  0  0  0  0  0  0  0  0
  151.5209  141.7905  155.6233 H   0  0  0  0  0  0  0  0  0  0  0  0
  152.3577  140.2801  155.8947 H   0  0  0  0  0  0  0  0  0  0  0  0
  149.9931  140.4838  154.4114 H   0  0  0  0  0  0  0  0  0  0  0  0
  150.3402  140.8236  159.0873 H   0  0  0  0  0  0  0  0  0  0  0  0
  152.4943  139.7140  159.0616 H   0  0  0  0  0  0  0  0  0  0  0  0
  153.0533  140.7316  157.7278 H   0  0  0  0  0  0  0  0  0  0  0  0
  152.4266  141.5943  160.5785 H   0  0  0  0  0  0  0  0  0  0  0  0
  153.8848  141.9488  159.6454 H   0  0  0  0  0  0  0  0  0  0  0  0
  151.4005  142.9444  157.1904 H   0  0  0  0  0  0  0  0  0  0  0  0
  150.1861  143.1186  158.4574 H   0  0  0  0  0  0  0  0  0  0  0  0
  144.6716  134.2385  152.2492 H   0  0  0  0  0  0  0  0  0  0  0  0
  1  2  1  0  0  0  0
  1 31  1  0  0  0  0
  1 32  1  0  0  0  0
  1 33  1  0  0  0  0
  2 12  1  0  0  0  0
  2  3  1  0  0  0  0
  2 34  1  0  0  0  0
  3  4  1  0  0  0  0
  3 35  1  0  0  0  0
  3 36  1  0  0  0  0
  4  5  1  0  0  0  0
  4 10  1  0  0  0  0
  4 65  1  0  0  0  0
  5  6  1  0  0  0  0
  5 37  1  0  0  0  0
  5 38  1  0  0  0  0
  6  7  1  0  0  0  0
  6  8  1  0  0  0  0
  6  9  1  0  0  0  0
  7 39  1  0  0  0  0
  7 40  1  0  0  0  0
  7 41  1  0  0  0  0
  8 42  1  0  0  0  0
  8 43  1  0  0  0  0
  8 44  1  0  0  0  0
  9 45  1  0  0  0  0
 10 11  1  0  0  0  0
 10 46  1  0  0  0  0
 10 47  1  0  0  0  0
 11 12  1  0  0  0  0
 11 48  1  0  0  0  0
 11 49  1  0  0  0  0
 12 13  1  0  0  0  0
 13 18  1  0  0  0  0
 13 14  2  0  0  0  0
 14 15  1  0  0  0  0
 15 16  2  0  0  0  0
 15 50  1  0  0  0  0
 16 17  1  0  0  0  0
 17 21  1  0  0  0  0
 17 18  2  0  0  0  0
 18 19  1  0  0  0  0
 19 20  2  0  0  0  0
 20 21  1  0  0  0  0
 20 51  1  0  0  0  0
 21 22  1  0  0  0  0
 22 23  1  0  0  0  0
 22 52  1  0  0  0  0
 22 53  1  0  0  0  0
 23 24  1  0  0  0  0
 23 26  1  0  0  0  0
 23 54  1  0  0  0  0
 24 25  1  0  0  0  0
 24 55  1  0  0  0  0
 24 56  1  0  0  0  0
 25 57  1  0  0  0  0
 26 30  1  0  0  0  0
 26 27  1  0  0  0  0
 26 58  1  0  0  0  0
 27 28  1  0  0  0  0
 27 59  1  0  0  0  0
 27 60  1  0  0  0  0
 28 29  1  0  0  0  0
 28 61  1  0  0  0  0
 28 62  1  0  0  0  0
 29 30  1  0  0  0  0
 30 63  1  0  0  0  0
 30 64  1  0  0  0  0
M  CHG  1   4   1
M  END
> <s_m_source_file>
AV-unprocessed.smi

> <i_m_source_file_index>
212

> <i_lp_mmshare_version>
43012

> <i_f3d_flags>
0

> <s_epik_input>
W0NIM11bQ0BASF0xW0NIMl1OKFtDSDJdQyhbQ0gzXSkoW0NIM10pW09IXSlbQ0gyXVtDSDJdTjFjKG5bY0hdbjIpYyhjMjMpbltjSF1uM1tDSDJdW0NASF0oW0NIMl1bT0hdKVtDQEBIXTRbQ0gyXVtDSDJdT1tDSDJdNA==

> <s_epik_cmdline>
J2VwaWtfcHl0aG9uJywgJy1waCcsICc3LjAnLCAnLXRuJywgJzgnLCAnLW1hJywgJzIwMCcsICctbWV0YWxfYmluZGluZycsICctaW1hZScsICc8aW5maWxlLm1hZT4nLCAnLW9tYWUnLCAnPG91dGZpbGUubWFlPic=

> <r_lp_tautomer_probability>
1

> <r_epik_Ionization_Penalty>
0.00182193

> <r_epik_Ionization_Penalty_Charging>
0.00173996

> <r_epik_Ionization_Penalty_Neutral>
8.19718e-05

> <r_epik_State_Penalty>
-0

> <r_epik_Charging_Adjusted_Penalty>
0.00173996

> <i_epik_Tot_Q>
1

> <i_epik_Tot_abs_Q>
1

> <r_epik_Metal_State_Penalty>
-0

> <b_epik_Metal_Only>
0

> <s_lp_Force_Field>
OPLS_2005

> <r_lp_Energy>
57.8479

> <b_lp_Chiralities_Consistent>
1

> <s_lp_Variant>
AV-unprocessed.smi:212-13

> <Gold.Version>
5.8.1

> <Gold.Id.Protein>
6NUR|6NUR_protein|mol2

> <Gold.PLP.Fitness>
43.7369

> <Gold.PLP.PLP>
-37.3936

> <Gold.PLP.part.hbond>
-2.0000

> <Gold.PLP.part.metal>
0.0000

> <Gold.PLP.part.buried>
-5.7585

> <Gold.PLP.part.nonpolar>
-29.6948

> <Gold.PLP.part.repulsive>
0.4674

> <Gold.PLP.ligand.clash>
0.0000

> <Gold.PLP.ligand.torsion>
1.9028

> <Gold.PLP.Chemscore.Hbond>
2.0000

> <Gold.PLP.Chemscore.CHOScore>
0.9172

> <Gold.PLP.Chemscore.Metal>
0.0000

> <Gold.Chemscore.Hbonds>
donor molecule, donor type, donor heavy atom, donor atom, acceptor molecule, acceptor atom, score
      L1  H     9    45       P1 10747  0.89
      P1  H  7989  7998       L1    25  0.86
      L1  C    15    50       P1  7957  0.70

> <Gold.PLP.Chemscore.Internal.Correction>
1.3974

> <Gold.Rescore>
     Score         DG    S(hbond)    S(metal)    S(lipo)     H(rot)  DE(clash)    DE(int)     intcor
      6.67     -12.28       1.72        0.00      89.61       3.68       0.28       5.34       ----

> <Gold.Chemscore.Fitness>
6.6662

> <Gold.Chemscore.DG>
-12.2776

> <Gold.Chemscore.ZeroCoef>
-5.4800

> <Gold.Chemscore.Hbond>
1.7177

> <Gold.Chemscore.Metal>
0.0000

> <Gold.Chemscore.Lipo>
89.6094

> <Gold.Chemscore.Internal_Hbond>
0.0000

> <Gold.Chemscore.DEClash>
0.2754

> <Gold.Chemscore.DEInternal>
5.3360

> <Gold.Chemscore.Rot>
3.6812

> <Gold.Chemscore.Internal.Correction>
   9.000000E+99

> <Gold.Chemscore.Hbonds>
donor molecule, donor type, donor heavy atom, donor atom, acceptor molecule, acceptor atom, score
      L1  H     9    45       P1 10747  0.86
      P1  H  7989  7998       L1    25  0.13

> <Gold.Chemscore.Hbond.Weighted>
-5.7373

> <Gold.Chemscore.Metal.Weighted>
-0.0000

> <Gold.Chemscore.Lipo.Weighted>
-10.4843

> <Gold.Chemscore.Internal_Hbond.Weighted>
0.0000

> <Gold.Chemscore.DEClash.Weighted>
0.2754

> <Gold.Chemscore.DEInternal.Weighted>
5.3360

> <Gold.Chemscore.Rot.Weighted>
9.4239

> <Gold.Chemscore.Internal.Correction.Weighted>
   9.000000E+99

> <Gold.Protein.RotatedTorsions>
[ 6907 6896 6895 6894 ] final   69.79 input  -60.11 | X-H torsion
[ 7974 7965 7964 7962 ] final -167.75 input  175.53 | X-H torsion
[ 8008 7997 7996 7995 ] final  138.78 input   59.86 | X-H torsion
[ 10167 10162 10161 10158 ] final   -8.88 input  -65.29 | X-H torsion
[ 10718 10713 10712 10709 ] final    0.12 input   66.30 | X-H torsion
[ 10763 10752 10751 10750 ] final -153.32 input  -60.55 | X-H torsion
[ 11005 11000 10999 10996 ] final   76.24 input  -57.11 | X-H torsion

> <Gold.Protein.ActiveResidues>
 VAL166  LYS551  ARG553  GLY616  TRP617  ASP618  TYR619  PRO620  LYS621  CYS622 
 ASP623  PHE694  ASN695  SER759  ASP760  ASP761  ALA762  ILE779  LEU786  VAL792 
 PHE793  MET794  SER795  GLU796  ALA797  LYS798  CYS799  TRP800  GLU811  SER814 

> <Gold.Protein.RotatedAtoms>
  152.4709  134.4963  159.9710 H   0  0  0  0  0  0  0  0  0  0  0  0  # atno 6907 bound_to 6896
  151.4990  133.3502  159.2873 H   0  0  0  0  0  0  0  0  0  0  0  0  # atno 6908 bound_to 6896
  150.8718  134.8121  159.7222 H   0  0  0  0  0  0  0  0  0  0  0  0  # atno 6909 bound_to 6896
  144.7217  140.2472  143.6283 H   0  0  0  0  0  0  0  0  0  0  0  0  # atno 7974 bound_to 7965
  156.2995  140.2385  156.4129 H   0  0  0  0  0  0  0  0  0  0  0  0  # atno 8008 bound_to 7997
  154.8425  140.0427  157.1571 H   0  0  0  0  0  0  0  0  0  0  0  0  # atno 8009 bound_to 7997
  154.9087  140.2987  155.5281 H   0  0  0  0  0  0  0  0  0  0  0  0  # atno 8010 bound_to 7997
  140.7071  143.5920  150.8884 H   0  0  0  0  0  0  0  0  0  0  0  0  # atno 10167 bound_to 10162
  156.8286  130.5481  149.5689 H   0  0  0  0  0  0  0  0  0  0  0  0  # atno 10718 bound_to 10713
  154.7936  135.3215  154.7720 H   0  0  0  0  0  0  0  0  0  0  0  0  # atno 10763 bound_to 10752
  153.8404  135.6871  153.4808 H   0  0  0  0  0  0  0  0  0  0  0  0  # atno 10764 bound_to 10752
  153.1616  135.4658  154.9721 H   0  0  0  0  0  0  0  0  0  0  0  0  # atno 10765 bound_to 10752
  139.9307  134.7584  156.1370 H   0  0  0  0  0  0  0  0  0  0  0  0  # atno 11005 bound_to 11000
  145.8263  139.2066  143.1909 LP  0  0  0  0  0  0  0  0  0  0  0  0  # atno 17320 bound_to 7965
  146.0470  140.8107  142.9800 LP  0  0  0  0  0  0  0  0  0  0  0  0  # atno 17321 bound_to 7965
  139.9645  143.6126  152.2992 LP  0  0  0  0  0  0  0  0  0  0  0  0  # atno 17342 bound_to 10162
  139.6690  144.7661  151.1818 LP  0  0  0  0  0  0  0  0  0  0  0  0  # atno 17343 bound_to 10162
  156.0947  130.5923  150.9793 LP  0  0  0  0  0  0  0  0  0  0  0  0  # atno 17370 bound_to 10713
  157.6419  131.0909  150.8234 LP  0  0  0  0  0  0  0  0  0  0  0  0  # atno 17371 bound_to 10713
  141.0894  133.6720  156.2507 LP  0  0  0  0  0  0  0  0  0  0  0  0  # atno 17394 bound_to 11000
  140.6209  134.5362  157.5547 LP  0  0  0  0  0  0  0  0  0  0  0  0  # atno 17395 bound_to 11000

$$$$
