AV-unprocessed.smi:107|AV-procd|sdf|1024|dock4
  -GOLD-   2262018 23D 1   1.00000     0.00000
 Structure written by MMmdl.
 30 31  0  0  0  0  0  0  0  0  2 V2000
  151.0830  143.3915  158.1572 C   0  0  0  0  0  0  0  0  0  0  0  0
  151.3330  142.0900  157.4157 C   0  0  0  0  0  0  0  0  0  0  0  0
  150.6944  141.7811  156.2654 C   0  0  0  0  0  0  0  0  0  0  0  0
  150.9245  140.5934  155.5924 N   0  0  0  0  0  0  0  0  0  0  0  0
  150.1901  140.2634  154.3093 C   0  0  1  0  0  0  0  0  0  0  0  0
  149.3465  138.9988  154.4894 C   0  0  0  0  0  0  0  0  0  0  0  0
  147.9853  139.5798  154.8101 C   0  0  2  0  0  0  0  0  0  0  0  0
  146.9568  138.6712  154.4738 O   0  0  0  0  0  0  0  0  0  0  0  0
  147.9684  140.8352  153.9344 C   0  0  1  0  0  0  0  0  0  0  0  0
  147.0018  141.9213  154.4315 C   0  0  0  0  0  0  0  0  0  0  0  0
  147.3173  143.1594  153.8320 O   0  0  0  0  0  0  0  0  0  0  0  0
  149.3144  141.3081  153.9911 O   0  0  0  0  0  0  0  0  0  0  0  0
  151.8415  139.6516  156.1291 C   0  0  0  0  0  0  0  0  0  0  0  0
  152.0007  138.5898  155.5263 O   0  0  0  0  0  0  0  0  0  0  0  0
  152.4958  139.9572  157.2856 N   0  5  0  0  0  0  0  0  0  0  0  0
  152.2977  141.1265  157.9592 C   0  0  0  0  0  0  0  0  0  0  0  0
  152.8985  141.3916  159.0000 O   0  0  0  0  0  0  0  0  0  0  0  0
  150.3393  144.0032  157.6457 H   0  0  0  0  0  0  0  0  0  0  0  0
  152.0041  143.9705  158.2302 H   0  0  0  0  0  0  0  0  0  0  0  0
  150.7203  143.1919  159.1659 H   0  0  0  0  0  0  0  0  0  0  0  0
  149.9814  142.4870  155.8699 H   0  0  0  0  0  0  0  0  0  0  0  0
  150.9533  140.1806  153.5342 H   0  0  0  0  0  0  0  0  0  0  0  0
  149.3306  138.4635  153.5387 H   0  0  0  0  0  0  0  0  0  0  0  0
  149.7425  138.3363  155.2601 H   0  0  0  0  0  0  0  0  0  0  0  0
  147.9266  139.8420  155.8676 H   0  0  0  0  0  0  0  0  0  0  0  0
  146.6094  138.3041  155.2726 H   0  0  0  0  0  0  0  0  0  0  0  0
  147.7443  140.5522  152.9036 H   0  0  0  0  0  0  0  0  0  0  0  0
  145.9794  141.6717  154.1467 H   0  0  0  0  0  0  0  0  0  0  0  0
  147.0215  142.0106  155.5175 H   0  0  0  0  0  0  0  0  0  0  0  0
  147.7754  143.6887  154.4672 H   0  0  0  0  0  0  0  0  0  0  0  0
  1  2  1  0  0  0  0
  1 18  1  0  0  0  0
  1 19  1  0  0  0  0
  1 20  1  0  0  0  0
  2 16  1  0  0  0  0
  2  3  2  0  0  0  0
  3  4  1  0  0  0  0
  3 21  1  0  0  0  0
  4  5  1  0  0  0  0
  4 13  1  0  0  0  0
  5 12  1  0  0  0  0
  5  6  1  0  0  0  0
  5 22  1  0  0  0  0
  6  7  1  0  0  0  0
  6 23  1  0  0  0  0
  6 24  1  0  0  0  0
  7  8  1  0  0  0  0
  7  9  1  0  0  0  0
  7 25  1  0  0  0  0
  8 26  1  0  0  0  0
  9 10  1  0  0  0  0
  9 12  1  0  0  0  0
  9 27  1  0  0  0  0
 10 11  1  0  0  0  0
 10 28  1  0  0  0  0
 10 29  1  0  0  0  0
 11 30  1  0  0  0  0
 13 14  2  0  0  0  0
 13 15  1  0  0  0  0
 15 16  1  0  0  0  0
 16 17  2  0  0  0  0
M  CHG  1  15  -1
M  END
> <s_m_source_file>
AV-unprocessed.smi

> <i_m_source_file_index>
107

> <i_lp_mmshare_version>
43012

> <i_f3d_flags>
0

> <s_epik_input>
Tz1jMVtuSF1jKD1PKW4oW2NIXWMxW0NIM10pW0NAQEhdMltDSDJdW0NAQEhdKFtPSF0pW0NASF0oTzIpW0NIMl1bT0hd

> <s_epik_cmdline>
J2VwaWtfcHl0aG9uJywgJy1waCcsICc3LjAnLCAnLXRuJywgJzgnLCAnLW1hJywgJzIwMCcsICctbWV0YWxfYmluZGluZycsICctaW1hZScsICc8aW5maWxlLm1hZT4nLCAnLW9tYWUnLCAnPG91dGZpbGUubWFlPic=

> <r_lp_tautomer_probability>
0.999537

> <r_epik_Ionization_Penalty>
3.66603

> <r_epik_Ionization_Penalty_Charging>
1.09773e-07

> <r_epik_Ionization_Penalty_Neutral>
3.66603

> <r_epik_State_Penalty>
3.66562

> <r_epik_Charging_Adjusted_Penalty>
3.66562

> <i_epik_Tot_Q>
-1

> <i_epik_Tot_abs_Q>
1

> <r_epik_Metal_State_Penalty>
0.234536

> <b_epik_Metal_Only>
1

> <s_epik_Chemistry_Notes>
This compound contains an acetal/aminal-like group ( X-CH(R)-Y where X, Y are N, S, or O) that may be acid/base labile, releasing an aldehyde.

> <s_lp_Force_Field>
OPLS_2005

> <r_lp_Energy>
34.1834

> <b_lp_Chiralities_Consistent>
1

> <s_lp_Variant>
AV-unprocessed.smi:107-12

> <Gold.Version>
5.8.1

> <Gold.Id.Protein>
6NUR|6NUR_protein|mol2

> <Gold.PLP.Fitness>
40.8668

> <Gold.PLP.PLP>
-26.8892

> <Gold.PLP.part.hbond>
-5.0000

> <Gold.PLP.part.metal>
0.0000

> <Gold.PLP.part.buried>
2.3460

> <Gold.PLP.part.nonpolar>
-23.7102

> <Gold.PLP.part.repulsive>
0.1933

> <Gold.PLP.ligand.clash>
0.0000

> <Gold.PLP.ligand.torsion>
0.1164

> <Gold.PLP.Chemscore.Hbond>
3.7332

> <Gold.PLP.Chemscore.CHOScore>
1.0000

> <Gold.PLP.Chemscore.Metal>
0.0000

> <Gold.Chemscore.Hbonds>
donor molecule, donor type, donor heavy atom, donor atom, acceptor molecule, acceptor atom, score
      L1  H    11    30       P1  8028  1.00
      P1  H  7997  8010       L1    15  1.80
      P1  H  8011  8017       L1    12  0.75
      L1  C     3    21       P1  8028  1.00

> <Gold.PLP.Chemscore.Internal.Correction>
0.0107

> <Gold.Rescore>
     Score         DG    S(hbond)    S(metal)    S(lipo)     H(rot)  DE(clash)    DE(int)     intcor
      5.25      -8.76       1.39        0.00      47.02       2.69       2.18       1.32       ----

> <Gold.Chemscore.Fitness>
5.2510

> <Gold.Chemscore.DG>
-8.7574

> <Gold.Chemscore.ZeroCoef>
-5.4800

> <Gold.Chemscore.Hbond>
1.3939

> <Gold.Chemscore.Metal>
0.0000

> <Gold.Chemscore.Lipo>
47.0158

> <Gold.Chemscore.Internal_Hbond>
0.0000

> <Gold.Chemscore.DEClash>
2.1815

> <Gold.Chemscore.DEInternal>
1.3249

> <Gold.Chemscore.Rot>
2.6871

> <Gold.Chemscore.Internal.Correction>
   9.000000E+99

> <Gold.Chemscore.Hbonds>
donor molecule, donor type, donor heavy atom, donor atom, acceptor molecule, acceptor atom, score
      L1  H    11    30       P1  8028  0.40
      P1  H  7997  8010       L1    15  0.08
      P1  H  8011  8017       L1    12  0.53

> <Gold.Chemscore.Hbond.Weighted>
-4.6556

> <Gold.Chemscore.Metal.Weighted>
-0.0000

> <Gold.Chemscore.Lipo.Weighted>
-5.5008

> <Gold.Chemscore.Internal_Hbond.Weighted>
0.0000

> <Gold.Chemscore.DEClash.Weighted>
2.1815

> <Gold.Chemscore.DEInternal.Weighted>
1.3249

> <Gold.Chemscore.Rot.Weighted>
6.8791

> <Gold.Chemscore.Internal.Correction.Weighted>
   9.000000E+99

> <Gold.Protein.RotatedTorsions>
[ 6907 6896 6895 6894 ] final  -79.83 input  -60.11 | X-H torsion
[ 7974 7965 7964 7962 ] final   34.59 input  175.53 | X-H torsion
[ 8008 7997 7996 7995 ] final   68.26 input   59.86 | X-H torsion
[ 10167 10162 10161 10158 ] final   20.43 input  -65.29 | X-H torsion
[ 10718 10713 10712 10709 ] final   46.13 input   66.30 | X-H torsion
[ 10763 10752 10751 10750 ] final  139.01 input  -60.55 | X-H torsion
[ 11005 11000 10999 10996 ] final -165.62 input  -57.11 | X-H torsion

> <Gold.Protein.ActiveResidues>
 VAL166  LYS551  ARG553  GLY616  TRP617  ASP618  TYR619  PRO620  LYS621  CYS622 
 ASP623  PHE694  ASN695  SER759  ASP760  ASP761  ALA762  ILE779  LEU786  VAL792 
 PHE793  MET794  SER795  GLU796  ALA797  LYS798  CYS799  TRP800  GLU811  SER814 

> <Gold.Protein.RotatedAtoms>
  150.6941  134.4061  159.5140 H   0  0  0  0  0  0  0  0  0  0  0  0  # atno 6907 bound_to 6896
  152.1827  134.8737  160.0534 H   0  0  0  0  0  0  0  0  0  0  0  0  # atno 6908 bound_to 6896
  151.9722  133.3694  159.4112 H   0  0  0  0  0  0  0  0  0  0  0  0  # atno 6909 bound_to 6896
  146.1342  139.6249  142.9206 H   0  0  0  0  0  0  0  0  0  0  0  0  # atno 7974 bound_to 7965
  155.7055  140.3495  155.4951 H   0  0  0  0  0  0  0  0  0  0  0  0  # atno 8008 bound_to 7997
  155.9402  140.1100  157.1084 H   0  0  0  0  0  0  0  0  0  0  0  0  # atno 8009 bound_to 7997
  154.4101  140.1214  156.4903 H   0  0  0  0  0  0  0  0  0  0  0  0  # atno 8010 bound_to 7997
  140.5504  143.9520  150.6574 H   0  0  0  0  0  0  0  0  0  0  0  0  # atno 10167 bound_to 10162
  157.4448  130.8103  149.7730 H   0  0  0  0  0  0  0  0  0  0  0  0  # atno 10718 bound_to 10713
  153.8991  135.3024  155.3448 H   0  0  0  0  0  0  0  0  0  0  0  0  # atno 10763 bound_to 10752
  154.7679  135.4901  153.9594 H   0  0  0  0  0  0  0  0  0  0  0  0  # atno 10764 bound_to 10752
  153.1255  135.6792  153.9364 H   0  0  0  0  0  0  0  0  0  0  0  0  # atno 10765 bound_to 10752
  140.5737  134.5212  157.5166 H   0  0  0  0  0  0  0  0  0  0  0  0  # atno 11005 bound_to 11000
  145.5193  141.0432  143.2444 LP  0  0  0  0  0  0  0  0  0  0  0  0  # atno 17320 bound_to 7965
  144.7722  139.6709  143.7190 LP  0  0  0  0  0  0  0  0  0  0  0  0  # atno 17321 bound_to 7965
  140.2944  143.3302  152.1032 LP  0  0  0  0  0  0  0  0  0  0  0  0  # atno 17342 bound_to 10162
  139.5025  144.6736  151.6184 LP  0  0  0  0  0  0  0  0  0  0  0  0  # atno 17343 bound_to 10162
  155.9963  130.3906  150.2784 LP  0  0  0  0  0  0  0  0  0  0  0  0  # atno 17370 bound_to 10713
  157.0952  131.0180  151.3106 LP  0  0  0  0  0  0  0  0  0  0  0  0  # atno 17371 bound_to 10713
  139.9350  134.7893  156.0828 LP  0  0  0  0  0  0  0  0  0  0  0  0  # atno 17394 bound_to 11000
  141.1040  133.6667  156.2821 LP  0  0  0  0  0  0  0  0  0  0  0  0  # atno 17395 bound_to 11000

$$$$
