AV-unprocessed.smi:1933|AV-procd|sdf|7818|dock3
  -GOLD-   22720 9563D 1   1.00000     0.00000
 Structure written by MMmdl.
 47 49  0  0  0  0  0  0  0  0  1 V2000
  144.8270  136.4306  153.3399 O   0  0  0  0  0  0  0  0  0  0  0  0
  145.9721  136.2474  152.9254 C   0  0  0  0  0  0  0  0  0  0  0  0
  147.0125  137.0201  153.2699 N   0  0  0  0  0  0  0  0  0  0  0  0
  146.9363  138.1606  154.1775 C   0  0  0  0  0  0  0  0  0  0  0  0
  148.2004  139.0616  154.1257 C   0  0  1  0  0  0  0  0  0  0  0  0
  147.8768  140.5697  154.3342 C   0  0  1  0  0  0  0  0  0  0  0  0
  146.9587  141.2821  153.3587 C   0  0  0  0  0  0  0  0  0  0  0  0
  146.6968  142.5849  154.1074 C   0  0  0  0  0  0  0  0  0  0  0  0
  146.6715  142.2290  155.4880 O   0  0  0  0  0  0  0  0  0  0  0  0
  147.2207  140.9248  155.6695 C   0  0  0  0  0  0  0  0  0  0  0  0
  149.3482  138.5517  154.9011 N   0  0  0  0  0  0  0  0  0  0  0  0
  149.3517  137.1069  155.1465 C   0  0  0  0  0  0  0  0  0  0  0  0
  150.5306  136.6899  156.0411 C   0  0  0  0  0  0  0  0  0  0  0  0
  151.7525  137.0907  155.4295 O   0  0  0  0  0  0  0  0  0  0  0  0
  151.8150  138.4932  155.1900 C   0  0  0  0  0  0  0  0  0  0  0  0
  150.6306  138.9250  154.3076 C   0  0  0  0  0  0  0  0  0  0  0  0
  146.3487  135.2665  152.0860 N   0  0  0  0  0  0  0  0  0  0  0  0
  145.5450  134.2408  151.5195 C   0  0  0  0  0  0  0  0  0  0  0  0
  146.2615  133.1823  150.9166 C   0  0  0  0  0  0  0  0  0  0  0  0
  145.5562  132.1130  150.3309 C   0  0  0  0  0  0  0  0  0  0  0  0
  144.1505  132.1301  150.3623 C   0  0  0  0  0  0  0  0  0  0  0  0
  143.5145  133.2224  150.9803 C   0  0  0  0  0  0  0  0  0  0  0  0
  144.1885  134.2477  151.5428 N   0  0  0  0  0  0  0  0  0  0  0  0
  147.9195  136.8035  152.8834 H   0  0  0  0  0  0  0  0  0  0  0  0
  146.0516  138.7368  153.9063 H   0  0  0  0  0  0  0  0  0  0  0  0
  146.7610  137.7912  155.1889 H   0  0  0  0  0  0  0  0  0  0  0  0
  148.5198  139.0371  153.0830 H   0  0  0  0  0  0  0  0  0  0  0  0
  148.8246  141.1099  154.3180 H   0  0  0  0  0  0  0  0  0  0  0  0
  147.3999  141.4348  152.3737 H   0  0  0  0  0  0  0  0  0  0  0  0
  146.0081  140.7674  153.2458 H   0  0  0  0  0  0  0  0  0  0  0  0
  147.5123  143.2901  153.9421 H   0  0  0  0  0  0  0  0  0  0  0  0
  145.7669  143.0645  153.8010 H   0  0  0  0  0  0  0  0  0  0  0  0
  146.4051  140.2405  155.9064 H   0  0  0  0  0  0  0  0  0  0  0  0
  147.9293  140.9048  156.4979 H   0  0  0  0  0  0  0  0  0  0  0  0
  148.4255  136.7735  155.6024 H   0  0  0  0  0  0  0  0  0  0  0  0
  149.4339  136.5679  154.2020 H   0  0  0  0  0  0  0  0  0  0  0  0
  150.4435  137.1392  157.0316 H   0  0  0  0  0  0  0  0  0  0  0  0
  150.5393  135.6086  156.1780 H   0  0  0  0  0  0  0  0  0  0  0  0
  151.8030  139.0305  156.1395 H   0  0  0  0  0  0  0  0  0  0  0  0
  152.7593  138.7299  154.6997 H   0  0  0  0  0  0  0  0  0  0  0  0
  150.7337  138.4735  153.3205 H   0  0  0  0  0  0  0  0  0  0  0  0
  150.6746  140.0048  154.1623 H   0  0  0  0  0  0  0  0  0  0  0  0
  147.3243  135.2453  151.8290 H   0  0  0  0  0  0  0  0  0  0  0  0
  147.3417  133.1845  150.9016 H   0  0  0  0  0  0  0  0  0  0  0  0
  146.0853  131.2942  149.8662 H   0  0  0  0  0  0  0  0  0  0  0  0
  143.5750  131.3278  149.9246 H   0  0  0  0  0  0  0  0  0  0  0  0
  142.4366  133.2743  151.0248 H   0  0  0  0  0  0  0  0  0  0  0  0
  1  2  2  0  0  0  0
  2  3  1  0  0  0  0
  2 17  1  0  0  0  0
  3  4  1  0  0  0  0
  3 24  1  0  0  0  0
  4  5  1  0  0  0  0
  4 25  1  0  0  0  0
  4 26  1  0  0  0  0
  5  6  1  0  0  0  0
  5 11  1  0  0  0  0
  5 27  1  0  0  0  0
  6 10  1  0  0  0  0
  6  7  1  0  0  0  0
  6 28  1  0  0  0  0
  7  8  1  0  0  0  0
  7 29  1  0  0  0  0
  7 30  1  0  0  0  0
  8  9  1  0  0  0  0
  8 31  1  0  0  0  0
  8 32  1  0  0  0  0
  9 10  1  0  0  0  0
 10 33  1  0  0  0  0
 10 34  1  0  0  0  0
 11 16  1  0  0  0  0
 11 12  1  0  0  0  0
 12 13  1  0  0  0  0
 12 35  1  0  0  0  0
 12 36  1  0  0  0  0
 13 14  1  0  0  0  0
 13 37  1  0  0  0  0
 13 38  1  0  0  0  0
 14 15  1  0  0  0  0
 15 16  1  0  0  0  0
 15 39  1  0  0  0  0
 15 40  1  0  0  0  0
 16 41  1  0  0  0  0
 16 42  1  0  0  0  0
 17 18  1  0  0  0  0
 17 43  1  0  0  0  0
 18 23  1  0  0  0  0
 18 19  2  0  0  0  0
 19 20  1  0  0  0  0
 19 44  1  0  0  0  0
 20 21  2  0  0  0  0
 20 45  1  0  0  0  0
 21 22  1  0  0  0  0
 21 46  1  0  0  0  0
 22 23  2  0  0  0  0
 22 47  1  0  0  0  0
M  END
> <s_m_source_file>
AV-unprocessed.smi

> <i_m_source_file_index>
1933

> <i_lp_mmshare_version>
43012

> <i_f3d_flags>
0

> <s_epik_input>
bjFbY0hdW2NIXVtjSF1bY0hdYzFbTkhdQyg9TylbTkhdW0NIMl1bQ0BIXShbQ0BASF0yW0NIMl1bQ0gyXU9bQ0gyXTIpTjNbQ0gyXVtDSDJdT1tDSDJdW0NIMl0z

> <s_epik_cmdline>
J2VwaWtfcHl0aG9uJywgJy1waCcsICc3LjAnLCAnLXRuJywgJzgnLCAnLW1hJywgJzIwMCcsICctbWV0YWxfYmluZGluZycsICctaW1hZScsICc8aW5maWxlLm1hZT4nLCAnLW9tYWUnLCAnPG91dGZpbGUubWFlPic=

> <r_epik_Ionization_Penalty>
0.125062

> <r_epik_Ionization_Penalty_Charging>
0

> <r_epik_Ionization_Penalty_Neutral>
0.125062

> <r_epik_State_Penalty>
0.114484

> <r_epik_Charging_Adjusted_Penalty>
0.114484

> <i_epik_Tot_Q>
0

> <i_epik_Tot_abs_Q>
0

> <r_epik_Metal_State_Penalty>
0.114484

> <b_epik_Metal_Only>
0

> <s_lp_Force_Field>
OPLS_2005

> <r_lp_Energy>
56.0331

> <b_lp_Chiralities_Consistent>
1

> <s_lp_Variant>
AV-unprocessed.smi:1933-4

> <Gold.Version>
5.8.1

> <Gold.Id.Protein>
6NUR|6NUR_protein|mol2

> <Gold.PLP.Fitness>
45.1084

> <Gold.PLP.PLP>
-35.9645

> <Gold.PLP.part.hbond>
-2.9091

> <Gold.PLP.part.metal>
0.0000

> <Gold.PLP.part.buried>
-5.8253

> <Gold.PLP.part.nonpolar>
-27.6765

> <Gold.PLP.part.repulsive>
0.6453

> <Gold.PLP.ligand.clash>
0.0000

> <Gold.PLP.ligand.torsion>
1.2043

> <Gold.PLP.Chemscore.Hbond>
2.9040

> <Gold.PLP.Chemscore.CHOScore>
0.8393

> <Gold.PLP.Chemscore.Metal>
0.0000

> <Gold.Chemscore.Hbonds>
donor molecule, donor type, donor heavy atom, donor atom, acceptor molecule, acceptor atom, score
      L1  H     3    24       P1  7948  1.00
      L1  H    17    43       P1  7948  0.91
      P1  H 10752 10763       L1    14  0.89
      L1  C    22    47       P1 10186  0.96

> <Gold.PLP.Chemscore.Internal.Correction>
0.3226

> <Gold.Rescore>
     Score         DG    S(hbond)    S(metal)    S(lipo)     H(rot)  DE(clash)    DE(int)     intcor
     17.04     -20.75       2.82        0.00      87.48       1.72       0.04       3.67       ----

> <Gold.Chemscore.Fitness>
17.0428

> <Gold.Chemscore.DG>
-20.7541

> <Gold.Chemscore.ZeroCoef>
-5.4800

> <Gold.Chemscore.Hbond>
2.8241

> <Gold.Chemscore.Metal>
0.0000

> <Gold.Chemscore.Lipo>
87.4773

> <Gold.Chemscore.Internal_Hbond>
0.0000

> <Gold.Chemscore.DEClash>
0.0368

> <Gold.Chemscore.DEInternal>
3.6744

> <Gold.Chemscore.Rot>
1.7161

> <Gold.Chemscore.Internal.Correction>
   9.000000E+99

> <Gold.Chemscore.Hbonds>
donor molecule, donor type, donor heavy atom, donor atom, acceptor molecule, acceptor atom, score
      L1  H     3    24       P1  7948  0.95
      L1  H    17    43       P1  7948  0.87
      P1  H 10752 10763       L1    14  0.80

> <Gold.Chemscore.Hbond.Weighted>
-9.4324

> <Gold.Chemscore.Metal.Weighted>
-0.0000

> <Gold.Chemscore.Lipo.Weighted>
-10.2348

> <Gold.Chemscore.Internal_Hbond.Weighted>
0.0000

> <Gold.Chemscore.DEClash.Weighted>
0.0368

> <Gold.Chemscore.DEInternal.Weighted>
3.6744

> <Gold.Chemscore.Rot.Weighted>
4.3932

> <Gold.Chemscore.Internal.Correction.Weighted>
   9.000000E+99

> <Gold.Protein.RotatedTorsions>
[ 6907 6896 6895 6894 ] final  -44.39 input  -60.11 | X-H torsion
[ 7974 7965 7964 7962 ] final -103.89 input  175.53 | X-H torsion
[ 8008 7997 7996 7995 ] final  158.81 input   59.86 | X-H torsion
[ 10167 10162 10161 10158 ] final -124.04 input  -65.29 | X-H torsion
[ 10718 10713 10712 10709 ] final -125.18 input   66.30 | X-H torsion
[ 10763 10752 10751 10750 ] final   65.71 input  -60.55 | X-H torsion
[ 11005 11000 10999 10996 ] final  156.48 input  -57.11 | X-H torsion

> <Gold.Protein.ActiveResidues>
 VAL166  LYS551  ARG553  GLY616  TRP617  ASP618  TYR619  PRO620  LYS621  CYS622 
 ASP623  PHE694  ASN695  SER759  ASP760  ASP761  ALA762  ILE779  LEU786  VAL792 
 PHE793  MET794  SER795  GLU796  ALA797  LYS798  CYS799  TRP800  GLU811  SER814 

> <Gold.Protein.RotatedAtoms>
  150.9334  134.8748  159.7565 H   0  0  0  0  0  0  0  0  0  0  0  0  # atno 6907 bound_to 6896
  152.5048  134.4046  159.9438 H   0  0  0  0  0  0  0  0  0  0  0  0  # atno 6908 bound_to 6896
  151.4071  133.3699  159.2774 H   0  0  0  0  0  0  0  0  0  0  0  0  # atno 6909 bound_to 6896
  145.2502  140.9235  143.3100 H   0  0  0  0  0  0  0  0  0  0  0  0  # atno 7974 bound_to 7965
  156.2279  140.1848  156.7316 H   0  0  0  0  0  0  0  0  0  0  0  0  # atno 8008 bound_to 7997
  154.5972  140.0641  156.9348 H   0  0  0  0  0  0  0  0  0  0  0  0  # atno 8009 bound_to 7997
  155.2235  140.3309  155.4315 H   0  0  0  0  0  0  0  0  0  0  0  0  # atno 8010 bound_to 7997
  139.9970  143.5580  152.2319 H   0  0  0  0  0  0  0  0  0  0  0  0  # atno 10167 bound_to 10162
  156.1652  130.6630  151.0105 H   0  0  0  0  0  0  0  0  0  0  0  0  # atno 10718 bound_to 10713
  153.0108  135.5347  154.6710 H   0  0  0  0  0  0  0  0  0  0  0  0  # atno 10763 bound_to 10752
  154.5894  135.2857  155.0653 H   0  0  0  0  0  0  0  0  0  0  0  0  # atno 10764 bound_to 10752
  154.1752  135.6525  153.5072 H   0  0  0  0  0  0  0  0  0  0  0  0  # atno 10765 bound_to 10752
  140.1679  134.8564  157.2654 H   0  0  0  0  0  0  0  0  0  0  0  0  # atno 11005 bound_to 11000
  144.9510  139.4083  143.6402 LP  0  0  0  0  0  0  0  0  0  0  0  0  # atno 17320 bound_to 7965
  146.3305  139.8517  142.8872 LP  0  0  0  0  0  0  0  0  0  0  0  0  # atno 17321 bound_to 7965
  139.6299  144.7642  151.2559 LP  0  0  0  0  0  0  0  0  0  0  0  0  # atno 17342 bound_to 10162
  140.7433  143.6498  150.8258 LP  0  0  0  0  0  0  0  0  0  0  0  0  # atno 17343 bound_to 10162
  157.6763  131.0849  150.7486 LP  0  0  0  0  0  0  0  0  0  0  0  0  # atno 17370 bound_to 10713
  156.7547  130.4780  149.5449 LP  0  0  0  0  0  0  0  0  0  0  0  0  # atno 17371 bound_to 10713
  140.2412  134.3793  155.7480 LP  0  0  0  0  0  0  0  0  0  0  0  0  # atno 17394 bound_to 11000
  141.2215  133.7266  156.8792 LP  0  0  0  0  0  0  0  0  0  0  0  0  # atno 17395 bound_to 11000

$$$$
