AV-unprocessed.smi:322|AV-procd|sdf|2338|dock5
  -GOLD-   2262022253D 1   1.00000     0.00000
 Structure written by MMmdl.
 44 46  0  0  0  0  0  0  0  0  2 V2000
  153.1247  138.6154  155.6472 O   0  0  0  0  0  0  0  0  0  0  0  0
  152.4179  138.4245  156.8547 C   0  0  0  0  0  0  0  0  0  0  0  0
  152.4238  139.6308  157.7389 C   0  0  0  0  0  0  0  0  0  0  0  0
  152.9517  139.7117  158.9940 N   0  3  0  0  0  0  0  0  0  0  0  0
  152.7758  140.9994  159.5007 C   0  0  0  0  0  0  0  0  0  0  0  0
  153.1417  141.5553  160.7227 C   0  0  0  0  0  0  0  0  0  0  0  0
  152.8090  142.9106  160.9263 C   0  0  0  0  0  0  0  0  0  0  0  0
  152.1385  143.6584  159.9366 C   0  0  0  0  0  0  0  0  0  0  0  0
  151.7735  143.0839  158.7012 C   0  0  0  0  0  0  0  0  0  0  0  0
  152.1072  141.7433  158.5070 C   0  0  0  0  0  0  0  0  0  0  0  0
  151.9111  140.8586  157.4390 N   0  0  0  0  0  0  0  0  0  0  0  0
  151.2358  141.3290  156.2191 C   0  0  0  0  0  0  0  0  0  0  0  0
  149.6997  141.3642  156.3584 C   0  0  1  0  0  0  0  0  0  0  0  0
  149.2665  142.4342  157.1735 O   0  0  0  0  0  0  0  0  0  0  0  0
  148.9665  141.4255  155.0094 C   0  0  0  0  0  0  0  0  0  0  0  0
  147.6165  141.8244  155.2079 O   0  0  0  0  0  0  0  0  0  0  0  0
  146.9650  142.2577  154.0225 C   0  0  0  0  0  0  0  0  0  0  0  0
  145.9427  143.3528  154.2731 C   0  0  0  0  0  0  0  0  0  0  0  0
  145.2955  143.4436  155.5237 C   0  0  0  0  0  0  0  0  0  0  0  0
  144.3433  144.4549  155.7563 C   0  0  0  0  0  0  0  0  0  0  0  0
  144.0295  145.3750  154.7369 C   0  0  0  0  0  0  0  0  0  0  0  0
  142.8648  146.6155  155.0214 Cl  0  0  0  0  0  0  0  0  0  0  0  0
  144.6665  145.2808  153.4841 C   0  0  0  0  0  0  0  0  0  0  0  0
  145.6192  144.2699  153.2514 C   0  0  0  0  0  0  0  0  0  0  0  0
  153.6336  137.8385  155.4703 H   0  0  0  0  0  0  0  0  0  0  0  0
  151.3864  138.1582  156.6241 H   0  0  0  0  0  0  0  0  0  0  0  0
  152.8587  137.5830  157.3894 H   0  0  0  0  0  0  0  0  0  0  0  0
  153.6546  140.9837  161.4825 H   0  0  0  0  0  0  0  0  0  0  0  0
  153.0723  143.3856  161.8603 H   0  0  0  0  0  0  0  0  0  0  0  0
  151.8982  144.6942  160.1285 H   0  0  0  0  0  0  0  0  0  0  0  0
  151.2558  143.6659  157.9528 H   0  0  0  0  0  0  0  0  0  0  0  0
  151.6362  142.3056  155.9467 H   0  0  0  0  0  0  0  0  0  0  0  0
  151.5175  140.6540  155.4100 H   0  0  0  0  0  0  0  0  0  0  0  0
  149.3783  140.4545  156.8668 H   0  0  0  0  0  0  0  0  0  0  0  0
  148.6748  142.9726  156.6709 H   0  0  0  0  0  0  0  0  0  0  0  0
  149.4724  142.1513  154.3715 H   0  0  0  0  0  0  0  0  0  0  0  0
  149.0131  140.4636  154.4963 H   0  0  0  0  0  0  0  0  0  0  0  0
  147.6991  142.5719  153.2787 H   0  0  0  0  0  0  0  0  0  0  0  0
  146.4393  141.4027  153.5972 H   0  0  0  0  0  0  0  0  0  0  0  0
  145.5311  142.7400  156.3089 H   0  0  0  0  0  0  0  0  0  0  0  0
  143.8543  144.5231  156.7171 H   0  0  0  0  0  0  0  0  0  0  0  0
  144.4250  145.9832  152.7001 H   0  0  0  0  0  0  0  0  0  0  0  0
  146.1023  144.2042  152.2875 H   0  0  0  0  0  0  0  0  0  0  0  0
  153.3990  138.9354  159.4643 H   0  0  0  0  0  0  0  0  0  0  0  0
  1  2  1  0  0  0  0
  1 25  1  0  0  0  0
  2  3  1  0  0  0  0
  2 26  1  0  0  0  0
  2 27  1  0  0  0  0
  3 11  1  0  0  0  0
  3  4  2  0  0  0  0
  4  5  1  0  0  0  0
  4 44  1  0  0  0  0
  5 10  2  0  0  0  0
  5  6  1  0  0  0  0
  6  7  2  0  0  0  0
  6 28  1  0  0  0  0
  7  8  1  0  0  0  0
  7 29  1  0  0  0  0
  8  9  2  0  0  0  0
  8 30  1  0  0  0  0
  9 10  1  0  0  0  0
  9 31  1  0  0  0  0
 10 11  1  0  0  0  0
 11 12  1  0  0  0  0
 12 13  1  0  0  0  0
 12 32  1  0  0  0  0
 12 33  1  0  0  0  0
 13 14  1  0  0  0  0
 13 15  1  0  0  0  0
 13 34  1  0  0  0  0
 14 35  1  0  0  0  0
 15 16  1  0  0  0  0
 15 36  1  0  0  0  0
 15 37  1  0  0  0  0
 16 17  1  0  0  0  0
 17 18  1  0  0  0  0
 17 38  1  0  0  0  0
 17 39  1  0  0  0  0
 18 24  1  0  0  0  0
 18 19  2  0  0  0  0
 19 20  1  0  0  0  0
 19 40  1  0  0  0  0
 20 21  2  0  0  0  0
 20 41  1  0  0  0  0
 21 22  1  0  0  0  0
 21 23  1  0  0  0  0
 23 24  2  0  0  0  0
 23 42  1  0  0  0  0
 24 43  1  0  0  0  0
M  CHG  1   4   1
M  END
> <s_m_source_file>
AV-unprocessed.smi

> <i_m_source_file_index>
322

> <i_lp_mmshare_version>
43012

> <i_f3d_flags>
0

> <s_epik_input>
W2NIXTFbY0hdW2NIXVtjSF1jKGMxMiluKGMobjIpW0NIMl1bT0hdKVtDSDJdW0NASF0oW09IXSlbQ0gyXU9bQ0gyXWMzW2NIXVtjSF1jKENsKVtjSF1bY0hdMw==

> <s_epik_cmdline>
J2VwaWtfcHl0aG9uJywgJy1waCcsICc3LjAnLCAnLXRuJywgJzgnLCAnLW1hJywgJzIwMCcsICctbWV0YWxfYmluZGluZycsICctaW1hZScsICc8aW5maWxlLm1hZT4nLCAnLW9tYWUnLCAnPG91dGZpbGUubWFlPic=

> <r_epik_Ionization_Penalty>
1.34314

> <r_epik_Ionization_Penalty_Charging>
1.34228

> <r_epik_Ionization_Penalty_Neutral>
0.000856898

> <r_epik_State_Penalty>
1.41963

> <r_epik_Charging_Adjusted_Penalty>
2.76191

> <i_epik_Tot_Q>
1

> <i_epik_Tot_abs_Q>
1

> <r_epik_Metal_State_Penalty>
5.45585

> <b_epik_Metal_Only>
0

> <s_lp_Force_Field>
OPLS_2005

> <r_lp_Energy>
18.1593

> <b_lp_Chiralities_Consistent>
1

> <s_lp_Variant>
AV-unprocessed.smi:322-4

> <Gold.Version>
5.8.1

> <Gold.Id.Protein>
6NUR|6NUR_protein|mol2

> <Gold.PLP.Fitness>
57.8058

> <Gold.PLP.PLP>
-55.1508

> <Gold.PLP.part.hbond>
-2.0000

> <Gold.PLP.part.metal>
0.0000

> <Gold.PLP.part.buried>
-7.9748

> <Gold.PLP.part.nonpolar>
-44.0905

> <Gold.PLP.part.repulsive>
0.2241

> <Gold.PLP.ligand.clash>
0.0000

> <Gold.PLP.ligand.torsion>
1.2209

> <Gold.PLP.Chemscore.Hbond>
1.6400

> <Gold.PLP.Chemscore.CHOScore>
0.0000

> <Gold.PLP.Chemscore.Metal>
0.0000

> <Gold.Chemscore.Hbonds>
donor molecule, donor type, donor heavy atom, donor atom, acceptor molecule, acceptor atom, score
      L1  H    14    35       P1  8028  0.69
      P1  H  7997  8010       L1     1  1.00

> <Gold.PLP.Chemscore.Internal.Correction>
0.1767

> <Gold.Rescore>
     Score         DG    S(hbond)    S(metal)    S(lipo)     H(rot)  DE(clash)    DE(int)     intcor
     15.25     -17.47       0.98        0.00     145.27       3.24       0.27       1.95       ----

> <Gold.Chemscore.Fitness>
15.2487

> <Gold.Chemscore.DG>
-17.4682

> <Gold.Chemscore.ZeroCoef>
-5.4800

> <Gold.Chemscore.Hbond>
0.9824

> <Gold.Chemscore.Metal>
0.0000

> <Gold.Chemscore.Lipo>
145.2735

> <Gold.Chemscore.Internal_Hbond>
0.0000

> <Gold.Chemscore.DEClash>
0.2655

> <Gold.Chemscore.DEInternal>
1.9540

> <Gold.Chemscore.Rot>
3.2383

> <Gold.Chemscore.Internal.Correction>
   9.000000E+99

> <Gold.Chemscore.Hbonds>
donor molecule, donor type, donor heavy atom, donor atom, acceptor molecule, acceptor atom, score
      L1  H    14    35       P1  8028  0.55
      P1  H  7997  8010       L1     1  0.25

> <Gold.Chemscore.Hbond.Weighted>
-3.2813

> <Gold.Chemscore.Metal.Weighted>
-0.0000

> <Gold.Chemscore.Lipo.Weighted>
-16.9970

> <Gold.Chemscore.Internal_Hbond.Weighted>
0.0000

> <Gold.Chemscore.DEClash.Weighted>
0.2655

> <Gold.Chemscore.DEInternal.Weighted>
1.9540

> <Gold.Chemscore.Rot.Weighted>
8.2901

> <Gold.Chemscore.Internal.Correction.Weighted>
   9.000000E+99

> <Gold.Protein.RotatedTorsions>
[ 6907 6896 6895 6894 ] final   88.16 input  -60.11 | X-H torsion
[ 7974 7965 7964 7962 ] final -148.55 input  175.53 | X-H torsion
[ 8008 7997 7996 7995 ] final   91.20 input   59.86 | X-H torsion
[ 10167 10162 10161 10158 ] final   15.19 input  -65.29 | X-H torsion
[ 10718 10713 10712 10709 ] final  -17.86 input   66.30 | X-H torsion
[ 10763 10752 10751 10750 ] final  134.96 input  -60.55 | X-H torsion
[ 11005 11000 10999 10996 ] final -106.57 input  -57.11 | X-H torsion

> <Gold.Protein.ActiveResidues>
 VAL166  LYS551  ARG553  GLY616  TRP617  ASP618  TYR619  PRO620  LYS621  CYS622 
 ASP623  PHE694  ASN695  SER759  ASP760  ASP761  ALA762  ILE779  LEU786  VAL792 
 PHE793  MET794  SER795  GLU796  ALA797  LYS798  CYS799  TRP800  GLU811  SER814 

> <Gold.Protein.RotatedAtoms>
  152.5421  134.2164  159.8770 H   0  0  0  0  0  0  0  0  0  0  0  0  # atno 6907 bound_to 6896
  151.2144  133.4531  159.2606 H   0  0  0  0  0  0  0  0  0  0  0  0  # atno 6908 bound_to 6896
  151.0866  134.9903  159.8438 H   0  0  0  0  0  0  0  0  0  0  0  0  # atno 6909 bound_to 6896
  144.8022  140.5181  143.5699 H   0  0  0  0  0  0  0  0  0  0  0  0  # atno 7974 bound_to 7965
  156.0210  140.3340  155.7038 H   0  0  0  0  0  0  0  0  0  0  0  0  # atno 8008 bound_to 7997
  155.6023  140.0657  157.2747 H   0  0  0  0  0  0  0  0  0  0  0  0  # atno 8009 bound_to 7997
  154.4316  140.1808  156.1173 H   0  0  0  0  0  0  0  0  0  0  0  0  # atno 8010 bound_to 7997
  140.5884  143.8843  150.6851 H   0  0  0  0  0  0  0  0  0  0  0  0  # atno 10167 bound_to 10162
  156.5676  130.4741  149.6377 H   0  0  0  0  0  0  0  0  0  0  0  0  # atno 10718 bound_to 10713
  153.8321  135.3102  155.3419 H   0  0  0  0  0  0  0  0  0  0  0  0  # atno 10763 bound_to 10752
  154.7969  135.4750  154.0184 H   0  0  0  0  0  0  0  0  0  0  0  0  # atno 10764 bound_to 10752
  153.1628  135.6864  153.8809 H   0  0  0  0  0  0  0  0  0  0  0  0  # atno 10765 bound_to 10752
  141.0998  133.8905  157.1872 H   0  0  0  0  0  0  0  0  0  0  0  0  # atno 11005 bound_to 11000
  145.5525  139.1477  143.3386 LP  0  0  0  0  0  0  0  0  0  0  0  0  # atno 17320 bound_to 7965
  146.2306  140.5662  142.8977 LP  0  0  0  0  0  0  0  0  0  0  0  0  # atno 17321 bound_to 7965
  140.2360  143.3699  152.1526 LP  0  0  0  0  0  0  0  0  0  0  0  0  # atno 17342 bound_to 10162
  139.5212  144.7043  151.5401 LP  0  0  0  0  0  0  0  0  0  0  0  0  # atno 17343 bound_to 10162
  156.2743  130.7034  151.1841 LP  0  0  0  0  0  0  0  0  0  0  0  0  # atno 17370 bound_to 10713
  157.7355  131.0571  150.5466 LP  0  0  0  0  0  0  0  0  0  0  0  0  # atno 17371 bound_to 10713
  139.9845  135.0087  156.9830 LP  0  0  0  0  0  0  0  0  0  0  0  0  # atno 17394 bound_to 11000
  140.5051  134.1058  155.7258 LP  0  0  0  0  0  0  0  0  0  0  0  0  # atno 17395 bound_to 11000

$$$$
