AV-unprocessed.smi:1461|AV-procd|sdf|5931|dock3
  -GOLD-   22720 6 13D 1   1.00000     0.00000
 Structure written by MMmdl.
 42 43  0  0  0  0  0  0  0  0  2 V2000
  151.9307  144.7130  160.4508 C   0  0  0  0  0  0  0  0  0  0  0  0
  151.8234  143.9239  159.1378 C   0  0  0  0  0  0  0  0  0  0  0  0
  152.4992  144.6887  157.9863 C   0  0  0  0  0  0  0  0  0  0  0  0
  150.3508  143.5730  158.8316 C   0  0  0  0  0  0  0  0  0  0  0  0
  150.1845  142.9044  157.5448 N   0  0  0  0  0  0  0  0  0  0  0  0
  150.5957  141.6601  157.2649 C   0  0  0  0  0  0  0  0  0  0  0  0
  151.1501  140.9240  158.0809 O   0  0  0  0  0  0  0  0  0  0  0  0
  150.3446  141.3406  155.9848 N   0  0  0  0  0  0  0  0  0  0  0  0
  150.7421  140.1624  155.2938 C   0  0  0  0  0  0  0  0  0  0  0  0
  152.0203  139.5870  155.5118 C   0  0  0  0  0  0  0  0  0  0  0  0
  152.3681  138.3835  154.8703 C   0  0  0  0  0  0  0  0  0  0  0  0
  151.4257  137.7634  154.0323 C   0  0  0  0  0  0  0  0  0  0  0  0
  150.2134  138.3286  153.8556 N   0  3  0  0  0  0  0  0  0  0  0  0
  149.8242  139.4931  154.4326 C   0  0  0  0  0  0  0  0  0  0  0  0
  148.5241  139.9684  154.1432 N   0  0  0  0  0  0  0  0  0  0  0  0
  148.3127  141.3630  153.7737 C   0  0  0  0  0  0  0  0  0  0  0  0
  146.8043  141.5743  153.8722 C   0  0  0  0  0  0  0  0  0  0  0  0
  146.4244  140.6823  155.0504 C   0  0  0  0  0  0  0  0  0  0  0  0
  147.3942  139.5008  154.9409 C   0  0  0  0  0  0  0  0  0  0  0  0
  151.4004  145.6637  160.3867 H   0  0  0  0  0  0  0  0  0  0  0  0
  152.9708  144.9281  160.6974 H   0  0  0  0  0  0  0  0  0  0  0  0
  151.5063  144.1507  161.2831 H   0  0  0  0  0  0  0  0  0  0  0  0
  152.3727  142.9922  159.2793 H   0  0  0  0  0  0  0  0  0  0  0  0
  151.9853  145.6278  157.7797 H   0  0  0  0  0  0  0  0  0  0  0  0
  152.5102  144.1043  157.0661 H   0  0  0  0  0  0  0  0  0  0  0  0
  153.5356  144.9242  158.2295 H   0  0  0  0  0  0  0  0  0  0  0  0
  149.9367  142.9456  159.6229 H   0  0  0  0  0  0  0  0  0  0  0  0
  149.7485  144.4820  158.8164 H   0  0  0  0  0  0  0  0  0  0  0  0
  149.7366  143.4369  156.8134 H   0  0  0  0  0  0  0  0  0  0  0  0
  149.9584  142.0755  155.4105 H   0  0  0  0  0  0  0  0  0  0  0  0
  152.7343  140.0424  156.1819 H   0  0  0  0  0  0  0  0  0  0  0  0
  153.3390  137.9377  155.0295 H   0  0  0  0  0  0  0  0  0  0  0  0
  151.6003  136.8368  153.5047 H   0  0  0  0  0  0  0  0  0  0  0  0
  148.8220  142.0236  154.4766 H   0  0  0  0  0  0  0  0  0  0  0  0
  148.6862  141.5717  152.7708 H   0  0  0  0  0  0  0  0  0  0  0  0
  146.5292  142.6189  154.0196 H   0  0  0  0  0  0  0  0  0  0  0  0
  146.3165  141.2188  152.9634 H   0  0  0  0  0  0  0  0  0  0  0  0
  146.6007  141.2170  155.9848 H   0  0  0  0  0  0  0  0  0  0  0  0
  145.3786  140.3744  155.0321 H   0  0  0  0  0  0  0  0  0  0  0  0
  146.9144  138.6736  154.4173 H   0  0  0  0  0  0  0  0  0  0  0  0
  147.7024  139.1486  155.9262 H   0  0  0  0  0  0  0  0  0  0  0  0
  149.5511  137.8530  153.2426 H   0  0  0  0  0  0  0  0  0  0  0  0
  1  2  1  0  0  0  0
  1 20  1  0  0  0  0
  1 21  1  0  0  0  0
  1 22  1  0  0  0  0
  2  3  1  0  0  0  0
  2  4  1  0  0  0  0
  2 23  1  0  0  0  0
  3 24  1  0  0  0  0
  3 25  1  0  0  0  0
  3 26  1  0  0  0  0
  4  5  1  0  0  0  0
  4 27  1  0  0  0  0
  4 28  1  0  0  0  0
  5  6  1  0  0  0  0
  5 29  1  0  0  0  0
  6  7  2  0  0  0  0
  6  8  1  0  0  0  0
  8  9  1  0  0  0  0
  8 30  1  0  0  0  0
  9 14  1  0  0  0  0
  9 10  2  0  0  0  0
 10 11  1  0  0  0  0
 10 31  1  0  0  0  0
 11 12  2  0  0  0  0
 11 32  1  0  0  0  0
 12 13  1  0  0  0  0
 12 33  1  0  0  0  0
 13 14  2  0  0  0  0
 13 42  1  0  0  0  0
 14 15  1  0  0  0  0
 15 19  1  0  0  0  0
 15 16  1  0  0  0  0
 16 17  1  0  0  0  0
 16 34  1  0  0  0  0
 16 35  1  0  0  0  0
 17 18  1  0  0  0  0
 17 36  1  0  0  0  0
 17 37  1  0  0  0  0
 18 19  1  0  0  0  0
 18 38  1  0  0  0  0
 18 39  1  0  0  0  0
 19 40  1  0  0  0  0
 19 41  1  0  0  0  0
M  CHG  1  13   1
M  END
> <s_m_source_file>
AV-unprocessed.smi

> <i_m_source_file_index>
1461

> <i_lp_mmshare_version>
43012

> <i_f3d_flags>
0

> <s_epik_input>
W0NIM11bQ0hdKFtDSDNdKVtDSDJdW05IXUMoPU8pW05IXWMxW2NIXVtjSF1bY0hdbmMxTjJbQ0gyXVtDSDJdW0NIMl1bQ0gyXTI=

> <s_epik_cmdline>
J2VwaWtfcHl0aG9uJywgJy1waCcsICc3LjAnLCAnLXRuJywgJzgnLCAnLW1hJywgJzIwMCcsICctbWV0YWxfYmluZGluZycsICctaW1hZScsICc8aW5maWxlLm1hZT4nLCAnLW9tYWUnLCAnPG91dGZpbGUubWFlPic=

> <r_lp_tautomer_probability>
0.999994

> <r_epik_Ionization_Penalty>
1.09853

> <r_epik_Ionization_Penalty_Charging>
1.09851

> <r_epik_Ionization_Penalty_Neutral>
2.1796e-05

> <r_epik_State_Penalty>
1.15544

> <r_epik_Charging_Adjusted_Penalty>
2.25394

> <i_epik_Tot_Q>
1

> <i_epik_Tot_abs_Q>
1

> <r_epik_Metal_State_Penalty>
1.24304

> <b_epik_Metal_Only>
0

> <s_lp_Force_Field>
OPLS_2005

> <r_lp_Energy>
38.2179

> <b_lp_Chiralities_Consistent>
1

> <s_lp_Variant>
AV-unprocessed.smi:1461-2

> <Gold.Version>
5.8.1

> <Gold.Id.Protein>
6NUR|6NUR_protein|mol2

> <Gold.PLP.Fitness>
46.9856

> <Gold.PLP.PLP>
-41.3452

> <Gold.PLP.part.hbond>
-2.0979

> <Gold.PLP.part.metal>
0.0000

> <Gold.PLP.part.buried>
-3.1331

> <Gold.PLP.part.nonpolar>
-36.1268

> <Gold.PLP.part.repulsive>
0.3266

> <Gold.PLP.ligand.clash>
0.0000

> <Gold.PLP.ligand.torsion>
0.8945

> <Gold.PLP.Chemscore.Hbond>
2.3325

> <Gold.PLP.Chemscore.CHOScore>
0.0000

> <Gold.PLP.Chemscore.Metal>
0.0000

> <Gold.Chemscore.Hbonds>
donor molecule, donor type, donor heavy atom, donor atom, acceptor molecule, acceptor atom, score
      L1  H     5    29       P1  8028  1.00
      L1  H    13    42       P1  7948  1.27

> <Gold.PLP.Chemscore.Internal.Correction>
0.4320

> <Gold.Rescore>
     Score         DG    S(hbond)    S(metal)    S(lipo)     H(rot)  DE(clash)    DE(int)     intcor
     16.43     -19.35       1.62        0.00     101.86       1.35       1.22       1.70       ----

> <Gold.Chemscore.Fitness>
16.4269

> <Gold.Chemscore.DG>
-19.3470

> <Gold.Chemscore.ZeroCoef>
-5.4800

> <Gold.Chemscore.Hbond>
1.6170

> <Gold.Chemscore.Metal>
0.0000

> <Gold.Chemscore.Lipo>
101.8610

> <Gold.Chemscore.Internal_Hbond>
0.0000

> <Gold.Chemscore.DEClash>
1.2227

> <Gold.Chemscore.DEInternal>
1.6974

> <Gold.Chemscore.Rot>
1.3482

> <Gold.Chemscore.Internal.Correction>
   9.000000E+99

> <Gold.Chemscore.Hbonds>
donor molecule, donor type, donor heavy atom, donor atom, acceptor molecule, acceptor atom, score
      L1  H     5    29       P1  8028  0.99
      L1  H    13    42       P1  7948  0.53

> <Gold.Chemscore.Hbond.Weighted>
-5.4007

> <Gold.Chemscore.Metal.Weighted>
-0.0000

> <Gold.Chemscore.Lipo.Weighted>
-11.9177

> <Gold.Chemscore.Internal_Hbond.Weighted>
0.0000

> <Gold.Chemscore.DEClash.Weighted>
1.2227

> <Gold.Chemscore.DEInternal.Weighted>
1.6974

> <Gold.Chemscore.Rot.Weighted>
3.4514

> <Gold.Chemscore.Internal.Correction.Weighted>
   9.000000E+99

> <Gold.Protein.RotatedTorsions>
[ 6907 6896 6895 6894 ] final   19.39 input  -60.11 | X-H torsion
[ 7974 7965 7964 7962 ] final  111.91 input  175.53 | X-H torsion
[ 8008 7997 7996 7995 ] final   43.75 input   59.86 | X-H torsion
[ 10167 10162 10161 10158 ] final   42.17 input  -65.29 | X-H torsion
[ 10718 10713 10712 10709 ] final  -11.23 input   66.30 | X-H torsion
[ 10763 10752 10751 10750 ] final  -19.33 input  -60.55 | X-H torsion
[ 11005 11000 10999 10996 ] final   32.96 input  -57.11 | X-H torsion

> <Gold.Protein.ActiveResidues>
 VAL166  LYS551  ARG553  GLY616  TRP617  ASP618  TYR619  PRO620  LYS621  CYS622 
 ASP623  PHE694  ASN695  SER759  ASP760  ASP761  ALA762  ILE779  LEU786  VAL792 
 PHE793  MET794  SER795  GLU796  ALA797  LYS798  CYS799  TRP800  GLU811  SER814 

> <Gold.Protein.RotatedAtoms>
  151.8801  135.0457  160.0487 H   0  0  0  0  0  0  0  0  0  0  0  0  # atno 6907 bound_to 6896
  152.2520  133.5218  159.5339 H   0  0  0  0  0  0  0  0  0  0  0  0  # atno 6908 bound_to 6896
  150.7087  134.0864  159.3958 H   0  0  0  0  0  0  0  0  0  0  0  0  # atno 6909 bound_to 6896
  145.2362  139.2798  143.4142 H   0  0  0  0  0  0  0  0  0  0  0  0  # atno 7974 bound_to 7965
  155.3079  140.3389  155.4245 H   0  0  0  0  0  0  0  0  0  0  0  0  # atno 8008 bound_to 7997
  156.1970  140.1718  156.8017 H   0  0  0  0  0  0  0  0  0  0  0  0  # atno 8009 bound_to 7997
  154.5511  140.0705  156.8652 H   0  0  0  0  0  0  0  0  0  0  0  0  # atno 8010 bound_to 7997
  140.3571  144.2276  150.6141 H   0  0  0  0  0  0  0  0  0  0  0  0  # atno 10167 bound_to 10162
  156.6621  130.4985  149.6027 H   0  0  0  0  0  0  0  0  0  0  0  0  # atno 10718 bound_to 10713
  153.6031  135.6999  153.5376 H   0  0  0  0  0  0  0  0  0  0  0  0  # atno 10763 bound_to 10752
  153.3080  135.4109  155.1311 H   0  0  0  0  0  0  0  0  0  0  0  0  # atno 10764 bound_to 10752
  154.8578  135.3665  154.5567 H   0  0  0  0  0  0  0  0  0  0  0  0  # atno 10765 bound_to 10752
  140.2680  134.3115  155.7836 H   0  0  0  0  0  0  0  0  0  0  0  0  # atno 11005 bound_to 11000
  146.3340  140.2712  142.8606 LP  0  0  0  0  0  0  0  0  0  0  0  0  # atno 17320 bound_to 7965
  144.9631  140.8294  143.5501 LP  0  0  0  0  0  0  0  0  0  0  0  0  # atno 17321 bound_to 7965
  140.5163  143.2277  151.8458 LP  0  0  0  0  0  0  0  0  0  0  0  0  # atno 17342 bound_to 10162
  139.4819  144.4890  151.9209 LP  0  0  0  0  0  0  0  0  0  0  0  0  # atno 17343 bound_to 10162
  156.2003  130.6616  151.1160 LP  0  0  0  0  0  0  0  0  0  0  0  0  # atno 17370 bound_to 10713
  157.7106  131.0736  150.6513 LP  0  0  0  0  0  0  0  0  0  0  0  0  # atno 17371 bound_to 10713
  141.2181  133.7450  156.9291 LP  0  0  0  0  0  0  0  0  0  0  0  0  # atno 17394 bound_to 11000
  140.1400  134.9300  157.2454 LP  0  0  0  0  0  0  0  0  0  0  0  0  # atno 17395 bound_to 11000

$$$$
