AV-unprocessed.smi:616|AV-procd|sdf|3072|dock2
  -GOLD-   2262023593D 1   1.00000     0.00000
 Structure written by MMmdl.
 34 35  0  0  0  0  0  0  0  0  1 V2000
  151.8776  144.5399  158.0621 C   0  0  0  0  0  0  0  0  0  0  0  0
  152.2478  143.1230  158.4687 C   0  0  0  0  0  0  0  0  0  0  0  0
  153.2201  142.9204  159.3856 C   0  0  0  0  0  0  0  0  0  0  0  0
  153.6282  141.5857  159.8260 C   0  0  0  0  0  0  0  0  0  0  0  0
  154.5191  141.4114  160.6579 O   0  0  0  0  0  0  0  0  0  0  0  0
  152.9569  140.5486  159.2540 N   0  0  0  0  0  0  0  0  0  0  0  0
  153.2899  139.1710  159.6267 C   0  0  0  0  0  0  0  0  0  0  0  0
  151.9487  140.7447  158.2948 C   0  0  0  0  0  0  0  0  0  0  0  0
  151.5673  141.9745  157.8826 C   0  0  0  0  0  0  0  0  0  0  0  0
  150.5720  142.2214  156.9207 N   0  0  0  0  0  0  0  0  0  0  0  0
  150.3048  141.5789  155.7678 C   0  0  0  0  0  0  0  0  0  0  0  0
  150.8984  140.5927  155.3321 O   0  0  0  0  0  0  0  0  0  0  0  0
  149.2763  142.1555  155.1301 N   0  0  0  0  0  0  0  0  0  0  0  0
  148.7210  141.7031  153.8611 C   0  0  0  0  0  0  0  0  0  0  0  0
  147.6560  140.6296  153.9767 C   0  0  0  0  0  0  0  0  0  0  0  0
  147.9910  139.1694  153.7775 C   0  0  0  0  0  0  0  0  0  0  0  0
  147.1705  139.9021  152.7447 C   0  0  0  0  0  0  0  0  0  0  0  0
  152.4798  145.2819  158.5873 H   0  0  0  0  0  0  0  0  0  0  0  0
  150.8295  144.7373  158.2888 H   0  0  0  0  0  0  0  0  0  0  0  0
  152.0315  144.6799  156.9918 H   0  0  0  0  0  0  0  0  0  0  0  0
  153.7240  143.7717  159.8198 H   0  0  0  0  0  0  0  0  0  0  0  0
  152.6184  138.4371  159.1800 H   0  0  0  0  0  0  0  0  0  0  0  0
  153.2336  139.0382  160.7083 H   0  0  0  0  0  0  0  0  0  0  0  0
  154.3036  138.9261  159.3068 H   0  0  0  0  0  0  0  0  0  0  0  0
  151.5297  139.8228  157.9269 H   0  0  0  0  0  0  0  0  0  0  0  0
  149.9692  143.0014  157.1386 H   0  0  0  0  0  0  0  0  0  0  0  0
  148.8423  142.9619  155.5551 H   0  0  0  0  0  0  0  0  0  0  0  0
  148.2761  142.5692  153.3708 H   0  0  0  0  0  0  0  0  0  0  0  0
  149.5215  141.3591  153.2035 H   0  0  0  0  0  0  0  0  0  0  0  0
  146.8898  140.8517  154.7173 H   0  0  0  0  0  0  0  0  0  0  0  0
  149.0161  138.9148  153.5160 H   0  0  0  0  0  0  0  0  0  0  0  0
  147.4783  138.4471  154.4091 H   0  0  0  0  0  0  0  0  0  0  0  0
  146.1099  139.6667  152.6857 H   0  0  0  0  0  0  0  0  0  0  0  0
  147.6511  140.1321  151.7958 H   0  0  0  0  0  0  0  0  0  0  0  0
  1  2  1  0  0  0  0
  1 18  1  0  0  0  0
  1 19  1  0  0  0  0
  1 20  1  0  0  0  0
  2  9  1  0  0  0  0
  2  3  2  0  0  0  0
  3  4  1  0  0  0  0
  3 21  1  0  0  0  0
  4  5  2  0  0  0  0
  4  6  1  0  0  0  0
  6  7  1  0  0  0  0
  6  8  1  0  0  0  0
  7 22  1  0  0  0  0
  7 23  1  0  0  0  0
  7 24  1  0  0  0  0
  8  9  2  0  0  0  0
  8 25  1  0  0  0  0
  9 10  1  0  0  0  0
 10 11  1  0  0  0  0
 10 26  1  0  0  0  0
 11 12  2  0  0  0  0
 11 13  1  0  0  0  0
 13 14  1  0  0  0  0
 13 27  1  0  0  0  0
 14 15  1  0  0  0  0
 14 28  1  0  0  0  0
 14 29  1  0  0  0  0
 15 17  1  0  0  0  0
 15 16  1  0  0  0  0
 15 30  1  0  0  0  0
 16 17  1  0  0  0  0
 16 31  1  0  0  0  0
 16 32  1  0  0  0  0
 17 33  1  0  0  0  0
 17 34  1  0  0  0  0
M  END
> <s_m_source_file>
AV-unprocessed.smi

> <i_m_source_file_index>
616

> <i_lp_mmshare_version>
43012

> <i_f3d_flags>
0

> <s_epik_input>
W0NIM11jMVtjSF1jKD1PKW4oW0NIM10pW2NIXWMxW05IXUMoPU8pW05IXVtDSDJdW0NIXTJbQ0gyXVtDSDJdMg==

> <s_epik_cmdline>
J2VwaWtfcHl0aG9uJywgJy1waCcsICc3LjAnLCAnLXRuJywgJzgnLCAnLW1hJywgJzIwMCcsICctbWV0YWxfYmluZGluZycsICctaW1hZScsICc8aW5maWxlLm1hZT4nLCAnLW9tYWUnLCAnPG91dGZpbGUubWFlPic=

> <r_lp_tautomer_probability>
1

> <r_epik_Ionization_Penalty>
2.97505e-05

> <r_epik_Ionization_Penalty_Charging>
8.23988e-06

> <r_epik_Ionization_Penalty_Neutral>
2.15106e-05

> <r_epik_State_Penalty>
-0

> <r_epik_Charging_Adjusted_Penalty>
8.23988e-06

> <i_epik_Tot_Q>
0

> <i_epik_Tot_abs_Q>
0

> <r_epik_Metal_State_Penalty>
-0

> <b_epik_Metal_Only>
0

> <s_lp_Force_Field>
OPLS_2005

> <r_lp_Energy>
26.2007

> <b_lp_Chiralities_Consistent>
1

> <s_lp_Variant>
AV-unprocessed.smi:616-1

> <Gold.Version>
5.8.1

> <Gold.Id.Protein>
6NUR|6NUR_protein|mol2

> <Gold.PLP.Fitness>
41.2676

> <Gold.PLP.PLP>
-36.8940

> <Gold.PLP.part.hbond>
-2.7813

> <Gold.PLP.part.metal>
0.0000

> <Gold.PLP.part.buried>
-1.2819

> <Gold.PLP.part.nonpolar>
-32.3227

> <Gold.PLP.part.repulsive>
0.2826

> <Gold.PLP.ligand.clash>
0.0000

> <Gold.PLP.ligand.torsion>
0.7947

> <Gold.PLP.Chemscore.Hbond>
1.8080

> <Gold.PLP.Chemscore.CHOScore>
0.0000

> <Gold.PLP.Chemscore.Metal>
0.0000

> <Gold.Chemscore.Hbonds>
donor molecule, donor type, donor heavy atom, donor atom, acceptor molecule, acceptor atom, score
      L1  H    13    27       P1  8028  0.90
      P1  H  7989  7998       L1    12  0.93

> <Gold.PLP.Chemscore.Internal.Correction>
0.5391

> <Gold.Rescore>
     Score         DG    S(hbond)    S(metal)    S(lipo)     H(rot)  DE(clash)    DE(int)     intcor
     16.04     -18.11       1.62        0.00      87.60       1.18       1.29       0.78       ----

> <Gold.Chemscore.Fitness>
16.0354

> <Gold.Chemscore.DG>
-18.1076

> <Gold.Chemscore.ZeroCoef>
-5.4800

> <Gold.Chemscore.Hbond>
1.6200

> <Gold.Chemscore.Metal>
0.0000

> <Gold.Chemscore.Lipo>
87.5951

> <Gold.Chemscore.Internal_Hbond>
0.0000

> <Gold.Chemscore.DEClash>
1.2945

> <Gold.Chemscore.DEInternal>
0.7777

> <Gold.Chemscore.Rot>
1.1844

> <Gold.Chemscore.Internal.Correction>
   9.000000E+99

> <Gold.Chemscore.Hbonds>
donor molecule, donor type, donor heavy atom, donor atom, acceptor molecule, acceptor atom, score
      L1  H    10    26       P1  8028  0.01
      L1  H    13    27       P1  8028  0.87
      P1  H  7989  7998       L1    12  0.71

> <Gold.Chemscore.Hbond.Weighted>
-5.4109

> <Gold.Chemscore.Metal.Weighted>
-0.0000

> <Gold.Chemscore.Lipo.Weighted>
-10.2486

> <Gold.Chemscore.Internal_Hbond.Weighted>
0.0000

> <Gold.Chemscore.DEClash.Weighted>
1.2945

> <Gold.Chemscore.DEInternal.Weighted>
0.7777

> <Gold.Chemscore.Rot.Weighted>
3.0320

> <Gold.Chemscore.Internal.Correction.Weighted>
   9.000000E+99

> <Gold.Protein.RotatedTorsions>
[ 6907 6896 6895 6894 ] final   31.70 input  -60.11 | X-H torsion
[ 7974 7965 7964 7962 ] final -164.49 input  175.53 | X-H torsion
[ 8008 7997 7996 7995 ] final  -52.84 input   59.86 | X-H torsion
[ 10167 10162 10161 10158 ] final   35.03 input  -65.29 | X-H torsion
[ 10718 10713 10712 10709 ] final  -53.50 input   66.30 | X-H torsion
[ 10763 10752 10751 10750 ] final   12.20 input  -60.55 | X-H torsion
[ 11005 11000 10999 10996 ] final  110.27 input  -57.11 | X-H torsion

> <Gold.Protein.ActiveResidues>
 VAL166  LYS551  ARG553  GLY616  TRP617  ASP618  TYR619  PRO620  LYS621  CYS622 
 ASP623  PHE694  ASN695  SER759  ASP760  ASP761  ALA762  ILE779  LEU786  VAL792 
 PHE793  MET794  SER795  GLU796  ALA797  LYS798  CYS799  TRP800  GLU811  SER814 

> <Gold.Protein.RotatedAtoms>
  152.0641  134.9576  160.0574 H   0  0  0  0  0  0  0  0  0  0  0  0  # atno 6907 bound_to 6896
  152.0928  133.4204  159.4559 H   0  0  0  0  0  0  0  0  0  0  0  0  # atno 6908 bound_to 6896
  150.6837  134.2771  159.4655 H   0  0  0  0  0  0  0  0  0  0  0  0  # atno 6909 bound_to 6896
  144.7295  140.2952  143.6214 H   0  0  0  0  0  0  0  0  0  0  0  0  # atno 7974 bound_to 7965
  154.4117  140.1214  156.5057 H   0  0  0  0  0  0  0  0  0  0  0  0  # atno 8008 bound_to 7997
  155.6850  140.3496  155.4851 H   0  0  0  0  0  0  0  0  0  0  0  0  # atno 8009 bound_to 7997
  155.9518  140.1106  157.0960 H   0  0  0  0  0  0  0  0  0  0  0  0  # atno 8010 bound_to 7997
  140.4260  144.1392  150.6153 H   0  0  0  0  0  0  0  0  0  0  0  0  # atno 10167 bound_to 10162
  156.1530  130.4151  149.9914 H   0  0  0  0  0  0  0  0  0  0  0  0  # atno 10718 bound_to 10713
  153.1847  135.6833  153.8431 H   0  0  0  0  0  0  0  0  0  0  0  0  # atno 10763 bound_to 10752
  153.7750  135.3190  155.3359 H   0  0  0  0  0  0  0  0  0  0  0  0  # atno 10764 bound_to 10752
  154.8081  135.4735  154.0542 H   0  0  0  0  0  0  0  0  0  0  0  0  # atno 10765 bound_to 10752
  139.8878  134.9480  156.6253 H   0  0  0  0  0  0  0  0  0  0  0  0  # atno 11005 bound_to 11000
  145.7815  139.1893  143.2155 LP  0  0  0  0  0  0  0  0  0  0  0  0  # atno 17320 bound_to 7965
  146.0830  140.7742  142.9632 LP  0  0  0  0  0  0  0  0  0  0  0  0  # atno 17321 bound_to 7965
  140.4481  143.2498  151.9385 LP  0  0  0  0  0  0  0  0  0  0  0  0  # atno 17342 bound_to 10162
  139.4783  144.5589  151.8270 LP  0  0  0  0  0  0  0  0  0  0  0  0  # atno 17343 bound_to 10162
  156.7766  130.9206  151.3645 LP  0  0  0  0  0  0  0  0  0  0  0  0  # atno 17370 bound_to 10713
  157.6672  130.9018  149.9959 LP  0  0  0  0  0  0  0  0  0  0  0  0  # atno 17371 bound_to 10713
  140.7708  133.8740  155.8490 LP  0  0  0  0  0  0  0  0  0  0  0  0  # atno 17394 bound_to 11000
  140.9844  134.1363  157.4466 LP  0  0  0  0  0  0  0  0  0  0  0  0  # atno 17395 bound_to 11000

$$$$
