AV-unprocessed.smi:867|AV-procd|sdf|3999|dock5
  -GOLD-   22720 1483D 1   1.00000     0.00000
 Structure written by MMmdl.
 54 57  0  0  0  0  0  0  0  0  3 V2000
  151.0047  136.8146  159.5398 O   0  0  0  0  0  0  0  0  0  0  0  0
  150.2075  137.4983  158.8962 C   0  0  0  0  0  0  0  0  0  0  0  0
  148.8893  137.2370  158.8813 N   0  0  0  0  0  0  0  0  0  0  0  0
  148.2418  136.1537  159.6120 C   0  0  0  0  0  0  0  0  0  0  0  0
  147.8458  136.5879  161.0325 C   0  0  0  0  0  0  0  0  0  0  0  0
  146.7352  135.7269  161.6019 C   0  0  0  0  0  0  0  0  0  0  0  0
  145.4738  136.2889  161.8993 C   0  0  0  0  0  0  0  0  0  0  0  0
  144.4586  135.4671  162.4316 C   0  0  0  0  0  0  0  0  0  0  0  0
  144.7281  134.1015  162.6558 C   0  0  0  0  0  0  0  0  0  0  0  0
  145.9475  133.5993  162.3609 N   0  3  0  0  0  0  0  0  0  0  0  0
  146.9458  134.3528  161.8491 C   0  0  0  0  0  0  0  0  0  0  0  0
  150.5899  138.5162  158.0864 N   0  0  0  0  0  0  0  0  0  0  0  0
  149.6978  139.4939  157.4524 C   0  0  0  0  0  0  0  0  0  0  0  0
  149.8152  140.8473  158.1820 C   0  0  0  0  0  0  0  0  0  0  0  0
  151.2261  141.3301  158.2579 N   0  3  0  0  0  0  0  0  0  0  0  0
  151.4031  142.6159  159.0017 C   0  0  1  0  0  0  0  0  0  0  0  0
  152.8832  143.0848  158.9996 C   0  0  0  0  0  0  0  0  0  0  0  0
  152.8100  144.5226  158.4601 C   0  0  2  0  0  0  0  0  0  0  0  0
  152.1418  145.4312  159.5050 C   0  0  0  0  0  0  0  0  0  0  0  0
  150.6708  144.9858  159.4393 C   0  0  0  0  0  0  0  0  0  0  0  0
  150.6951  143.8578  158.3879 C   0  0  1  0  0  0  0  0  0  0  0  0
  151.7254  144.3918  157.3993 C   0  0  0  0  0  0  0  0  0  0  0  0
  152.1492  140.2711  158.7630 C   0  0  0  0  0  0  0  0  0  0  0  0
  151.9833  138.9520  157.9916 C   0  0  0  0  0  0  0  0  0  0  0  0
  148.2968  137.8170  158.3051 H   0  0  0  0  0  0  0  0  0  0  0  0
  147.3553  135.8496  159.0545 H   0  0  0  0  0  0  0  0  0  0  0  0
  148.8987  135.2826  159.6470 H   0  0  0  0  0  0  0  0  0  0  0  0
  148.7077  136.5357  161.6996 H   0  0  0  0  0  0  0  0  0  0  0  0
  147.5236  137.6303  161.0287 H   0  0  0  0  0  0  0  0  0  0  0  0
  145.2854  137.3383  161.7234 H   0  0  0  0  0  0  0  0  0  0  0  0
  143.4877  135.8794  162.6651 H   0  0  0  0  0  0  0  0  0  0  0  0
  144.0111  133.4014  163.0596 H   0  0  0  0  0  0  0  0  0  0  0  0
  147.8755  133.8367  161.6567 H   0  0  0  0  0  0  0  0  0  0  0  0
  149.9880  139.6098  156.4069 H   0  0  0  0  0  0  0  0  0  0  0  0
  148.6527  139.1852  157.4309 H   0  0  0  0  0  0  0  0  0  0  0  0
  149.1943  141.5560  157.6384 H   0  0  0  0  0  0  0  0  0  0  0  0
  149.4070  140.7634  159.1905 H   0  0  0  0  0  0  0  0  0  0  0  0
  151.0484  142.4634  160.0227 H   0  0  0  0  0  0  0  0  0  0  0  0
  153.3361  143.0345  159.9906 H   0  0  0  0  0  0  0  0  0  0  0  0
  153.4992  142.4891  158.3245 H   0  0  0  0  0  0  0  0  0  0  0  0
  153.7658  144.9024  158.0975 H   0  0  0  0  0  0  0  0  0  0  0  0
  152.5727  145.3050  160.4990 H   0  0  0  0  0  0  0  0  0  0  0  0
  152.2379  146.4820  159.2280 H   0  0  0  0  0  0  0  0  0  0  0  0
  150.2926  144.6503  160.4056 H   0  0  0  0  0  0  0  0  0  0  0  0
  150.0397  145.8109  159.1062 H   0  0  0  0  0  0  0  0  0  0  0  0
  149.7033  143.6942  157.9729 H   0  0  0  0  0  0  0  0  0  0  0  0
  151.4420  145.3460  156.9510 H   0  0  0  0  0  0  0  0  0  0  0  0
  151.9742  143.6835  156.6071 H   0  0  0  0  0  0  0  0  0  0  0  0
  153.1873  140.5916  158.6855 H   0  0  0  0  0  0  0  0  0  0  0  0
  151.9555  140.0998  159.8234 H   0  0  0  0  0  0  0  0  0  0  0  0
  152.6815  138.2041  158.3714 H   0  0  0  0  0  0  0  0  0  0  0  0
  152.2472  139.0948  156.9426 H   0  0  0  0  0  0  0  0  0  0  0  0
  151.5029  141.5139  157.3041 H   0  0  0  0  0  0  0  0  0  0  0  0
  146.1218  132.6086  162.5321 H   0  0  0  0  0  0  0  0  0  0  0  0
  1  2  2  0  0  0  0
  2  3  1  0  0  0  0
  2 12  1  0  0  0  0
  3  4  1  0  0  0  0
  3 25  1  0  0  0  0
  4  5  1  0  0  0  0
  4 26  1  0  0  0  0
  4 27  1  0  0  0  0
  5  6  1  0  0  0  0
  5 28  1  0  0  0  0
  5 29  1  0  0  0  0
  6 11  1  0  0  0  0
  6  7  2  0  0  0  0
  7  8  1  0  0  0  0
  7 30  1  0  0  0  0
  8  9  2  0  0  0  0
  8 31  1  0  0  0  0
  9 10  1  0  0  0  0
  9 32  1  0  0  0  0
 10 11  2  0  0  0  0
 10 54  1  0  0  0  0
 11 33  1  0  0  0  0
 12 24  1  0  0  0  0
 12 13  1  0  0  0  0
 13 14  1  0  0  0  0
 13 34  1  0  0  0  0
 13 35  1  0  0  0  0
 14 15  1  0  0  0  0
 14 36  1  0  0  0  0
 14 37  1  0  0  0  0
 15 16  1  0  0  0  0
 15 23  1  0  0  0  0
 15 53  1  0  0  0  0
 16 21  1  0  0  0  0
 16 17  1  0  0  0  0
 16 38  1  0  0  0  0
 17 18  1  0  0  0  0
 17 39  1  0  0  0  0
 17 40  1  0  0  0  0
 18 22  1  0  0  0  0
 18 19  1  0  0  0  0
 18 41  1  0  0  0  0
 19 20  1  0  0  0  0
 19 42  1  0  0  0  0
 19 43  1  0  0  0  0
 20 21  1  0  0  0  0
 20 44  1  0  0  0  0
 20 45  1  0  0  0  0
 21 22  1  0  0  0  0
 21 46  1  0  0  0  0
 22 47  1  0  0  0  0
 22 48  1  0  0  0  0
 23 24  1  0  0  0  0
 23 49  1  0  0  0  0
 23 50  1  0  0  0  0
 24 51  1  0  0  0  0
 24 52  1  0  0  0  0
M  CHG  1  10   1
M  CHG  1  15   1
M  END
> <s_m_source_file>
AV-unprocessed.smi

> <i_m_source_file_index>
867

> <i_lp_mmshare_version>
43012

> <i_f3d_flags>
0

> <s_epik_input>
W0NIMl0xW0NIMl1bQ0BASF0oW0NIMl0yKVtDQEBIXShbQ0gyXVtDQEhdMTIpTihbQ0gyXVtDSDJdMylbQ0gyXVtDSDJdTjNDKD1PKVtOSF1bQ0gyXVtDSDJdYzRbY0hdW2NIXVtjSF1uW2NIXTQ=

> <s_epik_cmdline>
J2VwaWtfcHl0aG9uJywgJy1waCcsICc3LjAnLCAnLXRuJywgJzgnLCAnLW1hJywgJzIwMCcsICctbWV0YWxfYmluZGluZycsICctaW1hZScsICc8aW5maWxlLm1hZT4nLCAnLW9tYWUnLCAnPG91dGZpbGUubWFlPic=

> <r_epik_Ionization_Penalty>
2.25108

> <r_epik_Ionization_Penalty_Charging>
2.25105

> <r_epik_Ionization_Penalty_Neutral>
2.64641e-05

> <r_epik_State_Penalty>
2.39519

> <r_epik_Charging_Adjusted_Penalty>
4.64625

> <i_epik_Tot_Q>
2

> <i_epik_Tot_abs_Q>
2

> <r_epik_Metal_State_Penalty>
2.40865

> <b_epik_Metal_Only>
0

> <s_lp_Force_Field>
OPLS_2005

> <r_lp_Energy>
104.459

> <b_lp_Chiralities_Consistent>
1

> <s_lp_Variant>
AV-unprocessed.smi:867-6

> <Gold.Version>
5.8.1

> <Gold.Id.Protein>
6NUR|6NUR_protein|mol2

> <Gold.PLP.Fitness>
52.7135

> <Gold.PLP.PLP>
-50.3813

> <Gold.PLP.part.hbond>
-1.0000

> <Gold.PLP.part.metal>
0.0000

> <Gold.PLP.part.buried>
-7.2461

> <Gold.PLP.part.nonpolar>
-41.6647

> <Gold.PLP.part.repulsive>
0.3831

> <Gold.PLP.ligand.clash>
0.0000

> <Gold.PLP.ligand.torsion>
0.4002

> <Gold.PLP.Chemscore.Hbond>
1.0000

> <Gold.PLP.Chemscore.CHOScore>
0.0000

> <Gold.PLP.Chemscore.Metal>
0.0000

> <Gold.Chemscore.Hbonds>
donor molecule, donor type, donor heavy atom, donor atom, acceptor molecule, acceptor atom, score
      P1  H  6896  6909       L1     1  1.00

> <Gold.PLP.Chemscore.Internal.Correction>
0.1327

> <Gold.Rescore>
     Score         DG    S(hbond)    S(metal)    S(lipo)     H(rot)  DE(clash)    DE(int)     intcor
     21.83     -22.33       1.00        0.00     147.44       1.46       0.21       0.29       ----

> <Gold.Chemscore.Fitness>
21.8309

> <Gold.Chemscore.DG>
-22.3320

> <Gold.Chemscore.ZeroCoef>
-5.4800

> <Gold.Chemscore.Hbond>
0.9975

> <Gold.Chemscore.Metal>
0.0000

> <Gold.Chemscore.Lipo>
147.4421

> <Gold.Chemscore.Internal_Hbond>
0.0000

> <Gold.Chemscore.DEClash>
0.2102

> <Gold.Chemscore.DEInternal>
0.2908

> <Gold.Chemscore.Rot>
1.4572

> <Gold.Chemscore.Internal.Correction>
   9.000000E+99

> <Gold.Chemscore.Hbonds>
donor molecule, donor type, donor heavy atom, donor atom, acceptor molecule, acceptor atom, score
      P1  H  6896  6909       L1     1  1.00

> <Gold.Chemscore.Hbond.Weighted>
-3.3318

> <Gold.Chemscore.Metal.Weighted>
-0.0000

> <Gold.Chemscore.Lipo.Weighted>
-17.2507

> <Gold.Chemscore.Internal_Hbond.Weighted>
0.0000

> <Gold.Chemscore.DEClash.Weighted>
0.2102

> <Gold.Chemscore.DEInternal.Weighted>
0.2908

> <Gold.Chemscore.Rot.Weighted>
3.7305

> <Gold.Chemscore.Internal.Correction.Weighted>
   9.000000E+99

> <Gold.Protein.RotatedTorsions>
[ 6907 6896 6895 6894 ] final   97.07 input  -60.11 | X-H torsion
[ 7974 7965 7964 7962 ] final  -93.48 input  175.53 | X-H torsion
[ 8008 7997 7996 7995 ] final -159.50 input   59.86 | X-H torsion
[ 10167 10162 10161 10158 ] final  -75.10 input  -65.29 | X-H torsion
[ 10718 10713 10712 10709 ] final  145.21 input   66.30 | X-H torsion
[ 10763 10752 10751 10750 ] final -134.85 input  -60.55 | X-H torsion
[ 11005 11000 10999 10996 ] final    6.57 input  -57.11 | X-H torsion

> <Gold.Protein.ActiveResidues>
 VAL166  LYS551  ARG553  GLY616  TRP617  ASP618  TYR619  PRO620  LYS621  CYS622 
 ASP623  PHE694  ASN695  SER759  ASP760  ASP761  ALA762  ILE779  LEU786  VAL792 
 PHE793  MET794  SER795  GLU796  ALA797  LYS798  CYS799  TRP800  GLU811  SER814 

> <Gold.Protein.RotatedAtoms>
  152.5428  134.0790  159.8226 H   0  0  0  0  0  0  0  0  0  0  0  0  # atno 6907 bound_to 6896
  151.0894  133.5320  159.2623 H   0  0  0  0  0  0  0  0  0  0  0  0  # atno 6908 bound_to 6896
  151.2117  135.0492  159.8968 H   0  0  0  0  0  0  0  0  0  0  0  0  # atno 6909 bound_to 6896
  145.3860  140.9523  143.2367 H   0  0  0  0  0  0  0  0  0  0  0  0  # atno 7974 bound_to 7965
  155.7635  140.0842  157.2143 H   0  0  0  0  0  0  0  0  0  0  0  0  # atno 8008 bound_to 7997
  154.4001  140.1538  156.2916 H   0  0  0  0  0  0  0  0  0  0  0  0  # atno 8009 bound_to 7997
  155.8816  140.3420  155.5895 H   0  0  0  0  0  0  0  0  0  0  0  0  # atno 8010 bound_to 7997
  140.4971  143.2368  151.7812 H   0  0  0  0  0  0  0  0  0  0  0  0  # atno 10167 bound_to 10162
  157.3480  131.0946  151.1025 H   0  0  0  0  0  0  0  0  0  0  0  0  # atno 10718 bound_to 10713
  154.8713  135.3721  154.4803 H   0  0  0  0  0  0  0  0  0  0  0  0  # atno 10763 bound_to 10752
  153.5457  135.7025  153.5620 H   0  0  0  0  0  0  0  0  0  0  0  0  # atno 10764 bound_to 10752
  153.3762  135.4008  155.1788 H   0  0  0  0  0  0  0  0  0  0  0  0  # atno 10765 bound_to 10752
  140.5579  134.0220  155.7961 H   0  0  0  0  0  0  0  0  0  0  0  0  # atno 11005 bound_to 11000
  144.8473  139.5376  143.6872 LP  0  0  0  0  0  0  0  0  0  0  0  0  # atno 17320 bound_to 7965
  146.2820  139.6902  142.9222 LP  0  0  0  0  0  0  0  0  0  0  0  0  # atno 17321 bound_to 7965
  139.4864  144.4571  151.9585 LP  0  0  0  0  0  0  0  0  0  0  0  0  # atno 17342 bound_to 10162
  140.3659  144.2915  150.5926 LP  0  0  0  0  0  0  0  0  0  0  0  0  # atno 17343 bound_to 10162
  157.2211  130.6482  149.5812 LP  0  0  0  0  0  0  0  0  0  0  0  0  # atno 17370 bound_to 10713
  155.9717  130.4629  150.6161 LP  0  0  0  0  0  0  0  0  0  0  0  0  # atno 17371 bound_to 10713
  141.1132  133.9583  157.2871 LP  0  0  0  0  0  0  0  0  0  0  0  0  # atno 17394 bound_to 11000
  139.9422  135.0189  156.8743 LP  0  0  0  0  0  0  0  0  0  0  0  0  # atno 17395 bound_to 11000

$$$$
