AV-unprocessed.smi:1401|AV-procd|sdf|5691|dock1
  -GOLD-   22720 5313D 1   1.00000     0.00000
 Structure written by MMmdl.
 48 50  0  0  0  0  0  0  0  0  1 V2000
  152.9423  143.4474  162.2954 C   0  0  0  0  0  0  0  0  0  0  0  0
  152.2950  143.0037  161.0113 C   0  0  0  0  0  0  0  0  0  0  0  0
  151.2353  143.6455  160.6426 N   0  0  0  0  0  0  0  0  0  0  0  0
  150.5614  143.3146  159.4829 N   0  0  0  0  0  0  0  0  0  0  0  0
  149.3658  144.1306  159.2272 C   0  0  0  0  0  0  0  0  0  0  0  0
  148.1218  143.2848  158.9221 C   0  0  0  0  0  0  0  0  0  0  0  0
  147.4054  142.8743  159.8359 O   0  0  0  0  0  0  0  0  0  0  0  0
  147.8744  143.0482  157.6249 N   0  0  0  0  0  0  0  0  0  0  0  0
  146.7746  142.2415  157.0990 C   0  0  1  0  0  0  0  0  0  0  0  0
  145.7571  143.1759  156.4214 C   0  0  0  0  0  0  0  0  0  0  0  0
  147.3395  141.1651  156.1394 C   0  0  1  0  0  0  0  0  0  0  0  0
  146.2464  140.3829  155.3664 C   0  0  0  0  0  0  0  0  0  0  0  0
  146.6753  140.5303  153.8963 C   0  0  2  0  0  0  0  0  0  0  0  0
  147.9633  139.7237  153.6503 C   0  0  0  0  0  0  0  0  0  0  0  0
  149.0307  140.5627  154.3773 C   0  0  0  0  0  0  0  0  0  0  0  0
  148.2056  141.7171  154.9785 C   0  0  1  0  0  0  0  0  0  0  0  0
  147.1850  141.9646  153.8718 C   0  0  0  0  0  0  0  0  0  0  0  0
  150.9336  142.3212  158.6245 C   0  0  0  0  0  0  0  0  0  0  0  0
  150.3071  142.0665  157.5943 O   0  0  0  0  0  0  0  0  0  0  0  0
  152.1347  141.5988  159.0488 C   0  0  0  0  0  0  0  0  0  0  0  0
  152.5545  140.5458  158.1815 C   0  0  0  0  0  0  0  0  0  0  0  0
  152.9109  139.6875  157.4911 N   0  0  0  0  0  0  0  0  0  0  0  0
  152.8006  141.9090  160.1890 C   0  0  0  0  0  0  0  0  0  0  0  0
  154.0515  141.1893  160.6741 C   0  0  0  0  0  0  0  0  0  0  0  0
  153.9713  143.7616  162.1216 H   0  0  0  0  0  0  0  0  0  0  0  0
  152.9539  142.6353  163.0224 H   0  0  0  0  0  0  0  0  0  0  0  0
  152.4144  144.2873  162.7493 H   0  0  0  0  0  0  0  0  0  0  0  0
  149.1416  144.7602  160.0903 H   0  0  0  0  0  0  0  0  0  0  0  0
  149.5591  144.8212  158.4039 H   0  0  0  0  0  0  0  0  0  0  0  0
  148.5152  143.4337  156.9466 H   0  0  0  0  0  0  0  0  0  0  0  0
  146.2735  141.7331  157.9244 H   0  0  0  0  0  0  0  0  0  0  0  0
  144.8733  142.6369  156.0829 H   0  0  0  0  0  0  0  0  0  0  0  0
  146.1931  143.6776  155.5570 H   0  0  0  0  0  0  0  0  0  0  0  0
  145.4133  143.9465  157.1125 H   0  0  0  0  0  0  0  0  0  0  0  0
  147.9314  140.4660  156.7327 H   0  0  0  0  0  0  0  0  0  0  0  0
  146.1837  139.3401  155.6788 H   0  0  0  0  0  0  0  0  0  0  0  0
  145.2592  140.8267  155.5048 H   0  0  0  0  0  0  0  0  0  0  0  0
  145.8780  140.3121  153.1852 H   0  0  0  0  0  0  0  0  0  0  0  0
  147.8944  138.7078  154.0408 H   0  0  0  0  0  0  0  0  0  0  0  0
  148.1865  139.6595  152.5845 H   0  0  0  0  0  0  0  0  0  0  0  0
  149.5673  139.9914  155.1356 H   0  0  0  0  0  0  0  0  0  0  0  0
  149.7655  140.9431  153.6666 H   0  0  0  0  0  0  0  0  0  0  0  0
  148.8164  142.5819  155.2340 H   0  0  0  0  0  0  0  0  0  0  0  0
  147.6384  142.2458  152.9196 H   0  0  0  0  0  0  0  0  0  0  0  0
  146.4232  142.7002  154.1344 H   0  0  0  0  0  0  0  0  0  0  0  0
  154.3528  140.3855  160.0028 H   0  0  0  0  0  0  0  0  0  0  0  0
  153.8823  140.7480  161.6568 H   0  0  0  0  0  0  0  0  0  0  0  0
  154.8884  141.8844  160.7481 H   0  0  0  0  0  0  0  0  0  0  0  0
  1  2  1  0  0  0  0
  1 25  1  0  0  0  0
  1 26  1  0  0  0  0
  1 27  1  0  0  0  0
  2 23  1  0  0  0  0
  2  3  2  0  0  0  0
  3  4  1  0  0  0  0
  4  5  1  0  0  0  0
  4 18  1  0  0  0  0
  5  6  1  0  0  0  0
  5 28  1  0  0  0  0
  5 29  1  0  0  0  0
  6  7  2  0  0  0  0
  6  8  1  0  0  0  0
  8  9  1  0  0  0  0
  8 30  1  0  0  0  0
  9 10  1  0  0  0  0
  9 11  1  0  0  0  0
  9 31  1  0  0  0  0
 10 32  1  0  0  0  0
 10 33  1  0  0  0  0
 10 34  1  0  0  0  0
 11 16  1  0  0  0  0
 11 12  1  0  0  0  0
 11 35  1  0  0  0  0
 12 13  1  0  0  0  0
 12 36  1  0  0  0  0
 12 37  1  0  0  0  0
 13 17  1  0  0  0  0
 13 14  1  0  0  0  0
 13 38  1  0  0  0  0
 14 15  1  0  0  0  0
 14 39  1  0  0  0  0
 14 40  1  0  0  0  0
 15 16  1  0  0  0  0
 15 41  1  0  0  0  0
 15 42  1  0  0  0  0
 16 17  1  0  0  0  0
 16 43  1  0  0  0  0
 17 44  1  0  0  0  0
 17 45  1  0  0  0  0
 18 19  2  0  0  0  0
 18 20  1  0  0  0  0
 20 21  1  0  0  0  0
 20 23  2  0  0  0  0
 21 22  3  0  0  0  0
 23 24  1  0  0  0  0
 24 46  1  0  0  0  0
 24 47  1  0  0  0  0
 24 48  1  0  0  0  0
M  END
> <s_m_source_file>
AV-unprocessed.smi

> <i_m_source_file_index>
1401

> <i_lp_mmshare_version>
43012

> <i_f3d_flags>
0

> <s_epik_input>
TiNDYyhjMVtDSDNdKWMoPU8pbihuYzFbQ0gzXSlbQ0gyXUMoPU8pW05IXVtDQEhdKFtDSDNdKVtDQEhdKFtDSDJdW0NASF0yMylbQ0BIXShbQ0gyXTMpW0NIMl1bQ0gyXTI=

> <s_epik_cmdline>
J2VwaWtfcHl0aG9uJywgJy1waCcsICc3LjAnLCAnLXRuJywgJzgnLCAnLW1hJywgJzIwMCcsICctbWV0YWxfYmluZGluZycsICctaW1hZScsICc8aW5maWxlLm1hZT4nLCAnLW9tYWUnLCAnPG91dGZpbGUubWFlPic=

> <r_lp_tautomer_probability>
1

> <r_epik_Ionization_Penalty>
2.16501e-08

> <r_epik_Ionization_Penalty_Charging>
2.29436e-11

> <r_epik_Ionization_Penalty_Neutral>
2.16271e-08

> <r_epik_State_Penalty>
-0

> <r_epik_Charging_Adjusted_Penalty>
2.29436e-11

> <i_epik_Tot_Q>
0

> <i_epik_Tot_abs_Q>
0

> <r_epik_Metal_State_Penalty>
-0

> <b_epik_Metal_Only>
0

> <s_lp_Force_Field>
OPLS_2005

> <r_lp_Energy>
65.5995

> <b_lp_Chiralities_Consistent>
1

> <s_lp_Variant>
AV-unprocessed.smi:1401-4

> <Gold.Version>
5.8.1

> <Gold.Id.Protein>
6NUR|6NUR_protein|mol2

> <Gold.PLP.Fitness>
47.3738

> <Gold.PLP.PLP>
-39.3179

> <Gold.PLP.part.hbond>
-5.6999

> <Gold.PLP.part.metal>
0.0000

> <Gold.PLP.part.buried>
0.9573

> <Gold.PLP.part.nonpolar>
-34.3745

> <Gold.PLP.part.repulsive>
0.3184

> <Gold.PLP.ligand.clash>
0.0000

> <Gold.PLP.ligand.torsion>
0.5838

> <Gold.PLP.Chemscore.Hbond>
3.0643

> <Gold.PLP.Chemscore.CHOScore>
0.0000

> <Gold.PLP.Chemscore.Metal>
0.0000

> <Gold.Chemscore.Hbonds>
donor molecule, donor type, donor heavy atom, donor atom, acceptor molecule, acceptor atom, score
      L1  H     8    30       P1  8028  0.96
      P1  H  6933  6944       L1     7  0.80
      P1  H  6934  6946       L1     7  0.32
      P1  H  7997  8008       L1    22  1.00

> <Gold.PLP.Chemscore.Internal.Correction>
0.0306

> <Gold.Rescore>
     Score         DG    S(hbond)    S(metal)    S(lipo)     H(rot)  DE(clash)    DE(int)     intcor
     15.00     -19.47       2.12        0.00      94.80       1.63       1.10       3.37       ----

> <Gold.Chemscore.Fitness>
15.0048

> <Gold.Chemscore.DG>
-19.4735

> <Gold.Chemscore.ZeroCoef>
-5.4800

> <Gold.Chemscore.Hbond>
2.1168

> <Gold.Chemscore.Metal>
0.0000

> <Gold.Chemscore.Lipo>
94.7966

> <Gold.Chemscore.Internal_Hbond>
0.0000

> <Gold.Chemscore.DEClash>
1.1007

> <Gold.Chemscore.DEInternal>
3.3680

> <Gold.Chemscore.Rot>
1.6281

> <Gold.Chemscore.Internal.Correction>
   9.000000E+99

> <Gold.Chemscore.Hbonds>
donor molecule, donor type, donor heavy atom, donor atom, acceptor molecule, acceptor atom, score
      L1  H     8    30       P1  8028  0.24
      P1  H  6933  6944       L1     7  0.60
      P1  H  6934  6946       L1     7  0.32
      P1  H  7997  8008       L1    22  0.82

> <Gold.Chemscore.Hbond.Weighted>
-7.0701

> <Gold.Chemscore.Metal.Weighted>
-0.0000

> <Gold.Chemscore.Lipo.Weighted>
-11.0912

> <Gold.Chemscore.Internal_Hbond.Weighted>
0.0000

> <Gold.Chemscore.DEClash.Weighted>
1.1007

> <Gold.Chemscore.DEInternal.Weighted>
3.3680

> <Gold.Chemscore.Rot.Weighted>
4.1678

> <Gold.Chemscore.Internal.Correction.Weighted>
   9.000000E+99

> <Gold.Protein.RotatedTorsions>
[ 6907 6896 6895 6894 ] final -156.52 input  -60.11 | X-H torsion
[ 7974 7965 7964 7962 ] final  129.65 input  175.53 | X-H torsion
[ 8008 7997 7996 7995 ] final  -60.45 input   59.86 | X-H torsion
[ 10167 10162 10161 10158 ] final -148.55 input  -65.29 | X-H torsion
[ 10718 10713 10712 10709 ] final  -23.94 input   66.30 | X-H torsion
[ 10763 10752 10751 10750 ] final -145.20 input  -60.55 | X-H torsion
[ 11005 11000 10999 10996 ] final   39.51 input  -57.11 | X-H torsion

> <Gold.Protein.ActiveResidues>
 VAL166  LYS551  ARG553  GLY616  TRP617  ASP618  TYR619  PRO620  LYS621  CYS622 
 ASP623  PHE694  ASN695  SER759  ASP760  ASP761  ALA762  ILE779  LEU786  VAL792 
 PHE793  MET794  SER795  GLU796  ALA797  LYS798  CYS799  TRP800  GLU811  SER814 

> <Gold.Protein.RotatedAtoms>
  151.2889  133.4174  159.2631 H   0  0  0  0  0  0  0  0  0  0  0  0  # atno 6907 bound_to 6896
  151.0295  134.9529  159.8113 H   0  0  0  0  0  0  0  0  0  0  0  0  # atno 6908 bound_to 6896
  152.5342  134.2850  159.9074 H   0  0  0  0  0  0  0  0  0  0  0  0  # atno 6909 bound_to 6896
  145.0263  139.4086  143.5172 H   0  0  0  0  0  0  0  0  0  0  0  0  # atno 7974 bound_to 7965
  154.4399  140.1039  156.6276 H   0  0  0  0  0  0  0  0  0  0  0  0  # atno 8008 bound_to 7997
  155.5639  140.3488  155.4479 H   0  0  0  0  0  0  0  0  0  0  0  0  # atno 8009 bound_to 7997
  156.0439  140.1288  157.0114 H   0  0  0  0  0  0  0  0  0  0  0  0  # atno 8010 bound_to 7997
  139.7521  143.8502  152.2589 H   0  0  0  0  0  0  0  0  0  0  0  0  # atno 10167 bound_to 10162
  156.4843  130.4552  149.6793 H   0  0  0  0  0  0  0  0  0  0  0  0  # atno 10718 bound_to 10713
  154.8394  135.3419  154.6467 H   0  0  0  0  0  0  0  0  0  0  0  0  # atno 10763 bound_to 10752
  153.7079  135.6965  153.5050 H   0  0  0  0  0  0  0  0  0  0  0  0  # atno 10764 bound_to 10752
  153.2474  135.4364  155.0715 H   0  0  0  0  0  0  0  0  0  0  0  0  # atno 10765 bound_to 10752
  140.2021  134.3857  155.8091 H   0  0  0  0  0  0  0  0  0  0  0  0  # atno 11005 bound_to 11000
  146.3492  139.9789  142.8698 LP  0  0  0  0  0  0  0  0  0  0  0  0  # atno 17320 bound_to 7965
  145.1828  140.9775  143.4256 LP  0  0  0  0  0  0  0  0  0  0  0  0  # atno 17321 bound_to 7965
  139.8484  144.7176  150.9245 LP  0  0  0  0  0  0  0  0  0  0  0  0  # atno 17342 bound_to 10162
  140.7799  143.3921  151.1292 LP  0  0  0  0  0  0  0  0  0  0  0  0  # atno 17343 bound_to 10162
  156.3490  130.7422  151.2378 LP  0  0  0  0  0  0  0  0  0  0  0  0  # atno 17370 bound_to 10713
  157.7480  131.0382  150.4494 LP  0  0  0  0  0  0  0  0  0  0  0  0  # atno 17371 bound_to 10713
  141.2227  133.7099  156.8276 LP  0  0  0  0  0  0  0  0  0  0  0  0  # atno 17394 bound_to 11000
  140.2042  134.8874  157.3203 LP  0  0  0  0  0  0  0  0  0  0  0  0  # atno 17395 bound_to 11000

$$$$
