AV-unprocessed.smi:35|AV-procd|sdf|247|dock2
  -GOLD-   2262016 03D 1   1.00000     0.00000
 Structure written by MMmdl.
 29 30  0  0  0  0  0  0  0  0  1 V2000
  140.6240  135.0738  153.9215 O   0  0  0  0  0  0  0  0  0  0  0  0
  141.7639  135.4510  153.6586 C   0  0  0  0  0  0  0  0  0  0  0  0
  142.8487  134.5852  153.8195 N   0  0  0  0  0  0  0  0  0  0  0  0
  144.1820  134.8976  153.5489 C   0  0  0  0  0  0  0  0  0  0  0  0
  145.0609  134.0587  153.7433 O   0  0  0  0  0  0  0  0  0  0  0  0
  144.4600  136.1920  153.0532 N   0  0  0  0  0  0  0  0  0  0  0  0
  145.9084  136.5527  152.7686 C   0  0  2  0  0  0  0  0  0  0  0  0
  146.6040  136.6797  153.9740 O   0  0  0  0  0  0  0  0  0  0  0  0
  146.6615  138.0517  154.3516 C   0  0  1  0  0  0  0  0  0  0  0  0
  147.7332  138.2924  155.4286 C   0  0  0  0  0  0  0  0  0  0  0  0
  147.4337  137.5357  156.5822 O   0  0  0  0  0  0  0  0  0  0  0  0
  146.9049  138.7346  153.0028 C   0  0  1  0  0  0  0  0  0  0  0  0
  148.2772  138.6610  152.6493 O   0  0  0  0  0  0  0  0  0  0  0  0
  146.0088  137.9262  152.0644 C   0  0  1  0  0  0  0  0  0  0  0  0
  146.5260  137.8518  150.7483 O   0  0  0  0  0  0  0  0  0  0  0  0
  143.4129  137.0965  152.9040 C   0  0  0  0  0  0  0  0  0  0  0  0
  142.1251  136.7787  153.1757 C   0  0  0  0  0  0  0  0  0  0  0  0
  140.7819  138.2071  152.8917 Br  0  0  0  0  0  0  0  0  0  0  0  0
  142.6513  133.6573  154.1650 H   0  0  0  0  0  0  0  0  0  0  0  0
  146.3113  135.7128  152.1991 H   0  0  0  0  0  0  0  0  0  0  0  0
  145.6849  138.3705  154.7211 H   0  0  0  0  0  0  0  0  0  0  0  0
  148.7302  138.0451  155.0629 H   0  0  0  0  0  0  0  0  0  0  0  0
  147.7433  139.3430  155.7206 H   0  0  0  0  0  0  0  0  0  0  0  0
  147.9890  137.8318  157.2874 H   0  0  0  0  0  0  0  0  0  0  0  0
  146.6167  139.7862  153.0250 H   0  0  0  0  0  0  0  0  0  0  0  0
  148.4825  137.7611  152.4447 H   0  0  0  0  0  0  0  0  0  0  0  0
  145.0217  138.3904  152.0323 H   0  0  0  0  0  0  0  0  0  0  0  0
  145.8734  138.1888  150.1528 H   0  0  0  0  0  0  0  0  0  0  0  0
  143.6036  138.1025  152.5626 H   0  0  0  0  0  0  0  0  0  0  0  0
  1  2  2  0  0  0  0
  2 17  1  0  0  0  0
  2  3  1  0  0  0  0
  3 19  1  0  0  0  0
  3  4  1  0  0  0  0
  4  5  2  0  0  0  0
  4  6  1  0  0  0  0
  6  7  1  0  0  0  0
  6 16  1  0  0  0  0
  7 14  1  0  0  0  0
  7  8  1  0  0  0  0
  7 20  1  0  0  0  0
  8  9  1  0  0  0  0
  9 10  1  0  0  0  0
  9 12  1  0  0  0  0
  9 21  1  0  0  0  0
 10 11  1  0  0  0  0
 10 22  1  0  0  0  0
 10 23  1  0  0  0  0
 11 24  1  0  0  0  0
 12 13  1  0  0  0  0
 12 14  1  0  0  0  0
 12 25  1  0  0  0  0
 13 26  1  0  0  0  0
 14 15  1  0  0  0  0
 14 27  1  0  0  0  0
 15 28  1  0  0  0  0
 16 17  2  0  0  0  0
 16 29  1  0  0  0  0
 17 18  1  0  0  0  0
M  END
> <s_m_source_file>
AV-unprocessed.smi

> <i_m_source_file_index>
35

> <i_lp_mmshare_version>
43012

> <i_f3d_flags>
0

> <s_epik_input>
Tz1jMVtuSF1jKD1PKW4oW2NIXWMxQnIpW0NAQEhdMk9bQ0BASF0oW0NIMl1bT0hdKVtDQEBIXShbT0hdKVtDQEhdMltPSF0=

> <s_epik_cmdline>
J2VwaWtfcHl0aG9uJywgJy1waCcsICc3LjAnLCAnLXRuJywgJzgnLCAnLW1hJywgJzIwMCcsICctbWV0YWxfYmluZGluZycsICctaW1hZScsICc8aW5maWxlLm1hZT4nLCAnLW9tYWUnLCAnPG91dGZpbGUubWFlPic=

> <r_lp_tautomer_probability>
0.999537

> <r_epik_Ionization_Penalty>
0.10812

> <r_epik_Ionization_Penalty_Charging>
0.108119

> <r_epik_Ionization_Penalty_Neutral>
4.93006e-07

> <r_epik_State_Penalty>
0.0979238

> <r_epik_Charging_Adjusted_Penalty>
0.206043

> <i_epik_Tot_Q>
0

> <i_epik_Tot_abs_Q>
0

> <r_epik_Metal_State_Penalty>
3.07911

> <b_epik_Metal_Only>
0

> <s_epik_Chemistry_Notes>
This compound contains an acetal/aminal-like group ( X-CH(R)-Y where X, Y are N, S, or O) that may be acid/base labile, releasing an aldehyde.

> <s_lp_Force_Field>
OPLS_2005

> <r_lp_Energy>
33.4515

> <b_lp_Chiralities_Consistent>
1

> <s_lp_Variant>
AV-unprocessed.smi:35-1

> <Gold.Version>
5.8.1

> <Gold.Id.Protein>
6NUR|6NUR_protein|mol2

> <Gold.PLP.Fitness>
44.9089

> <Gold.PLP.PLP>
-26.4802

> <Gold.PLP.part.hbond>
-7.0569

> <Gold.PLP.part.metal>
0.0000

> <Gold.PLP.part.buried>
-3.5285

> <Gold.PLP.part.nonpolar>
-15.0445

> <Gold.PLP.part.repulsive>
0.3813

> <Gold.PLP.ligand.clash>
0.0000

> <Gold.PLP.ligand.torsion>
0.2094

> <Gold.PLP.Chemscore.Hbond>
4.9760

> <Gold.PLP.Chemscore.CHOScore>
1.2987

> <Gold.PLP.Chemscore.Metal>
0.0000

> <Gold.Chemscore.Hbonds>
donor molecule, donor type, donor heavy atom, donor atom, acceptor molecule, acceptor atom, score
      L1  H     3    19       P1 10957  1.00
      L1  H    13    26       P1  7948  1.00
      L1  H    15    28       P1 10171  0.94
      P1  H  7954  7966       L1    15  1.00
      P1  H 11000 11005       L1     1  1.00
      L1  C    16    29       P1 10171  0.28
      L1  C    16    29       P1 10175  1.00

> <Gold.PLP.Chemscore.Internal.Correction>
0.0234

> <Gold.Rescore>
     Score         DG    S(hbond)    S(metal)    S(lipo)     H(rot)  DE(clash)    DE(int)     intcor
     14.85     -15.79       4.81        0.00      31.15       3.67       0.00       0.95       ----

> <Gold.Chemscore.Fitness>
14.8451

> <Gold.Chemscore.DG>
-15.7947

> <Gold.Chemscore.ZeroCoef>
-5.4800

> <Gold.Chemscore.Hbond>
4.8102

> <Gold.Chemscore.Metal>
0.0000

> <Gold.Chemscore.Lipo>
31.1452

> <Gold.Chemscore.Internal_Hbond>
0.0000

> <Gold.Chemscore.DEClash>
0.0021

> <Gold.Chemscore.DEInternal>
0.9475

> <Gold.Chemscore.Rot>
3.6701

> <Gold.Chemscore.Internal.Correction>
   9.000000E+99

> <Gold.Chemscore.Hbonds>
donor molecule, donor type, donor heavy atom, donor atom, acceptor molecule, acceptor atom, score
      L1  H     3    19       P1 10957  0.97
      L1  H    13    26       P1  7948  1.00
      L1  H    15    28       P1 10171  0.84
      P1  H  7954  7966       L1    15  0.64
      P1  H 11000 11005       L1     1  0.95

> <Gold.Chemscore.Hbond.Weighted>
-16.0662

> <Gold.Chemscore.Metal.Weighted>
-0.0000

> <Gold.Chemscore.Lipo.Weighted>
-3.6440

> <Gold.Chemscore.Internal_Hbond.Weighted>
0.0000

> <Gold.Chemscore.DEClash.Weighted>
0.0021

> <Gold.Chemscore.DEInternal.Weighted>
0.9475

> <Gold.Chemscore.Rot.Weighted>
9.3955

> <Gold.Chemscore.Internal.Correction.Weighted>
   9.000000E+99

> <Gold.Protein.RotatedTorsions>
[ 6907 6896 6895 6894 ] final   57.80 input  -60.11 | X-H torsion
[ 7974 7965 7964 7962 ] final  -97.10 input  175.53 | X-H torsion
[ 8008 7997 7996 7995 ] final  102.63 input   59.86 | X-H torsion
[ 10167 10162 10161 10158 ] final  -75.24 input  -65.29 | X-H torsion
[ 10718 10713 10712 10709 ] final  -16.27 input   66.30 | X-H torsion
[ 10763 10752 10751 10750 ] final   14.50 input  -60.55 | X-H torsion
[ 11005 11000 10999 10996 ] final   37.16 input  -57.11 | X-H torsion

> <Gold.Protein.ActiveResidues>
 VAL166  LYS551  ARG553  GLY616  TRP617  ASP618  TYR619  PRO620  LYS621  CYS622 
 ASP623  PHE694  ASN695  SER759  ASP760  ASP761  ALA762  ILE779  LEU786  VAL792 
 PHE793  MET794  SER795  GLU796  ALA797  LYS798  CYS799  TRP800  GLU811  SER814 

> <Gold.Protein.RotatedAtoms>
  152.3765  134.6655  160.0157 H   0  0  0  0  0  0  0  0  0  0  0  0  # atno 6907 bound_to 6896
  151.6932  133.3305  159.3256 H   0  0  0  0  0  0  0  0  0  0  0  0  # atno 6908 bound_to 6896
  150.7714  134.6616  159.6387 H   0  0  0  0  0  0  0  0  0  0  0  0  # atno 6909 bound_to 6896
  145.3381  140.9454  143.2623 H   0  0  0  0  0  0  0  0  0  0  0  0  # atno 7974 bound_to 7965
  156.1411  140.3178  155.8497 H   0  0  0  0  0  0  0  0  0  0  0  0  # atno 8008 bound_to 7997
  155.4153  140.0508  157.3046 H   0  0  0  0  0  0  0  0  0  0  0  0  # atno 8009 bound_to 7997
  154.4977  140.2117  155.9425 H   0  0  0  0  0  0  0  0  0  0  0  0  # atno 8010 bound_to 7997
  140.4959  143.2370  151.7831 H   0  0  0  0  0  0  0  0  0  0  0  0  # atno 10167 bound_to 10162
  156.5900  130.4796  149.6283 H   0  0  0  0  0  0  0  0  0  0  0  0  # atno 10718 bound_to 10713
  153.1616  135.6797  153.8734 H   0  0  0  0  0  0  0  0  0  0  0  0  # atno 10763 bound_to 10752
  153.8128  135.3140  155.3403 H   0  0  0  0  0  0  0  0  0  0  0  0  # atno 10764 bound_to 10752
  154.7936  135.4820  154.0199 H   0  0  0  0  0  0  0  0  0  0  0  0  # atno 10765 bound_to 10752
  140.2253  134.3592  155.7987 H   0  0  0  0  0  0  0  0  0  0  0  0  # atno 11005 bound_to 11000
  144.8811  139.4902  143.6722 LP  0  0  0  0  0  0  0  0  0  0  0  0  # atno 17320 bound_to 7965
  146.3018  139.7452  142.9085 LP  0  0  0  0  0  0  0  0  0  0  0  0  # atno 17321 bound_to 7965
  139.4861  144.4587  151.9567 LP  0  0  0  0  0  0  0  0  0  0  0  0  # atno 17342 bound_to 10162
  140.3675  144.2897  150.5924 LP  0  0  0  0  0  0  0  0  0  0  0  0  # atno 17343 bound_to 10162
  156.2558  130.6934  151.1686 LP  0  0  0  0  0  0  0  0  0  0  0  0  # atno 17370 bound_to 10713
  157.7306  131.0615  150.5719 LP  0  0  0  0  0  0  0  0  0  0  0  0  # atno 17371 bound_to 10713
  141.2221  133.7216  156.8643 LP  0  0  0  0  0  0  0  0  0  0  0  0  # atno 17394 bound_to 11000
  140.1806  134.9035  157.2944 LP  0  0  0  0  0  0  0  0  0  0  0  0  # atno 17395 bound_to 11000

$$$$
