AV-unprocessed.smi:1444|AV-procd|sdf|5884|dock5
  -GOLD-   22720 5563D 1   1.00000     0.00000
 Structure written by MMmdl.
 44 45  0  0  0  0  0  0  0  0  2 V2000
  145.7801  135.5120  154.3811 C   0  0  0  0  0  0  0  0  0  0  0  0
  146.8255  134.8549  153.6729 O   0  0  0  0  0  0  0  0  0  0  0  0
  146.6209  133.5561  153.2468 C   0  0  0  0  0  0  0  0  0  0  0  0
  145.4188  132.9790  153.4955 N   0  0  0  0  0  0  0  0  0  0  0  0
  145.2159  131.7121  153.0811 C   0  0  0  0  0  0  0  0  0  0  0  0
  146.1921  130.9589  152.4043 C   0  0  0  0  0  0  0  0  0  0  0  0
  147.4402  131.5549  152.1447 C   0  0  0  0  0  0  0  0  0  0  0  0
  147.6696  132.8866  152.5723 C   0  0  0  0  0  0  0  0  0  0  0  0
  148.8838  133.6038  152.3722 N   0  0  0  0  0  0  0  0  0  0  0  0
  150.1553  133.1695  152.3808 C   0  0  0  0  0  0  0  0  0  0  0  0
  150.5210  132.0153  152.5974 O   0  0  0  0  0  0  0  0  0  0  0  0
  151.0056  134.1764  152.1312 N   0  0  0  0  0  0  0  0  0  0  0  0
  152.4612  134.0718  152.0218 C   0  0  1  0  0  0  0  0  0  0  0  0
  152.8077  132.8561  151.1515 C   0  0  0  0  0  0  0  0  0  0  0  0
  153.0801  135.3659  151.4450 C   0  0  0  0  0  0  0  0  0  0  0  0
  153.3212  136.4077  152.4751 N   0  3  0  0  0  0  0  0  0  0  0  0
  154.4742  137.2885  152.1670 C   0  0  0  0  0  0  0  0  0  0  0  0
  154.7012  138.2879  153.3133 C   0  0  0  0  0  0  0  0  0  0  0  0
  153.5159  139.0450  153.5269 O   0  0  0  0  0  0  0  0  0  0  0  0
  152.4174  138.2216  153.8997 C   0  0  0  0  0  0  0  0  0  0  0  0
  152.1172  137.2175  152.7737 C   0  0  0  0  0  0  0  0  0  0  0  0
  146.1003  136.5204  154.6422 H   0  0  0  0  0  0  0  0  0  0  0  0
  145.5378  134.9918  155.3090 H   0  0  0  0  0  0  0  0  0  0  0  0
  144.8788  135.5987  153.7727 H   0  0  0  0  0  0  0  0  0  0  0  0
  144.2468  131.2862  153.2958 H   0  0  0  0  0  0  0  0  0  0  0  0
  145.9870  129.9461  152.0904 H   0  0  0  0  0  0  0  0  0  0  0  0
  148.1831  130.9719  151.6257 H   0  0  0  0  0  0  0  0  0  0  0  0
  148.7609  134.5877  152.1804 H   0  0  0  0  0  0  0  0  0  0  0  0
  150.6100  135.0913  151.9693 H   0  0  0  0  0  0  0  0  0  0  0  0
  152.8804  133.8794  153.0103 H   0  0  0  0  0  0  0  0  0  0  0  0
  153.8871  132.7221  151.0766 H   0  0  0  0  0  0  0  0  0  0  0  0
  152.4157  132.9646  150.1395 H   0  0  0  0  0  0  0  0  0  0  0  0
  152.3930  131.9395  151.5728 H   0  0  0  0  0  0  0  0  0  0  0  0
  154.0129  135.1486  150.9223 H   0  0  0  0  0  0  0  0  0  0  0  0
  152.3968  135.7602  150.6911 H   0  0  0  0  0  0  0  0  0  0  0  0
  155.3774  136.6969  152.0202 H   0  0  0  0  0  0  0  0  0  0  0  0
  154.2889  137.8253  151.2355 H   0  0  0  0  0  0  0  0  0  0  0  0
  154.9891  137.7703  154.2300 H   0  0  0  0  0  0  0  0  0  0  0  0
  155.5149  138.9688  153.0627 H   0  0  0  0  0  0  0  0  0  0  0  0
  152.6369  137.7038  154.8347 H   0  0  0  0  0  0  0  0  0  0  0  0
  151.5478  138.8535  154.0819 H   0  0  0  0  0  0  0  0  0  0  0  0
  151.7970  137.7453  151.8739 H   0  0  0  0  0  0  0  0  0  0  0  0
  151.2963  136.5659  153.0749 H   0  0  0  0  0  0  0  0  0  0  0  0
  153.5487  135.9160  153.3280 H   0  0  0  0  0  0  0  0  0  0  0  0
  1  2  1  0  0  0  0
  1 22  1  0  0  0  0
  1 23  1  0  0  0  0
  1 24  1  0  0  0  0
  2  3  1  0  0  0  0
  3  8  1  0  0  0  0
  3  4  2  0  0  0  0
  4  5  1  0  0  0  0
  5  6  2  0  0  0  0
  5 25  1  0  0  0  0
  6  7  1  0  0  0  0
  6 26  1  0  0  0  0
  7  8  2  0  0  0  0
  7 27  1  0  0  0  0
  8  9  1  0  0  0  0
  9 10  1  0  0  0  0
  9 28  1  0  0  0  0
 10 11  2  0  0  0  0
 10 12  1  0  0  0  0
 12 13  1  0  0  0  0
 12 29  1  0  0  0  0
 13 14  1  0  0  0  0
 13 15  1  0  0  0  0
 13 30  1  0  0  0  0
 14 31  1  0  0  0  0
 14 32  1  0  0  0  0
 14 33  1  0  0  0  0
 15 16  1  0  0  0  0
 15 34  1  0  0  0  0
 15 35  1  0  0  0  0
 16 21  1  0  0  0  0
 16 17  1  0  0  0  0
 16 44  1  0  0  0  0
 17 18  1  0  0  0  0
 17 36  1  0  0  0  0
 17 37  1  0  0  0  0
 18 19  1  0  0  0  0
 18 38  1  0  0  0  0
 18 39  1  0  0  0  0
 19 20  1  0  0  0  0
 20 21  1  0  0  0  0
 20 40  1  0  0  0  0
 20 41  1  0  0  0  0
 21 42  1  0  0  0  0
 21 43  1  0  0  0  0
M  CHG  1  16   1
M  END
> <s_m_source_file>
AV-unprocessed.smi

> <i_m_source_file_index>
1444

> <i_lp_mmshare_version>
43012

> <i_f3d_flags>
0

> <s_epik_input>
W0NIM11PYzFuW2NIXVtjSF1bY0hdYzFbTkhdQyg9TylbTkhdW0NASF0oW0NIM10pW0NIMl1OMltDSDJdW0NIMl1PW0NIMl1bQ0gyXTI=

> <s_epik_cmdline>
J2VwaWtfcHl0aG9uJywgJy1waCcsICc3LjAnLCAnLXRuJywgJzgnLCAnLW1hJywgJzIwMCcsICctbWV0YWxfYmluZGluZycsICctaW1hZScsICc8aW5maWxlLm1hZT4nLCAnLW9tYWUnLCAnPG91dGZpbGUubWFlPic=

> <r_lp_tautomer_probability>
1

> <r_epik_Ionization_Penalty>
0.602604

> <r_epik_Ionization_Penalty_Charging>
0.602531

> <r_epik_Ionization_Penalty_Neutral>
7.37688e-05

> <r_epik_State_Penalty>
0.617039

> <r_epik_Charging_Adjusted_Penalty>
1.21957

> <i_epik_Tot_Q>
1

> <i_epik_Tot_abs_Q>
1

> <r_epik_Metal_State_Penalty>
0.617045

> <b_epik_Metal_Only>
0

> <s_lp_Force_Field>
OPLS_2005

> <r_lp_Energy>
24.8141

> <b_lp_Chiralities_Consistent>
1

> <s_lp_Variant>
AV-unprocessed.smi:1444-4

> <Gold.Version>
5.8.1

> <Gold.Id.Protein>
6NUR|6NUR_protein|mol2

> <Gold.PLP.Fitness>
40.0415

> <Gold.PLP.PLP>
-33.6428

> <Gold.PLP.part.hbond>
-3.0000

> <Gold.PLP.part.metal>
0.0000

> <Gold.PLP.part.buried>
-3.6929

> <Gold.PLP.part.nonpolar>
-27.4646

> <Gold.PLP.part.repulsive>
0.4950

> <Gold.PLP.ligand.clash>
0.0000

> <Gold.PLP.ligand.torsion>
0.9981

> <Gold.PLP.Chemscore.Hbond>
2.7680

> <Gold.PLP.Chemscore.CHOScore>
0.0000

> <Gold.PLP.Chemscore.Metal>
0.0000

> <Gold.Chemscore.Hbonds>
donor molecule, donor type, donor heavy atom, donor atom, acceptor molecule, acceptor atom, score
      L1  H     9    28       P1  7948  0.15

> <Gold.PLP.Chemscore.Internal.Correction>
0.0910

> <Gold.Rescore>
     Score         DG    S(hbond)    S(metal)    S(lipo)     H(rot)  DE(clash)    DE(int)     intcor
     15.12     -17.67       2.35        0.00      76.14       1.78       0.11       2.44       ----

> <Gold.Chemscore.Fitness>
15.1207

> <Gold.Chemscore.DG>
-17.6714

> <Gold.Chemscore.ZeroCoef>
-5.4800

> <Gold.Chemscore.Hbond>
2.3474

> <Gold.Chemscore.Metal>
0.0000

> <Gold.Chemscore.Lipo>
76.1370

> <Gold.Chemscore.Internal_Hbond>
0.0000

> <Gold.Chemscore.DEClash>
0.1100

> <Gold.Chemscore.DEInternal>
2.4406

> <Gold.Chemscore.Rot>
1.7801

> <Gold.Chemscore.Internal.Correction>
   9.000000E+99

> <Gold.Chemscore.Hbond.Weighted>
-7.8403

> <Gold.Chemscore.Metal.Weighted>
-0.0000

> <Gold.Chemscore.Lipo.Weighted>
-8.9080

> <Gold.Chemscore.Internal_Hbond.Weighted>
0.0000

> <Gold.Chemscore.DEClash.Weighted>
0.1100

> <Gold.Chemscore.DEInternal.Weighted>
2.4406

> <Gold.Chemscore.Rot.Weighted>
4.5570

> <Gold.Chemscore.Internal.Correction.Weighted>
   9.000000E+99

> <Gold.Protein.RotatedTorsions>
[ 6907 6896 6895 6894 ] final   32.37 input  -60.11 | X-H torsion
[ 7974 7965 7964 7962 ] final   37.80 input  175.53 | X-H torsion
[ 8008 7997 7996 7995 ] final   57.49 input   59.86 | X-H torsion
[ 10167 10162 10161 10158 ] final   96.48 input  -65.29 | X-H torsion
[ 10718 10713 10712 10709 ] final  101.65 input   66.30 | X-H torsion
[ 10763 10752 10751 10750 ] final  109.38 input  -60.55 | X-H torsion
[ 11005 11000 10999 10996 ] final  137.09 input  -57.11 | X-H torsion

> <Gold.Protein.ActiveResidues>
 VAL166  LYS551  ARG553  GLY616  TRP617  ASP618  TYR619  PRO620  LYS621  CYS622 
 ASP623  PHE694  ASN695  SER759  ASP760  ASP761  ALA762  ILE779  LEU786  VAL792 
 PHE793  MET794  SER795  GLU796  ALA797  LYS798  CYS799  TRP800  GLU811  SER814 

> <Gold.Protein.RotatedAtoms>
  152.0735  134.9518  160.0574 H   0  0  0  0  0  0  0  0  0  0  0  0  # atno 6907 bound_to 6896
  152.0834  133.4159  159.4519 H   0  0  0  0  0  0  0  0  0  0  0  0  # atno 6908 bound_to 6896
  150.6836  134.2875  159.4696 H   0  0  0  0  0  0  0  0  0  0  0  0  # atno 6909 bound_to 6896
  146.1110  139.5850  142.9352 H   0  0  0  0  0  0  0  0  0  0  0  0  # atno 7974 bound_to 7965
  155.5345  140.3483  155.4433 H   0  0  0  0  0  0  0  0  0  0  0  0  # atno 8008 bound_to 7997
  156.0695  140.1359  156.9873 H   0  0  0  0  0  0  0  0  0  0  0  0  # atno 8009 bound_to 7997
  154.4520  140.0968  156.6622 H   0  0  0  0  0  0  0  0  0  0  0  0  # atno 8010 bound_to 7997
  139.7890  144.6859  150.9918 H   0  0  0  0  0  0  0  0  0  0  0  0  # atno 10167 bound_to 10162
  157.6824  131.0732  150.5284 H   0  0  0  0  0  0  0  0  0  0  0  0  # atno 10718 bound_to 10713
  153.4339  135.3782  155.2187 H   0  0  0  0  0  0  0  0  0  0  0  0  # atno 10763 bound_to 10752
  154.8751  135.3846  154.4234 H   0  0  0  0  0  0  0  0  0  0  0  0  # atno 10764 bound_to 10752
  153.4771  135.7088  153.6023 H   0  0  0  0  0  0  0  0  0  0  0  0  # atno 10765 bound_to 10752
  140.0090  134.9447  157.0237 H   0  0  0  0  0  0  0  0  0  0  0  0  # atno 11005 bound_to 11000
  145.5663  141.0399  143.2198 LP  0  0  0  0  0  0  0  0  0  0  0  0  # atno 17320 bound_to 7965
  144.7511  139.7190  143.7272 LP  0  0  0  0  0  0  0  0  0  0  0  0  # atno 17321 bound_to 7965
  140.7820  143.4401  151.0565 LP  0  0  0  0  0  0  0  0  0  0  0  0  # atno 17342 bound_to 10162
  139.8078  143.7993  152.3169 LP  0  0  0  0  0  0  0  0  0  0  0  0  # atno 17343 bound_to 10162
  156.5595  130.4252  149.6070 LP  0  0  0  0  0  0  0  0  0  0  0  0  # atno 17370 bound_to 10713
  156.2833  130.7083  151.1913 LP  0  0  0  0  0  0  0  0  0  0  0  0  # atno 17371 bound_to 10713
  140.4588  134.1505  155.7189 LP  0  0  0  0  0  0  0  0  0  0  0  0  # atno 17394 bound_to 11000
  141.1698  133.8632  157.1606 LP  0  0  0  0  0  0  0  0  0  0  0  0  # atno 17395 bound_to 11000

$$$$
