AV-unprocessed.smi:2061|AV-procd|sdf|8390|dock10
  -GOLD-   2272011 73D 1   1.00000     0.00000
 Structure written by MMmdl.
 45 46  0  0  0  0  0  0  0  0  3 V2000
  152.0548  144.6603  159.8911 C   0  0  0  0  0  0  0  0  0  0  0  0
  151.6619  143.4399  159.1318 C   0  0  0  0  0  0  0  0  0  0  0  0
  151.3710  143.2171  157.8155 C   0  0  0  0  0  0  0  0  0  0  0  0
  151.0777  141.8277  157.7818 C   0  0  0  0  0  0  0  0  0  0  0  0
  150.7249  141.1924  156.5620 N   0  0  0  0  0  0  0  0  0  0  0  0
  151.4015  140.2550  155.8735 C   0  0  0  0  0  0  0  0  0  0  0  0
  152.4704  139.8109  156.3088 O   0  0  0  0  0  0  0  0  0  0  0  0
  150.7671  139.9061  154.7209 N   0  5  0  0  0  0  0  0  0  0  0  0
  150.8028  138.5721  154.1218 C   0  0  0  0  0  0  0  0  0  0  0  0
  150.7927  137.4803  155.2244 C   0  0  2  0  0  0  0  0  0  0  0  0
  150.7135  136.0296  154.6853 C   0  0  0  0  0  0  0  0  0  0  0  0
  149.7407  137.7798  156.2446 N   0  3  1  0  0  0  0  0  0  0  0  0
  148.3342  137.8325  155.7583 C   0  0  0  0  0  0  0  0  0  0  0  0
  147.3968  138.3438  156.8677 C   0  0  2  0  0  0  0  0  0  0  0  0
  147.5489  139.8483  157.1542 C   0  0  0  0  0  0  0  0  0  0  0  0
  147.5522  137.5467  158.0427 O   0  0  0  0  0  0  0  0  0  0  0  0
  148.8835  137.4726  158.5487 C   0  0  1  0  0  0  0  0  0  0  0  0
  148.8671  136.5738  159.7901 C   0  0  0  0  0  0  0  0  0  0  0  0
  149.8263  136.9324  157.4581 C   0  0  0  0  0  0  0  0  0  0  0  0
  151.1826  141.2547  158.9718 N   0  0  0  0  0  0  0  0  0  0  0  0
  151.5575  142.2846  159.8426 O   0  0  0  0  0  0  0  0  0  0  0  0
  151.9411  145.5540  159.2774 H   0  0  0  0  0  0  0  0  0  0  0  0
  153.0956  144.5982  160.2094 H   0  0  0  0  0  0  0  0  0  0  0  0
  151.4343  144.7797  160.7795 H   0  0  0  0  0  0  0  0  0  0  0  0
  151.3686  143.9336  157.0076 H   0  0  0  0  0  0  0  0  0  0  0  0
  149.8521  141.4903  156.1527 H   0  0  0  0  0  0  0  0  0  0  0  0
  149.9445  138.4029  153.4693 H   0  0  0  0  0  0  0  0  0  0  0  0
  151.6805  138.4363  153.4895 H   0  0  0  0  0  0  0  0  0  0  0  0
  151.7533  137.5720  155.7344 H   0  0  0  0  0  0  0  0  0  0  0  0
  151.5738  135.7814  154.0610 H   0  0  0  0  0  0  0  0  0  0  0  0
  149.8183  135.8486  154.0880 H   0  0  0  0  0  0  0  0  0  0  0  0
  150.7101  135.3113  155.5054 H   0  0  0  0  0  0  0  0  0  0  0  0
  148.2469  138.4713  154.8788 H   0  0  0  0  0  0  0  0  0  0  0  0
  148.0131  136.8346  155.4569 H   0  0  0  0  0  0  0  0  0  0  0  0
  146.3709  138.1890  156.5326 H   0  0  0  0  0  0  0  0  0  0  0  0
  147.2988  140.4359  156.2705 H   0  0  0  0  0  0  0  0  0  0  0  0
  148.5656  140.1161  157.4409 H   0  0  0  0  0  0  0  0  0  0  0  0
  146.8809  140.1607  157.9570 H   0  0  0  0  0  0  0  0  0  0  0  0
  149.2136  138.4651  158.8563 H   0  0  0  0  0  0  0  0  0  0  0  0
  149.8627  136.4876  160.2261 H   0  0  0  0  0  0  0  0  0  0  0  0
  148.5202  135.5692  159.5462 H   0  0  0  0  0  0  0  0  0  0  0  0
  148.2042  136.9784  160.5551 H   0  0  0  0  0  0  0  0  0  0  0  0
  149.5723  135.9019  157.2054 H   0  0  0  0  0  0  0  0  0  0  0  0
  150.8478  136.9273  157.8409 H   0  0  0  0  0  0  0  0  0  0  0  0
  149.9610  138.7137  156.5608 H   0  0  0  0  0  0  0  0  0  0  0  0
  1  2  1  0  0  0  0
  1 22  1  0  0  0  0
  1 23  1  0  0  0  0
  1 24  1  0  0  0  0
  2 21  1  0  0  0  0
  2  3  2  0  0  0  0
  3  4  1  0  0  0  0
  3 25  1  0  0  0  0
  4  5  1  0  0  0  0
  4 20  2  0  0  0  0
  5  6  1  0  0  0  0
  5 26  1  0  0  0  0
  6  7  2  0  0  0  0
  6  8  1  0  0  0  0
  8  9  1  0  0  0  0
  9 10  1  0  0  0  0
  9 27  1  0  0  0  0
  9 28  1  0  0  0  0
 10 11  1  0  0  0  0
 10 12  1  0  0  0  0
 10 29  1  0  0  0  0
 11 30  1  0  0  0  0
 11 31  1  0  0  0  0
 11 32  1  0  0  0  0
 12 19  1  0  0  0  0
 12 13  1  0  0  0  0
 12 45  1  0  0  0  0
 13 14  1  0  0  0  0
 13 33  1  0  0  0  0
 13 34  1  0  0  0  0
 14 15  1  0  0  0  0
 14 16  1  0  0  0  0
 14 35  1  0  0  0  0
 15 36  1  0  0  0  0
 15 37  1  0  0  0  0
 15 38  1  0  0  0  0
 16 17  1  0  0  0  0
 17 18  1  0  0  0  0
 17 19  1  0  0  0  0
 17 39  1  0  0  0  0
 18 40  1  0  0  0  0
 18 41  1  0  0  0  0
 18 42  1  0  0  0  0
 19 43  1  0  0  0  0
 19 44  1  0  0  0  0
 20 21  1  0  0  0  0
M  CHG  1   8  -1
M  CHG  1  12   1
M  END
> <s_m_source_file>
AV-unprocessed.smi

> <i_m_source_file_index>
2061

> <i_lp_mmshare_version>
43012

> <i_f3d_flags>
0

> <s_epik_input>
W0NIM11jMVtjSF1jKG5vMSlbTkhdQyg9TylbTkhdW0NIMl1bQ0BIXShbQ0gzXSlOMltDSDJdW0NAQEhdKFtDSDNdKU9bQ0BASF0oW0NIM10pW0NIMl0y

> <s_epik_cmdline>
J2VwaWtfcHl0aG9uJywgJy1waCcsICc3LjAnLCAnLXRuJywgJzgnLCAnLW1hJywgJzIwMCcsICctbWV0YWxfYmluZGluZycsICctaW1hZScsICc8aW5maWxlLm1hZT4nLCAnLW9tYWUnLCAnPG91dGZpbGUubWFlPic=

> <r_epik_Ionization_Penalty>
6.8073

> <r_epik_Ionization_Penalty_Charging>
6.80729

> <r_epik_Ionization_Penalty_Neutral>
5.65391e-06

> <r_epik_State_Penalty>
7.47323

> <r_epik_Charging_Adjusted_Penalty>
14.2805

> <i_epik_Tot_Q>
0

> <i_epik_Tot_abs_Q>
2

> <r_epik_Metal_State_Penalty>
3.40035

> <b_epik_Metal_Only>
1

> <s_lp_Force_Field>
OPLS_2005

> <r_lp_Energy>
19.801

> <b_lp_Chiralities_Consistent>
1

> <s_lp_Variant>
AV-unprocessed.smi:2061-31

> <Gold.Version>
5.8.1

> <Gold.Id.Protein>
6NUR|6NUR_protein|mol2

> <Gold.PLP.Fitness>
35.1485

> <Gold.PLP.PLP>
-31.1952

> <Gold.PLP.part.hbond>
-2.2949

> <Gold.PLP.part.metal>
0.0000

> <Gold.PLP.part.buried>
-5.0368

> <Gold.PLP.part.nonpolar>
-22.6920

> <Gold.PLP.part.repulsive>
0.1476

> <Gold.PLP.ligand.clash>
0.0000

> <Gold.PLP.ligand.torsion>
1.1023

> <Gold.PLP.Chemscore.Hbond>
2.0000

> <Gold.PLP.Chemscore.CHOScore>
0.0000

> <Gold.PLP.Chemscore.Metal>
0.0000

> <Gold.Chemscore.Hbonds>
donor molecule, donor type, donor heavy atom, donor atom, acceptor molecule, acceptor atom, score
      P1  H  7989  7998       L1     8  1.00
      P1  H  7997  8009       L1     7  1.00

> <Gold.PLP.Chemscore.Internal.Correction>
0.1578

> <Gold.Rescore>
     Score         DG    S(hbond)    S(metal)    S(lipo)     H(rot)  DE(clash)    DE(int)     intcor
     12.30     -14.57       1.57        0.00      66.83       1.56       0.10       2.18       ----

> <Gold.Chemscore.Fitness>
12.2966

> <Gold.Chemscore.DG>
-14.5749

> <Gold.Chemscore.ZeroCoef>
-5.4800

> <Gold.Chemscore.Hbond>
1.5739

> <Gold.Chemscore.Metal>
0.0000

> <Gold.Chemscore.Lipo>
66.8295

> <Gold.Chemscore.Internal_Hbond>
0.0000

> <Gold.Chemscore.DEClash>
0.1007

> <Gold.Chemscore.DEInternal>
2.1776

> <Gold.Chemscore.Rot>
1.5550

> <Gold.Chemscore.Internal.Correction>
   9.000000E+99

> <Gold.Chemscore.Hbonds>
donor molecule, donor type, donor heavy atom, donor atom, acceptor molecule, acceptor atom, score
      P1  H  7989  7998       L1     8  0.12
      P1  H  7997  8009       L1     7  1.00

> <Gold.Chemscore.Hbond.Weighted>
-5.2567

> <Gold.Chemscore.Metal.Weighted>
-0.0000

> <Gold.Chemscore.Lipo.Weighted>
-7.8191

> <Gold.Chemscore.Internal_Hbond.Weighted>
0.0000

> <Gold.Chemscore.DEClash.Weighted>
0.1007

> <Gold.Chemscore.DEInternal.Weighted>
2.1776

> <Gold.Chemscore.Rot.Weighted>
3.9809

> <Gold.Chemscore.Internal.Correction.Weighted>
   9.000000E+99

> <Gold.Protein.RotatedTorsions>
[ 6907 6896 6895 6894 ] final   57.02 input  -60.11 | X-H torsion
[ 7974 7965 7964 7962 ] final   56.79 input  175.53 | X-H torsion
[ 8008 7997 7996 7995 ] final -155.03 input   59.86 | X-H torsion
[ 10167 10162 10161 10158 ] final   58.50 input  -65.29 | X-H torsion
[ 10718 10713 10712 10709 ] final  138.06 input   66.30 | X-H torsion
[ 10763 10752 10751 10750 ] final   21.73 input  -60.55 | X-H torsion
[ 11005 11000 10999 10996 ] final  171.26 input  -57.11 | X-H torsion

> <Gold.Protein.ActiveResidues>
 VAL166  LYS551  ARG553  GLY616  TRP617  ASP618  TYR619  PRO620  LYS621  CYS622 
 ASP623  PHE694  ASN695  SER759  ASP760  ASP761  ALA762  ILE779  LEU786  VAL792 
 PHE793  MET794  SER795  GLU796  ALA797  LYS798  CYS799  TRP800  GLU811  SER814 

> <Gold.Protein.RotatedAtoms>
  152.3692  134.6759  160.0181 H   0  0  0  0  0  0  0  0  0  0  0  0  # atno 6907 bound_to 6896
  151.7058  133.3306  159.3286 H   0  0  0  0  0  0  0  0  0  0  0  0  # atno 6908 bound_to 6896
  150.7661  134.6511  159.6333 H   0  0  0  0  0  0  0  0  0  0  0  0  # atno 6909 bound_to 6896
  145.9360  139.3848  143.0392 H   0  0  0  0  0  0  0  0  0  0  0  0  # atno 7974 bound_to 7965
  155.6955  140.0760  157.2431 H   0  0  0  0  0  0  0  0  0  0  0  0  # atno 8008 bound_to 7997
  154.4081  140.1657  156.2186 H   0  0  0  0  0  0  0  0  0  0  0  0  # atno 8009 bound_to 7997
  155.9414  140.3384  155.6334 H   0  0  0  0  0  0  0  0  0  0  0  0  # atno 8010 bound_to 7997
  140.1865  144.4129  150.6591 H   0  0  0  0  0  0  0  0  0  0  0  0  # atno 10167 bound_to 10162
  157.4293  131.1047  151.0267 H   0  0  0  0  0  0  0  0  0  0  0  0  # atno 10718 bound_to 10713
  153.0971  135.6663  153.9742 H   0  0  0  0  0  0  0  0  0  0  0  0  # atno 10763 bound_to 10752
  153.9323  135.3003  155.3446 H   0  0  0  0  0  0  0  0  0  0  0  0  # atno 10764 bound_to 10752
  154.7390  135.5088  153.9165 H   0  0  0  0  0  0  0  0  0  0  0  0  # atno 10765 bound_to 10752
  140.3171  134.7468  157.4035 H   0  0  0  0  0  0  0  0  0  0  0  0  # atno 11005 bound_to 11000
  145.8363  140.9604  143.0823 LP  0  0  0  0  0  0  0  0  0  0  0  0  # atno 17320 bound_to 7965
  144.6772  140.0226  143.7483 LP  0  0  0  0  0  0  0  0  0  0  0  0  # atno 17321 bound_to 7965
  140.6484  143.2219  151.6132 LP  0  0  0  0  0  0  0  0  0  0  0  0  # atno 17342 bound_to 10162
  139.5274  144.3019  152.1066 LP  0  0  0  0  0  0  0  0  0  0  0  0  # atno 17343 bound_to 10162
  157.1169  130.6045  149.5495 LP  0  0  0  0  0  0  0  0  0  0  0  0  # atno 17370 bound_to 10713
  155.9908  130.4960  150.7271 LP  0  0  0  0  0  0  0  0  0  0  0  0  # atno 17371 bound_to 10713
  140.0974  134.5518  155.8385 LP  0  0  0  0  0  0  0  0  0  0  0  0  # atno 17394 bound_to 11000
  141.2095  133.6684  156.6444 LP  0  0  0  0  0  0  0  0  0  0  0  0  # atno 17395 bound_to 11000

$$$$
