AV-unprocessed.smi:3065|AV-procd|sdf|11691|dock1
  -GOLD-   2272017 93D 1   1.00000     0.00000
 Structure written by MMmdl.
 24 25  0  0  0  0  0  0  0  0  2 V2000
  151.0584  139.4787  155.3119 C   0  0  0  0  0  0  0  0  0  0  0  0
  150.4175  140.5072  154.6812 N   0  0  0  0  0  0  0  0  0  0  0  0
  150.3787  141.3861  155.6726 C   0  0  0  0  0  0  0  0  0  0  0  0
  150.9547  140.9571  156.7970 N   0  0  0  0  0  0  0  0  0  0  0  0
  151.0862  141.6028  158.0919 C   0  0  0  0  0  0  0  0  0  0  0  0
  151.5203  143.0785  157.9933 C   0  0  2  0  0  0  0  0  0  0  0  0
  152.4432  143.5239  159.1301 C   0  0  0  0  0  0  0  0  0  0  0  0
  152.2500  145.0356  159.1496 C   0  0  0  0  0  0  0  0  0  0  0  0
  150.7689  145.2093  158.8044 C   0  0  0  0  0  0  0  0  0  0  0  0
  150.3741  144.0103  158.0373 N   0  3  0  0  0  0  0  0  0  0  0  0
  151.3953  139.6943  156.5839 N   0  0  0  0  0  0  0  0  0  0  0  0
  151.2811  138.5431  154.8201 H   0  0  0  0  0  0  0  0  0  0  0  0
  149.9222  142.3604  155.5755 H   0  0  0  0  0  0  0  0  0  0  0  0
  150.1330  141.5223  158.6167 H   0  0  0  0  0  0  0  0  0  0  0  0
  151.8143  141.0383  158.6759 H   0  0  0  0  0  0  0  0  0  0  0  0
  152.0416  143.2534  157.0507 H   0  0  0  0  0  0  0  0  0  0  0  0
  152.1145  143.0987  160.0799 H   0  0  0  0  0  0  0  0  0  0  0  0
  153.4818  143.2314  158.9713 H   0  0  0  0  0  0  0  0  0  0  0  0
  152.5180  145.4862  160.1057 H   0  0  0  0  0  0  0  0  0  0  0  0
  152.8678  145.4958  158.3770 H   0  0  0  0  0  0  0  0  0  0  0  0
  150.1682  145.2485  159.7137 H   0  0  0  0  0  0  0  0  0  0  0  0
  150.5828  146.1221  158.2382 H   0  0  0  0  0  0  0  0  0  0  0  0
  150.0977  144.2591  157.0980 H   0  0  0  0  0  0  0  0  0  0  0  0
  149.5999  143.5674  158.5111 H   0  0  0  0  0  0  0  0  0  0  0  0
  1 11  2  0  0  0  0
  1  2  1  0  0  0  0
  1 12  1  0  0  0  0
  2  3  2  0  0  0  0
  3  4  1  0  0  0  0
  3 13  1  0  0  0  0
  4  5  1  0  0  0  0
  4 11  1  0  0  0  0
  5  6  1  0  0  0  0
  5 14  1  0  0  0  0
  5 15  1  0  0  0  0
  6 10  1  0  0  0  0
  6  7  1  0  0  0  0
  6 16  1  0  0  0  0
  7  8  1  0  0  0  0
  7 17  1  0  0  0  0
  7 18  1  0  0  0  0
  8  9  1  0  0  0  0
  8 19  1  0  0  0  0
  8 20  1  0  0  0  0
  9 10  1  0  0  0  0
  9 21  1  0  0  0  0
  9 22  1  0  0  0  0
 10 23  1  0  0  0  0
 10 24  1  0  0  0  0
M  CHG  1  10   1
M  END
> <s_m_source_file>
AV-unprocessed.smi

> <i_m_source_file_index>
3065

> <i_lp_mmshare_version>
43012

> <i_f3d_flags>
0

> <s_epik_input>
bjFbY0hdbltjSF1uMVtDSDJdW0NAQEhdMltDSDJdW0NIMl1bQ0gyXVtOSF0y

> <s_epik_cmdline>
J2VwaWtfcHl0aG9uJywgJy1waCcsICc3LjAnLCAnLXRuJywgJzgnLCAnLW1hJywgJzIwMCcsICctbWV0YWxfYmluZGluZycsICctaW1hZScsICc8aW5maWxlLm1hZT4nLCAnLW9tYWUnLCAnPG91dGZpbGUubWFlPic=

> <r_lp_tautomer_probability>
1

> <r_epik_Ionization_Penalty>
0.000581652

> <r_epik_Ionization_Penalty_Charging>
0.000580891

> <r_epik_Ionization_Penalty_Neutral>
7.60238e-07

> <r_epik_State_Penalty>
0.000365066

> <r_epik_Charging_Adjusted_Penalty>
0.000945958

> <i_epik_Tot_Q>
1

> <i_epik_Tot_abs_Q>
1

> <r_epik_Metal_State_Penalty>
-0

> <b_epik_Metal_Only>
0

> <s_lp_Force_Field>
OPLS_2005

> <r_lp_Energy>
27.3855

> <b_lp_Chiralities_Consistent>
1

> <s_lp_Variant>
AV-unprocessed.smi:3065-1

> <Gold.Version>
5.8.1

> <Gold.Id.Protein>
6NUR|6NUR_protein|mol2

> <Gold.PLP.Fitness>
37.3706

> <Gold.PLP.PLP>
-27.2194

> <Gold.PLP.part.hbond>
-2.3518

> <Gold.PLP.part.metal>
0.0000

> <Gold.PLP.part.buried>
-3.3894

> <Gold.PLP.part.nonpolar>
-21.6811

> <Gold.PLP.part.repulsive>
0.1396

> <Gold.PLP.ligand.clash>
0.0000

> <Gold.PLP.ligand.torsion>
0.7024

> <Gold.PLP.Chemscore.Hbond>
3.0000

> <Gold.PLP.Chemscore.CHOScore>
0.8501

> <Gold.PLP.Chemscore.Metal>
0.0000

> <Gold.Chemscore.Hbonds>
donor molecule, donor type, donor heavy atom, donor atom, acceptor molecule, acceptor atom, score
      L1  H    10    23       P1  8028  2.00
      P1  H  7989  7998       L1     2  0.94
      L1  C     3    13       P1  8028  0.89

> <Gold.PLP.Chemscore.Internal.Correction>
0.0058

> <Gold.Rescore>
     Score         DG    S(hbond)    S(metal)    S(lipo)     H(rot)  DE(clash)    DE(int)     intcor
     13.04     -13.83       1.70        0.00      56.29       1.52       0.06       0.74       ----

> <Gold.Chemscore.Fitness>
13.0394

> <Gold.Chemscore.DG>
-13.8349

> <Gold.Chemscore.ZeroCoef>
-5.4800

> <Gold.Chemscore.Hbond>
1.6966

> <Gold.Chemscore.Metal>
0.0000

> <Gold.Chemscore.Lipo>
56.2924

> <Gold.Chemscore.Internal_Hbond>
0.0000

> <Gold.Chemscore.DEClash>
0.0578

> <Gold.Chemscore.DEInternal>
0.7377

> <Gold.Chemscore.Rot>
1.5227

> <Gold.Chemscore.Internal.Correction>
   9.000000E+99

> <Gold.Chemscore.Hbonds>
donor molecule, donor type, donor heavy atom, donor atom, acceptor molecule, acceptor atom, score
      L1  H    10    23       P1  8028  0.77
      P1  H  7989  7998       L1     2  0.17

> <Gold.Chemscore.Hbond.Weighted>
-5.6668

> <Gold.Chemscore.Metal.Weighted>
-0.0000

> <Gold.Chemscore.Lipo.Weighted>
-6.5862

> <Gold.Chemscore.Internal_Hbond.Weighted>
0.0000

> <Gold.Chemscore.DEClash.Weighted>
0.0578

> <Gold.Chemscore.DEInternal.Weighted>
0.7377

> <Gold.Chemscore.Rot.Weighted>
3.8981

> <Gold.Chemscore.Internal.Correction.Weighted>
   9.000000E+99

> <Gold.Protein.RotatedTorsions>
[ 6907 6896 6895 6894 ] final  -78.84 input  -60.11 | X-H torsion
[ 7974 7965 7964 7962 ] final  129.63 input  175.53 | X-H torsion
[ 8008 7997 7996 7995 ] final  132.00 input   59.86 | X-H torsion
[ 10167 10162 10161 10158 ] final  117.57 input  -65.29 | X-H torsion
[ 10718 10713 10712 10709 ] final   87.47 input   66.30 | X-H torsion
[ 10763 10752 10751 10750 ] final  -24.39 input  -60.55 | X-H torsion
[ 11005 11000 10999 10996 ] final  -32.58 input  -57.11 | X-H torsion

> <Gold.Protein.ActiveResidues>
 VAL166  LYS551  ARG553  GLY616  TRP617  ASP618  TYR619  PRO620  LYS621  CYS622 
 ASP623  PHE694  ASN695  SER759  ASP760  ASP761  ALA762  ILE779  LEU786  VAL792 
 PHE793  MET794  SER795  GLU796  ALA797  LYS798  CYS799  TRP800  GLU811  SER814 

> <Gold.Protein.RotatedAtoms>
  150.6963  134.4211  159.5205 H   0  0  0  0  0  0  0  0  0  0  0  0  # atno 6907 bound_to 6896
  152.1954  134.8633  160.0522 H   0  0  0  0  0  0  0  0  0  0  0  0  # atno 6908 bound_to 6896
  151.9573  133.3649  159.4059 H   0  0  0  0  0  0  0  0  0  0  0  0  # atno 6909 bound_to 6896
  145.0266  139.4083  143.5171 H   0  0  0  0  0  0  0  0  0  0  0  0  # atno 7974 bound_to 7965
  156.2977  140.2557  156.3017 H   0  0  0  0  0  0  0  0  0  0  0  0  # atno 8008 bound_to 7997
  154.9411  140.0396  157.2116 H   0  0  0  0  0  0  0  0  0  0  0  0  # atno 8009 bound_to 7997
  154.8126  140.2847  155.5847 H   0  0  0  0  0  0  0  0  0  0  0  0  # atno 8010 bound_to 7997
  139.6169  144.7094  151.2718 H   0  0  0  0  0  0  0  0  0  0  0  0  # atno 10167 bound_to 10162
  157.6940  131.0257  150.3128 H   0  0  0  0  0  0  0  0  0  0  0  0  # atno 10718 bound_to 10713
  153.6831  135.6966  153.5112 H   0  0  0  0  0  0  0  0  0  0  0  0  # atno 10763 bound_to 10752
  153.2470  135.4287  155.0757 H   0  0  0  0  0  0  0  0  0  0  0  0  # atno 10764 bound_to 10752
  154.8394  135.3522  154.6374 H   0  0  0  0  0  0  0  0  0  0  0  0  # atno 10765 bound_to 10752
  140.9564  133.7190  156.1300 H   0  0  0  0  0  0  0  0  0  0  0  0  # atno 11005 bound_to 11000
  146.3493  139.9793  142.8697 LP  0  0  0  0  0  0  0  0  0  0  0  0  # atno 17320 bound_to 7965
  145.1825  140.9774  143.4258 LP  0  0  0  0  0  0  0  0  0  0  0  0  # atno 17321 bound_to 7965
  140.7357  143.6729  150.8066 LP  0  0  0  0  0  0  0  0  0  0  0  0  # atno 17342 bound_to 10162
  140.0333  143.5421  152.2750 LP  0  0  0  0  0  0  0  0  0  0  0  0  # atno 17343 bound_to 10162
  156.3627  130.3850  149.7238 LP  0  0  0  0  0  0  0  0  0  0  0  0  # atno 17370 bound_to 10713
  156.4679  130.7983  151.3001 LP  0  0  0  0  0  0  0  0  0  0  0  0  # atno 17371 bound_to 10713
  140.7530  134.4024  157.5538 LP  0  0  0  0  0  0  0  0  0  0  0  0  # atno 17394 bound_to 11000
  139.8863  134.8912  156.2590 LP  0  0  0  0  0  0  0  0  0  0  0  0  # atno 17395 bound_to 11000

$$$$
