AV-unprocessed.smi:101|AV-procd|sdf|937|dock10
  -GOLD-   2262017453D 1   1.00000     0.00000
 Structure written by MMmdl.
 43 45  0  0  0  0  0  0  0  0  2 V2000
  148.7067  136.8720  159.2209 C   0  0  0  0  0  0  0  0  0  0  0  0
  149.4007  136.9200  157.8708 C   0  0  0  0  0  0  0  0  0  0  0  0
  149.4928  138.0588  157.1487 C   0  0  0  0  0  0  0  0  0  0  0  0
  150.1303  138.1005  155.9194 N   0  0  0  0  0  0  0  0  0  0  0  0
  150.2478  139.3888  155.1222 C   0  0  2  0  0  0  0  0  0  0  0  0
  150.6739  140.4225  155.9610 O   0  0  0  0  0  0  0  0  0  0  0  0
  149.5776  141.2772  156.2638 C   0  0  1  0  0  0  0  0  0  0  0  0
  150.0631  142.6390  156.7772 C   0  0  0  0  0  0  0  0  0  0  0  0
  151.1641  142.4187  157.6428 O   0  0  0  0  0  0  0  0  0  0  0  0
  151.5317  143.3592  158.5320 C   0  0  0  0  0  0  0  0  0  0  0  0
  151.2107  144.5461  158.4439 O   0  0  0  0  0  0  0  0  0  0  0  0
  152.3717  142.8104  159.6357 C   0  0  0  0  0  0  0  0  0  0  0  0
  152.5504  143.5697  160.8156 C   0  0  0  0  0  0  0  0  0  0  0  0
  153.3387  143.0765  161.8736 C   0  0  0  0  0  0  0  0  0  0  0  0
  153.9571  141.8174  161.7650 C   0  0  0  0  0  0  0  0  0  0  0  0
  153.7875  141.0521  160.5965 C   0  0  0  0  0  0  0  0  0  0  0  0
  153.0006  141.5441  159.5369 C   0  0  0  0  0  0  0  0  0  0  0  0
  148.7900  141.2910  154.9522 C   0  0  1  0  0  0  0  0  0  0  0  0
  149.3848  142.1748  154.0196 O   0  0  0  0  0  0  0  0  0  0  0  0
  148.9106  139.8460  154.4809 C   0  0  2  0  0  0  0  0  0  0  0  0
  147.7801  139.1134  154.9210 O   0  0  0  0  0  0  0  0  0  0  0  0
  150.7190  136.9193  155.3973 C   0  0  0  0  0  0  0  0  0  0  0  0
  151.2799  136.9912  154.3035 O   0  0  0  0  0  0  0  0  0  0  0  0
  150.6297  135.7655  156.1174 N   0  5  0  0  0  0  0  0  0  0  0  0
  150.0009  135.6964  157.3258 C   0  0  0  0  0  0  0  0  0  0  0  0
  149.9249  134.6471  157.9643 O   0  0  0  0  0  0  0  0  0  0  0  0
  148.2937  137.8445  159.4898 H   0  0  0  0  0  0  0  0  0  0  0  0
  149.4105  136.5767  159.9999 H   0  0  0  0  0  0  0  0  0  0  0  0
  147.8885  136.1513  159.2037 H   0  0  0  0  0  0  0  0  0  0  0  0
  149.0547  138.9553  157.5589 H   0  0  0  0  0  0  0  0  0  0  0  0
  151.0380  139.2043  154.3923 H   0  0  0  0  0  0  0  0  0  0  0  0
  148.9560  140.8040  157.0258 H   0  0  0  0  0  0  0  0  0  0  0  0
  150.3435  143.2875  155.9459 H   0  0  0  0  0  0  0  0  0  0  0  0
  149.2685  143.1357  157.3353 H   0  0  0  0  0  0  0  0  0  0  0  0
  152.0852  144.5393  160.9216 H   0  0  0  0  0  0  0  0  0  0  0  0
  153.4689  143.6657  162.7693 H   0  0  0  0  0  0  0  0  0  0  0  0
  154.5612  141.4390  162.5764 H   0  0  0  0  0  0  0  0  0  0  0  0
  154.2616  140.0853  160.5111 H   0  0  0  0  0  0  0  0  0  0  0  0
  152.8923  140.9306  158.6542 H   0  0  0  0  0  0  0  0  0  0  0  0
  147.7551  141.6026  155.1009 H   0  0  0  0  0  0  0  0  0  0  0  0
  149.5927  142.9813  154.4664 H   0  0  0  0  0  0  0  0  0  0  0  0
  148.9744  139.7641  153.3950 H   0  0  0  0  0  0  0  0  0  0  0  0
  147.5480  138.4948  154.2442 H   0  0  0  0  0  0  0  0  0  0  0  0
  1  2  1  0  0  0  0
  1 27  1  0  0  0  0
  1 28  1  0  0  0  0
  1 29  1  0  0  0  0
  2 25  1  0  0  0  0
  2  3  2  0  0  0  0
  3  4  1  0  0  0  0
  3 30  1  0  0  0  0
  4  5  1  0  0  0  0
  4 22  1  0  0  0  0
  5 20  1  0  0  0  0
  5  6  1  0  0  0  0
  5 31  1  0  0  0  0
  6  7  1  0  0  0  0
  7  8  1  0  0  0  0
  7 18  1  0  0  0  0
  7 32  1  0  0  0  0
  8  9  1  0  0  0  0
  8 33  1  0  0  0  0
  8 34  1  0  0  0  0
  9 10  1  0  0  0  0
 10 11  2  0  0  0  0
 10 12  1  0  0  0  0
 12 17  1  0  0  0  0
 12 13  2  0  0  0  0
 13 14  1  0  0  0  0
 13 35  1  0  0  0  0
 14 15  2  0  0  0  0
 14 36  1  0  0  0  0
 15 16  1  0  0  0  0
 15 37  1  0  0  0  0
 16 17  2  0  0  0  0
 16 38  1  0  0  0  0
 17 39  1  0  0  0  0
 18 19  1  0  0  0  0
 18 20  1  0  0  0  0
 18 40  1  0  0  0  0
 19 41  1  0  0  0  0
 20 21  1  0  0  0  0
 20 42  1  0  0  0  0
 21 43  1  0  0  0  0
 22 23  2  0  0  0  0
 22 24  1  0  0  0  0
 24 25  1  0  0  0  0
 25 26  2  0  0  0  0
M  CHG  1  24  -1
M  END
> <s_m_source_file>
AV-unprocessed.smi

> <i_m_source_file_index>
101

> <i_lp_mmshare_version>
43012

> <i_f3d_flags>
0

> <s_epik_input>
Tz1jMVtuSF1jKD1PKW4oW2NIXWMxW0NIM10pW0NAQEhdMk9bQ0BIXShbQ0BASF0oW09IXSlbQ0BIXTJbT0hdKVtDSDJdT0MoPU8pYzNbY0hdW2NIXVtjSF1bY0hdW2NIXTM=

> <s_epik_cmdline>
J2VwaWtfcHl0aG9uJywgJy1waCcsICc3LjAnLCAnLXRuJywgJzgnLCAnLW1hJywgJzIwMCcsICctbWV0YWxfYmluZGluZycsICctaW1hZScsICc8aW5maWxlLm1hZT4nLCAnLW9tYWUnLCAnPG91dGZpbGUubWFlPic=

> <r_lp_tautomer_probability>
0.999537

> <r_epik_Ionization_Penalty>
3.21006

> <r_epik_Ionization_Penalty_Charging>
5.75142e-08

> <r_epik_Ionization_Penalty_Neutral>
3.21006

> <r_epik_State_Penalty>
3.20925

> <r_epik_Charging_Adjusted_Penalty>
3.20925

> <i_epik_Tot_Q>
-1

> <i_epik_Tot_abs_Q>
1

> <r_epik_Metal_State_Penalty>
0.119957

> <b_epik_Metal_Only>
1

> <s_epik_Chemistry_Notes>
This compound has an ester and may undergo hydrolysis at high or low pH. This compound contains an acetal/aminal-like group ( X-CH(R)-Y where X, Y are N, S, or O) that may be acid/base labile, releasing an aldehyde.

> <s_lp_Force_Field>
OPLS_2005

> <r_lp_Energy>
45.504

> <b_lp_Chiralities_Consistent>
1

> <s_lp_Variant>
AV-unprocessed.smi:101-25

> <Gold.Version>
5.8.1

> <Gold.Id.Protein>
6NUR|6NUR_protein|mol2

> <Gold.PLP.Fitness>
51.1561

> <Gold.PLP.PLP>
-42.2947

> <Gold.PLP.part.hbond>
-5.2250

> <Gold.PLP.part.metal>
0.0000

> <Gold.PLP.part.buried>
-1.9974

> <Gold.PLP.part.nonpolar>
-36.3840

> <Gold.PLP.part.repulsive>
0.9350

> <Gold.PLP.ligand.clash>
0.0000

> <Gold.PLP.ligand.torsion>
0.9497

> <Gold.PLP.Chemscore.Hbond>
3.5600

> <Gold.PLP.Chemscore.CHOScore>
0.0000

> <Gold.PLP.Chemscore.Metal>
0.0000

> <Gold.Chemscore.Hbonds>
donor molecule, donor type, donor heavy atom, donor atom, acceptor molecule, acceptor atom, score
      L1  H    19    41       P1  8028  0.55
      P1  H  6896  6909       L1    26  0.94
      P1  H  8011  8017       L1    19  0.30

> <Gold.PLP.Chemscore.Internal.Correction>
0.0808

> <Gold.Rescore>
     Score         DG    S(hbond)    S(metal)    S(lipo)     H(rot)  DE(clash)    DE(int)     intcor
     11.51     -15.02       1.98        0.00      96.55       3.27       1.54       1.98       ----

> <Gold.Chemscore.Fitness>
11.5053

> <Gold.Chemscore.DG>
-15.0207

> <Gold.Chemscore.ZeroCoef>
-5.4800

> <Gold.Chemscore.Hbond>
1.9775

> <Gold.Chemscore.Metal>
0.0000

> <Gold.Chemscore.Lipo>
96.5452

> <Gold.Chemscore.Internal_Hbond>
0.0000

> <Gold.Chemscore.DEClash>
1.5373

> <Gold.Chemscore.DEInternal>
1.9781

> <Gold.Chemscore.Rot>
3.2656

> <Gold.Chemscore.Internal.Correction>
   9.000000E+99

> <Gold.Chemscore.Hbonds>
donor molecule, donor type, donor heavy atom, donor atom, acceptor molecule, acceptor atom, score
      L1  H    19    41       P1  8028  0.52
      P1  H  6896  6909       L1    26  0.91
      P1  H  8011  8017       L1    19  0.15

> <Gold.Chemscore.Hbond.Weighted>
-6.6047

> <Gold.Chemscore.Metal.Weighted>
-0.0000

> <Gold.Chemscore.Lipo.Weighted>
-11.2958

> <Gold.Chemscore.Internal_Hbond.Weighted>
0.0000

> <Gold.Chemscore.DEClash.Weighted>
1.5373

> <Gold.Chemscore.DEInternal.Weighted>
1.9781

> <Gold.Chemscore.Rot.Weighted>
8.3598

> <Gold.Chemscore.Internal.Correction.Weighted>
   9.000000E+99

> <Gold.Protein.RotatedTorsions>
[ 6907 6896 6895 6894 ] final   18.77 input  -60.11 | X-H torsion
[ 7974 7965 7964 7962 ] final -101.11 input  175.53 | X-H torsion
[ 8008 7997 7996 7995 ] final -105.35 input   59.86 | X-H torsion
[ 10167 10162 10161 10158 ] final   20.09 input  -65.29 | X-H torsion
[ 10718 10713 10712 10709 ] final  138.76 input   66.30 | X-H torsion
[ 10763 10752 10751 10750 ] final  -23.19 input  -60.55 | X-H torsion
[ 11005 11000 10999 10996 ] final  -43.84 input  -57.11 | X-H torsion

> <Gold.Protein.ActiveResidues>
 VAL166  LYS551  ARG553  GLY616  TRP617  ASP618  TYR619  PRO620  LYS621  CYS622 
 ASP623  PHE694  ASN695  SER759  ASP760  ASP761  ALA762  ILE779  LEU786  VAL792 
 PHE793  MET794  SER795  GLU796  ALA797  LYS798  CYS799  TRP800  GLU811  SER814 

> <Gold.Protein.RotatedAtoms>
  151.8704  135.0491  160.0478 H   0  0  0  0  0  0  0  0  0  0  0  0  # atno 6907 bound_to 6896
  152.2593  133.5278  159.5380 H   0  0  0  0  0  0  0  0  0  0  0  0  # atno 6908 bound_to 6896
  150.7111  134.0768  159.3926 H   0  0  0  0  0  0  0  0  0  0  0  0  # atno 6909 bound_to 6896
  145.2859  140.9339  143.2905 H   0  0  0  0  0  0  0  0  0  0  0  0  # atno 7974 bound_to 7965
  154.8986  140.0413  157.1880 H   0  0  0  0  0  0  0  0  0  0  0  0  # atno 8008 bound_to 7997
  154.8467  140.2923  155.5603 H   0  0  0  0  0  0  0  0  0  0  0  0  # atno 8009 bound_to 7997
  156.2994  140.2472  156.3419 H   0  0  0  0  0  0  0  0  0  0  0  0  # atno 8010 bound_to 7997
  140.5530  143.9475  150.6591 H   0  0  0  0  0  0  0  0  0  0  0  0  # atno 10167 bound_to 10162
  157.4218  131.1039  151.0346 H   0  0  0  0  0  0  0  0  0  0  0  0  # atno 10718 bound_to 10713
  153.6639  135.6975  153.5168 H   0  0  0  0  0  0  0  0  0  0  0  0  # atno 10763 bound_to 10752
  153.2610  135.4244  155.0893 H   0  0  0  0  0  0  0  0  0  0  0  0  # atno 10764 bound_to 10752
  154.8445  135.3555  154.6183 H   0  0  0  0  0  0  0  0  0  0  0  0  # atno 10765 bound_to 10752
  141.0410  133.6780  156.2788 H   0  0  0  0  0  0  0  0  0  0  0  0  # atno 11005 bound_to 11000
  144.9214  139.4408  143.6539 LP  0  0  0  0  0  0  0  0  0  0  0  0  # atno 17320 bound_to 7965
  146.3201  139.8076  142.8952 LP  0  0  0  0  0  0  0  0  0  0  0  0  # atno 17321 bound_to 7965
  140.2906  143.3327  152.1066 LP  0  0  0  0  0  0  0  0  0  0  0  0  # atno 17342 bound_to 10162
  139.5035  144.6758  151.6132 LP  0  0  0  0  0  0  0  0  0  0  0  0  # atno 17343 bound_to 10162
  157.1273  130.6087  149.5520 LP  0  0  0  0  0  0  0  0  0  0  0  0  # atno 17370 bound_to 10713
  155.9883  130.4926  150.7164 LP  0  0  0  0  0  0  0  0  0  0  0  0  # atno 17371 bound_to 10713
  140.6234  134.5338  157.5550 LP  0  0  0  0  0  0  0  0  0  0  0  0  # atno 17394 bound_to 11000
  139.9276  134.8026  156.1023 LP  0  0  0  0  0  0  0  0  0  0  0  0  # atno 17395 bound_to 11000

$$$$
