AV-unprocessed.smi:3237|AV-procd|sdf|12367|dock3
  -GOLD-   2272018223D 1   1.00000     0.00000
 Structure written by MMmdl.
 36 38  0  0  0  0  0  0  0  0  3 V2000
  152.2307  141.0607  159.0939 C   0  0  0  0  0  0  0  0  0  0  0  0
  151.8914  140.7386  157.6785 C   0  0  0  0  0  0  0  0  0  0  0  0
  150.8333  141.0688  156.8804 C   0  0  0  0  0  0  0  0  0  0  0  0
  151.1471  140.4364  155.6466 C   0  0  0  0  0  0  0  0  0  0  0  0
  150.3947  140.4613  154.5356 N   0  5  0  0  0  0  0  0  0  0  0  0
  149.0554  140.2948  154.6188 C   0  0  0  0  0  0  0  0  0  0  0  0
  148.3513  140.5006  155.6100 O   0  0  0  0  0  0  0  0  0  0  0  0
  148.4949  139.8583  153.4822 N   0  0  0  0  0  0  0  0  0  0  0  0
  147.0747  139.5873  153.2907 C   0  0  2  0  0  0  0  0  0  0  0  0
  146.4150  138.8234  154.4418 C   0  0  0  0  0  0  0  0  0  0  0  0
  145.2830  138.0256  153.7745 C   0  0  0  0  0  0  0  0  0  0  0  0
  145.4623  138.1682  152.3106 N   0  3  2  0  0  0  0  0  0  0  0  0
  145.1338  136.9530  151.5362 C   0  0  0  0  0  0  0  0  0  0  0  0
  144.0634  136.1004  152.1744 C   0  0  0  0  0  0  0  0  0  0  0  0
  145.5133  135.6706  152.2372 C   0  0  0  0  0  0  0  0  0  0  0  0
  146.8317  138.6680  152.0988 C   0  0  0  0  0  0  0  0  0  0  0  0
  152.2871  139.7676  155.6964 N   0  0  0  0  0  0  0  0  0  0  0  0
  152.7750  139.9630  156.9941 O   0  0  0  0  0  0  0  0  0  0  0  0
  151.3651  140.9156  159.7402 H   0  0  0  0  0  0  0  0  0  0  0  0
  152.5514  142.0983  159.1861 H   0  0  0  0  0  0  0  0  0  0  0  0
  153.0354  140.4234  159.4604 H   0  0  0  0  0  0  0  0  0  0  0  0
  149.9734  141.6697  157.1360 H   0  0  0  0  0  0  0  0  0  0  0  0
  149.1065  139.7038  152.6939 H   0  0  0  0  0  0  0  0  0  0  0  0
  146.5415  140.5255  153.1244 H   0  0  0  0  0  0  0  0  0  0  0  0
  147.1271  138.1338  154.8981 H   0  0  0  0  0  0  0  0  0  0  0  0
  146.0520  139.4895  155.2253 H   0  0  0  0  0  0  0  0  0  0  0  0
  145.3297  136.9797  154.0817 H   0  0  0  0  0  0  0  0  0  0  0  0
  144.3021  138.4103  154.0550 H   0  0  0  0  0  0  0  0  0  0  0  0
  145.2076  137.0316  150.4528 H   0  0  0  0  0  0  0  0  0  0  0  0
  143.6034  136.4549  153.0951 H   0  0  0  0  0  0  0  0  0  0  0  0
  143.4061  135.5407  151.5120 H   0  0  0  0  0  0  0  0  0  0  0  0
  145.8115  134.8286  151.6158 H   0  0  0  0  0  0  0  0  0  0  0  0
  146.0172  135.7390  153.1999 H   0  0  0  0  0  0  0  0  0  0  0  0
  146.9275  139.1852  151.1436 H   0  0  0  0  0  0  0  0  0  0  0  0
  147.5356  137.8332  152.1081 H   0  0  0  0  0  0  0  0  0  0  0  0
  144.8395  138.9061  152.0146 H   0  0  0  0  0  0  0  0  0  0  0  0
  1  2  1  0  0  0  0
  1 19  1  0  0  0  0
  1 20  1  0  0  0  0
  1 21  1  0  0  0  0
  2 18  1  0  0  0  0
  2  3  2  0  0  0  0
  3  4  1  0  0  0  0
  3 22  1  0  0  0  0
  4  5  1  0  0  0  0
  4 17  2  0  0  0  0
  5  6  1  0  0  0  0
  6  7  2  0  0  0  0
  6  8  1  0  0  0  0
  8  9  1  0  0  0  0
  8 23  1  0  0  0  0
  9 16  1  0  0  0  0
  9 10  1  0  0  0  0
  9 24  1  0  0  0  0
 10 11  1  0  0  0  0
 10 25  1  0  0  0  0
 10 26  1  0  0  0  0
 11 12  1  0  0  0  0
 11 27  1  0  0  0  0
 11 28  1  0  0  0  0
 12 13  1  0  0  0  0
 12 16  1  0  0  0  0
 12 36  1  0  0  0  0
 13 15  1  0  0  0  0
 13 14  1  0  0  0  0
 13 29  1  0  0  0  0
 14 15  1  0  0  0  0
 14 30  1  0  0  0  0
 14 31  1  0  0  0  0
 15 32  1  0  0  0  0
 15 33  1  0  0  0  0
 16 34  1  0  0  0  0
 16 35  1  0  0  0  0
 17 18  1  0  0  0  0
M  CHG  1   5  -1
M  CHG  1  12   1
M  END
> <s_m_source_file>
AV-unprocessed.smi

> <i_m_source_file_index>
3237

> <i_lp_mmshare_version>
43012

> <i_f3d_flags>
0

> <s_epik_input>
W0NIM11jMVtjSF1jKG5vMSlbTkhdQyg9TylbTkhdW0NAQEhdMltDSDJdW0NIMl1OKFtDSDJdMilbQ0hdM1tDSDJdW0NIMl0z

> <s_epik_cmdline>
J2VwaWtfcHl0aG9uJywgJy1waCcsICc3LjAnLCAnLXRuJywgJzgnLCAnLW1hJywgJzIwMCcsICctbWV0YWxfYmluZGluZycsICctaW1hZScsICc8aW5maWxlLm1hZT4nLCAnLW9tYWUnLCAnPG91dGZpbGUubWFlPic=

> <r_epik_Ionization_Penalty>
6.08472

> <r_epik_Ionization_Penalty_Charging>
6.08464

> <r_epik_Ionization_Penalty_Neutral>
8.41751e-05

> <r_epik_State_Penalty>
6.08438

> <r_epik_Charging_Adjusted_Penalty>
12.169

> <i_epik_Tot_Q>
0

> <i_epik_Tot_abs_Q>
2

> <r_epik_Metal_State_Penalty>
2.0369

> <b_epik_Metal_Only>
1

> <s_lp_Force_Field>
OPLS_2005

> <r_lp_Energy>
23.7168

> <b_lp_Chiralities_Consistent>
1

> <s_lp_Variant>
AV-unprocessed.smi:3237-5

> <Gold.Version>
5.8.1

> <Gold.Id.Protein>
6NUR|6NUR_protein|mol2

> <Gold.PLP.Fitness>
41.5261

> <Gold.PLP.PLP>
-28.2432

> <Gold.PLP.part.hbond>
-5.6202

> <Gold.PLP.part.metal>
0.0000

> <Gold.PLP.part.buried>
1.4308

> <Gold.PLP.part.nonpolar>
-23.7331

> <Gold.PLP.part.repulsive>
0.2804

> <Gold.PLP.ligand.clash>
0.0000

> <Gold.PLP.ligand.torsion>
1.3437

> <Gold.PLP.Chemscore.Hbond>
4.9000

> <Gold.PLP.Chemscore.CHOScore>
0.0000

> <Gold.PLP.Chemscore.Metal>
0.0000

> <Gold.Chemscore.Hbonds>
donor molecule, donor type, donor heavy atom, donor atom, acceptor molecule, acceptor atom, score
      L1  H     8    23       P1  7957  1.00
      L1  H    12    36       P1 10175  2.00
      P1  H  7989  7998       L1     5  0.84
      P1  H  7997  8009       L1    18  1.00

> <Gold.PLP.Chemscore.Internal.Correction>
1.2703

> <Gold.Rescore>
     Score         DG    S(hbond)    S(metal)    S(lipo)     H(rot)  DE(clash)    DE(int)     intcor
     13.14     -18.56       2.93        0.00      55.39       1.25       1.38       4.05       ----

> <Gold.Chemscore.Fitness>
13.1351

> <Gold.Chemscore.DG>
-18.5646

> <Gold.Chemscore.ZeroCoef>
-5.4800

> <Gold.Chemscore.Hbond>
2.9327

> <Gold.Chemscore.Metal>
0.0000

> <Gold.Chemscore.Lipo>
55.3872

> <Gold.Chemscore.Internal_Hbond>
0.0000

> <Gold.Chemscore.DEClash>
1.3841

> <Gold.Chemscore.DEInternal>
4.0454

> <Gold.Chemscore.Rot>
1.2464

> <Gold.Chemscore.Internal.Correction>
   9.000000E+99

> <Gold.Chemscore.Hbonds>
donor molecule, donor type, donor heavy atom, donor atom, acceptor molecule, acceptor atom, score
      L1  H     8    23       P1  7957  0.96
      L1  H    12    36       P1 10175  0.93
      P1  H  7989  7998       L1     5  0.14
      P1  H  7997  8009       L1    18  0.30

> <Gold.Chemscore.Hbond.Weighted>
-9.7952

> <Gold.Chemscore.Metal.Weighted>
-0.0000

> <Gold.Chemscore.Lipo.Weighted>
-6.4803

> <Gold.Chemscore.Internal_Hbond.Weighted>
0.0000

> <Gold.Chemscore.DEClash.Weighted>
1.3841

> <Gold.Chemscore.DEInternal.Weighted>
4.0454

> <Gold.Chemscore.Rot.Weighted>
3.1909

> <Gold.Chemscore.Internal.Correction.Weighted>
   9.000000E+99

> <Gold.Protein.RotatedTorsions>
[ 6907 6896 6895 6894 ] final    1.65 input  -60.11 | X-H torsion
[ 7974 7965 7964 7962 ] final  -44.28 input  175.53 | X-H torsion
[ 8008 7997 7996 7995 ] final  175.95 input   59.86 | X-H torsion
[ 10167 10162 10161 10158 ] final  136.64 input  -65.29 | X-H torsion
[ 10718 10713 10712 10709 ] final   63.31 input   66.30 | X-H torsion
[ 10763 10752 10751 10750 ] final  -56.54 input  -60.55 | X-H torsion
[ 11005 11000 10999 10996 ] final   -2.93 input  -57.11 | X-H torsion

> <Gold.Protein.ActiveResidues>
 VAL166  LYS551  ARG553  GLY616  TRP617  ASP618  TYR619  PRO620  LYS621  CYS622 
 ASP623  PHE694  ASN695  SER759  ASP760  ASP761  ALA762  ILE779  LEU786  VAL792 
 PHE793  MET794  SER795  GLU796  ALA797  LYS798  CYS799  TRP800  GLU811  SER814 

> <Gold.Protein.RotatedAtoms>
  151.5960  135.1050  160.0049 H   0  0  0  0  0  0  0  0  0  0  0  0  # atno 6907 bound_to 6896
  152.4282  133.7227  159.6553 H   0  0  0  0  0  0  0  0  0  0  0  0  # atno 6908 bound_to 6896
  150.8172  133.8244  159.3177 H   0  0  0  0  0  0  0  0  0  0  0  0  # atno 6909 bound_to 6896
  145.9936  140.7153  142.9305 H   0  0  0  0  0  0  0  0  0  0  0  0  # atno 7974 bound_to 7965
  156.0816  140.1396  156.9705 H   0  0  0  0  0  0  0  0  0  0  0  0  # atno 8008 bound_to 7997
  154.4588  140.0951  156.6884 H   0  0  0  0  0  0  0  0  0  0  0  0  # atno 8009 bound_to 7997
  155.5066  140.3452  155.4383 H   0  0  0  0  0  0  0  0  0  0  0  0  # atno 8010 bound_to 7997
  139.5172  144.6453  151.5456 H   0  0  0  0  0  0  0  0  0  0  0  0  # atno 10167 bound_to 10162
  157.5962  130.9098  149.9700 H   0  0  0  0  0  0  0  0  0  0  0  0  # atno 10718 bound_to 10713
  154.2082  135.6399  153.5107 H   0  0  0  0  0  0  0  0  0  0  0  0  # atno 10763 bound_to 10752
  152.9996  135.5467  154.6243 H   0  0  0  0  0  0  0  0  0  0  0  0  # atno 10764 bound_to 10752
  154.5673  135.2914  155.0835 H   0  0  0  0  0  0  0  0  0  0  0  0  # atno 10765 bound_to 10752
  140.6638  133.9297  155.8452 H   0  0  0  0  0  0  0  0  0  0  0  0  # atno 11005 bound_to 11000
  144.6896  140.3112  143.7248 LP  0  0  0  0  0  0  0  0  0  0  0  0  # atno 17320 bound_to 7965
  145.7593  139.1819  143.2276 LP  0  0  0  0  0  0  0  0  0  0  0  0  # atno 17321 bound_to 7965
  140.6236  143.9212  150.6546 LP  0  0  0  0  0  0  0  0  0  0  0  0  # atno 17342 bound_to 10162
  140.2493  143.3605  152.1419 LP  0  0  0  0  0  0  0  0  0  0  0  0  # atno 17343 bound_to 10162
  156.1026  130.3655  150.0191 LP  0  0  0  0  0  0  0  0  0  0  0  0  # atno 17370 bound_to 10713
  156.8304  130.9390  151.3637 LP  0  0  0  0  0  0  0  0  0  0  0  0  # atno 17371 bound_to 10713
  141.0445  134.0574  157.3861 LP  0  0  0  0  0  0  0  0  0  0  0  0  # atno 17394 bound_to 11000
  139.9004  135.0162  156.7240 LP  0  0  0  0  0  0  0  0  0  0  0  0  # atno 17395 bound_to 11000

$$$$
