AV-unprocessed.smi:3195|AV-procd|sdf|12214|dock1
  -GOLD-   2272018 53D 1   1.00000     0.00000
 Structure written by MMmdl.
 30 31  0  0  0  0  0  0  0  0  1 V2000
  151.7013  138.1885  154.4001 C   0  0  0  0  0  0  0  0  0  0  0  0
  150.8437  139.2493  155.1112 C   0  0  2  0  0  0  0  0  0  0  0  0
  151.6705  139.9681  156.1994 C   0  0  0  0  0  0  0  0  0  0  0  0
  152.8180  139.5844  156.4303 O   0  0  0  0  0  0  0  0  0  0  0  0
  151.0739  140.9950  156.8350 N   0  0  0  0  0  0  0  0  0  0  0  0
  151.5875  141.8204  157.8728 C   0  0  0  0  0  0  0  0  0  0  0  0
  152.1049  141.3258  159.0254 N   0  0  0  0  0  0  0  0  0  0  0  0
  152.5727  142.1782  159.9607 C   0  0  0  0  0  0  0  0  0  0  0  0
  152.5539  143.5757  159.8062 C   0  0  0  0  0  0  0  0  0  0  0  0
  152.0212  144.1031  158.6173 C   0  0  0  0  0  0  0  0  0  0  0  0
  151.5305  143.2178  157.6367 C   0  0  0  0  0  0  0  0  0  0  0  0
  151.0098  143.7244  156.4780 O   0  0  0  0  0  0  0  0  0  0  0  0
  149.5379  138.6504  155.6854 C   0  0  0  0  0  0  0  0  0  0  0  0
  148.4335  139.2856  154.8599 C   0  0  0  0  0  0  0  0  0  0  0  0
  149.0732  140.5828  154.3932 C   0  0  0  0  0  0  0  0  0  0  0  0
  150.4098  140.1891  154.1214 O   0  0  0  0  0  0  0  0  0  0  0  0
  152.0197  137.4042  155.0878 H   0  0  0  0  0  0  0  0  0  0  0  0
  152.5967  138.6310  153.9615 H   0  0  0  0  0  0  0  0  0  0  0  0
  151.1433  137.7123  153.5934 H   0  0  0  0  0  0  0  0  0  0  0  0
  150.1310  141.2081  156.5428 H   0  0  0  0  0  0  0  0  0  0  0  0
  152.9743  141.7321  160.8584 H   0  0  0  0  0  0  0  0  0  0  0  0
  152.9386  144.2245  160.5792 H   0  0  0  0  0  0  0  0  0  0  0  0
  151.9903  145.1714  158.4612 H   0  0  0  0  0  0  0  0  0  0  0  0
  150.1552  144.1107  156.5934 H   0  0  0  0  0  0  0  0  0  0  0  0
  149.5062  137.5621  155.6216 H   0  0  0  0  0  0  0  0  0  0  0  0
  149.3980  138.9116  156.7359 H   0  0  0  0  0  0  0  0  0  0  0  0
  148.2041  138.6565  153.9990 H   0  0  0  0  0  0  0  0  0  0  0  0
  147.5134  139.4422  155.4234 H   0  0  0  0  0  0  0  0  0  0  0  0
  148.5891  141.0010  153.5107 H   0  0  0  0  0  0  0  0  0  0  0  0
  149.0603  141.3334  155.1850 H   0  0  0  0  0  0  0  0  0  0  0  0
  1  2  1  0  0  0  0
  1 17  1  0  0  0  0
  1 18  1  0  0  0  0
  1 19  1  0  0  0  0
  2 16  1  0  0  0  0
  2  3  1  0  0  0  0
  2 13  1  0  0  0  0
  3  4  2  0  0  0  0
  3  5  1  0  0  0  0
  5  6  1  0  0  0  0
  5 20  1  0  0  0  0
  6 11  1  0  0  0  0
  6  7  2  0  0  0  0
  7  8  1  0  0  0  0
  8  9  2  0  0  0  0
  8 21  1  0  0  0  0
  9 10  1  0  0  0  0
  9 22  1  0  0  0  0
 10 11  2  0  0  0  0
 10 23  1  0  0  0  0
 11 12  1  0  0  0  0
 12 24  1  0  0  0  0
 13 14  1  0  0  0  0
 13 25  1  0  0  0  0
 13 26  1  0  0  0  0
 14 15  1  0  0  0  0
 14 27  1  0  0  0  0
 14 28  1  0  0  0  0
 15 16  1  0  0  0  0
 15 29  1  0  0  0  0
 15 30  1  0  0  0  0
M  END
> <s_m_source_file>
AV-unprocessed.smi

> <i_m_source_file_index>
3195

> <i_lp_mmshare_version>
43012

> <i_f3d_flags>
0

> <s_epik_input>
TzFbQ0gyXVtDSDJdW0NIMl1bQ0BAXTEoW0NIM10pQyg9TylbTkhdYzJuW2NIXVtjSF1bY0hdYzJbT0hd

> <s_epik_cmdline>
J2VwaWtfcHl0aG9uJywgJy1waCcsICc3LjAnLCAnLXRuJywgJzgnLCAnLW1hJywgJzIwMCcsICctbWV0YWxfYmluZGluZycsICctaW1hZScsICc8aW5maWxlLm1hZT4nLCAnLW9tYWUnLCAnPG91dGZpbGUubWFlPic=

> <r_lp_tautomer_probability>
0.43658

> <r_epik_Ionization_Penalty>
0.0203228

> <r_epik_Ionization_Penalty_Charging>
0

> <r_epik_Ionization_Penalty_Neutral>
0.0203228

> <r_epik_State_Penalty>
0.430346

> <r_epik_Charging_Adjusted_Penalty>
0.430346

> <i_epik_Tot_Q>
0

> <i_epik_Tot_abs_Q>
0

> <r_epik_Metal_State_Penalty>
0.387439

> <b_epik_Metal_Only>
0

> <s_lp_Force_Field>
OPLS_2005

> <r_lp_Energy>
21.4304

> <b_lp_Chiralities_Consistent>
1

> <s_lp_Variant>
AV-unprocessed.smi:3195-2

> <Gold.Version>
5.8.1

> <Gold.Id.Protein>
6NUR|6NUR_protein|mol2

> <Gold.PLP.Fitness>
41.4406

> <Gold.PLP.PLP>
-34.0930

> <Gold.PLP.part.hbond>
-2.5463

> <Gold.PLP.part.metal>
0.0000

> <Gold.PLP.part.buried>
-6.3969

> <Gold.PLP.part.nonpolar>
-26.2747

> <Gold.PLP.part.repulsive>
0.6182

> <Gold.PLP.ligand.clash>
0.0000

> <Gold.PLP.ligand.torsion>
0.5186

> <Gold.PLP.Chemscore.Hbond>
2.7840

> <Gold.PLP.Chemscore.CHOScore>
0.0000

> <Gold.PLP.Chemscore.Metal>
0.0000

> <Gold.Chemscore.Hbonds>
donor molecule, donor type, donor heavy atom, donor atom, acceptor molecule, acceptor atom, score
      L1  H    12    24       P1  8028  0.80
      P1  H  7989  7998       L1    16  0.99
      P1  H  7997  8008       L1     4  1.00

> <Gold.PLP.Chemscore.Internal.Correction>
0.0328

> <Gold.Rescore>
     Score         DG    S(hbond)    S(metal)    S(lipo)     H(rot)  DE(clash)    DE(int)     intcor
     19.86     -20.41       2.93        0.00      75.94       1.46       0.02       0.53       ----

> <Gold.Chemscore.Fitness>
19.8643

> <Gold.Chemscore.DG>
-20.4122

> <Gold.Chemscore.ZeroCoef>
-5.4800

> <Gold.Chemscore.Hbond>
2.9316

> <Gold.Chemscore.Metal>
0.0000

> <Gold.Chemscore.Lipo>
75.9373

> <Gold.Chemscore.Internal_Hbond>
0.0000

> <Gold.Chemscore.DEClash>
0.0186

> <Gold.Chemscore.DEInternal>
0.5293

> <Gold.Chemscore.Rot>
1.4625

> <Gold.Chemscore.Internal.Correction>
   9.000000E+99

> <Gold.Chemscore.Hbonds>
donor molecule, donor type, donor heavy atom, donor atom, acceptor molecule, acceptor atom, score
      L1  H    12    24       P1  8028  0.79
      P1  H  7989  7998       L1    16  0.66
      P1  H  7997  8008       L1     4  0.99

> <Gold.Chemscore.Hbond.Weighted>
-9.7915

> <Gold.Chemscore.Metal.Weighted>
-0.0000

> <Gold.Chemscore.Lipo.Weighted>
-8.8847

> <Gold.Chemscore.Internal_Hbond.Weighted>
0.0000

> <Gold.Chemscore.DEClash.Weighted>
0.0186

> <Gold.Chemscore.DEInternal.Weighted>
0.5293

> <Gold.Chemscore.Rot.Weighted>
3.7440

> <Gold.Chemscore.Internal.Correction.Weighted>
   9.000000E+99

> <Gold.Protein.RotatedTorsions>
[ 6907 6896 6895 6894 ] final  -36.24 input  -60.11 | X-H torsion
[ 7974 7965 7964 7962 ] final   50.35 input  175.53 | X-H torsion
[ 8008 7997 7996 7995 ] final  -36.67 input   59.86 | X-H torsion
[ 10167 10162 10161 10158 ] final   75.19 input  -65.29 | X-H torsion
[ 10718 10713 10712 10709 ] final   96.61 input   66.30 | X-H torsion
[ 10763 10752 10751 10750 ] final  171.64 input  -60.55 | X-H torsion
[ 11005 11000 10999 10996 ] final  -58.78 input  -57.11 | X-H torsion

> <Gold.Protein.ActiveResidues>
 VAL166  LYS551  ARG553  GLY616  TRP617  ASP618  TYR619  PRO620  LYS621  CYS622 
 ASP623  PHE694  ASN695  SER759  ASP760  ASP761  ALA762  ILE779  LEU786  VAL792 
 PHE793  MET794  SER795  GLU796  ALA797  LYS798  CYS799  TRP800  GLU811  SER814 

> <Gold.Protein.RotatedAtoms>
  151.0297  134.9530  159.8103 H   0  0  0  0  0  0  0  0  0  0  0  0  # atno 6907 bound_to 6896
  152.5343  134.2796  159.9012 H   0  0  0  0  0  0  0  0  0  0  0  0  # atno 6908 bound_to 6896
  151.2805  133.4169  159.2660 H   0  0  0  0  0  0  0  0  0  0  0  0  # atno 6909 bound_to 6896
  146.0021  139.4450  143.0009 H   0  0  0  0  0  0  0  0  0  0  0  0  # atno 7974 bound_to 7965
  154.4068  140.1624  156.2411 H   0  0  0  0  0  0  0  0  0  0  0  0  # atno 8008 bound_to 7997
  155.9200  140.3422  155.6143 H   0  0  0  0  0  0  0  0  0  0  0  0  # atno 8009 bound_to 7997
  155.7233  140.0771  157.2311 H   0  0  0  0  0  0  0  0  0  0  0  0  # atno 8010 bound_to 7997
  140.0056  144.5653  150.7701 H   0  0  0  0  0  0  0  0  0  0  0  0  # atno 10167 bound_to 10162
  157.6924  131.0583  150.4518 H   0  0  0  0  0  0  0  0  0  0  0  0  # atno 10718 bound_to 10713
  154.4148  135.2757  155.2014 H   0  0  0  0  0  0  0  0  0  0  0  0  # atno 10763 bound_to 10752
  154.3984  135.6050  153.5887 H   0  0  0  0  0  0  0  0  0  0  0  0  # atno 10764 bound_to 10752
  152.9832  135.5920  154.4435 H   0  0  0  0  0  0  0  0  0  0  0  0  # atno 10765 bound_to 10752
  141.1221  133.6613  156.4972 H   0  0  0  0  0  0  0  0  0  0  0  0  # atno 11005 bound_to 11000
  145.7472  140.9986  143.1269 LP  0  0  0  0  0  0  0  0  0  0  0  0  # atno 17320 bound_to 7965
  144.6923  139.9171  143.7466 LP  0  0  0  0  0  0  0  0  0  0  0  0  # atno 17321 bound_to 7965
  140.7402  143.2801  151.3625 LP  0  0  0  0  0  0  0  0  0  0  0  0  # atno 17342 bound_to 10162
  139.6241  144.0849  152.2418 LP  0  0  0  0  0  0  0  0  0  0  0  0  # atno 17343 bound_to 10162
  156.4869  130.4086  149.6429 LP  0  0  0  0  0  0  0  0  0  0  0  0  # atno 17370 bound_to 10713
  156.3454  130.7404  151.2355 LP  0  0  0  0  0  0  0  0  0  0  0  0  # atno 17371 bound_to 10713
  140.4475  134.6959  157.5023 LP  0  0  0  0  0  0  0  0  0  0  0  0  # atno 17394 bound_to 11000
  140.0188  134.6579  155.9270 LP  0  0  0  0  0  0  0  0  0  0  0  0  # atno 17395 bound_to 11000

$$$$
