AV-unprocessed.smi:1645|AV-procd|sdf|6619|dock4
  -GOLD-   22720 7313D 1   1.00000     0.00000
 Structure written by MMmdl.
 55 58  0  0  0  0  0  0  0  0  4 V2000
  146.9761  135.9827  156.0338 O   0  0  0  0  0  0  0  0  0  0  0  0
  147.4535  135.7514  154.9168 C   0  0  0  0  0  0  0  0  0  0  0  0
  148.5241  136.4381  154.4809 N   0  0  0  0  0  0  0  0  0  0  0  0
  149.2245  137.4907  155.1266 C   0  0  0  0  0  0  0  0  0  0  0  0
  150.3513  138.0339  154.4745 C   0  0  0  0  0  0  0  0  0  0  0  0
  151.0631  139.0914  155.0765 C   0  0  0  0  0  0  0  0  0  0  0  0
  150.6262  139.5994  156.3215 C   0  0  0  0  0  0  0  0  0  0  0  0
  151.2698  140.6452  156.9954 N   0  0  0  0  0  0  0  0  0  0  0  0
  151.8164  140.2312  158.2851 C   0  0  0  0  0  0  0  0  0  0  0  0
  152.6668  141.3531  158.9061 C   0  0  0  0  0  0  0  0  0  0  0  0
  151.8664  142.6623  158.9989 C   0  0  0  0  0  0  0  0  0  0  0  0
  151.2984  143.0347  157.6200 C   0  0  0  0  0  0  0  0  0  0  0  0
  150.4780  141.8725  157.0344 C   0  0  0  0  0  0  0  0  0  0  0  0
  149.5294  139.0680  156.9035 N   0  3  0  0  0  0  0  0  0  0  0  0
  148.8215  138.0532  156.3617 C   0  0  0  0  0  0  0  0  0  0  0  0
  147.0394  134.8205  154.0155 N   0  5  0  0  0  0  0  0  0  0  0  0
  145.6571  134.3557  153.8755 C   0  0  1  0  0  0  0  0  0  0  0  0
  144.7029  135.4778  153.4464 C   0  0  0  0  0  0  0  0  0  0  0  0
  143.5748  134.7565  152.6865 C   0  0  0  0  0  0  0  0  0  0  0  0
  144.0010  133.3431  152.5661 N   0  3  1  0  0  0  0  0  0  0  0  0
  143.4706  132.5802  151.4070 C   0  0  0  0  0  0  0  0  0  0  0  0
  144.2337  132.8730  150.1055 C   0  0  0  0  0  0  0  0  0  0  0  0
  145.7381  132.6649  150.3045 C   0  0  0  0  0  0  0  0  0  0  0  0
  146.2326  133.5693  151.4385 C   0  0  0  0  0  0  0  0  0  0  0  0
  145.4676  133.2963  152.7693 C   0  0  1  0  0  0  0  0  0  0  0  0
  148.9186  136.1188  153.6083 H   0  0  0  0  0  0  0  0  0  0  0  0
  150.6754  137.6385  153.5227 H   0  0  0  0  0  0  0  0  0  0  0  0
  151.9308  139.5047  154.5836 H   0  0  0  0  0  0  0  0  0  0  0  0
  151.0003  139.9692  158.9597 H   0  0  0  0  0  0  0  0  0  0  0  0
  152.4247  139.3348  158.1560 H   0  0  0  0  0  0  0  0  0  0  0  0
  153.0144  141.0547  159.8957 H   0  0  0  0  0  0  0  0  0  0  0  0
  153.5589  141.5133  158.2992 H   0  0  0  0  0  0  0  0  0  0  0  0
  151.0498  142.5441  159.7124 H   0  0  0  0  0  0  0  0  0  0  0  0
  152.4982  143.4662  159.3775 H   0  0  0  0  0  0  0  0  0  0  0  0
  150.6787  143.9284  157.6977 H   0  0  0  0  0  0  0  0  0  0  0  0
  152.1168  143.2825  156.9424 H   0  0  0  0  0  0  0  0  0  0  0  0
  150.1433  142.1257  156.0275 H   0  0  0  0  0  0  0  0  0  0  0  0
  149.5839  141.7134  157.6388 H   0  0  0  0  0  0  0  0  0  0  0  0
  147.9586  137.7406  156.9310 H   0  0  0  0  0  0  0  0  0  0  0  0
  145.2753  133.9394  154.8098 H   0  0  0  0  0  0  0  0  0  0  0  0
  144.3312  136.0443  154.3007 H   0  0  0  0  0  0  0  0  0  0  0  0
  145.2006  136.1821  152.7775 H   0  0  0  0  0  0  0  0  0  0  0  0
  142.6245  134.8091  153.2193 H   0  0  0  0  0  0  0  0  0  0  0  0
  143.4306  135.2119  151.7058 H   0  0  0  0  0  0  0  0  0  0  0  0
  143.5579  131.5184  151.6406 H   0  0  0  0  0  0  0  0  0  0  0  0
  142.4062  132.7839  151.2865 H   0  0  0  0  0  0  0  0  0  0  0  0
  143.8699  132.2231  149.3091 H   0  0  0  0  0  0  0  0  0  0  0  0
  144.0420  133.8959  149.7796 H   0  0  0  0  0  0  0  0  0  0  0  0
  145.9461  131.6206  150.5408 H   0  0  0  0  0  0  0  0  0  0  0  0
  146.2739  132.8919  149.3823 H   0  0  0  0  0  0  0  0  0  0  0  0
  147.3032  133.4091  151.5771 H   0  0  0  0  0  0  0  0  0  0  0  0
  146.1215  134.6062  151.1136 H   0  0  0  0  0  0  0  0  0  0  0  0
  145.7433  132.3075  153.1388 H   0  0  0  0  0  0  0  0  0  0  0  0
  143.6181  132.8993  153.3885 H   0  0  0  0  0  0  0  0  0  0  0  0
  149.2182  139.4518  157.7962 H   0  0  0  0  0  0  0  0  0  0  0  0
  1  2  2  0  0  0  0
  2  3  1  0  0  0  0
  2 16  1  0  0  0  0
  3  4  1  0  0  0  0
  3 26  1  0  0  0  0
  4 15  1  0  0  0  0
  4  5  2  0  0  0  0
  5  6  1  0  0  0  0
  5 27  1  0  0  0  0
  6  7  2  0  0  0  0
  6 28  1  0  0  0  0
  7  8  1  0  0  0  0
  7 14  1  0  0  0  0
  8 13  1  0  0  0  0
  8  9  1  0  0  0  0
  9 10  1  0  0  0  0
  9 29  1  0  0  0  0
  9 30  1  0  0  0  0
 10 11  1  0  0  0  0
 10 31  1  0  0  0  0
 10 32  1  0  0  0  0
 11 12  1  0  0  0  0
 11 33  1  0  0  0  0
 11 34  1  0  0  0  0
 12 13  1  0  0  0  0
 12 35  1  0  0  0  0
 12 36  1  0  0  0  0
 13 37  1  0  0  0  0
 13 38  1  0  0  0  0
 14 15  2  0  0  0  0
 14 55  1  0  0  0  0
 15 39  1  0  0  0  0
 16 17  1  0  0  0  0
 17 25  1  0  0  0  0
 17 18  1  0  0  0  0
 17 40  1  0  0  0  0
 18 19  1  0  0  0  0
 18 41  1  0  0  0  0
 18 42  1  0  0  0  0
 19 20  1  0  0  0  0
 19 43  1  0  0  0  0
 19 44  1  0  0  0  0
 20 25  1  0  0  0  0
 20 21  1  0  0  0  0
 20 54  1  0  0  0  0
 21 22  1  0  0  0  0
 21 45  1  0  0  0  0
 21 46  1  0  0  0  0
 22 23  1  0  0  0  0
 22 47  1  0  0  0  0
 22 48  1  0  0  0  0
 23 24  1  0  0  0  0
 23 49  1  0  0  0  0
 23 50  1  0  0  0  0
 24 25  1  0  0  0  0
 24 51  1  0  0  0  0
 24 52  1  0  0  0  0
 25 53  1  0  0  0  0
M  CHG  1  14   1
M  CHG  1  16  -1
M  CHG  1  20   1
M  END
> <s_m_source_file>
AV-unprocessed.smi

> <i_m_source_file_index>
1645

> <i_lp_mmshare_version>
43012

> <i_f3d_flags>
0

> <s_epik_input>
W0NIMl0xW0NIMl1bQ0gyXVtDSDJdW0NASF0oTjEyKVtDQEBIXShbQ0gyXVtDSDJdMilbTkhdQyg9TylbTkhdYzNbY0hdW2NIXWMobltjSF0zKU40W0NIMl1bQ0gyXVtDSDJdW0NIMl1bQ0gyXTQ=

> <s_epik_cmdline>
J2VwaWtfcHl0aG9uJywgJy1waCcsICc3LjAnLCAnLXRuJywgJzgnLCAnLW1hJywgJzIwMCcsICctbWV0YWxfYmluZGluZycsICctaW1hZScsICc8aW5maWxlLm1hZT4nLCAnLW9tYWUnLCAnPG91dGZpbGUubWFlPic=

> <r_lp_tautomer_probability>
0.999994

> <r_epik_Ionization_Penalty>
8.55589

> <r_epik_Ionization_Penalty_Charging>
8.55589

> <r_epik_Ionization_Penalty_Neutral>
3.8092e-06

> <r_epik_State_Penalty>
8.15703

> <r_epik_Charging_Adjusted_Penalty>
16.7129

> <i_epik_Tot_Q>
1

> <i_epik_Tot_abs_Q>
3

> <r_epik_Metal_State_Penalty>
4.13781

> <b_epik_Metal_Only>
1

> <s_lp_Force_Field>
OPLS_2005

> <r_lp_Energy>
57.4093

> <b_lp_Chiralities_Consistent>
1

> <s_lp_Variant>
AV-unprocessed.smi:1645-20

> <Gold.Version>
5.8.1

> <Gold.Id.Protein>
6NUR|6NUR_protein|mol2

> <Gold.PLP.Fitness>
44.3331

> <Gold.PLP.PLP>
-35.8715

> <Gold.PLP.part.hbond>
-1.9780

> <Gold.PLP.part.metal>
0.0000

> <Gold.PLP.part.buried>
-7.4786

> <Gold.PLP.part.nonpolar>
-29.0780

> <Gold.PLP.part.repulsive>
0.1370

> <Gold.PLP.ligand.clash>
0.0000

> <Gold.PLP.ligand.torsion>
0.2717

> <Gold.PLP.Chemscore.Hbond>
2.9500

> <Gold.PLP.Chemscore.CHOScore>
0.0000

> <Gold.PLP.Chemscore.Metal>
0.0000

> <Gold.Chemscore.Hbonds>
donor molecule, donor type, donor heavy atom, donor atom, acceptor molecule, acceptor atom, score
      L1  H     3    26       P1  7948  0.99
      L1  H    20    54       P1 10957  2.00

> <Gold.PLP.Chemscore.Internal.Correction>
0.1551

> <Gold.Rescore>
     Score         DG    S(hbond)    S(metal)    S(lipo)     H(rot)  DE(clash)    DE(int)     intcor
     19.18     -20.86       1.88        0.00     103.35       1.17       0.00       1.68       ----

> <Gold.Chemscore.Fitness>
19.1773

> <Gold.Chemscore.DG>
-20.8603

> <Gold.Chemscore.ZeroCoef>
-5.4800

> <Gold.Chemscore.Hbond>
1.8836

> <Gold.Chemscore.Metal>
0.0000

> <Gold.Chemscore.Lipo>
103.3536

> <Gold.Chemscore.Internal_Hbond>
0.0000

> <Gold.Chemscore.DEClash>
0.0024

> <Gold.Chemscore.DEInternal>
1.6806

> <Gold.Chemscore.Rot>
1.1731

> <Gold.Chemscore.Internal.Correction>
   9.000000E+99

> <Gold.Chemscore.Hbonds>
donor molecule, donor type, donor heavy atom, donor atom, acceptor molecule, acceptor atom, score
      L1  H     3    26       P1  7948  0.93
      L1  H    20    54       P1 10957  0.65

> <Gold.Chemscore.Hbond.Weighted>
-6.2912

> <Gold.Chemscore.Metal.Weighted>
-0.0000

> <Gold.Chemscore.Lipo.Weighted>
-12.0924

> <Gold.Chemscore.Internal_Hbond.Weighted>
0.0000

> <Gold.Chemscore.DEClash.Weighted>
0.0024

> <Gold.Chemscore.DEInternal.Weighted>
1.6806

> <Gold.Chemscore.Rot.Weighted>
3.0032

> <Gold.Chemscore.Internal.Correction.Weighted>
   9.000000E+99

> <Gold.Protein.RotatedTorsions>
[ 6907 6896 6895 6894 ] final  115.10 input  -60.11 | X-H torsion
[ 7974 7965 7964 7962 ] final -177.08 input  175.53 | X-H torsion
[ 8008 7997 7996 7995 ] final  -16.76 input   59.86 | X-H torsion
[ 10167 10162 10161 10158 ] final  -84.55 input  -65.29 | X-H torsion
[ 10718 10713 10712 10709 ] final -136.02 input   66.30 | X-H torsion
[ 10763 10752 10751 10750 ] final  134.24 input  -60.55 | X-H torsion
[ 11005 11000 10999 10996 ] final -111.44 input  -57.11 | X-H torsion

> <Gold.Protein.ActiveResidues>
 VAL166  LYS551  ARG553  GLY616  TRP617  ASP618  TYR619  PRO620  LYS621  CYS622 
 ASP623  PHE694  ASN695  SER759  ASP760  ASP761  ALA762  ILE779  LEU786  VAL792 
 PHE793  MET794  SER795  GLU796  ALA797  LYS798  CYS799  TRP800  GLU811  SER814 

> <Gold.Protein.RotatedAtoms>
  152.4762  133.8145  159.7020 H   0  0  0  0  0  0  0  0  0  0  0  0  # atno 6907 bound_to 6896
  150.8781  133.7400  159.2947 H   0  0  0  0  0  0  0  0  0  0  0  0  # atno 6908 bound_to 6896
  151.4913  135.1061  159.9856 H   0  0  0  0  0  0  0  0  0  0  0  0  # atno 6909 bound_to 6896
  144.7127  140.1073  143.6413 H   0  0  0  0  0  0  0  0  0  0  0  0  # atno 7974 bound_to 7965
  154.5029  140.2161  155.9310 H   0  0  0  0  0  0  0  0  0  0  0  0  # atno 8008 bound_to 7997
  156.1456  140.3171  155.8532 H   0  0  0  0  0  0  0  0  0  0  0  0  # atno 8009 bound_to 7997
  155.4036  140.0486  157.3026 H   0  0  0  0  0  0  0  0  0  0  0  0  # atno 8010 bound_to 7997
  140.4122  143.2618  151.9002 H   0  0  0  0  0  0  0  0  0  0  0  0  # atno 10167 bound_to 10162
  156.2725  130.7274  151.1245 H   0  0  0  0  0  0  0  0  0  0  0  0  # atno 10718 bound_to 10713
  153.8203  135.3117  155.3409 H   0  0  0  0  0  0  0  0  0  0  0  0  # atno 10763 bound_to 10752
  154.8015  135.4723  154.0291 H   0  0  0  0  0  0  0  0  0  0  0  0  # atno 10764 bound_to 10752
  153.1698  135.6875  153.8714 H   0  0  0  0  0  0  0  0  0  0  0  0  # atno 10765 bound_to 10752
  141.0734  133.9342  157.2439 H   0  0  0  0  0  0  0  0  0  0  0  0  # atno 11005 bound_to 11000
  145.9485  139.2717  143.1226 LP  0  0  0  0  0  0  0  0  0  0  0  0  # atno 17320 bound_to 7965
  145.9348  140.9022  143.0338 LP  0  0  0  0  0  0  0  0  0  0  0  0  # atno 17321 bound_to 7965
  139.4782  144.5525  151.8364 LP  0  0  0  0  0  0  0  0  0  0  0  0  # atno 17342 bound_to 10162
  140.4625  144.1701  150.5908 LP  0  0  0  0  0  0  0  0  0  0  0  0  # atno 17343 bound_to 10162
  157.7288  131.0629  150.5801 LP  0  0  0  0  0  0  0  0  0  0  0  0  # atno 17370 bound_to 10713
  156.5899  130.4326  149.5941 LP  0  0  0  0  0  0  0  0  0  0  0  0  # atno 17371 bound_to 10713
  139.9546  135.0168  156.9092 LP  0  0  0  0  0  0  0  0  0  0  0  0  # atno 17394 bound_to 11000
  140.5626  134.0521  155.7403 LP  0  0  0  0  0  0  0  0  0  0  0  0  # atno 17395 bound_to 11000

$$$$
