AV-unprocessed.smi:255|AV-procd|sdf|1952|dock8
  -GOLD-   2262021 93D 1   1.00000     0.00000
 Structure written by MMmdl.
 44 47  0  0  0  0  0  0  0  0  1 V2000
  153.3812  138.9753  155.5576 O   0  0  0  0  0  0  0  0  0  0  0  0
  152.1443  138.6816  154.9454 C   0  0  0  0  0  0  0  0  0  0  0  0
  151.1172  139.7898  155.2658 C   0  0  1  0  0  0  0  0  0  0  0  0
  149.7046  139.5326  154.7377 C   0  0  0  0  0  0  0  0  0  0  0  0
  148.8679  140.5442  155.5235 C   0  0  1  0  0  0  0  0  0  0  0  0
  147.6833  140.0329  155.8590 F   0  0  0  0  0  0  0  0  0  0  0  0
  149.7139  140.8961  156.7601 C   0  0  0  0  0  0  0  0  0  0  0  0
  150.9387  140.1001  156.6861 N   0  0  0  0  0  0  0  0  0  0  0  0
  151.0096  139.0550  157.5495 C   0  0  0  0  0  0  0  0  0  0  0  0
  152.2036  138.6624  158.0697 N   0  0  0  0  0  0  0  0  0  0  0  0
  152.2536  137.6580  158.9492 C   0  0  0  0  0  0  0  0  0  0  0  0
  151.2503  136.9261  159.4382 N   0  0  0  0  0  0  0  0  0  0  0  0
  150.0519  137.3113  158.9123 C   0  0  0  0  0  0  0  0  0  0  0  0
  149.8457  138.3597  157.9729 C   0  0  0  0  0  0  0  0  0  0  0  0
  148.4935  138.4801  157.6815 N   0  0  0  0  0  0  0  0  0  0  0  0
  147.9302  137.5588  158.4144 C   0  0  0  0  0  0  0  0  0  0  0  0
  148.7926  136.7956  159.1708 N   0  0  0  0  0  0  0  0  0  0  0  0
  148.4347  135.7183  160.0833 C   0  0  0  0  0  0  0  0  0  0  0  0
  147.3530  136.0742  161.1364 C   0  0  1  0  0  0  0  0  0  0  0  0
  147.8415  137.1940  161.8526 O   0  0  0  0  0  0  0  0  0  0  0  0
  145.9839  136.4455  160.5664 C   0  0  0  0  0  0  0  0  0  0  0  0
  145.0273  136.0186  161.6712 C   0  0  0  0  0  0  0  0  0  0  0  0
  145.6008  134.8020  162.1153 O   0  0  0  0  0  0  0  0  0  0  0  0
  147.0142  134.9644  162.1566 C   0  0  0  0  0  0  0  0  0  0  0  0
  151.4850  140.7113  154.8113 H   0  0  0  0  0  0  0  0  0  0  0  0
  148.6772  141.4386  154.9296 H   0  0  0  0  0  0  0  0  0  0  0  0
  153.8864  138.1783  155.6106 H   0  0  0  0  0  0  0  0  0  0  0  0
  152.2997  138.5750  153.8711 H   0  0  0  0  0  0  0  0  0  0  0  0
  151.7990  137.7196  155.3254 H   0  0  0  0  0  0  0  0  0  0  0  0
  149.6226  139.6660  153.6588 H   0  0  0  0  0  0  0  0  0  0  0  0
  149.3926  138.5144  154.9749 H   0  0  0  0  0  0  0  0  0  0  0  0
  149.9858  141.9518  156.7410 H   0  0  0  0  0  0  0  0  0  0  0  0
  149.1615  140.7314  157.6866 H   0  0  0  0  0  0  0  0  0  0  0  0
  153.2379  137.4077  159.3164 H   0  0  0  0  0  0  0  0  0  0  0  0
  146.8601  137.4114  158.4235 H   0  0  0  0  0  0  0  0  0  0  0  0
  148.1009  134.8697  159.4844 H   0  0  0  0  0  0  0  0  0  0  0  0
  149.3460  135.3905  160.5853 H   0  0  0  0  0  0  0  0  0  0  0  0
  147.7435  137.0241  162.7770 H   0  0  0  0  0  0  0  0  0  0  0  0
  145.8887  137.4991  160.3003 H   0  0  0  0  0  0  0  0  0  0  0  0
  145.7518  135.8621  159.6778 H   0  0  0  0  0  0  0  0  0  0  0  0
  145.0158  136.7434  162.4869 H   0  0  0  0  0  0  0  0  0  0  0  0
  144.0061  135.8778  161.3165 H   0  0  0  0  0  0  0  0  0  0  0  0
  147.4866  134.0107  161.9338 H   0  0  0  0  0  0  0  0  0  0  0  0
  147.3138  135.2376  163.1696 H   0  0  0  0  0  0  0  0  0  0  0  0
  1  2  1  0  0  0  0
  1 27  1  0  0  0  0
  2  3  1  0  0  0  0
  2 28  1  0  0  0  0
  2 29  1  0  0  0  0
  3 25  1  0  0  0  0
  3  8  1  0  0  0  0
  3  4  1  0  0  0  0
  4  5  1  0  0  0  0
  4 30  1  0  0  0  0
  4 31  1  0  0  0  0
  5 26  1  0  0  0  0
  5  6  1  0  0  0  0
  5  7  1  0  0  0  0
  7  8  1  0  0  0  0
  7 32  1  0  0  0  0
  7 33  1  0  0  0  0
  8  9  1  0  0  0  0
  9 14  1  0  0  0  0
  9 10  2  0  0  0  0
 10 11  1  0  0  0  0
 11 12  2  0  0  0  0
 11 34  1  0  0  0  0
 12 13  1  0  0  0  0
 13 17  1  0  0  0  0
 13 14  2  0  0  0  0
 14 15  1  0  0  0  0
 15 16  2  0  0  0  0
 16 17  1  0  0  0  0
 16 35  1  0  0  0  0
 17 18  1  0  0  0  0
 18 19  1  0  0  0  0
 18 36  1  0  0  0  0
 18 37  1  0  0  0  0
 19 24  1  0  0  0  0
 19 20  1  0  0  0  0
 19 21  1  0  0  0  0
 20 38  1  0  0  0  0
 21 22  1  0  0  0  0
 21 39  1  0  0  0  0
 21 40  1  0  0  0  0
 22 23  1  0  0  0  0
 22 41  1  0  0  0  0
 22 42  1  0  0  0  0
 23 24  1  0  0  0  0
 24 43  1  0  0  0  0
 24 44  1  0  0  0  0
M  END
> <s_m_source_file>
AV-unprocessed.smi

> <i_m_source_file_index>
255

> <i_lp_mmshare_version>
43012

> <i_f3d_flags>
0

> <s_epik_input>
W09IXVtDSDJdW0NAQEhdMVtDSDJdW0NASF0oRilbQ0gyXU4xYyhuW2NIXW4yKWMoYzIzKW5bY0hdbjNbQ0gyXVtDQEBdNChbT0hdKVtDSDJdW0NIMl1PW0NIMl00

> <s_epik_cmdline>
J2VwaWtfcHl0aG9uJywgJy1waCcsICc3LjAnLCAnLXRuJywgJzgnLCAnLW1hJywgJzIwMCcsICctbWV0YWxfYmluZGluZycsICctaW1hZScsICc8aW5maWxlLm1hZT4nLCAnLW9tYWUnLCAnPG91dGZpbGUubWFlPic=

> <r_lp_tautomer_probability>
1

> <r_epik_Ionization_Penalty>
0.0058098

> <r_epik_Ionization_Penalty_Charging>
0

> <r_epik_Ionization_Penalty_Neutral>
0.0058098

> <r_epik_State_Penalty>
0.00411166

> <r_epik_Charging_Adjusted_Penalty>
0.00411166

> <i_epik_Tot_Q>
0

> <i_epik_Tot_abs_Q>
0

> <r_epik_Metal_State_Penalty>
-0

> <b_epik_Metal_Only>
0

> <s_lp_Force_Field>
OPLS_2005

> <r_lp_Energy>
52.3077

> <b_lp_Chiralities_Consistent>
1

> <s_lp_Variant>
AV-unprocessed.smi:255-4

> <Gold.Version>
5.8.1

> <Gold.Id.Protein>
6NUR|6NUR_protein|mol2

> <Gold.PLP.Fitness>
43.0902

> <Gold.PLP.PLP>
-34.3258

> <Gold.PLP.part.hbond>
-3.9339

> <Gold.PLP.part.metal>
0.0000

> <Gold.PLP.part.buried>
-5.4853

> <Gold.PLP.part.nonpolar>
-24.7164

> <Gold.PLP.part.repulsive>
0.0000

> <Gold.PLP.ligand.clash>
0.0000

> <Gold.PLP.ligand.torsion>
0.8056

> <Gold.PLP.Chemscore.Hbond>
3.4446

> <Gold.PLP.Chemscore.CHOScore>
0.0000

> <Gold.PLP.Chemscore.Metal>
0.0000

> <Gold.Chemscore.Hbonds>
donor molecule, donor type, donor heavy atom, donor atom, acceptor molecule, acceptor atom, score
      P1  H  6896  6907       L1    12  1.00
      P1  H  6931  6943       L1    20  0.95
      P1  H  6934  6947       L1    20  0.44
      P1  H  7997  8008       L1     1  1.00

> <Gold.PLP.Chemscore.Internal.Correction>
0.0418

> <Gold.Rescore>
     Score         DG    S(hbond)    S(metal)    S(lipo)     H(rot)  DE(clash)    DE(int)     intcor
      6.80     -12.96       2.69        0.00      60.00       3.33       0.00       6.16       ----

> <Gold.Chemscore.Fitness>
6.7964

> <Gold.Chemscore.DG>
-12.9574

> <Gold.Chemscore.ZeroCoef>
-5.4800

> <Gold.Chemscore.Hbond>
2.6871

> <Gold.Chemscore.Metal>
0.0000

> <Gold.Chemscore.Lipo>
60.0029

> <Gold.Chemscore.Internal_Hbond>
0.0000

> <Gold.Chemscore.DEClash>
0.0030

> <Gold.Chemscore.DEInternal>
6.1580

> <Gold.Chemscore.Rot>
3.3273

> <Gold.Chemscore.Internal.Correction>
   9.000000E+99

> <Gold.Chemscore.Hbonds>
donor molecule, donor type, donor heavy atom, donor atom, acceptor molecule, acceptor atom, score
      P1  H  6896  6907       L1    12  0.96
      P1  H  6931  6943       L1    20  0.21
      P1  H  6934  6947       L1    20  0.35
      P1  H  7997  8008       L1     1  0.43

> <Gold.Chemscore.Hbond.Weighted>
-8.9750

> <Gold.Chemscore.Metal.Weighted>
-0.0000

> <Gold.Chemscore.Lipo.Weighted>
-7.0203

> <Gold.Chemscore.Internal_Hbond.Weighted>
0.0000

> <Gold.Chemscore.DEClash.Weighted>
0.0030

> <Gold.Chemscore.DEInternal.Weighted>
6.1580

> <Gold.Chemscore.Rot.Weighted>
8.5179

> <Gold.Chemscore.Internal.Correction.Weighted>
   9.000000E+99

> <Gold.Protein.RotatedTorsions>
[ 6907 6896 6895 6894 ] final   -5.36 input  -60.11 | X-H torsion
[ 7974 7965 7964 7962 ] final  -52.31 input  175.53 | X-H torsion
[ 8008 7997 7996 7995 ] final  -36.02 input   59.86 | X-H torsion
[ 10167 10162 10161 10158 ] final -131.76 input  -65.29 | X-H torsion
[ 10718 10713 10712 10709 ] final -120.17 input   66.30 | X-H torsion
[ 10763 10752 10751 10750 ] final   18.51 input  -60.55 | X-H torsion
[ 11005 11000 10999 10996 ] final   -7.47 input  -57.11 | X-H torsion

> <Gold.Protein.ActiveResidues>
 VAL166  LYS551  ARG553  GLY616  TRP617  ASP618  TYR619  PRO620  LYS621  CYS622 
 ASP623  PHE694  ASN695  SER759  ASP760  ASP761  ALA762  ILE779  LEU786  VAL792 
 PHE793  MET794  SER795  GLU796  ALA797  LYS798  CYS799  TRP800  GLU811  SER814 

> <Gold.Protein.RotatedAtoms>
  151.4829  135.1053  159.9782 H   0  0  0  0  0  0  0  0  0  0  0  0  # atno 6907 bound_to 6896
  152.4772  133.8163  159.7040 H   0  0  0  0  0  0  0  0  0  0  0  0  # atno 6908 bound_to 6896
  150.8818  133.7300  159.2956 H   0  0  0  0  0  0  0  0  0  0  0  0  # atno 6909 bound_to 6896
  145.9094  140.7928  142.9703 H   0  0  0  0  0  0  0  0  0  0  0  0  # atno 7974 bound_to 7965
  154.4082  140.1642  156.2306 H   0  0  0  0  0  0  0  0  0  0  0  0  # atno 8008 bound_to 7997
  155.9286  140.3416  155.6208 H   0  0  0  0  0  0  0  0  0  0  0  0  # atno 8009 bound_to 7997
  155.7134  140.0759  157.2352 H   0  0  0  0  0  0  0  0  0  0  0  0  # atno 8010 bound_to 7997
  139.9156  143.6442  152.2565 H   0  0  0  0  0  0  0  0  0  0  0  0  # atno 10167 bound_to 10162
  156.1237  130.6343  150.9507 H   0  0  0  0  0  0  0  0  0  0  0  0  # atno 10718 bound_to 10713
  153.1243  135.6726  153.9283 H   0  0  0  0  0  0  0  0  0  0  0  0  # atno 10763 bound_to 10752
  153.8789  135.3060  155.3446 H   0  0  0  0  0  0  0  0  0  0  0  0  # atno 10764 bound_to 10752
  154.7650  135.4968  153.9618 H   0  0  0  0  0  0  0  0  0  0  0  0  # atno 10765 bound_to 10752
  140.7131  133.8891  155.8765 H   0  0  0  0  0  0  0  0  0  0  0  0  # atno 11005 bound_to 11000
  144.6742  140.1801  143.7406 LP  0  0  0  0  0  0  0  0  0  0  0  0  # atno 17320 bound_to 7965
  145.8691  139.2262  143.1671 LP  0  0  0  0  0  0  0  0  0  0  0  0  # atno 17321 bound_to 7965
  139.6905  144.7647  151.1447 LP  0  0  0  0  0  0  0  0  0  0  0  0  # atno 17342 bound_to 10162
  140.7675  143.5596  150.9114 LP  0  0  0  0  0  0  0  0  0  0  0  0  # atno 17343 bound_to 10162
  157.6420  131.0909  150.8232 LP  0  0  0  0  0  0  0  0  0  0  0  0  # atno 17370 bound_to 10713
  156.8325  130.5021  149.5330 LP  0  0  0  0  0  0  0  0  0  0  0  0  # atno 17371 bound_to 10713
  141.0067  134.1076  157.4263 LP  0  0  0  0  0  0  0  0  0  0  0  0  # atno 17394 bound_to 11000
  139.8866  135.0083  156.6511 LP  0  0  0  0  0  0  0  0  0  0  0  0  # atno 17395 bound_to 11000

$$$$
