AV-unprocessed.smi:148|AV-procd|sdf|1216|dock1
  -GOLD-   2262018403D 1   1.00000     0.00000
 Structure written by MMmdl.
 63 67  0  0  0  0  0  0  0  0  1 V2000
  142.7339  134.6136  154.4851 O   0  0  0  0  0  0  0  0  0  0  0  0
  143.5272  135.1661  153.4555 C   0  0  0  0  0  0  0  0  0  0  0  0
  144.7568  134.2774  153.1512 C   0  0  2  0  0  0  0  0  0  0  0  0
  146.0360  134.8249  153.8360 C   0  0  0  0  0  0  0  0  0  0  0  0
  146.2604  134.2377  155.1448 N   0  0  0  0  0  0  0  0  0  0  0  0
  145.4096  133.3926  155.8213 C   0  0  0  0  0  0  0  0  0  0  0  0
  145.8250  133.0088  156.9977 N   0  0  0  0  0  0  0  0  0  0  0  0
  147.0559  133.6365  157.1388 C   0  0  0  0  0  0  0  0  0  0  0  0
  148.0270  133.6807  158.1721 C   0  0  0  0  0  0  0  0  0  0  0  0
  147.8544  133.0250  159.3427 N   0  0  0  0  0  0  0  0  0  0  0  0
  148.7620  131.8793  159.4079 C   0  0  0  0  0  0  0  0  0  0  0  0
  148.4496  130.9847  160.6134 C   0  0  0  0  0  0  0  0  0  0  0  0
  148.4857  131.8079  161.9037 C   0  0  0  0  0  0  0  0  0  0  0  0
  147.5076  132.9854  161.8006 C   0  0  0  0  0  0  0  0  0  0  0  0
  147.7856  133.8657  160.5532 C   0  0  2  0  0  0  0  0  0  0  0  0
  146.7828  135.0552  160.4045 C   0  0  1  0  0  0  0  0  0  0  0  0
  145.2851  134.6903  160.4277 C   0  0  0  0  0  0  0  0  0  0  0  0
  144.5483  135.9155  160.9933 C   0  0  0  0  0  0  0  0  0  0  0  0
  145.6188  136.9815  161.2467 C   0  0  0  0  0  0  0  0  0  0  0  0
  146.9098  136.1860  161.4357 C   0  0  2  0  0  0  0  0  0  0  0  0
  148.0489  136.9904  161.2099 O   0  0  0  0  0  0  0  0  0  0  0  0
  149.1516  134.4153  157.9605 N   0  0  0  0  0  0  0  0  0  0  0  0
  149.3057  135.0802  156.8114 C   0  0  0  0  0  0  0  0  0  0  0  0
  148.4765  135.1467  155.7670 N   0  0  0  0  0  0  0  0  0  0  0  0
  147.3531  134.4016  155.9776 C   0  0  0  0  0  0  0  0  0  0  0  0
  144.9317  134.0360  151.6263 C   0  0  2  0  0  0  0  0  0  0  0  0
  143.7415  133.3912  150.9140 C   0  0  0  0  0  0  0  0  0  0  0  0
  144.3712  132.3078  150.0362 C   0  0  0  0  0  0  0  0  0  0  0  0
  145.7347  132.6855  149.9303 O   0  0  0  0  0  0  0  0  0  0  0  0
  146.1225  133.1664  151.2058 C   0  0  0  0  0  0  0  0  0  0  0  0
  142.7411  133.6726  154.3977 H   0  0  0  0  0  0  0  0  0  0  0  0
  142.9174  135.3058  152.5627 H   0  0  0  0  0  0  0  0  0  0  0  0
  143.8309  136.1577  153.7893 H   0  0  0  0  0  0  0  0  0  0  0  0
  144.5559  133.3007  153.5947 H   0  0  0  0  0  0  0  0  0  0  0  0
  146.9234  134.6301  153.2354 H   0  0  0  0  0  0  0  0  0  0  0  0
  145.9791  135.9067  153.9537 H   0  0  0  0  0  0  0  0  0  0  0  0
  144.4601  133.0754  155.4149 H   0  0  0  0  0  0  0  0  0  0  0  0
  148.6855  131.2919  158.4915 H   0  0  0  0  0  0  0  0  0  0  0  0
  149.7915  132.2352  159.4724 H   0  0  0  0  0  0  0  0  0  0  0  0
  147.4660  130.5295  160.4909 H   0  0  0  0  0  0  0  0  0  0  0  0
  149.1688  130.1671  160.6691 H   0  0  0  0  0  0  0  0  0  0  0  0
  148.2309  131.1805  162.7583 H   0  0  0  0  0  0  0  0  0  0  0  0
  149.4962  132.1801  162.0775 H   0  0  0  0  0  0  0  0  0  0  0  0
  146.4923  132.5912  161.7744 H   0  0  0  0  0  0  0  0  0  0  0  0
  147.5880  133.5724  162.7141 H   0  0  0  0  0  0  0  0  0  0  0  0
  148.7782  134.2976  160.6900 H   0  0  0  0  0  0  0  0  0  0  0  0
  146.9595  135.5324  159.4392 H   0  0  0  0  0  0  0  0  0  0  0  0
  144.9296  134.4449  159.4270 H   0  0  0  0  0  0  0  0  0  0  0  0
  145.0830  133.8235  161.0551 H   0  0  0  0  0  0  0  0  0  0  0  0
  143.7751  136.2777  160.3149 H   0  0  0  0  0  0  0  0  0  0  0  0
  144.0599  135.6487  161.9314 H   0  0  0  0  0  0  0  0  0  0  0  0
  145.7005  137.6242  160.3686 H   0  0  0  0  0  0  0  0  0  0  0  0
  145.3859  137.6171  162.1015 H   0  0  0  0  0  0  0  0  0  0  0  0
  146.9325  135.8005  162.4539 H   0  0  0  0  0  0  0  0  0  0  0  0
  148.5060  136.6577  160.4527 H   0  0  0  0  0  0  0  0  0  0  0  0
  150.2224  135.6436  156.7169 H   0  0  0  0  0  0  0  0  0  0  0  0
  145.0692  135.0038  151.1427 H   0  0  0  0  0  0  0  0  0  0  0  0
  142.9959  132.9694  151.5870 H   0  0  0  0  0  0  0  0  0  0  0  0
  143.2324  134.1334  150.2982 H   0  0  0  0  0  0  0  0  0  0  0  0
  144.3053  131.3335  150.5229 H   0  0  0  0  0  0  0  0  0  0  0  0
  143.8990  132.2325  149.0566 H   0  0  0  0  0  0  0  0  0  0  0  0
  147.0547  133.7294  151.1537 H   0  0  0  0  0  0  0  0  0  0  0  0
  146.2755  132.3147  151.8681 H   0  0  0  0  0  0  0  0  0  0  0  0
  1  2  1  0  0  0  0
  1 31  1  0  0  0  0
  2  3  1  0  0  0  0
  2 32  1  0  0  0  0
  2 33  1  0  0  0  0
  3  4  1  0  0  0  0
  3 26  1  0  0  0  0
  3 34  1  0  0  0  0
  4  5  1  0  0  0  0
  4 35  1  0  0  0  0
  4 36  1  0  0  0  0
  5 25  1  0  0  0  0
  5  6  1  0  0  0  0
  6  7  2  0  0  0  0
  6 37  1  0  0  0  0
  7  8  1  0  0  0  0
  8 25  2  0  0  0  0
  8  9  1  0  0  0  0
  9 10  1  0  0  0  0
  9 22  2  0  0  0  0
 10 15  1  0  0  0  0
 10 11  1  0  0  0  0
 11 12  1  0  0  0  0
 11 38  1  0  0  0  0
 11 39  1  0  0  0  0
 12 13  1  0  0  0  0
 12 40  1  0  0  0  0
 12 41  1  0  0  0  0
 13 14  1  0  0  0  0
 13 42  1  0  0  0  0
 13 43  1  0  0  0  0
 14 15  1  0  0  0  0
 14 44  1  0  0  0  0
 14 45  1  0  0  0  0
 15 16  1  0  0  0  0
 15 46  1  0  0  0  0
 16 20  1  0  0  0  0
 16 17  1  0  0  0  0
 16 47  1  0  0  0  0
 17 18  1  0  0  0  0
 17 48  1  0  0  0  0
 17 49  1  0  0  0  0
 18 19  1  0  0  0  0
 18 50  1  0  0  0  0
 18 51  1  0  0  0  0
 19 20  1  0  0  0  0
 19 52  1  0  0  0  0
 19 53  1  0  0  0  0
 20 21  1  0  0  0  0
 20 54  1  0  0  0  0
 21 55  1  0  0  0  0
 22 23  1  0  0  0  0
 23 24  2  0  0  0  0
 23 56  1  0  0  0  0
 24 25  1  0  0  0  0
 26 30  1  0  0  0  0
 26 27  1  0  0  0  0
 26 57  1  0  0  0  0
 27 28  1  0  0  0  0
 27 58  1  0  0  0  0
 27 59  1  0  0  0  0
 28 29  1  0  0  0  0
 28 60  1  0  0  0  0
 28 61  1  0  0  0  0
 29 30  1  0  0  0  0
 30 62  1  0  0  0  0
 30 63  1  0  0  0  0
M  END
> <s_m_source_file>
AV-unprocessed.smi

> <i_m_source_file_index>
148

> <i_lp_mmshare_version>
43012

> <i_f3d_flags>
0

> <s_epik_input>
W0NIMl0xT1tDSDJdW0NIMl1bQ0BIXTFbQ0BIXShbQ0gyXVtPSF0pW0NIMl1uKFtjSF1uMiljKGMyMyluW2NIXW5jM040W0NIMl1bQ0gyXVtDSDJdW0NIMl1bQ0BIXTRbQ0BASF01W0NIMl1bQ0gyXVtDSDJdW0NASF01W09IXQ==

> <s_epik_cmdline>
J2VwaWtfcHl0aG9uJywgJy1waCcsICc3LjAnLCAnLXRuJywgJzgnLCAnLW1hJywgJzIwMCcsICctbWV0YWxfYmluZGluZycsICctaW1hZScsICc8aW5maWxlLm1hZT4nLCAnLW9tYWUnLCAnPG91dGZpbGUubWFlPic=

> <r_lp_tautomer_probability>
1

> <r_epik_Ionization_Penalty>
0.00556303

> <r_epik_Ionization_Penalty_Charging>
0

> <r_epik_Ionization_Penalty_Neutral>
0.00556303

> <r_epik_State_Penalty>
0.00401767

> <r_epik_Charging_Adjusted_Penalty>
0.00401767

> <i_epik_Tot_Q>
0

> <i_epik_Tot_abs_Q>
0

> <r_epik_Metal_State_Penalty>
-0

> <b_epik_Metal_Only>
0

> <s_lp_Force_Field>
OPLS_2005

> <r_lp_Energy>
68.7662

> <b_lp_Chiralities_Consistent>
1

> <s_lp_Variant>
AV-unprocessed.smi:148-15

> <Gold.Version>
5.8.1

> <Gold.Id.Protein>
6NUR|6NUR_protein|mol2

> <Gold.PLP.Fitness>
44.2472

> <Gold.PLP.PLP>
-32.5025

> <Gold.PLP.part.hbond>
-4.0000

> <Gold.PLP.part.metal>
0.0000

> <Gold.PLP.part.buried>
-6.1681

> <Gold.PLP.part.nonpolar>
-22.1236

> <Gold.PLP.part.repulsive>
0.2675

> <Gold.PLP.ligand.clash>
0.0000

> <Gold.PLP.ligand.torsion>
1.4302

> <Gold.PLP.Chemscore.Hbond>
3.7137

> <Gold.PLP.Chemscore.CHOScore>
1.0000

> <Gold.PLP.Chemscore.Metal>
0.0000

> <Gold.Chemscore.Hbonds>
donor molecule, donor type, donor heavy atom, donor atom, acceptor molecule, acceptor atom, score
      L1  H     1    31       P1 10957  1.00
      P1  H  6896  6909       L1    22  0.83
      P1  H  6931  6943       L1    21  1.00
      P1  H  6934  6947       L1    21  0.37
      L1  C     6    37       P1 10957  1.00

> <Gold.PLP.Chemscore.Internal.Correction>
0.4640

> <Gold.Rescore>
     Score         DG    S(hbond)    S(metal)    S(lipo)     H(rot)  DE(clash)    DE(int)     intcor
     15.75     -17.31       2.91        0.00      90.82       3.32       0.01       1.55       ----

> <Gold.Chemscore.Fitness>
15.7536

> <Gold.Chemscore.DG>
-17.3104

> <Gold.Chemscore.ZeroCoef>
-5.4800

> <Gold.Chemscore.Hbond>
2.9056

> <Gold.Chemscore.Metal>
0.0000

> <Gold.Chemscore.Lipo>
90.8184

> <Gold.Chemscore.Internal_Hbond>
0.0000

> <Gold.Chemscore.DEClash>
0.0073

> <Gold.Chemscore.DEInternal>
1.5495

> <Gold.Chemscore.Rot>
3.3203

> <Gold.Chemscore.Internal.Correction>
   9.000000E+99

> <Gold.Chemscore.Hbonds>
donor molecule, donor type, donor heavy atom, donor atom, acceptor molecule, acceptor atom, score
      L1  H     1    31       P1 10957  0.99
      P1  H  6896  6909       L1    22  0.70
      P1  H  6931  6943       L1    21  0.59
      P1  H  6934  6947       L1    21  0.15

> <Gold.Chemscore.Hbond.Weighted>
-9.7047

> <Gold.Chemscore.Metal.Weighted>
-0.0000

> <Gold.Chemscore.Lipo.Weighted>
-10.6257

> <Gold.Chemscore.Internal_Hbond.Weighted>
0.0000

> <Gold.Chemscore.DEClash.Weighted>
0.0073

> <Gold.Chemscore.DEInternal.Weighted>
1.5495

> <Gold.Chemscore.Rot.Weighted>
8.5000

> <Gold.Chemscore.Internal.Correction.Weighted>
   9.000000E+99

> <Gold.Protein.RotatedTorsions>
[ 6907 6896 6895 6894 ] final   11.75 input  -60.11 | X-H torsion
[ 7974 7965 7964 7962 ] final  -61.86 input  175.53 | X-H torsion
[ 8008 7997 7996 7995 ] final   12.09 input   59.86 | X-H torsion
[ 10167 10162 10161 10158 ] final  142.40 input  -65.29 | X-H torsion
[ 10718 10713 10712 10709 ] final  -32.04 input   66.30 | X-H torsion
[ 10763 10752 10751 10750 ] final   54.32 input  -60.55 | X-H torsion
[ 11005 11000 10999 10996 ] final   -0.71 input  -57.11 | X-H torsion

> <Gold.Protein.ActiveResidues>
 VAL166  LYS551  ARG553  GLY616  TRP617  ASP618  TYR619  PRO620  LYS621  CYS622 
 ASP623  PHE694  ASN695  SER759  ASP760  ASP761  ALA762  ILE779  LEU786  VAL792 
 PHE793  MET794  SER795  GLU796  ALA797  LYS798  CYS799  TRP800  GLU811  SER814 

> <Gold.Protein.RotatedAtoms>
  151.7593  135.0814  160.0342 H   0  0  0  0  0  0  0  0  0  0  0  0  # atno 6907 bound_to 6896
  152.3364  133.6012  159.5854 H   0  0  0  0  0  0  0  0  0  0  0  0  # atno 6908 bound_to 6896
  150.7453  133.9705  159.3586 H   0  0  0  0  0  0  0  0  0  0  0  0  # atno 6909 bound_to 6896
  145.7984  140.8669  143.0244 H   0  0  0  0  0  0  0  0  0  0  0  0  # atno 7974 bound_to 7965
  154.8158  140.2876  155.5821 H   0  0  0  0  0  0  0  0  0  0  0  0  # atno 8008 bound_to 7997
  156.2993  140.2559  156.2986 H   0  0  0  0  0  0  0  0  0  0  0  0  # atno 8009 bound_to 7997
  154.9395  140.0381  157.2078 H   0  0  0  0  0  0  0  0  0  0  0  0  # atno 8010 bound_to 7997
  139.4995  144.6109  151.6274 H   0  0  0  0  0  0  0  0  0  0  0  0  # atno 10167 bound_to 10162
  156.3797  130.4354  149.7478 H   0  0  0  0  0  0  0  0  0  0  0  0  # atno 10718 bound_to 10713
  152.9803  135.5749  154.4885 H   0  0  0  0  0  0  0  0  0  0  0  0  # atno 10763 bound_to 10752
  154.4423  135.2776  155.1841 H   0  0  0  0  0  0  0  0  0  0  0  0  # atno 10764 bound_to 10752
  154.3503  135.6210  153.5693 H   0  0  0  0  0  0  0  0  0  0  0  0  # atno 10765 bound_to 10752
  140.6392  133.9504  155.8317 H   0  0  0  0  0  0  0  0  0  0  0  0  # atno 11005 bound_to 11000
  144.6772  140.0223  143.7483 LP  0  0  0  0  0  0  0  0  0  0  0  0  # atno 17320 bound_to 7965
  145.9904  139.3010  143.0988 LP  0  0  0  0  0  0  0  0  0  0  0  0  # atno 17321 bound_to 7965
  140.5783  143.9990  150.6254 LP  0  0  0  0  0  0  0  0  0  0  0  0  # atno 17342 bound_to 10162
  140.3130  143.3185  152.0860 LP  0  0  0  0  0  0  0  0  0  0  0  0  # atno 17343 bound_to 10162
  156.4574  130.7935  151.2956 LP  0  0  0  0  0  0  0  0  0  0  0  0  # atno 17370 bound_to 10713
  157.7491  131.0076  150.3198 LP  0  0  0  0  0  0  0  0  0  0  0  0  # atno 17371 bound_to 10713
  141.0619  134.0334  157.3647 LP  0  0  0  0  0  0  0  0  0  0  0  0  # atno 17394 bound_to 11000
  139.9086  135.0185  156.7596 LP  0  0  0  0  0  0  0  0  0  0  0  0  # atno 17395 bound_to 11000

$$$$
