AV-unprocessed.smi:1517|AV-procd|sdf|6122|dock9
  -GOLD-   22720 6253D 1   1.00000     0.00000
 Structure written by MMmdl.
 41 43  0  0  0  0  0  0  0  0  1 V2000
  152.1904  137.2101  155.1435 O   0  0  0  0  0  0  0  0  0  0  0  0
  151.0062  137.8767  154.7659 C   0  0  0  0  0  0  0  0  0  0  0  0
  151.1297  139.3749  155.0769 C   0  0  0  0  0  0  0  0  0  0  0  0
  151.5420  139.6204  156.4470 N   0  0  0  0  0  0  0  0  0  0  0  0
  151.7194  140.7962  157.1668 C   0  0  0  0  0  0  0  0  0  0  0  0
  151.5142  142.0108  156.6607 N   0  0  0  0  0  0  0  0  0  0  0  0
  151.8131  142.8304  157.7325 C   0  0  0  0  0  0  0  0  0  0  0  0
  151.7887  144.2389  157.8458 C   0  0  0  0  0  0  0  0  0  0  0  0
  152.1394  144.8637  159.0606 C   0  0  0  0  0  0  0  0  0  0  0  0
  152.5195  144.0914  160.1773 C   0  0  0  0  0  0  0  0  0  0  0  0
  152.5506  142.6865  160.0867 C   0  0  0  0  0  0  0  0  0  0  0  0
  152.1990  142.0673  158.8724 C   0  0  0  0  0  0  0  0  0  0  0  0
  152.1194  140.7406  158.4601 N   0  0  0  0  0  0  0  0  0  0  0  0
  152.4034  139.5681  159.2780 C   0  0  0  0  0  0  0  0  0  0  0  0
  153.8710  139.5297  159.7477 C   0  0  2  0  0  0  0  0  0  0  0  0
  154.6681  139.1007  158.6622 O   0  0  0  0  0  0  0  0  0  0  0  0
  154.0642  138.6647  160.9889 C   0  0  0  0  0  0  0  0  0  0  0  0
  153.7099  137.2969  160.9691 C   0  0  0  0  0  0  0  0  0  0  0  0
  153.8859  136.4987  162.1157 C   0  0  0  0  0  0  0  0  0  0  0  0
  154.4096  137.0637  163.2936 C   0  0  0  0  0  0  0  0  0  0  0  0
  154.5758  136.2971  164.3972 F   0  0  0  0  0  0  0  0  0  0  0  0
  154.7535  138.4280  163.3250 C   0  0  0  0  0  0  0  0  0  0  0  0
  154.5827  139.2272  162.1780 C   0  0  0  0  0  0  0  0  0  0  0  0
  154.9143  140.5399  162.2288 F   0  0  0  0  0  0  0  0  0  0  0  0
  152.6364  137.7375  155.7884 H   0  0  0  0  0  0  0  0  0  0  0  0
  150.8833  137.7354  153.6919 H   0  0  0  0  0  0  0  0  0  0  0  0
  150.1387  137.4253  155.2494 H   0  0  0  0  0  0  0  0  0  0  0  0
  151.8113  139.8696  154.3841 H   0  0  0  0  0  0  0  0  0  0  0  0
  150.1561  139.8481  154.9453 H   0  0  0  0  0  0  0  0  0  0  0  0
  151.7414  138.7773  156.9655 H   0  0  0  0  0  0  0  0  0  0  0  0
  151.4987  144.8397  156.9965 H   0  0  0  0  0  0  0  0  0  0  0  0
  152.1169  145.9409  159.1361 H   0  0  0  0  0  0  0  0  0  0  0  0
  152.7867  144.5781  161.1040 H   0  0  0  0  0  0  0  0  0  0  0  0
  152.8396  142.0917  160.9405 H   0  0  0  0  0  0  0  0  0  0  0  0
  151.7212  139.5293  160.1279 H   0  0  0  0  0  0  0  0  0  0  0  0
  152.1835  138.6862  158.6746 H   0  0  0  0  0  0  0  0  0  0  0  0
  154.1977  140.5455  159.9722 H   0  0  0  0  0  0  0  0  0  0  0  0
  155.2708  138.4430  158.9746 H   0  0  0  0  0  0  0  0  0  0  0  0
  153.3009  136.8529  160.0732 H   0  0  0  0  0  0  0  0  0  0  0  0
  153.6155  135.4533  162.0926 H   0  0  0  0  0  0  0  0  0  0  0  0
  155.1494  138.8633  164.2306 H   0  0  0  0  0  0  0  0  0  0  0  0
  1  2  1  0  0  0  0
  1 25  1  0  0  0  0
  2  3  1  0  0  0  0
  2 26  1  0  0  0  0
  2 27  1  0  0  0  0
  3  4  1  0  0  0  0
  3 28  1  0  0  0  0
  3 29  1  0  0  0  0
  4  5  1  0  0  0  0
  4 30  1  0  0  0  0
  5 13  1  0  0  0  0
  5  6  2  0  0  0  0
  6  7  1  0  0  0  0
  7 12  2  0  0  0  0
  7  8  1  0  0  0  0
  8  9  2  0  0  0  0
  8 31  1  0  0  0  0
  9 10  1  0  0  0  0
  9 32  1  0  0  0  0
 10 11  2  0  0  0  0
 10 33  1  0  0  0  0
 11 12  1  0  0  0  0
 11 34  1  0  0  0  0
 12 13  1  0  0  0  0
 13 14  1  0  0  0  0
 14 15  1  0  0  0  0
 14 35  1  0  0  0  0
 14 36  1  0  0  0  0
 15 16  1  0  0  0  0
 15 17  1  0  0  0  0
 15 37  1  0  0  0  0
 16 38  1  0  0  0  0
 17 23  1  0  0  0  0
 17 18  2  0  0  0  0
 18 19  1  0  0  0  0
 18 39  1  0  0  0  0
 19 20  2  0  0  0  0
 19 40  1  0  0  0  0
 20 21  1  0  0  0  0
 20 22  1  0  0  0  0
 22 23  2  0  0  0  0
 22 41  1  0  0  0  0
 23 24  1  0  0  0  0
M  END
> <s_m_source_file>
AV-unprocessed.smi

> <i_m_source_file_index>
1517

> <i_lp_mmshare_version>
43012

> <i_f3d_flags>
0

> <s_epik_input>
W09IXVtDSDJdW0NIMl1bTkhdYyhuMSluKGMoYzEyKVtjSF1bY0hdW2NIXVtjSF0yKVtDSDJdW0NASF0oW09IXSljM1tjSF1bY0hdYyhGKVtjSF1jM0Y=

> <s_epik_cmdline>
J2VwaWtfcHl0aG9uJywgJy1waCcsICc3LjAnLCAnLXRuJywgJzgnLCAnLW1hJywgJzIwMCcsICctbWV0YWxfYmluZGluZycsICctaW1hZScsICc8aW5maWxlLm1hZT4nLCAnLW9tYWUnLCAnPG91dGZpbGUubWFlPic=

> <r_epik_Ionization_Penalty>
1.30972

> <r_epik_Ionization_Penalty_Charging>
0

> <r_epik_Ionization_Penalty_Neutral>
1.30972

> <r_epik_State_Penalty>
1.38438

> <r_epik_Charging_Adjusted_Penalty>
1.38438

> <i_epik_Tot_Q>
0

> <i_epik_Tot_abs_Q>
0

> <r_epik_Metal_State_Penalty>
0.00551145

> <b_epik_Metal_Only>
0

> <s_lp_Force_Field>
OPLS_2005

> <r_lp_Energy>
9.55996

> <b_lp_Chiralities_Consistent>
1

> <s_lp_Variant>
AV-unprocessed.smi:1517-3

> <Gold.Version>
5.8.1

> <Gold.Id.Protein>
6NUR|6NUR_protein|mol2

> <Gold.PLP.Fitness>
56.9225

> <Gold.PLP.PLP>
-51.5463

> <Gold.PLP.part.hbond>
-2.0000

> <Gold.PLP.part.metal>
0.0000

> <Gold.PLP.part.buried>
-3.7224

> <Gold.PLP.part.nonpolar>
-45.5689

> <Gold.PLP.part.repulsive>
0.1658

> <Gold.PLP.ligand.clash>
0.0000

> <Gold.PLP.ligand.torsion>
0.2247

> <Gold.PLP.Chemscore.Hbond>
1.9280

> <Gold.PLP.Chemscore.CHOScore>
0.0000

> <Gold.PLP.Chemscore.Metal>
0.0000

> <Gold.Chemscore.Hbonds>
donor molecule, donor type, donor heavy atom, donor atom, acceptor molecule, acceptor atom, score
      P1  H  7997  8010       L1    16  1.00
      P1  H 10752 10763       L1     1  0.82

> <Gold.PLP.Chemscore.Internal.Correction>
0.0415

> <Gold.Rescore>
     Score         DG    S(hbond)    S(metal)    S(lipo)     H(rot)  DE(clash)    DE(int)     intcor
     18.84     -19.11       1.88        0.00     133.29       3.22       0.03       0.24       ----

> <Gold.Chemscore.Fitness>
18.8385

> <Gold.Chemscore.DG>
-19.1128

> <Gold.Chemscore.ZeroCoef>
-5.4800

> <Gold.Chemscore.Hbond>
1.8802

> <Gold.Chemscore.Metal>
0.0000

> <Gold.Chemscore.Lipo>
133.2855

> <Gold.Chemscore.Internal_Hbond>
0.0000

> <Gold.Chemscore.DEClash>
0.0338

> <Gold.Chemscore.DEInternal>
0.2405

> <Gold.Chemscore.Rot>
3.2194

> <Gold.Chemscore.Internal.Correction>
   9.000000E+99

> <Gold.Chemscore.Hbonds>
donor molecule, donor type, donor heavy atom, donor atom, acceptor molecule, acceptor atom, score
      P1  H  7997  8010       L1    16  0.98
      P1  H 10752 10763       L1     1  0.79

> <Gold.Chemscore.Hbond.Weighted>
-6.2800

> <Gold.Chemscore.Metal.Weighted>
-0.0000

> <Gold.Chemscore.Lipo.Weighted>
-15.5944

> <Gold.Chemscore.Internal_Hbond.Weighted>
0.0000

> <Gold.Chemscore.DEClash.Weighted>
0.0338

> <Gold.Chemscore.DEInternal.Weighted>
0.2405

> <Gold.Chemscore.Rot.Weighted>
8.2416

> <Gold.Chemscore.Internal.Correction.Weighted>
   9.000000E+99

> <Gold.Protein.RotatedTorsions>
[ 6907 6896 6895 6894 ] final  -92.58 input  -60.11 | X-H torsion
[ 7974 7965 7964 7962 ] final -176.77 input  175.53 | X-H torsion
[ 8008 7997 7996 7995 ] final   18.88 input   59.86 | X-H torsion
[ 10167 10162 10161 10158 ] final  -21.39 input  -65.29 | X-H torsion
[ 10718 10713 10712 10709 ] final   15.97 input   66.30 | X-H torsion
[ 10763 10752 10751 10750 ] final   60.17 input  -60.55 | X-H torsion
[ 11005 11000 10999 10996 ] final  100.86 input  -57.11 | X-H torsion

> <Gold.Protein.ActiveResidues>
 VAL166  LYS551  ARG553  GLY616  TRP617  ASP618  TYR619  PRO620  LYS621  CYS622 
 ASP623  PHE694  ASN695  SER759  ASP760  ASP761  ALA762  ILE779  LEU786  VAL792 
 PHE793  MET794  SER795  GLU796  ALA797  LYS798  CYS799  TRP800  GLU811  SER814 

> <Gold.Protein.RotatedAtoms>
  150.6908  134.2100  159.4355 H   0  0  0  0  0  0  0  0  0  0  0  0  # atno 6907 bound_to 6896
  152.0062  134.9899  160.0576 H   0  0  0  0  0  0  0  0  0  0  0  0  # atno 6908 bound_to 6896
  152.1532  133.4500  159.4860 H   0  0  0  0  0  0  0  0  0  0  0  0  # atno 6909 bound_to 6896
  144.7127  140.1120  143.6410 H   0  0  0  0  0  0  0  0  0  0  0  0  # atno 7974 bound_to 7965
  154.9125  140.3016  155.5258 H   0  0  0  0  0  0  0  0  0  0  0  0  # atno 8008 bound_to 7997
  156.3014  140.2386  156.4102 H   0  0  0  0  0  0  0  0  0  0  0  0  # atno 8009 bound_to 7997
  154.8411  140.0414  157.1530 H   0  0  0  0  0  0  0  0  0  0  0  0  # atno 8010 bound_to 7997
  140.7281  143.4632  151.0350 H   0  0  0  0  0  0  0  0  0  0  0  0  # atno 10167 bound_to 10162
  157.0611  130.6309  149.5786 H   0  0  0  0  0  0  0  0  0  0  0  0  # atno 10718 bound_to 10713
  152.9913  135.5546  154.5830 H   0  0  0  0  0  0  0  0  0  0  0  0  # atno 10763 bound_to 10752
  154.5207  135.2807  155.1267 H   0  0  0  0  0  0  0  0  0  0  0  0  # atno 10764 bound_to 10752
  154.2621  135.6379  153.5331 H   0  0  0  0  0  0  0  0  0  0  0  0  # atno 10765 bound_to 10752
  139.8772  134.9158  156.4820 H   0  0  0  0  0  0  0  0  0  0  0  0  # atno 11005 bound_to 11000
  145.9446  139.2692  143.1248 LP  0  0  0  0  0  0  0  0  0  0  0  0  # atno 17320 bound_to 7965
  145.9387  140.8995  143.0319 LP  0  0  0  0  0  0  0  0  0  0  0  0  # atno 17321 bound_to 7965
  139.8319  143.7680  152.3180 LP  0  0  0  0  0  0  0  0  0  0  0  0  # atno 17342 bound_to 10162
  139.7798  144.7448  151.0104 LP  0  0  0  0  0  0  0  0  0  0  0  0  # atno 17343 bound_to 10162
  155.9978  130.5051  150.7548 LP  0  0  0  0  0  0  0  0  0  0  0  0  # atno 17370 bound_to 10713
  157.4954  131.0914  151.0378 LP  0  0  0  0  0  0  0  0  0  0  0  0  # atno 17371 bound_to 10713
  140.8720  133.7981  155.9375 LP  0  0  0  0  0  0  0  0  0  0  0  0  # atno 17394 bound_to 11000
  140.8942  134.2457  157.5077 LP  0  0  0  0  0  0  0  0  0  0  0  0  # atno 17395 bound_to 11000

$$$$
