AV-unprocessed.smi:1469|AV-procd|sdf|5959|dock5
  -GOLD-   22720 6 43D 1   1.00000     0.00000
 Structure written by MMmdl.
 41 42  0  0  0  0  0  0  0  0  2 V2000
  149.2504  132.8449  153.3981 C   0  0  0  0  0  0  0  0  0  0  0  0
  147.9784  133.4615  154.0160 C   0  0  1  0  0  0  0  0  0  0  0  0
  148.3411  134.4669  155.1390 C   0  0  0  0  0  0  0  0  0  0  0  0
  149.2220  135.5444  154.6908 N   0  0  0  0  0  0  0  0  0  0  0  0
  150.4052  135.8615  155.2384 C   0  0  0  0  0  0  0  0  0  0  0  0
  150.8982  135.2431  156.1823 O   0  0  0  0  0  0  0  0  0  0  0  0
  151.1465  137.0439  154.5982 C   0  0  0  0  0  0  0  0  0  0  0  0
  150.5609  138.3520  154.9359 N   0  0  0  0  0  0  0  0  0  0  0  0
  149.2181  138.5692  154.5670 C   0  0  0  0  0  0  0  0  0  0  0  0
  148.5887  139.7262  154.8269 C   0  0  0  0  0  0  0  0  0  0  0  0
  149.3250  140.7661  155.5058 C   0  0  0  0  0  0  0  0  0  0  0  0
  150.6106  140.5699  155.8604 C   0  0  0  0  0  0  0  0  0  0  0  0
  151.3035  139.3080  155.5754 C   0  0  0  0  0  0  0  0  0  0  0  0
  152.4791  139.1209  155.8911 O   0  0  0  0  0  0  0  0  0  0  0  0
  147.1085  134.0806  152.9741 N   0  3  0  0  0  0  0  0  0  0  0  0
  146.7629  133.2126  151.8278 C   0  0  0  0  0  0  0  0  0  0  0  0
  145.5317  133.8581  151.2033 C   0  0  0  0  0  0  0  0  0  0  0  0
  144.7595  134.3682  152.4146 C   0  0  0  0  0  0  0  0  0  0  0  0
  145.8329  134.6532  153.4746 C   0  0  0  0  0  0  0  0  0  0  0  0
  149.9199  132.4706  154.1731 H   0  0  0  0  0  0  0  0  0  0  0  0
  149.8046  133.5736  152.8065 H   0  0  0  0  0  0  0  0  0  0  0  0
  149.0182  131.9999  152.7500 H   0  0  0  0  0  0  0  0  0  0  0  0
  147.4184  132.6451  154.4751 H   0  0  0  0  0  0  0  0  0  0  0  0
  147.4347  134.9357  155.5225 H   0  0  0  0  0  0  0  0  0  0  0  0
  148.7729  133.9435  155.9940 H   0  0  0  0  0  0  0  0  0  0  0  0
  148.8928  136.1133  153.9241 H   0  0  0  0  0  0  0  0  0  0  0  0
  152.1899  136.9989  154.9128 H   0  0  0  0  0  0  0  0  0  0  0  0
  151.1699  136.9148  153.5142 H   0  0  0  0  0  0  0  0  0  0  0  0
  148.7405  137.7449  154.0578 H   0  0  0  0  0  0  0  0  0  0  0  0
  147.5601  139.8763  154.5335 H   0  0  0  0  0  0  0  0  0  0  0  0
  148.8435  141.7065  155.7296 H   0  0  0  0  0  0  0  0  0  0  0  0
  151.1461  141.3596  156.3670 H   0  0  0  0  0  0  0  0  0  0  0  0
  147.5852  133.1282  151.1167 H   0  0  0  0  0  0  0  0  0  0  0  0
  146.5133  132.2115  152.1839 H   0  0  0  0  0  0  0  0  0  0  0  0
  145.8321  134.6971  150.5737 H   0  0  0  0  0  0  0  0  0  0  0  0
  144.9533  133.1660  150.5902 H   0  0  0  0  0  0  0  0  0  0  0  0
  144.1551  135.2458  152.1830 H   0  0  0  0  0  0  0  0  0  0  0  0
  144.0864  133.5889  152.7749 H   0  0  0  0  0  0  0  0  0  0  0  0
  145.5362  134.2079  154.4253 H   0  0  0  0  0  0  0  0  0  0  0  0
  145.9586  135.7245  153.6353 H   0  0  0  0  0  0  0  0  0  0  0  0
  147.6264  134.8546  152.5829 H   0  0  0  0  0  0  0  0  0  0  0  0
  1  2  1  0  0  0  0
  1 20  1  0  0  0  0
  1 21  1  0  0  0  0
  1 22  1  0  0  0  0
  2  3  1  0  0  0  0
  2 15  1  0  0  0  0
  2 23  1  0  0  0  0
  3  4  1  0  0  0  0
  3 24  1  0  0  0  0
  3 25  1  0  0  0  0
  4  5  1  0  0  0  0
  4 26  1  0  0  0  0
  5  6  2  0  0  0  0
  5  7  1  0  0  0  0
  7  8  1  0  0  0  0
  7 27  1  0  0  0  0
  7 28  1  0  0  0  0
  8 13  1  0  0  0  0
  8  9  1  0  0  0  0
  9 10  2  0  0  0  0
  9 29  1  0  0  0  0
 10 11  1  0  0  0  0
 10 30  1  0  0  0  0
 11 12  2  0  0  0  0
 11 31  1  0  0  0  0
 12 13  1  0  0  0  0
 12 32  1  0  0  0  0
 13 14  2  0  0  0  0
 15 19  1  0  0  0  0
 15 16  1  0  0  0  0
 15 41  1  0  0  0  0
 16 17  1  0  0  0  0
 16 33  1  0  0  0  0
 16 34  1  0  0  0  0
 17 18  1  0  0  0  0
 17 35  1  0  0  0  0
 17 36  1  0  0  0  0
 18 19  1  0  0  0  0
 18 37  1  0  0  0  0
 18 38  1  0  0  0  0
 19 39  1  0  0  0  0
 19 40  1  0  0  0  0
M  CHG  1  15   1
M  END
> <s_m_source_file>
AV-unprocessed.smi

> <i_m_source_file_index>
1469

> <i_lp_mmshare_version>
43012

> <i_f3d_flags>
0

> <s_epik_input>
W0NIMl0xW0NIMl1bQ0gyXVtDSDJdTjFbQ0BIXShbQ0gzXSlbQ0gyXVtOSF1DKD1PKVtDSDJdbjJbY0hdW2NIXVtjSF1bY0hdYzI9Tw==

> <s_epik_cmdline>
J2VwaWtfcHl0aG9uJywgJy1waCcsICc3LjAnLCAnLXRuJywgJzgnLCAnLW1hJywgJzIwMCcsICctbWV0YWxfYmluZGluZycsICctaW1hZScsICc8aW5maWxlLm1hZT4nLCAnLW9tYWUnLCAnPG91dGZpbGUubWFlPic=

> <r_lp_tautomer_probability>
1

> <r_epik_Ionization_Penalty>
0.00497231

> <r_epik_Ionization_Penalty_Charging>
0.00497223

> <r_epik_Ionization_Penalty_Neutral>
8.2288e-08

> <r_epik_State_Penalty>
0.0036131

> <r_epik_Charging_Adjusted_Penalty>
0.00858533

> <i_epik_Tot_Q>
1

> <i_epik_Tot_abs_Q>
1

> <r_epik_Metal_State_Penalty>
-0

> <b_epik_Metal_Only>
0

> <s_lp_Force_Field>
OPLS_2005

> <r_lp_Energy>
47.1466

> <b_lp_Chiralities_Consistent>
1

> <s_lp_Variant>
AV-unprocessed.smi:1469-2

> <Gold.Version>
5.8.1

> <Gold.Id.Protein>
6NUR|6NUR_protein|mol2

> <Gold.PLP.Fitness>
49.6325

> <Gold.PLP.PLP>
-35.2156

> <Gold.PLP.part.hbond>
-3.0000

> <Gold.PLP.part.metal>
0.0000

> <Gold.PLP.part.buried>
-3.3753

> <Gold.PLP.part.nonpolar>
-30.0834

> <Gold.PLP.part.repulsive>
0.0227

> <Gold.PLP.ligand.clash>
0.0000

> <Gold.PLP.ligand.torsion>
0.2162

> <Gold.PLP.Chemscore.Hbond>
3.9280

> <Gold.PLP.Chemscore.CHOScore>
0.9966

> <Gold.PLP.Chemscore.Metal>
0.0000

> <Gold.Chemscore.Hbonds>
donor molecule, donor type, donor heavy atom, donor atom, acceptor molecule, acceptor atom, score
      L1  H     4    26       P1  7948  0.75
      L1  H    15    41       P1  7948  2.00
      P1  H  7997  8008       L1    14  0.70
      L1  C     9    29       P1  7948  0.67

> <Gold.PLP.Chemscore.Internal.Correction>
0.0753

> <Gold.Rescore>
     Score         DG    S(hbond)    S(metal)    S(lipo)     H(rot)  DE(clash)    DE(int)     intcor
     17.39     -17.96       2.76        0.00      69.25       1.89       0.09       0.49       ----

> <Gold.Chemscore.Fitness>
17.3873

> <Gold.Chemscore.DG>
-17.9592

> <Gold.Chemscore.ZeroCoef>
-5.4800

> <Gold.Chemscore.Hbond>
2.7577

> <Gold.Chemscore.Metal>
0.0000

> <Gold.Chemscore.Lipo>
69.2505

> <Gold.Chemscore.Internal_Hbond>
0.0000

> <Gold.Chemscore.DEClash>
0.0854

> <Gold.Chemscore.DEInternal>
0.4865

> <Gold.Chemscore.Rot>
1.8882

> <Gold.Chemscore.Internal.Correction>
   9.000000E+99

> <Gold.Chemscore.Hbonds>
donor molecule, donor type, donor heavy atom, donor atom, acceptor molecule, acceptor atom, score
      L1  H     4    26       P1  7948  0.71
      L1  H    15    41       P1  7948  0.91
      P1  H  7997  8008       L1    14  0.69

> <Gold.Chemscore.Hbond.Weighted>
-9.2107

> <Gold.Chemscore.Metal.Weighted>
-0.0000

> <Gold.Chemscore.Lipo.Weighted>
-8.1023

> <Gold.Chemscore.Internal_Hbond.Weighted>
0.0000

> <Gold.Chemscore.DEClash.Weighted>
0.0854

> <Gold.Chemscore.DEInternal.Weighted>
0.4865

> <Gold.Chemscore.Rot.Weighted>
4.8338

> <Gold.Chemscore.Internal.Correction.Weighted>
   9.000000E+99

> <Gold.Protein.RotatedTorsions>
[ 6907 6896 6895 6894 ] final  -19.10 input  -60.11 | X-H torsion
[ 7974 7965 7964 7962 ] final  -24.03 input  175.53 | X-H torsion
[ 8008 7997 7996 7995 ] final  -41.48 input   59.86 | X-H torsion
[ 10167 10162 10161 10158 ] final   -7.16 input  -65.29 | X-H torsion
[ 10718 10713 10712 10709 ] final -117.75 input   66.30 | X-H torsion
[ 10763 10752 10751 10750 ] final  155.05 input  -60.55 | X-H torsion
[ 11005 11000 10999 10996 ] final  -33.57 input  -57.11 | X-H torsion

> <Gold.Protein.ActiveResidues>
 VAL166  LYS551  ARG553  GLY616  TRP617  ASP618  TYR619  PRO620  LYS621  CYS622 
 ASP623  PHE694  ASN695  SER759  ASP760  ASP761  ALA762  ILE779  LEU786  VAL792 
 PHE793  MET794  SER795  GLU796  ALA797  LYS798  CYS799  TRP800  GLU811  SER814 

> <Gold.Protein.RotatedAtoms>
  151.2682  135.0676  159.9123 H   0  0  0  0  0  0  0  0  0  0  0  0  # atno 6907 bound_to 6896
  152.5355  134.0159  159.7970 H   0  0  0  0  0  0  0  0  0  0  0  0  # atno 6908 bound_to 6896
  151.0392  133.5671  159.2684 H   0  0  0  0  0  0  0  0  0  0  0  0  # atno 6909 bound_to 6896
  146.1580  140.4696  142.8583 H   0  0  0  0  0  0  0  0  0  0  0  0  # atno 7974 bound_to 7965
  154.4004  140.1498  156.3197 H   0  0  0  0  0  0  0  0  0  0  0  0  # atno 8008 bound_to 7997
  155.8540  140.3456  155.5691 H   0  0  0  0  0  0  0  0  0  0  0  0  # atno 8009 bound_to 7997
  155.7952  140.0862  157.1977 H   0  0  0  0  0  0  0  0  0  0  0  0  # atno 8010 bound_to 7997
  140.7020  143.6112  150.8702 H   0  0  0  0  0  0  0  0  0  0  0  0  # atno 10167 bound_to 10162
  156.1056  130.6207  150.9203 H   0  0  0  0  0  0  0  0  0  0  0  0  # atno 10718 bound_to 10713
  154.1622  135.2809  155.3105 H   0  0  0  0  0  0  0  0  0  0  0  0  # atno 10763 bound_to 10752
  154.6138  135.5490  153.7505 H   0  0  0  0  0  0  0  0  0  0  0  0  # atno 10764 bound_to 10752
  153.0189  135.6422  154.1764 H   0  0  0  0  0  0  0  0  0  0  0  0  # atno 10765 bound_to 10752
  140.9645  133.7145  156.1423 H   0  0  0  0  0  0  0  0  0  0  0  0  # atno 11005 bound_to 11000
  144.7989  140.6175  143.6491 LP  0  0  0  0  0  0  0  0  0  0  0  0  # atno 17320 bound_to 7965
  145.4660  139.1508  143.3840 LP  0  0  0  0  0  0  0  0  0  0  0  0  # atno 17321 bound_to 7965
  139.9835  143.5925  152.2935 LP  0  0  0  0  0  0  0  0  0  0  0  0  # atno 17342 bound_to 10162
  139.6555  144.7662  151.2065 LP  0  0  0  0  0  0  0  0  0  0  0  0  # atno 17343 bound_to 10162
  157.6232  131.0928  150.8583 LP  0  0  0  0  0  0  0  0  0  0  0  0  # atno 17370 bound_to 10713
  156.8702  130.5143  149.5297 LP  0  0  0  0  0  0  0  0  0  0  0  0  # atno 17371 bound_to 10713
  140.7419  134.4141  157.5553 LP  0  0  0  0  0  0  0  0  0  0  0  0  # atno 17394 bound_to 11000
  139.8890  134.8842  156.2446 LP  0  0  0  0  0  0  0  0  0  0  0  0  # atno 17395 bound_to 11000

$$$$
