AV-unprocessed.smi:2671|AV-procd|sdf|10351|dock2
  -GOLD-   2272014373D 1   1.00000     0.00000
 Structure written by MMmdl.
 29 30  0  0  0  0  0  0  0  0  1 V2000
  154.5385  140.2288  159.2823 O   0  0  0  0  0  0  0  0  0  0  0  0
  153.4817  140.8148  159.0572 C   0  0  0  0  0  0  0  0  0  0  0  0
  153.2523  142.1766  159.5552 C   0  0  0  0  0  0  0  0  0  0  0  0
  152.0834  142.7954  159.2936 C   0  0  0  0  0  0  0  0  0  0  0  0
  151.7661  144.2042  159.7689 C   0  0  0  0  0  0  0  0  0  0  0  0
  152.0426  144.3236  161.0669 F   0  0  0  0  0  0  0  0  0  0  0  0
  152.5053  145.0917  159.1042 F   0  0  0  0  0  0  0  0  0  0  0  0
  150.4801  144.5104  159.5855 F   0  0  0  0  0  0  0  0  0  0  0  0
  151.1019  142.1528  158.5567 N   0  0  0  0  0  0  0  0  0  0  0  0
  151.3428  140.8640  158.0974 C   0  0  0  0  0  0  0  0  0  0  0  0
  149.9038  140.2575  157.1688 S   0  0  0  0  0  0  0  0  0  0  0  0
  150.5939  140.0813  155.4978 C   0  0  0  0  0  0  0  0  0  0  0  0
  149.5632  140.4278  154.4149 C   0  0  1  0  0  0  0  0  0  0  0  0
  148.4434  139.3994  154.2457 C   0  0  0  0  0  0  0  0  0  0  0  0
  147.2702  140.2202  153.7296 C   0  0  0  0  0  0  0  0  0  0  0  0
  147.7145  141.6730  153.9188 C   0  0  0  0  0  0  0  0  0  0  0  0
  148.8487  141.6003  154.7702 O   0  0  0  0  0  0  0  0  0  0  0  0
  152.4498  140.2136  158.3183 N   0  0  0  0  0  0  0  0  0  0  0  0
  150.2404  142.6499  158.3802 H   0  0  0  0  0  0  0  0  0  0  0  0
  154.0185  142.6786  160.1282 H   0  0  0  0  0  0  0  0  0  0  0  0
  150.9271  139.0513  155.3686 H   0  0  0  0  0  0  0  0  0  0  0  0
  151.4747  140.7170  155.4003 H   0  0  0  0  0  0  0  0  0  0  0  0
  150.0618  140.6019  153.4593 H   0  0  0  0  0  0  0  0  0  0  0  0
  148.7210  138.5883  153.5719 H   0  0  0  0  0  0  0  0  0  0  0  0
  148.1828  138.9594  155.2093 H   0  0  0  0  0  0  0  0  0  0  0  0
  147.0593  140.0118  152.6802 H   0  0  0  0  0  0  0  0  0  0  0  0
  146.3687  140.0020  154.3031 H   0  0  0  0  0  0  0  0  0  0  0  0
  148.0116  142.1102  152.9644 H   0  0  0  0  0  0  0  0  0  0  0  0
  146.9339  142.2988  154.3515 H   0  0  0  0  0  0  0  0  0  0  0  0
  1  2  2  0  0  0  0
  2 18  1  0  0  0  0
  2  3  1  0  0  0  0
  3 20  1  0  0  0  0
  3  4  2  0  0  0  0
  4  5  1  0  0  0  0
  4  9  1  0  0  0  0
  5  6  1  0  0  0  0
  5  7  1  0  0  0  0
  5  8  1  0  0  0  0
  9 10  1  0  0  0  0
  9 19  1  0  0  0  0
 10 11  1  0  0  0  0
 10 18  2  0  0  0  0
 11 12  1  0  0  0  0
 12 13  1  0  0  0  0
 12 21  1  0  0  0  0
 12 22  1  0  0  0  0
 13 17  1  0  0  0  0
 13 14  1  0  0  0  0
 13 23  1  0  0  0  0
 14 15  1  0  0  0  0
 14 24  1  0  0  0  0
 14 25  1  0  0  0  0
 15 16  1  0  0  0  0
 15 26  1  0  0  0  0
 15 27  1  0  0  0  0
 16 17  1  0  0  0  0
 16 28  1  0  0  0  0
 16 29  1  0  0  0  0
M  END
> <s_m_source_file>
AV-unprocessed.smi

> <i_m_source_file_index>
2671

> <i_lp_mmshare_version>
43012

> <i_f3d_flags>
0

> <s_epik_input>
W09IXWMxW2NIXWMoQyhGKShGKUYpbmMobjEpU1tDSDJdW0NAQEhdMltDSDJdW0NIMl1bQ0gyXU8y

> <s_epik_cmdline>
J2VwaWtfcHl0aG9uJywgJy1waCcsICc3LjAnLCAnLXRuJywgJzgnLCAnLW1hJywgJzIwMCcsICctbWV0YWxfYmluZGluZycsICctaW1hZScsICc8aW5maWxlLm1hZT4nLCAnLW9tYWUnLCAnPG91dGZpbGUubWFlPic=

> <r_lp_tautomer_probability>
0.273662

> <r_epik_Ionization_Penalty>
1.33793

> <r_epik_Ionization_Penalty_Charging>
1.33793

> <r_epik_Ionization_Penalty_Neutral>
8.2996e-08

> <r_epik_State_Penalty>
1.59174

> <r_epik_Charging_Adjusted_Penalty>
2.92967

> <i_epik_Tot_Q>
0

> <i_epik_Tot_abs_Q>
0

> <r_epik_Metal_State_Penalty>
2.31522

> <b_epik_Metal_Only>
0

> <s_lp_Force_Field>
OPLS_2005

> <r_lp_Energy>
25.3569

> <b_lp_Chiralities_Consistent>
1

> <s_lp_Variant>
AV-unprocessed.smi:2671-6

> <Gold.Version>
5.8.1

> <Gold.Id.Protein>
6NUR|6NUR_protein|mol2

> <Gold.PLP.Fitness>
39.6480

> <Gold.PLP.PLP>
-38.1924

> <Gold.PLP.part.hbond>
-1.0000

> <Gold.PLP.part.metal>
0.0000

> <Gold.PLP.part.buried>
-4.5068

> <Gold.PLP.part.nonpolar>
-31.8892

> <Gold.PLP.part.repulsive>
0.2324

> <Gold.PLP.ligand.clash>
0.0000

> <Gold.PLP.ligand.torsion>
0.6726

> <Gold.PLP.Chemscore.Hbond>
0.9280

> <Gold.PLP.Chemscore.CHOScore>
0.0000

> <Gold.PLP.Chemscore.Metal>
0.0000

> <Gold.Chemscore.Hbonds>
donor molecule, donor type, donor heavy atom, donor atom, acceptor molecule, acceptor atom, score
      P1  H  7997  8010       L1     1  0.68

> <Gold.PLP.Chemscore.Internal.Correction>
0.0167

> <Gold.Rescore>
     Score         DG    S(hbond)    S(metal)    S(lipo)     H(rot)  DE(clash)    DE(int)     intcor
      9.92     -10.50       0.40        0.00      68.52       1.69       0.03       0.54       ----

> <Gold.Chemscore.Fitness>
9.9221

> <Gold.Chemscore.DG>
-10.4993

> <Gold.Chemscore.ZeroCoef>
-5.4800

> <Gold.Chemscore.Hbond>
0.3997

> <Gold.Chemscore.Metal>
0.0000

> <Gold.Chemscore.Lipo>
68.5203

> <Gold.Chemscore.Internal_Hbond>
0.0000

> <Gold.Chemscore.DEClash>
0.0323

> <Gold.Chemscore.DEInternal>
0.5449

> <Gold.Chemscore.Rot>
1.6924

> <Gold.Chemscore.Internal.Correction>
   9.000000E+99

> <Gold.Chemscore.Hbonds>
donor molecule, donor type, donor heavy atom, donor atom, acceptor molecule, acceptor atom, score
      P1  H  7997  8010       L1     1  0.08

> <Gold.Chemscore.Hbond.Weighted>
-1.3349

> <Gold.Chemscore.Metal.Weighted>
-0.0000

> <Gold.Chemscore.Lipo.Weighted>
-8.0169

> <Gold.Chemscore.Internal_Hbond.Weighted>
0.0000

> <Gold.Chemscore.DEClash.Weighted>
0.0323

> <Gold.Chemscore.DEInternal.Weighted>
0.5449

> <Gold.Chemscore.Rot.Weighted>
4.3324

> <Gold.Chemscore.Internal.Correction.Weighted>
   9.000000E+99

> <Gold.Protein.RotatedTorsions>
[ 6907 6896 6895 6894 ] final  -73.19 input  -60.11 | X-H torsion
[ 7974 7965 7964 7962 ] final   22.65 input  175.53 | X-H torsion
[ 8008 7997 7996 7995 ] final    3.15 input   59.86 | X-H torsion
[ 10167 10162 10161 10158 ] final   25.32 input  -65.29 | X-H torsion
[ 10718 10713 10712 10709 ] final -157.88 input   66.30 | X-H torsion
[ 10763 10752 10751 10750 ] final  155.21 input  -60.55 | X-H torsion
[ 11005 11000 10999 10996 ] final   84.51 input  -57.11 | X-H torsion

> <Gold.Protein.ActiveResidues>
 VAL166  LYS551  ARG553  GLY616  TRP617  ASP618  TYR619  PRO620  LYS621  CYS622 
 ASP623  PHE694  ASN695  SER759  ASP760  ASP761  ALA762  ILE779  LEU786  VAL792 
 PHE793  MET794  SER795  GLU796  ALA797  LYS798  CYS799  TRP800  GLU811  SER814 

> <Gold.Protein.RotatedAtoms>
  150.7140  134.5053  159.5580 H   0  0  0  0  0  0  0  0  0  0  0  0  # atno 6907 bound_to 6896
  152.2641  134.7999  160.0434 H   0  0  0  0  0  0  0  0  0  0  0  0  # atno 6908 bound_to 6896
  151.8703  133.3439  159.3769 H   0  0  0  0  0  0  0  0  0  0  0  0  # atno 6909 bound_to 6896
  146.2019  139.7855  142.8755 H   0  0  0  0  0  0  0  0  0  0  0  0  # atno 7974 bound_to 7965
  154.7002  140.2671  155.6727 H   0  0  0  0  0  0  0  0  0  0  0  0  # atno 8008 bound_to 7997
  156.2762  140.2773  156.1534 H   0  0  0  0  0  0  0  0  0  0  0  0  # atno 8009 bound_to 7997
  155.0775  140.0372  157.2618 H   0  0  0  0  0  0  0  0  0  0  0  0  # atno 8010 bound_to 7997
  140.5116  144.0151  150.6375 H   0  0  0  0  0  0  0  0  0  0  0  0  # atno 10167 bound_to 10162
  156.5464  130.8586  151.2766 H   0  0  0  0  0  0  0  0  0  0  0  0  # atno 10718 bound_to 10713
  154.1647  135.2808  155.3098 H   0  0  0  0  0  0  0  0  0  0  0  0  # atno 10763 bound_to 10752
  154.6120  135.5495  153.7487 H   0  0  0  0  0  0  0  0  0  0  0  0  # atno 10764 bound_to 10752
  153.0182  135.6418  154.1788 H   0  0  0  0  0  0  0  0  0  0  0  0  # atno 10765 bound_to 10752
  139.8998  134.8222  156.2456 H   0  0  0  0  0  0  0  0  0  0  0  0  # atno 11005 bound_to 11000
  145.3454  141.0296  143.3369 LP  0  0  0  0  0  0  0  0  0  0  0  0  # atno 17320 bound_to 7965
  144.8703  139.5048  143.6771 LP  0  0  0  0  0  0  0  0  0  0  0  0  # atno 17321 bound_to 7965
  140.3475  143.2982  152.0522 LP  0  0  0  0  0  0  0  0  0  0  0  0  # atno 17342 bound_to 10162
  139.4897  144.6398  151.6901 LP  0  0  0  0  0  0  0  0  0  0  0  0  # atno 17343 bound_to 10162
  157.7396  130.9834  150.2322 LP  0  0  0  0  0  0  0  0  0  0  0  0  # atno 17370 bound_to 10713
  156.2924  130.3747  149.7829 LP  0  0  0  0  0  0  0  0  0  0  0  0  # atno 17371 bound_to 10713
  141.0257  133.7016  156.1343 LP  0  0  0  0  0  0  0  0  0  0  0  0  # atno 17394 bound_to 11000
  140.7170  134.4400  157.5578 LP  0  0  0  0  0  0  0  0  0  0  0  0  # atno 17395 bound_to 11000

$$$$
