AV-unprocessed.smi:10|AV-procd|sdf|53|dock3
  -GOLD-   2262015173D 1   1.00000     0.00000
 Structure written by MMmdl.
 34 36  0  0  0  0  0  0  0  0  1 V2000
  152.5618  143.6155  162.0486 C   0  0  0  0  0  0  0  0  0  0  0  0
  152.7477  142.6307  161.0028 N   0  0  0  0  0  0  0  0  0  0  0  0
  153.5568  141.5548  161.0276 C   0  0  0  0  0  0  0  0  0  0  0  0
  153.5357  140.8061  159.9264 N   0  0  0  0  0  0  0  0  0  0  0  0
  152.6199  141.4802  159.1266 C   0  0  0  0  0  0  0  0  0  0  0  0
  152.1259  141.1792  157.7633 C   0  0  0  0  0  0  0  0  0  0  0  0
  152.5028  140.1941  157.1282 O   0  0  0  0  0  0  0  0  0  0  0  0
  151.2225  142.0966  157.3069 N   0  0  0  0  0  0  0  0  0  0  0  0
  150.6172  141.9558  155.9741 C   0  0  0  0  0  0  0  0  0  0  0  0
  150.1584  140.5047  155.7025 C   0  0  2  0  0  0  0  0  0  0  0  0
  150.9861  139.9460  154.7027 O   0  0  0  0  0  0  0  0  0  0  0  0
  148.7248  140.4315  155.1786 C   0  0  0  0  0  0  0  0  0  0  0  0
  148.2978  139.2521  154.2897 C   0  0  0  0  0  0  0  0  0  0  0  0
  147.3932  140.2163  153.5187 C   0  0  0  0  0  0  0  0  0  0  0  0
  148.2843  141.3513  154.0282 C   0  0  0  0  0  0  0  0  0  0  0  0
  150.7938  143.2119  158.0891 C   0  0  0  0  0  0  0  0  0  0  0  0
  151.2087  143.5006  159.2951 N   0  0  0  0  0  0  0  0  0  0  0  0
  152.1295  142.5885  159.7591 C   0  0  0  0  0  0  0  0  0  0  0  0
  153.2694  143.4431  162.8602 H   0  0  0  0  0  0  0  0  0  0  0  0
  151.5469  143.5460  162.4406 H   0  0  0  0  0  0  0  0  0  0  0  0
  152.7219  144.6156  161.6450 H   0  0  0  0  0  0  0  0  0  0  0  0
  154.1784  141.3127  161.8772 H   0  0  0  0  0  0  0  0  0  0  0  0
  149.7640  142.6326  155.9016 H   0  0  0  0  0  0  0  0  0  0  0  0
  151.2922  142.3054  155.1899 H   0  0  0  0  0  0  0  0  0  0  0  0
  150.2473  139.9003  156.6066 H   0  0  0  0  0  0  0  0  0  0  0  0
  151.3894  139.1633  155.0471 H   0  0  0  0  0  0  0  0  0  0  0  0
  148.0055  140.5207  155.9961 H   0  0  0  0  0  0  0  0  0  0  0  0
  149.1158  138.8636  153.6807 H   0  0  0  0  0  0  0  0  0  0  0  0
  147.7724  138.4529  154.8131 H   0  0  0  0  0  0  0  0  0  0  0  0
  147.3970  140.0811  152.4367 H   0  0  0  0  0  0  0  0  0  0  0  0
  146.3797  140.2606  153.9206 H   0  0  0  0  0  0  0  0  0  0  0  0
  147.7493  142.2477  154.3424 H   0  0  0  0  0  0  0  0  0  0  0  0
  149.0967  141.5894  153.3394 H   0  0  0  0  0  0  0  0  0  0  0  0
  150.0530  143.8380  157.5887 H   0  0  0  0  0  0  0  0  0  0  0  0
  1  2  1  0  0  0  0
  1 19  1  0  0  0  0
  1 20  1  0  0  0  0
  1 21  1  0  0  0  0
  2 18  1  0  0  0  0
  2  3  1  0  0  0  0
  3  4  2  0  0  0  0
  3 22  1  0  0  0  0
  4  5  1  0  0  0  0
  5 18  2  0  0  0  0
  5  6  1  0  0  0  0
  6  7  2  0  0  0  0
  6  8  1  0  0  0  0
  8  9  1  0  0  0  0
  8 16  1  0  0  0  0
  9 10  1  0  0  0  0
  9 23  1  0  0  0  0
  9 24  1  0  0  0  0
 10 11  1  0  0  0  0
 10 12  1  0  0  0  0
 10 25  1  0  0  0  0
 11 26  1  0  0  0  0
 12 15  1  0  0  0  0
 12 13  1  0  0  0  0
 12 27  1  0  0  0  0
 13 14  1  0  0  0  0
 13 28  1  0  0  0  0
 13 29  1  0  0  0  0
 14 15  1  0  0  0  0
 14 30  1  0  0  0  0
 14 31  1  0  0  0  0
 15 32  1  0  0  0  0
 15 33  1  0  0  0  0
 16 17  2  0  0  0  0
 16 34  1  0  0  0  0
 17 18  1  0  0  0  0
M  END
> <s_m_source_file>
AV-unprocessed.smi

> <i_m_source_file_index>
10

> <i_lp_mmshare_version>
43012

> <i_f3d_flags>
0

> <s_epik_input>
bjFbY0hdbihbQ0gzXSljKGMxMiluW2NIXW4oYzI9TylbQ0gyXVtDQEhdKFtPSF0pW0NIXTNbQ0gyXVtDSDJdW0NIMl0z

> <s_epik_cmdline>
J2VwaWtfcHl0aG9uJywgJy1waCcsICc3LjAnLCAnLXRuJywgJzgnLCAnLW1hJywgJzIwMCcsICctbWV0YWxfYmluZGluZycsICctaW1hZScsICc8aW5maWxlLm1hZT4nLCAnLW9tYWUnLCAnPG91dGZpbGUubWFlPic=

> <r_lp_tautomer_probability>
1

> <r_epik_Ionization_Penalty>
0.0003743

> <r_epik_Ionization_Penalty_Charging>
2.98177e-12

> <r_epik_Ionization_Penalty_Neutral>
0.000374299

> <r_epik_State_Penalty>
0.000224514

> <r_epik_Charging_Adjusted_Penalty>
0.000224514

> <i_epik_Tot_Q>
0

> <i_epik_Tot_abs_Q>
0

> <r_epik_Metal_State_Penalty>
-0

> <b_epik_Metal_Only>
0

> <s_lp_Force_Field>
OPLS_2005

> <r_lp_Energy>
32.1402

> <b_lp_Chiralities_Consistent>
1

> <s_lp_Variant>
AV-unprocessed.smi:10-1

> <Gold.Version>
5.8.1

> <Gold.Id.Protein>
6NUR|6NUR_protein|mol2

> <Gold.PLP.Fitness>
45.5404

> <Gold.PLP.PLP>
-38.9326

> <Gold.PLP.part.hbond>
-2.0000

> <Gold.PLP.part.metal>
0.0000

> <Gold.PLP.part.buried>
-4.0955

> <Gold.PLP.part.nonpolar>
-31.1277

> <Gold.PLP.part.repulsive>
0.0466

> <Gold.PLP.ligand.clash>
0.0000

> <Gold.PLP.ligand.torsion>
1.2570

> <Gold.PLP.Chemscore.Hbond>
2.0000

> <Gold.PLP.Chemscore.CHOScore>
1.0000

> <Gold.PLP.Chemscore.Metal>
0.0000

> <Gold.Chemscore.Hbonds>
donor molecule, donor type, donor heavy atom, donor atom, acceptor molecule, acceptor atom, score
      P1  H  7989  7998       L1    11  1.00
      P1  H  7997  8008       L1     7  1.00
      L1  C    16    34       P1  8028  1.00

> <Gold.PLP.Chemscore.Internal.Correction>
0.1218

> <Gold.Rescore>
     Score         DG    S(hbond)    S(metal)    S(lipo)     H(rot)  DE(clash)    DE(int)     intcor
     10.76     -12.97       1.90        0.00      59.84       2.28       0.07       2.15       ----

> <Gold.Chemscore.Fitness>
10.7597

> <Gold.Chemscore.DG>
-12.9712

> <Gold.Chemscore.ZeroCoef>
-5.4800

> <Gold.Chemscore.Hbond>
1.8961

> <Gold.Chemscore.Metal>
0.0000

> <Gold.Chemscore.Lipo>
59.8395

> <Gold.Chemscore.Internal_Hbond>
0.0000

> <Gold.Chemscore.DEClash>
0.0651

> <Gold.Chemscore.DEInternal>
2.1464

> <Gold.Chemscore.Rot>
2.2824

> <Gold.Chemscore.Internal.Correction>
   9.000000E+99

> <Gold.Chemscore.Hbonds>
donor molecule, donor type, donor heavy atom, donor atom, acceptor molecule, acceptor atom, score
      P1  H  7989  7998       L1    11  0.98
      P1  H  7997  8008       L1     7  0.91

> <Gold.Chemscore.Hbond.Weighted>
-6.3331

> <Gold.Chemscore.Metal.Weighted>
-0.0000

> <Gold.Chemscore.Lipo.Weighted>
-7.0012

> <Gold.Chemscore.Internal_Hbond.Weighted>
0.0000

> <Gold.Chemscore.DEClash.Weighted>
0.0651

> <Gold.Chemscore.DEInternal.Weighted>
2.1464

> <Gold.Chemscore.Rot.Weighted>
5.8431

> <Gold.Chemscore.Internal.Correction.Weighted>
   9.000000E+99

> <Gold.Protein.RotatedTorsions>
[ 6907 6896 6895 6894 ] final  -96.20 input  -60.11 | X-H torsion
[ 7974 7965 7964 7962 ] final -175.93 input  175.53 | X-H torsion
[ 8008 7997 7996 7995 ] final  -61.35 input   59.86 | X-H torsion
[ 10167 10162 10161 10158 ] final  -27.21 input  -65.29 | X-H torsion
[ 10718 10713 10712 10709 ] final  -28.12 input   66.30 | X-H torsion
[ 10763 10752 10751 10750 ] final  127.64 input  -60.55 | X-H torsion
[ 11005 11000 10999 10996 ] final  157.70 input  -57.11 | X-H torsion

> <Gold.Protein.ActiveResidues>
 VAL166  LYS551  ARG553  GLY616  TRP617  ASP618  TYR619  PRO620  LYS621  CYS622 
 ASP623  PHE694  ASN695  SER759  ASP760  ASP761  ALA762  ILE779  LEU786  VAL792 
 PHE793  MET794  SER795  GLU796  ALA797  LYS798  CYS799  TRP800  GLU811  SER814 

> <Gold.Protein.RotatedAtoms>
  150.6982  134.1540  159.4150 H   0  0  0  0  0  0  0  0  0  0  0  0  # atno 6907 bound_to 6896
  151.9522  135.0161  160.0552 H   0  0  0  0  0  0  0  0  0  0  0  0  # atno 6908 bound_to 6896
  152.2001  133.4800  159.5091 H   0  0  0  0  0  0  0  0  0  0  0  0  # atno 6909 bound_to 6896
  144.7127  140.1247  143.6403 H   0  0  0  0  0  0  0  0  0  0  0  0  # atno 7974 bound_to 7965
  154.4443  140.1019  156.6416 H   0  0  0  0  0  0  0  0  0  0  0  0  # atno 8008 bound_to 7997
  155.5495  140.3485  155.4446 H   0  0  0  0  0  0  0  0  0  0  0  0  # atno 8009 bound_to 7997
  156.0539  140.1310  157.0008 H   0  0  0  0  0  0  0  0  0  0  0  0  # atno 8010 bound_to 7997
  140.7278  143.4112  151.1102 H   0  0  0  0  0  0  0  0  0  0  0  0  # atno 10167 bound_to 10162
  156.4293  130.4442  149.7129 H   0  0  0  0  0  0  0  0  0  0  0  0  # atno 10718 bound_to 10713
  153.7127  135.3266  155.3249 H   0  0  0  0  0  0  0  0  0  0  0  0  # atno 10763 bound_to 10752
  154.8380  135.4480  154.1298 H   0  0  0  0  0  0  0  0  0  0  0  0  # atno 10764 bound_to 10752
  153.2396  135.6969  153.7877 H   0  0  0  0  0  0  0  0  0  0  0  0  # atno 10765 bound_to 10752
  140.1795  134.8486  157.2786 H   0  0  0  0  0  0  0  0  0  0  0  0  # atno 11005 bound_to 11000
  145.9340  139.2625  143.1308 LP  0  0  0  0  0  0  0  0  0  0  0  0  # atno 17320 bound_to 7965
  145.9493  140.8920  143.0267 LP  0  0  0  0  0  0  0  0  0  0  0  0  # atno 17321 bound_to 7965
  139.7746  143.8444  152.3127 LP  0  0  0  0  0  0  0  0  0  0  0  0  # atno 17342 bound_to 10162
  139.8374  144.7225  150.9373 LP  0  0  0  0  0  0  0  0  0  0  0  0  # atno 17343 bound_to 10162
  156.4038  130.7688  151.2697 LP  0  0  0  0  0  0  0  0  0  0  0  0  # atno 17370 bound_to 10713
  157.7508  131.0232  150.3823 LP  0  0  0  0  0  0  0  0  0  0  0  0  # atno 17371 bound_to 10713
  140.2284  134.3939  155.7533 LP  0  0  0  0  0  0  0  0  0  0  0  0  # atno 17394 bound_to 11000
  141.2222  133.7202  156.8602 LP  0  0  0  0  0  0  0  0  0  0  0  0  # atno 17395 bound_to 11000

$$$$
