AV-unprocessed.smi:2059|AV-procd|sdf|8349|dock3
  -GOLD-   2272011 13D 1   1.00000     0.00000
 Structure written by MMmdl.
 30 31  0  0  0  0  0  0  0  0  1 V2000
  147.0048  129.8123  152.9205 C   0  0  0  0  0  0  0  0  0  0  0  0
  147.7925  130.9599  153.4528 C   0  0  0  0  0  0  0  0  0  0  0  0
  147.9280  132.2600  153.0545 C   0  0  0  0  0  0  0  0  0  0  0  0
  148.8305  132.7998  154.0096 C   0  0  0  0  0  0  0  0  0  0  0  0
  149.2268  134.1652  153.9313 N   0  0  0  0  0  0  0  0  0  0  0  0
  150.0408  134.8978  154.7205 C   0  0  0  0  0  0  0  0  0  0  0  0
  150.5882  134.4006  155.7033 O   0  0  0  0  0  0  0  0  0  0  0  0
  150.2116  136.1825  154.3675 N   0  0  0  0  0  0  0  0  0  0  0  0
  151.0476  137.1478  155.0725 C   0  0  1  0  0  0  0  0  0  0  0  0
  152.0645  137.8292  154.1342 C   0  0  0  0  0  0  0  0  0  0  0  0
  152.6288  139.0702  154.8368 C   0  0  0  0  0  0  0  0  0  0  0  0
  151.2987  139.6819  155.9400 S   0  0  0  0  0  0  0  0  0  0  0  0
  151.7976  139.6964  157.3236 O   0  0  0  0  0  0  0  0  0  0  0  0
  150.6744  140.8748  155.3480 O   0  0  0  0  0  0  0  0  0  0  0  0
  150.1851  138.2456  155.7095 C   0  0  0  0  0  0  0  0  0  0  0  0
  149.2094  131.9049  154.9110 N   0  0  0  0  0  0  0  0  0  0  0  0
  148.5471  130.7232  154.5593 O   0  0  0  0  0  0  0  0  0  0  0  0
  146.6091  130.0376  151.9300 H   0  0  0  0  0  0  0  0  0  0  0  0
  146.1648  129.5835  153.5764 H   0  0  0  0  0  0  0  0  0  0  0  0
  147.6255  128.9197  152.8407 H   0  0  0  0  0  0  0  0  0  0  0  0
  147.4553  132.7444  152.2128 H   0  0  0  0  0  0  0  0  0  0  0  0
  148.8244  134.6734  153.1573 H   0  0  0  0  0  0  0  0  0  0  0  0
  149.7261  136.5128  153.5453 H   0  0  0  0  0  0  0  0  0  0  0  0
  151.5951  136.6437  155.8715 H   0  0  0  0  0  0  0  0  0  0  0  0
  152.8602  137.1481  153.8308 H   0  0  0  0  0  0  0  0  0  0  0  0
  151.5538  138.1464  153.2239 H   0  0  0  0  0  0  0  0  0  0  0  0
  153.4847  138.8060  155.4580 H   0  0  0  0  0  0  0  0  0  0  0  0
  152.9312  139.8520  154.1400 H   0  0  0  0  0  0  0  0  0  0  0  0
  149.3804  138.5552  155.0414 H   0  0  0  0  0  0  0  0  0  0  0  0
  149.7504  137.9487  156.6641 H   0  0  0  0  0  0  0  0  0  0  0  0
  1  2  1  0  0  0  0
  1 18  1  0  0  0  0
  1 19  1  0  0  0  0
  1 20  1  0  0  0  0
  2 17  1  0  0  0  0
  2  3  2  0  0  0  0
  3  4  1  0  0  0  0
  3 21  1  0  0  0  0
  4  5  1  0  0  0  0
  4 16  2  0  0  0  0
  5  6  1  0  0  0  0
  5 22  1  0  0  0  0
  6  7  2  0  0  0  0
  6  8  1  0  0  0  0
  8  9  1  0  0  0  0
  8 23  1  0  0  0  0
  9 15  1  0  0  0  0
  9 10  1  0  0  0  0
  9 24  1  0  0  0  0
 10 11  1  0  0  0  0
 10 25  1  0  0  0  0
 10 26  1  0  0  0  0
 11 12  1  0  0  0  0
 11 27  1  0  0  0  0
 11 28  1  0  0  0  0
 12 13  2  0  0  0  0
 12 14  2  0  0  0  0
 12 15  1  0  0  0  0
 15 29  1  0  0  0  0
 15 30  1  0  0  0  0
 16 17  1  0  0  0  0
M  END
> <s_m_source_file>
AV-unprocessed.smi

> <i_m_source_file_index>
2059

> <i_lp_mmshare_version>
43012

> <i_f3d_flags>
0

> <s_epik_input>
W0NIM11jMVtjSF1jKG5vMSlbTkhdQyg9TylbTkhdW0NAQEhdKFtDSDJdMilbQ0gyXVtDSDJdUzIoPU8pPU8=

> <s_epik_cmdline>
J2VwaWtfcHl0aG9uJywgJy1waCcsICc3LjAnLCAnLXRuJywgJzgnLCAnLW1hJywgJzIwMCcsICctbWV0YWxfYmluZGluZycsICctaW1hZScsICc8aW5maWxlLm1hZT4nLCAnLW9tYWUnLCAnPG91dGZpbGUubWFlPic=

> <r_lp_tautomer_probability>
1

> <r_epik_Ionization_Penalty>
3.88767e-05

> <r_epik_Ionization_Penalty_Charging>
0

> <r_epik_Ionization_Penalty_Neutral>
3.88767e-05

> <r_epik_State_Penalty>
-0

> <r_epik_Charging_Adjusted_Penalty>
0

> <i_epik_Tot_Q>
0

> <i_epik_Tot_abs_Q>
0

> <r_epik_Metal_State_Penalty>
0.0251347

> <b_epik_Metal_Only>
0

> <s_lp_Force_Field>
OPLS_2005

> <r_lp_Energy>
4.37502

> <b_lp_Chiralities_Consistent>
1

> <s_lp_Variant>
AV-unprocessed.smi:2059-2

> <Gold.Version>
5.8.1

> <Gold.Id.Protein>
6NUR|6NUR_protein|mol2

> <Gold.PLP.Fitness>
33.9939

> <Gold.PLP.PLP>
-25.9922

> <Gold.PLP.part.hbond>
-3.9809

> <Gold.PLP.part.metal>
0.0000

> <Gold.PLP.part.buried>
-1.2008

> <Gold.PLP.part.nonpolar>
-20.7273

> <Gold.PLP.part.repulsive>
0.2292

> <Gold.PLP.ligand.clash>
0.0000

> <Gold.PLP.ligand.torsion>
0.0434

> <Gold.PLP.Chemscore.Hbond>
2.6960

> <Gold.PLP.Chemscore.CHOScore>
0.0000

> <Gold.PLP.Chemscore.Metal>
0.0000

> <Gold.Chemscore.Hbonds>
donor molecule, donor type, donor heavy atom, donor atom, acceptor molecule, acceptor atom, score
      L1  H     5    22       P1  7948  0.86
      L1  H     8    23       P1  7948  1.00
      P1  H  7989  7998       L1    14  0.70

> <Gold.PLP.Chemscore.Internal.Correction>
0.0004

> <Gold.Rescore>
     Score         DG    S(hbond)    S(metal)    S(lipo)     H(rot)  DE(clash)    DE(int)     intcor
     12.79     -14.65       1.96        0.00      44.32       1.00       0.65       1.21       ----

> <Gold.Chemscore.Fitness>
12.7948

> <Gold.Chemscore.DG>
-14.6546

> <Gold.Chemscore.ZeroCoef>
-5.4800

> <Gold.Chemscore.Hbond>
1.9609

> <Gold.Chemscore.Metal>
0.0000

> <Gold.Chemscore.Lipo>
44.3191

> <Gold.Chemscore.Internal_Hbond>
0.0000

> <Gold.Chemscore.DEClash>
0.6518

> <Gold.Chemscore.DEInternal>
1.2080

> <Gold.Chemscore.Rot>
1.0000

> <Gold.Chemscore.Internal.Correction>
   9.000000E+99

> <Gold.Chemscore.Hbonds>
donor molecule, donor type, donor heavy atom, donor atom, acceptor molecule, acceptor atom, score
      L1  H     5    22       P1  7948  0.16
      L1  H     8    23       P1  7948  0.38
      P1  H  7989  7998       L1    14  0.17

> <Gold.Chemscore.Hbond.Weighted>
-6.5493

> <Gold.Chemscore.Metal.Weighted>
-0.0000

> <Gold.Chemscore.Lipo.Weighted>
-5.1853

> <Gold.Chemscore.Internal_Hbond.Weighted>
0.0000

> <Gold.Chemscore.DEClash.Weighted>
0.6518

> <Gold.Chemscore.DEInternal.Weighted>
1.2080

> <Gold.Chemscore.Rot.Weighted>
2.5600

> <Gold.Chemscore.Internal.Correction.Weighted>
   9.000000E+99

> <Gold.Protein.RotatedTorsions>
[ 6907 6896 6895 6894 ] final   99.41 input  -60.11 | X-H torsion
[ 7974 7965 7964 7962 ] final -160.18 input  175.53 | X-H torsion
[ 8008 7997 7996 7995 ] final   70.93 input   59.86 | X-H torsion
[ 10167 10162 10161 10158 ] final  -53.11 input  -65.29 | X-H torsion
[ 10718 10713 10712 10709 ] final   70.67 input   66.30 | X-H torsion
[ 10763 10752 10751 10750 ] final  -74.66 input  -60.55 | X-H torsion
[ 11005 11000 10999 10996 ] final  133.60 input  -57.11 | X-H torsion

> <Gold.Protein.ActiveResidues>
 VAL166  LYS551  ARG553  GLY616  TRP617  ASP618  TYR619  PRO620  LYS621  CYS622 
 ASP623  PHE694  ASN695  SER759  ASP760  ASP761  ALA762  ILE779  LEU786  VAL792 
 PHE793  MET794  SER795  GLU796  ALA797  LYS798  CYS799  TRP800  GLU811  SER814 

> <Gold.Protein.RotatedAtoms>
  152.5392  134.0433  159.8077 H   0  0  0  0  0  0  0  0  0  0  0  0  # atno 6907 bound_to 6896
  151.0586  133.5556  159.2643 H   0  0  0  0  0  0  0  0  0  0  0  0  # atno 6908 bound_to 6896
  151.2463  135.0614  159.9098 H   0  0  0  0  0  0  0  0  0  0  0  0  # atno 6909 bound_to 6896
  144.7437  140.3578  143.6102 H   0  0  0  0  0  0  0  0  0  0  0  0  # atno 7974 bound_to 7965
  155.7463  140.3489  155.5128 H   0  0  0  0  0  0  0  0  0  0  0  0  # atno 8008 bound_to 7997
  155.9047  140.1040  157.1345 H   0  0  0  0  0  0  0  0  0  0  0  0  # atno 8009 bound_to 7997
  154.4048  140.1279  156.4467 H   0  0  0  0  0  0  0  0  0  0  0  0  # atno 8010 bound_to 7997
  140.6502  143.2561  151.4744 H   0  0  0  0  0  0  0  0  0  0  0  0  # atno 10167 bound_to 10162
  157.6412  130.9489  150.0682 H   0  0  0  0  0  0  0  0  0  0  0  0  # atno 10718 bound_to 10713
  154.4761  135.5857  153.6356 H   0  0  0  0  0  0  0  0  0  0  0  0  # atno 10763 bound_to 10752
  152.9841  135.6078  154.3306 H   0  0  0  0  0  0  0  0  0  0  0  0  # atno 10764 bound_to 10752
  154.3192  135.2844  155.2507 H   0  0  0  0  0  0  0  0  0  0  0  0  # atno 10765 bound_to 10752
  139.9862  134.9531  156.9748 H   0  0  0  0  0  0  0  0  0  0  0  0  # atno 11005 bound_to 11000
  145.7208  139.1709  143.2485 LP  0  0  0  0  0  0  0  0  0  0  0  0  # atno 17320 bound_to 7965
  146.1278  140.7225  142.9426 LP  0  0  0  0  0  0  0  0  0  0  0  0  # atno 17321 bound_to 7965
  139.5716  144.1914  152.1845 LP  0  0  0  0  0  0  0  0  0  0  0  0  # atno 17342 bound_to 10162
  140.1212  144.5371  150.6861 LP  0  0  0  0  0  0  0  0  0  0  0  0  # atno 17343 bound_to 10162
  156.1694  130.3646  149.9186 LP  0  0  0  0  0  0  0  0  0  0  0  0  # atno 17370 bound_to 10713
  156.7165  130.8990  151.3614 LP  0  0  0  0  0  0  0  0  0  0  0  0  # atno 17371 bound_to 10713
  140.4998  134.1109  155.7248 LP  0  0  0  0  0  0  0  0  0  0  0  0  # atno 17394 bound_to 11000
  141.1526  133.8940  157.2058 LP  0  0  0  0  0  0  0  0  0  0  0  0  # atno 17395 bound_to 11000

$$$$
