AV-unprocessed.smi:103|AV-procd|sdf|983|dock8
  -GOLD-   2262017553D 1   1.00000     0.00000
 Structure written by MMmdl.
 53 55  0  0  0  0  0  0  0  0  1 V2000
  144.8144  143.5912  161.9268 C   0  0  0  0  0  0  0  0  0  0  0  0
  145.0346  142.7813  160.6560 C   0  0  0  0  0  0  0  0  0  0  0  0
  146.1129  142.2373  160.4175 O   0  0  0  0  0  0  0  0  0  0  0  0
  143.9440  142.7495  159.8771 O   0  0  0  0  0  0  0  0  0  0  0  0
  143.9520  141.9881  158.6808 C   0  0  0  0  0  0  0  0  0  0  0  0
  144.0769  140.5000  159.0269 C   0  0  2  0  0  0  0  0  0  0  0  0
  145.4280  140.0891  158.8909 O   0  0  0  0  0  0  0  0  0  0  0  0
  145.4780  138.7187  158.6486 C   0  0  2  0  0  0  0  0  0  0  0  0
  146.5370  138.4801  157.6117 N   0  0  0  0  0  0  0  0  0  0  0  0
  147.6264  137.6317  157.6358 C   0  0  0  0  0  0  0  0  0  0  0  0
  148.0793  136.5156  158.9598 S   0  0  0  0  0  0  0  0  0  0  0  0
  147.1624  134.9868  158.5065 C   0  0  0  0  0  0  0  0  0  0  0  0
  149.5235  136.2637  158.8343 O   0  0  0  0  0  0  0  0  0  0  0  0
  147.5233  137.0691  160.2038 O   0  0  0  0  0  0  0  0  0  0  0  0
  148.3594  137.5879  156.5563 N   0  0  0  0  0  0  0  0  0  0  0  0
  147.7412  138.5039  155.7176 C   0  0  0  0  0  0  0  0  0  0  0  0
  147.9980  138.9647  154.4018 C   0  0  0  0  0  0  0  0  0  0  0  0
  149.0297  138.5323  153.6635 N   0  0  0  0  0  0  0  0  0  0  0  0
  147.1614  139.8822  153.8632 N   0  0  0  0  0  0  0  0  0  0  0  0
  146.1228  140.3271  154.5779 C   0  0  0  0  0  0  0  0  0  0  0  0
  145.7567  139.9907  155.8174 N   0  0  0  0  0  0  0  0  0  0  0  0
  146.6040  139.0686  156.3629 C   0  0  0  0  0  0  0  0  0  0  0  0
  144.0776  138.2644  158.1823 C   0  0  2  0  0  0  0  0  0  0  0  0
  144.1130  137.5927  156.9262 O   0  0  0  0  0  0  0  0  0  0  0  0
  142.9814  137.1518  156.3571 C   0  0  0  0  0  0  0  0  0  0  0  0
  143.2317  136.5078  155.0006 C   0  0  0  0  0  0  0  0  0  0  0  0
  141.8497  137.2320  156.8344 O   0  0  0  0  0  0  0  0  0  0  0  0
  143.3084  139.5731  158.0842 C   0  0  1  0  0  0  0  0  0  0  0  0
  141.9751  139.3701  158.5370 O   0  0  0  0  0  0  0  0  0  0  0  0
  141.7261  139.0873  159.8274 C   0  0  0  0  0  0  0  0  0  0  0  0
  140.2354  138.9892  160.1208 C   0  0  0  0  0  0  0  0  0  0  0  0
  142.5663  138.9091  160.7090 O   0  0  0  0  0  0  0  0  0  0  0  0
  144.2192  143.0205  162.6396 H   0  0  0  0  0  0  0  0  0  0  0  0
  144.2891  144.5193  161.7003 H   0  0  0  0  0  0  0  0  0  0  0  0
  145.7684  143.8397  162.3920 H   0  0  0  0  0  0  0  0  0  0  0  0
  143.0445  142.1616  158.1000 H   0  0  0  0  0  0  0  0  0  0  0  0
  144.7976  142.3038  158.0687 H   0  0  0  0  0  0  0  0  0  0  0  0
  143.7840  140.3187  160.0628 H   0  0  0  0  0  0  0  0  0  0  0  0
  145.8069  138.1969  159.5429 H   0  0  0  0  0  0  0  0  0  0  0  0
  147.3989  134.1983  159.2204 H   0  0  0  0  0  0  0  0  0  0  0  0
  147.4558  134.6705  157.5057 H   0  0  0  0  0  0  0  0  0  0  0  0
  146.0910  135.1794  158.5260 H   0  0  0  0  0  0  0  0  0  0  0  0
  149.6669  137.8462  154.0419 H   0  0  0  0  0  0  0  0  0  0  0  0
  149.1725  138.8984  152.7335 H   0  0  0  0  0  0  0  0  0  0  0  0
  145.4954  141.0565  154.0869 H   0  0  0  0  0  0  0  0  0  0  0  0
  143.6693  137.6303  158.9713 H   0  0  0  0  0  0  0  0  0  0  0  0
  143.9171  135.6662  155.1024 H   0  0  0  0  0  0  0  0  0  0  0  0
  143.6708  137.2317  154.3141 H   0  0  0  0  0  0  0  0  0  0  0  0
  142.2983  136.1446  154.5700 H   0  0  0  0  0  0  0  0  0  0  0  0
  143.3670  139.9522  157.0625 H   0  0  0  0  0  0  0  0  0  0  0  0
  139.6940  139.7903  159.6172 H   0  0  0  0  0  0  0  0  0  0  0  0
  140.0507  139.0693  161.1920 H   0  0  0  0  0  0  0  0  0  0  0  0
  139.8450  138.0329  159.7726 H   0  0  0  0  0  0  0  0  0  0  0  0
  1  2  1  0  0  0  0
  1 33  1  0  0  0  0
  1 34  1  0  0  0  0
  1 35  1  0  0  0  0
  2  3  2  0  0  0  0
  2  4  1  0  0  0  0
  4  5  1  0  0  0  0
  5  6  1  0  0  0  0
  5 36  1  0  0  0  0
  5 37  1  0  0  0  0
  6 28  1  0  0  0  0
  6  7  1  0  0  0  0
  6 38  1  0  0  0  0
  7  8  1  0  0  0  0
  8  9  1  0  0  0  0
  8 23  1  0  0  0  0
  8 39  1  0  0  0  0
  9 22  1  0  0  0  0
  9 10  1  0  0  0  0
 10 11  1  0  0  0  0
 10 15  2  0  0  0  0
 11 12  1  0  0  0  0
 11 13  2  0  0  0  0
 11 14  2  0  0  0  0
 12 40  1  0  0  0  0
 12 41  1  0  0  0  0
 12 42  1  0  0  0  0
 15 16  1  0  0  0  0
 16 22  2  0  0  0  0
 16 17  1  0  0  0  0
 17 18  1  0  0  0  0
 17 19  2  0  0  0  0
 18 43  1  0  0  0  0
 18 44  1  0  0  0  0
 19 20  1  0  0  0  0
 20 21  2  0  0  0  0
 20 45  1  0  0  0  0
 21 22  1  0  0  0  0
 23 24  1  0  0  0  0
 23 28  1  0  0  0  0
 23 46  1  0  0  0  0
 24 25  1  0  0  0  0
 25 26  1  0  0  0  0
 25 27  2  0  0  0  0
 26 47  1  0  0  0  0
 26 48  1  0  0  0  0
 26 49  1  0  0  0  0
 28 29  1  0  0  0  0
 28 50  1  0  0  0  0
 29 30  1  0  0  0  0
 30 31  1  0  0  0  0
 30 32  2  0  0  0  0
 31 51  1  0  0  0  0
 31 52  1  0  0  0  0
 31 53  1  0  0  0  0
M  END
> <s_m_source_file>
AV-unprocessed.smi

> <i_m_source_file_index>
103

> <i_lp_mmshare_version>
43012

> <i_f3d_flags>
0

> <s_epik_input>
W0NIM11DKD1PKU9bQ0gyXVtDQEBIXTFPW0NASF0oW0NAQEhdKE9DKD1PKVtDSDNdKVtDQEhdMU9DKD1PKVtDSDNdKW4oYyhuMilTKD1PKSg9TylbQ0gzXSljKGMyMyluW2NIXW5jM1tOSDJd

> <s_epik_cmdline>
J2VwaWtfcHl0aG9uJywgJy1waCcsICc3LjAnLCAnLXRuJywgJzgnLCAnLW1hJywgJzIwMCcsICctbWV0YWxfYmluZGluZycsICctaW1hZScsICc8aW5maWxlLm1hZT4nLCAnLW9tYWUnLCAnPG91dGZpbGUubWFlPic=

> <r_lp_tautomer_probability>
1

> <r_epik_Ionization_Penalty>
1.51338e-05

> <r_epik_Ionization_Penalty_Charging>
0

> <r_epik_Ionization_Penalty_Neutral>
1.51338e-05

> <r_epik_State_Penalty>
-0

> <r_epik_Charging_Adjusted_Penalty>
0

> <i_epik_Tot_Q>
0

> <i_epik_Tot_abs_Q>
0

> <r_epik_Metal_State_Penalty>
-0

> <b_epik_Metal_Only>
0

> <s_epik_Chemistry_Notes>
This compound has an ester and may undergo hydrolysis at high or low pH. This compound contains an acetal/aminal-like group ( X-CH(R)-Y where X, Y are N, S, or O) that may be acid/base labile, releasing an aldehyde.

> <s_lp_Force_Field>
OPLS_2005

> <r_lp_Energy>
14.5233

> <b_lp_Chiralities_Consistent>
1

> <s_lp_Variant>
AV-unprocessed.smi:103-7

> <Gold.Version>
5.8.1

> <Gold.Id.Protein>
6NUR|6NUR_protein|mol2

> <Gold.PLP.Fitness>
37.0048

> <Gold.PLP.PLP>
-21.7756

> <Gold.PLP.part.hbond>
-8.4288

> <Gold.PLP.part.metal>
0.0000

> <Gold.PLP.part.buried>
-4.0194

> <Gold.PLP.part.nonpolar>
-9.6771

> <Gold.PLP.part.repulsive>
0.2446

> <Gold.PLP.ligand.clash>
0.0000

> <Gold.PLP.ligand.torsion>
1.6672

> <Gold.PLP.Chemscore.Hbond>
4.4123

> <Gold.PLP.Chemscore.CHOScore>
1.0000

> <Gold.PLP.Chemscore.Metal>
0.0000

> <Gold.Chemscore.Hbonds>
donor molecule, donor type, donor heavy atom, donor atom, acceptor molecule, acceptor atom, score
      L1  H    18    44       P1  7957  1.00
      P1  H  6896  6908       L1    13  0.83
      P1  H  6934  6946       L1     3  1.00
      P1  H  6934  6947       L1    14  0.81
      L1  C    20    45       P1 10175  0.90

> <Gold.PLP.Chemscore.Internal.Correction>
2.3266

> <Gold.Rescore>
     Score         DG    S(hbond)    S(metal)    S(lipo)     H(rot)  DE(clash)    DE(int)     intcor
      0.54      -9.98       4.16        0.00      12.69       4.25       0.03       9.41       ----

> <Gold.Chemscore.Fitness>
0.5395

> <Gold.Chemscore.DG>
-9.9814

> <Gold.Chemscore.ZeroCoef>
-5.4800

> <Gold.Chemscore.Hbond>
4.1573

> <Gold.Chemscore.Metal>
0.0000

> <Gold.Chemscore.Lipo>
12.6889

> <Gold.Chemscore.Internal_Hbond>
0.0000

> <Gold.Chemscore.DEClash>
0.0279

> <Gold.Chemscore.DEInternal>
9.4140

> <Gold.Chemscore.Rot>
4.2456

> <Gold.Chemscore.Internal.Correction>
   9.000000E+99

> <Gold.Chemscore.Hbonds>
donor molecule, donor type, donor heavy atom, donor atom, acceptor molecule, acceptor atom, score
      L1  H    18    44       P1  7957  0.96
      P1  H  6896  6908       L1    13  0.80
      P1  H  6934  6946       L1     3  0.99
      P1  H  6934  6947       L1    14  0.76

> <Gold.Chemscore.Hbond.Weighted>
-13.8855

> <Gold.Chemscore.Metal.Weighted>
-0.0000

> <Gold.Chemscore.Lipo.Weighted>
-1.4846

> <Gold.Chemscore.Internal_Hbond.Weighted>
0.0000

> <Gold.Chemscore.DEClash.Weighted>
0.0279

> <Gold.Chemscore.DEInternal.Weighted>
9.4140

> <Gold.Chemscore.Rot.Weighted>
10.8687

> <Gold.Chemscore.Internal.Correction.Weighted>
   9.000000E+99

> <Gold.Protein.RotatedTorsions>
[ 6907 6896 6895 6894 ] final -172.52 input  -60.11 | X-H torsion
[ 7974 7965 7964 7962 ] final  -15.29 input  175.53 | X-H torsion
[ 8008 7997 7996 7995 ] final  175.09 input   59.86 | X-H torsion
[ 10167 10162 10161 10158 ] final  125.27 input  -65.29 | X-H torsion
[ 10718 10713 10712 10709 ] final  -53.51 input   66.30 | X-H torsion
[ 10763 10752 10751 10750 ] final  158.70 input  -60.55 | X-H torsion
[ 11005 11000 10999 10996 ] final   -3.94 input  -57.11 | X-H torsion

> <Gold.Protein.ActiveResidues>
 VAL166  LYS551  ARG553  GLY616  TRP617  ASP618  TYR619  PRO620  LYS621  CYS622 
 ASP623  PHE694  ASN695  SER759  ASP760  ASP761  ALA762  ILE779  LEU786  VAL792 
 PHE793  MET794  SER795  GLU796  ALA797  LYS798  CYS799  TRP800  GLU811  SER814 

> <Gold.Protein.RotatedAtoms>
  151.5413  133.3432  159.2935 H   0  0  0  0  0  0  0  0  0  0  0  0  # atno 6907 bound_to 6896
  150.8534  134.7868  159.7037 H   0  0  0  0  0  0  0  0  0  0  0  0  # atno 6908 bound_to 6896
  152.4574  134.5270  159.9851 H   0  0  0  0  0  0  0  0  0  0  0  0  # atno 6909 bound_to 6896
  146.2038  140.3471  142.8414 H   0  0  0  0  0  0  0  0  0  0  0  0  # atno 7974 bound_to 7965
  156.0907  140.1418  156.9596 H   0  0  0  0  0  0  0  0  0  0  0  0  # atno 8008 bound_to 7997
  154.4640  140.0933  156.7018 H   0  0  0  0  0  0  0  0  0  0  0  0  # atno 8009 bound_to 7997
  155.4924  140.3448  155.4359 H   0  0  0  0  0  0  0  0  0  0  0  0  # atno 8010 bound_to 7997
  139.5695  144.6931  151.3818 H   0  0  0  0  0  0  0  0  0  0  0  0  # atno 10167 bound_to 10162
  156.1529  130.4151  149.9916 H   0  0  0  0  0  0  0  0  0  0  0  0  # atno 10718 bound_to 10713
  154.2202  135.2782  155.2927 H   0  0  0  0  0  0  0  0  0  0  0  0  # atno 10763 bound_to 10752
  154.5708  135.5619  153.7096 H   0  0  0  0  0  0  0  0  0  0  0  0  # atno 10764 bound_to 10752
  153.0043  135.6321  154.2342 H   0  0  0  0  0  0  0  0  0  0  0  0  # atno 10765 bound_to 10752
  140.6749  133.9204  155.8518 H   0  0  0  0  0  0  0  0  0  0  0  0  # atno 11005 bound_to 11000
  144.8745  140.7318  143.6026 LP  0  0  0  0  0  0  0  0  0  0  0  0  # atno 17320 bound_to 7965
  145.3390  139.1737  143.4496 LP  0  0  0  0  0  0  0  0  0  0  0  0  # atno 17321 bound_to 7965
  140.6979  143.7704  150.7356 LP  0  0  0  0  0  0  0  0  0  0  0  0  # atno 17342 bound_to 10162
  140.1206  143.4616  152.2315 LP  0  0  0  0  0  0  0  0  0  0  0  0  # atno 17343 bound_to 10162
  156.7768  130.9207  151.3645 LP  0  0  0  0  0  0  0  0  0  0  0  0  # atno 17370 bound_to 10713
  157.6671  130.9018  149.9957 LP  0  0  0  0  0  0  0  0  0  0  0  0  # atno 17371 bound_to 10713
  141.0363  134.0684  157.3955 LP  0  0  0  0  0  0  0  0  0  0  0  0  # atno 17394 bound_to 11000
  139.8970  135.0148  156.7078 LP  0  0  0  0  0  0  0  0  0  0  0  0  # atno 17395 bound_to 11000

$$$$
