AV-unprocessed.smi:1644|AV-procd|sdf|6596|dock2
  -GOLD-   22720 7293D 1   1.00000     0.00000
 Structure written by MMmdl.
 49 51  0  0  0  0  0  0  0  0  3 V2000
  149.6605  137.8077  159.0931 C   0  0  0  0  0  0  0  0  0  0  0  0
  148.7749  136.6646  159.5998 C   0  0  0  0  0  0  0  0  0  0  0  0
  147.8288  136.1250  158.5054 C   0  0  0  0  0  0  0  0  0  0  0  0
  148.5078  135.5422  157.2418 C   0  0  2  0  0  0  0  0  0  0  0  0
  149.7312  134.8374  157.5643 N   0  5  0  0  0  0  0  0  0  0  0  0
  150.7419  135.3889  156.8522 C   0  0  0  0  0  0  0  0  0  0  0  0
  151.9276  135.0594  156.8815 O   0  0  0  0  0  0  0  0  0  0  0  0
  150.2978  136.4018  156.0819 N   0  0  0  0  0  0  0  0  0  0  0  0
  151.1424  137.2392  155.2251 C   0  0  0  0  0  0  0  0  0  0  0  0
  150.7598  138.7292  155.3419 C   0  0  2  0  0  0  0  0  0  0  0  0
  150.5821  139.2677  154.0460 O   0  0  0  0  0  0  0  0  0  0  0  0
  151.8472  139.5505  156.0614 C   0  0  0  0  0  0  0  0  0  0  0  0
  151.3579  140.8632  156.4992 N   0  0  0  0  0  0  0  0  0  0  0  0
  150.5263  141.7456  155.8827 C   0  0  0  0  0  0  0  0  0  0  0  0
  150.3773  142.8159  156.7124 N   0  3  0  0  0  0  0  0  0  0  0  0
  151.1214  142.6102  157.8771 C   0  0  0  0  0  0  0  0  0  0  0  0
  151.2824  143.3999  159.0096 C   0  0  0  0  0  0  0  0  0  0  0  0
  152.1129  142.8945  160.0358 C   0  0  0  0  0  0  0  0  0  0  0  0
  152.3030  143.7282  161.2913 C   0  0  0  0  0  0  0  0  0  0  0  0
  152.7562  141.6364  159.9023 C   0  0  0  0  0  0  0  0  0  0  0  0
  153.6465  141.1013  161.0107 C   0  0  0  0  0  0  0  0  0  0  0  0
  152.5829  140.8504  158.7413 C   0  0  0  0  0  0  0  0  0  0  0  0
  151.7560  141.3606  157.7439 C   0  0  0  0  0  0  0  0  0  0  0  0
  148.9856  136.5860  156.2527 C   0  0  0  0  0  0  0  0  0  0  0  0
  148.2675  137.4401  155.7319 O   0  0  0  0  0  0  0  0  0  0  0  0
  150.3107  138.1760  159.8868 H   0  0  0  0  0  0  0  0  0  0  0  0
  149.0584  138.6455  158.7404 H   0  0  0  0  0  0  0  0  0  0  0  0
  150.2938  137.4783  158.2692 H   0  0  0  0  0  0  0  0  0  0  0  0
  149.4155  135.8661  159.9746 H   0  0  0  0  0  0  0  0  0  0  0  0
  148.1940  137.0190  160.4517 H   0  0  0  0  0  0  0  0  0  0  0  0
  147.1865  135.3579  158.9400 H   0  0  0  0  0  0  0  0  0  0  0  0
  147.1566  136.9273  158.1984 H   0  0  0  0  0  0  0  0  0  0  0  0
  147.7978  134.8922  156.7288 H   0  0  0  0  0  0  0  0  0  0  0  0
  152.1766  137.0958  155.5425 H   0  0  0  0  0  0  0  0  0  0  0  0
  151.1181  136.9042  154.1863 H   0  0  0  0  0  0  0  0  0  0  0  0
  149.8197  138.8330  155.8846 H   0  0  0  0  0  0  0  0  0  0  0  0
  150.1405  138.6251  153.5124 H   0  0  0  0  0  0  0  0  0  0  0  0
  152.2167  139.0222  156.9413 H   0  0  0  0  0  0  0  0  0  0  0  0
  152.7080  139.7100  155.4105 H   0  0  0  0  0  0  0  0  0  0  0  0
  150.0643  141.6174  154.9145 H   0  0  0  0  0  0  0  0  0  0  0  0
  150.7903  144.3569  159.1046 H   0  0  0  0  0  0  0  0  0  0  0  0
  151.9941  143.1679  162.1743 H   0  0  0  0  0  0  0  0  0  0  0  0
  151.7126  144.6443  161.2559 H   0  0  0  0  0  0  0  0  0  0  0  0
  153.3500  144.0094  161.4075 H   0  0  0  0  0  0  0  0  0  0  0  0
  154.0977  140.1476  160.7340 H   0  0  0  0  0  0  0  0  0  0  0  0
  153.0687  140.9445  161.9219 H   0  0  0  0  0  0  0  0  0  0  0  0
  154.4543  141.8007  161.2267 H   0  0  0  0  0  0  0  0  0  0  0  0
  153.0673  139.8895  158.6408 H   0  0  0  0  0  0  0  0  0  0  0  0
  149.8057  143.6233  156.4988 H   0  0  0  0  0  0  0  0  0  0  0  0
  1  2  1  0  0  0  0
  1 26  1  0  0  0  0
  1 27  1  0  0  0  0
  1 28  1  0  0  0  0
  2  3  1  0  0  0  0
  2 29  1  0  0  0  0
  2 30  1  0  0  0  0
  3  4  1  0  0  0  0
  3 31  1  0  0  0  0
  3 32  1  0  0  0  0
  4 24  1  0  0  0  0
  4  5  1  0  0  0  0
  4 33  1  0  0  0  0
  5  6  1  0  0  0  0
  6  7  2  0  0  0  0
  6  8  1  0  0  0  0
  8  9  1  0  0  0  0
  8 24  1  0  0  0  0
  9 10  1  0  0  0  0
  9 34  1  0  0  0  0
  9 35  1  0  0  0  0
 10 11  1  0  0  0  0
 10 12  1  0  0  0  0
 10 36  1  0  0  0  0
 11 37  1  0  0  0  0
 12 13  1  0  0  0  0
 12 38  1  0  0  0  0
 12 39  1  0  0  0  0
 13 23  1  0  0  0  0
 13 14  1  0  0  0  0
 14 15  2  0  0  0  0
 14 40  1  0  0  0  0
 15 16  1  0  0  0  0
 15 49  1  0  0  0  0
 16 23  2  0  0  0  0
 16 17  1  0  0  0  0
 17 18  2  0  0  0  0
 17 41  1  0  0  0  0
 18 19  1  0  0  0  0
 18 20  1  0  0  0  0
 19 42  1  0  0  0  0
 19 43  1  0  0  0  0
 19 44  1  0  0  0  0
 20 21  1  0  0  0  0
 20 22  2  0  0  0  0
 21 45  1  0  0  0  0
 21 46  1  0  0  0  0
 21 47  1  0  0  0  0
 22 23  1  0  0  0  0
 22 48  1  0  0  0  0
 24 25  2  0  0  0  0
M  CHG  1   5  -1
M  CHG  1  15   1
M  END
> <s_m_source_file>
AV-unprocessed.smi

> <i_m_source_file_index>
1644

> <i_lp_mmshare_version>
43012

> <i_f3d_flags>
0

> <s_epik_input>
W0NIM11bQ0gyXVtDSDJdW0NAQEhdMVtOSF1DKD1PKU4oQzE9TylbQ0gyXVtDQEhdKFtPSF0pW0NIMl1uKFtjSF1uMiljKGMyMylbY0hdYyhbQ0gzXSljKFtjSF0zKVtDSDNd

> <s_epik_cmdline>
J2VwaWtfcHl0aG9uJywgJy1waCcsICc3LjAnLCAnLXRuJywgJzgnLCAnLW1hJywgJzIwMCcsICctbWV0YWxfYmluZGluZycsICctaW1hZScsICc8aW5maWxlLm1hZT4nLCAnLW9tYWUnLCAnPG91dGZpbGUubWFlPic=

> <r_lp_tautomer_probability>
1

> <r_epik_Ionization_Penalty>
6.86868

> <r_epik_Ionization_Penalty_Charging>
6.86868

> <r_epik_Ionization_Penalty_Neutral>
5.84798e-07

> <r_epik_State_Penalty>
6.92818

> <r_epik_Charging_Adjusted_Penalty>
13.7969

> <i_epik_Tot_Q>
0

> <i_epik_Tot_abs_Q>
2

> <r_epik_Metal_State_Penalty>
2.98017

> <b_epik_Metal_Only>
1

> <s_lp_Force_Field>
OPLS_2005

> <r_lp_Energy>
22.7735

> <b_lp_Chiralities_Consistent>
1

> <s_lp_Variant>
AV-unprocessed.smi:1644-13

> <Gold.Version>
5.8.1

> <Gold.Id.Protein>
6NUR|6NUR_protein|mol2

> <Gold.PLP.Fitness>
59.2607

> <Gold.PLP.PLP>
-45.2215

> <Gold.PLP.part.hbond>
-4.7405

> <Gold.PLP.part.metal>
0.0000

> <Gold.PLP.part.buried>
-5.8978

> <Gold.PLP.part.nonpolar>
-35.1712

> <Gold.PLP.part.repulsive>
0.0848

> <Gold.PLP.ligand.clash>
0.0000

> <Gold.PLP.ligand.torsion>
1.5659

> <Gold.PLP.Chemscore.Hbond>
5.6960

> <Gold.PLP.Chemscore.CHOScore>
0.0000

> <Gold.PLP.Chemscore.Metal>
0.0000

> <Gold.Chemscore.Hbonds>
donor molecule, donor type, donor heavy atom, donor atom, acceptor molecule, acceptor atom, score
      L1  H    15    49       P1  8028  2.00
      P1  H  6896  6907       L1     5  1.47
      P1  H  7989  7998       L1    11  1.00
      P1  H 10752 10763       L1     7  0.60

> <Gold.PLP.Chemscore.Internal.Correction>
0.0831

> <Gold.Rescore>
     Score         DG    S(hbond)    S(metal)    S(lipo)     H(rot)  DE(clash)    DE(int)     intcor
     20.54     -23.61       3.65        0.00     110.32       2.72       0.01       3.05       ----

> <Gold.Chemscore.Fitness>
20.5443

> <Gold.Chemscore.DG>
-23.6065

> <Gold.Chemscore.ZeroCoef>
-5.4800

> <Gold.Chemscore.Hbond>
3.6510

> <Gold.Chemscore.Metal>
0.0000

> <Gold.Chemscore.Lipo>
110.3158

> <Gold.Chemscore.Internal_Hbond>
0.0000

> <Gold.Chemscore.DEClash>
0.0126

> <Gold.Chemscore.DEInternal>
3.0495

> <Gold.Chemscore.Rot>
2.7245

> <Gold.Chemscore.Internal.Correction>
   9.000000E+99

> <Gold.Chemscore.Hbonds>
donor molecule, donor type, donor heavy atom, donor atom, acceptor molecule, acceptor atom, score
      L1  H    15    49       P1  8028  1.00
      P1  H  6896  6907       L1     5  0.31
      P1  H  7989  7998       L1    11  0.94
      P1  H 10752 10763       L1     7  0.59

> <Gold.Chemscore.Hbond.Weighted>
-12.1943

> <Gold.Chemscore.Metal.Weighted>
-0.0000

> <Gold.Chemscore.Lipo.Weighted>
-12.9069

> <Gold.Chemscore.Internal_Hbond.Weighted>
0.0000

> <Gold.Chemscore.DEClash.Weighted>
0.0126

> <Gold.Chemscore.DEInternal.Weighted>
3.0495

> <Gold.Chemscore.Rot.Weighted>
6.9748

> <Gold.Chemscore.Internal.Correction.Weighted>
   9.000000E+99

> <Gold.Protein.RotatedTorsions>
[ 6907 6896 6895 6894 ] final  -96.43 input  -60.11 | X-H torsion
[ 7974 7965 7964 7962 ] final   29.87 input  175.53 | X-H torsion
[ 8008 7997 7996 7995 ] final   72.23 input   59.86 | X-H torsion
[ 10167 10162 10161 10158 ] final -120.74 input  -65.29 | X-H torsion
[ 10718 10713 10712 10709 ] final   84.52 input   66.30 | X-H torsion
[ 10763 10752 10751 10750 ] final  100.13 input  -60.55 | X-H torsion
[ 11005 11000 10999 10996 ] final  166.69 input  -57.11 | X-H torsion

> <Gold.Protein.ActiveResidues>
 VAL166  LYS551  ARG553  GLY616  TRP617  ASP618  TYR619  PRO620  LYS621  CYS622 
 ASP623  PHE694  ASN695  SER759  ASP760  ASP761  ALA762  ILE779  LEU786  VAL792 
 PHE793  MET794  SER795  GLU796  ALA797  LYS798  CYS799  TRP800  GLU811  SER814 

> <Gold.Protein.RotatedAtoms>
  150.6988  134.1504  159.4138 H   0  0  0  0  0  0  0  0  0  0  0  0  # atno 6907 bound_to 6896
  151.9487  135.0177  160.0550 H   0  0  0  0  0  0  0  0  0  0  0  0  # atno 6908 bound_to 6896
  152.2030  133.4820  159.5105 H   0  0  0  0  0  0  0  0  0  0  0  0  # atno 6909 bound_to 6896
  146.1646  139.6864  142.9010 H   0  0  0  0  0  0  0  0  0  0  0  0  # atno 7974 bound_to 7965
  155.7657  140.3485  155.5221 H   0  0  0  0  0  0  0  0  0  0  0  0  # atno 8008 bound_to 7997
  155.8871  140.1011  157.1466 H   0  0  0  0  0  0  0  0  0  0  0  0  # atno 8009 bound_to 7997
  154.4030  140.1311  156.4256 H   0  0  0  0  0  0  0  0  0  0  0  0  # atno 8010 bound_to 7997
  140.0326  143.5233  152.2169 H   0  0  0  0  0  0  0  0  0  0  0  0  # atno 10167 bound_to 10162
  157.6899  131.0136  150.2685 H   0  0  0  0  0  0  0  0  0  0  0  0  # atno 10718 bound_to 10713
  153.3100  135.4089  155.1328 H   0  0  0  0  0  0  0  0  0  0  0  0  # atno 10763 bound_to 10752
  154.8573  135.3562  154.5736 H   0  0  0  0  0  0  0  0  0  0  0  0  # atno 10764 bound_to 10752
  153.6164  135.7066  153.5385 H   0  0  0  0  0  0  0  0  0  0  0  0  # atno 10765 bound_to 10752
  140.2691  134.7841  157.3659 H   0  0  0  0  0  0  0  0  0  0  0  0  # atno 11005 bound_to 11000
  145.4501  141.0428  143.2809 LP  0  0  0  0  0  0  0  0  0  0  0  0  # atno 17320 bound_to 7965
  144.8074  139.6025  143.7044 LP  0  0  0  0  0  0  0  0  0  0  0  0  # atno 17321 bound_to 7965
  139.6066  144.7598  151.3047 LP  0  0  0  0  0  0  0  0  0  0  0  0  # atno 17342 bound_to 10162
  140.7295  143.6905  150.7926 LP  0  0  0  0  0  0  0  0  0  0  0  0  # atno 17343 bound_to 10162
  156.3252  130.3792  149.7540 LP  0  0  0  0  0  0  0  0  0  0  0  0  # atno 17370 bound_to 10713
  156.5097  130.8166  151.3164 LP  0  0  0  0  0  0  0  0  0  0  0  0  # atno 17371 bound_to 10713
  140.1391  134.4996  155.8046 LP  0  0  0  0  0  0  0  0  0  0  0  0  # atno 17394 bound_to 11000
  141.2180  133.6818  156.7177 LP  0  0  0  0  0  0  0  0  0  0  0  0  # atno 17395 bound_to 11000

$$$$
