AV-unprocessed.smi:1396|AV-procd|sdf|5675|dock5
  -GOLD-   22720 5303D 1   1.00000     0.00000
 Structure written by MMmdl.
 47 48  0  0  0  0  0  0  0  0  2 V2000
  146.4241  126.3588  155.4101 C   0  0  0  0  0  0  0  0  0  0  0  0
  147.0956  127.0314  154.3084 N   0  0  0  0  0  0  0  0  0  0  0  0
  147.3788  128.3414  154.2858 C   0  0  0  0  0  0  0  0  0  0  0  0
  147.1062  129.1070  155.2112 O   0  0  0  0  0  0  0  0  0  0  0  0
  148.0903  128.8607  153.0319 C   0  0  0  0  0  0  0  0  0  0  0  0
  148.3204  130.3285  153.0594 N   0  3  2  0  0  0  0  0  0  0  0  0
  149.1493  130.7678  154.2142 C   0  0  0  0  0  0  0  0  0  0  0  0
  149.4746  132.2679  154.1243 C   0  0  0  0  0  0  0  0  0  0  0  0
  148.1908  133.1080  154.0383 C   0  0  1  0  0  0  0  0  0  0  0  0
  148.5292  134.5195  153.8786 N   0  0  0  0  0  0  0  0  0  0  0  0
  149.1354  135.2767  154.8046 C   0  0  0  0  0  0  0  0  0  0  0  0
  149.4700  134.8519  155.9098 O   0  0  0  0  0  0  0  0  0  0  0  0
  149.3322  136.5285  154.3554 N   0  0  0  0  0  0  0  0  0  0  0  0
  149.9363  137.6311  155.0202 C   0  0  0  0  0  0  0  0  0  0  0  0
  150.1935  137.5049  156.4005 C   0  0  0  0  0  0  0  0  0  0  0  0
  150.8031  138.5711  157.0881 C   0  0  0  0  0  0  0  0  0  0  0  0
  151.1438  139.7345  156.3706 C   0  0  0  0  0  0  0  0  0  0  0  0
  151.7355  140.7798  157.0498 O   0  0  0  0  0  0  0  0  0  0  0  0
  151.7247  140.7534  158.4729 C   0  0  0  0  0  0  0  0  0  0  0  0
  150.9141  139.8622  155.0404 N   0  0  0  0  0  0  0  0  0  0  0  0
  150.3291  138.8360  154.3865 C   0  0  0  0  0  0  0  0  0  0  0  0
  147.3298  132.6116  152.8624 C   0  0  0  0  0  0  0  0  0  0  0  0
  147.0551  131.1018  152.9712 C   0  0  0  0  0  0  0  0  0  0  0  0
  146.2956  125.3015  155.1777 H   0  0  0  0  0  0  0  0  0  0  0  0
  145.4377  126.7902  155.5862 H   0  0  0  0  0  0  0  0  0  0  0  0
  147.0080  126.4377  156.3281 H   0  0  0  0  0  0  0  0  0  0  0  0
  147.3591  126.4646  153.5151 H   0  0  0  0  0  0  0  0  0  0  0  0
  149.0474  128.3401  152.9791 H   0  0  0  0  0  0  0  0  0  0  0  0
  147.5345  128.5868  152.1334 H   0  0  0  0  0  0  0  0  0  0  0  0
  148.6206  130.5547  155.1447 H   0  0  0  0  0  0  0  0  0  0  0  0
  150.0817  130.2035  154.2468 H   0  0  0  0  0  0  0  0  0  0  0  0
  150.0613  132.5692  154.9929 H   0  0  0  0  0  0  0  0  0  0  0  0
  150.1000  132.4504  153.2489 H   0  0  0  0  0  0  0  0  0  0  0  0
  147.6339  132.9755  154.9682 H   0  0  0  0  0  0  0  0  0  0  0  0
  148.2925  134.9486  152.9957 H   0  0  0  0  0  0  0  0  0  0  0  0
  149.0583  136.7025  153.3995 H   0  0  0  0  0  0  0  0  0  0  0  0
  149.9239  136.6033  156.9311 H   0  0  0  0  0  0  0  0  0  0  0  0
  151.0054  138.4986  158.1465 H   0  0  0  0  0  0  0  0  0  0  0  0
  152.2356  141.6376  158.8537 H   0  0  0  0  0  0  0  0  0  0  0  0
  152.2473  139.8776  158.8605 H   0  0  0  0  0  0  0  0  0  0  0  0
  150.7066  140.7654  158.8642 H   0  0  0  0  0  0  0  0  0  0  0  0
  150.1988  138.9993  153.3287 H   0  0  0  0  0  0  0  0  0  0  0  0
  146.3839  133.1536  152.8324 H   0  0  0  0  0  0  0  0  0  0  0  0
  147.8353  132.8207  151.9181 H   0  0  0  0  0  0  0  0  0  0  0  0
  146.4865  130.7790  152.0984 H   0  0  0  0  0  0  0  0  0  0  0  0
  146.4383  130.8938  153.8470 H   0  0  0  0  0  0  0  0  0  0  0  0
  148.8441  130.5432  152.2224 H   0  0  0  0  0  0  0  0  0  0  0  0
  1  2  1  0  0  0  0
  1 24  1  0  0  0  0
  1 25  1  0  0  0  0
  1 26  1  0  0  0  0
  2  3  1  0  0  0  0
  2 27  1  0  0  0  0
  3  4  2  0  0  0  0
  3  5  1  0  0  0  0
  5  6  1  0  0  0  0
  5 28  1  0  0  0  0
  5 29  1  0  0  0  0
  6 23  1  0  0  0  0
  6  7  1  0  0  0  0
  6 47  1  0  0  0  0
  7  8  1  0  0  0  0
  7 30  1  0  0  0  0
  7 31  1  0  0  0  0
  8  9  1  0  0  0  0
  8 32  1  0  0  0  0
  8 33  1  0  0  0  0
  9 10  1  0  0  0  0
  9 22  1  0  0  0  0
  9 34  1  0  0  0  0
 10 11  1  0  0  0  0
 10 35  1  0  0  0  0
 11 12  2  0  0  0  0
 11 13  1  0  0  0  0
 13 14  1  0  0  0  0
 13 36  1  0  0  0  0
 14 21  1  0  0  0  0
 14 15  2  0  0  0  0
 15 16  1  0  0  0  0
 15 37  1  0  0  0  0
 16 17  2  0  0  0  0
 16 38  1  0  0  0  0
 17 18  1  0  0  0  0
 17 20  1  0  0  0  0
 18 19  1  0  0  0  0
 19 39  1  0  0  0  0
 19 40  1  0  0  0  0
 19 41  1  0  0  0  0
 20 21  2  0  0  0  0
 21 42  1  0  0  0  0
 22 23  1  0  0  0  0
 22 43  1  0  0  0  0
 22 44  1  0  0  0  0
 23 45  1  0  0  0  0
 23 46  1  0  0  0  0
M  CHG  1   6   1
M  END
> <s_m_source_file>
AV-unprocessed.smi

> <i_m_source_file_index>
1396

> <i_lp_mmshare_version>
43012

> <i_f3d_flags>
0

> <s_epik_input>
W0NIM11bTkhdQyg9TylbQ0gyXU4xW0NIMl1bQ0gyXVtDSF0oW0NIMl1bQ0gyXTEpW05IXUMoPU8pW05IXWMyW2NIXVtjSF1jKE9bQ0gzXSluW2NIXTI=

> <s_epik_cmdline>
J2VwaWtfcHl0aG9uJywgJy1waCcsICc3LjAnLCAnLXRuJywgJzgnLCAnLW1hJywgJzIwMCcsICctbWV0YWxfYmluZGluZycsICctaW1hZScsICc8aW5maWxlLm1hZT4nLCAnLW9tYWUnLCAnPG91dGZpbGUubWFlPic=

> <r_lp_tautomer_probability>
1

> <r_epik_Ionization_Penalty>
0.838943

> <r_epik_Ionization_Penalty_Charging>
0.838844

> <r_epik_Ionization_Penalty_Neutral>
9.87511e-05

> <r_epik_State_Penalty>
0.8734

> <r_epik_Charging_Adjusted_Penalty>
1.71224

> <i_epik_Tot_Q>
1

> <i_epik_Tot_abs_Q>
1

> <r_epik_Metal_State_Penalty>
0.877926

> <b_epik_Metal_Only>
0

> <s_lp_Force_Field>
OPLS_2005

> <r_lp_Energy>
18.1916

> <b_lp_Chiralities_Consistent>
1

> <s_lp_Variant>
AV-unprocessed.smi:1396-2

> <Gold.Version>
5.8.1

> <Gold.Id.Protein>
6NUR|6NUR_protein|mol2

> <Gold.PLP.Fitness>
42.0756

> <Gold.PLP.PLP>
-28.3217

> <Gold.PLP.part.hbond>
-3.9980

> <Gold.PLP.part.metal>
0.0000

> <Gold.PLP.part.buried>
-3.1341

> <Gold.PLP.part.nonpolar>
-21.1490

> <Gold.PLP.part.repulsive>
0.2603

> <Gold.PLP.ligand.clash>
0.2174

> <Gold.PLP.ligand.torsion>
0.2516

> <Gold.PLP.Chemscore.Hbond>
3.8160

> <Gold.PLP.Chemscore.CHOScore>
1.0000

> <Gold.PLP.Chemscore.Metal>
0.0000

> <Gold.Chemscore.Hbonds>
donor molecule, donor type, donor heavy atom, donor atom, acceptor molecule, acceptor atom, score
      L1  H     6    47       P1 10747  1.00
      L1  H    10    35       P1  7948  0.78
      L1  H    13    36       P1  7948  0.99
      P1  H  7989  7998       L1    20  1.00
      L1  C    21    42       P1  7957  1.00

> <Gold.PLP.Chemscore.Internal.Correction>
0.0266

> <Gold.Rescore>
     Score         DG    S(hbond)    S(metal)    S(lipo)     H(rot)  DE(clash)    DE(int)     intcor
     13.42     -16.76       2.78        0.00      60.82       2.00       0.19       3.15       ----

> <Gold.Chemscore.Fitness>
13.4235

> <Gold.Chemscore.DG>
-16.7605

> <Gold.Chemscore.ZeroCoef>
-5.4800

> <Gold.Chemscore.Hbond>
2.7771

> <Gold.Chemscore.Metal>
0.0000

> <Gold.Chemscore.Lipo>
60.8163

> <Gold.Chemscore.Internal_Hbond>
0.0000

> <Gold.Chemscore.DEClash>
0.1894

> <Gold.Chemscore.DEInternal>
3.1476

> <Gold.Chemscore.Rot>
1.9963

> <Gold.Chemscore.Internal.Correction>
   9.000000E+99

> <Gold.Chemscore.Hbonds>
donor molecule, donor type, donor heavy atom, donor atom, acceptor molecule, acceptor atom, score
      L1  H     6    47       P1 10747  0.43
      L1  H    10    35       P1  7948  0.64
      L1  H    13    36       P1  7948  0.93
      P1  H  7989  7998       L1    20  0.25

> <Gold.Chemscore.Hbond.Weighted>
-9.2755

> <Gold.Chemscore.Metal.Weighted>
-0.0000

> <Gold.Chemscore.Lipo.Weighted>
-7.1155

> <Gold.Chemscore.Internal_Hbond.Weighted>
0.0000

> <Gold.Chemscore.DEClash.Weighted>
0.1894

> <Gold.Chemscore.DEInternal.Weighted>
3.1476

> <Gold.Chemscore.Rot.Weighted>
5.1105

> <Gold.Chemscore.Internal.Correction.Weighted>
   9.000000E+99

> <Gold.Protein.RotatedTorsions>
[ 6907 6896 6895 6894 ] final   92.85 input  -60.11 | X-H torsion
[ 7974 7965 7964 7962 ] final -116.35 input  175.53 | X-H torsion
[ 8008 7997 7996 7995 ] final  138.77 input   59.86 | X-H torsion
[ 10167 10162 10161 10158 ] final  141.56 input  -65.29 | X-H torsion
[ 10718 10713 10712 10709 ] final   11.56 input   66.30 | X-H torsion
[ 10763 10752 10751 10750 ] final  -14.60 input  -60.55 | X-H torsion
[ 11005 11000 10999 10996 ] final  -21.06 input  -57.11 | X-H torsion

> <Gold.Protein.ActiveResidues>
 VAL166  LYS551  ARG553  GLY616  TRP617  ASP618  TYR619  PRO620  LYS621  CYS622 
 ASP623  PHE694  ASN695  SER759  ASP760  ASP761  ALA762  ILE779  LEU786  VAL792 
 PHE793  MET794  SER795  GLU796  ALA797  LYS798  CYS799  TRP800  GLU811  SER814 

> <Gold.Protein.RotatedAtoms>
  152.5453  134.1438  159.8489 H   0  0  0  0  0  0  0  0  0  0  0  0  # atno 6907 bound_to 6896
  151.1472  133.4925  159.2603 H   0  0  0  0  0  0  0  0  0  0  0  0  # atno 6908 bound_to 6896
  151.1511  135.0238  159.8723 H   0  0  0  0  0  0  0  0  0  0  0  0  # atno 6909 bound_to 6896
  145.0978  140.8532  143.3944 H   0  0  0  0  0  0  0  0  0  0  0  0  # atno 7974 bound_to 7965
  156.2995  140.2385  156.4128 H   0  0  0  0  0  0  0  0  0  0  0  0  # atno 8008 bound_to 7997
  154.8425  140.0427  157.1571 H   0  0  0  0  0  0  0  0  0  0  0  0  # atno 8009 bound_to 7997
  154.9086  140.2987  155.5282 H   0  0  0  0  0  0  0  0  0  0  0  0  # atno 8010 bound_to 7997
  139.5017  144.6164  151.6155 H   0  0  0  0  0  0  0  0  0  0  0  0  # atno 10167 bound_to 10162
  156.9973  130.6066  149.5692 H   0  0  0  0  0  0  0  0  0  0  0  0  # atno 10718 bound_to 10713
  153.5307  135.7014  153.5684 H   0  0  0  0  0  0  0  0  0  0  0  0  # atno 10763 bound_to 10752
  153.3693  135.3949  155.1776 H   0  0  0  0  0  0  0  0  0  0  0  0  # atno 10764 bound_to 10752
  154.8685  135.3808  154.4804 H   0  0  0  0  0  0  0  0  0  0  0  0  # atno 10765 bound_to 10752
  140.8524  133.7847  155.9981 H   0  0  0  0  0  0  0  0  0  0  0  0  # atno 11005 bound_to 11000
  145.0990  139.2836  143.5696 LP  0  0  0  0  0  0  0  0  0  0  0  0  # atno 17320 bound_to 7965
  146.3530  140.0551  142.8633 LP  0  0  0  0  0  0  0  0  0  0  0  0  # atno 17321 bound_to 7965
  140.5853  143.9875  150.6292 LP  0  0  0  0  0  0  0  0  0  0  0  0  # atno 17342 bound_to 10162
  140.3038  143.3243  152.0946 LP  0  0  0  0  0  0  0  0  0  0  0  0  # atno 17343 bound_to 10162
  156.0184  130.5279  150.8204 LP  0  0  0  0  0  0  0  0  0  0  0  0  # atno 17370 bound_to 10713
  157.5416  131.0941  150.9820 LP  0  0  0  0  0  0  0  0  0  0  0  0  # atno 17371 bound_to 10713
  140.8775  134.2652  157.5161 LP  0  0  0  0  0  0  0  0  0  0  0  0  # atno 17394 bound_to 11000
  139.8704  134.9598  156.4344 LP  0  0  0  0  0  0  0  0  0  0  0  0  # atno 17395 bound_to 11000

$$$$
