AV-unprocessed.smi:3226|AV-procd|sdf|12316|dock6
  -GOLD-   2272018163D 1   1.00000     0.00000
 Structure written by MMmdl.
 41 43  0  0  0  0  0  0  0  0  2 V2000
  145.8830  142.7076  154.5116 C   0  0  0  0  0  0  0  0  0  0  0  0
  145.8092  141.4186  155.3377 C   0  0  0  0  0  0  0  0  0  0  0  0
  146.3836  140.2393  154.6152 C   0  0  0  0  0  0  0  0  0  0  0  0
  145.7002  139.1104  154.3919 N   0  0  0  0  0  0  0  0  0  0  0  0
  146.5542  138.2909  153.6817 N   0  0  0  0  0  0  0  0  0  0  0  0
  147.6652  139.0105  153.5372 C   0  0  0  0  0  0  0  0  0  0  0  0
  147.6301  140.2301  154.0965 N   0  0  0  0  0  0  0  0  0  0  0  0
  148.6717  141.2433  154.1130 C   0  0  0  0  0  0  0  0  0  0  0  0
  149.7045  141.0036  155.2263 C   0  0  0  0  0  0  0  0  0  0  0  0
  149.7107  142.1032  156.2124 N   0  3  0  0  0  0  0  0  0  0  0  0
  151.0576  142.4839  156.6800 C   0  0  0  0  0  0  0  0  0  0  0  0
  150.9963  143.1682  158.0582 C   0  0  1  0  0  0  0  0  0  0  0  0
  152.0595  142.6425  159.0746 C   0  0  0  0  0  0  0  0  0  0  0  0
  152.7981  143.9291  159.5106 C   0  0  2  0  0  0  0  0  0  0  0  0
  151.8149  144.8119  160.2503 C   0  0  0  0  0  0  0  0  0  0  0  0
  150.9395  145.2689  159.3530 C   0  0  0  0  0  0  0  0  0  0  0  0
  151.3244  144.6838  158.0096 C   0  0  1  0  0  0  0  0  0  0  0  0
  152.8508  144.6592  158.1661 C   0  0  0  0  0  0  0  0  0  0  0  0
  145.4547  143.5465  155.0604 H   0  0  0  0  0  0  0  0  0  0  0  0
  145.3334  142.6066  153.5751 H   0  0  0  0  0  0  0  0  0  0  0  0
  146.9152  142.9612  154.2685 H   0  0  0  0  0  0  0  0  0  0  0  0
  146.3214  141.5542  156.2899 H   0  0  0  0  0  0  0  0  0  0  0  0
  144.7685  141.2022  155.5818 H   0  0  0  0  0  0  0  0  0  0  0  0
  148.5312  138.6353  153.0117 H   0  0  0  0  0  0  0  0  0  0  0  0
  149.1594  141.2602  153.1374 H   0  0  0  0  0  0  0  0  0  0  0  0
  148.2045  142.2204  154.2391 H   0  0  0  0  0  0  0  0  0  0  0  0
  149.4689  140.0710  155.7406 H   0  0  0  0  0  0  0  0  0  0  0  0
  150.7031  140.8893  154.8026 H   0  0  0  0  0  0  0  0  0  0  0  0
  149.2747  142.9130  155.7945 H   0  0  0  0  0  0  0  0  0  0  0  0
  151.6928  141.5984  156.7119 H   0  0  0  0  0  0  0  0  0  0  0  0
  151.4983  143.1668  155.9524 H   0  0  0  0  0  0  0  0  0  0  0  0
  149.9910  143.0335  158.4625 H   0  0  0  0  0  0  0  0  0  0  0  0
  151.6011  142.1278  159.9201 H   0  0  0  0  0  0  0  0  0  0  0  0
  152.7561  141.9475  158.6035 H   0  0  0  0  0  0  0  0  0  0  0  0
  153.7583  143.7924  160.0083 H   0  0  0  0  0  0  0  0  0  0  0  0
  151.8293  144.9959  161.3145 H   0  0  0  0  0  0  0  0  0  0  0  0
  150.0839  145.9045  159.5274 H   0  0  0  0  0  0  0  0  0  0  0  0
  150.9476  145.2385  157.1499 H   0  0  0  0  0  0  0  0  0  0  0  0
  153.2868  145.6575  158.2416 H   0  0  0  0  0  0  0  0  0  0  0  0
  153.3765  144.1089  157.3843 H   0  0  0  0  0  0  0  0  0  0  0  0
  149.1647  141.8200  157.0136 H   0  0  0  0  0  0  0  0  0  0  0  0
  1  2  1  0  0  0  0
  1 19  1  0  0  0  0
  1 20  1  0  0  0  0
  1 21  1  0  0  0  0
  2  3  1  0  0  0  0
  2 22  1  0  0  0  0
  2 23  1  0  0  0  0
  3  7  1  0  0  0  0
  3  4  2  0  0  0  0
  4  5  1  0  0  0  0
  5  6  2  0  0  0  0
  6  7  1  0  0  0  0
  6 24  1  0  0  0  0
  7  8  1  0  0  0  0
  8  9  1  0  0  0  0
  8 25  1  0  0  0  0
  8 26  1  0  0  0  0
  9 10  1  0  0  0  0
  9 27  1  0  0  0  0
  9 28  1  0  0  0  0
 10 11  1  0  0  0  0
 10 29  1  0  0  0  0
 10 41  1  0  0  0  0
 11 12  1  0  0  0  0
 11 30  1  0  0  0  0
 11 31  1  0  0  0  0
 12 17  1  0  0  0  0
 12 13  1  0  0  0  0
 12 32  1  0  0  0  0
 13 14  1  0  0  0  0
 13 33  1  0  0  0  0
 13 34  1  0  0  0  0
 14 18  1  0  0  0  0
 14 15  1  0  0  0  0
 14 35  1  0  0  0  0
 15 16  2  0  0  0  0
 15 36  1  0  0  0  0
 16 17  1  0  0  0  0
 16 37  1  0  0  0  0
 17 18  1  0  0  0  0
 17 38  1  0  0  0  0
 18 39  1  0  0  0  0
 18 40  1  0  0  0  0
M  CHG  1  10   1
M  END
> <s_m_source_file>
AV-unprocessed.smi

> <i_m_source_file_index>
3226

> <i_lp_mmshare_version>
43012

> <i_f3d_flags>
0

> <s_epik_input>
W0NIM11bQ0gyXWMxbm5bY0hdbjFbQ0gyXVtDSDJdW05IXVtDSDJdW0NASF0oW0NIMl1bQ0BASF0yMylbQ0BASF0oW0NIMl0zKVtDSF09W0NIXTI=

> <s_epik_cmdline>
J2VwaWtfcHl0aG9uJywgJy1waCcsICc3LjAnLCAnLXRuJywgJzgnLCAnLW1hJywgJzIwMCcsICctbWV0YWxfYmluZGluZycsICctaW1hZScsICc8aW5maWxlLm1hZT4nLCAnLW9tYWUnLCAnPG91dGZpbGUubWFlPic=

> <r_lp_tautomer_probability>
1

> <r_epik_Ionization_Penalty>
0.00175008

> <r_epik_Ionization_Penalty_Charging>
0.00173932

> <r_epik_Ionization_Penalty_Neutral>
1.07546e-05

> <r_epik_State_Penalty>
-0

> <r_epik_Charging_Adjusted_Penalty>
0.00173932

> <i_epik_Tot_Q>
1

> <i_epik_Tot_abs_Q>
1

> <r_epik_Metal_State_Penalty>
-0

> <b_epik_Metal_Only>
0

> <s_lp_Force_Field>
OPLS_2005

> <r_lp_Energy>
64.6894

> <b_lp_Chiralities_Consistent>
1

> <s_lp_Variant>
AV-unprocessed.smi:3226-4

> <Gold.Version>
5.8.1

> <Gold.Id.Protein>
6NUR|6NUR_protein|mol2

> <Gold.PLP.Fitness>
49.3177

> <Gold.PLP.PLP>
-42.3420

> <Gold.PLP.part.hbond>
-1.0000

> <Gold.PLP.part.metal>
0.0000

> <Gold.PLP.part.buried>
-4.5877

> <Gold.PLP.part.nonpolar>
-37.0833

> <Gold.PLP.part.repulsive>
0.3650

> <Gold.PLP.ligand.clash>
0.0000

> <Gold.PLP.ligand.torsion>
1.7964

> <Gold.PLP.Chemscore.Hbond>
2.0000

> <Gold.PLP.Chemscore.CHOScore>
1.4871

> <Gold.PLP.Chemscore.Metal>
0.0000

> <Gold.Chemscore.Hbonds>
donor molecule, donor type, donor heavy atom, donor atom, acceptor molecule, acceptor atom, score
      L1  H    10    29       P1  8028  2.00
      L1  C     6    24       P1  7948  0.65
      L1  C     6    24       P1  7957  0.77

> <Gold.PLP.Chemscore.Internal.Correction>
0.1072

> <Gold.Rescore>
     Score         DG    S(hbond)    S(metal)    S(lipo)     H(rot)  DE(clash)    DE(int)     intcor
     15.18     -16.78       0.99        0.00     113.50       2.06       0.04       1.56       ----

> <Gold.Chemscore.Fitness>
15.1804

> <Gold.Chemscore.DG>
-16.7817

> <Gold.Chemscore.ZeroCoef>
-5.4800

> <Gold.Chemscore.Hbond>
0.9886

> <Gold.Chemscore.Metal>
0.0000

> <Gold.Chemscore.Lipo>
113.4994

> <Gold.Chemscore.Internal_Hbond>
0.0000

> <Gold.Chemscore.DEClash>
0.0447

> <Gold.Chemscore.DEInternal>
1.5566

> <Gold.Chemscore.Rot>
2.0623

> <Gold.Chemscore.Internal.Correction>
   9.000000E+99

> <Gold.Chemscore.Hbonds>
donor molecule, donor type, donor heavy atom, donor atom, acceptor molecule, acceptor atom, score
      L1  H    10    29       P1  8028  0.98

> <Gold.Chemscore.Hbond.Weighted>
-3.3019

> <Gold.Chemscore.Metal.Weighted>
-0.0000

> <Gold.Chemscore.Lipo.Weighted>
-13.2794

> <Gold.Chemscore.Internal_Hbond.Weighted>
0.0000

> <Gold.Chemscore.DEClash.Weighted>
0.0447

> <Gold.Chemscore.DEInternal.Weighted>
1.5566

> <Gold.Chemscore.Rot.Weighted>
5.2796

> <Gold.Chemscore.Internal.Correction.Weighted>
   9.000000E+99

> <Gold.Protein.RotatedTorsions>
[ 6907 6896 6895 6894 ] final   28.35 input  -60.11 | X-H torsion
[ 7974 7965 7964 7962 ] final  -43.78 input  175.53 | X-H torsion
[ 8008 7997 7996 7995 ] final   65.94 input   59.86 | X-H torsion
[ 10167 10162 10161 10158 ] final  -46.21 input  -65.29 | X-H torsion
[ 10718 10713 10712 10709 ] final  168.04 input   66.30 | X-H torsion
[ 10763 10752 10751 10750 ] final  -16.51 input  -60.55 | X-H torsion
[ 11005 11000 10999 10996 ] final   85.85 input  -57.11 | X-H torsion

> <Gold.Protein.ActiveResidues>
 VAL166  LYS551  ARG553  GLY616  TRP617  ASP618  TYR619  PRO620  LYS621  CYS622 
 ASP623  PHE694  ASN695  SER759  ASP760  ASP761  ALA762  ILE779  LEU786  VAL792 
 PHE793  MET794  SER795  GLU796  ALA797  LYS798  CYS799  TRP800  GLU811  SER814 

> <Gold.Protein.RotatedAtoms>
  152.0156  134.9852  160.0569 H   0  0  0  0  0  0  0  0  0  0  0  0  # atno 6907 bound_to 6896
  152.1387  133.4446  159.4764 H   0  0  0  0  0  0  0  0  0  0  0  0  # atno 6908 bound_to 6896
  150.6863  134.2251  159.4455 H   0  0  0  0  0  0  0  0  0  0  0  0  # atno 6909 bound_to 6896
  145.9985  140.7101  142.9282 H   0  0  0  0  0  0  0  0  0  0  0  0  # atno 7974 bound_to 7965
  155.6697  140.3497  155.4813 H   0  0  0  0  0  0  0  0  0  0  0  0  # atno 8008 bound_to 7997
  155.9699  140.1153  157.0844 H   0  0  0  0  0  0  0  0  0  0  0  0  # atno 8009 bound_to 7997
  154.4163  140.1159  156.5278 H   0  0  0  0  0  0  0  0  0  0  0  0  # atno 8010 bound_to 7997
  140.6827  143.2842  151.3749 H   0  0  0  0  0  0  0  0  0  0  0  0  # atno 10167 bound_to 10162
  157.0429  131.0291  151.2707 H   0  0  0  0  0  0  0  0  0  0  0  0  # atno 10718 bound_to 10713
  153.5597  135.7010  153.5553 H   0  0  0  0  0  0  0  0  0  0  0  0  # atno 10763 bound_to 10752
  153.3441  135.4013  155.1594 H   0  0  0  0  0  0  0  0  0  0  0  0  # atno 10764 bound_to 10752
  154.8649  135.3749  154.5113 H   0  0  0  0  0  0  0  0  0  0  0  0  # atno 10765 bound_to 10752
  139.8960  134.8315  156.2640 H   0  0  0  0  0  0  0  0  0  0  0  0  # atno 11005 bound_to 11000
  144.6911  140.3193  143.7235 LP  0  0  0  0  0  0  0  0  0  0  0  0  # atno 17320 bound_to 7965
  145.7523  139.1797  143.2314 LP  0  0  0  0  0  0  0  0  0  0  0  0  # atno 17321 bound_to 7965
  139.6161  144.1000  152.2347 LP  0  0  0  0  0  0  0  0  0  0  0  0  # atno 17342 bound_to 10162
  140.0430  144.5993  150.7396 LP  0  0  0  0  0  0  0  0  0  0  0  0  # atno 17343 bound_to 10162
  157.5090  130.7927  149.7685 LP  0  0  0  0  0  0  0  0  0  0  0  0  # atno 17370 bound_to 10713
  156.0032  130.3869  150.2527 LP  0  0  0  0  0  0  0  0  0  0  0  0  # atno 17371 bound_to 10713
  141.0144  133.7077  156.1165 LP  0  0  0  0  0  0  0  0  0  0  0  0  # atno 17394 bound_to 11000
  140.7322  134.4242  157.5564 LP  0  0  0  0  0  0  0  0  0  0  0  0  # atno 17395 bound_to 11000

$$$$
