AV-unprocessed.smi:34|AV-procd|sdf|239|dock7
  -GOLD-   2262015583D 1   1.00000     0.00000
 Structure written by MMmdl.
 54 58  0  0  0  0  0  0  0  0  2 V2000
  154.9260  139.9731  159.2119 O   0  0  0  0  0  0  0  0  0  0  0  0
  153.7517  139.9925  159.5867 C   0  0  0  0  0  0  0  0  0  0  0  0
  152.8182  139.0165  159.4529 N   0  5  0  0  0  0  0  0  0  0  0  0
  152.6807  138.3815  158.2790 C   0  0  0  0  0  0  0  0  0  0  0  0
  153.5748  138.5883  157.2782 N   0  0  0  0  0  0  0  0  0  0  0  0
  153.4390  137.9547  156.1072 C   0  0  0  0  0  0  0  0  0  0  0  0
  152.4965  137.0866  155.7251 N   0  0  0  0  0  0  0  0  0  0  0  0
  151.5862  136.8808  156.7204 C   0  0  0  0  0  0  0  0  0  0  0  0
  151.6081  137.4879  158.0088 C   0  0  0  0  0  0  0  0  0  0  0  0
  150.5314  137.0585  158.7707 N   0  0  0  0  0  0  0  0  0  0  0  0
  149.9215  136.2249  157.9299 C   0  0  0  0  0  0  0  0  0  0  0  0
  150.4776  136.0538  156.7114 N   0  0  0  0  0  0  0  0  0  0  0  0
  150.0258  135.1965  155.5657 C   0  0  2  0  0  0  0  0  0  0  0  0
  148.6826  135.4749  155.3035 O   0  0  0  0  0  0  0  0  0  0  0  0
  147.8754  134.4805  155.9202 C   0  0  1  0  0  0  0  0  0  0  0  0
  146.4635  134.4686  155.3243 C   0  0  0  0  0  0  0  0  0  0  0  0
  146.5643  134.2602  153.9254 O   0  0  0  0  0  0  0  0  0  0  0  0
  145.4890  134.4384  153.1352 C   0  0  0  0  0  0  0  0  0  0  0  0
  144.5865  135.2410  153.3816 O   0  0  0  0  0  0  0  0  0  0  0  0
  145.5062  133.5619  151.9285 C   0  0  0  0  0  0  0  0  0  0  0  0
  144.3190  133.3915  151.1786 C   0  0  0  0  0  0  0  0  0  0  0  0
  144.3042  132.5695  150.0351 C   0  0  0  0  0  0  0  0  0  0  0  0
  145.4769  131.9074  149.6273 C   0  0  0  0  0  0  0  0  0  0  0  0
  146.6643  132.0684  150.3646 C   0  0  0  0  0  0  0  0  0  0  0  0
  146.6810  132.8899  151.5087 C   0  0  0  0  0  0  0  0  0  0  0  0
  148.6865  133.2104  155.6716 C   0  0  1  0  0  0  0  0  0  0  0  0
  148.5341  132.7974  154.4115 F   0  0  0  0  0  0  0  0  0  0  0  0
  150.1192  133.6815  155.8803 C   0  0  2  0  0  0  0  0  0  0  0  0
  150.5450  133.3695  157.1954 O   0  0  0  0  0  0  0  0  0  0  0  0
  153.2130  141.2482  160.2177 C   0  0  0  0  0  0  0  0  0  0  0  0
  153.4663  141.5092  161.5836 C   0  0  0  0  0  0  0  0  0  0  0  0
  152.9498  142.6658  162.1999 C   0  0  0  0  0  0  0  0  0  0  0  0
  152.1656  143.5693  161.4585 C   0  0  0  0  0  0  0  0  0  0  0  0
  151.8952  143.3132  160.1012 C   0  0  0  0  0  0  0  0  0  0  0  0
  152.4116  142.1570  159.4842 C   0  0  0  0  0  0  0  0  0  0  0  0
  154.1965  138.1743  155.3697 H   0  0  0  0  0  0  0  0  0  0  0  0
  149.0169  135.7126  158.2226 H   0  0  0  0  0  0  0  0  0  0  0  0
  150.6500  135.5117  154.7287 H   0  0  0  0  0  0  0  0  0  0  0  0
  147.8238  134.6620  156.9951 H   0  0  0  0  0  0  0  0  0  0  0  0
  145.8551  133.6908  155.7880 H   0  0  0  0  0  0  0  0  0  0  0  0
  145.9740  135.4263  155.5068 H   0  0  0  0  0  0  0  0  0  0  0  0
  143.4062  133.8899  151.4721 H   0  0  0  0  0  0  0  0  0  0  0  0
  143.3918  132.4474  149.4706 H   0  0  0  0  0  0  0  0  0  0  0  0
  145.4655  131.2769  148.7505 H   0  0  0  0  0  0  0  0  0  0  0  0
  147.5653  131.5610  150.0526 H   0  0  0  0  0  0  0  0  0  0  0  0
  147.6094  132.9901  152.0520 H   0  0  0  0  0  0  0  0  0  0  0  0
  148.3958  132.3813  156.3181 H   0  0  0  0  0  0  0  0  0  0  0  0
  150.8016  133.2058  155.1749 H   0  0  0  0  0  0  0  0  0  0  0  0
  150.9896  132.5352  157.1760 H   0  0  0  0  0  0  0  0  0  0  0  0
  154.0653  140.8246  162.1666 H   0  0  0  0  0  0  0  0  0  0  0  0
  153.1547  142.8579  163.2426 H   0  0  0  0  0  0  0  0  0  0  0  0
  151.7688  144.4554  161.9312 H   0  0  0  0  0  0  0  0  0  0  0  0
  151.2881  144.0020  159.5328 H   0  0  0  0  0  0  0  0  0  0  0  0
  152.1830  141.9728  158.4443 H   0  0  0  0  0  0  0  0  0  0  0  0
  1  2  2  0  0  0  0
  2  3  1  0  0  0  0
  2 30  1  0  0  0  0
  3  4  1  0  0  0  0
  4  9  1  0  0  0  0
  4  5  2  0  0  0  0
  5  6  1  0  0  0  0
  6  7  2  0  0  0  0
  6 36  1  0  0  0  0
  7  8  1  0  0  0  0
  8 12  1  0  0  0  0
  8  9  2  0  0  0  0
  9 10  1  0  0  0  0
 10 11  2  0  0  0  0
 11 12  1  0  0  0  0
 11 37  1  0  0  0  0
 12 13  1  0  0  0  0
 13 28  1  0  0  0  0
 13 14  1  0  0  0  0
 13 38  1  0  0  0  0
 14 15  1  0  0  0  0
 15 16  1  0  0  0  0
 15 26  1  0  0  0  0
 15 39  1  0  0  0  0
 16 17  1  0  0  0  0
 16 40  1  0  0  0  0
 16 41  1  0  0  0  0
 17 18  1  0  0  0  0
 18 19  2  0  0  0  0
 18 20  1  0  0  0  0
 20 25  1  0  0  0  0
 20 21  2  0  0  0  0
 21 22  1  0  0  0  0
 21 42  1  0  0  0  0
 22 23  2  0  0  0  0
 22 43  1  0  0  0  0
 23 24  1  0  0  0  0
 23 44  1  0  0  0  0
 24 25  2  0  0  0  0
 24 45  1  0  0  0  0
 25 46  1  0  0  0  0
 26 27  1  0  0  0  0
 26 28  1  0  0  0  0
 26 47  1  0  0  0  0
 28 29  1  0  0  0  0
 28 48  1  0  0  0  0
 29 49  1  0  0  0  0
 30 35  1  0  0  0  0
 30 31  2  0  0  0  0
 31 32  1  0  0  0  0
 31 50  1  0  0  0  0
 32 33  2  0  0  0  0
 32 51  1  0  0  0  0
 33 34  1  0  0  0  0
 33 52  1  0  0  0  0
 34 35  2  0  0  0  0
 34 53  1  0  0  0  0
 35 54  1  0  0  0  0
M  CHG  1   3  -1
M  END
> <s_m_source_file>
AV-unprocessed.smi

> <i_m_source_file_index>
34

> <i_lp_mmshare_version>
43012

> <i_f3d_flags>
0

> <s_epik_input>
W2NIXTFbY0hdW2NIXVtjSF1bY0hdYzFDKD1PKVtOSF1jKG5bY0hdbjIpYyhjMjMpbltjSF1uM1tDQEBIXTRPW0NASF0oW0NAQEhdKEYpW0NASF00W09IXSlbQ0gyXU9DKD1PKWM1W2NIXVtjSF1bY0hdW2NIXVtjSF01

> <s_epik_cmdline>
J2VwaWtfcHl0aG9uJywgJy1waCcsICc3LjAnLCAnLXRuJywgJzgnLCAnLW1hJywgJzIwMCcsICctbWV0YWxfYmluZGluZycsICctaW1hZScsICc8aW5maWxlLm1hZT4nLCAnLW9tYWUnLCAnPG91dGZpbGUubWFlPic=

> <r_lp_tautomer_probability>
1

> <r_epik_Ionization_Penalty>
4.33227

> <r_epik_Ionization_Penalty_Charging>
3.41027

> <r_epik_Ionization_Penalty_Neutral>
0.922001

> <r_epik_State_Penalty>
3.41358

> <r_epik_Charging_Adjusted_Penalty>
6.82385

> <i_epik_Tot_Q>
-1

> <i_epik_Tot_abs_Q>
1

> <r_epik_Metal_State_Penalty>
0.496292

> <b_epik_Metal_Only>
1

> <s_epik_Chemistry_Notes>
This compound has an ester and may undergo hydrolysis at high or low pH. This compound contains an acetal/aminal-like group ( X-CH(R)-Y where X, Y are N, S, or O) that may be acid/base labile, releasing an aldehyde.

> <s_lp_Force_Field>
OPLS_2005

> <r_lp_Energy>
47.457

> <b_lp_Chiralities_Consistent>
1

> <s_lp_Variant>
AV-unprocessed.smi:34-25

> <Gold.Version>
5.8.1

> <Gold.Id.Protein>
6NUR|6NUR_protein|mol2

> <Gold.PLP.Fitness>
56.5715

> <Gold.PLP.PLP>
-54.4692

> <Gold.PLP.part.hbond>
-4.2319

> <Gold.PLP.part.metal>
0.0000

> <Gold.PLP.part.buried>
-3.4988

> <Gold.PLP.part.nonpolar>
-47.5672

> <Gold.PLP.part.repulsive>
0.2587

> <Gold.PLP.ligand.clash>
0.0000

> <Gold.PLP.ligand.torsion>
2.4752

> <Gold.PLP.Chemscore.Hbond>
2.1572

> <Gold.PLP.Chemscore.CHOScore>
0.0000

> <Gold.PLP.Chemscore.Metal>
0.0000

> <Gold.Chemscore.Hbonds>
donor molecule, donor type, donor heavy atom, donor atom, acceptor molecule, acceptor atom, score
      P1  H  6896  6908       L1    29  0.47
      P1  H  6896  6909       L1    10  0.06
      P1  H  7997  8008       L1     1  0.88
      P1  H  7997  8009       L1     5  0.03
      P1  H 10752 10763       L1     7  0.77

> <Gold.PLP.Chemscore.Internal.Correction>
0.5812

> <Gold.Rescore>
     Score         DG    S(hbond)    S(metal)    S(lipo)     H(rot)  DE(clash)    DE(int)     intcor
     11.17     -18.46       1.49        0.00     127.41       2.69       0.58       6.71       ----

> <Gold.Chemscore.Fitness>
11.1654

> <Gold.Chemscore.DG>
-18.4616

> <Gold.Chemscore.ZeroCoef>
-5.4800

> <Gold.Chemscore.Hbond>
1.4885

> <Gold.Chemscore.Metal>
0.0000

> <Gold.Chemscore.Lipo>
127.4146

> <Gold.Chemscore.Internal_Hbond>
0.0000

> <Gold.Chemscore.DEClash>
0.5842

> <Gold.Chemscore.DEInternal>
6.7119

> <Gold.Chemscore.Rot>
2.6944

> <Gold.Chemscore.Internal.Correction>
   9.000000E+99

> <Gold.Chemscore.Hbonds>
donor molecule, donor type, donor heavy atom, donor atom, acceptor molecule, acceptor atom, score
      P1  H  6896  6908       L1    29  0.02
      P1  H  7997  8008       L1     1  0.86
      P1  H 10752 10763       L1     7  0.62

> <Gold.Chemscore.Hbond.Weighted>
-4.9716

> <Gold.Chemscore.Metal.Weighted>
-0.0000

> <Gold.Chemscore.Lipo.Weighted>
-14.9075

> <Gold.Chemscore.Internal_Hbond.Weighted>
0.0000

> <Gold.Chemscore.DEClash.Weighted>
0.5842

> <Gold.Chemscore.DEInternal.Weighted>
6.7119

> <Gold.Chemscore.Rot.Weighted>
6.8975

> <Gold.Chemscore.Internal.Correction.Weighted>
   9.000000E+99

> <Gold.Protein.RotatedTorsions>
[ 6907 6896 6895 6894 ] final  103.46 input  -60.11 | X-H torsion
[ 7974 7965 7964 7962 ] final -131.50 input  175.53 | X-H torsion
[ 8008 7997 7996 7995 ] final -142.62 input   59.86 | X-H torsion
[ 10167 10162 10161 10158 ] final  141.89 input  -65.29 | X-H torsion
[ 10718 10713 10712 10709 ] final   25.73 input   66.30 | X-H torsion
[ 10763 10752 10751 10750 ] final   81.24 input  -60.55 | X-H torsion
[ 11005 11000 10999 10996 ] final -123.61 input  -57.11 | X-H torsion

> <Gold.Protein.ActiveResidues>
 VAL166  LYS551  ARG553  GLY616  TRP617  ASP618  TYR619  PRO620  LYS621  CYS622 
 ASP623  PHE694  ASN695  SER759  ASP760  ASP761  ALA762  ILE779  LEU786  VAL792 
 PHE793  MET794  SER795  GLU796  ALA797  LYS798  CYS799  TRP800  GLU811  SER814 

> <Gold.Protein.RotatedAtoms>
  152.5295  133.9823  159.7811 H   0  0  0  0  0  0  0  0  0  0  0  0  # atno 6907 bound_to 6896
  151.0074  133.5989  159.2694 H   0  0  0  0  0  0  0  0  0  0  0  0  # atno 6908 bound_to 6896
  151.3076  135.0792  159.9314 H   0  0  0  0  0  0  0  0  0  0  0  0  # atno 6909 bound_to 6896
  144.9373  140.7198  143.4868 H   0  0  0  0  0  0  0  0  0  0  0  0  # atno 7974 bound_to 7965
  155.4972  140.0572  157.2945 H   0  0  0  0  0  0  0  0  0  0  0  0  # atno 8008 bound_to 7997
  154.4601  140.1992  156.0220 H   0  0  0  0  0  0  0  0  0  0  0  0  # atno 8009 bound_to 7997
  156.0873  140.3238  155.7775 H   0  0  0  0  0  0  0  0  0  0  0  0  # atno 8010 bound_to 7997
  139.5008  144.6143  151.6201 H   0  0  0  0  0  0  0  0  0  0  0  0  # atno 10167 bound_to 10162
  157.1973  130.6873  149.6174 H   0  0  0  0  0  0  0  0  0  0  0  0  # atno 10718 bound_to 10713
  153.1100  135.4773  154.9018 H   0  0  0  0  0  0  0  0  0  0  0  0  # atno 10763 bound_to 10752
  154.7470  135.3096  154.8628 H   0  0  0  0  0  0  0  0  0  0  0  0  # atno 10764 bound_to 10752
  153.9220  135.6854  153.4801 H   0  0  0  0  0  0  0  0  0  0  0  0  # atno 10765 bound_to 10752
  140.9905  134.0545  157.3660 H   0  0  0  0  0  0  0  0  0  0  0  0  # atno 11005 bound_to 11000
  145.3046  139.1839  143.4671 LP  0  0  0  0  0  0  0  0  0  0  0  0  # atno 17320 bound_to 7965
  146.3272  140.3042  142.8622 LP  0  0  0  0  0  0  0  0  0  0  0  0  # atno 17321 bound_to 7965
  140.5826  143.9920  150.6277 LP  0  0  0  0  0  0  0  0  0  0  0  0  # atno 17342 bound_to 10162
  140.3074  143.3221  152.0913 LP  0  0  0  0  0  0  0  0  0  0  0  0  # atno 17343 bound_to 10162
  155.9704  130.4594  150.6037 LP  0  0  0  0  0  0  0  0  0  0  0  0  # atno 17370 bound_to 10713
  157.3802  131.0779  151.1483 LP  0  0  0  0  0  0  0  0  0  0  0  0  # atno 17371 bound_to 10713
  139.8990  135.0157  156.7175 LP  0  0  0  0  0  0  0  0  0  0  0  0  # atno 17394 bound_to 11000
  140.7047  133.9275  155.8046 LP  0  0  0  0  0  0  0  0  0  0  0  0  # atno 17395 bound_to 11000

$$$$
