AV-unprocessed.smi:1136|AV-procd|sdf|4862|dock3
  -GOLD-   22720 3433D 1   1.00000     0.00000
 Structure written by MMmdl.
 42 43  0  0  0  0  0  0  0  0  1 V2000
  153.6084  140.8793  161.3831 C   0  0  0  0  0  0  0  0  0  0  0  0
  152.9639  142.0526  160.7060 C   0  0  0  0  0  0  0  0  0  0  0  0
  152.5368  143.2806  161.2844 C   0  0  0  0  0  0  0  0  0  0  0  0
  152.0238  143.9885  160.2342 C   0  0  0  0  0  0  0  0  0  0  0  0
  151.4169  145.3526  160.1965 C   0  0  0  0  0  0  0  0  0  0  0  0
  152.1553  143.1914  159.1104 N   0  0  0  0  0  0  0  0  0  0  0  0
  151.7623  143.4673  157.7353 C   0  0  0  0  0  0  0  0  0  0  0  0
  151.1519  142.2404  157.0503 C   0  0  0  0  0  0  0  0  0  0  0  0
  151.7026  141.1448  157.1547 O   0  0  0  0  0  0  0  0  0  0  0  0
  150.0135  142.4307  156.3639 N   0  0  0  0  0  0  0  0  0  0  0  0
  149.2697  141.3952  155.6504 C   0  0  0  0  0  0  0  0  0  0  0  0
  147.7920  141.2990  156.0748 C   0  0  0  0  0  0  0  0  0  0  0  0
  147.5204  141.0543  157.2521 O   0  0  0  0  0  0  0  0  0  0  0  0
  146.8305  141.4993  155.1406 N   0  0  0  0  0  0  0  0  0  0  0  0
  147.0672  141.8526  153.7338 C   0  0  0  0  0  0  0  0  0  0  0  0
  146.6492  143.3182  153.5160 C   0  0  0  0  0  0  0  0  0  0  0  0
  145.1808  143.5377  153.9283 C   0  0  0  0  0  0  0  0  0  0  0  0
  144.8942  142.9796  155.3359 C   0  0  0  0  0  0  0  0  0  0  0  0
  145.3993  141.5307  155.4696 C   0  0  0  0  0  0  0  0  0  0  0  0
  152.7328  142.0056  159.4044 N   0  0  0  0  0  0  0  0  0  0  0  0
  153.8166  141.0943  162.4314 H   0  0  0  0  0  0  0  0  0  0  0  0
  154.5532  140.6193  160.9049 H   0  0  0  0  0  0  0  0  0  0  0  0
  152.9624  140.0020  161.3459 H   0  0  0  0  0  0  0  0  0  0  0  0
  152.5978  143.5939  162.3162 H   0  0  0  0  0  0  0  0  0  0  0  0
  151.3744  145.7874  161.1952 H   0  0  0  0  0  0  0  0  0  0  0  0
  150.4000  145.3172  159.8054 H   0  0  0  0  0  0  0  0  0  0  0  0
  152.0016  146.0205  159.5638 H   0  0  0  0  0  0  0  0  0  0  0  0
  151.0470  144.2907  157.7345 H   0  0  0  0  0  0  0  0  0  0  0  0
  152.6313  143.8017  157.1663 H   0  0  0  0  0  0  0  0  0  0  0  0
  149.6299  143.3646  156.3395 H   0  0  0  0  0  0  0  0  0  0  0  0
  149.3191  141.6351  154.5880 H   0  0  0  0  0  0  0  0  0  0  0  0
  149.7560  140.4276  155.7846 H   0  0  0  0  0  0  0  0  0  0  0  0
  148.0964  141.7085  153.4100 H   0  0  0  0  0  0  0  0  0  0  0  0
  146.4716  141.1979  153.0961 H   0  0  0  0  0  0  0  0  0  0  0  0
  147.2965  143.9723  154.1022 H   0  0  0  0  0  0  0  0  0  0  0  0
  146.7890  143.5978  152.4715 H   0  0  0  0  0  0  0  0  0  0  0  0
  144.9305  144.5978  153.8840 H   0  0  0  0  0  0  0  0  0  0  0  0
  144.5315  143.0374  153.2088 H   0  0  0  0  0  0  0  0  0  0  0  0
  145.3850  143.6047  156.0832 H   0  0  0  0  0  0  0  0  0  0  0  0
  143.8255  143.0268  155.5461 H   0  0  0  0  0  0  0  0  0  0  0  0
  144.8554  140.8777  154.7857 H   0  0  0  0  0  0  0  0  0  0  0  0
  145.1848  141.1544  156.4706 H   0  0  0  0  0  0  0  0  0  0  0  0
  1  2  1  0  0  0  0
  1 21  1  0  0  0  0
  1 22  1  0  0  0  0
  1 23  1  0  0  0  0
  2 20  2  0  0  0  0
  2  3  1  0  0  0  0
  3  4  2  0  0  0  0
  3 24  1  0  0  0  0
  4  5  1  0  0  0  0
  4  6  1  0  0  0  0
  5 25  1  0  0  0  0
  5 26  1  0  0  0  0
  5 27  1  0  0  0  0
  6  7  1  0  0  0  0
  6 20  1  0  0  0  0
  7  8  1  0  0  0  0
  7 28  1  0  0  0  0
  7 29  1  0  0  0  0
  8  9  2  0  0  0  0
  8 10  1  0  0  0  0
 10 11  1  0  0  0  0
 10 30  1  0  0  0  0
 11 12  1  0  0  0  0
 11 31  1  0  0  0  0
 11 32  1  0  0  0  0
 12 13  2  0  0  0  0
 12 14  1  0  0  0  0
 14 19  1  0  0  0  0
 14 15  1  0  0  0  0
 15 16  1  0  0  0  0
 15 33  1  0  0  0  0
 15 34  1  0  0  0  0
 16 17  1  0  0  0  0
 16 35  1  0  0  0  0
 16 36  1  0  0  0  0
 17 18  1  0  0  0  0
 17 37  1  0  0  0  0
 17 38  1  0  0  0  0
 18 19  1  0  0  0  0
 18 39  1  0  0  0  0
 18 40  1  0  0  0  0
 19 41  1  0  0  0  0
 19 42  1  0  0  0  0
M  END
> <s_m_source_file>
AV-unprocessed.smi

> <i_m_source_file_index>
1136

> <i_lp_mmshare_version>
43012

> <i_f3d_flags>
0

> <s_epik_input>
W0NIM11jMVtjSF1jKFtDSDNdKW4objEpW0NIMl1DKD1PKVtOSF1bQ0gyXUMoPU8pTjJbQ0gyXVtDSDJdW0NIMl1bQ0gyXVtDSDJdMg==

> <s_epik_cmdline>
J2VwaWtfcHl0aG9uJywgJy1waCcsICc3LjAnLCAnLXRuJywgJzgnLCAnLW1hJywgJzIwMCcsICctbWV0YWxfYmluZGluZycsICctaW1hZScsICc8aW5maWxlLm1hZT4nLCAnLW9tYWUnLCAnPG91dGZpbGUubWFlPic=

> <r_lp_tautomer_probability>
1

> <r_epik_Ionization_Penalty>
0.000263643

> <r_epik_Ionization_Penalty_Charging>
0

> <r_epik_Ionization_Penalty_Neutral>
0.000263643

> <r_epik_State_Penalty>
-0

> <r_epik_Charging_Adjusted_Penalty>
0

> <i_epik_Tot_Q>
0

> <i_epik_Tot_abs_Q>
0

> <r_epik_Metal_State_Penalty>
-0

> <b_epik_Metal_Only>
0

> <s_lp_Force_Field>
OPLS_2005

> <r_lp_Energy>
19.7074

> <b_lp_Chiralities_Consistent>
1

> <s_lp_Variant>
AV-unprocessed.smi:1136-1

> <Gold.Version>
5.8.1

> <Gold.Id.Protein>
6NUR|6NUR_protein|mol2

> <Gold.PLP.Fitness>
45.9765

> <Gold.PLP.PLP>
-43.8733

> <Gold.PLP.part.hbond>
-1.0000

> <Gold.PLP.part.metal>
0.0000

> <Gold.PLP.part.buried>
-6.2759

> <Gold.PLP.part.nonpolar>
-37.3238

> <Gold.PLP.part.repulsive>
0.0995

> <Gold.PLP.ligand.clash>
0.0000

> <Gold.PLP.ligand.torsion>
0.4608

> <Gold.PLP.Chemscore.Hbond>
1.0000

> <Gold.PLP.Chemscore.CHOScore>
0.0000

> <Gold.PLP.Chemscore.Metal>
0.0000

> <Gold.Chemscore.Hbonds>
donor molecule, donor type, donor heavy atom, donor atom, acceptor molecule, acceptor atom, score
      L1  H    10    30       P1  8028  1.00

> <Gold.PLP.Chemscore.Internal.Correction>
0.0248

> <Gold.Rescore>
     Score         DG    S(hbond)    S(metal)    S(lipo)     H(rot)  DE(clash)    DE(int)     intcor
     14.13     -15.95       0.98        0.00      96.84       1.61       0.07       1.76       ----

> <Gold.Chemscore.Fitness>
14.1276

> <Gold.Chemscore.DG>
-15.9544

> <Gold.Chemscore.ZeroCoef>
-5.4800

> <Gold.Chemscore.Hbond>
0.9802

> <Gold.Chemscore.Metal>
0.0000

> <Gold.Chemscore.Lipo>
96.8443

> <Gold.Chemscore.Internal_Hbond>
0.0000

> <Gold.Chemscore.DEClash>
0.0685

> <Gold.Chemscore.DEInternal>
1.7583

> <Gold.Chemscore.Rot>
1.6134

> <Gold.Chemscore.Internal.Correction>
   9.000000E+99

> <Gold.Chemscore.Hbonds>
donor molecule, donor type, donor heavy atom, donor atom, acceptor molecule, acceptor atom, score
      L1  H    10    30       P1  8028  0.99

> <Gold.Chemscore.Hbond.Weighted>
-3.2739

> <Gold.Chemscore.Metal.Weighted>
-0.0000

> <Gold.Chemscore.Lipo.Weighted>
-11.3308

> <Gold.Chemscore.Internal_Hbond.Weighted>
0.0000

> <Gold.Chemscore.DEClash.Weighted>
0.0685

> <Gold.Chemscore.DEInternal.Weighted>
1.7583

> <Gold.Chemscore.Rot.Weighted>
4.1303

> <Gold.Chemscore.Internal.Correction.Weighted>
   9.000000E+99

> <Gold.Protein.RotatedTorsions>
[ 6907 6896 6895 6894 ] final -130.75 input  -60.11 | X-H torsion
[ 7974 7965 7964 7962 ] final  -98.60 input  175.53 | X-H torsion
[ 8008 7997 7996 7995 ] final -108.70 input   59.86 | X-H torsion
[ 10167 10162 10161 10158 ] final   89.99 input  -65.29 | X-H torsion
[ 10718 10713 10712 10709 ] final -130.13 input   66.30 | X-H torsion
[ 10763 10752 10751 10750 ] final -168.80 input  -60.55 | X-H torsion
[ 11005 11000 10999 10996 ] final -155.78 input  -57.11 | X-H torsion

> <Gold.Protein.ActiveResidues>
 VAL166  LYS551  ARG553  GLY616  TRP617  ASP618  TYR619  PRO620  LYS621  CYS622 
 ASP623  PHE694  ASN695  SER759  ASP760  ASP761  ALA762  ILE779  LEU786  VAL792 
 PHE793  MET794  SER795  GLU796  ALA797  LYS798  CYS799  TRP800  GLU811  SER814 

> <Gold.Protein.RotatedAtoms>
  150.9433  133.6632  159.2786 H   0  0  0  0  0  0  0  0  0  0  0  0  # atno 6907 bound_to 6896
  151.4013  135.0970  159.9566 H   0  0  0  0  0  0  0  0  0  0  0  0  # atno 6908 bound_to 6896
  152.5079  133.8926  159.7456 H   0  0  0  0  0  0  0  0  0  0  0  0  # atno 6909 bound_to 6896
  145.3185  140.9416  143.2729 H   0  0  0  0  0  0  0  0  0  0  0  0  # atno 7974 bound_to 7965
  154.9482  140.0401  157.2130 H   0  0  0  0  0  0  0  0  0  0  0  0  # atno 8008 bound_to 7997
  154.8004  140.2851  155.5904 H   0  0  0  0  0  0  0  0  0  0  0  0  # atno 8009 bound_to 7997
  156.2960  140.2556  156.2871 H   0  0  0  0  0  0  0  0  0  0  0  0  # atno 8010 bound_to 7997
  139.8517  144.6590  150.9162 H   0  0  0  0  0  0  0  0  0  0  0  0  # atno 10167 bound_to 10162
  156.2115  130.6921  151.0654 H   0  0  0  0  0  0  0  0  0  0  0  0  # atno 10718 bound_to 10713
  154.6591  135.2922  154.9890 H   0  0  0  0  0  0  0  0  0  0  0  0  # atno 10763 bound_to 10752
  154.0956  135.6584  153.4863 H   0  0  0  0  0  0  0  0  0  0  0  0  # atno 10764 bound_to 10752
  153.0419  135.5230  154.7533 H   0  0  0  0  0  0  0  0  0  0  0  0  # atno 10765 bound_to 10752
  140.6827  134.4127  157.5225 H   0  0  0  0  0  0  0  0  0  0  0  0  # atno 11005 bound_to 11000
  144.8958  139.4714  143.6656 LP  0  0  0  0  0  0  0  0  0  0  0  0  # atno 17320 bound_to 7965
  146.3091  139.7683  142.9033 LP  0  0  0  0  0  0  0  0  0  0  0  0  # atno 17321 bound_to 7965
  140.7786  143.3821  151.1458 LP  0  0  0  0  0  0  0  0  0  0  0  0  # atno 17342 bound_to 10162
  139.7459  143.8853  152.3063 LP  0  0  0  0  0  0  0  0  0  0  0  0  # atno 17343 bound_to 10162
  157.7041  131.0764  150.6726 LP  0  0  0  0  0  0  0  0  0  0  0  0  # atno 17370 bound_to 10713
  156.6786  130.4560  149.5635 LP  0  0  0  0  0  0  0  0  0  0  0  0  # atno 17371 bound_to 10713
  139.8947  134.8701  156.2166 LP  0  0  0  0  0  0  0  0  0  0  0  0  # atno 17394 bound_to 11000
  141.0304  133.6991  156.1421 LP  0  0  0  0  0  0  0  0  0  0  0  0  # atno 17395 bound_to 11000

$$$$
