AV-unprocessed.smi:2234|AV-procd|sdf|9042|dock5
  -GOLD-   2272012253D 1   1.00000     0.00000
 Structure written by MMmdl.
 21 22  0  0  0  0  0  0  0  0  2 V2000
  152.6103  136.8330  156.5373 O   0  0  0  0  0  0  0  0  0  0  0  0
  152.5454  138.0775  156.6512 C   0  0  0  0  0  0  0  0  0  0  0  0
  152.5932  138.8916  155.7028 O   0  5  0  0  0  0  0  0  0  0  0  0
  152.4262  138.6516  158.0689 C   0  0  2  0  0  0  0  0  0  0  0  0
  152.2323  140.1565  158.0986 C   0  0  0  0  0  0  0  0  0  0  0  0
  152.9037  140.4889  159.3903 C   0  0  0  0  0  0  0  0  0  0  0  0
  152.6762  141.7388  160.1556 C   0  0  0  0  0  0  0  0  0  0  0  0
  153.2443  141.9175  161.4367 C   0  0  0  0  0  0  0  0  0  0  0  0
  152.9980  143.1184  162.1301 C   0  0  0  0  0  0  0  0  0  0  0  0
  152.1899  144.0949  161.5157 C   0  0  0  0  0  0  0  0  0  0  0  0
  151.6373  143.9377  160.2943 N   0  0  0  0  0  0  0  0  0  0  0  0
  151.8769  142.7834  159.6344 C   0  0  0  0  0  0  0  0  0  0  0  0
  153.6706  139.5520  159.7649 N   0  0  0  0  0  0  0  0  0  0  0  0
  153.6245  138.4972  158.8198 O   0  0  0  0  0  0  0  0  0  0  0  0
  151.6132  138.1502  158.5975 H   0  0  0  0  0  0  0  0  0  0  0  0
  152.7365  140.6725  157.2796 H   0  0  0  0  0  0  0  0  0  0  0  0
  151.1771  140.4303  158.1088 H   0  0  0  0  0  0  0  0  0  0  0  0
  153.8571  141.1544  161.8936 H   0  0  0  0  0  0  0  0  0  0  0  0
  153.4179  143.2861  163.1108 H   0  0  0  0  0  0  0  0  0  0  0  0
  151.9802  145.0268  162.0199 H   0  0  0  0  0  0  0  0  0  0  0  0
  151.4139  142.7025  158.6619 H   0  0  0  0  0  0  0  0  0  0  0  0
  1  2  2  0  0  0  0
  2  3  1  0  0  0  0
  2  4  1  0  0  0  0
  4 14  1  0  0  0  0
  4  5  1  0  0  0  0
  4 15  1  0  0  0  0
  5  6  1  0  0  0  0
  5 16  1  0  0  0  0
  5 17  1  0  0  0  0
  6  7  1  0  0  0  0
  6 13  2  0  0  0  0
  7 12  1  0  0  0  0
  7  8  2  0  0  0  0
  8  9  1  0  0  0  0
  8 18  1  0  0  0  0
  9 10  2  0  0  0  0
  9 19  1  0  0  0  0
 10 11  1  0  0  0  0
 10 20  1  0  0  0  0
 11 12  2  0  0  0  0
 12 21  1  0  0  0  0
 13 14  1  0  0  0  0
M  CHG  1   3  -1
M  END
> <s_m_source_file>
AV-unprocessed.smi

> <i_m_source_file_index>
2234

> <i_lp_mmshare_version>
43012

> <i_f3d_flags>
0

> <s_epik_input>
Tz1DKFtPSF0pW0NAQEhdMVtDSDJdQyg9Tk8xKWMyW2NIXVtjSF1bY0hdbltjSF0y

> <s_epik_cmdline>
J2VwaWtfcHl0aG9uJywgJy1waCcsICc3LjAnLCAnLXRuJywgJzgnLCAnLW1hJywgJzIwMCcsICctbWV0YWxfYmluZGluZycsICctaW1hZScsICc8aW5maWxlLm1hZT4nLCAnLW9tYWUnLCAnPG91dGZpbGUubWFlPic=

> <r_lp_tautomer_probability>
1

> <r_epik_Ionization_Penalty>
0.000239258

> <r_epik_Ionization_Penalty_Charging>
3.09051e-05

> <r_epik_Ionization_Penalty_Neutral>
0.000208353

> <r_epik_State_Penalty>
-0

> <r_epik_Charging_Adjusted_Penalty>
3.09051e-05

> <i_epik_Tot_Q>
-1

> <i_epik_Tot_abs_Q>
1

> <r_epik_Metal_State_Penalty>
-0

> <b_epik_Metal_Only>
0

> <s_epik_Chemistry_Notes>
This compound has an imine and may undergo hydrolysis.

> <s_lp_Force_Field>
OPLS_2005

> <r_lp_Energy>
16.9969

> <b_lp_Chiralities_Consistent>
1

> <s_lp_Variant>
AV-unprocessed.smi:2234-1

> <Gold.Version>
5.8.1

> <Gold.Id.Protein>
6NUR|6NUR_protein|mol2

> <Gold.PLP.Fitness>
39.4363

> <Gold.PLP.PLP>
-28.3390

> <Gold.PLP.part.hbond>
-2.0000

> <Gold.PLP.part.metal>
0.0000

> <Gold.PLP.part.buried>
-4.8080

> <Gold.PLP.part.nonpolar>
-21.9579

> <Gold.PLP.part.repulsive>
0.0674

> <Gold.PLP.ligand.clash>
0.0000

> <Gold.PLP.ligand.torsion>
0.1536

> <Gold.PLP.Chemscore.Hbond>
3.7920

> <Gold.PLP.Chemscore.CHOScore>
0.0000

> <Gold.PLP.Chemscore.Metal>
0.0000

> <Gold.Chemscore.Hbonds>
donor molecule, donor type, donor heavy atom, donor atom, acceptor molecule, acceptor atom, score
      P1  H  7997  8008       L1     3  0.94
      P1  H 10752 10765       L1     1  1.75

> <Gold.PLP.Chemscore.Internal.Correction>
0.0285

> <Gold.Rescore>
     Score         DG    S(hbond)    S(metal)    S(lipo)     H(rot)  DE(clash)    DE(int)     intcor
     17.67     -17.87       1.90        0.00      73.51       1.00       0.01       0.19       ----

> <Gold.Chemscore.Fitness>
17.6702

> <Gold.Chemscore.DG>
-17.8714

> <Gold.Chemscore.ZeroCoef>
-5.4800

> <Gold.Chemscore.Hbond>
1.9016

> <Gold.Chemscore.Metal>
0.0000

> <Gold.Chemscore.Lipo>
73.5054

> <Gold.Chemscore.Internal_Hbond>
0.0000

> <Gold.Chemscore.DEClash>
0.0126

> <Gold.Chemscore.DEInternal>
0.1886

> <Gold.Chemscore.Rot>
1.0000

> <Gold.Chemscore.Internal.Correction>
   9.000000E+99

> <Gold.Chemscore.Hbonds>
donor molecule, donor type, donor heavy atom, donor atom, acceptor molecule, acceptor atom, score
      P1  H  7997  8008       L1     3  0.31
      P1  H 10752 10765       L1     1  0.80

> <Gold.Chemscore.Hbond.Weighted>
-6.3513

> <Gold.Chemscore.Metal.Weighted>
-0.0000

> <Gold.Chemscore.Lipo.Weighted>
-8.6001

> <Gold.Chemscore.Internal_Hbond.Weighted>
0.0000

> <Gold.Chemscore.DEClash.Weighted>
0.0126

> <Gold.Chemscore.DEInternal.Weighted>
0.1886

> <Gold.Chemscore.Rot.Weighted>
2.5600

> <Gold.Chemscore.Internal.Correction.Weighted>
   9.000000E+99

> <Gold.Protein.RotatedTorsions>
[ 6907 6896 6895 6894 ] final   48.29 input  -60.11 | X-H torsion
[ 7974 7965 7964 7962 ] final  171.76 input  175.53 | X-H torsion
[ 8008 7997 7996 7995 ] final  -20.95 input   59.86 | X-H torsion
[ 10167 10162 10161 10158 ] final  111.75 input  -65.29 | X-H torsion
[ 10718 10713 10712 10709 ] final   46.94 input   66.30 | X-H torsion
[ 10763 10752 10751 10750 ] final -149.97 input  -60.55 | X-H torsion
[ 11005 11000 10999 10996 ] final  -83.43 input  -57.11 | X-H torsion

> <Gold.Protein.ActiveResidues>
 VAL166  LYS551  ARG553  GLY616  TRP617  ASP618  TYR619  PRO620  LYS621  CYS622 
 ASP623  PHE694  ASN695  SER759  ASP760  ASP761  ALA762  ILE779  LEU786  VAL792 
 PHE793  MET794  SER795  GLU796  ALA797  LYS798  CYS799  TRP800  GLU811  SER814 

> <Gold.Protein.RotatedAtoms>
  152.2779  134.7861  160.0401 H   0  0  0  0  0  0  0  0  0  0  0  0  # atno 6907 bound_to 6896
  151.8451  133.3425  159.3663 H   0  0  0  0  0  0  0  0  0  0  0  0  # atno 6908 bound_to 6896
  150.7177  134.5282  159.5731 H   0  0  0  0  0  0  0  0  0  0  0  0  # atno 6909 bound_to 6896
  144.7286  139.9398  143.6428 H   0  0  0  0  0  0  0  0  0  0  0  0  # atno 7974 bound_to 7965
  154.4737  140.2048  155.9931 H   0  0  0  0  0  0  0  0  0  0  0  0  # atno 8008 bound_to 7997
  156.1053  140.3237  155.7968 H   0  0  0  0  0  0  0  0  0  0  0  0  # atno 8009 bound_to 7997
  155.4727  140.0532  157.2968 H   0  0  0  0  0  0  0  0  0  0  0  0  # atno 8010 bound_to 7997
  139.6587  144.7129  151.1906 H   0  0  0  0  0  0  0  0  0  0  0  0  # atno 10167 bound_to 10162
  157.4533  130.8151  149.7810 H   0  0  0  0  0  0  0  0  0  0  0  0  # atno 10718 bound_to 10713
  154.8146  135.3296  154.7211 H   0  0  0  0  0  0  0  0  0  0  0  0  # atno 10763 bound_to 10752
  153.7854  135.6915  153.4885 H   0  0  0  0  0  0  0  0  0  0  0  0  # atno 10764 bound_to 10752
  153.1952  135.4536  155.0146 H   0  0  0  0  0  0  0  0  0  0  0  0  # atno 10765 bound_to 10752
  141.1658  133.7294  156.8720 H   0  0  0  0  0  0  0  0  0  0  0  0  # atno 11005 bound_to 11000
  146.0793  139.3781  143.0474 LP  0  0  0  0  0  0  0  0  0  0  0  0  # atno 17320 bound_to 7965
  145.7862  140.9834  143.1073 LP  0  0  0  0  0  0  0  0  0  0  0  0  # atno 17321 bound_to 7965
  140.7571  143.6029  150.8682 LP  0  0  0  0  0  0  0  0  0  0  0  0  # atno 17342 bound_to 10162
  139.9684  143.6084  152.2981 LP  0  0  0  0  0  0  0  0  0  0  0  0  # atno 17343 bound_to 10162
  155.9996  130.3887  150.2657 LP  0  0  0  0  0  0  0  0  0  0  0  0  # atno 17370 bound_to 10713
  157.0830  131.0148  151.3149 LP  0  0  0  0  0  0  0  0  0  0  0  0  # atno 17371 bound_to 10713
  140.1775  134.9057  157.2908 LP  0  0  0  0  0  0  0  0  0  0  0  0  # atno 17394 bound_to 11000
  140.2432  134.3771  155.7472 LP  0  0  0  0  0  0  0  0  0  0  0  0  # atno 17395 bound_to 11000

$$$$
