AV-unprocessed.smi:53|AV-procd|sdf|525|dock3
  -GOLD-   2262016403D 1   1.00000     0.00000
 Structure written by MMmdl.
 30 31  0  0  0  0  0  0  0  0  1 V2000
  152.9452  141.3102  159.0567 N   0  0  0  0  0  0  0  0  0  0  0  0
  152.2211  141.1537  157.9395 C   0  0  0  0  0  0  0  0  0  0  0  0
  151.1422  142.0663  157.6341 C   0  0  0  0  0  0  0  0  0  0  0  0
  150.4613  141.8445  156.4882 C   0  0  0  0  0  0  0  0  0  0  0  0
  150.7811  140.8018  155.6293 N   0  0  0  0  0  0  0  0  0  0  0  0
  149.9961  140.5571  154.3615 C   0  0  2  0  0  0  0  0  0  0  0  0
  149.1429  141.6397  154.1397 O   0  0  0  0  0  0  0  0  0  0  0  0
  147.8807  141.1641  153.6902 C   0  0  2  0  0  0  0  0  0  0  0  0
  146.7747  142.2101  153.9158 C   0  0  0  0  0  0  0  0  0  0  0  0
  146.8402  142.7108  155.2343 O   0  0  0  0  0  0  0  0  0  0  0  0
  147.7127  139.8447  154.4559 C   0  0  2  0  0  0  0  0  0  0  0  0
  147.2277  140.0705  155.7676 O   0  0  0  0  0  0  0  0  0  0  0  0
  149.1314  139.2903  154.5010 C   0  0  1  0  0  0  0  0  0  0  0  0
  149.3420  138.4039  153.4201 O   0  0  0  0  0  0  0  0  0  0  0  0
  151.8265  139.9102  155.9676 C   0  0  0  0  0  0  0  0  0  0  0  0
  152.1125  138.9467  155.2573 O   0  0  0  0  0  0  0  0  0  0  0  0
  152.5075  140.1522  157.1302 N   0  0  0  0  0  0  0  0  0  0  0  0
  150.7199  140.5193  153.5445 H   0  0  0  0  0  0  0  0  0  0  0  0
  147.9621  140.9283  152.6270 H   0  0  0  0  0  0  0  0  0  0  0  0
  147.0161  139.1713  153.9543 H   0  0  0  0  0  0  0  0  0  0  0  0
  149.3434  138.7607  155.4315 H   0  0  0  0  0  0  0  0  0  0  0  0
  153.6957  140.6690  159.2692 H   0  0  0  0  0  0  0  0  0  0  0  0
  152.7364  142.0717  159.6864 H   0  0  0  0  0  0  0  0  0  0  0  0
  150.8662  142.8953  158.2701 H   0  0  0  0  0  0  0  0  0  0  0  0
  149.6442  142.5109  156.2531 H   0  0  0  0  0  0  0  0  0  0  0  0
  146.9145  143.0554  153.2414 H   0  0  0  0  0  0  0  0  0  0  0  0
  145.7863  141.7940  153.7177 H   0  0  0  0  0  0  0  0  0  0  0  0
  147.6568  143.1744  155.3406 H   0  0  0  0  0  0  0  0  0  0  0  0
  146.4675  139.5264  155.9045 H   0  0  0  0  0  0  0  0  0  0  0  0
  149.5328  138.9159  152.6484 H   0  0  0  0  0  0  0  0  0  0  0  0
  1  2  1  0  0  0  0
  1 22  1  0  0  0  0
  1 23  1  0  0  0  0
  2 17  2  0  0  0  0
  2  3  1  0  0  0  0
  3  4  2  0  0  0  0
  3 24  1  0  0  0  0
  4  5  1  0  0  0  0
  4 25  1  0  0  0  0
  5  6  1  0  0  0  0
  5 15  1  0  0  0  0
  6 18  1  0  0  0  0
  6 13  1  0  0  0  0
  6  7  1  0  0  0  0
  7  8  1  0  0  0  0
  8 19  1  0  0  0  0
  8  9  1  0  0  0  0
  8 11  1  0  0  0  0
  9 10  1  0  0  0  0
  9 26  1  0  0  0  0
  9 27  1  0  0  0  0
 10 28  1  0  0  0  0
 11 20  1  0  0  0  0
 11 12  1  0  0  0  0
 11 13  1  0  0  0  0
 12 29  1  0  0  0  0
 13 21  1  0  0  0  0
 13 14  1  0  0  0  0
 14 30  1  0  0  0  0
 15 16  2  0  0  0  0
 15 17  1  0  0  0  0
M  END
> <s_m_source_file>
AV-unprocessed.smi

> <i_m_source_file_index>
53

> <i_lp_mmshare_version>
43012

> <i_f3d_flags>
0

> <s_epik_input>
W05IMl1jMVtjSF1bY0hdbihjKD1PKW4xKVtDQEBIXTJPW0NASF0oW0NIMl1bT0hdKVtDQEBIXShbT0hdKVtDQEBIXTJbT0hd

> <s_epik_cmdline>
J2VwaWtfcHl0aG9uJywgJy1waCcsICc3LjAnLCAnLXRuJywgJzgnLCAnLW1hJywgJzIwMCcsICctbWV0YWxfYmluZGluZycsICctaW1hZScsICc8aW5maWxlLm1hZT4nLCAnLW9tYWUnLCAnPG91dGZpbGUubWFlPic=

> <r_lp_tautomer_probability>
0.99996

> <r_epik_Ionization_Penalty>
0.00069087

> <r_epik_Ionization_Penalty_Charging>
2.61959e-08

> <r_epik_Ionization_Penalty_Neutral>
0.000690844

> <r_epik_State_Penalty>
1.15523e-05

> <r_epik_Charging_Adjusted_Penalty>
1.15785e-05

> <i_epik_Tot_Q>
0

> <i_epik_Tot_abs_Q>
0

> <r_epik_Metal_State_Penalty>
-0

> <b_epik_Metal_Only>
0

> <s_epik_Chemistry_Notes>
This compound contains an acetal/aminal-like group ( X-CH(R)-Y where X, Y are N, S, or O) that may be acid/base labile, releasing an aldehyde.

> <s_lp_Force_Field>
OPLS_2005

> <r_lp_Energy>
30.3986

> <b_lp_Chiralities_Consistent>
1

> <s_lp_Variant>
AV-unprocessed.smi:53-13

> <Gold.Version>
5.8.1

> <Gold.Id.Protein>
6NUR|6NUR_protein|mol2

> <Gold.PLP.Fitness>
42.4043

> <Gold.PLP.PLP>
-29.6848

> <Gold.PLP.part.hbond>
-5.4956

> <Gold.PLP.part.metal>
0.0000

> <Gold.PLP.part.buried>
-1.3188

> <Gold.PLP.part.nonpolar>
-22.4521

> <Gold.PLP.part.repulsive>
0.2861

> <Gold.PLP.ligand.clash>
0.0000

> <Gold.PLP.ligand.torsion>
0.2308

> <Gold.PLP.Chemscore.Hbond>
3.3898

> <Gold.PLP.Chemscore.CHOScore>
1.0000

> <Gold.PLP.Chemscore.Metal>
0.0000

> <Gold.Chemscore.Hbonds>
donor molecule, donor type, donor heavy atom, donor atom, acceptor molecule, acceptor atom, score
      L1  H    10    28       P1  8028  1.00
      L1  H    14    30       P1  7957  1.00
      P1  H  7997  8010       L1    17  1.00
      P1  H  8011  8017       L1     7  0.48
      L1  C     4    25       P1  8028  1.00

> <Gold.PLP.Chemscore.Internal.Correction>
0.0117

> <Gold.Rescore>
     Score         DG    S(hbond)    S(metal)    S(lipo)     H(rot)  DE(clash)    DE(int)     intcor
      5.45      -7.11       2.00        0.00      38.06       3.71       1.23       0.42       ----

> <Gold.Chemscore.Fitness>
5.4534

> <Gold.Chemscore.DG>
-7.1053

> <Gold.Chemscore.ZeroCoef>
-5.4800

> <Gold.Chemscore.Hbond>
1.9966

> <Gold.Chemscore.Metal>
0.0000

> <Gold.Chemscore.Lipo>
38.0589

> <Gold.Chemscore.Internal_Hbond>
0.0000

> <Gold.Chemscore.DEClash>
1.2339

> <Gold.Chemscore.DEInternal>
0.4180

> <Gold.Chemscore.Rot>
3.7095

> <Gold.Chemscore.Internal.Correction>
   9.000000E+99

> <Gold.Chemscore.Hbonds>
donor molecule, donor type, donor heavy atom, donor atom, acceptor molecule, acceptor atom, score
      L1  H    10    28       P1  8028  0.39
      L1  H    14    30       P1  7957  0.91
      P1  H  7997  8010       L1    17  0.41
      P1  H  8011  8017       L1     7  0.04

> <Gold.Chemscore.Hbond.Weighted>
-6.6688

> <Gold.Chemscore.Metal.Weighted>
-0.0000

> <Gold.Chemscore.Lipo.Weighted>
-4.4529

> <Gold.Chemscore.Internal_Hbond.Weighted>
0.0000

> <Gold.Chemscore.DEClash.Weighted>
1.2339

> <Gold.Chemscore.DEInternal.Weighted>
0.4180

> <Gold.Chemscore.Rot.Weighted>
9.4964

> <Gold.Chemscore.Internal.Correction.Weighted>
   9.000000E+99

> <Gold.Protein.RotatedTorsions>
[ 6907 6896 6895 6894 ] final  -80.84 input  -60.11 | X-H torsion
[ 7974 7965 7964 7962 ] final   55.11 input  175.53 | X-H torsion
[ 8008 7997 7996 7995 ] final   60.10 input   59.86 | X-H torsion
[ 10167 10162 10161 10158 ] final  -64.83 input  -65.29 | X-H torsion
[ 10718 10713 10712 10709 ] final -173.58 input   66.30 | X-H torsion
[ 10763 10752 10751 10750 ] final  -34.69 input  -60.55 | X-H torsion
[ 11005 11000 10999 10996 ] final   18.82 input  -57.11 | X-H torsion

> <Gold.Protein.ActiveResidues>
 VAL166  LYS551  ARG553  GLY616  TRP617  ASP618  TYR619  PRO620  LYS621  CYS622 
 ASP623  PHE694  ASN695  SER759  ASP760  ASP761  ALA762  ILE779  LEU786  VAL792 
 PHE793  MET794  SER795  GLU796  ALA797  LYS798  CYS799  TRP800  GLU811  SER814 

> <Gold.Protein.RotatedAtoms>
  150.6922  134.3908  159.5075 H   0  0  0  0  0  0  0  0  0  0  0  0  # atno 6907 bound_to 6896
  152.1696  134.8842  160.0544 H   0  0  0  0  0  0  0  0  0  0  0  0  # atno 6908 bound_to 6896
  151.9873  133.3744  159.4167 H   0  0  0  0  0  0  0  0  0  0  0  0  # atno 6909 bound_to 6896
  145.9538  139.3996  143.0290 H   0  0  0  0  0  0  0  0  0  0  0  0  # atno 7974 bound_to 7965
  155.5769  140.3491  155.4530 H   0  0  0  0  0  0  0  0  0  0  0  0  # atno 8008 bound_to 7997
  156.0402  140.1294  157.0189 H   0  0  0  0  0  0  0  0  0  0  0  0  # atno 8009 bound_to 7997
  154.4389  140.1025  156.6212 H   0  0  0  0  0  0  0  0  0  0  0  0  # atno 8010 bound_to 7997
  140.5773  143.2323  151.6416 H   0  0  0  0  0  0  0  0  0  0  0  0  # atno 10167 bound_to 10162
  156.7723  130.9453  151.3120 H   0  0  0  0  0  0  0  0  0  0  0  0  # atno 10718 bound_to 10713
  153.8509  135.6849  153.4792 H   0  0  0  0  0  0  0  0  0  0  0  0  # atno 10763 bound_to 10752
  153.1398  135.4662  154.9476 H   0  0  0  0  0  0  0  0  0  0  0  0  # atno 10764 bound_to 10752
  154.7803  135.3266  154.7953 H   0  0  0  0  0  0  0  0  0  0  0  0  # atno 10765 bound_to 10752
  140.4205  134.1523  155.7672 H   0  0  0  0  0  0  0  0  0  0  0  0  # atno 11005 bound_to 11000
  145.8134  140.9714  143.0936 LP  0  0  0  0  0  0  0  0  0  0  0  0  # atno 17320 bound_to 7965
  144.6801  139.9950  143.7484 LP  0  0  0  0  0  0  0  0  0  0  0  0  # atno 17321 bound_to 7965
  139.5150  144.3394  152.0754 LP  0  0  0  0  0  0  0  0  0  0  0  0  # atno 17342 bound_to 10162
  140.2539  144.4140  150.6211 LP  0  0  0  0  0  0  0  0  0  0  0  0  # atno 17343 bound_to 10162
  157.6685  130.9029  149.9986 LP  0  0  0  0  0  0  0  0  0  0  0  0  # atno 17370 bound_to 10713
  156.1270  130.3644  149.9794 LP  0  0  0  0  0  0  0  0  0  0  0  0  # atno 17371 bound_to 10713
  141.1786  133.8462  157.1337 LP  0  0  0  0  0  0  0  0  0  0  0  0  # atno 17394 bound_to 11000
  140.0203  134.9949  157.0578 LP  0  0  0  0  0  0  0  0  0  0  0  0  # atno 17395 bound_to 11000

$$$$
