AV-unprocessed.smi:91|AV-procd|sdf|833|dock3
  -GOLD-   2262017253D 1   1.00000     0.00000
 Structure written by MMmdl.
 60 63  0  0  0  0  0  0  0  0  1 V2000
  154.4554  143.7025  164.9022 C   0  0  0  0  0  0  0  0  0  0  0  0
  153.3434  143.5599  164.0361 O   0  0  0  0  0  0  0  0  0  0  0  0
  153.4962  142.4806  163.1274 C   0  0  0  0  0  0  0  0  0  0  0  0
  152.5367  142.6507  161.9415 C   0  0  2  0  0  0  0  0  0  0  0  0
  152.8916  141.7464  160.7476 C   0  0  0  0  0  0  0  0  0  0  0  0
  152.0076  142.0389  159.6298 N   0  0  0  0  0  0  0  0  0  0  0  0
  152.1326  141.1747  158.6010 C   0  0  0  0  0  0  0  0  0  0  0  0
  153.0068  140.1374  158.6832 N   0  0  0  0  0  0  0  0  0  0  0  0
  153.1221  139.2833  157.6616 C   0  0  0  0  0  0  0  0  0  0  0  0
  152.4726  139.2837  156.4951 N   0  0  0  0  0  0  0  0  0  0  0  0
  151.5926  140.3230  156.4154 C   0  0  0  0  0  0  0  0  0  0  0  0
  151.3652  141.3086  157.4155 C   0  0  0  0  0  0  0  0  0  0  0  0
  150.4057  142.2153  156.9854 N   0  0  0  0  0  0  0  0  0  0  0  0
  150.0822  141.7889  155.7947 C   0  0  0  0  0  0  0  0  0  0  0  0
  150.7399  140.6531  155.3763 N   0  0  0  0  0  0  0  0  0  0  0  0
  150.5677  139.9609  154.1103 C   0  0  0  0  0  0  0  0  0  0  0  0
  149.2060  139.2192  154.0210 C   0  0  2  0  0  0  0  0  0  0  0  0
  148.0285  140.2075  154.1814 C   0  0  0  0  0  0  0  0  0  0  0  0
  147.9413  141.0732  153.0695 O   0  0  0  0  0  0  0  0  0  0  0  0
  149.1117  138.0719  155.0601 C   0  0  2  0  0  0  0  0  0  0  0  0
  150.2802  137.1012  155.0520 C   0  0  0  0  0  0  0  0  0  0  0  0
  149.7045  135.8999  155.7916 C   0  0  0  0  0  0  0  0  0  0  0  0
  148.3300  135.8598  155.4303 O   0  0  0  0  0  0  0  0  0  0  0  0
  147.9465  137.0983  154.8405 C   0  0  0  0  0  0  0  0  0  0  0  0
  152.0545  143.4417  159.2386 C   0  0  0  0  0  0  0  0  0  0  0  0
  151.7040  144.3568  160.4334 C   0  0  0  0  0  0  0  0  0  0  0  0
  152.0414  145.8149  160.0867 C   0  0  0  0  0  0  0  0  0  0  0  0
  150.2119  144.2591  160.8169 C   0  0  0  0  0  0  0  0  0  0  0  0
  152.5432  144.0239  161.5460 O   0  0  0  0  0  0  0  0  0  0  0  0
  154.2886  144.5418  165.5772 H   0  0  0  0  0  0  0  0  0  0  0  0
  155.3698  143.8986  164.3408 H   0  0  0  0  0  0  0  0  0  0  0  0
  154.6009  142.8071  165.5078 H   0  0  0  0  0  0  0  0  0  0  0  0
  154.5249  142.4512  162.7646 H   0  0  0  0  0  0  0  0  0  0  0  0
  153.3017  141.5320  163.6304 H   0  0  0  0  0  0  0  0  0  0  0  0
  151.5388  142.3933  162.2965 H   0  0  0  0  0  0  0  0  0  0  0  0
  153.9260  141.9102  160.4419 H   0  0  0  0  0  0  0  0  0  0  0  0
  152.8003  140.6968  161.0308 H   0  0  0  0  0  0  0  0  0  0  0  0
  153.8363  138.4847  157.7982 H   0  0  0  0  0  0  0  0  0  0  0  0
  149.3483  142.2974  155.1881 H   0  0  0  0  0  0  0  0  0  0  0  0
  150.6828  140.6877  153.3062 H   0  0  0  0  0  0  0  0  0  0  0  0
  151.4030  139.2703  153.9876 H   0  0  0  0  0  0  0  0  0  0  0  0
  149.1123  138.7660  153.0319 H   0  0  0  0  0  0  0  0  0  0  0  0
  147.0770  139.6815  154.2494 H   0  0  0  0  0  0  0  0  0  0  0  0
  148.1342  140.7957  155.0934 H   0  0  0  0  0  0  0  0  0  0  0  0
  148.6726  140.9026  152.4958 H   0  0  0  0  0  0  0  0  0  0  0  0
  149.0235  138.4964  156.0618 H   0  0  0  0  0  0  0  0  0  0  0  0
  150.5374  136.8210  154.0294 H   0  0  0  0  0  0  0  0  0  0  0  0
  151.1744  137.4925  155.5371 H   0  0  0  0  0  0  0  0  0  0  0  0
  150.2130  134.9690  155.5401 H   0  0  0  0  0  0  0  0  0  0  0  0
  149.7770  136.0466  156.8698 H   0  0  0  0  0  0  0  0  0  0  0  0
  147.0148  137.4605  155.2757 H   0  0  0  0  0  0  0  0  0  0  0  0
  147.7774  136.9289  153.7763 H   0  0  0  0  0  0  0  0  0  0  0  0
  153.0576  143.6750  158.8773 H   0  0  0  0  0  0  0  0  0  0  0  0
  151.3687  143.6211  158.4092 H   0  0  0  0  0  0  0  0  0  0  0  0
  151.4649  146.1625  159.2287 H   0  0  0  0  0  0  0  0  0  0  0  0
  153.0981  145.9290  159.8429 H   0  0  0  0  0  0  0  0  0  0  0  0
  151.8248  146.4798  160.9234 H   0  0  0  0  0  0  0  0  0  0  0  0
  149.5779  144.6282  160.0101 H   0  0  0  0  0  0  0  0  0  0  0  0
  149.9957  144.8542  161.7046 H   0  0  0  0  0  0  0  0  0  0  0  0
  149.8989  143.2355  161.0206 H   0  0  0  0  0  0  0  0  0  0  0  0
  1  2  1  0  0  0  0
  1 30  1  0  0  0  0
  1 31  1  0  0  0  0
  1 32  1  0  0  0  0
  2  3  1  0  0  0  0
  3  4  1  0  0  0  0
  3 33  1  0  0  0  0
  3 34  1  0  0  0  0
  4 29  1  0  0  0  0
  4  5  1  0  0  0  0
  4 35  1  0  0  0  0
  5  6  1  0  0  0  0
  5 36  1  0  0  0  0
  5 37  1  0  0  0  0
  6  7  1  0  0  0  0
  6 25  1  0  0  0  0
  7 12  1  0  0  0  0
  7  8  2  0  0  0  0
  8  9  1  0  0  0  0
  9 10  2  0  0  0  0
  9 38  1  0  0  0  0
 10 11  1  0  0  0  0
 11 15  1  0  0  0  0
 11 12  2  0  0  0  0
 12 13  1  0  0  0  0
 13 14  2  0  0  0  0
 14 15  1  0  0  0  0
 14 39  1  0  0  0  0
 15 16  1  0  0  0  0
 16 17  1  0  0  0  0
 16 40  1  0  0  0  0
 16 41  1  0  0  0  0
 17 18  1  0  0  0  0
 17 20  1  0  0  0  0
 17 42  1  0  0  0  0
 18 19  1  0  0  0  0
 18 43  1  0  0  0  0
 18 44  1  0  0  0  0
 19 45  1  0  0  0  0
 20 24  1  0  0  0  0
 20 21  1  0  0  0  0
 20 46  1  0  0  0  0
 21 22  1  0  0  0  0
 21 47  1  0  0  0  0
 21 48  1  0  0  0  0
 22 23  1  0  0  0  0
 22 49  1  0  0  0  0
 22 50  1  0  0  0  0
 23 24  1  0  0  0  0
 24 51  1  0  0  0  0
 24 52  1  0  0  0  0
 25 26  1  0  0  0  0
 25 53  1  0  0  0  0
 25 54  1  0  0  0  0
 26 27  1  0  0  0  0
 26 28  1  0  0  0  0
 26 29  1  0  0  0  0
 27 55  1  0  0  0  0
 27 56  1  0  0  0  0
 27 57  1  0  0  0  0
 28 58  1  0  0  0  0
 28 59  1  0  0  0  0
 28 60  1  0  0  0  0
M  END
> <s_m_source_file>
AV-unprocessed.smi

> <i_m_source_file_index>
91

> <i_lp_mmshare_version>
43012

> <i_f3d_flags>
0

> <s_epik_input>
W0NIM11PW0NIMl1bQ0BASF0oTzEpW0NIMl1OKFtDSDJdQzEoW0NIM10pW0NIM10pYyhuW2NIXW4yKWMoYzIzKW5bY0hdbjNbQ0gyXVtDQEhdKFtDSDJdW09IXSlbQ0BASF00W0NIMl1bQ0gyXU9bQ0gyXTQ=

> <s_epik_cmdline>
J2VwaWtfcHl0aG9uJywgJy1waCcsICc3LjAnLCAnLXRuJywgJzgnLCAnLW1hJywgJzIwMCcsICctbWV0YWxfYmluZGluZycsICctaW1hZScsICc8aW5maWxlLm1hZT4nLCAnLW9tYWUnLCAnPG91dGZpbGUubWFlPic=

> <r_lp_tautomer_probability>
1

> <r_epik_Ionization_Penalty>
8.63591e-05

> <r_epik_Ionization_Penalty_Charging>
0

> <r_epik_Ionization_Penalty_Neutral>
8.63591e-05

> <r_epik_State_Penalty>
-0

> <r_epik_Charging_Adjusted_Penalty>
0

> <i_epik_Tot_Q>
0

> <i_epik_Tot_abs_Q>
0

> <r_epik_Metal_State_Penalty>
-0

> <b_epik_Metal_Only>
0

> <s_lp_Force_Field>
OPLS_2005

> <r_lp_Energy>
49.9364

> <b_lp_Chiralities_Consistent>
1

> <s_lp_Variant>
AV-unprocessed.smi:91-1

> <Gold.Version>
5.8.1

> <Gold.Id.Protein>
6NUR|6NUR_protein|mol2

> <Gold.PLP.Fitness>
50.7725

> <Gold.PLP.PLP>
-47.0403

> <Gold.PLP.part.hbond>
-2.6113

> <Gold.PLP.part.metal>
0.0000

> <Gold.PLP.part.buried>
4.5358

> <Gold.PLP.part.nonpolar>
-47.5645

> <Gold.PLP.part.repulsive>
0.4493

> <Gold.PLP.ligand.clash>
0.0000

> <Gold.PLP.ligand.torsion>
0.6061

> <Gold.PLP.Chemscore.Hbond>
1.0000

> <Gold.PLP.Chemscore.CHOScore>
0.5319

> <Gold.PLP.Chemscore.Metal>
0.0000

> <Gold.Chemscore.Hbonds>
donor molecule, donor type, donor heavy atom, donor atom, acceptor molecule, acceptor atom, score
      L1  H    19    45       P1  7957  1.00
      L1  C    14    39       P1  8028  0.78

> <Gold.PLP.Chemscore.Internal.Correction>
0.3486

> <Gold.Rescore>
     Score         DG    S(hbond)    S(metal)    S(lipo)     H(rot)  DE(clash)    DE(int)     intcor
     11.98     -16.31       1.00        0.00     130.32       3.03       3.59       0.75       ----

> <Gold.Chemscore.Fitness>
11.9762

> <Gold.Chemscore.DG>
-16.3115

> <Gold.Chemscore.ZeroCoef>
-5.4800

> <Gold.Chemscore.Hbond>
0.9990

> <Gold.Chemscore.Metal>
0.0000

> <Gold.Chemscore.Lipo>
130.3215

> <Gold.Chemscore.Internal_Hbond>
0.0000

> <Gold.Chemscore.DEClash>
3.5897

> <Gold.Chemscore.DEInternal>
0.7457

> <Gold.Chemscore.Rot>
3.0284

> <Gold.Chemscore.Internal.Correction>
   9.000000E+99

> <Gold.Chemscore.Hbonds>
donor molecule, donor type, donor heavy atom, donor atom, acceptor molecule, acceptor atom, score
      L1  H    19    45       P1  7957  0.99

> <Gold.Chemscore.Hbond.Weighted>
-3.3367

> <Gold.Chemscore.Metal.Weighted>
-0.0000

> <Gold.Chemscore.Lipo.Weighted>
-15.2476

> <Gold.Chemscore.Internal_Hbond.Weighted>
0.0000

> <Gold.Chemscore.DEClash.Weighted>
3.5897

> <Gold.Chemscore.DEInternal.Weighted>
0.7457

> <Gold.Chemscore.Rot.Weighted>
7.7528

> <Gold.Chemscore.Internal.Correction.Weighted>
   9.000000E+99

> <Gold.Protein.RotatedTorsions>
[ 6907 6896 6895 6894 ] final   17.14 input  -60.11 | X-H torsion
[ 7974 7965 7964 7962 ] final   17.53 input  175.53 | X-H torsion
[ 8008 7997 7996 7995 ] final  -48.19 input   59.86 | X-H torsion
[ 10167 10162 10161 10158 ] final  -21.48 input  -65.29 | X-H torsion
[ 10718 10713 10712 10709 ] final -171.39 input   66.30 | X-H torsion
[ 10763 10752 10751 10750 ] final   40.18 input  -60.55 | X-H torsion
[ 11005 11000 10999 10996 ] final    5.10 input  -57.11 | X-H torsion

> <Gold.Protein.ActiveResidues>
 VAL166  LYS551  ARG553  GLY616  TRP617  ASP618  TYR619  PRO620  LYS621  CYS622 
 ASP623  PHE694  ASN695  SER759  ASP760  ASP761  ALA762  ILE779  LEU786  VAL792 
 PHE793  MET794  SER795  GLU796  ALA797  LYS798  CYS799  TRP800  GLU811  SER814 

> <Gold.Protein.RotatedAtoms>
  151.8449  135.0578  160.0452 H   0  0  0  0  0  0  0  0  0  0  0  0  # atno 6907 bound_to 6896
  152.2781  133.5440  159.5489 H   0  0  0  0  0  0  0  0  0  0  0  0  # atno 6908 bound_to 6896
  150.7178  134.0519  159.3843 H   0  0  0  0  0  0  0  0  0  0  0  0  # atno 6909 bound_to 6896
  146.2215  139.8589  142.8608 H   0  0  0  0  0  0  0  0  0  0  0  0  # atno 7974 bound_to 7965
  154.4026  140.1327  156.4299 H   0  0  0  0  0  0  0  0  0  0  0  0  # atno 8008 bound_to 7997
  155.7561  140.3487  155.5154 H   0  0  0  0  0  0  0  0  0  0  0  0  # atno 8009 bound_to 7997
  155.8903  140.1002  157.1413 H   0  0  0  0  0  0  0  0  0  0  0  0  # atno 8010 bound_to 7997
  140.7282  143.4624  151.0361 H   0  0  0  0  0  0  0  0  0  0  0  0  # atno 10167 bound_to 10162
  156.7402  130.9339  151.3109 H   0  0  0  0  0  0  0  0  0  0  0  0  # atno 10718 bound_to 10713
  152.9944  135.6199  154.2585 H   0  0  0  0  0  0  0  0  0  0  0  0  # atno 10763 bound_to 10752
  154.2321  135.2791  155.2887 H   0  0  0  0  0  0  0  0  0  0  0  0  # atno 10764 bound_to 10752
  154.5440  135.5752  153.6922 H   0  0  0  0  0  0  0  0  0  0  0  0  # atno 10765 bound_to 10752
  140.5745  134.0071  155.8022 H   0  0  0  0  0  0  0  0  0  0  0  0  # atno 11005 bound_to 11000
  145.2725  141.0113  143.3764 LP  0  0  0  0  0  0  0  0  0  0  0  0  # atno 17320 bound_to 7965
  144.9212  139.4409  143.6540 LP  0  0  0  0  0  0  0  0  0  0  0  0  # atno 17321 bound_to 7965
  139.8310  143.7691  152.3180 LP  0  0  0  0  0  0  0  0  0  0  0  0  # atno 17342 bound_to 10162
  139.7807  144.7445  151.0092 LP  0  0  0  0  0  0  0  0  0  0  0  0  # atno 17343 bound_to 10162
  157.6822  130.9150  150.0295 LP  0  0  0  0  0  0  0  0  0  0  0  0  # atno 17370 bound_to 10713
  156.1470  130.3642  149.9496 LP  0  0  0  0  0  0  0  0  0  0  0  0  # atno 17371 bound_to 10713
  141.1035  133.9731  157.3038 LP  0  0  0  0  0  0  0  0  0  0  0  0  # atno 17394 bound_to 11000
  139.9346  135.0197  156.8513 LP  0  0  0  0  0  0  0  0  0  0  0  0  # atno 17395 bound_to 11000

$$$$
