AV-unprocessed.smi:3207|AV-procd|sdf|12259|dock5
  -GOLD-   2272018 93D 1   1.00000     0.00000
 Structure written by MMmdl.
 32 33  0  0  0  0  0  0  0  0  1 V2000
  156.6532  139.4921  161.4781 C   0  0  0  0  0  0  0  0  0  0  0  0
  155.4361  138.9230  160.7344 C   0  0  1  0  0  0  0  0  0  0  0  0
  154.6628  138.1862  161.6779 O   0  0  0  0  0  0  0  0  0  0  0  0
  155.2968  137.0333  162.2181 C   0  0  0  0  0  0  0  0  0  0  0  0
  154.3475  136.3673  163.1902 C   0  0  0  0  0  0  0  0  0  0  0  0
  154.1677  136.9239  164.5844 C   0  0  0  0  0  0  0  0  0  0  0  0
  154.8776  135.6088  164.3858 C   0  0  0  0  0  0  0  0  0  0  0  0
  154.5897  140.0432  160.1076 C   0  0  0  0  0  0  0  0  0  0  0  0
  154.3932  140.0491  158.8927 O   0  0  0  0  0  0  0  0  0  0  0  0
  154.1441  140.9812  160.9642 N   0  0  0  0  0  0  0  0  0  0  0  0
  153.3578  142.1366  160.7051 C   0  0  0  0  0  0  0  0  0  0  0  0
  152.9626  142.9154  161.8124 C   0  0  0  0  0  0  0  0  0  0  0  0
  152.1702  144.0594  161.5915 C   0  0  0  0  0  0  0  0  0  0  0  0
  151.7582  144.4507  160.3676 N   0  0  0  0  0  0  0  0  0  0  0  0
  152.1269  143.6981  159.3095 C   0  0  0  0  0  0  0  0  0  0  0  0
  152.9173  142.5365  159.4200 C   0  0  0  0  0  0  0  0  0  0  0  0
  157.2860  140.0784  160.8110 H   0  0  0  0  0  0  0  0  0  0  0  0
  157.2645  138.6884  161.8890 H   0  0  0  0  0  0  0  0  0  0  0  0
  156.3538  140.1339  162.3077 H   0  0  0  0  0  0  0  0  0  0  0  0
  155.7961  138.2469  159.9561 H   0  0  0  0  0  0  0  0  0  0  0  0
  155.5730  136.3229  161.4380 H   0  0  0  0  0  0  0  0  0  0  0  0
  156.2055  137.3162  162.7508 H   0  0  0  0  0  0  0  0  0  0  0  0
  153.4511  135.9636  162.7236 H   0  0  0  0  0  0  0  0  0  0  0  0
  154.7729  137.7820  164.8705 H   0  0  0  0  0  0  0  0  0  0  0  0
  153.1671  136.8957  165.0109 H   0  0  0  0  0  0  0  0  0  0  0  0
  154.3511  134.7025  164.6779 H   0  0  0  0  0  0  0  0  0  0  0  0
  155.9554  135.5906  164.5370 H   0  0  0  0  0  0  0  0  0  0  0  0
  154.4498  140.8768  161.9207 H   0  0  0  0  0  0  0  0  0  0  0  0
  153.2619  142.6477  162.8153 H   0  0  0  0  0  0  0  0  0  0  0  0
  151.8575  144.6750  162.4217 H   0  0  0  0  0  0  0  0  0  0  0  0
  151.7756  144.0282  158.3432 H   0  0  0  0  0  0  0  0  0  0  0  0
  153.1532  141.9798  158.5268 H   0  0  0  0  0  0  0  0  0  0  0  0
  1  2  1  0  0  0  0
  1 17  1  0  0  0  0
  1 18  1  0  0  0  0
  1 19  1  0  0  0  0
  2  3  1  0  0  0  0
  2  8  1  0  0  0  0
  2 20  1  0  0  0  0
  3  4  1  0  0  0  0
  4  5  1  0  0  0  0
  4 21  1  0  0  0  0
  4 22  1  0  0  0  0
  5  7  1  0  0  0  0
  5  6  1  0  0  0  0
  5 23  1  0  0  0  0
  6  7  1  0  0  0  0
  6 24  1  0  0  0  0
  6 25  1  0  0  0  0
  7 26  1  0  0  0  0
  7 27  1  0  0  0  0
  8  9  2  0  0  0  0
  8 10  1  0  0  0  0
 10 11  1  0  0  0  0
 10 28  1  0  0  0  0
 11 16  1  0  0  0  0
 11 12  2  0  0  0  0
 12 13  1  0  0  0  0
 12 29  1  0  0  0  0
 13 14  2  0  0  0  0
 13 30  1  0  0  0  0
 14 15  1  0  0  0  0
 15 16  2  0  0  0  0
 15 31  1  0  0  0  0
 16 32  1  0  0  0  0
M  END
> <s_m_source_file>
AV-unprocessed.smi

> <i_m_source_file_index>
3207

> <i_lp_mmshare_version>
43012

> <i_f3d_flags>
0

> <s_epik_input>
W0NIMl0xW0NIMl1bQ0hdMVtDSDJdT1tDQEBIXShbQ0gzXSlDKD1PKVtOSF1jMltjSF1bY0hdbltjSF1bY0hdMg==

> <s_epik_cmdline>
J2VwaWtfcHl0aG9uJywgJy1waCcsICc3LjAnLCAnLXRuJywgJzgnLCAnLW1hJywgJzIwMCcsICctbWV0YWxfYmluZGluZycsICctaW1hZScsICc8aW5maWxlLm1hZT4nLCAnLW9tYWUnLCAnPG91dGZpbGUubWFlPic=

> <r_epik_Ionization_Penalty>
0.00446435

> <r_epik_Ionization_Penalty_Charging>
0

> <r_epik_Ionization_Penalty_Neutral>
0.00446435

> <r_epik_State_Penalty>
0.00321941

> <r_epik_Charging_Adjusted_Penalty>
0.00321941

> <i_epik_Tot_Q>
0

> <i_epik_Tot_abs_Q>
0

> <r_epik_Metal_State_Penalty>
-0

> <b_epik_Metal_Only>
0

> <s_lp_Force_Field>
OPLS_2005

> <r_lp_Energy>
19.7696

> <b_lp_Chiralities_Consistent>
1

> <s_lp_Variant>
AV-unprocessed.smi:3207-2

> <Gold.Version>
5.8.1

> <Gold.Id.Protein>
6NUR|6NUR_protein|mol2

> <Gold.PLP.Fitness>
40.4082

> <Gold.PLP.PLP>
-37.5345

> <Gold.PLP.part.hbond>
-1.0000

> <Gold.PLP.part.metal>
0.0000

> <Gold.PLP.part.buried>
-3.6034

> <Gold.PLP.part.nonpolar>
-32.2310

> <Gold.PLP.part.repulsive>
0.1091

> <Gold.PLP.ligand.clash>
0.0000

> <Gold.PLP.ligand.torsion>
0.3053

> <Gold.PLP.Chemscore.Hbond>
0.9760

> <Gold.PLP.Chemscore.CHOScore>
0.0000

> <Gold.PLP.Chemscore.Metal>
0.0000

> <Gold.Chemscore.Hbonds>
donor molecule, donor type, donor heavy atom, donor atom, acceptor molecule, acceptor atom, score
      P1  H  7997  8009       L1     9  0.96

> <Gold.PLP.Chemscore.Internal.Correction>
0.5564

> <Gold.Rescore>
     Score         DG    S(hbond)    S(metal)    S(lipo)     H(rot)  DE(clash)    DE(int)     intcor
     15.49     -17.09       0.98        0.00     103.60       1.48       0.12       1.48       ----

> <Gold.Chemscore.Fitness>
15.4884

> <Gold.Chemscore.DG>
-17.0860

> <Gold.Chemscore.ZeroCoef>
-5.4800

> <Gold.Chemscore.Hbond>
0.9807

> <Gold.Chemscore.Metal>
0.0000

> <Gold.Chemscore.Lipo>
103.5978

> <Gold.Chemscore.Internal_Hbond>
0.0000

> <Gold.Chemscore.DEClash>
0.1206

> <Gold.Chemscore.DEInternal>
1.4769

> <Gold.Chemscore.Rot>
1.4807

> <Gold.Chemscore.Internal.Correction>
   9.000000E+99

> <Gold.Chemscore.Hbonds>
donor molecule, donor type, donor heavy atom, donor atom, acceptor molecule, acceptor atom, score
      P1  H  7997  8009       L1     9  0.92

> <Gold.Chemscore.Hbond.Weighted>
-3.2755

> <Gold.Chemscore.Metal.Weighted>
-0.0000

> <Gold.Chemscore.Lipo.Weighted>
-12.1209

> <Gold.Chemscore.Internal_Hbond.Weighted>
0.0000

> <Gold.Chemscore.DEClash.Weighted>
0.1206

> <Gold.Chemscore.DEInternal.Weighted>
1.4769

> <Gold.Chemscore.Rot.Weighted>
3.7905

> <Gold.Chemscore.Internal.Correction.Weighted>
   9.000000E+99

> <Gold.Protein.RotatedTorsions>
[ 6907 6896 6895 6894 ] final -165.59 input  -60.11 | X-H torsion
[ 7974 7965 7964 7962 ] final  -91.31 input  175.53 | X-H torsion
[ 8008 7997 7996 7995 ] final  118.50 input   59.86 | X-H torsion
[ 10167 10162 10161 10158 ] final -107.53 input  -65.29 | X-H torsion
[ 10718 10713 10712 10709 ] final -150.27 input   66.30 | X-H torsion
[ 10763 10752 10751 10750 ] final  174.20 input  -60.55 | X-H torsion
[ 11005 11000 10999 10996 ] final  -97.13 input  -57.11 | X-H torsion

> <Gold.Protein.ActiveResidues>
 VAL166  LYS551  ARG553  GLY616  TRP617  ASP618  TYR619  PRO620  LYS621  CYS622 
 ASP623  PHE694  ASN695  SER759  ASP760  ASP761  ALA762  ILE779  LEU786  VAL792 
 PHE793  MET794  SER795  GLU796  ALA797  LYS798  CYS799  TRP800  GLU811  SER814 

> <Gold.Protein.RotatedAtoms>
  151.4302  133.3672  159.2767 H   0  0  0  0  0  0  0  0  0  0  0  0  # atno 6907 bound_to 6896
  150.9231  134.8649  159.7512 H   0  0  0  0  0  0  0  0  0  0  0  0  # atno 6908 bound_to 6896
  152.4991  134.4241  159.9542 H   0  0  0  0  0  0  0  0  0  0  0  0  # atno 6909 bound_to 6896
  145.4149  140.9547  143.2213 H   0  0  0  0  0  0  0  0  0  0  0  0  # atno 7974 bound_to 7965
  156.2549  140.2873  156.0844 H   0  0  0  0  0  0  0  0  0  0  0  0  # atno 8008 bound_to 7997
  155.1531  140.0398  157.2843 H   0  0  0  0  0  0  0  0  0  0  0  0  # atno 8009 bound_to 7997
  154.6446  140.2530  155.7289 H   0  0  0  0  0  0  0  0  0  0  0  0  # atno 8010 bound_to 7997
  140.1760  143.4004  152.1318 H   0  0  0  0  0  0  0  0  0  0  0  0  # atno 10167 bound_to 10162
  156.4440  130.8135  151.2365 H   0  0  0  0  0  0  0  0  0  0  0  0  # atno 10718 bound_to 10713
  154.4507  135.2764  155.1783 H   0  0  0  0  0  0  0  0  0  0  0  0  # atno 10763 bound_to 10752
  154.3612  135.6129  153.5695 H   0  0  0  0  0  0  0  0  0  0  0  0  # atno 10764 bound_to 10752
  152.9847  135.5835  154.4850 H   0  0  0  0  0  0  0  0  0  0  0  0  # atno 10765 bound_to 10752
  141.1389  133.8148  157.0665 H   0  0  0  0  0  0  0  0  0  0  0  0  # atno 11005 bound_to 11000
  144.8284  139.5670  143.6955 LP  0  0  0  0  0  0  0  0  0  0  0  0  # atno 17320 bound_to 7965
  146.2686  139.6580  142.9312 LP  0  0  0  0  0  0  0  0  0  0  0  0  # atno 17321 bound_to 7965
  139.5317  144.7166  151.5034 LP  0  0  0  0  0  0  0  0  0  0  0  0  # atno 17342 bound_to 10162
  140.6551  143.8616  150.6826 LP  0  0  0  0  0  0  0  0  0  0  0  0  # atno 17343 bound_to 10162
  157.7505  131.0159  150.3524 LP  0  0  0  0  0  0  0  0  0  0  0  0  # atno 17370 bound_to 10713
  156.3887  130.3894  149.7046 LP  0  0  0  0  0  0  0  0  0  0  0  0  # atno 17371 bound_to 10713
  140.0538  134.9791  157.1184 LP  0  0  0  0  0  0  0  0  0  0  0  0  # atno 17394 bound_to 11000
  140.3950  134.2144  155.7165 LP  0  0  0  0  0  0  0  0  0  0  0  0  # atno 17395 bound_to 11000

$$$$
