AV-unprocessed.smi:1163|AV-procd|sdf|4925|dock9
  -GOLD-   22720 3503D 1   1.00000     0.00000
 Structure written by MMmdl.
 40 41  0  0  0  0  0  0  0  0  2 V2000
  152.5289  142.4381  159.9486 C   0  0  0  0  0  0  0  0  0  0  0  0
  152.8143  141.2886  159.1591 O   0  0  0  0  0  0  0  0  0  0  0  0
  152.0327  141.0463  158.0481 C   0  0  0  0  0  0  0  0  0  0  0  0
  150.8118  141.7373  157.9186 C   0  0  0  0  0  0  0  0  0  0  0  0
  150.0055  141.4929  156.7904 C   0  0  0  0  0  0  0  0  0  0  0  0
  150.4505  140.5643  155.8183 C   0  0  0  0  0  0  0  0  0  0  0  0
  149.7333  140.2101  154.6419 N   0  0  0  0  0  0  0  0  0  0  0  0
  148.4150  140.0046  154.4775 C   0  0  0  0  0  0  0  0  0  0  0  0
  147.5544  140.1262  155.3484 O   0  0  0  0  0  0  0  0  0  0  0  0
  148.1349  139.6473  153.2162 N   0  0  0  0  0  0  0  0  0  0  0  0
  146.7980  139.3452  152.7149 C   0  0  1  0  0  0  0  0  0  0  0  0
  146.7971  138.6629  151.3476 C   0  0  0  0  0  0  0  0  0  0  0  0
  145.5189  137.8061  151.3442 C   0  0  0  0  0  0  0  0  0  0  0  0
  144.9717  137.8399  152.7225 N   0  3  1  0  0  0  0  0  0  0  0  0
  144.3473  136.5802  153.1941 C   0  0  0  0  0  0  0  0  0  0  0  0
  142.9194  136.7883  153.7277 C   0  0  0  0  0  0  0  0  0  0  0  0
  142.3238  135.6029  153.8481 F   0  0  0  0  0  0  0  0  0  0  0  0
  142.9589  137.3713  154.9256 F   0  0  0  0  0  0  0  0  0  0  0  0
  142.1991  137.5401  152.8963 F   0  0  0  0  0  0  0  0  0  0  0  0
  146.0547  138.3358  153.5894 C   0  0  0  0  0  0  0  0  0  0  0  0
  151.6858  139.9226  156.0461 C   0  0  0  0  0  0  0  0  0  0  0  0
  152.4630  140.1514  157.1253 N   0  0  0  0  0  0  0  0  0  0  0  0
  153.2321  142.4884  160.7799 H   0  0  0  0  0  0  0  0  0  0  0  0
  151.5229  142.3948  160.3683 H   0  0  0  0  0  0  0  0  0  0  0  0
  152.6361  143.3561  159.3691 H   0  0  0  0  0  0  0  0  0  0  0  0
  150.4957  142.4401  158.6752 H   0  0  0  0  0  0  0  0  0  0  0  0
  149.0661  142.0152  156.7085 H   0  0  0  0  0  0  0  0  0  0  0  0
  150.2992  140.1194  153.8106 H   0  0  0  0  0  0  0  0  0  0  0  0
  148.8984  139.5787  152.5589 H   0  0  0  0  0  0  0  0  0  0  0  0
  146.2133  140.2651  152.6485 H   0  0  0  0  0  0  0  0  0  0  0  0
  146.8205  139.3810  150.5273 H   0  0  0  0  0  0  0  0  0  0  0  0
  147.6685  138.0144  151.2443 H   0  0  0  0  0  0  0  0  0  0  0  0
  144.7755  138.2025  150.6518 H   0  0  0  0  0  0  0  0  0  0  0  0
  145.7552  136.7878  151.0309 H   0  0  0  0  0  0  0  0  0  0  0  0
  144.3593  135.8324  152.3997 H   0  0  0  0  0  0  0  0  0  0  0  0
  144.9608  136.1809  154.0034 H   0  0  0  0  0  0  0  0  0  0  0  0
  146.7140  137.5104  153.8662 H   0  0  0  0  0  0  0  0  0  0  0  0
  145.6615  138.7804  154.5043 H   0  0  0  0  0  0  0  0  0  0  0  0
  152.0656  139.1995  155.3387 H   0  0  0  0  0  0  0  0  0  0  0  0
  144.2575  138.5546  152.7346 H   0  0  0  0  0  0  0  0  0  0  0  0
  1  2  1  0  0  0  0
  1 23  1  0  0  0  0
  1 24  1  0  0  0  0
  1 25  1  0  0  0  0
  2  3  1  0  0  0  0
  3 22  1  0  0  0  0
  3  4  2  0  0  0  0
  4  5  1  0  0  0  0
  4 26  1  0  0  0  0
  5  6  2  0  0  0  0
  5 27  1  0  0  0  0
  6  7  1  0  0  0  0
  6 21  1  0  0  0  0
  7  8  1  0  0  0  0
  7 28  1  0  0  0  0
  8  9  2  0  0  0  0
  8 10  1  0  0  0  0
 10 11  1  0  0  0  0
 10 29  1  0  0  0  0
 11 20  1  0  0  0  0
 11 12  1  0  0  0  0
 11 30  1  0  0  0  0
 12 13  1  0  0  0  0
 12 31  1  0  0  0  0
 12 32  1  0  0  0  0
 13 14  1  0  0  0  0
 13 33  1  0  0  0  0
 13 34  1  0  0  0  0
 14 15  1  0  0  0  0
 14 20  1  0  0  0  0
 14 40  1  0  0  0  0
 15 16  1  0  0  0  0
 15 35  1  0  0  0  0
 15 36  1  0  0  0  0
 16 17  1  0  0  0  0
 16 18  1  0  0  0  0
 16 19  1  0  0  0  0
 20 37  1  0  0  0  0
 20 38  1  0  0  0  0
 21 22  2  0  0  0  0
 21 39  1  0  0  0  0
M  CHG  1  14   1
M  END
> <s_m_source_file>
AV-unprocessed.smi

> <i_m_source_file_index>
1163

> <i_lp_mmshare_version>
43012

> <i_f3d_flags>
0

> <s_epik_input>
W0NIM11PYzFbY0hdW2NIXWMoW2NIXW4xKVtOSF1DKD1PKVtOSF1bQ0BASF0yW0NIMl1bQ0gyXU4oW0NIMl0yKVtDSDJdQyhGKShGKUY=

> <s_epik_cmdline>
J2VwaWtfcHl0aG9uJywgJy1waCcsICc3LjAnLCAnLXRuJywgJzgnLCAnLW1hJywgJzIwMCcsICctbWV0YWxfYmluZGluZycsICctaW1hZScsICc8aW5maWxlLm1hZT4nLCAnLW9tYWUnLCAnPG91dGZpbGUubWFlPic=

> <r_lp_tautomer_probability>
1

> <r_epik_Ionization_Penalty>
1.12054

> <r_epik_Ionization_Penalty_Charging>
1.12047

> <r_epik_Ionization_Penalty_Neutral>
7.20346e-05

> <r_epik_State_Penalty>
1.17927

> <r_epik_Charging_Adjusted_Penalty>
2.29974

> <i_epik_Tot_Q>
1

> <i_epik_Tot_abs_Q>
1

> <r_epik_Metal_State_Penalty>
1.17928

> <b_epik_Metal_Only>
0

> <s_lp_Force_Field>
OPLS_2005

> <r_lp_Energy>
29.7576

> <b_lp_Chiralities_Consistent>
1

> <s_lp_Variant>
AV-unprocessed.smi:1163-6

> <Gold.Version>
5.8.1

> <Gold.Id.Protein>
6NUR|6NUR_protein|mol2

> <Gold.PLP.Fitness>
42.6861

> <Gold.PLP.PLP>
-33.1747

> <Gold.PLP.part.hbond>
-3.3726

> <Gold.PLP.part.metal>
0.0000

> <Gold.PLP.part.buried>
3.2428

> <Gold.PLP.part.nonpolar>
-32.9845

> <Gold.PLP.part.repulsive>
0.2732

> <Gold.PLP.ligand.clash>
0.0126

> <Gold.PLP.ligand.torsion>
1.4698

> <Gold.PLP.Chemscore.Hbond>
4.0000

> <Gold.PLP.Chemscore.CHOScore>
0.0000

> <Gold.PLP.Chemscore.Metal>
0.0000

> <Gold.Chemscore.Hbonds>
donor molecule, donor type, donor heavy atom, donor atom, acceptor molecule, acceptor atom, score
      L1  H    10    29       P1  7957  0.99
      L1  H    14    40       P1 10175  2.00
      P1  H  7997  8010       L1    22  1.00

> <Gold.PLP.Chemscore.Internal.Correction>
0.4636

> <Gold.Rescore>
     Score         DG    S(hbond)    S(metal)    S(lipo)     H(rot)  DE(clash)    DE(int)     intcor
     14.29     -18.88       2.78        0.00      71.86       1.68       1.94       2.65       ----

> <Gold.Chemscore.Fitness>
14.2871

> <Gold.Chemscore.DG>
-18.8760

> <Gold.Chemscore.ZeroCoef>
-5.4800

> <Gold.Chemscore.Hbond>
2.7795

> <Gold.Chemscore.Metal>
0.0000

> <Gold.Chemscore.Lipo>
71.8599

> <Gold.Chemscore.Internal_Hbond>
0.0000

> <Gold.Chemscore.DEClash>
1.9412

> <Gold.Chemscore.DEInternal>
2.6477

> <Gold.Chemscore.Rot>
1.6778

> <Gold.Chemscore.Internal.Correction>
   9.000000E+99

> <Gold.Chemscore.Hbonds>
donor molecule, donor type, donor heavy atom, donor atom, acceptor molecule, acceptor atom, score
      L1  H    10    29       P1  7957  0.94
      L1  H    14    40       P1 10175  0.92
      P1  H  7997  8010       L1    22  0.75

> <Gold.Chemscore.Hbond.Weighted>
-9.2835

> <Gold.Chemscore.Metal.Weighted>
-0.0000

> <Gold.Chemscore.Lipo.Weighted>
-8.4076

> <Gold.Chemscore.Internal_Hbond.Weighted>
0.0000

> <Gold.Chemscore.DEClash.Weighted>
1.9412

> <Gold.Chemscore.DEInternal.Weighted>
2.6477

> <Gold.Chemscore.Rot.Weighted>
4.2951

> <Gold.Chemscore.Internal.Correction.Weighted>
   9.000000E+99

> <Gold.Protein.RotatedTorsions>
[ 6907 6896 6895 6894 ] final  -91.63 input  -60.11 | X-H torsion
[ 7974 7965 7964 7962 ] final -151.97 input  175.53 | X-H torsion
[ 8008 7997 7996 7995 ] final   58.29 input   59.86 | X-H torsion
[ 10167 10162 10161 10158 ] final  -87.00 input  -65.29 | X-H torsion
[ 10718 10713 10712 10709 ] final  -99.22 input   66.30 | X-H torsion
[ 10763 10752 10751 10750 ] final  -67.07 input  -60.55 | X-H torsion
[ 11005 11000 10999 10996 ] final  131.23 input  -57.11 | X-H torsion

> <Gold.Protein.ActiveResidues>
 VAL166  LYS551  ARG553  GLY616  TRP617  ASP618  TYR619  PRO620  LYS621  CYS622 
 ASP623  PHE694  ASN695  SER759  ASP760  ASP761  ALA762  ILE779  LEU786  VAL792 
 PHE793  MET794  SER795  GLU796  ALA797  LYS798  CYS799  TRP800  GLU811  SER814 

> <Gold.Protein.RotatedAtoms>
  150.6895  134.2248  159.4410 H   0  0  0  0  0  0  0  0  0  0  0  0  # atno 6907 bound_to 6896
  152.0202  134.9824  160.0579 H   0  0  0  0  0  0  0  0  0  0  0  0  # atno 6908 bound_to 6896
  152.1404  133.4426  159.4801 H   0  0  0  0  0  0  0  0  0  0  0  0  # atno 6909 bound_to 6896
  144.7820  140.4725  143.5833 H   0  0  0  0  0  0  0  0  0  0  0  0  # atno 7974 bound_to 7965
  155.5477  140.3485  155.4461 H   0  0  0  0  0  0  0  0  0  0  0  0  # atno 8008 bound_to 7997
  156.0606  140.1339  156.9972 H   0  0  0  0  0  0  0  0  0  0  0  0  # atno 8009 bound_to 7997
  154.4478  140.0986  156.6496 H   0  0  0  0  0  0  0  0  0  0  0  0  # atno 8010 bound_to 7997
  140.3887  143.2715  151.9292 H   0  0  0  0  0  0  0  0  0  0  0  0  # atno 10167 bound_to 10162
  156.0128  130.5273  150.6639 H   0  0  0  0  0  0  0  0  0  0  0  0  # atno 10718 bound_to 10713
  154.3692  135.6099  153.5731 H   0  0  0  0  0  0  0  0  0  0  0  0  # atno 10763 bound_to 10752
  152.9791  135.5834  154.4542 H   0  0  0  0  0  0  0  0  0  0  0  0  # atno 10764 bound_to 10752
  154.4293  135.2847  155.1901 H   0  0  0  0  0  0  0  0  0  0  0  0  # atno 10765 bound_to 10752
  139.9718  134.9575  156.9409 H   0  0  0  0  0  0  0  0  0  0  0  0  # atno 11005 bound_to 11000
  145.6024  139.1505  143.3121 LP  0  0  0  0  0  0  0  0  0  0  0  0  # atno 17320 bound_to 7965
  146.2033  140.6145  142.9092 LP  0  0  0  0  0  0  0  0  0  0  0  0  # atno 17321 bound_to 7965
  139.4790  144.5748  151.8029 LP  0  0  0  0  0  0  0  0  0  0  0  0  # atno 17342 bound_to 10162
  140.4862  144.1377  150.5941 LP  0  0  0  0  0  0  0  0  0  0  0  0  # atno 17343 bound_to 10162
  157.4375  131.0857  151.0977 LP  0  0  0  0  0  0  0  0  0  0  0  0  # atno 17370 bound_to 10713
  157.1531  130.6193  149.5588 LP  0  0  0  0  0  0  0  0  0  0  0  0  # atno 17371 bound_to 10713
  140.5277  134.0844  155.7308 LP  0  0  0  0  0  0  0  0  0  0  0  0  # atno 17394 bound_to 11000
  141.1397  133.9159  157.2353 LP  0  0  0  0  0  0  0  0  0  0  0  0  # atno 17395 bound_to 11000

$$$$
