AV-unprocessed.smi:2356|AV-procd|sdf|9397|dock2
  -GOLD-   2272013 33D 1   1.00000     0.00000
 Structure written by MMmdl.
 54 57  0  0  0  0  0  0  0  0  2 V2000
  148.7685  140.8218  154.3362 C   0  0  0  0  0  0  0  0  0  0  0  0
  149.8099  140.8125  155.4412 C   0  0  0  0  0  0  0  0  0  0  0  0
  150.0543  141.9801  156.0763 N   0  3  0  0  0  0  0  0  0  0  0  0
  150.9475  142.1226  157.0848 C   0  0  0  0  0  0  0  0  0  0  0  0
  151.1114  143.3953  157.6689 N   0  0  0  0  0  0  0  0  0  0  0  0
  150.1146  143.8753  158.6117 C   0  0  0  0  0  0  0  0  0  0  0  0
  150.7024  145.1523  159.2179 C   0  0  0  0  0  0  0  0  0  0  0  0
  152.2072  145.0931  158.9219 C   0  0  0  0  0  0  0  0  0  0  0  0
  152.4240  143.7876  158.1512 C   0  0  0  0  0  0  0  0  0  0  0  0
  151.6776  140.9846  157.5002 C   0  0  0  0  0  0  0  0  0  0  0  0
  151.4600  139.7432  156.8696 C   0  0  0  0  0  0  0  0  0  0  0  0
  150.5191  139.6467  155.8149 C   0  0  0  0  0  0  0  0  0  0  0  0
  150.2194  138.4325  155.1383 N   0  0  0  0  0  0  0  0  0  0  0  0
  150.4989  137.1644  155.4968 C   0  0  0  0  0  0  0  0  0  0  0  0
  151.1028  136.8418  156.5173 O   0  0  0  0  0  0  0  0  0  0  0  0
  150.0731  136.2404  154.6163 N   0  0  0  0  0  0  0  0  0  0  0  0
  150.2101  134.7838  154.6944 C   0  0  2  0  0  0  0  0  0  0  0  0
  149.1233  134.1132  153.8441 C   0  0  0  0  0  0  0  0  0  0  0  0
  149.1798  132.5859  154.0003 C   0  0  0  0  0  0  0  0  0  0  0  0
  149.0547  132.2212  155.3732 O   0  0  0  0  0  0  0  0  0  0  0  0
  150.0542  132.7580  156.2414 C   0  0  1  0  0  0  0  0  0  0  0  0
  151.4153  132.1163  156.0067 C   0  0  0  0  0  0  0  0  0  0  0  0
  151.6295  130.6478  156.2878 C   0  0  0  0  0  0  0  0  0  0  0  0
  152.2790  131.6875  157.1696 C   0  0  0  0  0  0  0  0  0  0  0  0
  150.0809  134.2961  156.1495 C   0  0  0  0  0  0  0  0  0  0  0  0
  147.9730  140.1089  154.5555 H   0  0  0  0  0  0  0  0  0  0  0  0
  149.2229  140.5474  153.3839 H   0  0  0  0  0  0  0  0  0  0  0  0
  148.3158  141.8074  154.2228 H   0  0  0  0  0  0  0  0  0  0  0  0
  149.1609  144.0714  158.1206 H   0  0  0  0  0  0  0  0  0  0  0  0
  149.9535  143.1241  159.3864 H   0  0  0  0  0  0  0  0  0  0  0  0
  150.2654  146.0319  158.7436 H   0  0  0  0  0  0  0  0  0  0  0  0
  150.4955  145.2180  160.2866 H   0  0  0  0  0  0  0  0  0  0  0  0
  152.4975  145.9470  158.3087 H   0  0  0  0  0  0  0  0  0  0  0  0
  152.8071  145.1223  159.8319 H   0  0  0  0  0  0  0  0  0  0  0  0
  152.8170  143.0130  158.8116 H   0  0  0  0  0  0  0  0  0  0  0  0
  153.1273  143.9296  157.3301 H   0  0  0  0  0  0  0  0  0  0  0  0
  152.4021  141.0438  158.2986 H   0  0  0  0  0  0  0  0  0  0  0  0
  152.0130  138.8867  157.2220 H   0  0  0  0  0  0  0  0  0  0  0  0
  149.7873  138.5417  154.2325 H   0  0  0  0  0  0  0  0  0  0  0  0
  149.5982  136.5895  153.7961 H   0  0  0  0  0  0  0  0  0  0  0  0
  151.1791  134.4875  154.2897 H   0  0  0  0  0  0  0  0  0  0  0  0
  148.1378  134.4683  154.1492 H   0  0  0  0  0  0  0  0  0  0  0  0
  149.2421  134.3836  152.7942 H   0  0  0  0  0  0  0  0  0  0  0  0
  148.3619  132.1264  153.4454 H   0  0  0  0  0  0  0  0  0  0  0  0
  150.1015  132.1855  153.5779 H   0  0  0  0  0  0  0  0  0  0  0  0
  149.7459  132.4934  157.2537 H   0  0  0  0  0  0  0  0  0  0  0  0
  151.9569  132.5107  155.1499 H   0  0  0  0  0  0  0  0  0  0  0  0
  150.7971  130.0845  156.7050 H   0  0  0  0  0  0  0  0  0  0  0  0
  152.2700  130.0948  155.6038 H   0  0  0  0  0  0  0  0  0  0  0  0
  153.3541  131.8260  157.0746 H   0  0  0  0  0  0  0  0  0  0  0  0
  151.8795  131.8155  158.1737 H   0  0  0  0  0  0  0  0  0  0  0  0
  150.8882  134.6916  156.7666 H   0  0  0  0  0  0  0  0  0  0  0  0
  149.1552  134.6860  156.5750 H   0  0  0  0  0  0  0  0  0  0  0  0
  149.5312  142.8040  155.7797 H   0  0  0  0  0  0  0  0  0  0  0  0
  1  2  1  0  0  0  0
  1 26  1  0  0  0  0
  1 27  1  0  0  0  0
  1 28  1  0  0  0  0
  2 12  1  0  0  0  0
  2  3  2  0  0  0  0
  3  4  1  0  0  0  0
  3 54  1  0  0  0  0
  4  5  1  0  0  0  0
  4 10  2  0  0  0  0
  5  9  1  0  0  0  0
  5  6  1  0  0  0  0
  6  7  1  0  0  0  0
  6 29  1  0  0  0  0
  6 30  1  0  0  0  0
  7  8  1  0  0  0  0
  7 31  1  0  0  0  0
  7 32  1  0  0  0  0
  8  9  1  0  0  0  0
  8 33  1  0  0  0  0
  8 34  1  0  0  0  0
  9 35  1  0  0  0  0
  9 36  1  0  0  0  0
 10 11  1  0  0  0  0
 10 37  1  0  0  0  0
 11 12  2  0  0  0  0
 11 38  1  0  0  0  0
 12 13  1  0  0  0  0
 13 14  1  0  0  0  0
 13 39  1  0  0  0  0
 14 15  2  0  0  0  0
 14 16  1  0  0  0  0
 16 17  1  0  0  0  0
 16 40  1  0  0  0  0
 17 25  1  0  0  0  0
 17 18  1  0  0  0  0
 17 41  1  0  0  0  0
 18 19  1  0  0  0  0
 18 42  1  0  0  0  0
 18 43  1  0  0  0  0
 19 20  1  0  0  0  0
 19 44  1  0  0  0  0
 19 45  1  0  0  0  0
 20 21  1  0  0  0  0
 21 22  1  0  0  0  0
 21 25  1  0  0  0  0
 21 46  1  0  0  0  0
 22 24  1  0  0  0  0
 22 23  1  0  0  0  0
 22 47  1  0  0  0  0
 23 24  1  0  0  0  0
 23 48  1  0  0  0  0
 23 49  1  0  0  0  0
 24 50  1  0  0  0  0
 24 51  1  0  0  0  0
 25 52  1  0  0  0  0
 25 53  1  0  0  0  0
M  CHG  1   3   1
M  END
> <s_m_source_file>
AV-unprocessed.smi

> <i_m_source_file_index>
2356

> <i_lp_mmshare_version>
43012

> <i_f3d_flags>
0

> <s_epik_input>
W0NIMl0xW0NIMl1bQ0gyXVtDSDJdTjFjKG5jMltDSDNdKVtjSF1bY0hdYzJbTkhdQyg9TylbTkhdW0NAQEhdM1tDSDJdW0NIMl1PW0NASF0oW0NIMl0zKVtDSF00W0NIMl1bQ0gyXTQ=

> <s_epik_cmdline>
J2VwaWtfcHl0aG9uJywgJy1waCcsICc3LjAnLCAnLXRuJywgJzgnLCAnLW1hJywgJzIwMCcsICctbWV0YWxfYmluZGluZycsICctaW1hZScsICc8aW5maWxlLm1hZT4nLCAnLW9tYWUnLCAnPG91dGZpbGUubWFlPic=

> <r_lp_tautomer_probability>
0.999994

> <r_epik_Ionization_Penalty>
0.534681

> <r_epik_Ionization_Penalty_Charging>
0.534661

> <r_epik_Ionization_Penalty_Neutral>
1.99132e-05

> <r_epik_State_Penalty>
0.543738

> <r_epik_Charging_Adjusted_Penalty>
1.0784

> <i_epik_Tot_Q>
1

> <i_epik_Tot_abs_Q>
1

> <r_epik_Metal_State_Penalty>
0.74699

> <b_epik_Metal_Only>
0

> <s_lp_Force_Field>
OPLS_2005

> <r_lp_Energy>
60.0457

> <b_lp_Chiralities_Consistent>
1

> <s_lp_Variant>
AV-unprocessed.smi:2356-5

> <Gold.Version>
5.8.1

> <Gold.Id.Protein>
6NUR|6NUR_protein|mol2

> <Gold.PLP.Fitness>
50.2068

> <Gold.PLP.PLP>
-43.2684

> <Gold.PLP.part.hbond>
-2.1099

> <Gold.PLP.part.metal>
0.0000

> <Gold.PLP.part.buried>
-5.0142

> <Gold.PLP.part.nonpolar>
-37.1182

> <Gold.PLP.part.repulsive>
0.3388

> <Gold.PLP.ligand.clash>
0.0000

> <Gold.PLP.ligand.torsion>
1.6056

> <Gold.PLP.Chemscore.Hbond>
2.9357

> <Gold.PLP.Chemscore.CHOScore>
0.0000

> <Gold.PLP.Chemscore.Metal>
0.0000

> <Gold.Chemscore.Hbonds>
donor molecule, donor type, donor heavy atom, donor atom, acceptor molecule, acceptor atom, score
      L1  H     3    54       P1  8028  2.00
      L1  H    16    40       P1  7948  0.92

> <Gold.PLP.Chemscore.Internal.Correction>
1.3423

> <Gold.Rescore>
     Score         DG    S(hbond)    S(metal)    S(lipo)     H(rot)  DE(clash)    DE(int)     intcor
     16.48     -21.12       1.64        0.00     115.55       1.31       0.46       4.18       ----

> <Gold.Chemscore.Fitness>
16.4819

> <Gold.Chemscore.DG>
-21.1230

> <Gold.Chemscore.ZeroCoef>
-5.4800

> <Gold.Chemscore.Hbond>
1.6367

> <Gold.Chemscore.Metal>
0.0000

> <Gold.Chemscore.Lipo>
115.5524

> <Gold.Chemscore.Internal_Hbond>
0.0000

> <Gold.Chemscore.DEClash>
0.4632

> <Gold.Chemscore.DEInternal>
4.1779

> <Gold.Chemscore.Rot>
1.3060

> <Gold.Chemscore.Internal.Correction>
   9.000000E+99

> <Gold.Chemscore.Hbonds>
donor molecule, donor type, donor heavy atom, donor atom, acceptor molecule, acceptor atom, score
      L1  H     3    54       P1  8028  0.93
      L1  H    16    40       P1  7948  0.58

> <Gold.Chemscore.Hbond.Weighted>
-5.4667

> <Gold.Chemscore.Metal.Weighted>
-0.0000

> <Gold.Chemscore.Lipo.Weighted>
-13.5196

> <Gold.Chemscore.Internal_Hbond.Weighted>
0.0000

> <Gold.Chemscore.DEClash.Weighted>
0.4632

> <Gold.Chemscore.DEInternal.Weighted>
4.1779

> <Gold.Chemscore.Rot.Weighted>
3.3433

> <Gold.Chemscore.Internal.Correction.Weighted>
   9.000000E+99

> <Gold.Protein.RotatedTorsions>
[ 6907 6896 6895 6894 ] final  145.46 input  -60.11 | X-H torsion
[ 7974 7965 7964 7962 ] final  138.64 input  175.53 | X-H torsion
[ 8008 7997 7996 7995 ] final  -87.94 input   59.86 | X-H torsion
[ 10167 10162 10161 10158 ] final -173.77 input  -65.29 | X-H torsion
[ 10718 10713 10712 10709 ] final -160.50 input   66.30 | X-H torsion
[ 10763 10752 10751 10750 ] final   53.26 input  -60.55 | X-H torsion
[ 11005 11000 10999 10996 ] final  109.44 input  -57.11 | X-H torsion

> <Gold.Protein.ActiveResidues>
 VAL166  LYS551  ARG553  GLY616  TRP617  ASP618  TYR619  PRO620  LYS621  CYS622 
 ASP623  PHE694  ASN695  SER759  ASP760  ASP761  ALA762  ILE779  LEU786  VAL792 
 PHE793  MET794  SER795  GLU796  ALA797  LYS798  CYS799  TRP800  GLU811  SER814 

> <Gold.Protein.RotatedAtoms>
  152.1806  133.4704  159.4955 H   0  0  0  0  0  0  0  0  0  0  0  0  # atno 6907 bound_to 6896
  150.6934  134.1838  159.4268 H   0  0  0  0  0  0  0  0  0  0  0  0  # atno 6908 bound_to 6896
  151.9749  135.0058  160.0605 H   0  0  0  0  0  0  0  0  0  0  0  0  # atno 6909 bound_to 6896
  144.9353  139.4996  143.5598 H   0  0  0  0  0  0  0  0  0  0  0  0  # atno 7974 bound_to 7965
  154.6691  140.0559  157.0146 H   0  0  0  0  0  0  0  0  0  0  0  0  # atno 8008 bound_to 7997
  155.1115  140.3239  155.4501 H   0  0  0  0  0  0  0  0  0  0  0  0  # atno 8009 bound_to 7997
  156.2650  140.2013  156.6239 H   0  0  0  0  0  0  0  0  0  0  0  0  # atno 8010 bound_to 7997
  139.5670  144.1732  152.1327 H   0  0  0  0  0  0  0  0  0  0  0  0  # atno 10167 bound_to 10162
  156.5829  130.8737  151.2869 H   0  0  0  0  0  0  0  0  0  0  0  0  # atno 10718 bound_to 10713
  152.9794  135.5785  154.4712 H   0  0  0  0  0  0  0  0  0  0  0  0  # atno 10763 bound_to 10752
  154.4274  135.2773  155.1937 H   0  0  0  0  0  0  0  0  0  0  0  0  # atno 10764 bound_to 10752
  154.3660  135.6178  153.5769 H   0  0  0  0  0  0  0  0  0  0  0  0  # atno 10765 bound_to 10752
  139.8862  134.9458  156.6126 H   0  0  0  0  0  0  0  0  0  0  0  0  # atno 11005 bound_to 11000
  146.3264  139.8334  142.8904 LP  0  0  0  0  0  0  0  0  0  0  0  0  # atno 17320 bound_to 7965
  145.3076  141.0211  143.3573 LP  0  0  0  0  0  0  0  0  0  0  0  0  # atno 17321 bound_to 7965
  140.1257  144.5334  150.6834 LP  0  0  0  0  0  0  0  0  0  0  0  0  # atno 17342 bound_to 10162
  140.6954  143.2400  151.5016 LP  0  0  0  0  0  0  0  0  0  0  0  0  # atno 17343 bound_to 10162
  157.7322  130.9712  150.1917 LP  0  0  0  0  0  0  0  0  0  0  0  0  # atno 17370 bound_to 10713
  156.2615  130.3711  149.8125 LP  0  0  0  0  0  0  0  0  0  0  0  0  # atno 17371 bound_to 10713
  140.7800  133.8668  155.8560 LP  0  0  0  0  0  0  0  0  0  0  0  0  # atno 17394 bound_to 11000
  140.9768  134.1458  157.4529 LP  0  0  0  0  0  0  0  0  0  0  0  0  # atno 17395 bound_to 11000

$$$$
