AV-unprocessed.smi:1836|AV-procd|sdf|7478|dock1
  -GOLD-   22720 9173D 1   1.00000     0.00000
 Structure written by MMmdl.
 33 34  0  0  0  0  0  0  0  0  1 V2000
  151.9399  144.7631  158.4125 C   0  0  0  0  0  0  0  0  0  0  0  0
  151.9705  143.2620  158.0939 C   0  0  1  0  0  0  0  0  0  0  0  0
  151.5982  142.4238  159.3390 C   0  0  0  0  0  0  0  0  0  0  0  0
  152.7689  141.8607  160.0102 N   0  0  0  0  0  0  0  0  0  0  0  0
  153.2459  142.4181  161.2653 C   0  0  0  0  0  0  0  0  0  0  0  0
  154.2622  141.3941  161.7880 C   0  0  0  0  0  0  0  0  0  0  0  0
  154.6179  140.5171  160.5827 C   0  0  0  0  0  0  0  0  0  0  0  0
  153.5189  140.8372  159.5838 C   0  0  0  0  0  0  0  0  0  0  0  0
  153.3641  140.2108  158.5364 O   0  0  0  0  0  0  0  0  0  0  0  0
  151.0350  143.0034  157.0003 N   0  0  0  0  0  0  0  0  0  0  0  0
  150.7765  141.8009  156.4641 C   0  0  0  0  0  0  0  0  0  0  0  0
  151.3220  140.7601  156.8316 O   0  0  0  0  0  0  0  0  0  0  0  0
  149.8506  141.8901  155.4934 N   0  0  0  0  0  0  0  0  0  0  0  0
  149.2625  140.8390  154.7414 C   0  0  0  0  0  0  0  0  0  0  0  0
  148.2406  141.0151  153.8890 N   0  0  0  0  0  0  0  0  0  0  0  0
  147.8635  139.8265  153.2774 N   0  0  0  0  0  0  0  0  0  0  0  0
  148.6158  138.8027  153.6905 C   0  0  0  0  0  0  0  0  0  0  0  0
  149.8610  139.1910  154.8649 S   0  0  0  0  0  0  0  0  0  0  0  0
  152.6555  145.0109  159.1972 H   0  0  0  0  0  0  0  0  0  0  0  0
  150.9527  145.0799  158.7507 H   0  0  0  0  0  0  0  0  0  0  0  0
  152.1990  145.3570  157.5352 H   0  0  0  0  0  0  0  0  0  0  0  0
  152.9876  143.0247  157.7770 H   0  0  0  0  0  0  0  0  0  0  0  0
  151.0707  143.0498  160.0605 H   0  0  0  0  0  0  0  0  0  0  0  0
  150.9030  141.6272  159.0693 H   0  0  0  0  0  0  0  0  0  0  0  0
  153.7243  143.3789  161.0707 H   0  0  0  0  0  0  0  0  0  0  0  0
  152.4323  142.5787  161.9736 H   0  0  0  0  0  0  0  0  0  0  0  0
  155.1390  141.8760  162.2213 H   0  0  0  0  0  0  0  0  0  0  0  0
  153.8048  140.7809  162.5660 H   0  0  0  0  0  0  0  0  0  0  0  0
  155.5840  140.7929  160.1593 H   0  0  0  0  0  0  0  0  0  0  0  0
  154.6324  139.4561  160.8345 H   0  0  0  0  0  0  0  0  0  0  0  0
  150.5404  143.8025  156.6319 H   0  0  0  0  0  0  0  0  0  0  0  0
  149.5130  142.8168  155.2794 H   0  0  0  0  0  0  0  0  0  0  0  0
  148.4375  137.8121  153.2992 H   0  0  0  0  0  0  0  0  0  0  0  0
  1  2  1  0  0  0  0
  1 19  1  0  0  0  0
  1 20  1  0  0  0  0
  1 21  1  0  0  0  0
  2  3  1  0  0  0  0
  2 10  1  0  0  0  0
  2 22  1  0  0  0  0
  3  4  1  0  0  0  0
  3 23  1  0  0  0  0
  3 24  1  0  0  0  0
  4  8  1  0  0  0  0
  4  5  1  0  0  0  0
  5  6  1  0  0  0  0
  5 25  1  0  0  0  0
  5 26  1  0  0  0  0
  6  7  1  0  0  0  0
  6 27  1  0  0  0  0
  6 28  1  0  0  0  0
  7  8  1  0  0  0  0
  7 29  1  0  0  0  0
  7 30  1  0  0  0  0
  8  9  2  0  0  0  0
 10 11  1  0  0  0  0
 10 31  1  0  0  0  0
 11 12  2  0  0  0  0
 11 13  1  0  0  0  0
 13 14  1  0  0  0  0
 13 32  1  0  0  0  0
 14 18  1  0  0  0  0
 14 15  2  0  0  0  0
 15 16  1  0  0  0  0
 16 17  2  0  0  0  0
 17 18  1  0  0  0  0
 17 33  1  0  0  0  0
M  END
> <s_m_source_file>
AV-unprocessed.smi

> <i_m_source_file_index>
1836

> <i_lp_mmshare_version>
43012

> <i_f3d_flags>
0

> <s_epik_input>
Tz1DMVtDSDJdW0NIMl1bQ0gyXU4xW0NIMl1bQ0BASF0oW0NIM10pW05IXUMoPU8pW05IXWMybm5bY0hdczI=

> <s_epik_cmdline>
J2VwaWtfcHl0aG9uJywgJy1waCcsICc3LjAnLCAnLXRuJywgJzgnLCAnLW1hJywgJzIwMCcsICctbWV0YWxfYmluZGluZycsICctaW1hZScsICc8aW5maWxlLm1hZT4nLCAnLW9tYWUnLCAnPG91dGZpbGUubWFlPic=

> <r_lp_tautomer_probability>
1

> <r_epik_Ionization_Penalty>
0.00192022

> <r_epik_Ionization_Penalty_Charging>
0

> <r_epik_Ionization_Penalty_Neutral>
0.00192022

> <r_epik_State_Penalty>
-0

> <r_epik_Charging_Adjusted_Penalty>
0

> <i_epik_Tot_Q>
0

> <i_epik_Tot_abs_Q>
0

> <r_epik_Metal_State_Penalty>
0.336618

> <b_epik_Metal_Only>
0

> <s_lp_Force_Field>
OPLS_2005

> <r_lp_Energy>
17.3914

> <b_lp_Chiralities_Consistent>
1

> <s_lp_Variant>
AV-unprocessed.smi:1836-2

> <Gold.Version>
5.8.1

> <Gold.Id.Protein>
6NUR|6NUR_protein|mol2

> <Gold.PLP.Fitness>
47.8303

> <Gold.PLP.PLP>
-37.3529

> <Gold.PLP.part.hbond>
-3.0000

> <Gold.PLP.part.metal>
0.0000

> <Gold.PLP.part.buried>
-4.6771

> <Gold.PLP.part.nonpolar>
-30.5405

> <Gold.PLP.part.repulsive>
1.1898

> <Gold.PLP.ligand.clash>
0.0000

> <Gold.PLP.ligand.torsion>
0.7684

> <Gold.PLP.Chemscore.Hbond>
3.0000

> <Gold.PLP.Chemscore.CHOScore>
1.0000

> <Gold.PLP.Chemscore.Metal>
0.0000

> <Gold.Chemscore.Hbonds>
donor molecule, donor type, donor heavy atom, donor atom, acceptor molecule, acceptor atom, score
      L1  H    10    31       P1  8028  0.80
      L1  H    13    32       P1  8028  0.99
      P1  H  7997  8010       L1     9  0.86
      L1  C    17    33       P1  7948  1.00

> <Gold.PLP.Chemscore.Internal.Correction>
0.0143

> <Gold.Rescore>
     Score         DG    S(hbond)    S(metal)    S(lipo)     H(rot)  DE(clash)    DE(int)     intcor
     15.99     -19.02       2.82        0.00      73.79       1.76       0.03       3.00       ----

> <Gold.Chemscore.Fitness>
15.9900

> <Gold.Chemscore.DG>
-19.0204

> <Gold.Chemscore.ZeroCoef>
-5.4800

> <Gold.Chemscore.Hbond>
2.8159

> <Gold.Chemscore.Metal>
0.0000

> <Gold.Chemscore.Lipo>
73.7907

> <Gold.Chemscore.Internal_Hbond>
0.0000

> <Gold.Chemscore.DEClash>
0.0282

> <Gold.Chemscore.DEInternal>
3.0021

> <Gold.Chemscore.Rot>
1.7571

> <Gold.Chemscore.Internal.Correction>
   9.000000E+99

> <Gold.Chemscore.Hbonds>
donor molecule, donor type, donor heavy atom, donor atom, acceptor molecule, acceptor atom, score
      L1  H    10    31       P1  8028  0.77
      L1  H    13    32       P1  8028  0.92
      P1  H  7997  8010       L1     9  0.83

> <Gold.Chemscore.Hbond.Weighted>
-9.4051

> <Gold.Chemscore.Metal.Weighted>
-0.0000

> <Gold.Chemscore.Lipo.Weighted>
-8.6335

> <Gold.Chemscore.Internal_Hbond.Weighted>
0.0000

> <Gold.Chemscore.DEClash.Weighted>
0.0282

> <Gold.Chemscore.DEInternal.Weighted>
3.0021

> <Gold.Chemscore.Rot.Weighted>
4.4983

> <Gold.Chemscore.Internal.Correction.Weighted>
   9.000000E+99

> <Gold.Protein.RotatedTorsions>
[ 6907 6896 6895 6894 ] final   -2.08 input  -60.11 | X-H torsion
[ 7974 7965 7964 7962 ] final -179.90 input  175.53 | X-H torsion
[ 8008 7997 7996 7995 ] final   40.87 input   59.86 | X-H torsion
[ 10167 10162 10161 10158 ] final   74.77 input  -65.29 | X-H torsion
[ 10718 10713 10712 10709 ] final  166.58 input   66.30 | X-H torsion
[ 10763 10752 10751 10750 ] final -142.63 input  -60.55 | X-H torsion
[ 11005 11000 10999 10996 ] final -157.48 input  -57.11 | X-H torsion

> <Gold.Protein.ActiveResidues>
 VAL166  LYS551  ARG553  GLY616  TRP617  ASP618  TYR619  PRO620  LYS621  CYS622 
 ASP623  PHE694  ASN695  SER759  ASP760  ASP761  ALA762  ILE779  LEU786  VAL792 
 PHE793  MET794  SER795  GLU796  ALA797  LYS798  CYS799  TRP800  GLU811  SER814 

> <Gold.Protein.RotatedAtoms>
  151.5357  135.1068  159.9913 H   0  0  0  0  0  0  0  0  0  0  0  0  # atno 6907 bound_to 6896
  152.4558  133.7716  159.6812 H   0  0  0  0  0  0  0  0  0  0  0  0  # atno 6908 bound_to 6896
  150.8501  133.7734  159.3053 H   0  0  0  0  0  0  0  0  0  0  0  0  # atno 6909 bound_to 6896
  144.7140  140.0648  143.6431 H   0  0  0  0  0  0  0  0  0  0  0  0  # atno 7974 bound_to 7965
  155.2602  140.3358  155.4274 H   0  0  0  0  0  0  0  0  0  0  0  0  # atno 8008 bound_to 7997
  156.2178  140.1796  156.7591 H   0  0  0  0  0  0  0  0  0  0  0  0  # atno 8009 bound_to 7997
  154.5779  140.0658  156.9046 H   0  0  0  0  0  0  0  0  0  0  0  0  # atno 8010 bound_to 7997
  140.0102  144.5620  150.7665 H   0  0  0  0  0  0  0  0  0  0  0  0  # atno 10167 bound_to 10162
  157.0638  131.0347  151.2637 H   0  0  0  0  0  0  0  0  0  0  0  0  # atno 10718 bound_to 10713
  154.8501  135.3490  154.6058 H   0  0  0  0  0  0  0  0  0  0  0  0  # atno 10763 bound_to 10752
  153.6667  135.6987  153.5165 H   0  0  0  0  0  0  0  0  0  0  0  0  # atno 10764 bound_to 10752
  153.2775  135.4274  155.1004 H   0  0  0  0  0  0  0  0  0  0  0  0  # atno 10765 bound_to 10752
  140.6642  134.4317  157.5233 H   0  0  0  0  0  0  0  0  0  0  0  0  # atno 11005 bound_to 11000
  145.9834  139.2958  143.1028 LP  0  0  0  0  0  0  0  0  0  0  0  0  # atno 17320 bound_to 7965
  145.8985  140.9258  143.0515 LP  0  0  0  0  0  0  0  0  0  0  0  0  # atno 17321 bound_to 7965
  140.7384  143.2778  151.3688 LP  0  0  0  0  0  0  0  0  0  0  0  0  # atno 17342 bound_to 10162
  139.6210  144.0906  152.2391 LP  0  0  0  0  0  0  0  0  0  0  0  0  # atno 17343 bound_to 10162
  157.4933  130.7835  149.7530 LP  0  0  0  0  0  0  0  0  0  0  0  0  # atno 17370 bound_to 10713
  155.9970  130.3902  150.2755 LP  0  0  0  0  0  0  0  0  0  0  0  0  # atno 17371 bound_to 10713
  139.9003  134.8572  156.1926 LP  0  0  0  0  0  0  0  0  0  0  0  0  # atno 17394 bound_to 11000
  141.0442  133.6922  156.1653 LP  0  0  0  0  0  0  0  0  0  0  0  0  # atno 17395 bound_to 11000

$$$$
