AV-unprocessed.smi:1190|AV-procd|sdf|4981|dock1
  -GOLD-   22720 3573D 1   1.00000     0.00000
 Structure written by MMmdl.
 43 44  0  0  0  0  0  0  0  0  1 V2000
  151.1659  141.5274  158.0791 C   0  0  0  0  0  0  0  0  0  0  0  0
  151.3190  141.3666  156.6731 O   0  0  0  0  0  0  0  0  0  0  0  0
  150.9039  140.1818  156.1004 C   0  0  0  0  0  0  0  0  0  0  0  0
  150.6573  139.0774  156.9395 C   0  0  0  0  0  0  0  0  0  0  0  0
  150.2373  137.8658  156.3596 C   0  0  0  0  0  0  0  0  0  0  0  0
  150.0841  137.7886  154.9607 C   0  0  0  0  0  0  0  0  0  0  0  0
  149.6447  136.5555  154.4073 N   0  0  0  0  0  0  0  0  0  0  0  0
  149.4770  135.3720  155.0221 C   0  0  0  0  0  0  0  0  0  0  0  0
  149.6622  135.1595  156.2199 O   0  0  0  0  0  0  0  0  0  0  0  0
  149.0628  134.4351  154.1569 N   0  0  0  0  0  0  0  0  0  0  0  0
  148.7766  133.0397  154.4837 C   0  0  0  0  0  0  0  0  0  0  0  0
  148.2536  132.2263  153.2657 C   0  0  1  0  0  0  0  0  0  0  0  0
  148.4301  130.7132  153.5527 C   0  0  0  0  0  0  0  0  0  0  0  0
  146.8652  132.5766  152.8826 N   0  0  0  0  0  0  0  0  0  0  0  0
  146.7584  133.9114  152.2813 C   0  0  0  0  0  0  0  0  0  0  0  0
  145.3223  134.2633  151.8562 C   0  0  0  0  0  0  0  0  0  0  0  0
  144.8361  133.2816  150.9517 O   0  0  0  0  0  0  0  0  0  0  0  0
  144.8455  131.9810  151.5233 C   0  0  0  0  0  0  0  0  0  0  0  0
  146.2778  131.6111  151.9459 C   0  0  0  0  0  0  0  0  0  0  0  0
  150.3431  138.9579  154.2045 C   0  0  0  0  0  0  0  0  0  0  0  0
  150.7446  140.1235  154.7552 N   0  0  0  0  0  0  0  0  0  0  0  0
  151.5302  142.5123  158.3709 H   0  0  0  0  0  0  0  0  0  0  0  0
  151.7432  140.7841  158.6309 H   0  0  0  0  0  0  0  0  0  0  0  0
  150.1184  141.4609  158.3770 H   0  0  0  0  0  0  0  0  0  0  0  0
  150.7881  139.1585  158.0085 H   0  0  0  0  0  0  0  0  0  0  0  0
  150.0404  137.0067  156.9841 H   0  0  0  0  0  0  0  0  0  0  0  0
  149.3785  136.5901  153.4341 H   0  0  0  0  0  0  0  0  0  0  0  0
  148.9358  134.7064  153.1929 H   0  0  0  0  0  0  0  0  0  0  0  0
  149.6447  132.5423  154.9198 H   0  0  0  0  0  0  0  0  0  0  0  0
  148.0281  133.0944  155.2717 H   0  0  0  0  0  0  0  0  0  0  0  0
  148.9037  132.4657  152.4227 H   0  0  0  0  0  0  0  0  0  0  0  0
  149.4455  130.4633  153.8568 H   0  0  0  0  0  0  0  0  0  0  0  0
  148.2434  130.0978  152.6742 H   0  0  0  0  0  0  0  0  0  0  0  0
  147.7597  130.3825  154.3466 H   0  0  0  0  0  0  0  0  0  0  0  0
  147.0730  134.6782  152.9862 H   0  0  0  0  0  0  0  0  0  0  0  0
  147.4197  133.9820  151.4163 H   0  0  0  0  0  0  0  0  0  0  0  0
  144.6663  134.3263  152.7257 H   0  0  0  0  0  0  0  0  0  0  0  0
  145.3005  135.2379  151.3683 H   0  0  0  0  0  0  0  0  0  0  0  0
  144.1684  131.9446  152.3781 H   0  0  0  0  0  0  0  0  0  0  0  0
  144.4721  131.2675  150.7887 H   0  0  0  0  0  0  0  0  0  0  0  0
  146.9064  131.5278  151.0580 H   0  0  0  0  0  0  0  0  0  0  0  0
  146.2291  130.6205  152.3939 H   0  0  0  0  0  0  0  0  0  0  0  0
  150.2127  138.9899  153.1344 H   0  0  0  0  0  0  0  0  0  0  0  0
  1  2  1  0  0  0  0
  1 22  1  0  0  0  0
  1 23  1  0  0  0  0
  1 24  1  0  0  0  0
  2  3  1  0  0  0  0
  3 21  1  0  0  0  0
  3  4  2  0  0  0  0
  4  5  1  0  0  0  0
  4 25  1  0  0  0  0
  5  6  2  0  0  0  0
  5 26  1  0  0  0  0
  6  7  1  0  0  0  0
  6 20  1  0  0  0  0
  7  8  1  0  0  0  0
  7 27  1  0  0  0  0
  8  9  2  0  0  0  0
  8 10  1  0  0  0  0
 10 11  1  0  0  0  0
 10 28  1  0  0  0  0
 11 12  1  0  0  0  0
 11 29  1  0  0  0  0
 11 30  1  0  0  0  0
 12 13  1  0  0  0  0
 12 14  1  0  0  0  0
 12 31  1  0  0  0  0
 13 32  1  0  0  0  0
 13 33  1  0  0  0  0
 13 34  1  0  0  0  0
 14 19  1  0  0  0  0
 14 15  1  0  0  0  0
 15 16  1  0  0  0  0
 15 35  1  0  0  0  0
 15 36  1  0  0  0  0
 16 17  1  0  0  0  0
 16 37  1  0  0  0  0
 16 38  1  0  0  0  0
 17 18  1  0  0  0  0
 18 19  1  0  0  0  0
 18 39  1  0  0  0  0
 18 40  1  0  0  0  0
 19 41  1  0  0  0  0
 19 42  1  0  0  0  0
 20 21  2  0  0  0  0
 20 43  1  0  0  0  0
M  END
> <s_m_source_file>
AV-unprocessed.smi

> <i_m_source_file_index>
1190

> <i_lp_mmshare_version>
43012

> <i_f3d_flags>
0

> <s_epik_input>
W0NIM11PYzFbY0hdW2NIXWMoW2NIXW4xKVtOSF1DKD1PKVtOSF1bQ0gyXVtDQEhdKFtDSDNdKU4yW0NIMl1bQ0gyXU9bQ0gyXVtDSDJdMg==

> <s_epik_cmdline>
J2VwaWtfcHl0aG9uJywgJy1waCcsICc3LjAnLCAnLXRuJywgJzgnLCAnLW1hJywgJzIwMCcsICctbWV0YWxfYmluZGluZycsICctaW1hZScsICc8aW5maWxlLm1hZT4nLCAnLW9tYWUnLCAnPG91dGZpbGUubWFlPic=

> <r_lp_tautomer_probability>
1

> <r_epik_Ionization_Penalty>
0.266084

> <r_epik_Ionization_Penalty_Charging>
0

> <r_epik_Ionization_Penalty_Neutral>
0.266084

> <r_epik_State_Penalty>
0.257924

> <r_epik_Charging_Adjusted_Penalty>
0.257924

> <i_epik_Tot_Q>
0

> <i_epik_Tot_abs_Q>
0

> <r_epik_Metal_State_Penalty>
0.257922

> <b_epik_Metal_Only>
0

> <s_lp_Force_Field>
OPLS_2005

> <r_lp_Energy>
31.4194

> <b_lp_Chiralities_Consistent>
1

> <s_lp_Variant>
AV-unprocessed.smi:1190-2

> <Gold.Version>
5.8.1

> <Gold.Id.Protein>
6NUR|6NUR_protein|mol2

> <Gold.PLP.Fitness>
39.9466

> <Gold.PLP.PLP>
-29.6542

> <Gold.PLP.part.hbond>
-3.0574

> <Gold.PLP.part.metal>
0.0000

> <Gold.PLP.part.buried>
-3.5768

> <Gold.PLP.part.nonpolar>
-22.6615

> <Gold.PLP.part.repulsive>
0.4037

> <Gold.PLP.ligand.clash>
0.0181

> <Gold.PLP.ligand.torsion>
0.5249

> <Gold.PLP.Chemscore.Hbond>
2.7552

> <Gold.PLP.Chemscore.CHOScore>
1.0000

> <Gold.PLP.Chemscore.Metal>
0.0000

> <Gold.Chemscore.Hbonds>
donor molecule, donor type, donor heavy atom, donor atom, acceptor molecule, acceptor atom, score
      L1  H     7    27       P1  7948  1.00
      L1  H    10    28       P1  7948  0.76
      P1  H  7989  7998       L1    21  1.00
      L1  C    20    43       P1  7957  1.00

> <Gold.PLP.Chemscore.Internal.Correction>
0.0946

> <Gold.Rescore>
     Score         DG    S(hbond)    S(metal)    S(lipo)     H(rot)  DE(clash)    DE(int)     intcor
     12.87     -14.82       1.85        0.00      64.98       1.73       0.07       1.89       ----

> <Gold.Chemscore.Fitness>
12.8694

> <Gold.Chemscore.DG>
-14.8247

> <Gold.Chemscore.ZeroCoef>
-5.4800

> <Gold.Chemscore.Hbond>
1.8471

> <Gold.Chemscore.Metal>
0.0000

> <Gold.Chemscore.Lipo>
64.9756

> <Gold.Chemscore.Internal_Hbond>
0.0000

> <Gold.Chemscore.DEClash>
0.0686

> <Gold.Chemscore.DEInternal>
1.8867

> <Gold.Chemscore.Rot>
1.7292

> <Gold.Chemscore.Internal.Correction>
   9.000000E+99

> <Gold.Chemscore.Hbonds>
donor molecule, donor type, donor heavy atom, donor atom, acceptor molecule, acceptor atom, score
      L1  H     7    27       P1  7948  0.88
      L1  H    10    28       P1  7948  0.11
      P1  H  7989  7998       L1    21  0.40

> <Gold.Chemscore.Hbond.Weighted>
-6.1694

> <Gold.Chemscore.Metal.Weighted>
-0.0000

> <Gold.Chemscore.Lipo.Weighted>
-7.6021

> <Gold.Chemscore.Internal_Hbond.Weighted>
0.0000

> <Gold.Chemscore.DEClash.Weighted>
0.0686

> <Gold.Chemscore.DEInternal.Weighted>
1.8867

> <Gold.Chemscore.Rot.Weighted>
4.4268

> <Gold.Chemscore.Internal.Correction.Weighted>
   9.000000E+99

> <Gold.Protein.RotatedTorsions>
[ 6907 6896 6895 6894 ] final  150.93 input  -60.11 | X-H torsion
[ 7974 7965 7964 7962 ] final   25.95 input  175.53 | X-H torsion
[ 8008 7997 7996 7995 ] final  -47.32 input   59.86 | X-H torsion
[ 10167 10162 10161 10158 ] final -116.29 input  -65.29 | X-H torsion
[ 10718 10713 10712 10709 ] final   90.96 input   66.30 | X-H torsion
[ 10763 10752 10751 10750 ] final  -81.62 input  -60.55 | X-H torsion
[ 11005 11000 10999 10996 ] final  139.50 input  -57.11 | X-H torsion

> <Gold.Protein.ActiveResidues>
 VAL166  LYS551  ARG553  GLY616  TRP617  ASP618  TYR619  PRO620  LYS621  CYS622 
 ASP623  PHE694  ASN695  SER759  ASP760  ASP761  ALA762  ILE779  LEU786  VAL792 
 PHE793  MET794  SER795  GLU796  ALA797  LYS798  CYS799  TRP800  GLU811  SER814 

> <Gold.Protein.RotatedAtoms>
  152.1077  133.4283  159.4616 H   0  0  0  0  0  0  0  0  0  0  0  0  # atno 6907 bound_to 6896
  150.6866  134.2685  159.4587 H   0  0  0  0  0  0  0  0  0  0  0  0  # atno 6908 bound_to 6896
  152.0551  134.9629  160.0625 H   0  0  0  0  0  0  0  0  0  0  0  0  # atno 6909 bound_to 6896
  146.1863  139.7395  142.8864 H   0  0  0  0  0  0  0  0  0  0  0  0  # atno 7974 bound_to 7965
  154.4015  140.1349  156.4156 H   0  0  0  0  0  0  0  0  0  0  0  0  # atno 8008 bound_to 7997
  155.7692  140.3484  155.5218 H   0  0  0  0  0  0  0  0  0  0  0  0  # atno 8009 bound_to 7997
  155.8783  140.0983  157.1493 H   0  0  0  0  0  0  0  0  0  0  0  0  # atno 8010 bound_to 7997
  140.0808  143.4790  152.1927 H   0  0  0  0  0  0  0  0  0  0  0  0  # atno 10167 bound_to 10162
  157.6960  131.0390  150.3657 H   0  0  0  0  0  0  0  0  0  0  0  0  # atno 10718 bound_to 10713
  154.5658  135.5620  153.7049 H   0  0  0  0  0  0  0  0  0  0  0  0  # atno 10763 bound_to 10752
  153.0032  135.6285  154.2182 H   0  0  0  0  0  0  0  0  0  0  0  0  # atno 10764 bound_to 10752
  154.2121  135.2873  155.2934 H   0  0  0  0  0  0  0  0  0  0  0  0  # atno 10765 bound_to 10752
  140.0259  134.9375  157.0568 H   0  0  0  0  0  0  0  0  0  0  0  0  # atno 11005 bound_to 11000
  145.3930  141.0375  143.3113 LP  0  0  0  0  0  0  0  0  0  0  0  0  # atno 17320 bound_to 7965
  144.8403  139.5483  143.6903 LP  0  0  0  0  0  0  0  0  0  0  0  0  # atno 17321 bound_to 7965
  139.5781  144.7497  151.3712 LP  0  0  0  0  0  0  0  0  0  0  0  0  # atno 17342 bound_to 10162
  140.7079  143.7467  150.7514 LP  0  0  0  0  0  0  0  0  0  0  0  0  # atno 17343 bound_to 10162
  156.4088  130.3930  149.6906 LP  0  0  0  0  0  0  0  0  0  0  0  0  # atno 17370 bound_to 10713
  156.4198  130.7763  151.2780 LP  0  0  0  0  0  0  0  0  0  0  0  0  # atno 17371 bound_to 10713
  140.4307  134.1784  155.7168 LP  0  0  0  0  0  0  0  0  0  0  0  0  # atno 17394 bound_to 11000
  141.1802  133.8429  157.1283 LP  0  0  0  0  0  0  0  0  0  0  0  0  # atno 17395 bound_to 11000

$$$$
