AV-unprocessed.smi:21|AV-procd|sdf|161|dock7
  -GOLD-   2262015403D 1   1.00000     0.00000
 Structure written by MMmdl.
 61 64  0  0  0  0  0  0  0  0  1 V2000
  152.7994  142.4815  160.2094 C   0  0  0  0  0  0  0  0  0  0  0  0
  152.3632  142.1979  158.8895 O   0  0  0  0  0  0  0  0  0  0  0  0
  151.5335  141.0474  158.8018 C   0  0  1  0  0  0  0  0  0  0  0  0
  151.1044  140.7573  157.3525 C   0  0  0  0  0  0  0  0  0  0  0  0
  151.4453  139.2762  157.1528 C   0  0  1  0  0  0  0  0  0  0  0  0
  151.6202  138.8782  155.6715 C   0  0  0  0  0  0  0  0  0  0  0  0
  150.3772  138.9682  154.9042 N   0  0  0  0  0  0  0  0  0  0  0  0
  149.9013  140.3010  154.5380 C   0  0  0  0  0  0  0  0  0  0  0  0
  149.4399  138.0127  155.1495 C   0  0  0  0  0  0  0  0  0  0  0  0
  149.7314  136.9955  156.0055 N   0  0  0  0  0  0  0  0  0  0  0  0
  148.8336  136.0392  156.2580 C   0  0  0  0  0  0  0  0  0  0  0  0
  147.5976  135.9078  155.7754 N   0  0  0  0  0  0  0  0  0  0  0  0
  147.2890  136.9294  154.9274 C   0  0  0  0  0  0  0  0  0  0  0  0
  148.1409  138.0108  154.5606 C   0  0  0  0  0  0  0  0  0  0  0  0
  147.4706  138.8540  153.6818 N   0  0  0  0  0  0  0  0  0  0  0  0
  146.3010  138.2982  153.5259 C   0  0  0  0  0  0  0  0  0  0  0  0
  146.0999  137.1478  154.2539 N   0  0  0  0  0  0  0  0  0  0  0  0
  144.9015  136.3283  154.2694 C   0  0  0  0  0  0  0  0  0  0  0  0
  144.4676  135.7913  152.8802 C   0  0  2  0  0  0  0  0  0  0  0  0
  143.1135  135.0575  153.0180 C   0  0  0  0  0  0  0  0  0  0  0  0
  142.1462  135.8616  153.6624 O   0  0  0  0  0  0  0  0  0  0  0  0
  145.5461  134.9291  152.1611 C   0  0  1  0  0  0  0  0  0  0  0  0
  146.1101  133.7890  152.9949 C   0  0  0  0  0  0  0  0  0  0  0  0
  146.7354  132.8956  151.9348 C   0  0  0  0  0  0  0  0  0  0  0  0
  145.8242  132.9524  150.8489 O   0  0  0  0  0  0  0  0  0  0  0  0
  145.0682  134.1583  150.9187 C   0  0  0  0  0  0  0  0  0  0  0  0
  152.6264  139.0768  157.9753 N   0  0  0  0  0  0  0  0  0  0  0  0
  152.9477  137.6778  158.2224 C   0  0  0  0  0  0  0  0  0  0  0  0
  152.3343  139.7999  159.2001 C   0  0  0  0  0  0  0  0  0  0  0  0
  150.6701  141.1461  159.4620 H   0  0  0  0  0  0  0  0  0  0  0  0
  150.6329  138.6903  157.5845 H   0  0  0  0  0  0  0  0  0  0  0  0
  153.4345  143.3670  160.2001 H   0  0  0  0  0  0  0  0  0  0  0  0
  153.3832  141.6554  160.6171 H   0  0  0  0  0  0  0  0  0  0  0  0
  151.9608  142.6795  160.8776 H   0  0  0  0  0  0  0  0  0  0  0  0
  150.0502  140.9718  157.1751 H   0  0  0  0  0  0  0  0  0  0  0  0
  151.6897  141.3684  156.6662 H   0  0  0  0  0  0  0  0  0  0  0  0
  152.4175  139.4725  155.2265 H   0  0  0  0  0  0  0  0  0  0  0  0
  151.9604  137.8445  155.6093 H   0  0  0  0  0  0  0  0  0  0  0  0
  149.1321  140.2418  153.7671 H   0  0  0  0  0  0  0  0  0  0  0  0
  150.7091  140.9148  154.1419 H   0  0  0  0  0  0  0  0  0  0  0  0
  149.4843  140.8128  155.4060 H   0  0  0  0  0  0  0  0  0  0  0  0
  149.1511  135.2698  156.9463 H   0  0  0  0  0  0  0  0  0  0  0  0
  145.5443  138.7238  152.8828 H   0  0  0  0  0  0  0  0  0  0  0  0
  145.0600  135.4997  154.9607 H   0  0  0  0  0  0  0  0  0  0  0  0
  144.1039  136.9358  154.6990 H   0  0  0  0  0  0  0  0  0  0  0  0
  144.2683  136.6533  152.2427 H   0  0  0  0  0  0  0  0  0  0  0  0
  142.7326  134.7759  152.0358 H   0  0  0  0  0  0  0  0  0  0  0  0
  143.2252  134.1271  153.5745 H   0  0  0  0  0  0  0  0  0  0  0  0
  141.7275  135.3475  154.3355 H   0  0  0  0  0  0  0  0  0  0  0  0
  146.3794  135.5696  151.8677 H   0  0  0  0  0  0  0  0  0  0  0  0
  146.8356  134.1179  153.7397 H   0  0  0  0  0  0  0  0  0  0  0  0
  145.3089  133.2548  153.5074 H   0  0  0  0  0  0  0  0  0  0  0  0
  147.6972  133.2975  151.6135 H   0  0  0  0  0  0  0  0  0  0  0  0
  146.8885  131.8729  152.2792 H   0  0  0  0  0  0  0  0  0  0  0  0
  144.0143  133.8893  150.9965 H   0  0  0  0  0  0  0  0  0  0  0  0
  145.2036  134.7336  150.0039 H   0  0  0  0  0  0  0  0  0  0  0  0
  153.8009  137.5947  158.8961 H   0  0  0  0  0  0  0  0  0  0  0  0
  153.2108  137.1679  157.2960 H   0  0  0  0  0  0  0  0  0  0  0  0
  152.1061  137.1516  158.6747 H   0  0  0  0  0  0  0  0  0  0  0  0
  153.2467  140.0428  159.7460 H   0  0  0  0  0  0  0  0  0  0  0  0
  151.7173  139.1830  159.8559 H   0  0  0  0  0  0  0  0  0  0  0  0
  1  2  1  0  0  0  0
  1 32  1  0  0  0  0
  1 33  1  0  0  0  0
  1 34  1  0  0  0  0
  2  3  1  0  0  0  0
  3 30  1  0  0  0  0
  3 29  1  0  0  0  0
  3  4  1  0  0  0  0
  4  5  1  0  0  0  0
  4 35  1  0  0  0  0
  4 36  1  0  0  0  0
  5 31  1  0  0  0  0
  5  6  1  0  0  0  0
  5 27  1  0  0  0  0
  6  7  1  0  0  0  0
  6 37  1  0  0  0  0
  6 38  1  0  0  0  0
  7  8  1  0  0  0  0
  7  9  1  0  0  0  0
  8 39  1  0  0  0  0
  8 40  1  0  0  0  0
  8 41  1  0  0  0  0
  9 14  1  0  0  0  0
  9 10  2  0  0  0  0
 10 11  1  0  0  0  0
 11 12  2  0  0  0  0
 11 42  1  0  0  0  0
 12 13  1  0  0  0  0
 13 17  1  0  0  0  0
 13 14  2  0  0  0  0
 14 15  1  0  0  0  0
 15 16  2  0  0  0  0
 16 17  1  0  0  0  0
 16 43  1  0  0  0  0
 17 18  1  0  0  0  0
 18 19  1  0  0  0  0
 18 44  1  0  0  0  0
 18 45  1  0  0  0  0
 19 20  1  0  0  0  0
 19 22  1  0  0  0  0
 19 46  1  0  0  0  0
 20 21  1  0  0  0  0
 20 47  1  0  0  0  0
 20 48  1  0  0  0  0
 21 49  1  0  0  0  0
 22 26  1  0  0  0  0
 22 23  1  0  0  0  0
 22 50  1  0  0  0  0
 23 24  1  0  0  0  0
 23 51  1  0  0  0  0
 23 52  1  0  0  0  0
 24 25  1  0  0  0  0
 24 53  1  0  0  0  0
 24 54  1  0  0  0  0
 25 26  1  0  0  0  0
 26 55  1  0  0  0  0
 26 56  1  0  0  0  0
 27 28  1  0  0  0  0
 27 29  1  0  0  0  0
 28 57  1  0  0  0  0
 28 58  1  0  0  0  0
 28 59  1  0  0  0  0
 29 60  1  0  0  0  0
 29 61  1  0  0  0  0
M  END
> <s_m_source_file>
AV-unprocessed.smi

> <i_m_source_file_index>
21

> <i_lp_mmshare_version>
43012

> <i_f3d_flags>
0

> <s_epik_input>
W0NIM11PW0NASF0xW0NIMl1bQ0BIXShOKFtDSDNdKVtDSDJdMSlbQ0gyXU4oW0NIM10pYyhuW2NIXW4yKWMoYzIzKW5bY0hdbjNbQ0gyXVtDQEhdKFtDSDJdW09IXSlbQ0BASF00W0NIMl1bQ0gyXU9bQ0gyXTQ=

> <s_epik_cmdline>
J2VwaWtfcHl0aG9uJywgJy1waCcsICc3LjAnLCAnLXRuJywgJzgnLCAnLW1hJywgJzIwMCcsICctbWV0YWxfYmluZGluZycsICctaW1hZScsICc8aW5maWxlLm1hZT4nLCAnLW9tYWUnLCAnPG91dGZpbGUubWFlPic=

> <r_lp_tautomer_probability>
1

> <r_epik_Ionization_Penalty>
2.17574

> <r_epik_Ionization_Penalty_Charging>
0

> <r_epik_Ionization_Penalty_Neutral>
2.17574

> <r_epik_State_Penalty>
2.31336

> <r_epik_Charging_Adjusted_Penalty>
2.31336

> <i_epik_Tot_Q>
0

> <i_epik_Tot_abs_Q>
0

> <r_epik_Metal_State_Penalty>
2.31025

> <b_epik_Metal_Only>
0

> <s_lp_Force_Field>
OPLS_2005

> <r_lp_Energy>
70.1796

> <b_lp_Chiralities_Consistent>
1

> <s_lp_Variant>
AV-unprocessed.smi:21-41

> <Gold.Version>
5.8.1

> <Gold.Id.Protein>
6NUR|6NUR_protein|mol2

> <Gold.PLP.Fitness>
44.2897

> <Gold.PLP.PLP>
-38.5681

> <Gold.PLP.part.hbond>
-1.0000

> <Gold.PLP.part.metal>
0.0000

> <Gold.PLP.part.buried>
-5.0708

> <Gold.PLP.part.nonpolar>
-33.5870

> <Gold.PLP.part.repulsive>
1.7499

> <Gold.PLP.ligand.clash>
0.0000

> <Gold.PLP.ligand.torsion>
0.5440

> <Gold.PLP.Chemscore.Hbond>
1.0000

> <Gold.PLP.Chemscore.CHOScore>
1.0000

> <Gold.PLP.Chemscore.Metal>
0.0000

> <Gold.Chemscore.Hbonds>
donor molecule, donor type, donor heavy atom, donor atom, acceptor molecule, acceptor atom, score
      L1  C    16    43       P1 10175  0.87

> <Gold.PLP.Chemscore.Internal.Correction>
0.8096

> <Gold.Rescore>
     Score         DG    S(hbond)    S(metal)    S(lipo)     H(rot)  DE(clash)    DE(int)     intcor
      5.45      -8.43       0.19        0.00      85.48       3.00       0.22       2.76       ----

> <Gold.Chemscore.Fitness>
5.4532

> <Gold.Chemscore.DG>
-8.4285

> <Gold.Chemscore.ZeroCoef>
-5.4800

> <Gold.Chemscore.Hbond>
0.1903

> <Gold.Chemscore.Metal>
0.0000

> <Gold.Chemscore.Lipo>
85.4775

> <Gold.Chemscore.Internal_Hbond>
0.0000

> <Gold.Chemscore.DEClash>
0.2176

> <Gold.Chemscore.DEInternal>
2.7578

> <Gold.Chemscore.Rot>
3.0031

> <Gold.Chemscore.Internal.Correction>
   9.000000E+99

> <Gold.Chemscore.Hbond.Weighted>
-0.6357

> <Gold.Chemscore.Metal.Weighted>
-0.0000

> <Gold.Chemscore.Lipo.Weighted>
-10.0009

> <Gold.Chemscore.Internal_Hbond.Weighted>
0.0000

> <Gold.Chemscore.DEClash.Weighted>
0.2176

> <Gold.Chemscore.DEInternal.Weighted>
2.7578

> <Gold.Chemscore.Rot.Weighted>
7.6880

> <Gold.Chemscore.Internal.Correction.Weighted>
   9.000000E+99

> <Gold.Protein.RotatedTorsions>
[ 6907 6896 6895 6894 ] final   82.78 input  -60.11 | X-H torsion
[ 7974 7965 7964 7962 ] final -121.82 input  175.53 | X-H torsion
[ 8008 7997 7996 7995 ] final   70.83 input   59.86 | X-H torsion
[ 10167 10162 10161 10158 ] final   81.68 input  -65.29 | X-H torsion
[ 10718 10713 10712 10709 ] final  -98.90 input   66.30 | X-H torsion
[ 10763 10752 10751 10750 ] final  100.45 input  -60.55 | X-H torsion
[ 11005 11000 10999 10996 ] final    3.49 input  -57.11 | X-H torsion

> <Gold.Protein.ActiveResidues>
 VAL166  LYS551  ARG553  GLY616  TRP617  ASP618  TYR619  PRO620  LYS621  CYS622 
 ASP623  PHE694  ASN695  SER759  ASP760  ASP761  ALA762  ILE779  LEU786  VAL792 
 PHE793  MET794  SER795  GLU796  ALA797  LYS798  CYS799  TRP800  GLU811  SER814 

> <Gold.Protein.RotatedAtoms>
  152.5309  134.2996  159.9073 H   0  0  0  0  0  0  0  0  0  0  0  0  # atno 6907 bound_to 6896
  151.2947  133.4143  159.2643 H   0  0  0  0  0  0  0  0  0  0  0  0  # atno 6908 bound_to 6896
  151.0170  134.9456  159.8096 H   0  0  0  0  0  0  0  0  0  0  0  0  # atno 6909 bound_to 6896
  145.0361  140.8107  143.4294 H   0  0  0  0  0  0  0  0  0  0  0  0  # atno 7974 bound_to 7965
  155.7448  140.3489  155.5121 H   0  0  0  0  0  0  0  0  0  0  0  0  # atno 8008 bound_to 7997
  155.9060  140.1042  157.1336 H   0  0  0  0  0  0  0  0  0  0  0  0  # atno 8009 bound_to 7997
  154.4050  140.1277  156.4484 H   0  0  0  0  0  0  0  0  0  0  0  0  # atno 8010 bound_to 7997
  139.9367  144.6116  150.8291 H   0  0  0  0  0  0  0  0  0  0  0  0  # atno 10167 bound_to 10162
  156.0120  130.5259  150.6592 H   0  0  0  0  0  0  0  0  0  0  0  0  # atno 10718 bound_to 10713
  153.3141  135.4078  155.1361 H   0  0  0  0  0  0  0  0  0  0  0  0  # atno 10763 bound_to 10752
  154.8583  135.3571  154.5684 H   0  0  0  0  0  0  0  0  0  0  0  0  # atno 10764 bound_to 10752
  153.6114  135.7067  153.5404 H   0  0  0  0  0  0  0  0  0  0  0  0  # atno 10765 bound_to 10752
  140.5925  133.9910  155.8095 H   0  0  0  0  0  0  0  0  0  0  0  0  # atno 11005 bound_to 11000
  145.1707  139.2406  143.5343 LP  0  0  0  0  0  0  0  0  0  0  0  0  # atno 17320 bound_to 7965
  146.3504  140.1457  142.8593 LP  0  0  0  0  0  0  0  0  0  0  0  0  # atno 17321 bound_to 7965
  140.7622  143.3193  151.2659 LP  0  0  0  0  0  0  0  0  0  0  0  0  # atno 17342 bound_to 10162
  139.6738  143.9974  152.2768 LP  0  0  0  0  0  0  0  0  0  0  0  0  # atno 17343 bound_to 10162
  157.4337  131.0852  151.1013 LP  0  0  0  0  0  0  0  0  0  0  0  0  # atno 17370 bound_to 10713
  157.1578  130.6212  149.5601 LP  0  0  0  0  0  0  0  0  0  0  0  0  # atno 17371 bound_to 10713
  141.0925  133.9894  157.3213 LP  0  0  0  0  0  0  0  0  0  0  0  0  # atno 17394 bound_to 11000
  139.9268  135.0201  156.8261 LP  0  0  0  0  0  0  0  0  0  0  0  0  # atno 17395 bound_to 11000

$$$$
