AV-unprocessed.smi:3333|AV-procd|sdf|12834|dock4
  -GOLD-   2272019213D 1   1.00000     0.00000
 Structure written by MMmdl.
 41 43  0  0  0  0  0  0  0  0  1 V2000
  145.5616  144.0547  153.4654 C   0  0  0  0  0  0  0  0  0  0  0  0
  146.2924  142.7432  153.7713 C   0  0  0  0  0  0  0  0  0  0  0  0
  146.3342  142.4379  155.2309 C   0  0  0  0  0  0  0  0  0  0  0  0
  145.9378  143.2958  156.1750 N   0  0  0  0  0  0  0  0  0  0  0  0
  146.1099  142.7913  157.4684 C   0  0  0  0  0  0  0  0  0  0  0  0
  145.7140  143.6201  158.6564 C   0  0  0  0  0  0  0  0  0  0  0  0
  146.8413  143.6605  159.6927 C   0  0  0  0  0  0  0  0  0  0  0  0
  146.8236  142.8998  160.6612 O   0  0  0  0  0  0  0  0  0  0  0  0
  147.8124  144.5635  159.4855 N   0  0  0  0  0  0  0  0  0  0  0  0
  148.9578  144.7818  160.3631 C   0  0  0  0  0  0  0  0  0  0  0  0
  150.2547  144.1614  159.7987 C   0  0  1  0  0  0  0  0  0  0  0  0
  150.7324  144.8416  158.4964 C   0  0  0  0  0  0  0  0  0  0  0  0
  152.1898  145.2214  158.8153 C   0  0  2  0  0  0  0  0  0  0  0  0
  153.0470  143.9457  158.9176 C   0  0  0  0  0  0  0  0  0  0  0  0
  152.5824  143.3309  160.2515 C   0  0  0  0  0  0  0  0  0  0  0  0
  151.4922  144.3147  160.7164 C   0  0  1  0  0  0  0  0  0  0  0  0
  152.0831  145.6495  160.2730 C   0  0  0  0  0  0  0  0  0  0  0  0
  146.6469  141.5273  157.4878 C   0  0  0  0  0  0  0  0  0  0  0  0
  146.9753  140.9347  155.8833 S   0  0  0  0  0  0  0  0  0  0  0  0
  145.5545  144.2544  152.3939 H   0  0  0  0  0  0  0  0  0  0  0  0
  146.0449  144.8985  153.9587 H   0  0  0  0  0  0  0  0  0  0  0  0
  144.5259  144.0160  153.8043 H   0  0  0  0  0  0  0  0  0  0  0  0
  145.8091  141.9157  153.2509 H   0  0  0  0  0  0  0  0  0  0  0  0
  147.3153  142.7930  153.3970 H   0  0  0  0  0  0  0  0  0  0  0  0
  145.4522  144.6328  158.3459 H   0  0  0  0  0  0  0  0  0  0  0  0
  144.8247  143.2054  159.1318 H   0  0  0  0  0  0  0  0  0  0  0  0
  147.7494  145.1480  158.6648 H   0  0  0  0  0  0  0  0  0  0  0  0
  149.0931  145.8524  160.5261 H   0  0  0  0  0  0  0  0  0  0  0  0
  148.7215  144.3522  161.3368 H   0  0  0  0  0  0  0  0  0  0  0  0
  150.0712  143.1037  159.6041 H   0  0  0  0  0  0  0  0  0  0  0  0
  150.6552  144.1813  157.6318 H   0  0  0  0  0  0  0  0  0  0  0  0
  150.1482  145.7372  158.2795 H   0  0  0  0  0  0  0  0  0  0  0  0
  152.6023  145.9737  158.1425 H   0  0  0  0  0  0  0  0  0  0  0  0
  152.8907  143.2740  158.0727 H   0  0  0  0  0  0  0  0  0  0  0  0
  154.1088  144.1917  158.9590 H   0  0  0  0  0  0  0  0  0  0  0  0
  152.2070  142.3135  160.1354 H   0  0  0  0  0  0  0  0  0  0  0  0
  153.4057  143.3021  160.9665 H   0  0  0  0  0  0  0  0  0  0  0  0
  151.2755  144.2400  161.7821 H   0  0  0  0  0  0  0  0  0  0  0  0
  153.0494  145.8689  160.7309 H   0  0  0  0  0  0  0  0  0  0  0  0
  151.4150  146.4981  160.4281 H   0  0  0  0  0  0  0  0  0  0  0  0
  146.8797  140.9169  158.3478 H   0  0  0  0  0  0  0  0  0  0  0  0
  1  2  1  0  0  0  0
  1 20  1  0  0  0  0
  1 21  1  0  0  0  0
  1 22  1  0  0  0  0
  2  3  1  0  0  0  0
  2 23  1  0  0  0  0
  2 24  1  0  0  0  0
  3 19  1  0  0  0  0
  3  4  2  0  0  0  0
  4  5  1  0  0  0  0
  5  6  1  0  0  0  0
  5 18  2  0  0  0  0
  6  7  1  0  0  0  0
  6 25  1  0  0  0  0
  6 26  1  0  0  0  0
  7  8  2  0  0  0  0
  7  9  1  0  0  0  0
  9 10  1  0  0  0  0
  9 27  1  0  0  0  0
 10 11  1  0  0  0  0
 10 28  1  0  0  0  0
 10 29  1  0  0  0  0
 11 16  1  0  0  0  0
 11 12  1  0  0  0  0
 11 30  1  0  0  0  0
 12 13  1  0  0  0  0
 12 31  1  0  0  0  0
 12 32  1  0  0  0  0
 13 17  1  0  0  0  0
 13 14  1  0  0  0  0
 13 33  1  0  0  0  0
 14 15  1  0  0  0  0
 14 34  1  0  0  0  0
 14 35  1  0  0  0  0
 15 16  1  0  0  0  0
 15 36  1  0  0  0  0
 15 37  1  0  0  0  0
 16 17  1  0  0  0  0
 16 38  1  0  0  0  0
 17 39  1  0  0  0  0
 17 40  1  0  0  0  0
 18 19  1  0  0  0  0
 18 41  1  0  0  0  0
M  END
> <s_m_source_file>
AV-unprocessed.smi

> <i_m_source_file_index>
3333

> <i_lp_mmshare_version>
43012

> <i_f3d_flags>
0

> <s_epik_input>
W0NIM11bQ0gyXWMxbmMoW2NIXXMxKVtDSDJdQyg9TylbTkhdW0NIMl1bQ0BIXShbQ0gyXVtDQEBIXTIzKVtDQEBIXShbQ0gyXTMpW0NIMl1bQ0gyXTI=

> <s_epik_cmdline>
J2VwaWtfcHl0aG9uJywgJy1waCcsICc3LjAnLCAnLXRuJywgJzgnLCAnLW1hJywgJzIwMCcsICctbWV0YWxfYmluZGluZycsICctaW1hZScsICc8aW5maWxlLm1hZT4nLCAnLW9tYWUnLCAnPG91dGZpbGUubWFlPic=

> <r_lp_tautomer_probability>
1

> <r_epik_Ionization_Penalty>
6.68371e-05

> <r_epik_Ionization_Penalty_Charging>
0

> <r_epik_Ionization_Penalty_Neutral>
6.68371e-05

> <r_epik_State_Penalty>
-0

> <r_epik_Charging_Adjusted_Penalty>
0

> <i_epik_Tot_Q>
0

> <i_epik_Tot_abs_Q>
0

> <r_epik_Metal_State_Penalty>
-0

> <b_epik_Metal_Only>
0

> <s_lp_Force_Field>
OPLS_2005

> <r_lp_Energy>
43.9975

> <b_lp_Chiralities_Consistent>
1

> <s_lp_Variant>
AV-unprocessed.smi:3333-4

> <Gold.Version>
5.8.1

> <Gold.Id.Protein>
6NUR|6NUR_protein|mol2

> <Gold.PLP.Fitness>
49.6663

> <Gold.PLP.PLP>
-42.3793

> <Gold.PLP.part.hbond>
-3.0000

> <Gold.PLP.part.metal>
0.0000

> <Gold.PLP.part.buried>
-6.9727

> <Gold.PLP.part.nonpolar>
-33.8029

> <Gold.PLP.part.repulsive>
0.3065

> <Gold.PLP.ligand.clash>
0.0000

> <Gold.PLP.ligand.torsion>
0.5993

> <Gold.PLP.Chemscore.Hbond>
2.8163

> <Gold.PLP.Chemscore.CHOScore>
0.0000

> <Gold.PLP.Chemscore.Metal>
0.0000

> <Gold.Chemscore.Hbonds>
donor molecule, donor type, donor heavy atom, donor atom, acceptor molecule, acceptor atom, score
      L1  H     9    27       P1  8029  1.00
      P1  H  6933  6944       L1     8  0.94
      P1  H  6934  6946       L1     8  0.86

> <Gold.PLP.Chemscore.Internal.Correction>
0.0367

> <Gold.Rescore>
     Score         DG    S(hbond)    S(metal)    S(lipo)     H(rot)  DE(clash)    DE(int)     intcor
     22.92     -23.70       2.66        0.00     110.91       1.42       0.17       0.61       ----

> <Gold.Chemscore.Fitness>
22.9216

> <Gold.Chemscore.DG>
-23.7025

> <Gold.Chemscore.ZeroCoef>
-5.4800

> <Gold.Chemscore.Hbond>
2.6613

> <Gold.Chemscore.Metal>
0.0000

> <Gold.Chemscore.Lipo>
110.9050

> <Gold.Chemscore.Internal_Hbond>
0.0000

> <Gold.Chemscore.DEClash>
0.1711

> <Gold.Chemscore.DEInternal>
0.6099

> <Gold.Chemscore.Rot>
1.4227

> <Gold.Chemscore.Internal.Correction>
   9.000000E+99

> <Gold.Chemscore.Hbonds>
donor molecule, donor type, donor heavy atom, donor atom, acceptor molecule, acceptor atom, score
      L1  H     9    27       P1  8029  0.99
      P1  H  6933  6944       L1     8  0.88
      P1  H  6934  6946       L1     8  0.79

> <Gold.Chemscore.Hbond.Weighted>
-8.8887

> <Gold.Chemscore.Metal.Weighted>
-0.0000

> <Gold.Chemscore.Lipo.Weighted>
-12.9759

> <Gold.Chemscore.Internal_Hbond.Weighted>
0.0000

> <Gold.Chemscore.DEClash.Weighted>
0.1711

> <Gold.Chemscore.DEInternal.Weighted>
0.6099

> <Gold.Chemscore.Rot.Weighted>
3.6421

> <Gold.Chemscore.Internal.Correction.Weighted>
   9.000000E+99

> <Gold.Protein.RotatedTorsions>
[ 6907 6896 6895 6894 ] final   38.78 input  -60.11 | X-H torsion
[ 7974 7965 7964 7962 ] final  -25.81 input  175.53 | X-H torsion
[ 8008 7997 7996 7995 ] final -150.59 input   59.86 | X-H torsion
[ 10167 10162 10161 10158 ] final -156.48 input  -65.29 | X-H torsion
[ 10718 10713 10712 10709 ] final    2.81 input   66.30 | X-H torsion
[ 10763 10752 10751 10750 ] final  -49.99 input  -60.55 | X-H torsion
[ 11005 11000 10999 10996 ] final -123.78 input  -57.11 | X-H torsion

> <Gold.Protein.ActiveResidues>
 VAL166  LYS551  ARG553  GLY616  TRP617  ASP618  TYR619  PRO620  LYS621  CYS622 
 ASP623  PHE694  ASN695  SER759  ASP760  ASP761  ALA762  ILE779  LEU786  VAL792 
 PHE793  MET794  SER795  GLU796  ALA797  LYS798  CYS799  TRP800  GLU811  SER814 

> <Gold.Protein.RotatedAtoms>
  152.1609  134.8913  160.0541 H   0  0  0  0  0  0  0  0  0  0  0  0  # atno 6907 bound_to 6896
  151.9909  133.3785  159.4152 H   0  0  0  0  0  0  0  0  0  0  0  0  # atno 6908 bound_to 6896
  150.6888  134.3860  159.5099 H   0  0  0  0  0  0  0  0  0  0  0  0  # atno 6909 bound_to 6896
  146.1466  140.4937  142.8629 H   0  0  0  0  0  0  0  0  0  0  0  0  # atno 7974 bound_to 7965
  155.6260  140.0686  157.2663 H   0  0  0  0  0  0  0  0  0  0  0  0  # atno 8008 bound_to 7997
  154.4217  140.1776  156.1470 H   0  0  0  0  0  0  0  0  0  0  0  0  # atno 8009 bound_to 7997
  155.9971  140.3339  155.6813 H   0  0  0  0  0  0  0  0  0  0  0  0  # atno 8010 bound_to 7997
  139.6846  143.9522  152.2355 H   0  0  0  0  0  0  0  0  0  0  0  0  # atno 10167 bound_to 10162
  156.8685  130.5611  149.5658 H   0  0  0  0  0  0  0  0  0  0  0  0  # atno 10718 bound_to 10713
  154.1032  135.6560  153.4872 H   0  0  0  0  0  0  0  0  0  0  0  0  # atno 10763 bound_to 10752
  153.0281  135.5230  154.7266 H   0  0  0  0  0  0  0  0  0  0  0  0  # atno 10764 bound_to 10752
  154.6424  135.2990  155.0056 H   0  0  0  0  0  0  0  0  0  0  0  0  # atno 10765 bound_to 10752
  140.9892  134.0563  157.3674 H   0  0  0  0  0  0  0  0  0  0  0  0  # atno 11005 bound_to 11000
  144.7854  140.5926  143.6577 LP  0  0  0  0  0  0  0  0  0  0  0  0  # atno 17320 bound_to 7965
  145.4922  139.1488  143.3703 LP  0  0  0  0  0  0  0  0  0  0  0  0  # atno 17321 bound_to 7965
  139.9322  144.6734  150.8351 LP  0  0  0  0  0  0  0  0  0  0  0  0  # atno 17342 bound_to 10162
  140.7663  143.3301  151.2429 LP  0  0  0  0  0  0  0  0  0  0  0  0  # atno 17343 bound_to 10162
  156.0739  130.5765  150.9436 LP  0  0  0  0  0  0  0  0  0  0  0  0  # atno 17370 bound_to 10713
  157.6209  131.0929  150.8623 LP  0  0  0  0  0  0  0  0  0  0  0  0  # atno 17371 bound_to 10713
  139.8984  135.0154  156.7149 LP  0  0  0  0  0  0  0  0  0  0  0  0  # atno 17394 bound_to 11000
  140.7066  133.9260  155.8058 LP  0  0  0  0  0  0  0  0  0  0  0  0  # atno 17395 bound_to 11000

$$$$
