AV-unprocessed.smi:2498|AV-procd|sdf|9830|dock1
  -GOLD-   2272013463D 1   1.00000     0.00000
 Structure written by MMmdl.
 36 36  0  0  0  0  0  0  0  0  2 V2000
  146.5142  136.5213  157.5556 C   0  0  0  0  0  0  0  0  0  0  0  0
  146.6325  136.4198  159.0500 C   0  0  0  0  0  0  0  0  0  0  0  0
  145.5358  136.2249  159.7621 N   0  0  0  0  0  0  0  0  0  0  0  0
  145.9618  136.1321  161.0387 N   0  0  0  0  0  0  0  0  0  0  0  0
  144.9959  135.9355  162.1060 C   0  0  0  0  0  0  0  0  0  0  0  0
  143.7616  135.9348  161.6033 F   0  0  0  0  0  0  0  0  0  0  0  0
  145.2256  134.7878  162.7462 F   0  0  0  0  0  0  0  0  0  0  0  0
  147.3283  136.3110  161.1351 C   0  0  0  0  0  0  0  0  0  0  0  0
  148.0441  136.2750  162.4465 C   0  0  0  0  0  0  0  0  0  0  0  0
  147.8027  136.4950  159.8636 C   0  0  0  0  0  0  0  0  0  0  0  0
  149.2287  136.7103  159.4178 C   0  0  0  0  0  0  0  0  0  0  0  0
  149.2905  137.8924  158.4507 C   0  0  0  0  0  0  0  0  0  0  0  0
  148.4088  138.7495  158.4874 O   0  0  0  0  0  0  0  0  0  0  0  0
  150.3427  137.8961  157.6113 N   0  0  0  0  0  0  0  0  0  0  0  0
  150.8251  138.8911  156.6433 C   0  0  0  0  0  0  0  0  0  0  0  0
  149.6885  139.1531  155.6311 C   0  0  0  0  0  0  0  0  0  0  0  0
  151.2670  140.2425  157.2649 C   0  0  0  0  0  0  0  0  0  0  0  0
  152.0315  138.2295  155.9366 C   0  0  0  0  0  0  0  0  0  0  0  0
  153.1376  138.8126  155.9908 O   0  0  0  0  0  0  0  0  0  0  0  0
  151.8473  137.1197  155.3874 O   0  5  0  0  0  0  0  0  0  0  0  0
  147.4626  136.7909  157.0922 H   0  0  0  0  0  0  0  0  0  0  0  0
  145.7812  137.2755  157.2685 H   0  0  0  0  0  0  0  0  0  0  0  0
  146.1997  135.5698  157.1257 H   0  0  0  0  0  0  0  0  0  0  0  0
  145.0682  136.7405  162.8374 H   0  0  0  0  0  0  0  0  0  0  0  0
  149.0899  136.5600  162.3366 H   0  0  0  0  0  0  0  0  0  0  0  0
  148.0166  135.2720  162.8723 H   0  0  0  0  0  0  0  0  0  0  0  0
  147.5848  136.9600  163.1594 H   0  0  0  0  0  0  0  0  0  0  0  0
  149.8904  136.9066  160.2616 H   0  0  0  0  0  0  0  0  0  0  0  0
  149.6315  135.8236  158.9276 H   0  0  0  0  0  0  0  0  0  0  0  0
  150.9652  137.1077  157.7131 H   0  0  0  0  0  0  0  0  0  0  0  0
  150.0198  139.8015  154.8189 H   0  0  0  0  0  0  0  0  0  0  0  0
  148.8426  139.6430  156.1140 H   0  0  0  0  0  0  0  0  0  0  0  0
  149.3111  138.2308  155.1867 H   0  0  0  0  0  0  0  0  0  0  0  0
  151.6978  140.9002  156.5088 H   0  0  0  0  0  0  0  0  0  0  0  0
  152.0165  140.1153  158.0475 H   0  0  0  0  0  0  0  0  0  0  0  0
  150.4220  140.7767  157.6998 H   0  0  0  0  0  0  0  0  0  0  0  0
  1  2  1  0  0  0  0
  1 21  1  0  0  0  0
  1 22  1  0  0  0  0
  1 23  1  0  0  0  0
  2 10  1  0  0  0  0
  2  3  2  0  0  0  0
  3  4  1  0  0  0  0
  4  5  1  0  0  0  0
  4  8  1  0  0  0  0
  5  6  1  0  0  0  0
  5  7  1  0  0  0  0
  5 24  1  0  0  0  0
  8  9  1  0  0  0  0
  8 10  2  0  0  0  0
  9 25  1  0  0  0  0
  9 26  1  0  0  0  0
  9 27  1  0  0  0  0
 10 11  1  0  0  0  0
 11 12  1  0  0  0  0
 11 28  1  0  0  0  0
 11 29  1  0  0  0  0
 12 13  2  0  0  0  0
 12 14  1  0  0  0  0
 14 15  1  0  0  0  0
 14 30  1  0  0  0  0
 15 16  1  0  0  0  0
 15 17  1  0  0  0  0
 15 18  1  0  0  0  0
 16 31  1  0  0  0  0
 16 32  1  0  0  0  0
 16 33  1  0  0  0  0
 17 34  1  0  0  0  0
 17 35  1  0  0  0  0
 17 36  1  0  0  0  0
 18 19  2  0  0  0  0
 18 20  1  0  0  0  0
M  CHG  1  20  -1
M  END
> <s_m_source_file>
AV-unprocessed.smi

> <i_m_source_file_index>
2498

> <i_lp_mmshare_version>
43012

> <i_f3d_flags>
0

> <s_epik_input>
W0NIM11jMW5uKFtDSF0oRilGKWMoW0NIM10pYzFbQ0gyXUMoPU8pW05IXUMoW0NIM10pKFtDSDNdKUMoPU8pW09IXQ==

> <s_epik_cmdline>
J2VwaWtfcHl0aG9uJywgJy1waCcsICc3LjAnLCAnLXRuJywgJzgnLCAnLW1hJywgJzIwMCcsICctbWV0YWxfYmluZGluZycsICctaW1hZScsICc8aW5maWxlLm1hZT4nLCAnLW9tYWUnLCAnPG91dGZpbGUubWFlPic=

> <r_lp_tautomer_probability>
1

> <r_epik_Ionization_Penalty>
0.000275972

> <r_epik_Ionization_Penalty_Charging>
0.000275542

> <r_epik_Ionization_Penalty_Neutral>
4.29922e-07

> <r_epik_State_Penalty>
-0

> <r_epik_Charging_Adjusted_Penalty>
0.000275542

> <i_epik_Tot_Q>
-1

> <i_epik_Tot_abs_Q>
1

> <r_epik_Metal_State_Penalty>
-0

> <b_epik_Metal_Only>
0

> <s_lp_Force_Field>
OPLS_2005

> <r_lp_Energy>
1.362

> <b_lp_Chiralities_Consistent>
1

> <s_lp_Variant>
AV-unprocessed.smi:2498-1

> <Gold.Version>
5.8.1

> <Gold.Id.Protein>
6NUR|6NUR_protein|mol2

> <Gold.PLP.Fitness>
35.9426

> <Gold.PLP.PLP>
-24.9040

> <Gold.PLP.part.hbond>
-3.0000

> <Gold.PLP.part.metal>
0.0000

> <Gold.PLP.part.buried>
-4.5228

> <Gold.PLP.part.nonpolar>
-17.4747

> <Gold.PLP.part.repulsive>
0.1018

> <Gold.PLP.ligand.clash>
0.0000

> <Gold.PLP.ligand.torsion>
0.5258

> <Gold.PLP.Chemscore.Hbond>
4.0000

> <Gold.PLP.Chemscore.CHOScore>
0.0000

> <Gold.PLP.Chemscore.Metal>
0.0000

> <Gold.Chemscore.Hbonds>
donor molecule, donor type, donor heavy atom, donor atom, acceptor molecule, acceptor atom, score
      P1  H  7997  8008       L1    19  2.00
      P1  H 10752 10764       L1    20  2.00

> <Gold.PLP.Chemscore.Internal.Correction>
0.0901

> <Gold.Rescore>
     Score         DG    S(hbond)    S(metal)    S(lipo)     H(rot)  DE(clash)    DE(int)     intcor
     11.44     -11.84       1.91        0.00      46.86       2.15       0.00       0.40       ----

> <Gold.Chemscore.Fitness>
11.4424

> <Gold.Chemscore.DG>
-11.8439

> <Gold.Chemscore.ZeroCoef>
-5.4800

> <Gold.Chemscore.Hbond>
1.9119

> <Gold.Chemscore.Metal>
0.0000

> <Gold.Chemscore.Lipo>
46.8591

> <Gold.Chemscore.Internal_Hbond>
0.0000

> <Gold.Chemscore.DEClash>
0.0000

> <Gold.Chemscore.DEInternal>
0.4016

> <Gold.Chemscore.Rot>
2.1501

> <Gold.Chemscore.Internal.Correction>
   9.000000E+99

> <Gold.Chemscore.Hbonds>
donor molecule, donor type, donor heavy atom, donor atom, acceptor molecule, acceptor atom, score
      P1  H  7997  8008       L1    19  0.98
      P1  H 10752 10764       L1    20  0.90

> <Gold.Chemscore.Hbond.Weighted>
-6.3857

> <Gold.Chemscore.Metal.Weighted>
-0.0000

> <Gold.Chemscore.Lipo.Weighted>
-5.4825

> <Gold.Chemscore.Internal_Hbond.Weighted>
0.0000

> <Gold.Chemscore.DEClash.Weighted>
0.0000

> <Gold.Chemscore.DEInternal.Weighted>
0.4016

> <Gold.Chemscore.Rot.Weighted>
5.5043

> <Gold.Chemscore.Internal.Correction.Weighted>
   9.000000E+99

> <Gold.Protein.RotatedTorsions>
[ 6907 6896 6895 6894 ] final   38.50 input  -60.11 | X-H torsion
[ 7974 7965 7964 7962 ] final -111.44 input  175.53 | X-H torsion
[ 8008 7997 7996 7995 ] final  -44.41 input   59.86 | X-H torsion
[ 10167 10162 10161 10158 ] final -141.30 input  -65.29 | X-H torsion
[ 10718 10713 10712 10709 ] final -178.61 input   66.30 | X-H torsion
[ 10763 10752 10751 10750 ] final  -53.07 input  -60.55 | X-H torsion
[ 11005 11000 10999 10996 ] final -139.03 input  -57.11 | X-H torsion

> <Gold.Protein.ActiveResidues>
 VAL166  LYS551  ARG553  GLY616  TRP617  ASP618  TYR619  PRO620  LYS621  CYS622 
 ASP623  PHE694  ASN695  SER759  ASP760  ASP761  ALA762  ILE779  LEU786  VAL792 
 PHE793  MET794  SER795  GLU796  ALA797  LYS798  CYS799  TRP800  GLU811  SER814 

> <Gold.Protein.RotatedAtoms>
  152.1573  134.8941  160.0543 H   0  0  0  0  0  0  0  0  0  0  0  0  # atno 6907 bound_to 6896
  151.9950  133.3799  159.4167 H   0  0  0  0  0  0  0  0  0  0  0  0  # atno 6908 bound_to 6896
  150.6883  134.3818  159.5081 H   0  0  0  0  0  0  0  0  0  0  0  0  # atno 6909 bound_to 6896
  145.1561  140.8854  143.3618 H   0  0  0  0  0  0  0  0  0  0  0  0  # atno 7974 bound_to 7965
  154.3997  140.1423  156.3678 H   0  0  0  0  0  0  0  0  0  0  0  0  # atno 8008 bound_to 7997
  155.8121  140.3472  155.5443 H   0  0  0  0  0  0  0  0  0  0  0  0  # atno 8009 bound_to 7997
  155.8376  140.0921  157.1745 H   0  0  0  0  0  0  0  0  0  0  0  0  # atno 8010 bound_to 7997
  139.8198  143.7589  152.2666 H   0  0  0  0  0  0  0  0  0  0  0  0  # atno 10167 bound_to 10162
  156.8469  130.9705  151.3095 H   0  0  0  0  0  0  0  0  0  0  0  0  # atno 10718 bound_to 10713
  154.1528  135.6487  153.4967 H   0  0  0  0  0  0  0  0  0  0  0  0  # atno 10763 bound_to 10752
  153.0133  135.5342  154.6790 H   0  0  0  0  0  0  0  0  0  0  0  0  # atno 10764 bound_to 10752
  154.6083  135.2951  155.0432 H   0  0  0  0  0  0  0  0  0  0  0  0  # atno 10765 bound_to 10752
  140.8559  134.2228  157.4734 H   0  0  0  0  0  0  0  0  0  0  0  0  # atno 11005 bound_to 11000
  145.0380  139.3284  143.5991 LP  0  0  0  0  0  0  0  0  0  0  0  0  # atno 17320 bound_to 7965
  146.3488  139.9742  142.8703 LP  0  0  0  0  0  0  0  0  0  0  0  0  # atno 17321 bound_to 7965
  139.7764  144.7459  151.0151 LP  0  0  0  0  0  0  0  0  0  0  0  0  # atno 17342 bound_to 10162
  140.7814  143.4589  151.0306 LP  0  0  0  0  0  0  0  0  0  0  0  0  # atno 17343 bound_to 10162
  157.6325  130.8740  149.9299 LP  0  0  0  0  0  0  0  0  0  0  0  0  # atno 17370 bound_to 10713
  156.0849  130.3669  150.0506 LP  0  0  0  0  0  0  0  0  0  0  0  0  # atno 17371 bound_to 10713
  139.8705  134.9706  156.4708 LP  0  0  0  0  0  0  0  0  0  0  0  0  # atno 17394 bound_to 11000
  140.8737  133.7969  155.9392 LP  0  0  0  0  0  0  0  0  0  0  0  0  # atno 17395 bound_to 11000

$$$$
