AV-unprocessed.smi:430|AV-procd|sdf|2546|dock6
  -GOLD-   2262022513D 1   1.00000     0.00000
 Structure written by MMmdl.
 37 38  0  0  0  0  0  0  0  0  1 V2000
  149.4398  133.8767  153.9681 C   0  0  0  0  0  0  0  0  0  0  0  0
  149.4731  134.7933  155.2011 C   0  0  0  0  0  0  0  0  0  0  0  0
  150.6309  135.7968  155.1938 C   0  0  0  0  0  0  0  0  0  0  0  0
  151.5435  135.7212  156.0173 O   0  0  0  0  0  0  0  0  0  0  0  0
  150.5760  136.7436  154.2449 N   0  0  0  0  0  0  0  0  0  0  0  0
  151.5740  137.7905  154.0453 C   0  0  0  0  0  0  0  0  0  0  0  0
  151.7375  138.7576  155.2109 C   0  0  0  0  0  0  0  0  0  0  0  0
  150.7032  139.6615  155.5202 C   0  0  0  0  0  0  0  0  0  0  0  0
  150.8599  140.5423  156.6072 C   0  0  0  0  0  0  0  0  0  0  0  0
  152.0568  140.4992  157.3660 C   0  0  0  0  0  0  0  0  0  0  0  0
  152.2768  141.3484  158.4743 N   0  0  0  0  0  0  0  0  0  0  0  0
  152.7660  140.7629  159.7197 C   0  0  0  0  0  0  0  0  0  0  0  0
  153.2547  141.8619  160.6784 C   0  0  0  0  0  0  0  0  0  0  0  0
  152.2199  142.8171  160.8824 O   0  0  0  0  0  0  0  0  0  0  0  0
  151.8587  143.4669  159.6688 C   0  0  0  0  0  0  0  0  0  0  0  0
  151.3165  142.4351  158.6649 C   0  0  0  0  0  0  0  0  0  0  0  0
  153.0466  139.6232  157.0672 N   0  0  0  0  0  0  0  0  0  0  0  0
  152.8900  138.7799  156.0256 C   0  0  0  0  0  0  0  0  0  0  0  0
  148.5895  133.1966  154.0176 H   0  0  0  0  0  0  0  0  0  0  0  0
  150.3429  133.2693  153.8988 H   0  0  0  0  0  0  0  0  0  0  0  0
  149.3468  134.4514  153.0459 H   0  0  0  0  0  0  0  0  0  0  0  0
  148.5357  135.3465  155.2675 H   0  0  0  0  0  0  0  0  0  0  0  0
  149.5431  134.1856  156.1042 H   0  0  0  0  0  0  0  0  0  0  0  0
  149.7914  136.7341  153.6092 H   0  0  0  0  0  0  0  0  0  0  0  0
  152.5385  137.3364  153.8114 H   0  0  0  0  0  0  0  0  0  0  0  0
  151.2854  138.3665  153.1661 H   0  0  0  0  0  0  0  0  0  0  0  0
  149.7978  139.6826  154.9314 H   0  0  0  0  0  0  0  0  0  0  0  0
  150.0632  141.2365  156.8270 H   0  0  0  0  0  0  0  0  0  0  0  0
  151.9656  140.1872  160.1862 H   0  0  0  0  0  0  0  0  0  0  0  0
  153.5922  140.0799  159.5192 H   0  0  0  0  0  0  0  0  0  0  0  0
  153.5306  141.4258  161.6385 H   0  0  0  0  0  0  0  0  0  0  0  0
  154.1461  142.3534  160.2849 H   0  0  0  0  0  0  0  0  0  0  0  0
  151.0976  144.2176  159.8816 H   0  0  0  0  0  0  0  0  0  0  0  0
  152.7193  143.9958  159.2557 H   0  0  0  0  0  0  0  0  0  0  0  0
  151.0927  142.9448  157.7278 H   0  0  0  0  0  0  0  0  0  0  0  0
  150.3791  142.0145  159.0307 H   0  0  0  0  0  0  0  0  0  0  0  0
  153.7133  138.1040  155.8483 H   0  0  0  0  0  0  0  0  0  0  0  0
  1  2  1  0  0  0  0
  1 19  1  0  0  0  0
  1 20  1  0  0  0  0
  1 21  1  0  0  0  0
  2  3  1  0  0  0  0
  2 22  1  0  0  0  0
  2 23  1  0  0  0  0
  3  4  2  0  0  0  0
  3  5  1  0  0  0  0
  5  6  1  0  0  0  0
  5 24  1  0  0  0  0
  6  7  1  0  0  0  0
  6 25  1  0  0  0  0
  6 26  1  0  0  0  0
  7 18  1  0  0  0  0
  7  8  2  0  0  0  0
  8  9  1  0  0  0  0
  8 27  1  0  0  0  0
  9 10  2  0  0  0  0
  9 28  1  0  0  0  0
 10 11  1  0  0  0  0
 10 17  1  0  0  0  0
 11 16  1  0  0  0  0
 11 12  1  0  0  0  0
 12 13  1  0  0  0  0
 12 29  1  0  0  0  0
 12 30  1  0  0  0  0
 13 14  1  0  0  0  0
 13 31  1  0  0  0  0
 13 32  1  0  0  0  0
 14 15  1  0  0  0  0
 15 16  1  0  0  0  0
 15 33  1  0  0  0  0
 15 34  1  0  0  0  0
 16 35  1  0  0  0  0
 16 36  1  0  0  0  0
 17 18  2  0  0  0  0
 18 37  1  0  0  0  0
M  END
> <s_m_source_file>
AV-unprocessed.smi

> <i_m_source_file_index>
430

> <i_lp_mmshare_version>
43012

> <i_f3d_flags>
0

> <s_epik_input>
W0NIM11bQ0gyXUMoPU8pW05IXVtDSDJdYzFbY0hdW2NIXWMobltjSF0xKU4yW0NIMl1bQ0gyXU9bQ0gyXVtDSDJdMg==

> <s_epik_cmdline>
J2VwaWtfcHl0aG9uJywgJy1waCcsICc3LjAnLCAnLXRuJywgJzgnLCAnLW1hJywgJzIwMCcsICctbWV0YWxfYmluZGluZycsICctaW1hZScsICc8aW5maWxlLm1hZT4nLCAnLW9tYWUnLCAnPG91dGZpbGUubWFlPic=

> <r_lp_tautomer_probability>
1

> <r_epik_Ionization_Penalty>
0.00505548

> <r_epik_Ionization_Penalty_Charging>
0

> <r_epik_Ionization_Penalty_Neutral>
0.00505548

> <r_epik_State_Penalty>
0.00367784

> <r_epik_Charging_Adjusted_Penalty>
0.00367784

> <i_epik_Tot_Q>
0

> <i_epik_Tot_abs_Q>
0

> <r_epik_Metal_State_Penalty>
-0

> <b_epik_Metal_Only>
0

> <s_lp_Force_Field>
OPLS_2005

> <r_lp_Energy>
16.0515

> <b_lp_Chiralities_Consistent>
1

> <s_lp_Variant>
AV-unprocessed.smi:430-1

> <Gold.Version>
5.8.1

> <Gold.Id.Protein>
6NUR|6NUR_protein|mol2

> <Gold.PLP.Fitness>
42.9409

> <Gold.PLP.PLP>
-34.2264

> <Gold.PLP.part.hbond>
-3.7917

> <Gold.PLP.part.metal>
0.0000

> <Gold.PLP.part.buried>
-1.6121

> <Gold.PLP.part.nonpolar>
-28.7206

> <Gold.PLP.part.repulsive>
0.1502

> <Gold.PLP.ligand.clash>
0.0000

> <Gold.PLP.ligand.torsion>
0.3625

> <Gold.PLP.Chemscore.Hbond>
2.9920

> <Gold.PLP.Chemscore.CHOScore>
0.0000

> <Gold.PLP.Chemscore.Metal>
0.0000

> <Gold.Chemscore.Hbonds>
donor molecule, donor type, donor heavy atom, donor atom, acceptor molecule, acceptor atom, score
      L1  H     5    24       P1  7948  0.99
      P1  H  7997  8010       L1    17  1.00
      P1  H 10752 10765       L1     4  1.00

> <Gold.PLP.Chemscore.Internal.Correction>
0.4635

> <Gold.Rescore>
     Score         DG    S(hbond)    S(metal)    S(lipo)     H(rot)  DE(clash)    DE(int)     intcor
     17.60     -18.00       2.07        0.00      83.40       1.62       0.09       0.31       ----

> <Gold.Chemscore.Fitness>
17.5998

> <Gold.Chemscore.DG>
-18.0007

> <Gold.Chemscore.ZeroCoef>
-5.4800

> <Gold.Chemscore.Hbond>
2.0673

> <Gold.Chemscore.Metal>
0.0000

> <Gold.Chemscore.Lipo>
83.3959

> <Gold.Chemscore.Internal_Hbond>
0.0000

> <Gold.Chemscore.DEClash>
0.0911

> <Gold.Chemscore.DEInternal>
0.3097

> <Gold.Chemscore.Rot>
1.6178

> <Gold.Chemscore.Internal.Correction>
   9.000000E+99

> <Gold.Chemscore.Hbonds>
donor molecule, donor type, donor heavy atom, donor atom, acceptor molecule, acceptor atom, score
      L1  H     5    24       P1  7948  0.42
      P1  H  7997  8010       L1    17  0.31
      P1  H 10752 10765       L1     4  0.65

> <Gold.Chemscore.Hbond.Weighted>
-6.9049

> <Gold.Chemscore.Metal.Weighted>
-0.0000

> <Gold.Chemscore.Lipo.Weighted>
-9.7573

> <Gold.Chemscore.Internal_Hbond.Weighted>
0.0000

> <Gold.Chemscore.DEClash.Weighted>
0.0911

> <Gold.Chemscore.DEInternal.Weighted>
0.3097

> <Gold.Chemscore.Rot.Weighted>
4.1416

> <Gold.Chemscore.Internal.Correction.Weighted>
   9.000000E+99

> <Gold.Protein.RotatedTorsions>
[ 6907 6896 6895 6894 ] final  163.36 input  -60.11 | X-H torsion
[ 7974 7965 7964 7962 ] final -139.69 input  175.53 | X-H torsion
[ 8008 7997 7996 7995 ] final   40.13 input   59.86 | X-H torsion
[ 10167 10162 10161 10158 ] final  -70.96 input  -65.29 | X-H torsion
[ 10718 10713 10712 10709 ] final   29.37 input   66.30 | X-H torsion
[ 10763 10752 10751 10750 ] final -148.64 input  -60.55 | X-H torsion
[ 11005 11000 10999 10996 ] final   94.95 input  -57.11 | X-H torsion

> <Gold.Protein.ActiveResidues>
 VAL166  LYS551  ARG553  GLY616  TRP617  ASP618  TYR619  PRO620  LYS621  CYS622 
 ASP623  PHE694  ASN695  SER759  ASP760  ASP761  ALA762  ILE779  LEU786  VAL792 
 PHE793  MET794  SER795  GLU796  ALA797  LYS798  CYS799  TRP800  GLU811  SER814 

> <Gold.Protein.RotatedAtoms>
  151.9264  133.3599  159.3915 H   0  0  0  0  0  0  0  0  0  0  0  0  # atno 6907 bound_to 6896
  150.7026  134.4582  159.5377 H   0  0  0  0  0  0  0  0  0  0  0  0  # atno 6908 bound_to 6896
  152.2215  134.8408  160.0536 H   0  0  0  0  0  0  0  0  0  0  0  0  # atno 6909 bound_to 6896
  144.8656  140.6288  143.5300 H   0  0  0  0  0  0  0  0  0  0  0  0  # atno 7974 bound_to 7965
  155.2481  140.3350  155.4285 H   0  0  0  0  0  0  0  0  0  0  0  0  # atno 8008 bound_to 7997
  156.2227  140.1816  156.7482 H   0  0  0  0  0  0  0  0  0  0  0  0  # atno 8009 bound_to 7997
  154.5850  140.0647  156.9144 H   0  0  0  0  0  0  0  0  0  0  0  0  # atno 8010 bound_to 7997
  140.5311  143.2321  151.7261 H   0  0  0  0  0  0  0  0  0  0  0  0  # atno 10167 bound_to 10162
  157.2457  130.7091  149.6380 H   0  0  0  0  0  0  0  0  0  0  0  0  # atno 10718 bound_to 10713
  154.8221  135.3329  154.7006 H   0  0  0  0  0  0  0  0  0  0  0  0  # atno 10763 bound_to 10752
  153.7637  135.6930  153.4925 H   0  0  0  0  0  0  0  0  0  0  0  0  # atno 10764 bound_to 10752
  153.2092  135.4488  155.0309 H   0  0  0  0  0  0  0  0  0  0  0  0  # atno 10765 bound_to 10752
  139.8793  134.8873  156.3939 H   0  0  0  0  0  0  0  0  0  0  0  0  # atno 11005 bound_to 11000
  145.4227  139.1561  143.4065 LP  0  0  0  0  0  0  0  0  0  0  0  0  # atno 17320 bound_to 7965
  146.2893  140.4338  142.8745 LP  0  0  0  0  0  0  0  0  0  0  0  0  # atno 17321 bound_to 7965
  139.4954  144.4113  152.0078 LP  0  0  0  0  0  0  0  0  0  0  0  0  # atno 17342 bound_to 10162
  140.3215  144.3422  150.6008 LP  0  0  0  0  0  0  0  0  0  0  0  0  # atno 17343 bound_to 10162
  155.9668  130.4444  150.5458 LP  0  0  0  0  0  0  0  0  0  0  0  0  # atno 17370 bound_to 10713
  157.3331  131.0703  151.1845 LP  0  0  0  0  0  0  0  0  0  0  0  0  # atno 17371 bound_to 10713
  140.9314  133.7577  156.0029 LP  0  0  0  0  0  0  0  0  0  0  0  0  # atno 17394 bound_to 11000
  140.8326  134.3160  157.5343 LP  0  0  0  0  0  0  0  0  0  0  0  0  # atno 17395 bound_to 11000

$$$$
