AV-unprocessed.smi:150|AV-procd|sdf|1242|dock6
  -GOLD-   2262018463D 1   1.00000     0.00000
 Structure written by MMmdl.
 55 57  0  0  0  0  0  0  0  0  1 V2000
  152.9635  138.6077  154.7538 C   0  0  0  0  0  0  0  0  0  0  0  0
  151.5509  139.1348  155.0609 C   0  0  0  0  0  0  0  0  0  0  0  0
  151.2700  139.0465  156.5691 C   0  0  0  0  0  0  0  0  0  0  0  0
  150.4548  138.3909  154.2634 C   0  0  0  0  0  0  0  0  0  0  0  0
  149.0186  138.9657  154.3949 C   0  0  2  0  0  0  0  0  0  0  0  0
  148.9805  140.5144  154.4073 C   0  0  0  0  0  0  0  0  0  0  0  0
  149.6023  141.0211  153.2452 O   0  0  0  0  0  0  0  0  0  0  0  0
  148.2878  138.3680  155.5255 N   0  0  0  0  0  0  0  0  0  0  0  0
  148.1124  139.1830  156.7240 C   0  0  0  0  0  0  0  0  0  0  0  0
  147.3375  137.4075  155.3643 C   0  0  0  0  0  0  0  0  0  0  0  0
  147.0415  136.5565  156.3818 N   0  0  0  0  0  0  0  0  0  0  0  0
  146.1216  135.6009  156.2232 C   0  0  0  0  0  0  0  0  0  0  0  0
  145.3910  135.3176  155.1440 N   0  0  0  0  0  0  0  0  0  0  0  0
  145.6851  136.1615  154.1143 C   0  0  0  0  0  0  0  0  0  0  0  0
  146.6335  137.2237  154.1391 C   0  0  0  0  0  0  0  0  0  0  0  0
  146.6452  137.8723  152.9094 N   0  0  0  0  0  0  0  0  0  0  0  0
  145.7605  137.2285  152.1990 C   0  0  0  0  0  0  0  0  0  0  0  0
  145.1427  136.1794  152.8410 N   0  0  0  0  0  0  0  0  0  0  0  0
  144.1250  135.2987  152.2876 C   0  0  0  0  0  0  0  0  0  0  0  0
  144.6150  134.4299  151.1019 C   0  0  0  0  0  0  0  0  0  0  0  0
  144.6038  135.2379  149.9378 O   0  0  0  0  0  0  0  0  0  0  0  0
  146.0609  133.9547  151.3505 C   0  0  0  0  0  0  0  0  0  0  0  0
  146.5328  132.9440  150.2902 C   0  0  0  0  0  0  0  0  0  0  0  0
  145.6305  131.8463  150.2298 O   0  0  0  0  0  0  0  0  0  0  0  0
  144.3242  132.2328  149.8216 C   0  0  0  0  0  0  0  0  0  0  0  0
  143.7128  133.2017  150.8494 C   0  0  0  0  0  0  0  0  0  0  0  0
  153.0379  137.5370  154.9467 H   0  0  0  0  0  0  0  0  0  0  0  0
  153.7100  139.1073  155.3719 H   0  0  0  0  0  0  0  0  0  0  0  0
  153.2453  138.7806  153.7159 H   0  0  0  0  0  0  0  0  0  0  0  0
  151.5268  140.1921  154.8005 H   0  0  0  0  0  0  0  0  0  0  0  0
  151.2863  138.0127  156.9160 H   0  0  0  0  0  0  0  0  0  0  0  0
  150.2930  139.4642  156.8139 H   0  0  0  0  0  0  0  0  0  0  0  0
  152.0141  139.6012  157.1413 H   0  0  0  0  0  0  0  0  0  0  0  0
  150.7517  138.3804  153.2138 H   0  0  0  0  0  0  0  0  0  0  0  0
  150.4493  137.3462  154.5738 H   0  0  0  0  0  0  0  0  0  0  0  0
  148.4680  138.6509  153.5093 H   0  0  0  0  0  0  0  0  0  0  0  0
  147.9752  140.9223  154.4969 H   0  0  0  0  0  0  0  0  0  0  0  0
  149.5420  140.9069  155.2532 H   0  0  0  0  0  0  0  0  0  0  0  0
  149.2825  140.5378  152.4988 H   0  0  0  0  0  0  0  0  0  0  0  0
  148.5951  138.7093  157.5787 H   0  0  0  0  0  0  0  0  0  0  0  0
  147.0561  139.3239  156.9579 H   0  0  0  0  0  0  0  0  0  0  0  0
  148.5576  140.1705  156.6002 H   0  0  0  0  0  0  0  0  0  0  0  0
  145.9475  134.9725  157.0841 H   0  0  0  0  0  0  0  0  0  0  0  0
  145.5369  137.4993  151.1773 H   0  0  0  0  0  0  0  0  0  0  0  0
  143.7444  134.6656  153.0907 H   0  0  0  0  0  0  0  0  0  0  0  0
  143.2863  135.9199  151.9702 H   0  0  0  0  0  0  0  0  0  0  0  0
  145.3613  135.0240  149.4150 H   0  0  0  0  0  0  0  0  0  0  0  0
  146.7429  134.8055  151.3868 H   0  0  0  0  0  0  0  0  0  0  0  0
  146.1195  133.4761  152.3291 H   0  0  0  0  0  0  0  0  0  0  0  0
  146.6208  133.4126  149.3088 H   0  0  0  0  0  0  0  0  0  0  0  0
  147.5228  132.5685  150.5494 H   0  0  0  0  0  0  0  0  0  0  0  0
  144.3594  132.6833  148.8286 H   0  0  0  0  0  0  0  0  0  0  0  0
  143.7049  131.3396  149.7393 H   0  0  0  0  0  0  0  0  0  0  0  0
  143.5673  132.6647  151.7877 H   0  0  0  0  0  0  0  0  0  0  0  0
  142.7217  133.5087  150.5139 H   0  0  0  0  0  0  0  0  0  0  0  0
  1  2  1  0  0  0  0
  1 27  1  0  0  0  0
  1 28  1  0  0  0  0
  1 29  1  0  0  0  0
  2  3  1  0  0  0  0
  2  4  1  0  0  0  0
  2 30  1  0  0  0  0
  3 31  1  0  0  0  0
  3 32  1  0  0  0  0
  3 33  1  0  0  0  0
  4  5  1  0  0  0  0
  4 34  1  0  0  0  0
  4 35  1  0  0  0  0
  5  6  1  0  0  0  0
  5  8  1  0  0  0  0
  5 36  1  0  0  0  0
  6  7  1  0  0  0  0
  6 37  1  0  0  0  0
  6 38  1  0  0  0  0
  7 39  1  0  0  0  0
  8  9  1  0  0  0  0
  8 10  1  0  0  0  0
  9 40  1  0  0  0  0
  9 41  1  0  0  0  0
  9 42  1  0  0  0  0
 10 15  1  0  0  0  0
 10 11  2  0  0  0  0
 11 12  1  0  0  0  0
 12 13  2  0  0  0  0
 12 43  1  0  0  0  0
 13 14  1  0  0  0  0
 14 18  1  0  0  0  0
 14 15  2  0  0  0  0
 15 16  1  0  0  0  0
 16 17  2  0  0  0  0
 17 18  1  0  0  0  0
 17 44  1  0  0  0  0
 18 19  1  0  0  0  0
 19 20  1  0  0  0  0
 19 45  1  0  0  0  0
 19 46  1  0  0  0  0
 20 26  1  0  0  0  0
 20 21  1  0  0  0  0
 20 22  1  0  0  0  0
 21 47  1  0  0  0  0
 22 23  1  0  0  0  0
 22 48  1  0  0  0  0
 22 49  1  0  0  0  0
 23 24  1  0  0  0  0
 23 50  1  0  0  0  0
 23 51  1  0  0  0  0
 24 25  1  0  0  0  0
 25 26  1  0  0  0  0
 25 52  1  0  0  0  0
 25 53  1  0  0  0  0
 26 54  1  0  0  0  0
 26 55  1  0  0  0  0
M  END
> <s_m_source_file>
AV-unprocessed.smi

> <i_m_source_file_index>
150

> <i_lp_mmshare_version>
43012

> <i_f3d_flags>
0

> <s_epik_input>
W0NIM11bQ0hdKFtDSDNdKVtDSDJdW0NASF0oW0NIMl1bT0hdKU4oW0NIM10pYyhuW2NIXW4xKWMoYzEyKW5bY0hdbjJbQ0gyXUMzKFtPSF0pW0NIMl1bQ0gyXU9bQ0gyXVtDSDJdMw==

> <s_epik_cmdline>
J2VwaWtfcHl0aG9uJywgJy1waCcsICc3LjAnLCAnLXRuJywgJzgnLCAnLW1hJywgJzIwMCcsICctbWV0YWxfYmluZGluZycsICctaW1hZScsICc8aW5maWxlLm1hZT4nLCAnLW9tYWUnLCAnPG91dGZpbGUubWFlPic=

> <r_lp_tautomer_probability>
1

> <r_epik_Ionization_Penalty>
0.00548416

> <r_epik_Ionization_Penalty_Charging>
0

> <r_epik_Ionization_Penalty_Neutral>
0.00548416

> <r_epik_State_Penalty>
0.0038135

> <r_epik_Charging_Adjusted_Penalty>
0.0038135

> <i_epik_Tot_Q>
0

> <i_epik_Tot_abs_Q>
0

> <r_epik_Metal_State_Penalty>
-0

> <b_epik_Metal_Only>
0

> <s_lp_Force_Field>
OPLS_2005

> <r_lp_Energy>
31.7552

> <b_lp_Chiralities_Consistent>
1

> <s_lp_Variant>
AV-unprocessed.smi:150-1

> <Gold.Version>
5.8.1

> <Gold.Id.Protein>
6NUR|6NUR_protein|mol2

> <Gold.PLP.Fitness>
47.3945

> <Gold.PLP.PLP>
-38.8379

> <Gold.PLP.part.hbond>
-3.3303

> <Gold.PLP.part.metal>
0.0000

> <Gold.PLP.part.buried>
-5.1566

> <Gold.PLP.part.nonpolar>
-30.8132

> <Gold.PLP.part.repulsive>
0.7896

> <Gold.PLP.ligand.clash>
0.0000

> <Gold.PLP.ligand.torsion>
1.5747

> <Gold.PLP.Chemscore.Hbond>
2.5253

> <Gold.PLP.Chemscore.CHOScore>
1.0000

> <Gold.PLP.Chemscore.Metal>
0.0000

> <Gold.Chemscore.Hbonds>
donor molecule, donor type, donor heavy atom, donor atom, acceptor molecule, acceptor atom, score
      L1  H     7    39       P1  7957  0.74
      L1  H    21    47       P1  7921  0.96
      P1  H  7989  7998       L1     7  0.16
      P1  H  8011  8017       L1     7  0.60
      L1  C    17    44       P1 10171  1.00

> <Gold.PLP.Chemscore.Internal.Correction>
1.1299

> <Gold.Rescore>
     Score         DG    S(hbond)    S(metal)    S(lipo)     H(rot)  DE(clash)    DE(int)     intcor
     11.02     -13.75       2.05        0.00      86.64       3.40       0.14       2.59       ----

> <Gold.Chemscore.Fitness>
11.0219

> <Gold.Chemscore.DG>
-13.7544

> <Gold.Chemscore.ZeroCoef>
-5.4800

> <Gold.Chemscore.Hbond>
2.0481

> <Gold.Chemscore.Metal>
0.0000

> <Gold.Chemscore.Lipo>
86.6381

> <Gold.Chemscore.Internal_Hbond>
0.0000

> <Gold.Chemscore.DEClash>
0.1376

> <Gold.Chemscore.DEInternal>
2.5949

> <Gold.Chemscore.Rot>
3.3995

> <Gold.Chemscore.Internal.Correction>
   9.000000E+99

> <Gold.Chemscore.Hbonds>
donor molecule, donor type, donor heavy atom, donor atom, acceptor molecule, acceptor atom, score
      L1  H     7    39       P1  7957  0.71
      L1  H    21    47       P1  7921  0.91
      P1  H  7989  7998       L1     7  0.10
      P1  H  8011  8017       L1     7  0.04

> <Gold.Chemscore.Hbond.Weighted>
-6.8405

> <Gold.Chemscore.Metal.Weighted>
-0.0000

> <Gold.Chemscore.Lipo.Weighted>
-10.1367

> <Gold.Chemscore.Internal_Hbond.Weighted>
0.0000

> <Gold.Chemscore.DEClash.Weighted>
0.1376

> <Gold.Chemscore.DEInternal.Weighted>
2.5949

> <Gold.Chemscore.Rot.Weighted>
8.7028

> <Gold.Chemscore.Internal.Correction.Weighted>
   9.000000E+99

> <Gold.Protein.RotatedTorsions>
[ 6907 6896 6895 6894 ] final  112.63 input  -60.11 | X-H torsion
[ 7974 7965 7964 7962 ] final   92.22 input  175.53 | X-H torsion
[ 8008 7997 7996 7995 ] final  156.35 input   59.86 | X-H torsion
[ 10167 10162 10161 10158 ] final  158.30 input  -65.29 | X-H torsion
[ 10718 10713 10712 10709 ] final   94.13 input   66.30 | X-H torsion
[ 10763 10752 10751 10750 ] final    1.01 input  -60.55 | X-H torsion
[ 11005 11000 10999 10996 ] final  -21.65 input  -57.11 | X-H torsion

> <Gold.Protein.ActiveResidues>
 VAL166  LYS551  ARG553  GLY616  TRP617  ASP618  TYR619  PRO620  LYS621  CYS622 
 ASP623  PHE694  ASN695  SER759  ASP760  ASP761  ALA762  ILE779  LEU786  VAL792 
 PHE793  MET794  SER795  GLU796  ALA797  LYS798  CYS799  TRP800  GLU811  SER814 

> <Gold.Protein.RotatedAtoms>
  152.4906  133.8489  159.7191 H   0  0  0  0  0  0  0  0  0  0  0  0  # atno 6907 bound_to 6896
  150.9032  133.7083  159.2880 H   0  0  0  0  0  0  0  0  0  0  0  0  # atno 6908 bound_to 6896
  151.4517  135.1034  159.9752 H   0  0  0  0  0  0  0  0  0  0  0  0  # atno 6909 bound_to 6896
  145.4952  139.2276  143.2807 H   0  0  0  0  0  0  0  0  0  0  0  0  # atno 7974 bound_to 7965
  156.2427  140.1915  156.6942 H   0  0  0  0  0  0  0  0  0  0  0  0  # atno 8008 bound_to 7997
  154.6229  140.0606  156.9664 H   0  0  0  0  0  0  0  0  0  0  0  0  # atno 8009 bound_to 7997
  155.1832  140.3278  155.4374 H   0  0  0  0  0  0  0  0  0  0  0  0  # atno 8010 bound_to 7997
  139.4826  144.4837  151.8407 H   0  0  0  0  0  0  0  0  0  0  0  0  # atno 10167 bound_to 10162
  157.6950  131.0502  150.4140 H   0  0  0  0  0  0  0  0  0  0  0  0  # atno 10718 bound_to 10713
  153.3134  135.6964  153.7095 H   0  0  0  0  0  0  0  0  0  0  0  0  # atno 10763 bound_to 10752
  153.5964  135.3470  155.2930 H   0  0  0  0  0  0  0  0  0  0  0  0  # atno 10764 bound_to 10752
  154.8580  135.4330  154.2278 H   0  0  0  0  0  0  0  0  0  0  0  0  # atno 10765 bound_to 10752
  140.8582  133.7807  156.0043 H   0  0  0  0  0  0  0  0  0  0  0  0  # atno 11005 bound_to 11000
  146.2259  140.5749  142.8996 LP  0  0  0  0  0  0  0  0  0  0  0  0  # atno 17320 bound_to 7965
  144.7811  140.5842  143.6605 LP  0  0  0  0  0  0  0  0  0  0  0  0  # atno 17321 bound_to 7965
  140.4316  144.2108  150.5888 LP  0  0  0  0  0  0  0  0  0  0  0  0  # atno 17342 bound_to 10162
  140.4774  143.2391  151.9004 LP  0  0  0  0  0  0  0  0  0  0  0  0  # atno 17343 bound_to 10162
  156.4521  130.4014  149.6629 LP  0  0  0  0  0  0  0  0  0  0  0  0  # atno 17370 bound_to 10713
  156.3775  130.7562  151.2551 LP  0  0  0  0  0  0  0  0  0  0  0  0  # atno 17371 bound_to 10713
  140.8713  134.2722  157.5189 LP  0  0  0  0  0  0  0  0  0  0  0  0  # atno 17394 bound_to 11000
  139.8706  134.9569  156.4251 LP  0  0  0  0  0  0  0  0  0  0  0  0  # atno 17395 bound_to 11000

$$$$
