AV-unprocessed.smi:2528|AV-procd|sdf|9957|dock4
  -GOLD-   2272013593D 1   1.00000     0.00000
 Structure written by MMmdl.
 43 45  0  0  0  0  0  0  0  0  1 V2000
  144.6200  136.8967  151.8900 O   0  0  0  0  0  0  0  0  0  0  0  0
  145.8151  136.6366  151.7501 C   0  0  0  0  0  0  0  0  0  0  0  0
  146.7989  137.5151  151.9918 N   0  0  0  0  0  0  0  0  0  0  0  0
  146.6162  138.8804  152.4737 C   0  0  0  0  0  0  0  0  0  0  0  0
  146.4709  138.9201  154.0099 C   0  0  1  0  0  0  0  0  0  0  0  0
  147.6641  138.2842  154.7507 C   0  0  0  0  0  0  0  0  0  0  0  0
  148.8609  139.1168  154.7243 N   0  0  0  0  0  0  0  0  0  0  0  0
  149.9550  138.4870  155.4629 C   0  0  0  0  0  0  0  0  0  0  0  0
  151.2430  139.3245  155.4362 C   0  0  0  0  0  0  0  0  0  0  0  0
  150.9732  140.7313  155.9878 C   0  0  0  0  0  0  0  0  0  0  0  0
  149.7929  141.3701  155.2407 C   0  0  0  0  0  0  0  0  0  0  0  0
  148.5573  140.4459  155.2618 C   0  0  1  0  0  0  0  0  0  0  0  0
  147.3904  141.0942  154.4930 C   0  0  0  0  0  0  0  0  0  0  0  0
  146.2480  140.2414  154.5062 O   0  0  0  0  0  0  0  0  0  0  0  0
  146.3098  135.4545  151.3423 N   0  0  0  0  0  0  0  0  0  0  0  0
  145.5961  134.2794  150.9844 C   0  0  0  0  0  0  0  0  0  0  0  0
  146.4015  133.1549  150.6934 C   0  0  0  0  0  0  0  0  0  0  0  0
  145.7901  131.9404  150.3257 C   0  0  0  0  0  0  0  0  0  0  0  0
  144.3868  131.8814  150.2582 C   0  0  0  0  0  0  0  0  0  0  0  0
  143.6589  133.0462  150.5632 C   0  0  0  0  0  0  0  0  0  0  0  0
  144.2429  134.2109  150.9156 N   0  0  0  0  0  0  0  0  0  0  0  0
  147.7508  137.2118  151.8476 H   0  0  0  0  0  0  0  0  0  0  0  0
  147.5022  139.4443  152.1816 H   0  0  0  0  0  0  0  0  0  0  0  0
  145.7774  139.3691  151.9765 H   0  0  0  0  0  0  0  0  0  0  0  0
  145.5833  138.3403  154.2657 H   0  0  0  0  0  0  0  0  0  0  0  0
  147.3737  138.1059  155.7872 H   0  0  0  0  0  0  0  0  0  0  0  0
  147.8824  137.3049  154.3229 H   0  0  0  0  0  0  0  0  0  0  0  0
  149.6547  138.3207  156.4987 H   0  0  0  0  0  0  0  0  0  0  0  0
  150.1626  137.5032  155.0407 H   0  0  0  0  0  0  0  0  0  0  0  0
  152.0229  138.8347  156.0199 H   0  0  0  0  0  0  0  0  0  0  0  0
  151.6148  139.3938  154.4130 H   0  0  0  0  0  0  0  0  0  0  0  0
  150.7428  140.6698  157.0520 H   0  0  0  0  0  0  0  0  0  0  0  0
  151.8634  141.3539  155.8945 H   0  0  0  0  0  0  0  0  0  0  0  0
  149.5509  142.3340  155.6899 H   0  0  0  0  0  0  0  0  0  0  0  0
  150.0845  141.5728  154.2091 H   0  0  0  0  0  0  0  0  0  0  0  0
  148.2436  140.3344  156.3013 H   0  0  0  0  0  0  0  0  0  0  0  0
  147.1150  142.0439  154.9517 H   0  0  0  0  0  0  0  0  0  0  0  0
  147.6832  141.3189  153.4676 H   0  0  0  0  0  0  0  0  0  0  0  0
  147.3146  135.3876  151.2799 H   0  0  0  0  0  0  0  0  0  0  0  0
  147.4786  133.2176  150.7501 H   0  0  0  0  0  0  0  0  0  0  0  0
  146.3880  131.0701  150.0996 H   0  0  0  0  0  0  0  0  0  0  0  0
  143.8814  130.9684  149.9799 H   0  0  0  0  0  0  0  0  0  0  0  0
  142.5797  133.0436  150.5230 H   0  0  0  0  0  0  0  0  0  0  0  0
  1  2  2  0  0  0  0
  2  3  1  0  0  0  0
  2 15  1  0  0  0  0
  3  4  1  0  0  0  0
  3 22  1  0  0  0  0
  4  5  1  0  0  0  0
  4 23  1  0  0  0  0
  4 24  1  0  0  0  0
  5 14  1  0  0  0  0
  5  6  1  0  0  0  0
  5 25  1  0  0  0  0
  6  7  1  0  0  0  0
  6 26  1  0  0  0  0
  6 27  1  0  0  0  0
  7 12  1  0  0  0  0
  7  8  1  0  0  0  0
  8  9  1  0  0  0  0
  8 28  1  0  0  0  0
  8 29  1  0  0  0  0
  9 10  1  0  0  0  0
  9 30  1  0  0  0  0
  9 31  1  0  0  0  0
 10 11  1  0  0  0  0
 10 32  1  0  0  0  0
 10 33  1  0  0  0  0
 11 12  1  0  0  0  0
 11 34  1  0  0  0  0
 11 35  1  0  0  0  0
 12 13  1  0  0  0  0
 12 36  1  0  0  0  0
 13 14  1  0  0  0  0
 13 37  1  0  0  0  0
 13 38  1  0  0  0  0
 15 16  1  0  0  0  0
 15 39  1  0  0  0  0
 16 21  1  0  0  0  0
 16 17  2  0  0  0  0
 17 18  1  0  0  0  0
 17 40  1  0  0  0  0
 18 19  2  0  0  0  0
 18 41  1  0  0  0  0
 19 20  1  0  0  0  0
 19 42  1  0  0  0  0
 20 21  2  0  0  0  0
 20 43  1  0  0  0  0
M  END
> <s_m_source_file>
AV-unprocessed.smi

> <i_m_source_file_index>
2528

> <i_lp_mmshare_version>
43012

> <i_f3d_flags>
0

> <s_epik_input>
bjFbY0hdW2NIXVtjSF1bY0hdYzFbTkhdQyg9TylbTkhdW0NIMl1bQ0BIXShbQ0gyXTIpT1tDSDJdW0NAQEhdKE4yMylbQ0gyXVtDSDJdW0NIMl1bQ0gyXTM=

> <s_epik_cmdline>
J2VwaWtfcHl0aG9uJywgJy1waCcsICc3LjAnLCAnLXRuJywgJzgnLCAnLW1hJywgJzIwMCcsICctbWV0YWxfYmluZGluZycsICctaW1hZScsICc8aW5maWxlLm1hZT4nLCAnLW9tYWUnLCAnPG91dGZpbGUubWFlPic=

> <r_epik_Ionization_Penalty>
1.14192

> <r_epik_Ionization_Penalty_Charging>
0

> <r_epik_Ionization_Penalty_Neutral>
1.14192

> <r_epik_State_Penalty>
1.20248

> <r_epik_Charging_Adjusted_Penalty>
1.20248

> <i_epik_Tot_Q>
0

> <i_epik_Tot_abs_Q>
0

> <r_epik_Metal_State_Penalty>
1.20248

> <b_epik_Metal_Only>
0

> <s_lp_Force_Field>
OPLS_2005

> <r_lp_Energy>
38.6775

> <b_lp_Chiralities_Consistent>
1

> <s_lp_Variant>
AV-unprocessed.smi:2528-10

> <Gold.Version>
5.8.1

> <Gold.Id.Protein>
6NUR|6NUR_protein|mol2

> <Gold.PLP.Fitness>
42.9182

> <Gold.PLP.PLP>
-34.5733

> <Gold.PLP.part.hbond>
-1.8479

> <Gold.PLP.part.metal>
0.0000

> <Gold.PLP.part.buried>
-4.9701

> <Gold.PLP.part.nonpolar>
-30.2707

> <Gold.PLP.part.repulsive>
2.0766

> <Gold.PLP.ligand.clash>
0.0000

> <Gold.PLP.ligand.torsion>
0.1758

> <Gold.PLP.Chemscore.Hbond>
1.8960

> <Gold.PLP.Chemscore.CHOScore>
1.0000

> <Gold.PLP.Chemscore.Metal>
0.0000

> <Gold.Chemscore.Hbonds>
donor molecule, donor type, donor heavy atom, donor atom, acceptor molecule, acceptor atom, score
      L1  H     3    22       P1  7948  0.99
      L1  H    15    39       P1  7948  0.90
      L1  C    20    43       P1 10186  1.00

> <Gold.PLP.Chemscore.Internal.Correction>
0.0085

> <Gold.Rescore>
     Score         DG    S(hbond)    S(metal)    S(lipo)     H(rot)  DE(clash)    DE(int)     intcor
     16.74     -18.24       1.86        0.00      83.65       1.27       0.04       1.46       ----

> <Gold.Chemscore.Fitness>
16.7364

> <Gold.Chemscore.DG>
-18.2398

> <Gold.Chemscore.ZeroCoef>
-5.4800

> <Gold.Chemscore.Hbond>
1.8632

> <Gold.Chemscore.Metal>
0.0000

> <Gold.Chemscore.Lipo>
83.6496

> <Gold.Chemscore.Internal_Hbond>
0.0000

> <Gold.Chemscore.DEClash>
0.0448

> <Gold.Chemscore.DEInternal>
1.4586

> <Gold.Chemscore.Rot>
1.2696

> <Gold.Chemscore.Internal.Correction>
   9.000000E+99

> <Gold.Chemscore.Hbonds>
donor molecule, donor type, donor heavy atom, donor atom, acceptor molecule, acceptor atom, score
      L1  H     3    22       P1  7948  0.92
      L1  H    15    39       P1  7948  0.72

> <Gold.Chemscore.Hbond.Weighted>
-6.2230

> <Gold.Chemscore.Metal.Weighted>
-0.0000

> <Gold.Chemscore.Lipo.Weighted>
-9.7870

> <Gold.Chemscore.Internal_Hbond.Weighted>
0.0000

> <Gold.Chemscore.DEClash.Weighted>
0.0448

> <Gold.Chemscore.DEInternal.Weighted>
1.4586

> <Gold.Chemscore.Rot.Weighted>
3.2502

> <Gold.Chemscore.Internal.Correction.Weighted>
   9.000000E+99

> <Gold.Protein.RotatedTorsions>
[ 6907 6896 6895 6894 ] final   80.17 input  -60.11 | X-H torsion
[ 7974 7965 7964 7962 ] final  -28.08 input  175.53 | X-H torsion
[ 8008 7997 7996 7995 ] final   49.04 input   59.86 | X-H torsion
[ 10167 10162 10161 10158 ] final  146.60 input  -65.29 | X-H torsion
[ 10718 10713 10712 10709 ] final  -35.35 input   66.30 | X-H torsion
[ 10763 10752 10751 10750 ] final   85.58 input  -60.55 | X-H torsion
[ 11005 11000 10999 10996 ] final    9.13 input  -57.11 | X-H torsion

> <Gold.Protein.ActiveResidues>
 VAL166  LYS551  ARG553  GLY616  TRP617  ASP618  TYR619  PRO620  LYS621  CYS622 
 ASP623  PHE694  ASN695  SER759  ASP760  ASP761  ALA762  ILE779  LEU786  VAL792 
 PHE793  MET794  SER795  GLU796  ALA797  LYS798  CYS799  TRP800  GLU811  SER814 

> <Gold.Protein.RotatedAtoms>
  152.5225  134.3399  159.9212 H   0  0  0  0  0  0  0  0  0  0  0  0  # atno 6907 bound_to 6896
  151.3348  133.3979  159.2673 H   0  0  0  0  0  0  0  0  0  0  0  0  # atno 6908 bound_to 6896
  150.9851  134.9216  159.7924 H   0  0  0  0  0  0  0  0  0  0  0  0  # atno 6909 bound_to 6896
  146.1313  140.5236  142.8692 H   0  0  0  0  0  0  0  0  0  0  0  0  # atno 7974 bound_to 7965
  155.3956  140.3435  155.4254 H   0  0  0  0  0  0  0  0  0  0  0  0  # atno 8008 bound_to 7997
  156.1533  140.1577  156.8767 H   0  0  0  0  0  0  0  0  0  0  0  0  # atno 8009 bound_to 7997
  154.5071  140.0799  156.7898 H   0  0  0  0  0  0  0  0  0  0  0  0  # atno 8010 bound_to 7997
  139.4904  144.5817  151.6858 H   0  0  0  0  0  0  0  0  0  0  0  0  # atno 10167 bound_to 10162
  156.3397  130.4292  149.7798 H   0  0  0  0  0  0  0  0  0  0  0  0  # atno 10718 bound_to 10713
  153.1489  135.4612  154.9606 H   0  0  0  0  0  0  0  0  0  0  0  0  # atno 10763 bound_to 10752
  154.7808  135.3188  154.7995 H   0  0  0  0  0  0  0  0  0  0  0  0  # atno 10764 bound_to 10752
  153.8504  135.6922  153.4847 H   0  0  0  0  0  0  0  0  0  0  0  0  # atno 10765 bound_to 10752
  140.5292  134.0483  155.7868 H   0  0  0  0  0  0  0  0  0  0  0  0  # atno 11005 bound_to 11000
  144.7693  140.5602  143.6681 LP  0  0  0  0  0  0  0  0  0  0  0  0  # atno 17320 bound_to 7965
  145.5254  139.1476  143.3529 LP  0  0  0  0  0  0  0  0  0  0  0  0  # atno 17321 bound_to 7965
  140.5425  144.0557  150.6094 LP  0  0  0  0  0  0  0  0  0  0  0  0  # atno 17342 bound_to 10162
  140.3583  143.2922  152.0411 LP  0  0  0  0  0  0  0  0  0  0  0  0  # atno 17343 bound_to 10162
  156.5039  130.8141  151.3143 LP  0  0  0  0  0  0  0  0  0  0  0  0  # atno 17370 bound_to 10713
  157.7445  130.9936  150.2677 LP  0  0  0  0  0  0  0  0  0  0  0  0  # atno 17371 bound_to 10713
  141.1291  133.9333  157.2574 LP  0  0  0  0  0  0  0  0  0  0  0  0  # atno 17394 bound_to 11000
  139.9563  135.0164  156.9138 LP  0  0  0  0  0  0  0  0  0  0  0  0  # atno 17395 bound_to 11000

$$$$
