AV-unprocessed.smi:3164|AV-procd|sdf|12082|dock5
  -GOLD-   2272017513D 1   1.00000     0.00000
 Structure written by MMmdl.
 40 41  0  0  0  0  0  0  0  0  3 V2000
  145.9256  137.7546  152.0319 C   0  0  0  0  0  0  0  0  0  0  0  0
  146.9320  138.1249  153.0500 N   0  3  2  0  0  0  0  0  0  0  0  0
  146.5804  137.6369  154.4027 C   0  0  0  0  0  0  0  0  0  0  0  0
  147.6777  138.0198  155.4088 C   0  0  0  0  0  0  0  0  0  0  0  0
  147.8684  139.4297  155.3876 O   0  0  0  0  0  0  0  0  0  0  0  0
  148.3037  139.9033  154.1160 C   0  0  2  0  0  0  0  0  0  0  0  0
  148.5552  141.4141  154.2354 C   0  0  0  0  0  0  0  0  0  0  0  0
  148.9898  141.7714  155.6002 N   0  3  0  0  0  0  0  0  0  0  0  0
  150.4166  141.5096  155.8783 C   0  0  0  0  0  0  0  0  0  0  0  0
  150.6388  141.0829  157.3391 C   0  0  0  0  0  0  0  0  0  0  0  0
  151.3214  142.1552  158.1723 C   0  0  0  0  0  0  0  0  0  0  0  0
  151.6719  143.3960  157.5989 C   0  0  0  0  0  0  0  0  0  0  0  0
  152.2838  144.3652  158.4178 C   0  0  0  0  0  0  0  0  0  0  0  0
  152.5178  144.0587  159.7720 C   0  0  0  0  0  0  0  0  0  0  0  0
  152.1311  142.7911  160.2494 C   0  0  0  0  0  0  0  0  0  0  0  0
  151.5418  141.8556  159.4732 N   0  0  0  0  0  0  0  0  0  0  0  0
  147.2161  139.5788  153.0716 C   0  0  0  0  0  0  0  0  0  0  0  0
  144.9614  138.2172  152.2469 H   0  0  0  0  0  0  0  0  0  0  0  0
  145.7875  136.6731  152.0039 H   0  0  0  0  0  0  0  0  0  0  0  0
  146.2460  138.0750  151.0402 H   0  0  0  0  0  0  0  0  0  0  0  0
  145.6258  138.0667  154.7112 H   0  0  0  0  0  0  0  0  0  0  0  0
  146.4539  136.5537  154.3842 H   0  0  0  0  0  0  0  0  0  0  0  0
  147.3874  137.7175  156.4150 H   0  0  0  0  0  0  0  0  0  0  0  0
  148.6147  137.5092  155.1803 H   0  0  0  0  0  0  0  0  0  0  0  0
  149.2354  139.4059  153.8389 H   0  0  0  0  0  0  0  0  0  0  0  0
  149.3277  141.7245  153.5307 H   0  0  0  0  0  0  0  0  0  0  0  0
  147.6478  141.9646  153.9831 H   0  0  0  0  0  0  0  0  0  0  0  0
  148.8277  142.7602  155.7335 H   0  0  0  0  0  0  0  0  0  0  0  0
  150.7703  140.7285  155.2044 H   0  0  0  0  0  0  0  0  0  0  0  0
  151.0025  142.4053  155.6663 H   0  0  0  0  0  0  0  0  0  0  0  0
  149.6870  140.8189  157.8025 H   0  0  0  0  0  0  0  0  0  0  0  0
  151.2461  140.1771  157.3646 H   0  0  0  0  0  0  0  0  0  0  0  0
  151.4761  143.6045  156.5571 H   0  0  0  0  0  0  0  0  0  0  0  0
  152.5664  145.3265  158.0149 H   0  0  0  0  0  0  0  0  0  0  0  0
  152.9840  144.7779  160.4293 H   0  0  0  0  0  0  0  0  0  0  0  0
  152.2942  142.5225  161.2825 H   0  0  0  0  0  0  0  0  0  0  0  0
  147.5413  139.9009  152.0813 H   0  0  0  0  0  0  0  0  0  0  0  0
  146.2987  140.1241  153.3005 H   0  0  0  0  0  0  0  0  0  0  0  0
  148.4303  141.2634  156.2707 H   0  0  0  0  0  0  0  0  0  0  0  0
  147.7913  137.6622  152.7885 H   0  0  0  0  0  0  0  0  0  0  0  0
  1  2  1  0  0  0  0
  1 18  1  0  0  0  0
  1 19  1  0  0  0  0
  1 20  1  0  0  0  0
  2 17  1  0  0  0  0
  2  3  1  0  0  0  0
  2 40  1  0  0  0  0
  3  4  1  0  0  0  0
  3 21  1  0  0  0  0
  3 22  1  0  0  0  0
  4  5  1  0  0  0  0
  4 23  1  0  0  0  0
  4 24  1  0  0  0  0
  5  6  1  0  0  0  0
  6  7  1  0  0  0  0
  6 17  1  0  0  0  0
  6 25  1  0  0  0  0
  7  8  1  0  0  0  0
  7 26  1  0  0  0  0
  7 27  1  0  0  0  0
  8  9  1  0  0  0  0
  8 28  1  0  0  0  0
  8 39  1  0  0  0  0
  9 10  1  0  0  0  0
  9 29  1  0  0  0  0
  9 30  1  0  0  0  0
 10 11  1  0  0  0  0
 10 31  1  0  0  0  0
 10 32  1  0  0  0  0
 11 16  1  0  0  0  0
 11 12  2  0  0  0  0
 12 13  1  0  0  0  0
 12 33  1  0  0  0  0
 13 14  2  0  0  0  0
 13 34  1  0  0  0  0
 14 15  1  0  0  0  0
 14 35  1  0  0  0  0
 15 16  2  0  0  0  0
 15 36  1  0  0  0  0
 17 37  1  0  0  0  0
 17 38  1  0  0  0  0
M  CHG  1   2   1
M  CHG  1   8   1
M  END
> <s_m_source_file>
AV-unprocessed.smi

> <i_m_source_file_index>
3164

> <i_lp_mmshare_version>
43012

> <i_f3d_flags>
0

> <s_epik_input>
W0NIM11OMVtDSDJdW0NIMl1PW0NASF0oW0NIMl0xKVtDSDJdW05IXVtDSDJdW0NIMl1jMltjSF1bY0hdW2NIXVtjSF1uMg==

> <s_epik_cmdline>
J2VwaWtfcHl0aG9uJywgJy1waCcsICc3LjAnLCAnLXRuJywgJzgnLCAnLW1hJywgJzIwMCcsICctbWV0YWxfYmluZGluZycsICctaW1hZScsICc8aW5maWxlLm1hZT4nLCAnLW9tYWUnLCAnPG91dGZpbGUubWFlPic=

> <r_epik_Ionization_Penalty>
0.294944

> <r_epik_Ionization_Penalty_Charging>
0.29381

> <r_epik_Ionization_Penalty_Neutral>
0.00113372

> <r_epik_State_Penalty>
0.271365

> <r_epik_Charging_Adjusted_Penalty>
0.565175

> <i_epik_Tot_Q>
2

> <i_epik_Tot_abs_Q>
2

> <r_epik_Metal_State_Penalty>
0.271365

> <b_epik_Metal_Only>
0

> <s_lp_Force_Field>
OPLS_2005

> <r_lp_Energy>
22.5841

> <b_lp_Chiralities_Consistent>
1

> <s_lp_Variant>
AV-unprocessed.smi:3164-4

> <Gold.Version>
5.8.1

> <Gold.Id.Protein>
6NUR|6NUR_protein|mol2

> <Gold.PLP.Fitness>
45.4684

> <Gold.PLP.PLP>
-35.4821

> <Gold.PLP.part.hbond>
-2.0000

> <Gold.PLP.part.metal>
0.0000

> <Gold.PLP.part.buried>
-2.5340

> <Gold.PLP.part.nonpolar>
-30.6998

> <Gold.PLP.part.repulsive>
0.1800

> <Gold.PLP.ligand.clash>
0.0000

> <Gold.PLP.ligand.torsion>
1.0263

> <Gold.PLP.Chemscore.Hbond>
4.0000

> <Gold.PLP.Chemscore.CHOScore>
0.0000

> <Gold.PLP.Chemscore.Metal>
0.0000

> <Gold.Chemscore.Hbonds>
donor molecule, donor type, donor heavy atom, donor atom, acceptor molecule, acceptor atom, score
      L1  H     2    40       P1  7948  1.89
      L1  H     8    28       P1  8028  2.00

> <Gold.PLP.Chemscore.Internal.Correction>
0.0390

> <Gold.Rescore>
     Score         DG    S(hbond)    S(metal)    S(lipo)     H(rot)  DE(clash)    DE(int)     intcor
     18.79     -20.14       1.98        0.00     104.72       1.65       0.11       1.24       ----

> <Gold.Chemscore.Fitness>
18.7913

> <Gold.Chemscore.DG>
-20.1418

> <Gold.Chemscore.ZeroCoef>
-5.4800

> <Gold.Chemscore.Hbond>
1.9825

> <Gold.Chemscore.Metal>
0.0000

> <Gold.Chemscore.Lipo>
104.7214

> <Gold.Chemscore.Internal_Hbond>
0.0000

> <Gold.Chemscore.DEClash>
0.1111

> <Gold.Chemscore.DEInternal>
1.2394

> <Gold.Chemscore.Rot>
1.6454

> <Gold.Chemscore.Internal.Correction>
   9.000000E+99

> <Gold.Chemscore.Hbonds>
donor molecule, donor type, donor heavy atom, donor atom, acceptor molecule, acceptor atom, score
      L1  H     2    40       P1  7948  0.89
      L1  H     8    28       P1  8028  0.99

> <Gold.Chemscore.Hbond.Weighted>
-6.6216

> <Gold.Chemscore.Metal.Weighted>
-0.0000

> <Gold.Chemscore.Lipo.Weighted>
-12.2524

> <Gold.Chemscore.Internal_Hbond.Weighted>
0.0000

> <Gold.Chemscore.DEClash.Weighted>
0.1111

> <Gold.Chemscore.DEInternal.Weighted>
1.2394

> <Gold.Chemscore.Rot.Weighted>
4.2122

> <Gold.Chemscore.Internal.Correction.Weighted>
   9.000000E+99

> <Gold.Protein.RotatedTorsions>
[ 6907 6896 6895 6894 ] final  168.68 input  -60.11 | X-H torsion
[ 7974 7965 7964 7962 ] final  -20.29 input  175.53 | X-H torsion
[ 8008 7997 7996 7995 ] final -129.19 input   59.86 | X-H torsion
[ 10167 10162 10161 10158 ] final  -93.07 input  -65.29 | X-H torsion
[ 10718 10713 10712 10709 ] final  144.64 input   66.30 | X-H torsion
[ 10763 10752 10751 10750 ] final  -21.06 input  -60.55 | X-H torsion
[ 11005 11000 10999 10996 ] final  100.30 input  -57.11 | X-H torsion

> <Gold.Protein.ActiveResidues>
 VAL166  LYS551  ARG553  GLY616  TRP617  ASP618  TYR619  PRO620  LYS621  CYS622 
 ASP623  PHE694  ASN695  SER759  ASP760  ASP761  ALA762  ILE779  LEU786  VAL792 
 PHE793  MET794  SER795  GLU796  ALA797  LYS798  CYS799  TRP800  GLU811  SER814 

> <Gold.Protein.RotatedAtoms>
  151.8438  133.3428  159.3651 H   0  0  0  0  0  0  0  0  0  0  0  0  # atno 6907 bound_to 6896
  150.7227  134.5366  159.5736 H   0  0  0  0  0  0  0  0  0  0  0  0  # atno 6908 bound_to 6896
  152.2845  134.7792  160.0441 H   0  0  0  0  0  0  0  0  0  0  0  0  # atno 6909 bound_to 6896
  146.1796  140.4181  142.8500 H   0  0  0  0  0  0  0  0  0  0  0  0  # atno 7974 bound_to 7965
  155.2752  140.0441  157.3010 H   0  0  0  0  0  0  0  0  0  0  0  0  # atno 8008 bound_to 7997
  154.5630  140.2351  155.8275 H   0  0  0  0  0  0  0  0  0  0  0  0  # atno 8009 bound_to 7997
  156.2062  140.3012  155.9640 H   0  0  0  0  0  0  0  0  0  0  0  0  # atno 8010 bound_to 7997
  140.3284  143.3009  151.9969 H   0  0  0  0  0  0  0  0  0  0  0  0  # atno 10167 bound_to 10162
  157.3548  131.0956  151.0968 H   0  0  0  0  0  0  0  0  0  0  0  0  # atno 10718 bound_to 10713
  153.6301  135.6989  153.5278 H   0  0  0  0  0  0  0  0  0  0  0  0  # atno 10763 bound_to 10752
  153.2866  135.4169  155.1128 H   0  0  0  0  0  0  0  0  0  0  0  0  # atno 10764 bound_to 10752
  154.8524  135.3615  154.5844 H   0  0  0  0  0  0  0  0  0  0  0  0  # atno 10765 bound_to 10752
  139.8771  134.9134  156.4735 H   0  0  0  0  0  0  0  0  0  0  0  0  # atno 11005 bound_to 11000
  144.8293  140.6680  143.6302 LP  0  0  0  0  0  0  0  0  0  0  0  0  # atno 17320 bound_to 7965
  145.4114  139.1579  143.4124 LP  0  0  0  0  0  0  0  0  0  0  0  0  # atno 17321 bound_to 7965
  139.4861  144.6255  151.7173 LP  0  0  0  0  0  0  0  0  0  0  0  0  # atno 17342 bound_to 10162
  140.5420  144.0564  150.6092 LP  0  0  0  0  0  0  0  0  0  0  0  0  # atno 17343 bound_to 10162
  157.2130  130.6447  149.5781 LP  0  0  0  0  0  0  0  0  0  0  0  0  # atno 17370 bound_to 10713
  155.9727  130.4653  150.6251 LP  0  0  0  0  0  0  0  0  0  0  0  0  # atno 17371 bound_to 10713
  140.8778  133.7940  155.9434 LP  0  0  0  0  0  0  0  0  0  0  0  0  # atno 17394 bound_to 11000
  140.8885  134.2524  157.5107 LP  0  0  0  0  0  0  0  0  0  0  0  0  # atno 17395 bound_to 11000

$$$$
