AV-unprocessed.smi:813|AV-procd|sdf|3818|dock1
  -GOLD-   22720 1253D 1   1.00000     0.00000
 Structure written by MMmdl.
 36 37  0  0  0  0  0  0  0  0  1 V2000
  146.8160  139.6160  151.2480 C   0  0  0  0  0  0  0  0  0  0  0  0
  146.4580  138.7108  152.4386 C   0  0  1  0  0  0  0  0  0  0  0  0
  146.6704  137.3220  152.0338 N   0  0  0  0  0  0  0  0  0  0  0  0
  145.6969  136.4261  151.8103 C   0  0  0  0  0  0  0  0  0  0  0  0
  144.4980  136.6890  151.9102 O   0  0  0  0  0  0  0  0  0  0  0  0
  146.2054  135.2280  151.4726 N   0  0  0  0  0  0  0  0  0  0  0  0
  145.5058  134.0367  151.1434 C   0  0  0  0  0  0  0  0  0  0  0  0
  146.1005  132.9300  150.6708 N   0  0  0  0  0  0  0  0  0  0  0  0
  145.1880  131.9096  150.4354 N   0  0  0  0  0  0  0  0  0  0  0  0
  143.9426  132.2862  150.7389 C   0  0  0  0  0  0  0  0  0  0  0  0
  143.7627  133.9243  151.3433 S   0  0  0  0  0  0  0  0  0  0  0  0
  147.3809  139.0711  153.6131 C   0  0  0  0  0  0  0  0  0  0  0  0
  147.2736  140.1580  154.1836 O   0  0  0  0  0  0  0  0  0  0  0  0
  148.2812  138.1411  153.9649 N   0  0  0  0  0  0  0  0  0  0  0  0
  149.2644  138.2830  155.0353 C   0  0  0  0  0  0  0  0  0  0  0  0
  150.5584  138.9484  154.5261 C   0  0  0  0  0  0  0  0  0  0  0  0
  151.5898  137.8261  154.4215 C   0  0  0  0  0  0  0  0  0  0  0  0
  151.2109  136.8708  155.5485 C   0  0  0  0  0  0  0  0  0  0  0  0
  149.6810  136.9023  155.5807 C   0  0  0  0  0  0  0  0  0  0  0  0
  146.6671  140.6686  151.4925 H   0  0  0  0  0  0  0  0  0  0  0  0
  146.1855  139.3924  150.3867 H   0  0  0  0  0  0  0  0  0  0  0  0
  147.8542  139.4900  150.9368 H   0  0  0  0  0  0  0  0  0  0  0  0
  145.4123  138.8646  152.7131 H   0  0  0  0  0  0  0  0  0  0  0  0
  147.6289  137.0204  151.9364 H   0  0  0  0  0  0  0  0  0  0  0  0
  147.2119  135.1608  151.4432 H   0  0  0  0  0  0  0  0  0  0  0  0
  143.1241  131.5944  150.6069 H   0  0  0  0  0  0  0  0  0  0  0  0
  148.2994  137.2782  153.4408 H   0  0  0  0  0  0  0  0  0  0  0  0
  148.8370  138.8820  155.8419 H   0  0  0  0  0  0  0  0  0  0  0  0
  150.4355  139.4814  153.5822 H   0  0  0  0  0  0  0  0  0  0  0  0
  150.8982  139.6780  155.2622 H   0  0  0  0  0  0  0  0  0  0  0  0
  151.4876  137.3213  153.4599 H   0  0  0  0  0  0  0  0  0  0  0  0
  152.6147  138.1887  154.5025 H   0  0  0  0  0  0  0  0  0  0  0  0
  151.6065  135.8658  155.3985 H   0  0  0  0  0  0  0  0  0  0  0  0
  151.6060  137.2463  156.4934 H   0  0  0  0  0  0  0  0  0  0  0  0
  149.2965  136.7263  156.5858 H   0  0  0  0  0  0  0  0  0  0  0  0
  149.2948  136.1027  154.9465 H   0  0  0  0  0  0  0  0  0  0  0  0
  1  2  1  0  0  0  0
  1 20  1  0  0  0  0
  1 21  1  0  0  0  0
  1 22  1  0  0  0  0
  2  3  1  0  0  0  0
  2 12  1  0  0  0  0
  2 23  1  0  0  0  0
  3  4  1  0  0  0  0
  3 24  1  0  0  0  0
  4  5  2  0  0  0  0
  4  6  1  0  0  0  0
  6  7  1  0  0  0  0
  6 25  1  0  0  0  0
  7 11  1  0  0  0  0
  7  8  2  0  0  0  0
  8  9  1  0  0  0  0
  9 10  2  0  0  0  0
 10 11  1  0  0  0  0
 10 26  1  0  0  0  0
 12 13  2  0  0  0  0
 12 14  1  0  0  0  0
 14 15  1  0  0  0  0
 14 27  1  0  0  0  0
 15 19  1  0  0  0  0
 15 16  1  0  0  0  0
 15 28  1  0  0  0  0
 16 17  1  0  0  0  0
 16 29  1  0  0  0  0
 16 30  1  0  0  0  0
 17 18  1  0  0  0  0
 17 31  1  0  0  0  0
 17 32  1  0  0  0  0
 18 19  1  0  0  0  0
 18 33  1  0  0  0  0
 18 34  1  0  0  0  0
 19 35  1  0  0  0  0
 19 36  1  0  0  0  0
M  END
> <s_m_source_file>
AV-unprocessed.smi

> <i_m_source_file_index>
813

> <i_lp_mmshare_version>
43012

> <i_f3d_flags>
0

> <s_epik_input>
W0NIMl0xW0NIMl1bQ0gyXVtDSDJdW0NIXTFbTkhdQyg9TylbQ0BIXShbQ0gzXSlbTkhdQyg9TylbTkhdYzJubltjSF1zMg==

> <s_epik_cmdline>
J2VwaWtfcHl0aG9uJywgJy1waCcsICc3LjAnLCAnLXRuJywgJzgnLCAnLW1hJywgJzIwMCcsICctbWV0YWxfYmluZGluZycsICctaW1hZScsICc8aW5maWxlLm1hZT4nLCAnLW9tYWUnLCAnPG91dGZpbGUubWFlPic=

> <r_lp_tautomer_probability>
1

> <r_epik_Ionization_Penalty>
0.00321247

> <r_epik_Ionization_Penalty_Charging>
0

> <r_epik_Ionization_Penalty_Neutral>
0.00321247

> <r_epik_State_Penalty>
-0

> <r_epik_Charging_Adjusted_Penalty>
0

> <i_epik_Tot_Q>
0

> <i_epik_Tot_abs_Q>
0

> <r_epik_Metal_State_Penalty>
0.363968

> <b_epik_Metal_Only>
0

> <s_lp_Force_Field>
OPLS_2005

> <r_lp_Energy>
15.9742

> <b_lp_Chiralities_Consistent>
1

> <s_lp_Variant>
AV-unprocessed.smi:813-2

> <Gold.Version>
5.8.1

> <Gold.Id.Protein>
6NUR|6NUR_protein|mol2

> <Gold.PLP.Fitness>
37.8041

> <Gold.PLP.PLP>
-29.7697

> <Gold.PLP.part.hbond>
-2.9508

> <Gold.PLP.part.metal>
0.0000

> <Gold.PLP.part.buried>
-3.5567

> <Gold.PLP.part.nonpolar>
-25.3731

> <Gold.PLP.part.repulsive>
1.9144

> <Gold.PLP.ligand.clash>
0.0000

> <Gold.PLP.ligand.torsion>
0.6076

> <Gold.PLP.Chemscore.Hbond>
2.8556

> <Gold.PLP.Chemscore.CHOScore>
0.2231

> <Gold.PLP.Chemscore.Metal>
0.0000

> <Gold.Chemscore.Hbonds>
donor molecule, donor type, donor heavy atom, donor atom, acceptor molecule, acceptor atom, score
      L1  H     3    24       P1  7948  0.98
      L1  H     6    25       P1  7948  0.87
      L1  H    14    27       P1  7948  0.98
      L1  C    10    26       P1 10952  0.29

> <Gold.PLP.Chemscore.Internal.Correction>
0.0136

> <Gold.Rescore>
     Score         DG    S(hbond)    S(metal)    S(lipo)     H(rot)  DE(clash)    DE(int)     intcor
     14.96     -17.64       2.70        0.00      65.07       1.74       0.78       1.90       ----

> <Gold.Chemscore.Fitness>
14.9627

> <Gold.Chemscore.DG>
-17.6426

> <Gold.Chemscore.ZeroCoef>
-5.4800

> <Gold.Chemscore.Hbond>
2.6981

> <Gold.Chemscore.Metal>
0.0000

> <Gold.Chemscore.Lipo>
65.0732

> <Gold.Chemscore.Internal_Hbond>
0.0000

> <Gold.Chemscore.DEClash>
0.7810

> <Gold.Chemscore.DEInternal>
1.8989

> <Gold.Chemscore.Rot>
1.7433

> <Gold.Chemscore.Internal.Correction>
   9.000000E+99

> <Gold.Chemscore.Hbonds>
donor molecule, donor type, donor heavy atom, donor atom, acceptor molecule, acceptor atom, score
      L1  H     3    24       P1  7948  0.92
      L1  H     6    25       P1  7948  0.68
      L1  H    14    27       P1  7948  0.90

> <Gold.Chemscore.Hbond.Weighted>
-9.0118

> <Gold.Chemscore.Metal.Weighted>
-0.0000

> <Gold.Chemscore.Lipo.Weighted>
-7.6136

> <Gold.Chemscore.Internal_Hbond.Weighted>
0.0000

> <Gold.Chemscore.DEClash.Weighted>
0.7810

> <Gold.Chemscore.DEInternal.Weighted>
1.8989

> <Gold.Chemscore.Rot.Weighted>
4.4628

> <Gold.Chemscore.Internal.Correction.Weighted>
   9.000000E+99

> <Gold.Protein.RotatedTorsions>
[ 6907 6896 6895 6894 ] final -139.75 input  -60.11 | X-H torsion
[ 7974 7965 7964 7962 ] final  108.12 input  175.53 | X-H torsion
[ 8008 7997 7996 7995 ] final  116.38 input   59.86 | X-H torsion
[ 10167 10162 10161 10158 ] final   80.40 input  -65.29 | X-H torsion
[ 10718 10713 10712 10709 ] final  -84.03 input   66.30 | X-H torsion
[ 10763 10752 10751 10750 ] final   69.99 input  -60.55 | X-H torsion
[ 11005 11000 10999 10996 ] final  125.06 input  -57.11 | X-H torsion

> <Gold.Protein.ActiveResidues>
 VAL166  LYS551  ARG553  GLY616  TRP617  ASP618  TYR619  PRO620  LYS621  CYS622 
 ASP623  PHE694  ASN695  SER759  ASP760  ASP761  ALA762  ILE779  LEU786  VAL792 
 PHE793  MET794  SER795  GLU796  ALA797  LYS798  CYS799  TRP800  GLU811  SER814 

> <Gold.Protein.RotatedAtoms>
  151.0518  133.5618  159.2641 H   0  0  0  0  0  0  0  0  0  0  0  0  # atno 6907 bound_to 6896
  151.2626  135.0658  159.9114 H   0  0  0  0  0  0  0  0  0  0  0  0  # atno 6908 bound_to 6896
  152.5383  134.0261  159.8057 H   0  0  0  0  0  0  0  0  0  0  0  0  # atno 6909 bound_to 6896
  145.2848  139.2620  143.3896 H   0  0  0  0  0  0  0  0  0  0  0  0  # atno 7974 bound_to 7965
  156.2436  140.2919  156.0514 H   0  0  0  0  0  0  0  0  0  0  0  0  # atno 8008 bound_to 7997
  155.1877  140.0406  157.2911 H   0  0  0  0  0  0  0  0  0  0  0  0  # atno 8009 bound_to 7997
  154.6216  140.2477  155.7550 H   0  0  0  0  0  0  0  0  0  0  0  0  # atno 8010 bound_to 7997
  139.9502  144.6031  150.8168 H   0  0  0  0  0  0  0  0  0  0  0  0  # atno 10167 bound_to 10162
  156.0011  130.4684  150.4347 H   0  0  0  0  0  0  0  0  0  0  0  0  # atno 10718 bound_to 10713
  153.0317  135.5190  154.7373 H   0  0  0  0  0  0  0  0  0  0  0  0  # atno 10763 bound_to 10752
  154.6383  135.2909  155.0136 H   0  0  0  0  0  0  0  0  0  0  0  0  # atno 10764 bound_to 10752
  154.1063  135.6628  153.4929 H   0  0  0  0  0  0  0  0  0  0  0  0  # atno 10765 bound_to 10752
  139.9388  134.9637  156.8502 H   0  0  0  0  0  0  0  0  0  0  0  0  # atno 11005 bound_to 11000
  146.3204  140.3324  142.8641 LP  0  0  0  0  0  0  0  0  0  0  0  0  # atno 17320 bound_to 7965
  144.9223  140.7882  143.5741 LP  0  0  0  0  0  0  0  0  0  0  0  0  # atno 17321 bound_to 7965
  140.7585  143.3109  151.2848 LP  0  0  0  0  0  0  0  0  0  0  0  0  # atno 17342 bound_to 10162
  139.6634  144.0148  152.2707 LP  0  0  0  0  0  0  0  0  0  0  0  0  # atno 17343 bound_to 10162
  157.2393  131.0522  151.2446 LP  0  0  0  0  0  0  0  0  0  0  0  0  # atno 17370 bound_to 10713
  157.3635  130.7144  149.6518 LP  0  0  0  0  0  0  0  0  0  0  0  0  # atno 17371 bound_to 10713
  140.6005  134.0176  155.7535 LP  0  0  0  0  0  0  0  0  0  0  0  0  # atno 17394 bound_to 11000
  141.1014  133.9762  157.3072 LP  0  0  0  0  0  0  0  0  0  0  0  0  # atno 17395 bound_to 11000

$$$$
