AV-unprocessed.smi:3335|AV-procd|sdf|12845|dock4
  -GOLD-   2272019233D 1   1.00000     0.00000
 Structure written by MMmdl.
 46 47  0  0  0  0  0  0  0  0  1 V2000
  145.8131  132.6086  150.5949 C   0  0  0  0  0  0  0  0  0  0  0  0
  146.5475  132.5501  151.9031 C   0  0  0  0  0  0  0  0  0  0  0  0
  146.5199  131.5114  152.8762 C   0  0  0  0  0  0  0  0  0  0  0  0
  147.2803  131.7710  153.9264 N   0  0  0  0  0  0  0  0  0  0  0  0
  147.8244  132.9801  153.6626 N   0  0  0  0  0  0  0  0  0  0  0  0
  148.7267  133.6068  154.6205 C   0  0  2  0  0  0  0  0  0  0  0  0
  149.9369  132.6905  154.8884 C   0  0  0  0  0  0  0  0  0  0  0  0
  147.9884  134.0256  155.9207 C   0  0  2  0  0  0  0  0  0  0  0  0
  146.7045  134.8379  155.6683 C   0  0  0  0  0  0  0  0  0  0  0  0
  148.8743  134.8653  156.7238 N   0  0  0  0  0  0  0  0  0  0  0  0
  148.2665  135.3477  157.9760 C   0  0  2  0  0  0  0  0  0  0  0  0
  149.0371  136.5598  158.5340 C   0  0  0  0  0  0  0  0  0  0  0  0
  148.2367  134.2228  159.0301 C   0  0  0  0  0  0  0  0  0  0  0  0
  148.7211  133.1254  158.7457 O   0  0  0  0  0  0  0  0  0  0  0  0
  147.6884  134.4625  160.2417 N   0  0  0  0  0  0  0  0  0  0  0  0
  147.6086  133.4528  161.2969 C   0  0  0  0  0  0  0  0  0  0  0  0
  146.7309  134.0596  162.3915 C   0  0  0  0  0  0  0  0  0  0  0  0
  146.8937  135.5610  162.2065 C   0  0  0  0  0  0  0  0  0  0  0  0
  147.1200  135.7291  160.7041 C   0  0  0  0  0  0  0  0  0  0  0  0
  147.3970  133.4716  152.4467 C   0  0  0  0  0  0  0  0  0  0  0  0
  144.9741  131.9130  150.5701 H   0  0  0  0  0  0  0  0  0  0  0  0
  146.4643  132.3578  149.7576 H   0  0  0  0  0  0  0  0  0  0  0  0
  145.4098  133.6031  150.4030 H   0  0  0  0  0  0  0  0  0  0  0  0
  145.9704  130.5820  152.8510 H   0  0  0  0  0  0  0  0  0  0  0  0
  149.1035  134.5114  154.1398 H   0  0  0  0  0  0  0  0  0  0  0  0
  150.6975  133.1982  155.4814 H   0  0  0  0  0  0  0  0  0  0  0  0
  150.4086  132.3828  153.9549 H   0  0  0  0  0  0  0  0  0  0  0  0
  149.6455  131.7888  155.4277 H   0  0  0  0  0  0  0  0  0  0  0  0
  147.7016  133.1240  156.4643 H   0  0  0  0  0  0  0  0  0  0  0  0
  145.9520  134.2479  155.1451 H   0  0  0  0  0  0  0  0  0  0  0  0
  146.9065  135.7258  155.0681 H   0  0  0  0  0  0  0  0  0  0  0  0
  146.2549  135.1647  156.6068 H   0  0  0  0  0  0  0  0  0  0  0  0
  149.2282  135.6289  156.1653 H   0  0  0  0  0  0  0  0  0  0  0  0
  147.2439  135.6494  157.7520 H   0  0  0  0  0  0  0  0  0  0  0  0
  148.6091  136.9017  159.4770 H   0  0  0  0  0  0  0  0  0  0  0  0
  149.0106  137.4061  157.8477 H   0  0  0  0  0  0  0  0  0  0  0  0
  150.0849  136.3170  158.7160 H   0  0  0  0  0  0  0  0  0  0  0  0
  147.1943  132.5108  160.9341 H   0  0  0  0  0  0  0  0  0  0  0  0
  148.6124  133.2572  161.6769 H   0  0  0  0  0  0  0  0  0  0  0  0
  145.6896  133.7818  162.2223 H   0  0  0  0  0  0  0  0  0  0  0  0
  147.0079  133.7237  163.3911 H   0  0  0  0  0  0  0  0  0  0  0  0
  146.0376  136.1286  162.5722 H   0  0  0  0  0  0  0  0  0  0  0  0
  147.7768  135.9007  162.7495 H   0  0  0  0  0  0  0  0  0  0  0  0
  147.7756  136.5771  160.5018 H   0  0  0  0  0  0  0  0  0  0  0  0
  146.1706  135.8998  160.1944 H   0  0  0  0  0  0  0  0  0  0  0  0
  147.7265  134.4300  152.0732 H   0  0  0  0  0  0  0  0  0  0  0  0
  1  2  1  0  0  0  0
  1 21  1  0  0  0  0
  1 22  1  0  0  0  0
  1 23  1  0  0  0  0
  2 20  2  0  0  0  0
  2  3  1  0  0  0  0
  3  4  2  0  0  0  0
  3 24  1  0  0  0  0
  4  5  1  0  0  0  0
  5  6  1  0  0  0  0
  5 20  1  0  0  0  0
  6  7  1  0  0  0  0
  6  8  1  0  0  0  0
  6 25  1  0  0  0  0
  7 26  1  0  0  0  0
  7 27  1  0  0  0  0
  7 28  1  0  0  0  0
  8  9  1  0  0  0  0
  8 10  1  0  0  0  0
  8 29  1  0  0  0  0
  9 30  1  0  0  0  0
  9 31  1  0  0  0  0
  9 32  1  0  0  0  0
 10 11  1  0  0  0  0
 10 33  1  0  0  0  0
 11 12  1  0  0  0  0
 11 13  1  0  0  0  0
 11 34  1  0  0  0  0
 12 35  1  0  0  0  0
 12 36  1  0  0  0  0
 12 37  1  0  0  0  0
 13 14  2  0  0  0  0
 13 15  1  0  0  0  0
 15 19  1  0  0  0  0
 15 16  1  0  0  0  0
 16 17  1  0  0  0  0
 16 38  1  0  0  0  0
 16 39  1  0  0  0  0
 17 18  1  0  0  0  0
 17 40  1  0  0  0  0
 17 41  1  0  0  0  0
 18 19  1  0  0  0  0
 18 42  1  0  0  0  0
 18 43  1  0  0  0  0
 19 44  1  0  0  0  0
 19 45  1  0  0  0  0
 20 46  1  0  0  0  0
M  END
> <s_m_source_file>
AV-unprocessed.smi

> <i_m_source_file_index>
3335

> <i_lp_mmshare_version>
43012

> <i_f3d_flags>
0

> <s_epik_input>
W0NIM11jMVtjSF1ubihbY0hdMSlbQ0BIXShbQ0gzXSlbQ0BIXShbQ0gzXSlbTkhdW0NASF0oW0NIM10pQyg9TylOMltDSDJdW0NIMl1bQ0gyXVtDSDJdMg==

> <s_epik_cmdline>
J2VwaWtfcHl0aG9uJywgJy1waCcsICc3LjAnLCAnLXRuJywgJzgnLCAnLW1hJywgJzIwMCcsICctbWV0YWxfYmluZGluZycsICctaW1hZScsICc8aW5maWxlLm1hZT4nLCAnLW9tYWUnLCAnPG91dGZpbGUubWFlPic=

> <r_lp_tautomer_probability>
1

> <r_epik_Ionization_Penalty>
0.918803

> <r_epik_Ionization_Penalty_Charging>
0

> <r_epik_Ionization_Penalty_Neutral>
0.918803

> <r_epik_State_Penalty>
0.958258

> <r_epik_Charging_Adjusted_Penalty>
0.958258

> <i_epik_Tot_Q>
0

> <i_epik_Tot_abs_Q>
0

> <r_epik_Metal_State_Penalty>
0.956786

> <b_epik_Metal_Only>
0

> <s_lp_Force_Field>
OPLS_2005

> <r_lp_Energy>
39.0848

> <b_lp_Chiralities_Consistent>
1

> <s_lp_Variant>
AV-unprocessed.smi:3335-9

> <Gold.Version>
5.8.1

> <Gold.Id.Protein>
6NUR|6NUR_protein|mol2

> <Gold.PLP.Fitness>
36.4399

> <Gold.PLP.PLP>
-30.8863

> <Gold.PLP.part.hbond>
-1.0000

> <Gold.PLP.part.metal>
0.0000

> <Gold.PLP.part.buried>
-3.9699

> <Gold.PLP.part.nonpolar>
-26.5349

> <Gold.PLP.part.repulsive>
0.0650

> <Gold.PLP.ligand.clash>
0.0000

> <Gold.PLP.ligand.torsion>
0.2965

> <Gold.PLP.Chemscore.Hbond>
1.0000

> <Gold.PLP.Chemscore.CHOScore>
1.0000

> <Gold.PLP.Chemscore.Metal>
0.0000

> <Gold.Chemscore.Hbonds>
donor molecule, donor type, donor heavy atom, donor atom, acceptor molecule, acceptor atom, score
      P1  H  6896  6907       L1    14  0.33
      L1  C    20    46       P1  7948  1.00

> <Gold.PLP.Chemscore.Internal.Correction>
0.1467

> <Gold.Rescore>
     Score         DG    S(hbond)    S(metal)    S(lipo)     H(rot)  DE(clash)    DE(int)     intcor
     12.59     -13.06       0.93        0.00      73.64       1.62       0.02       0.44       ----

> <Gold.Chemscore.Fitness>
12.5900

> <Gold.Chemscore.DG>
-13.0584

> <Gold.Chemscore.ZeroCoef>
-5.4800

> <Gold.Chemscore.Hbond>
0.9312

> <Gold.Chemscore.Metal>
0.0000

> <Gold.Chemscore.Lipo>
73.6443

> <Gold.Chemscore.Internal_Hbond>
0.0000

> <Gold.Chemscore.DEClash>
0.0234

> <Gold.Chemscore.DEInternal>
0.4450

> <Gold.Chemscore.Rot>
1.6204

> <Gold.Chemscore.Internal.Correction>
   9.000000E+99

> <Gold.Chemscore.Hbonds>
donor molecule, donor type, donor heavy atom, donor atom, acceptor molecule, acceptor atom, score
      P1  H  6896  6907       L1    14  0.03

> <Gold.Chemscore.Hbond.Weighted>
-3.1102

> <Gold.Chemscore.Metal.Weighted>
-0.0000

> <Gold.Chemscore.Lipo.Weighted>
-8.6164

> <Gold.Chemscore.Internal_Hbond.Weighted>
0.0000

> <Gold.Chemscore.DEClash.Weighted>
0.0234

> <Gold.Chemscore.DEInternal.Weighted>
0.4450

> <Gold.Chemscore.Rot.Weighted>
4.1482

> <Gold.Chemscore.Internal.Correction.Weighted>
   9.000000E+99

> <Gold.Protein.RotatedTorsions>
[ 6907 6896 6895 6894 ] final -125.05 input  -60.11 | X-H torsion
[ 7974 7965 7964 7962 ] final  -67.10 input  175.53 | X-H torsion
[ 8008 7997 7996 7995 ] final  143.75 input   59.86 | X-H torsion
[ 10167 10162 10161 10158 ] final   65.39 input  -65.29 | X-H torsion
[ 10718 10713 10712 10709 ] final -173.27 input   66.30 | X-H torsion
[ 10763 10752 10751 10750 ] final   88.30 input  -60.55 | X-H torsion
[ 11005 11000 10999 10996 ] final   22.26 input  -57.11 | X-H torsion

> <Gold.Protein.ActiveResidues>
 VAL166  LYS551  ARG553  GLY616  TRP617  ASP618  TYR619  PRO620  LYS621  CYS622 
 ASP623  PHE694  ASN695  SER759  ASP760  ASP761  ALA762  ILE779  LEU786  VAL792 
 PHE793  MET794  SER795  GLU796  ALA797  LYS798  CYS799  TRP800  GLU811  SER814 

> <Gold.Protein.RotatedAtoms>
  150.8829  133.7348  159.2926 H   0  0  0  0  0  0  0  0  0  0  0  0  # atno 6907 bound_to 6896
  151.4923  135.1056  159.9816 H   0  0  0  0  0  0  0  0  0  0  0  0  # atno 6908 bound_to 6896
  152.4771  133.8118  159.7063 H   0  0  0  0  0  0  0  0  0  0  0  0  # atno 6909 bound_to 6896
  145.7335  140.8986  143.0567 H   0  0  0  0  0  0  0  0  0  0  0  0  # atno 7974 bound_to 7965
  156.2923  140.2254  156.4941 H   0  0  0  0  0  0  0  0  0  0  0  0  # atno 8008 bound_to 7997
  154.7745  140.0464  157.1100 H   0  0  0  0  0  0  0  0  0  0  0  0  # atno 8009 bound_to 7997
  154.9833  140.3081  155.4940 H   0  0  0  0  0  0  0  0  0  0  0  0  # atno 8010 bound_to 7997
  140.1118  144.4811  150.6973 H   0  0  0  0  0  0  0  0  0  0  0  0  # atno 10167 bound_to 10162
  156.7679  130.9437  151.3119 H   0  0  0  0  0  0  0  0  0  0  0  0  # atno 10718 bound_to 10713
  153.1754  135.4512  154.9958 H   0  0  0  0  0  0  0  0  0  0  0  0  # atno 10763 bound_to 10752
  154.7995  135.3250  154.7588 H   0  0  0  0  0  0  0  0  0  0  0  0  # atno 10764 bound_to 10752
  153.8059  135.6959  153.4903 H   0  0  0  0  0  0  0  0  0  0  0  0  # atno 10765 bound_to 10752
  140.3825  134.1905  155.7663 H   0  0  0  0  0  0  0  0  0  0  0  0  # atno 11005 bound_to 11000
  144.6887  139.9363  143.7473 LP  0  0  0  0  0  0  0  0  0  0  0  0  # atno 17320 bound_to 7965
  146.0515  139.3516  143.0636 LP  0  0  0  0  0  0  0  0  0  0  0  0  # atno 17321 bound_to 7965
  140.6921  143.2382  151.5101 LP  0  0  0  0  0  0  0  0  0  0  0  0  # atno 17342 bound_to 10162
  139.5615  144.2144  152.1699 LP  0  0  0  0  0  0  0  0  0  0  0  0  # atno 17343 bound_to 10162
  157.6705  130.9046  150.0028 LP  0  0  0  0  0  0  0  0  0  0  0  0  # atno 17370 bound_to 10713
  156.1297  130.3643  149.9752 LP  0  0  0  0  0  0  0  0  0  0  0  0  # atno 17371 bound_to 10713
  141.1918  133.8186  157.0863 LP  0  0  0  0  0  0  0  0  0  0  0  0  # atno 17394 bound_to 11000
  140.0467  134.9826  157.1062 LP  0  0  0  0  0  0  0  0  0  0  0  0  # atno 17395 bound_to 11000

$$$$
