AV-unprocessed.smi:2443|AV-procd|sdf|9631|dock1
  -GOLD-   2272013263D 1   1.00000     0.00000
 Structure written by MMmdl.
 37 39  0  0  0  0  0  0  0  0  1 V2000
  146.8828  138.7547  151.8936 C   0  0  0  0  0  0  0  0  0  0  0  0
  147.1588  139.9518  152.6119 O   0  0  0  0  0  0  0  0  0  0  0  0
  148.2137  139.9493  153.5008 C   0  0  0  0  0  0  0  0  0  0  0  0
  148.5861  141.1526  154.1346 C   0  0  0  0  0  0  0  0  0  0  0  0
  149.6744  141.1071  155.0347 C   0  0  0  0  0  0  0  0  0  0  0  0
  150.0179  142.3395  155.6502 N   0  0  0  0  0  0  0  0  0  0  0  0
  151.0001  142.5777  156.5369 C   0  0  0  0  0  0  0  0  0  0  0  0
  151.7946  141.7387  156.9623 O   0  0  0  0  0  0  0  0  0  0  0  0
  151.0146  143.8651  156.9101 N   0  0  0  0  0  0  0  0  0  0  0  0
  151.9509  144.4491  157.8640 C   0  0  0  0  0  0  0  0  0  0  0  0
  151.5762  144.3162  159.3357 C   0  0  0  0  0  0  0  0  0  0  0  0
  151.9102  142.9709  159.9746 C   0  0  0  0  0  0  0  0  0  0  0  0
  152.3634  142.9124  161.4155 C   0  0  0  0  0  0  0  0  0  0  0  0
  153.3170  142.5192  160.3165 C   0  0  0  0  0  0  0  0  0  0  0  0
  151.7382  145.5403  160.2173 C   0  0  0  0  0  0  0  0  0  0  0  0
  150.3624  145.1086  159.7978 C   0  0  0  0  0  0  0  0  0  0  0  0
  150.3150  139.9339  155.2627 N   0  0  0  0  0  0  0  0  0  0  0  0
  149.8848  138.8502  154.6143 C   0  0  0  0  0  0  0  0  0  0  0  0
  148.8726  138.7917  153.7482 N   0  0  0  0  0  0  0  0  0  0  0  0
  146.0305  138.9177  151.2343 H   0  0  0  0  0  0  0  0  0  0  0  0
  146.6282  137.9351  152.5670 H   0  0  0  0  0  0  0  0  0  0  0  0
  147.7291  138.4581  151.2723 H   0  0  0  0  0  0  0  0  0  0  0  0
  148.0564  142.0719  153.9317 H   0  0  0  0  0  0  0  0  0  0  0  0
  149.4510  143.1310  155.3844 H   0  0  0  0  0  0  0  0  0  0  0  0
  150.3253  144.4860  156.5123 H   0  0  0  0  0  0  0  0  0  0  0  0
  152.9477  144.0383  157.6944 H   0  0  0  0  0  0  0  0  0  0  0  0
  152.0235  145.5117  157.6319 H   0  0  0  0  0  0  0  0  0  0  0  0
  151.2388  142.1678  159.6762 H   0  0  0  0  0  0  0  0  0  0  0  0
  152.5501  143.8552  161.9256 H   0  0  0  0  0  0  0  0  0  0  0  0
  151.9556  142.1185  162.0379 H   0  0  0  0  0  0  0  0  0  0  0  0
  153.5401  141.4602  160.2044 H   0  0  0  0  0  0  0  0  0  0  0  0
  154.1595  143.1838  160.1476 H   0  0  0  0  0  0  0  0  0  0  0  0
  152.0165  145.3800  161.2572 H   0  0  0  0  0  0  0  0  0  0  0  0
  152.1392  146.4460  159.7667 H   0  0  0  0  0  0  0  0  0  0  0  0
  149.8530  145.7265  159.0610 H   0  0  0  0  0  0  0  0  0  0  0  0
  149.7194  144.7139  160.5791 H   0  0  0  0  0  0  0  0  0  0  0  0
  150.4085  137.9269  154.8115 H   0  0  0  0  0  0  0  0  0  0  0  0
  1  2  1  0  0  0  0
  1 20  1  0  0  0  0
  1 21  1  0  0  0  0
  1 22  1  0  0  0  0
  2  3  1  0  0  0  0
  3 19  1  0  0  0  0
  3  4  2  0  0  0  0
  4  5  1  0  0  0  0
  4 23  1  0  0  0  0
  5  6  1  0  0  0  0
  5 17  2  0  0  0  0
  6  7  1  0  0  0  0
  6 24  1  0  0  0  0
  7  8  2  0  0  0  0
  7  9  1  0  0  0  0
  9 10  1  0  0  0  0
  9 25  1  0  0  0  0
 10 11  1  0  0  0  0
 10 26  1  0  0  0  0
 10 27  1  0  0  0  0
 11 16  1  0  0  0  0
 11 12  1  0  0  0  0
 11 15  1  0  0  0  0
 12 14  1  0  0  0  0
 12 13  1  0  0  0  0
 12 28  1  0  0  0  0
 13 14  1  0  0  0  0
 13 29  1  0  0  0  0
 13 30  1  0  0  0  0
 14 31  1  0  0  0  0
 14 32  1  0  0  0  0
 15 16  1  0  0  0  0
 15 33  1  0  0  0  0
 15 34  1  0  0  0  0
 16 35  1  0  0  0  0
 16 36  1  0  0  0  0
 17 18  1  0  0  0  0
 18 19  2  0  0  0  0
 18 37  1  0  0  0  0
M  END
> <s_m_source_file>
AV-unprocessed.smi

> <i_m_source_file_index>
2443

> <i_lp_mmshare_version>
43012

> <i_f3d_flags>
0

> <s_epik_input>
W0NIM11PYzFbY0hdYyhuW2NIXW4xKVtOSF1DKD1PKVtOSF1bQ0gyXUMyKFtDSDJdW0NIMl0yKVtDSF0zW0NIMl1bQ0gyXTM=

> <s_epik_cmdline>
J2VwaWtfcHl0aG9uJywgJy1waCcsICc3LjAnLCAnLXRuJywgJzgnLCAnLW1hJywgJzIwMCcsICctbWV0YWxfYmluZGluZycsICctaW1hZScsICc8aW5maWxlLm1hZT4nLCAnLW9tYWUnLCAnPG91dGZpbGUubWFlPic=

> <r_lp_tautomer_probability>
1

> <r_epik_Ionization_Penalty>
2.73859e-05

> <r_epik_Ionization_Penalty_Charging>
0

> <r_epik_Ionization_Penalty_Neutral>
2.73859e-05

> <r_epik_State_Penalty>
-0

> <r_epik_Charging_Adjusted_Penalty>
0

> <i_epik_Tot_Q>
0

> <i_epik_Tot_abs_Q>
0

> <r_epik_Metal_State_Penalty>
-0

> <b_epik_Metal_Only>
0

> <s_lp_Force_Field>
OPLS_2005

> <r_lp_Energy>
26.0575

> <b_lp_Chiralities_Consistent>
1

> <s_lp_Variant>
AV-unprocessed.smi:2443-1

> <Gold.Version>
5.8.1

> <Gold.Id.Protein>
6NUR|6NUR_protein|mol2

> <Gold.PLP.Fitness>
50.0415

> <Gold.PLP.PLP>
-44.7440

> <Gold.PLP.part.hbond>
-2.0000

> <Gold.PLP.part.metal>
0.0000

> <Gold.PLP.part.buried>
-2.7375

> <Gold.PLP.part.nonpolar>
-41.1099

> <Gold.PLP.part.repulsive>
0.7986

> <Gold.PLP.ligand.clash>
0.0000

> <Gold.PLP.ligand.torsion>
1.6310

> <Gold.PLP.Chemscore.Hbond>
2.0000

> <Gold.PLP.Chemscore.CHOScore>
0.0000

> <Gold.PLP.Chemscore.Metal>
0.0000

> <Gold.Chemscore.Hbonds>
donor molecule, donor type, donor heavy atom, donor atom, acceptor molecule, acceptor atom, score
      L1  H     6    24       P1  8028  1.00
      L1  H     9    25       P1  8028  1.00

> <Gold.PLP.Chemscore.Internal.Correction>
2.5596

> <Gold.Rescore>
     Score         DG    S(hbond)    S(metal)    S(lipo)     H(rot)  DE(clash)    DE(int)     intcor
     14.60     -18.33       1.94        0.00      95.31       1.86       0.81       2.91       ----

> <Gold.Chemscore.Fitness>
14.6024

> <Gold.Chemscore.DG>
-18.3296

> <Gold.Chemscore.ZeroCoef>
-5.4800

> <Gold.Chemscore.Hbond>
1.9357

> <Gold.Chemscore.Metal>
0.0000

> <Gold.Chemscore.Lipo>
95.3051

> <Gold.Chemscore.Internal_Hbond>
0.0000

> <Gold.Chemscore.DEClash>
0.8149

> <Gold.Chemscore.DEInternal>
2.9123

> <Gold.Chemscore.Rot>
1.8619

> <Gold.Chemscore.Internal.Correction>
   9.000000E+99

> <Gold.Chemscore.Hbonds>
donor molecule, donor type, donor heavy atom, donor atom, acceptor molecule, acceptor atom, score
      L1  H     6    24       P1  8028  0.96
      L1  H     9    25       P1  8028  0.95

> <Gold.Chemscore.Hbond.Weighted>
-6.4653

> <Gold.Chemscore.Metal.Weighted>
-0.0000

> <Gold.Chemscore.Lipo.Weighted>
-11.1507

> <Gold.Chemscore.Internal_Hbond.Weighted>
0.0000

> <Gold.Chemscore.DEClash.Weighted>
0.8149

> <Gold.Chemscore.DEInternal.Weighted>
2.9123

> <Gold.Chemscore.Rot.Weighted>
4.7665

> <Gold.Chemscore.Internal.Correction.Weighted>
   9.000000E+99

> <Gold.Protein.RotatedTorsions>
[ 6907 6896 6895 6894 ] final  175.54 input  -60.11 | X-H torsion
[ 7974 7965 7964 7962 ] final  152.55 input  175.53 | X-H torsion
[ 8008 7997 7996 7995 ] final -165.45 input   59.86 | X-H torsion
[ 10167 10162 10161 10158 ] final    5.99 input  -65.29 | X-H torsion
[ 10718 10713 10712 10709 ] final  179.84 input   66.30 | X-H torsion
[ 10763 10752 10751 10750 ] final   37.45 input  -60.55 | X-H torsion
[ 11005 11000 10999 10996 ] final   63.76 input  -57.11 | X-H torsion

> <Gold.Protein.ActiveResidues>
 VAL166  LYS551  ARG553  GLY616  TRP617  ASP618  TYR619  PRO620  LYS621  CYS622 
 ASP623  PHE694  ASN695  SER759  ASP760  ASP761  ALA762  ILE779  LEU786  VAL792 
 PHE793  MET794  SER795  GLU796  ALA797  LYS798  CYS799  TRP800  GLU811  SER814 

> <Gold.Protein.RotatedAtoms>
  151.7345  133.3319  159.3348 H   0  0  0  0  0  0  0  0  0  0  0  0  # atno 6907 bound_to 6896
  150.7599  134.6334  159.6207 H   0  0  0  0  0  0  0  0  0  0  0  0  # atno 6908 bound_to 6896
  152.3570  134.6928  160.0270 H   0  0  0  0  0  0  0  0  0  0  0  0  # atno 6909 bound_to 6896
  144.8215  139.6683  143.6098 H   0  0  0  0  0  0  0  0  0  0  0  0  # atno 7974 bound_to 7965
  155.8499  140.0961  157.1681 H   0  0  0  0  0  0  0  0  0  0  0  0  # atno 8008 bound_to 7997
  154.3985  140.1385  156.3894 H   0  0  0  0  0  0  0  0  0  0  0  0  # atno 8009 bound_to 7997
  155.7972  140.3454  155.5385 H   0  0  0  0  0  0  0  0  0  0  0  0  # atno 8010 bound_to 7997
  140.6452  143.7679  150.7488 H   0  0  0  0  0  0  0  0  0  0  0  0  # atno 10167 bound_to 10162
  156.8698  130.9780  151.3074 H   0  0  0  0  0  0  0  0  0  0  0  0  # atno 10718 bound_to 10713
  153.0037  135.6277  154.2147 H   0  0  0  0  0  0  0  0  0  0  0  0  # atno 10763 bound_to 10752
  154.1890  135.2809  155.3030 H   0  0  0  0  0  0  0  0  0  0  0  0  # atno 10764 bound_to 10752
  154.5775  135.5658  153.7212 H   0  0  0  0  0  0  0  0  0  0  0  0  # atno 10765 bound_to 10752
  140.0003  134.6452  155.9941 H   0  0  0  0  0  0  0  0  0  0  0  0  # atno 11005 bound_to 11000
  146.2520  139.6220  142.9420 LP  0  0  0  0  0  0  0  0  0  0  0  0  # atno 17320 bound_to 7965
  145.5095  141.0436  143.2496 LP  0  0  0  0  0  0  0  0  0  0  0  0  # atno 17321 bound_to 7965
  140.1318  143.4519  152.2249 LP  0  0  0  0  0  0  0  0  0  0  0  0  # atno 17342 bound_to 10162
  139.5662  144.7437  151.4015 LP  0  0  0  0  0  0  0  0  0  0  0  0  # atno 17343 bound_to 10162
  157.6202  130.8649  149.9096 LP  0  0  0  0  0  0  0  0  0  0  0  0  # atno 17370 bound_to 10713
  156.0732  130.3682  150.0731 LP  0  0  0  0  0  0  0  0  0  0  0  0  # atno 17371 bound_to 10713
  141.1637  133.6537  156.4405 LP  0  0  0  0  0  0  0  0  0  0  0  0  # atno 17394 bound_to 11000
  140.4740  134.6727  157.5142 LP  0  0  0  0  0  0  0  0  0  0  0  0  # atno 17395 bound_to 11000

$$$$
