AV-unprocessed.smi:35|AV-procd|sdf|276|dock5
  -GOLD-   2262016 43D 1   1.00000     0.00000
 Structure written by MMmdl.
 28 29  0  0  0  0  0  0  0  0  2 V2000
  152.0111  135.5009  156.4417 O   0  0  0  0  0  0  0  0  0  0  0  0
  151.7040  136.6508  156.1320 C   0  0  0  0  0  0  0  0  0  0  0  0
  152.5803  137.5213  155.5519 N   0  5  0  0  0  0  0  0  0  0  0  0
  152.2329  138.7953  155.2038 C   0  0  0  0  0  0  0  0  0  0  0  0
  153.0238  139.5964  154.7053 O   0  0  0  0  0  0  0  0  0  0  0  0
  150.8992  139.2310  155.4346 N   0  0  0  0  0  0  0  0  0  0  0  0
  150.5037  140.6409  155.0589 C   0  0  1  0  0  0  0  0  0  0  0  0
  149.4693  140.5896  154.1184 O   0  0  0  0  0  0  0  0  0  0  0  0
  148.3766  141.3996  154.5397 C   0  0  1  0  0  0  0  0  0  0  0  0
  147.0720  140.8246  153.9651 C   0  0  0  0  0  0  0  0  0  0  0  0
  147.2260  140.5056  152.5984 O   0  0  0  0  0  0  0  0  0  0  0  0
  148.4811  141.3717  156.0660 C   0  0  2  0  0  0  0  0  0  0  0  0
  147.8170  142.4466  156.7032 O   0  0  0  0  0  0  0  0  0  0  0  0
  149.9871  141.3934  156.2953 C   0  0  2  0  0  0  0  0  0  0  0  0
  150.5189  142.7051  156.3405 O   0  0  0  0  0  0  0  0  0  0  0  0
  149.9939  138.3779  156.0430 C   0  0  0  0  0  0  0  0  0  0  0  0
  150.3469  137.1243  156.3917 C   0  0  0  0  0  0  0  0  0  0  0  0
  148.9506  136.0148  157.2554 Br  0  0  0  0  0  0  0  0  0  0  0  0
  151.3831  141.0901  154.5942 H   0  0  0  0  0  0  0  0  0  0  0  0
  148.5532  142.4090  154.1634 H   0  0  0  0  0  0  0  0  0  0  0  0
  146.8032  139.9110  154.4957 H   0  0  0  0  0  0  0  0  0  0  0  0
  146.2450  141.5240  154.0912 H   0  0  0  0  0  0  0  0  0  0  0  0
  148.1491  140.4569  152.4030 H   0  0  0  0  0  0  0  0  0  0  0  0
  148.0763  140.4315  156.4432 H   0  0  0  0  0  0  0  0  0  0  0  0
  148.1974  143.2534  156.3905 H   0  0  0  0  0  0  0  0  0  0  0  0
  150.2632  140.8802  157.2177 H   0  0  0  0  0  0  0  0  0  0  0  0
  149.8051  143.3162  156.2364 H   0  0  0  0  0  0  0  0  0  0  0  0
  148.9891  138.7129  156.2514 H   0  0  0  0  0  0  0  0  0  0  0  0
  1  2  2  0  0  0  0
  2 17  1  0  0  0  0
  2  3  1  0  0  0  0
  3  4  1  0  0  0  0
  4  5  2  0  0  0  0
  4  6  1  0  0  0  0
  6  7  1  0  0  0  0
  6 16  1  0  0  0  0
  7 14  1  0  0  0  0
  7  8  1  0  0  0  0
  7 19  1  0  0  0  0
  8  9  1  0  0  0  0
  9 10  1  0  0  0  0
  9 12  1  0  0  0  0
  9 20  1  0  0  0  0
 10 11  1  0  0  0  0
 10 21  1  0  0  0  0
 10 22  1  0  0  0  0
 11 23  1  0  0  0  0
 12 13  1  0  0  0  0
 12 14  1  0  0  0  0
 12 24  1  0  0  0  0
 13 25  1  0  0  0  0
 14 15  1  0  0  0  0
 14 26  1  0  0  0  0
 15 27  1  0  0  0  0
 16 17  2  0  0  0  0
 16 28  1  0  0  0  0
 17 18  1  0  0  0  0
M  CHG  1   3  -1
M  END
> <s_m_source_file>
AV-unprocessed.smi

> <i_m_source_file_index>
35

> <i_lp_mmshare_version>
43012

> <i_f3d_flags>
0

> <s_epik_input>
Tz1jMVtuSF1jKD1PKW4oW2NIXWMxQnIpW0NAQEhdMk9bQ0BASF0oW0NIMl1bT0hdKVtDQEBIXShbT0hdKVtDQEhdMltPSF0=

> <s_epik_cmdline>
J2VwaWtfcHl0aG9uJywgJy1waCcsICc3LjAnLCAnLXRuJywgJzgnLCAnLW1hJywgJzIwMCcsICctbWV0YWxfYmluZGluZycsICctaW1hZScsICc8aW5maWxlLm1hZT4nLCAnLW9tYWUnLCAnPG91dGZpbGUubWFlPic=

> <r_epik_Ionization_Penalty>
1.06112

> <r_epik_Ionization_Penalty_Charging>
2.1796e-09

> <r_epik_Ionization_Penalty_Neutral>
1.06112

> <r_epik_State_Penalty>
1.11484

> <r_epik_Charging_Adjusted_Penalty>
1.11484

> <i_epik_Tot_Q>
-1

> <i_epik_Tot_abs_Q>
1

> <r_epik_Metal_State_Penalty>
0.0032876

> <b_epik_Metal_Only>
0

> <s_epik_Chemistry_Notes>
This compound contains an acetal/aminal-like group ( X-CH(R)-Y where X, Y are N, S, or O) that may be acid/base labile, releasing an aldehyde.

> <s_lp_Force_Field>
OPLS_2005

> <r_lp_Energy>
40.7288

> <b_lp_Chiralities_Consistent>
1

> <s_lp_Variant>
AV-unprocessed.smi:35-30

> <Gold.Version>
5.8.1

> <Gold.Id.Protein>
6NUR|6NUR_protein|mol2

> <Gold.PLP.Fitness>
39.9813

> <Gold.PLP.PLP>
-25.1064

> <Gold.PLP.part.hbond>
-8.0000

> <Gold.PLP.part.metal>
0.0000

> <Gold.PLP.part.buried>
-1.2810

> <Gold.PLP.part.nonpolar>
-15.8944

> <Gold.PLP.part.repulsive>
0.9224

> <Gold.PLP.ligand.clash>
0.0000

> <Gold.PLP.ligand.torsion>
0.1384

> <Gold.PLP.Chemscore.Hbond>
5.0462

> <Gold.PLP.Chemscore.CHOScore>
0.0000

> <Gold.PLP.Chemscore.Metal>
0.0000

> <Gold.Chemscore.Hbonds>
donor molecule, donor type, donor heavy atom, donor atom, acceptor molecule, acceptor atom, score
      L1  H    11    23       P1  7957  0.99
      L1  H    13    25       P1  8028  1.00
      L1  H    15    27       P1  8028  1.00
      P1  H  7989  7998       L1     5  0.22
      P1  H  7997  8010       L1     5  1.00
      P1  H 10752 10764       L1     1  0.82

> <Gold.PLP.Chemscore.Internal.Correction>
0.0129

> <Gold.Rescore>
     Score         DG    S(hbond)    S(metal)    S(lipo)     H(rot)  DE(clash)    DE(int)     intcor
     10.87     -11.29       3.43        0.00      31.21       3.63       0.27       0.15       ----

> <Gold.Chemscore.Fitness>
10.8721

> <Gold.Chemscore.DG>
-11.2945

> <Gold.Chemscore.ZeroCoef>
-5.4800

> <Gold.Chemscore.Hbond>
3.4270

> <Gold.Chemscore.Metal>
0.0000

> <Gold.Chemscore.Lipo>
31.2071

> <Gold.Chemscore.Internal_Hbond>
0.0000

> <Gold.Chemscore.DEClash>
0.2698

> <Gold.Chemscore.DEInternal>
0.1526

> <Gold.Chemscore.Rot>
3.6261

> <Gold.Chemscore.Internal.Correction>
   9.000000E+99

> <Gold.Chemscore.Hbonds>
donor molecule, donor type, donor heavy atom, donor atom, acceptor molecule, acceptor atom, score
      L1  H    11    23       P1  7957  0.92
      L1  H    13    25       P1  8028  0.40
      L1  H    15    27       P1  8028  0.99
      P1  H  7989  7998       L1     5  0.08
      P1  H  7997  8010       L1     5  0.80
      P1  H 10752 10764       L1     1  0.14

> <Gold.Chemscore.Hbond.Weighted>
-11.4461

> <Gold.Chemscore.Metal.Weighted>
-0.0000

> <Gold.Chemscore.Lipo.Weighted>
-3.6512

> <Gold.Chemscore.Internal_Hbond.Weighted>
0.0000

> <Gold.Chemscore.DEClash.Weighted>
0.2698

> <Gold.Chemscore.DEInternal.Weighted>
0.1526

> <Gold.Chemscore.Rot.Weighted>
9.2828

> <Gold.Chemscore.Internal.Correction.Weighted>
   9.000000E+99

> <Gold.Protein.RotatedTorsions>
[ 6907 6896 6895 6894 ] final  -17.23 input  -60.11 | X-H torsion
[ 7974 7965 7964 7962 ] final   69.91 input  175.53 | X-H torsion
[ 8008 7997 7996 7995 ] final   96.61 input   59.86 | X-H torsion
[ 10167 10162 10161 10158 ] final  -45.37 input  -65.29 | X-H torsion
[ 10718 10713 10712 10709 ] final -128.02 input   66.30 | X-H torsion
[ 10763 10752 10751 10750 ] final   -2.94 input  -60.55 | X-H torsion
[ 11005 11000 10999 10996 ] final  -29.32 input  -57.11 | X-H torsion

> <Gold.Protein.ActiveResidues>
 VAL166  LYS551  ARG553  GLY616  TRP617  ASP618  TYR619  PRO620  LYS621  CYS622 
 ASP623  PHE694  ASN695  SER759  ASP760  ASP761  ALA762  ILE779  LEU786  VAL792 
 PHE793  MET794  SER795  GLU796  ALA797  LYS798  CYS799  TRP800  GLU811  SER814 

> <Gold.Protein.RotatedAtoms>
  151.2966  135.0757  159.9223 H   0  0  0  0  0  0  0  0  0  0  0  0  # atno 6907 bound_to 6896
  152.5306  133.9877  159.7846 H   0  0  0  0  0  0  0  0  0  0  0  0  # atno 6908 bound_to 6896
  151.0156  133.5873  159.2708 H   0  0  0  0  0  0  0  0  0  0  0  0  # atno 6909 bound_to 6896
  145.7846  139.2904  143.1246 H   0  0  0  0  0  0  0  0  0  0  0  0  # atno 7974 bound_to 7965
  156.0814  140.3270  155.7698 H   0  0  0  0  0  0  0  0  0  0  0  0  # atno 8008 bound_to 7997
  155.5147  140.0580  157.2935 H   0  0  0  0  0  0  0  0  0  0  0  0  # atno 8009 bound_to 7997
  154.4584  140.1954  156.0330 H   0  0  0  0  0  0  0  0  0  0  0  0  # atno 8010 bound_to 7997
  140.6860  143.2883  151.3629 H   0  0  0  0  0  0  0  0  0  0  0  0  # atno 10167 bound_to 10162
  156.1912  130.6796  151.0426 H   0  0  0  0  0  0  0  0  0  0  0  0  # atno 10718 bound_to 10713
  153.3648  135.6992  153.6684 H   0  0  0  0  0  0  0  0  0  0  0  0  # atno 10763 bound_to 10752
  153.5358  135.3583  155.2697 H   0  0  0  0  0  0  0  0  0  0  0  0  # atno 10764 bound_to 10752
  154.8673  135.4191  154.2913 H   0  0  0  0  0  0  0  0  0  0  0  0  # atno 10765 bound_to 10752
  140.9286  133.7352  156.0904 H   0  0  0  0  0  0  0  0  0  0  0  0  # atno 11005 bound_to 11000
  146.0039  140.8496  143.0004 LP  0  0  0  0  0  0  0  0  0  0  0  0  # atno 17320 bound_to 7965
  144.6791  140.2392  143.7346 LP  0  0  0  0  0  0  0  0  0  0  0  0  # atno 17321 bound_to 7965
  139.6220  144.0888  152.2400 LP  0  0  0  0  0  0  0  0  0  0  0  0  # atno 17342 bound_to 10162
  140.0335  144.6062  150.7468 LP  0  0  0  0  0  0  0  0  0  0  0  0  # atno 17343 bound_to 10162
  157.6930  131.0803  150.7052 LP  0  0  0  0  0  0  0  0  0  0  0  0  # atno 17370 bound_to 10713
  156.7109  130.4651  149.5547 LP  0  0  0  0  0  0  0  0  0  0  0  0  # atno 17371 bound_to 10713
  140.7892  134.3636  157.5469 LP  0  0  0  0  0  0  0  0  0  0  0  0  # atno 17394 bound_to 11000
  139.8791  134.9130  156.3073 LP  0  0  0  0  0  0  0  0  0  0  0  0  # atno 17395 bound_to 11000

$$$$
