AV-unprocessed.smi:218|AV-procd|sdf|1669|dock1
  -GOLD-   2262020 83D 1   1.00000     0.00000
 Structure written by MMmdl.
 54 57  0  0  0  0  0  0  0  0  1 V2000
  152.9745  142.7732  160.5984 C   0  0  0  0  0  0  0  0  0  0  0  0
  152.7199  142.6230  159.0938 C   0  0  0  0  0  0  0  0  0  0  0  0
  152.2110  143.9392  158.4811 C   0  0  0  0  0  0  0  0  0  0  0  0
  151.7435  141.5909  158.9391 O   0  0  0  0  0  0  0  0  0  0  0  0
  151.5187  141.0281  157.6974 C   0  0  0  0  0  0  0  0  0  0  0  0
  150.5188  141.5922  156.8787 C   0  0  0  0  0  0  0  0  0  0  0  0
  150.2739  141.0234  155.6122 C   0  0  0  0  0  0  0  0  0  0  0  0
  149.2117  141.6007  154.7009 C   0  0  0  0  0  0  0  0  0  0  0  0
  147.9767  141.9190  155.4033 N   0  0  0  0  0  0  0  0  0  0  0  0
  147.0041  140.9894  155.5145 C   0  0  0  0  0  0  0  0  0  0  0  0
  146.0529  141.0831  156.4809 N   0  0  0  0  0  0  0  0  0  0  0  0
  145.0986  140.1516  156.5708 C   0  0  0  0  0  0  0  0  0  0  0  0
  144.9159  139.0693  155.8116 N   0  0  0  0  0  0  0  0  0  0  0  0
  145.8701  138.9699  154.8417 C   0  0  0  0  0  0  0  0  0  0  0  0
  146.9389  139.8837  154.6276 C   0  0  0  0  0  0  0  0  0  0  0  0
  147.7077  139.4634  153.5500 N   0  0  0  0  0  0  0  0  0  0  0  0
  147.1227  138.3647  153.1536 C   0  0  0  0  0  0  0  0  0  0  0  0
  146.0060  137.9978  153.8718 N   0  0  0  0  0  0  0  0  0  0  0  0
  145.1354  136.7961  153.6668 C   0  0  1  0  0  0  0  0  0  0  0  0
  144.6281  136.8622  152.3706 O   0  0  0  0  0  0  0  0  0  0  0  0
  144.6128  135.5569  151.8176 C   0  0  1  0  0  0  0  0  0  0  0  0
  144.5125  135.6060  150.2819 C   0  0  0  0  0  0  0  0  0  0  0  0
  145.5348  136.3892  149.7017 O   0  0  0  0  0  0  0  0  0  0  0  0
  145.8386  134.8602  152.4174 C   0  0  2  0  0  0  0  0  0  0  0  0
  145.6339  133.4626  152.4716 O   0  0  0  0  0  0  0  0  0  0  0  0
  145.8934  135.4527  153.8221 C   0  0  1  0  0  0  0  0  0  0  0  0
  147.2316  135.5770  154.2691 O   0  0  0  0  0  0  0  0  0  0  0  0
  151.0417  139.9124  155.2104 C   0  0  0  0  0  0  0  0  0  0  0  0
  152.0176  139.4182  156.0971 C   0  0  0  0  0  0  0  0  0  0  0  0
  152.2550  139.9560  157.3121 N   0  0  0  0  0  0  0  0  0  0  0  0
  144.3312  136.9098  154.3949 H   0  0  0  0  0  0  0  0  0  0  0  0
  143.7081  135.0834  152.2047 H   0  0  0  0  0  0  0  0  0  0  0  0
  146.7465  135.0966  151.8614 H   0  0  0  0  0  0  0  0  0  0  0  0
  145.3306  134.8395  154.5278 H   0  0  0  0  0  0  0  0  0  0  0  0
  153.7201  143.5439  160.7962 H   0  0  0  0  0  0  0  0  0  0  0  0
  153.3419  141.8400  161.0259 H   0  0  0  0  0  0  0  0  0  0  0  0
  152.0619  143.0458  161.1290 H   0  0  0  0  0  0  0  0  0  0  0  0
  153.6680  142.3393  158.6343 H   0  0  0  0  0  0  0  0  0  0  0  0
  152.9334  144.7424  158.6283 H   0  0  0  0  0  0  0  0  0  0  0  0
  151.2715  144.2489  158.9395 H   0  0  0  0  0  0  0  0  0  0  0  0
  152.0405  143.8479  157.4088 H   0  0  0  0  0  0  0  0  0  0  0  0
  149.9497  142.4451  157.2187 H   0  0  0  0  0  0  0  0  0  0  0  0
  149.5979  142.5005  154.2202 H   0  0  0  0  0  0  0  0  0  0  0  0
  149.0045  140.8774  153.9110 H   0  0  0  0  0  0  0  0  0  0  0  0
  147.8942  142.8607  155.7590 H   0  0  0  0  0  0  0  0  0  0  0  0
  144.3783  140.2920  157.3632 H   0  0  0  0  0  0  0  0  0  0  0  0
  147.4922  137.7882  152.3181 H   0  0  0  0  0  0  0  0  0  0  0  0
  144.5992  134.5971  149.8784 H   0  0  0  0  0  0  0  0  0  0  0  0
  143.5394  135.9892  149.9738 H   0  0  0  0  0  0  0  0  0  0  0  0
  145.7665  136.0103  148.8676 H   0  0  0  0  0  0  0  0  0  0  0  0
  146.3451  133.0407  152.0137 H   0  0  0  0  0  0  0  0  0  0  0  0
  147.7564  135.8891  153.5470 H   0  0  0  0  0  0  0  0  0  0  0  0
  150.8905  139.4481  154.2469 H   0  0  0  0  0  0  0  0  0  0  0  0
  152.6245  138.5681  155.8232 H   0  0  0  0  0  0  0  0  0  0  0  0
  1  2  1  0  0  0  0
  1 35  1  0  0  0  0
  1 36  1  0  0  0  0
  1 37  1  0  0  0  0
  2  3  1  0  0  0  0
  2  4  1  0  0  0  0
  2 38  1  0  0  0  0
  3 39  1  0  0  0  0
  3 40  1  0  0  0  0
  3 41  1  0  0  0  0
  4  5  1  0  0  0  0
  5 30  1  0  0  0  0
  5  6  2  0  0  0  0
  6  7  1  0  0  0  0
  6 42  1  0  0  0  0
  7  8  1  0  0  0  0
  7 28  2  0  0  0  0
  8  9  1  0  0  0  0
  8 43  1  0  0  0  0
  8 44  1  0  0  0  0
  9 10  1  0  0  0  0
  9 45  1  0  0  0  0
 10 15  1  0  0  0  0
 10 11  2  0  0  0  0
 11 12  1  0  0  0  0
 12 13  2  0  0  0  0
 12 46  1  0  0  0  0
 13 14  1  0  0  0  0
 14 18  1  0  0  0  0
 14 15  2  0  0  0  0
 15 16  1  0  0  0  0
 16 17  2  0  0  0  0
 17 18  1  0  0  0  0
 17 47  1  0  0  0  0
 18 19  1  0  0  0  0
 19 31  1  0  0  0  0
 19 26  1  0  0  0  0
 19 20  1  0  0  0  0
 20 21  1  0  0  0  0
 21 32  1  0  0  0  0
 21 22  1  0  0  0  0
 21 24  1  0  0  0  0
 22 23  1  0  0  0  0
 22 48  1  0  0  0  0
 22 49  1  0  0  0  0
 23 50  1  0  0  0  0
 24 33  1  0  0  0  0
 24 25  1  0  0  0  0
 24 26  1  0  0  0  0
 25 51  1  0  0  0  0
 26 34  1  0  0  0  0
 26 27  1  0  0  0  0
 27 52  1  0  0  0  0
 28 29  1  0  0  0  0
 28 53  1  0  0  0  0
 29 30  2  0  0  0  0
 29 54  1  0  0  0  0
M  END
> <s_m_source_file>
AV-unprocessed.smi

> <i_m_source_file_index>
218

> <i_lp_mmshare_version>
43012

> <i_f3d_flags>
0

> <s_epik_input>
W0NIM11bQ0hdKFtDSDNdKU9jMVtjSF1jKFtjSF1bY0hdbjEpW0NIMl1bTkhdYyhuW2NIXW4yKWMoYzIzKW5bY0hdbjNbQ0BASF00T1tDQEhdKFtDSDJdW09IXSlbQ0BASF0oW09IXSlbQ0BIXTRbT0hd

> <s_epik_cmdline>
J2VwaWtfcHl0aG9uJywgJy1waCcsICc3LjAnLCAnLXRuJywgJzgnLCAnLW1hJywgJzIwMCcsICctbWV0YWxfYmluZGluZycsICctaW1hZScsICc8aW5maWxlLm1hZT4nLCAnLW9tYWUnLCAnPG91dGZpbGUubWFlPic=

> <r_lp_tautomer_probability>
1

> <r_epik_Ionization_Penalty>
0.00457014

> <r_epik_Ionization_Penalty_Charging>
0

> <r_epik_Ionization_Penalty_Neutral>
0.00457014

> <r_epik_State_Penalty>
-0

> <r_epik_Charging_Adjusted_Penalty>
0

> <i_epik_Tot_Q>
0

> <i_epik_Tot_abs_Q>
0

> <r_epik_Metal_State_Penalty>
-0

> <b_epik_Metal_Only>
0

> <s_epik_Chemistry_Notes>
This compound contains an acetal/aminal-like group ( X-CH(R)-Y where X, Y are N, S, or O) that may be acid/base labile, releasing an aldehyde.

> <s_lp_Force_Field>
OPLS_2005

> <r_lp_Energy>
42.4644

> <b_lp_Chiralities_Consistent>
1

> <s_lp_Variant>
AV-unprocessed.smi:218-8

> <Gold.Version>
5.8.1

> <Gold.Id.Protein>
6NUR|6NUR_protein|mol2

> <Gold.PLP.Fitness>
53.9144

> <Gold.PLP.PLP>
-42.5866

> <Gold.PLP.part.hbond>
-4.9648

> <Gold.PLP.part.metal>
0.0000

> <Gold.PLP.part.buried>
0.1088

> <Gold.PLP.part.nonpolar>
-37.2718

> <Gold.PLP.part.repulsive>
1.1318

> <Gold.PLP.ligand.clash>
0.0000

> <Gold.PLP.ligand.torsion>
0.9764

> <Gold.PLP.Chemscore.Hbond>
3.3070

> <Gold.PLP.Chemscore.CHOScore>
1.0000

> <Gold.PLP.Chemscore.Metal>
0.0000

> <Gold.Chemscore.Hbonds>
donor molecule, donor type, donor heavy atom, donor atom, acceptor molecule, acceptor atom, score
      L1  H     9    45       P1  8028  0.70
      L1  H    23    50       P1  7921  1.00
      L1  H    27    52       P1  7948  0.84
      P1  H  7997  8010       L1    30  0.22
      L1  C    17    47       P1  7948  1.00

> <Gold.PLP.Chemscore.Internal.Correction>
0.3596

> <Gold.Rescore>
     Score         DG    S(hbond)    S(metal)    S(lipo)     H(rot)  DE(clash)    DE(int)     intcor
      8.30     -11.88       2.38        0.00      94.12       4.90       0.31       3.27       ----

> <Gold.Chemscore.Fitness>
8.2968

> <Gold.Chemscore.DG>
-11.8778

> <Gold.Chemscore.ZeroCoef>
-5.4800

> <Gold.Chemscore.Hbond>
2.3765

> <Gold.Chemscore.Metal>
0.0000

> <Gold.Chemscore.Lipo>
94.1176

> <Gold.Chemscore.Internal_Hbond>
0.0000

> <Gold.Chemscore.DEClash>
0.3117

> <Gold.Chemscore.DEInternal>
3.2694

> <Gold.Chemscore.Rot>
4.9029

> <Gold.Chemscore.Internal.Correction>
   9.000000E+99

> <Gold.Chemscore.Hbonds>
donor molecule, donor type, donor heavy atom, donor atom, acceptor molecule, acceptor atom, score
      L1  H     9    45       P1  8028  0.48
      L1  H    23    50       P1  7921  1.00
      L1  H    27    52       P1  7948  0.84
      P1  H  7997  8010       L1    30  0.01

> <Gold.Chemscore.Hbond.Weighted>
-7.9376

> <Gold.Chemscore.Metal.Weighted>
-0.0000

> <Gold.Chemscore.Lipo.Weighted>
-11.0118

> <Gold.Chemscore.Internal_Hbond.Weighted>
0.0000

> <Gold.Chemscore.DEClash.Weighted>
0.3117

> <Gold.Chemscore.DEInternal.Weighted>
3.2694

> <Gold.Chemscore.Rot.Weighted>
12.5515

> <Gold.Chemscore.Internal.Correction.Weighted>
   9.000000E+99

> <Gold.Protein.RotatedTorsions>
[ 6907 6896 6895 6894 ] final -107.62 input  -60.11 | X-H torsion
[ 7974 7965 7964 7962 ] final -136.34 input  175.53 | X-H torsion
[ 8008 7997 7996 7995 ] final   51.24 input   59.86 | X-H torsion
[ 10167 10162 10161 10158 ] final   73.88 input  -65.29 | X-H torsion
[ 10718 10713 10712 10709 ] final -172.53 input   66.30 | X-H torsion
[ 10763 10752 10751 10750 ] final  -22.86 input  -60.55 | X-H torsion
[ 11005 11000 10999 10996 ] final   -6.10 input  -57.11 | X-H torsion

> <Gold.Protein.ActiveResidues>
 VAL166  LYS551  ARG553  GLY616  TRP617  ASP618  TYR619  PRO620  LYS621  CYS622 
 ASP623  PHE694  ASN695  SER759  ASP760  ASP761  ALA762  ILE779  LEU786  VAL792 
 PHE793  MET794  SER795  GLU796  ALA797  LYS798  CYS799  TRP800  GLU811  SER814 

> <Gold.Protein.RotatedAtoms>
  150.7454  133.9800  159.3572 H   0  0  0  0  0  0  0  0  0  0  0  0  # atno 6907 bound_to 6896
  151.7740  135.0777  160.0373 H   0  0  0  0  0  0  0  0  0  0  0  0  # atno 6908 bound_to 6896
  152.3319  133.5931  159.5852 H   0  0  0  0  0  0  0  0  0  0  0  0  # atno 6909 bound_to 6896
  144.8935  140.6675  143.5130 H   0  0  0  0  0  0  0  0  0  0  0  0  # atno 7974 bound_to 7965
  155.4321  140.3451  155.4281 H   0  0  0  0  0  0  0  0  0  0  0  0  # atno 8008 bound_to 7997
  156.1330  140.1520  156.9067 H   0  0  0  0  0  0  0  0  0  0  0  0  # atno 8009 bound_to 7997
  154.4910  140.0841  156.7573 H   0  0  0  0  0  0  0  0  0  0  0  0  # atno 8010 bound_to 7997
  140.0197  144.5550  150.7591 H   0  0  0  0  0  0  0  0  0  0  0  0  # atno 10167 bound_to 10162
  156.7569  130.9399  151.3116 H   0  0  0  0  0  0  0  0  0  0  0  0  # atno 10718 bound_to 10713
  153.6587  135.6977  153.5184 H   0  0  0  0  0  0  0  0  0  0  0  0  # atno 10763 bound_to 10752
  153.2649  135.4233  155.0930 H   0  0  0  0  0  0  0  0  0  0  0  0  # atno 10764 bound_to 10752
  154.8458  135.3564  154.6131 H   0  0  0  0  0  0  0  0  0  0  0  0  # atno 10765 bound_to 10752
  140.6983  133.9011  155.8666 H   0  0  0  0  0  0  0  0  0  0  0  0  # atno 11005 bound_to 11000
  145.3741  139.1652  143.4316 LP  0  0  0  0  0  0  0  0  0  0  0  0  # atno 17320 bound_to 7965
  146.3068  140.3815  142.8684 LP  0  0  0  0  0  0  0  0  0  0  0  0  # atno 17321 bound_to 7965
  140.7347  143.2732  151.3822 LP  0  0  0  0  0  0  0  0  0  0  0  0  # atno 17342 bound_to 10162
  139.6148  144.1025  152.2334 LP  0  0  0  0  0  0  0  0  0  0  0  0  # atno 17343 bound_to 10162
  157.6752  130.9088  150.0133 LP  0  0  0  0  0  0  0  0  0  0  0  0  # atno 17370 bound_to 10713
  156.1364  130.3642  149.9650 LP  0  0  0  0  0  0  0  0  0  0  0  0  # atno 17371 bound_to 10713
  141.0184  134.0923  157.4147 LP  0  0  0  0  0  0  0  0  0  0  0  0  # atno 17394 bound_to 11000
  139.8904  135.0111  156.6732 LP  0  0  0  0  0  0  0  0  0  0  0  0  # atno 17395 bound_to 11000

$$$$
