AV-unprocessed.smi:582|AV-procd|sdf|2995|dock2
  -GOLD-   2262023503D 1   1.00000     0.00000
 Structure written by MMmdl.
 26 27  0  0  0  0  0  0  0  0  2 V2000
  154.4976  134.6735  159.2299 O   0  0  0  0  0  0  0  0  0  0  0  0
  154.3591  135.4836  158.2863 C   0  0  0  0  0  0  0  0  0  0  0  0
  154.6191  135.1818  157.1004 O   0  5  0  0  0  0  0  0  0  0  0  0
  153.8626  136.8693  158.5897 C   0  0  0  0  0  0  0  0  0  0  0  0
  153.7187  137.3192  159.9211 C   0  0  0  0  0  0  0  0  0  0  0  0
  153.2505  138.6262  160.1576 C   0  0  0  0  0  0  0  0  0  0  0  0
  152.9390  139.4450  159.0533 C   0  0  0  0  0  0  0  0  0  0  0  0
  152.4742  140.7475  159.2831 N   0  0  0  0  0  0  0  0  0  0  0  0
  153.4371  141.5904  159.9806 C   0  0  0  0  0  0  0  0  0  0  0  0
  152.8048  142.9554  160.3022 C   0  0  0  0  0  0  0  0  0  0  0  0
  152.3269  143.5562  159.1017 O   0  0  0  0  0  0  0  0  0  0  0  0
  151.3334  142.7593  158.4624 C   0  0  0  0  0  0  0  0  0  0  0  0
  151.9294  141.3899  158.0933 C   0  0  0  0  0  0  0  0  0  0  0  0
  153.0727  139.0246  157.7732 N   0  0  0  0  0  0  0  0  0  0  0  0
  153.5228  137.7697  157.5542 C   0  0  0  0  0  0  0  0  0  0  0  0
  153.9610  136.6805  160.7580 H   0  0  0  0  0  0  0  0  0  0  0  0
  153.1338  138.9895  161.1680 H   0  0  0  0  0  0  0  0  0  0  0  0
  153.7597  141.1002  160.9001 H   0  0  0  0  0  0  0  0  0  0  0  0
  154.3236  141.7303  159.3604 H   0  0  0  0  0  0  0  0  0  0  0  0
  151.9876  142.8467  161.0172 H   0  0  0  0  0  0  0  0  0  0  0  0
  153.5433  143.6138  160.7598 H   0  0  0  0  0  0  0  0  0  0  0  0
  150.4684  142.6431  159.1173 H   0  0  0  0  0  0  0  0  0  0  0  0
  150.9879  143.2735  157.5656 H   0  0  0  0  0  0  0  0  0  0  0  0
  152.7161  141.5181  157.3484 H   0  0  0  0  0  0  0  0  0  0  0  0
  151.1628  140.7542  157.6486 H   0  0  0  0  0  0  0  0  0  0  0  0
  153.6106  137.4868  156.5154 H   0  0  0  0  0  0  0  0  0  0  0  0
  1  2  2  0  0  0  0
  2  3  1  0  0  0  0
  2  4  1  0  0  0  0
  4 15  1  0  0  0  0
  4  5  2  0  0  0  0
  5  6  1  0  0  0  0
  5 16  1  0  0  0  0
  6  7  2  0  0  0  0
  6 17  1  0  0  0  0
  7  8  1  0  0  0  0
  7 14  1  0  0  0  0
  8 13  1  0  0  0  0
  8  9  1  0  0  0  0
  9 10  1  0  0  0  0
  9 18  1  0  0  0  0
  9 19  1  0  0  0  0
 10 11  1  0  0  0  0
 10 20  1  0  0  0  0
 10 21  1  0  0  0  0
 11 12  1  0  0  0  0
 12 13  1  0  0  0  0
 12 22  1  0  0  0  0
 12 23  1  0  0  0  0
 13 24  1  0  0  0  0
 13 25  1  0  0  0  0
 14 15  2  0  0  0  0
 15 26  1  0  0  0  0
M  CHG  1   3  -1
M  END
> <s_m_source_file>
AV-unprocessed.smi

> <i_m_source_file_index>
582

> <i_lp_mmshare_version>
43012

> <i_f3d_flags>
0

> <s_epik_input>
Tz1DKFtPSF0pYzFbY0hdW2NIXWMobltjSF0xKU4yW0NIMl1bQ0gyXU9bQ0gyXVtDSDJdMg==

> <s_epik_cmdline>
J2VwaWtfcHl0aG9uJywgJy1waCcsICc3LjAnLCAnLXRuJywgJzgnLCAnLW1hJywgJzIwMCcsICctbWV0YWxfYmluZGluZycsICctaW1hZScsICc8aW5maWxlLm1hZT4nLCAnLW9tYWUnLCAnPG91dGZpbGUubWFlPic=

> <r_epik_Ionization_Penalty>
0.00875305

> <r_epik_Ionization_Penalty_Charging>
0.000191694

> <r_epik_Ionization_Penalty_Neutral>
0.00856136

> <r_epik_State_Penalty>
0.00645777

> <r_epik_Charging_Adjusted_Penalty>
0.00664946

> <i_epik_Tot_Q>
-1

> <i_epik_Tot_abs_Q>
1

> <r_epik_Metal_State_Penalty>
6.49305e-06

> <b_epik_Metal_Only>
0

> <s_lp_Force_Field>
OPLS_2005

> <r_lp_Energy>
18.8372

> <b_lp_Chiralities_Consistent>
1

> <s_lp_Variant>
AV-unprocessed.smi:582-1

> <Gold.Version>
5.8.1

> <Gold.Id.Protein>
6NUR|6NUR_protein|mol2

> <Gold.PLP.Fitness>
37.3931

> <Gold.PLP.PLP>
-22.6215

> <Gold.PLP.part.hbond>
-3.0000

> <Gold.PLP.part.metal>
0.0000

> <Gold.PLP.part.buried>
-4.5548

> <Gold.PLP.part.nonpolar>
-15.4005

> <Gold.PLP.part.repulsive>
0.0000

> <Gold.PLP.ligand.clash>
0.0000

> <Gold.PLP.ligand.torsion>
0.1647

> <Gold.PLP.Chemscore.Hbond>
5.0000

> <Gold.PLP.Chemscore.CHOScore>
0.0000

> <Gold.PLP.Chemscore.Metal>
0.0000

> <Gold.Chemscore.Hbonds>
donor molecule, donor type, donor heavy atom, donor atom, acceptor molecule, acceptor atom, score
      P1  H  6896  6908       L1     1  1.92
      P1  H  7997  8010       L1    14  1.00
      P1  H 10752 10765       L1     3  2.00

> <Gold.PLP.Chemscore.Internal.Correction>
0.1011

> <Gold.Rescore>
     Score         DG    S(hbond)    S(metal)    S(lipo)     H(rot)  DE(clash)    DE(int)     intcor
     18.24     -18.46       2.63        0.00      57.84       1.00       0.01       0.21       ----

> <Gold.Chemscore.Fitness>
18.2363

> <Gold.Chemscore.DG>
-18.4613

> <Gold.Chemscore.ZeroCoef>
-5.4800

> <Gold.Chemscore.Hbond>
2.6269

> <Gold.Chemscore.Metal>
0.0000

> <Gold.Chemscore.Lipo>
57.8416

> <Gold.Chemscore.Internal_Hbond>
0.0000

> <Gold.Chemscore.DEClash>
0.0126

> <Gold.Chemscore.DEInternal>
0.2124

> <Gold.Chemscore.Rot>
1.0000

> <Gold.Chemscore.Internal.Correction>
   9.000000E+99

> <Gold.Chemscore.Hbonds>
donor molecule, donor type, donor heavy atom, donor atom, acceptor molecule, acceptor atom, score
      P1  H  6896  6908       L1     1  0.46
      P1  H  7997  8010       L1    14  0.21
      P1  H 10752 10765       L1     3  1.00

> <Gold.Chemscore.Hbond.Weighted>
-8.7738

> <Gold.Chemscore.Metal.Weighted>
-0.0000

> <Gold.Chemscore.Lipo.Weighted>
-6.7675

> <Gold.Chemscore.Internal_Hbond.Weighted>
0.0000

> <Gold.Chemscore.DEClash.Weighted>
0.0126

> <Gold.Chemscore.DEInternal.Weighted>
0.2124

> <Gold.Chemscore.Rot.Weighted>
2.5600

> <Gold.Chemscore.Internal.Correction.Weighted>
   9.000000E+99

> <Gold.Protein.RotatedTorsions>
[ 6907 6896 6895 6894 ] final  -37.60 input  -60.11 | X-H torsion
[ 7974 7965 7964 7962 ] final   87.56 input  175.53 | X-H torsion
[ 8008 7997 7996 7995 ] final   54.06 input   59.86 | X-H torsion
[ 10167 10162 10161 10158 ] final  -25.57 input  -65.29 | X-H torsion
[ 10718 10713 10712 10709 ] final  -14.30 input   66.30 | X-H torsion
[ 10763 10752 10751 10750 ] final  -82.44 input  -60.55 | X-H torsion
[ 11005 11000 10999 10996 ] final   51.61 input  -57.11 | X-H torsion

> <Gold.Protein.ActiveResidues>
 VAL166  LYS551  ARG553  GLY616  TRP617  ASP618  TYR619  PRO620  LYS621  CYS622 
 ASP623  PHE694  ASN695  SER759  ASP760  ASP761  ALA762  ILE779  LEU786  VAL792 
 PHE793  MET794  SER795  GLU796  ALA797  LYS798  CYS799  TRP800  GLU811  SER814 

> <Gold.Protein.RotatedAtoms>
  151.0127  134.9409  159.8015 H   0  0  0  0  0  0  0  0  0  0  0  0  # atno 6907 bound_to 6896
  152.5306  134.3007  159.9087 H   0  0  0  0  0  0  0  0  0  0  0  0  # atno 6908 bound_to 6896
  151.3013  133.4079  159.2674 H   0  0  0  0  0  0  0  0  0  0  0  0  # atno 6909 bound_to 6896
  145.5574  139.2301  143.2479 H   0  0  0  0  0  0  0  0  0  0  0  0  # atno 7974 bound_to 7965
  155.4786  140.3467  155.4336 H   0  0  0  0  0  0  0  0  0  0  0  0  # atno 8008 bound_to 7997
  156.1054  140.1446  156.9440 H   0  0  0  0  0  0  0  0  0  0  0  0  # atno 8009 bound_to 7997
  154.4721  140.0897  156.7148 H   0  0  0  0  0  0  0  0  0  0  0  0  # atno 8010 bound_to 7997
  140.7286  143.4253  151.0886 H   0  0  0  0  0  0  0  0  0  0  0  0  # atno 10167 bound_to 10162
  156.6179  130.4867  149.6176 H   0  0  0  0  0  0  0  0  0  0  0  0  # atno 10718 bound_to 10713
  154.5758  135.5591  153.7138 H   0  0  0  0  0  0  0  0  0  0  0  0  # atno 10763 bound_to 10752
  153.0064  135.6308  154.2051 H   0  0  0  0  0  0  0  0  0  0  0  0  # atno 10764 bound_to 10752
  154.1991  135.2878  155.2976 H   0  0  0  0  0  0  0  0  0  0  0  0  # atno 10765 bound_to 10752
  140.0918  134.5198  155.8844 H   0  0  0  0  0  0  0  0  0  0  0  0  # atno 11005 bound_to 11000
  146.1875  140.6398  142.9161 LP  0  0  0  0  0  0  0  0  0  0  0  0  # atno 17320 bound_to 7965
  144.7499  140.5165  143.6809 LP  0  0  0  0  0  0  0  0  0  0  0  0  # atno 17321 bound_to 7965
  139.7904  143.8227  152.3151 LP  0  0  0  0  0  0  0  0  0  0  0  0  # atno 17342 bound_to 10162
  139.8209  144.7296  150.9574 LP  0  0  0  0  0  0  0  0  0  0  0  0  # atno 17343 bound_to 10162
  156.2336  130.6809  151.1488 LP  0  0  0  0  0  0  0  0  0  0  0  0  # atno 17370 bound_to 10713
  157.7236  131.0665  150.6030 LP  0  0  0  0  0  0  0  0  0  0  0  0  # atno 17371 bound_to 10713
  141.2080  133.6669  156.6344 LP  0  0  0  0  0  0  0  0  0  0  0  0  # atno 17394 bound_to 11000
  140.3341  134.7904  157.4348 LP  0  0  0  0  0  0  0  0  0  0  0  0  # atno 17395 bound_to 11000

$$$$
