AV-unprocessed.smi:434|AV-procd|sdf|2552|dock2
  -GOLD-   2262022513D 1   1.00000     0.00000
 Structure written by MMmdl.
 39 41  0  0  0  0  0  0  0  0  1 V2000
  152.2795  138.3942  159.0646 C   0  0  0  0  0  0  0  0  0  0  0  0
  152.2246  139.8887  159.0942 C   0  0  0  0  0  0  0  0  0  0  0  0
  152.7734  140.6014  160.0781 N   0  0  0  0  0  0  0  0  0  0  0  0
  152.4822  141.9008  159.7097 C   0  0  0  0  0  0  0  0  0  0  0  0
  152.7944  143.1264  160.3408 C   0  0  0  0  0  0  0  0  0  0  0  0
  152.3855  144.3486  159.7678 C   0  0  0  0  0  0  0  0  0  0  0  0
  151.6604  144.3631  158.5587 C   0  0  0  0  0  0  0  0  0  0  0  0
  151.3393  143.1537  157.9132 C   0  0  0  0  0  0  0  0  0  0  0  0
  151.7500  141.9362  158.4887 C   0  0  0  0  0  0  0  0  0  0  0  0
  151.6077  140.6016  158.1199 N   0  0  0  0  0  0  0  0  0  0  0  0
  150.9322  140.0957  156.9319 C   0  0  0  0  0  0  0  0  0  0  0  0
  151.8676  139.2795  156.0171 C   0  0  2  0  0  0  0  0  0  0  0  0
  152.7940  140.1546  155.4035 O   0  0  0  0  0  0  0  0  0  0  0  0
  151.0928  138.5411  154.9144 C   0  0  0  0  0  0  0  0  0  0  0  0
  150.3330  139.4831  154.1758 O   0  0  0  0  0  0  0  0  0  0  0  0
  148.9544  139.1602  154.1299 C   0  0  0  0  0  0  0  0  0  0  0  0
  148.2129  140.4461  154.2705 C   0  0  0  0  0  0  0  0  0  0  0  0
  148.6047  141.7450  154.4429 C   0  0  0  0  0  0  0  0  0  0  0  0
  147.4126  142.5185  154.5061 C   0  0  0  0  0  0  0  0  0  0  0  0
  146.3818  141.6331  154.3678 C   0  0  0  0  0  0  0  0  0  0  0  0
  146.8529  140.3642  154.2230 O   0  0  0  0  0  0  0  0  0  0  0  0
  152.8688  138.0166  159.9010 H   0  0  0  0  0  0  0  0  0  0  0  0
  152.7393  138.0473  158.1396 H   0  0  0  0  0  0  0  0  0  0  0  0
  151.2744  137.9787  159.1384 H   0  0  0  0  0  0  0  0  0  0  0  0
  153.3501  143.1262  161.2667 H   0  0  0  0  0  0  0  0  0  0  0  0
  152.6298  145.2797  160.2582 H   0  0  0  0  0  0  0  0  0  0  0  0
  151.3517  145.3037  158.1261 H   0  0  0  0  0  0  0  0  0  0  0  0
  150.7869  143.1621  156.9853 H   0  0  0  0  0  0  0  0  0  0  0  0
  150.0835  139.4874  157.2456 H   0  0  0  0  0  0  0  0  0  0  0  0
  150.5103  140.9400  156.3849 H   0  0  0  0  0  0  0  0  0  0  0  0
  152.4162  138.5560  156.6208 H   0  0  0  0  0  0  0  0  0  0  0  0
  152.3342  140.6768  154.7639 H   0  0  0  0  0  0  0  0  0  0  0  0
  151.7932  138.0597  154.2300 H   0  0  0  0  0  0  0  0  0  0  0  0
  150.4607  137.7561  155.3338 H   0  0  0  0  0  0  0  0  0  0  0  0
  148.7011  138.6766  153.1853 H   0  0  0  0  0  0  0  0  0  0  0  0
  148.6916  138.4787  154.9401 H   0  0  0  0  0  0  0  0  0  0  0  0
  149.6239  142.0951  154.5129 H   0  0  0  0  0  0  0  0  0  0  0  0
  147.3209  143.5866  154.6360 H   0  0  0  0  0  0  0  0  0  0  0  0
  145.3063  141.7308  154.3501 H   0  0  0  0  0  0  0  0  0  0  0  0
  1  2  1  0  0  0  0
  1 22  1  0  0  0  0
  1 23  1  0  0  0  0
  1 24  1  0  0  0  0
  2 10  1  0  0  0  0
  2  3  2  0  0  0  0
  3  4  1  0  0  0  0
  4  9  2  0  0  0  0
  4  5  1  0  0  0  0
  5  6  2  0  0  0  0
  5 25  1  0  0  0  0
  6  7  1  0  0  0  0
  6 26  1  0  0  0  0
  7  8  2  0  0  0  0
  7 27  1  0  0  0  0
  8  9  1  0  0  0  0
  8 28  1  0  0  0  0
  9 10  1  0  0  0  0
 10 11  1  0  0  0  0
 11 12  1  0  0  0  0
 11 29  1  0  0  0  0
 11 30  1  0  0  0  0
 12 13  1  0  0  0  0
 12 14  1  0  0  0  0
 12 31  1  0  0  0  0
 13 32  1  0  0  0  0
 14 15  1  0  0  0  0
 14 33  1  0  0  0  0
 14 34  1  0  0  0  0
 15 16  1  0  0  0  0
 16 17  1  0  0  0  0
 16 35  1  0  0  0  0
 16 36  1  0  0  0  0
 17 21  1  0  0  0  0
 17 18  2  0  0  0  0
 18 19  1  0  0  0  0
 18 37  1  0  0  0  0
 19 20  2  0  0  0  0
 19 38  1  0  0  0  0
 20 21  1  0  0  0  0
 20 39  1  0  0  0  0
M  END
> <s_m_source_file>
AV-unprocessed.smi

> <i_m_source_file_index>
434

> <i_lp_mmshare_version>
43012

> <i_f3d_flags>
0

> <s_epik_input>
W2NIXTFbY0hdW2NIXVtjSF1jKGMxMiluKGMobjIpW0NIM10pW0NIMl1bQ0BIXShbT0hdKVtDSDJdT1tDSDJdYzNbY0hdW2NIXVtjSF1vMw==

> <s_epik_cmdline>
J2VwaWtfcHl0aG9uJywgJy1waCcsICc3LjAnLCAnLXRuJywgJzgnLCAnLW1hJywgJzIwMCcsICctbWV0YWxfYmluZGluZycsICctaW1hZScsICc8aW5maWxlLm1hZT4nLCAnLW9tYWUnLCAnPG91dGZpbGUubWFlPic=

> <r_epik_Ionization_Penalty>
0.126634

> <r_epik_Ionization_Penalty_Charging>
0

> <r_epik_Ionization_Penalty_Neutral>
0.126634

> <r_epik_State_Penalty>
0.116082

> <r_epik_Charging_Adjusted_Penalty>
0.116082

> <i_epik_Tot_Q>
0

> <i_epik_Tot_abs_Q>
0

> <r_epik_Metal_State_Penalty>
0.00012822

> <b_epik_Metal_Only>
0

> <s_lp_Force_Field>
OPLS_2005

> <r_lp_Energy>
9.40114

> <b_lp_Chiralities_Consistent>
1

> <s_lp_Variant>
AV-unprocessed.smi:434-1

> <Gold.Version>
5.8.1

> <Gold.Id.Protein>
6NUR|6NUR_protein|mol2

> <Gold.PLP.Fitness>
53.0561

> <Gold.PLP.PLP>
-45.7433

> <Gold.PLP.part.hbond>
-2.9290

> <Gold.PLP.part.metal>
0.0000

> <Gold.PLP.part.buried>
0.2382

> <Gold.PLP.part.nonpolar>
-41.8888

> <Gold.PLP.part.repulsive>
0.4439

> <Gold.PLP.ligand.clash>
0.0000

> <Gold.PLP.ligand.torsion>
0.7131

> <Gold.PLP.Chemscore.Hbond>
1.8450

> <Gold.PLP.Chemscore.CHOScore>
0.9991

> <Gold.PLP.Chemscore.Metal>
0.0000

> <Gold.Chemscore.Hbonds>
donor molecule, donor type, donor heavy atom, donor atom, acceptor molecule, acceptor atom, score
      P1  H  7989  7998       L1    15  1.00
      P1  H  7997  8008       L1    13  0.98
      L1  C    20    39       P1 10175  0.39

> <Gold.PLP.Chemscore.Internal.Correction>
0.2066

> <Gold.Rescore>
     Score         DG    S(hbond)    S(metal)    S(lipo)     H(rot)  DE(clash)    DE(int)     intcor
     16.53     -17.66       1.04        0.00     126.01       2.36       0.36       0.78       ----

> <Gold.Chemscore.Fitness>
16.5252

> <Gold.Chemscore.DG>
-17.6620

> <Gold.Chemscore.ZeroCoef>
-5.4800

> <Gold.Chemscore.Hbond>
1.0412

> <Gold.Chemscore.Metal>
0.0000

> <Gold.Chemscore.Lipo>
126.0140

> <Gold.Chemscore.Internal_Hbond>
0.0000

> <Gold.Chemscore.DEClash>
0.3583

> <Gold.Chemscore.DEInternal>
0.7785

> <Gold.Chemscore.Rot>
2.3591

> <Gold.Chemscore.Internal.Correction>
   9.000000E+99

> <Gold.Chemscore.Hbonds>
donor molecule, donor type, donor heavy atom, donor atom, acceptor molecule, acceptor atom, score
      P1  H  7989  7998       L1    15  0.57
      P1  H  7997  8008       L1    13  0.93

> <Gold.Chemscore.Hbond.Weighted>
-3.4776

> <Gold.Chemscore.Metal.Weighted>
-0.0000

> <Gold.Chemscore.Lipo.Weighted>
-14.7436

> <Gold.Chemscore.Internal_Hbond.Weighted>
0.0000

> <Gold.Chemscore.DEClash.Weighted>
0.3583

> <Gold.Chemscore.DEInternal.Weighted>
0.7785

> <Gold.Chemscore.Rot.Weighted>
6.0393

> <Gold.Chemscore.Internal.Correction.Weighted>
   9.000000E+99

> <Gold.Protein.RotatedTorsions>
[ 6907 6896 6895 6894 ] final   28.15 input  -60.11 | X-H torsion
[ 7974 7965 7964 7962 ] final -177.63 input  175.53 | X-H torsion
[ 8008 7997 7996 7995 ] final   -6.25 input   59.86 | X-H torsion
[ 10167 10162 10161 10158 ] final  -51.63 input  -65.29 | X-H torsion
[ 10718 10713 10712 10709 ] final   72.38 input   66.30 | X-H torsion
[ 10763 10752 10751 10750 ] final   68.55 input  -60.55 | X-H torsion
[ 11005 11000 10999 10996 ] final  110.41 input  -57.11 | X-H torsion

> <Gold.Protein.ActiveResidues>
 VAL166  LYS551  ARG553  GLY616  TRP617  ASP618  TYR619  PRO620  LYS621  CYS622 
 ASP623  PHE694  ASN695  SER759  ASP760  ASP761  ALA762  ILE779  LEU786  VAL792 
 PHE793  MET794  SER795  GLU796  ALA797  LYS798  CYS799  TRP800  GLU811  SER814 

> <Gold.Protein.RotatedAtoms>
  152.0127  134.9867  160.0568 H   0  0  0  0  0  0  0  0  0  0  0  0  # atno 6907 bound_to 6896
  152.1413  133.4461  159.4776 H   0  0  0  0  0  0  0  0  0  0  0  0  # atno 6908 bound_to 6896
  150.6865  134.2220  159.4443 H   0  0  0  0  0  0  0  0  0  0  0  0  # atno 6909 bound_to 6896
  144.7128  140.0990  143.6417 H   0  0  0  0  0  0  0  0  0  0  0  0  # atno 7974 bound_to 7965
  154.5956  140.2437  155.7861 H   0  0  0  0  0  0  0  0  0  0  0  0  # atno 8008 bound_to 7997
  156.2277  140.2977  156.0062 H   0  0  0  0  0  0  0  0  0  0  0  0  # atno 8009 bound_to 7997
  155.2298  140.0403  157.2951 H   0  0  0  0  0  0  0  0  0  0  0  0  # atno 8010 bound_to 7997
  140.6578  143.2613  151.4531 H   0  0  0  0  0  0  0  0  0  0  0  0  # atno 10167 bound_to 10162
  157.6498  130.9576  150.0921 H   0  0  0  0  0  0  0  0  0  0  0  0  # atno 10718 bound_to 10713
  153.0241  135.5243  154.7152 H   0  0  0  0  0  0  0  0  0  0  0  0  # atno 10763 bound_to 10752
  154.6223  135.2890  155.0314 H   0  0  0  0  0  0  0  0  0  0  0  0  # atno 10764 bound_to 10752
  154.1296  135.6595  153.4972 H   0  0  0  0  0  0  0  0  0  0  0  0  # atno 10765 bound_to 10752
  139.8881  134.9483  156.6274 H   0  0  0  0  0  0  0  0  0  0  0  0  # atno 11005 bound_to 11000
  145.9554  139.2763  143.1187 LP  0  0  0  0  0  0  0  0  0  0  0  0  # atno 17320 bound_to 7965
  145.9278  140.9070  143.0372 LP  0  0  0  0  0  0  0  0  0  0  0  0  # atno 17321 bound_to 7965
  139.5805  144.1720  152.1961 LP  0  0  0  0  0  0  0  0  0  0  0  0  # atno 17342 bound_to 10162
  140.1044  144.5511  150.6967 LP  0  0  0  0  0  0  0  0  0  0  0  0  # atno 17343 bound_to 10162
  156.1867  130.3652  149.8964 LP  0  0  0  0  0  0  0  0  0  0  0  0  # atno 17370 bound_to 10713
  156.6902  130.8893  151.3587 LP  0  0  0  0  0  0  0  0  0  0  0  0  # atno 17371 bound_to 10713
  140.7692  133.8752  155.8479 LP  0  0  0  0  0  0  0  0  0  0  0  0  # atno 17394 bound_to 11000
  140.9856  134.1347  157.4455 LP  0  0  0  0  0  0  0  0  0  0  0  0  # atno 17395 bound_to 11000

$$$$
