AV-unprocessed.smi:1295|AV-procd|sdf|5403|dock8
  -GOLD-   22720 4563D 1   1.00000     0.00000
 Structure written by MMmdl.
 43 44  0  0  0  0  0  0  0  0  1 V2000
  149.5136  135.2314  154.9336 C   0  0  0  0  0  0  0  0  0  0  0  0
  149.7150  136.4629  155.7907 C   0  0  0  0  0  0  0  0  0  0  0  0
  149.7408  137.6685  155.3257 N   0  0  0  0  0  0  0  0  0  0  0  0
  149.9310  138.7316  156.2190 C   0  0  0  0  0  0  0  0  0  0  0  0
  149.9310  140.1179  155.5985 C   0  0  0  0  0  0  0  0  0  0  0  0
  150.0933  138.5212  157.5580 C   0  0  0  0  0  0  0  0  0  0  0  0
  150.2815  139.6616  158.5601 C   0  0  0  0  0  0  0  0  0  0  0  0
  151.5774  140.4619  158.4119 C   0  0  0  0  0  0  0  0  0  0  0  0
  152.3381  140.2371  157.4715 O   0  0  0  0  0  0  0  0  0  0  0  0
  151.8046  141.3950  159.3482 N   0  0  0  0  0  0  0  0  0  0  0  0
  152.9158  142.3427  159.3862 C   0  0  2  0  0  0  0  0  0  0  0  0
  153.7413  142.1423  160.6731 C   0  0  0  0  0  0  0  0  0  0  0  0
  152.9646  142.5673  161.9317 C   0  0  0  0  0  0  0  0  0  0  0  0
  152.4631  144.0144  161.8130 C   0  0  0  0  0  0  0  0  0  0  0  0
  151.6205  144.2143  160.5430 C   0  0  0  0  0  0  0  0  0  0  0  0
  152.3955  143.7976  159.2750 C   0  0  2  0  0  0  0  0  0  0  0  0
  151.5617  144.0355  158.0030 C   0  0  0  0  0  0  0  0  0  0  0  0
  150.0577  137.1406  158.0786 C   0  0  0  0  0  0  0  0  0  0  0  0
  150.1695  136.8405  159.2662 O   0  0  0  0  0  0  0  0  0  0  0  0
  149.8702  136.1797  157.1466 N   0  0  0  0  0  0  0  0  0  0  0  0
  149.8369  135.2182  157.4530 H   0  0  0  0  0  0  0  0  0  0  0  0
  148.5626  135.2948  154.4044 H   0  0  0  0  0  0  0  0  0  0  0  0
  149.5106  134.3195  155.5324 H   0  0  0  0  0  0  0  0  0  0  0  0
  150.3123  135.1527  154.1956 H   0  0  0  0  0  0  0  0  0  0  0  0
  150.8887  140.6119  155.7627 H   0  0  0  0  0  0  0  0  0  0  0  0
  149.1424  140.7325  156.0330 H   0  0  0  0  0  0  0  0  0  0  0  0
  149.7602  140.0708  154.5222 H   0  0  0  0  0  0  0  0  0  0  0  0
  149.4430  140.3573  158.5132 H   0  0  0  0  0  0  0  0  0  0  0  0
  150.2438  139.2507  159.5692 H   0  0  0  0  0  0  0  0  0  0  0  0
  151.1222  141.4833  160.0871 H   0  0  0  0  0  0  0  0  0  0  0  0
  153.5726  142.1593  158.5341 H   0  0  0  0  0  0  0  0  0  0  0  0
  154.0557  141.1016  160.7615 H   0  0  0  0  0  0  0  0  0  0  0  0
  154.6575  142.7303  160.6050 H   0  0  0  0  0  0  0  0  0  0  0  0
  152.1176  141.8978  162.0881 H   0  0  0  0  0  0  0  0  0  0  0  0
  153.6011  142.4666  162.8112 H   0  0  0  0  0  0  0  0  0  0  0  0
  151.8758  144.2765  162.6935 H   0  0  0  0  0  0  0  0  0  0  0  0
  153.3149  144.6955  161.7965 H   0  0  0  0  0  0  0  0  0  0  0  0
  150.6978  143.6379  160.6230 H   0  0  0  0  0  0  0  0  0  0  0  0
  151.3210  145.2601  160.4682 H   0  0  0  0  0  0  0  0  0  0  0  0
  153.2705  144.4456  159.2037 H   0  0  0  0  0  0  0  0  0  0  0  0
  150.6287  143.4711  158.0177 H   0  0  0  0  0  0  0  0  0  0  0  0
  152.1147  143.7404  157.1109 H   0  0  0  0  0  0  0  0  0  0  0  0
  151.3051  145.0897  157.8964 H   0  0  0  0  0  0  0  0  0  0  0  0
  1  2  1  0  0  0  0
  1 22  1  0  0  0  0
  1 23  1  0  0  0  0
  1 24  1  0  0  0  0
  2 20  1  0  0  0  0
  2  3  2  0  0  0  0
  3  4  1  0  0  0  0
  4  5  1  0  0  0  0
  4  6  2  0  0  0  0
  5 25  1  0  0  0  0
  5 26  1  0  0  0  0
  5 27  1  0  0  0  0
  6  7  1  0  0  0  0
  6 18  1  0  0  0  0
  7  8  1  0  0  0  0
  7 28  1  0  0  0  0
  7 29  1  0  0  0  0
  8  9  2  0  0  0  0
  8 10  1  0  0  0  0
 10 11  1  0  0  0  0
 10 30  1  0  0  0  0
 11 16  1  0  0  0  0
 11 12  1  0  0  0  0
 11 31  1  0  0  0  0
 12 13  1  0  0  0  0
 12 32  1  0  0  0  0
 12 33  1  0  0  0  0
 13 14  1  0  0  0  0
 13 34  1  0  0  0  0
 13 35  1  0  0  0  0
 14 15  1  0  0  0  0
 14 36  1  0  0  0  0
 14 37  1  0  0  0  0
 15 16  1  0  0  0  0
 15 38  1  0  0  0  0
 15 39  1  0  0  0  0
 16 17  1  0  0  0  0
 16 40  1  0  0  0  0
 17 41  1  0  0  0  0
 17 42  1  0  0  0  0
 17 43  1  0  0  0  0
 18 19  2  0  0  0  0
 18 20  1  0  0  0  0
 20 21  1  0  0  0  0
M  END
> <s_m_source_file>
AV-unprocessed.smi

> <i_m_source_file_index>
1295

> <i_lp_mmshare_version>
43012

> <i_f3d_flags>
0

> <s_epik_input>
W0NIM11jMW5jKFtDSDNdKWMoYyg9TylbbkhdMSlbQ0gyXUMoPU8pW05IXVtDQEBIXTJbQ0gyXVtDSDJdW0NIMl1bQ0gyXVtDQEhdMltDSDNd

> <s_epik_cmdline>
J2VwaWtfcHl0aG9uJywgJy1waCcsICc3LjAnLCAnLXRuJywgJzgnLCAnLW1hJywgJzIwMCcsICctbWV0YWxfYmluZGluZycsICctaW1hZScsICc8aW5maWxlLm1hZT4nLCAnLW9tYWUnLCAnPG91dGZpbGUubWFlPic=

> <r_lp_tautomer_probability>
0.839158

> <r_epik_Ionization_Penalty>
0.00037085

> <r_epik_Ionization_Penalty_Charging>
0.000336002

> <r_epik_Ionization_Penalty_Neutral>
3.48485e-05

> <r_epik_State_Penalty>
0.09125

> <r_epik_Charging_Adjusted_Penalty>
0.091586

> <i_epik_Tot_Q>
0

> <i_epik_Tot_abs_Q>
0

> <r_epik_Metal_State_Penalty>
0.251445

> <b_epik_Metal_Only>
0

> <s_lp_Force_Field>
OPLS_2005

> <r_lp_Energy>
10.0645

> <b_lp_Chiralities_Consistent>
1

> <s_lp_Variant>
AV-unprocessed.smi:1295-3

> <Gold.Version>
5.8.1

> <Gold.Id.Protein>
6NUR|6NUR_protein|mol2

> <Gold.PLP.Fitness>
46.7750

> <Gold.PLP.PLP>
-40.9175

> <Gold.PLP.part.hbond>
-2.0000

> <Gold.PLP.part.metal>
0.0000

> <Gold.PLP.part.buried>
-5.5879

> <Gold.PLP.part.nonpolar>
-34.1956

> <Gold.PLP.part.repulsive>
0.3554

> <Gold.PLP.ligand.clash>
0.0000

> <Gold.PLP.ligand.torsion>
0.0624

> <Gold.PLP.Chemscore.Hbond>
1.9913

> <Gold.PLP.Chemscore.CHOScore>
0.0000

> <Gold.PLP.Chemscore.Metal>
0.0000

> <Gold.Chemscore.Hbonds>
donor molecule, donor type, donor heavy atom, donor atom, acceptor molecule, acceptor atom, score
      P1  H  6896  6907       L1    19  0.89
      P1  H  7997  8009       L1     9  0.59

> <Gold.PLP.Chemscore.Internal.Correction>
0.0086

> <Gold.Rescore>
     Score         DG    S(hbond)    S(metal)    S(lipo)     H(rot)  DE(clash)    DE(int)     intcor
     20.62     -20.71       1.96        0.00     106.62       1.48       0.00       0.08       ----

> <Gold.Chemscore.Fitness>
20.6233

> <Gold.Chemscore.DG>
-20.7071

> <Gold.Chemscore.ZeroCoef>
-5.4800

> <Gold.Chemscore.Hbond>
1.9587

> <Gold.Chemscore.Metal>
0.0000

> <Gold.Chemscore.Lipo>
106.6159

> <Gold.Chemscore.Internal_Hbond>
0.0000

> <Gold.Chemscore.DEClash>
0.0036

> <Gold.Chemscore.DEInternal>
0.0802

> <Gold.Chemscore.Rot>
1.4801

> <Gold.Chemscore.Internal.Correction>
   9.000000E+99

> <Gold.Chemscore.Hbonds>
donor molecule, donor type, donor heavy atom, donor atom, acceptor molecule, acceptor atom, score
      P1  H  6896  6907       L1    19  0.84
      P1  H  7997  8009       L1     9  0.56

> <Gold.Chemscore.Hbond.Weighted>
-6.5422

> <Gold.Chemscore.Metal.Weighted>
-0.0000

> <Gold.Chemscore.Lipo.Weighted>
-12.4741

> <Gold.Chemscore.Internal_Hbond.Weighted>
0.0000

> <Gold.Chemscore.DEClash.Weighted>
0.0036

> <Gold.Chemscore.DEInternal.Weighted>
0.0802

> <Gold.Chemscore.Rot.Weighted>
3.7891

> <Gold.Chemscore.Internal.Correction.Weighted>
   9.000000E+99

> <Gold.Protein.RotatedTorsions>
[ 6907 6896 6895 6894 ] final  -37.01 input  -60.11 | X-H torsion
[ 7974 7965 7964 7962 ] final  -34.95 input  175.53 | X-H torsion
[ 8008 7997 7996 7995 ] final  177.30 input   59.86 | X-H torsion
[ 10167 10162 10161 10158 ] final  -94.97 input  -65.29 | X-H torsion
[ 10718 10713 10712 10709 ] final  144.70 input   66.30 | X-H torsion
[ 10763 10752 10751 10750 ] final  -22.82 input  -60.55 | X-H torsion
[ 11005 11000 10999 10996 ] final  -15.10 input  -57.11 | X-H torsion

> <Gold.Protein.ActiveResidues>
 VAL166  LYS551  ARG553  GLY616  TRP617  ASP618  TYR619  PRO620  LYS621  CYS622 
 ASP623  PHE694  ASN695  SER759  ASP760  ASP761  ALA762  ILE779  LEU786  VAL792 
 PHE793  MET794  SER795  GLU796  ALA797  LYS798  CYS799  TRP800  GLU811  SER814 

> <Gold.Protein.RotatedAtoms>
  151.0200  134.9462  159.8053 H   0  0  0  0  0  0  0  0  0  0  0  0  # atno 6907 bound_to 6896
  152.5323  134.2916  159.9055 H   0  0  0  0  0  0  0  0  0  0  0  0  # atno 6908 bound_to 6896
  151.2923  133.4117  159.2668 H   0  0  0  0  0  0  0  0  0  0  0  0  # atno 6909 bound_to 6896
  146.0787  140.6101  142.8918 H   0  0  0  0  0  0  0  0  0  0  0  0  # atno 7974 bound_to 7965
  156.0671  140.1362  156.9873 H   0  0  0  0  0  0  0  0  0  0  0  0  # atno 8008 bound_to 7997
  154.4512  140.0979  156.6675 H   0  0  0  0  0  0  0  0  0  0  0  0  # atno 8009 bound_to 7997
  155.5286  140.3458  155.4424 H   0  0  0  0  0  0  0  0  0  0  0  0  # atno 8010 bound_to 7997
  140.3090  143.3116  152.0169 H   0  0  0  0  0  0  0  0  0  0  0  0  # atno 10167 bound_to 10162
  157.3540  131.0955  151.0975 H   0  0  0  0  0  0  0  0  0  0  0  0  # atno 10718 bound_to 10713
  153.6580  135.6978  153.5186 H   0  0  0  0  0  0  0  0  0  0  0  0  # atno 10763 bound_to 10752
  153.2654  135.4231  155.0934 H   0  0  0  0  0  0  0  0  0  0  0  0  # atno 10764 bound_to 10752
  154.8459  135.3565  154.6125 H   0  0  0  0  0  0  0  0  0  0  0  0  # atno 10765 bound_to 10752
  140.7932  133.8271  155.9399 H   0  0  0  0  0  0  0  0  0  0  0  0  # atno 11005 bound_to 11000
  144.7278  140.4580  143.6960 LP  0  0  0  0  0  0  0  0  0  0  0  0  # atno 17320 bound_to 7965
  145.6258  139.1530  143.2996 LP  0  0  0  0  0  0  0  0  0  0  0  0  # atno 17321 bound_to 7965
  139.4898  144.6399  151.6898 LP  0  0  0  0  0  0  0  0  0  0  0  0  # atno 17342 bound_to 10162
  140.5585  144.0308  150.6159 LP  0  0  0  0  0  0  0  0  0  0  0  0  # atno 17343 bound_to 10162
  157.2139  130.6450  149.5785 LP  0  0  0  0  0  0  0  0  0  0  0  0  # atno 17370 bound_to 10713
  155.9726  130.4651  150.6241 LP  0  0  0  0  0  0  0  0  0  0  0  0  # atno 17371 bound_to 10713
  140.9369  134.1951  157.4825 LP  0  0  0  0  0  0  0  0  0  0  0  0  # atno 17394 bound_to 11000
  139.8729  134.9856  156.5287 LP  0  0  0  0  0  0  0  0  0  0  0  0  # atno 17395 bound_to 11000

$$$$
