AV-unprocessed.smi:2069|AV-procd|sdf|8431|dock4
  -GOLD-   2272011123D 1   1.00000     0.00000
 Structure written by MMmdl.
 38 39  0  0  0  0  0  0  0  0  1 V2000
  138.0011  136.9830  153.4852 C   0  0  0  0  0  0  0  0  0  0  0  0
  139.4608  137.1320  153.7464 C   0  0  0  0  0  0  0  0  0  0  0  0
  140.1768  136.2178  154.4124 N   0  0  0  0  0  0  0  0  0  0  0  0
  141.5112  136.5798  154.5322 N   0  0  0  0  0  0  0  0  0  0  0  0
  141.7628  137.7605  153.9504 C   0  0  0  0  0  0  0  0  0  0  0  0
  143.0441  138.3718  153.9254 N   0  0  0  0  0  0  0  0  0  0  0  0
  144.1835  137.9438  154.4967 C   0  0  0  0  0  0  0  0  0  0  0  0
  144.3035  136.9121  155.1577 O   0  0  0  0  0  0  0  0  0  0  0  0
  145.1943  138.7901  154.2498 N   0  0  0  0  0  0  0  0  0  0  0  0
  146.5689  138.6345  154.7210 C   0  0  0  0  0  0  0  0  0  0  0  0
  147.3824  139.9593  154.6770 C   0  0  2  0  0  0  0  0  0  0  0  0
  147.3994  140.4977  153.2233 C   0  0  0  0  0  0  0  0  0  0  0  0
  148.7409  139.8251  155.2542 N   0  0  0  0  0  0  0  0  0  0  0  0
  149.3828  141.1216  155.5020 C   0  0  0  0  0  0  0  0  0  0  0  0
  150.8051  140.9869  156.0727 C   0  0  0  0  0  0  0  0  0  0  0  0
  151.6028  140.2074  155.1930 O   0  0  0  0  0  0  0  0  0  0  0  0
  151.0590  138.9107  154.9911 C   0  0  0  0  0  0  0  0  0  0  0  0
  149.6397  139.0289  154.4097 C   0  0  0  0  0  0  0  0  0  0  0  0
  140.3758  138.5319  153.2006 S   0  0  0  0  0  0  0  0  0  0  0  0
  137.6149  136.0804  153.9598 H   0  0  0  0  0  0  0  0  0  0  0  0
  137.8193  136.9187  152.4123 H   0  0  0  0  0  0  0  0  0  0  0  0
  137.4626  137.8435  153.8823 H   0  0  0  0  0  0  0  0  0  0  0  0
  143.0999  139.2372  153.4091 H   0  0  0  0  0  0  0  0  0  0  0  0
  144.9995  139.6096  153.6938 H   0  0  0  0  0  0  0  0  0  0  0  0
  146.4653  138.2696  155.7408 H   0  0  0  0  0  0  0  0  0  0  0  0
  147.0965  137.8543  154.1693 H   0  0  0  0  0  0  0  0  0  0  0  0
  146.8347  140.6880  155.2770 H   0  0  0  0  0  0  0  0  0  0  0  0
  146.4005  140.5715  152.7957 H   0  0  0  0  0  0  0  0  0  0  0  0
  147.9882  139.8518  152.5711 H   0  0  0  0  0  0  0  0  0  0  0  0
  147.8054  141.5059  153.1574 H   0  0  0  0  0  0  0  0  0  0  0  0
  149.4168  141.7002  154.5777 H   0  0  0  0  0  0  0  0  0  0  0  0
  148.8108  141.7044  156.2210 H   0  0  0  0  0  0  0  0  0  0  0  0
  151.2601  141.9706  156.1882 H   0  0  0  0  0  0  0  0  0  0  0  0
  150.7832  140.5266  157.0617 H   0  0  0  0  0  0  0  0  0  0  0  0
  151.7034  138.3574  154.3077 H   0  0  0  0  0  0  0  0  0  0  0  0
  151.0463  138.3614  155.9339 H   0  0  0  0  0  0  0  0  0  0  0  0
  149.2606  138.0153  154.2939 H   0  0  0  0  0  0  0  0  0  0  0  0
  149.6924  139.4651  153.4109 H   0  0  0  0  0  0  0  0  0  0  0  0
  1  2  1  0  0  0  0
  1 20  1  0  0  0  0
  1 21  1  0  0  0  0
  1 22  1  0  0  0  0
  2 19  1  0  0  0  0
  2  3  2  0  0  0  0
  3  4  1  0  0  0  0
  4  5  2  0  0  0  0
  5  6  1  0  0  0  0
  5 19  1  0  0  0  0
  6  7  1  0  0  0  0
  6 23  1  0  0  0  0
  7  8  2  0  0  0  0
  7  9  1  0  0  0  0
  9 10  1  0  0  0  0
  9 24  1  0  0  0  0
 10 11  1  0  0  0  0
 10 25  1  0  0  0  0
 10 26  1  0  0  0  0
 11 12  1  0  0  0  0
 11 13  1  0  0  0  0
 11 27  1  0  0  0  0
 12 28  1  0  0  0  0
 12 29  1  0  0  0  0
 12 30  1  0  0  0  0
 13 18  1  0  0  0  0
 13 14  1  0  0  0  0
 14 15  1  0  0  0  0
 14 31  1  0  0  0  0
 14 32  1  0  0  0  0
 15 16  1  0  0  0  0
 15 33  1  0  0  0  0
 15 34  1  0  0  0  0
 16 17  1  0  0  0  0
 17 18  1  0  0  0  0
 17 35  1  0  0  0  0
 17 36  1  0  0  0  0
 18 37  1  0  0  0  0
 18 38  1  0  0  0  0
M  END
> <s_m_source_file>
AV-unprocessed.smi

> <i_m_source_file_index>
2069

> <i_lp_mmshare_version>
43012

> <i_f3d_flags>
0

> <s_epik_input>
W0NIM11jMW5uYyhzMSlbTkhdQyg9TylbTkhdW0NIMl1bQ0BIXShbQ0gzXSlOMltDSDJdW0NIMl1PW0NIMl1bQ0gyXTI=

> <s_epik_cmdline>
J2VwaWtfcHl0aG9uJywgJy1waCcsICc3LjAnLCAnLXRuJywgJzgnLCAnLW1hJywgJzIwMCcsICctbWV0YWxfYmluZGluZycsICctaW1hZScsICc8aW5maWxlLm1hZT4nLCAnLW9tYWUnLCAnPG91dGZpbGUubWFlPic=

> <r_lp_tautomer_probability>
1

> <r_epik_Ionization_Penalty>
0.221104

> <r_epik_Ionization_Penalty_Charging>
0

> <r_epik_Ionization_Penalty_Neutral>
0.221104

> <r_epik_State_Penalty>
0.209349

> <r_epik_Charging_Adjusted_Penalty>
0.209349

> <i_epik_Tot_Q>
0

> <i_epik_Tot_abs_Q>
0

> <r_epik_Metal_State_Penalty>
0.561068

> <b_epik_Metal_Only>
0

> <s_lp_Force_Field>
OPLS_2005

> <r_lp_Energy>
28.2762

> <b_lp_Chiralities_Consistent>
1

> <s_lp_Variant>
AV-unprocessed.smi:2069-1

> <Gold.Version>
5.8.1

> <Gold.Id.Protein>
6NUR|6NUR_protein|mol2

> <Gold.PLP.Fitness>
40.3370

> <Gold.PLP.PLP>
-29.1596

> <Gold.PLP.part.hbond>
-4.0119

> <Gold.PLP.part.metal>
0.0000

> <Gold.PLP.part.buried>
-3.7682

> <Gold.PLP.part.nonpolar>
-21.7218

> <Gold.PLP.part.repulsive>
0.1740

> <Gold.PLP.ligand.clash>
0.0000

> <Gold.PLP.ligand.torsion>
0.2436

> <Gold.PLP.Chemscore.Hbond>
3.8720

> <Gold.PLP.Chemscore.CHOScore>
0.0000

> <Gold.PLP.Chemscore.Metal>
0.0000

> <Gold.Chemscore.Hbonds>
donor molecule, donor type, donor heavy atom, donor atom, acceptor molecule, acceptor atom, score
      L1  H     6    23       P1 10175  1.00
      L1  H     9    24       P1 10175  0.90
      P1  H  7989  7998       L1    16  0.96
      P1  H 11000 11005       L1     3  0.67

> <Gold.PLP.Chemscore.Internal.Correction>
0.0486

> <Gold.Rescore>
     Score         DG    S(hbond)    S(metal)    S(lipo)     H(rot)  DE(clash)    DE(int)     intcor
     16.87     -18.86       2.96        0.00      65.04       1.60       0.53       1.47       ----

> <Gold.Chemscore.Fitness>
16.8674

> <Gold.Chemscore.DG>
-18.8646

> <Gold.Chemscore.ZeroCoef>
-5.4800

> <Gold.Chemscore.Hbond>
2.9565

> <Gold.Chemscore.Metal>
0.0000

> <Gold.Chemscore.Lipo>
65.0422

> <Gold.Chemscore.Internal_Hbond>
0.0000

> <Gold.Chemscore.DEClash>
0.5290

> <Gold.Chemscore.DEInternal>
1.4682

> <Gold.Chemscore.Rot>
1.6016

> <Gold.Chemscore.Internal.Correction>
   9.000000E+99

> <Gold.Chemscore.Hbonds>
donor molecule, donor type, donor heavy atom, donor atom, acceptor molecule, acceptor atom, score
      L1  H     6    23       P1 10175  0.99
      L1  H     9    24       P1 10175  0.85
      P1  H  7989  7998       L1    16  0.31
      P1  H 11000 11005       L1     3  0.20

> <Gold.Chemscore.Hbond.Weighted>
-9.8748

> <Gold.Chemscore.Metal.Weighted>
-0.0000

> <Gold.Chemscore.Lipo.Weighted>
-7.6099

> <Gold.Chemscore.Internal_Hbond.Weighted>
0.0000

> <Gold.Chemscore.DEClash.Weighted>
0.5290

> <Gold.Chemscore.DEInternal.Weighted>
1.4682

> <Gold.Chemscore.Rot.Weighted>
4.1001

> <Gold.Chemscore.Internal.Correction.Weighted>
   9.000000E+99

> <Gold.Protein.RotatedTorsions>
[ 6907 6896 6895 6894 ] final   22.76 input  -60.11 | X-H torsion
[ 7974 7965 7964 7962 ] final  -66.16 input  175.53 | X-H torsion
[ 8008 7997 7996 7995 ] final -145.68 input   59.86 | X-H torsion
[ 10167 10162 10161 10158 ] final  136.74 input  -65.29 | X-H torsion
[ 10718 10713 10712 10709 ] final  175.93 input   66.30 | X-H torsion
[ 10763 10752 10751 10750 ] final  171.74 input  -60.55 | X-H torsion
[ 11005 11000 10999 10996 ] final   62.34 input  -57.11 | X-H torsion

> <Gold.Protein.ActiveResidues>
 VAL166  LYS551  ARG553  GLY616  TRP617  ASP618  TYR619  PRO620  LYS621  CYS622 
 ASP623  PHE694  ASN695  SER759  ASP760  ASP761  ALA762  ILE779  LEU786  VAL792 
 PHE793  MET794  SER795  GLU796  ALA797  LYS798  CYS799  TRP800  GLU811  SER814 

> <Gold.Protein.RotatedAtoms>
  151.9321  135.0252  160.0529 H   0  0  0  0  0  0  0  0  0  0  0  0  # atno 6907 bound_to 6896
  152.2110  133.4906  159.5118 H   0  0  0  0  0  0  0  0  0  0  0  0  # atno 6908 bound_to 6896
  150.6976  134.1384  159.4138 H   0  0  0  0  0  0  0  0  0  0  0  0  # atno 6909 bound_to 6896
  145.7452  140.8935  143.0509 H   0  0  0  0  0  0  0  0  0  0  0  0  # atno 7974 bound_to 7965
  155.5471  140.0613  157.2858 H   0  0  0  0  0  0  0  0  0  0  0  0  # atno 8008 bound_to 7997
  154.4433  140.1909  156.0693 H   0  0  0  0  0  0  0  0  0  0  0  0  # atno 8009 bound_to 7997
  156.0543  140.3280  155.7391 H   0  0  0  0  0  0  0  0  0  0  0  0  # atno 8010 bound_to 7997
  139.5169  144.6448  151.5470 H   0  0  0  0  0  0  0  0  0  0  0  0  # atno 10167 bound_to 10162
  156.9275  130.9960  151.2993 H   0  0  0  0  0  0  0  0  0  0  0  0  # atno 10718 bound_to 10713
  154.4163  135.2757  155.2005 H   0  0  0  0  0  0  0  0  0  0  0  0  # atno 10763 bound_to 10752
  154.3969  135.6053  153.5878 H   0  0  0  0  0  0  0  0  0  0  0  0  # atno 10764 bound_to 10752
  152.9832  135.5917  154.4452 H   0  0  0  0  0  0  0  0  0  0  0  0  # atno 10765 bound_to 10752
  140.0099  134.6312  155.9797 H   0  0  0  0  0  0  0  0  0  0  0  0  # atno 11005 bound_to 11000
  144.6861  139.9516  143.7478 LP  0  0  0  0  0  0  0  0  0  0  0  0  # atno 17320 bound_to 7965
  146.0409  139.3421  143.0698 LP  0  0  0  0  0  0  0  0  0  0  0  0  # atno 17321 bound_to 7965
  140.6229  143.9225  150.6540 LP  0  0  0  0  0  0  0  0  0  0  0  0  # atno 17342 bound_to 10162
  140.2504  143.3597  152.1411 LP  0  0  0  0  0  0  0  0  0  0  0  0  # atno 17343 bound_to 10162
  157.5868  130.8415  149.8601 LP  0  0  0  0  0  0  0  0  0  0  0  0  # atno 17370 bound_to 10713
  156.0462  130.3727  150.1312 LP  0  0  0  0  0  0  0  0  0  0  0  0  # atno 17371 bound_to 10713
  141.1703  133.6537  156.4629 LP  0  0  0  0  0  0  0  0  0  0  0  0  # atno 17394 bound_to 11000
  140.4573  134.6873  157.5069 LP  0  0  0  0  0  0  0  0  0  0  0  0  # atno 17395 bound_to 11000

$$$$
