AV-unprocessed.smi:3145|AV-procd|sdf|11981|dock7
  -GOLD-   2272017383D 1   1.00000     0.00000
 Structure written by MMmdl.
 34 34  0  0  0  0  0  0  0  0  1 V2000
  148.4386  133.9596  153.5059 C   0  0  0  0  0  0  0  0  0  0  0  0
  147.7226  133.3110  152.3131 C   0  0  2  0  0  0  0  0  0  0  0  0
  146.2201  133.6735  152.3036 C   0  0  0  0  0  0  0  0  0  0  0  0
  145.5029  133.1203  151.1675 N   0  0  0  0  0  0  0  0  0  0  0  0
  144.1524  133.1819  150.8963 C   0  0  0  0  0  0  0  0  0  0  0  0
  143.9455  132.5324  149.7132 C   0  0  0  0  0  0  0  0  0  0  0  0
  145.2461  132.0978  149.3336 C   0  0  0  0  0  0  0  0  0  0  0  0
  146.1760  132.4486  150.2069 N   0  0  0  0  0  0  0  0  0  0  0  0
  147.8912  131.8660  152.4319 N   0  0  0  0  0  0  0  0  0  0  0  0
  146.9795  131.2761  153.4200 C   0  0  0  0  0  0  0  0  0  0  0  0
  146.8377  129.7709  153.2153 C   0  0  0  0  0  0  0  0  0  0  0  0
  146.3282  129.0700  154.0889 O   0  0  0  0  0  0  0  0  0  0  0  0
  147.3012  129.2891  152.0532 N   0  0  0  0  0  0  0  0  0  0  0  0
  147.2711  127.8872  151.6659 C   0  0  0  0  0  0  0  0  0  0  0  0
  148.6761  127.4101  151.2842 C   0  0  0  0  0  0  0  0  0  0  0  0
  148.6990  126.0037  150.8552 C   0  0  0  0  0  0  0  0  0  0  0  0
  148.7168  124.8972  150.5178 N   0  0  0  0  0  0  0  0  0  0  0  0
  148.3599  135.0464  153.4639 H   0  0  0  0  0  0  0  0  0  0  0  0
  149.5003  133.7098  153.5133 H   0  0  0  0  0  0  0  0  0  0  0  0
  148.0122  133.6337  154.4555 H   0  0  0  0  0  0  0  0  0  0  0  0
  148.1981  133.6833  151.4034 H   0  0  0  0  0  0  0  0  0  0  0  0
  145.7388  133.3425  153.2257 H   0  0  0  0  0  0  0  0  0  0  0  0
  146.1024  134.7573  152.2700 H   0  0  0  0  0  0  0  0  0  0  0  0
  143.4605  133.6818  151.5584 H   0  0  0  0  0  0  0  0  0  0  0  0
  143.0078  132.3897  149.1972 H   0  0  0  0  0  0  0  0  0  0  0  0
  145.5404  131.5421  148.4555 H   0  0  0  0  0  0  0  0  0  0  0  0
  147.7718  131.4343  151.5266 H   0  0  0  0  0  0  0  0  0  0  0  0
  147.3459  131.4448  154.4327 H   0  0  0  0  0  0  0  0  0  0  0  0
  146.0035  131.7581  153.3500 H   0  0  0  0  0  0  0  0  0  0  0  0
  147.6967  129.9438  151.3931 H   0  0  0  0  0  0  0  0  0  0  0  0
  146.8853  127.2900  152.4936 H   0  0  0  0  0  0  0  0  0  0  0  0
  146.5891  127.7553  150.8243 H   0  0  0  0  0  0  0  0  0  0  0  0
  149.0770  128.0144  150.4700 H   0  0  0  0  0  0  0  0  0  0  0  0
  149.3569  127.5117  152.1299 H   0  0  0  0  0  0  0  0  0  0  0  0
  1  2  1  0  0  0  0
  1 18  1  0  0  0  0
  1 19  1  0  0  0  0
  1 20  1  0  0  0  0
  2  3  1  0  0  0  0
  2  9  1  0  0  0  0
  2 21  1  0  0  0  0
  3  4  1  0  0  0  0
  3 22  1  0  0  0  0
  3 23  1  0  0  0  0
  4  8  1  0  0  0  0
  4  5  1  0  0  0  0
  5  6  2  0  0  0  0
  5 24  1  0  0  0  0
  6  7  1  0  0  0  0
  6 25  1  0  0  0  0
  7  8  2  0  0  0  0
  7 26  1  0  0  0  0
  9 10  1  0  0  0  0
  9 27  1  0  0  0  0
 10 11  1  0  0  0  0
 10 28  1  0  0  0  0
 10 29  1  0  0  0  0
 11 12  2  0  0  0  0
 11 13  1  0  0  0  0
 13 14  1  0  0  0  0
 13 30  1  0  0  0  0
 14 15  1  0  0  0  0
 14 31  1  0  0  0  0
 14 32  1  0  0  0  0
 15 16  1  0  0  0  0
 15 33  1  0  0  0  0
 15 34  1  0  0  0  0
 16 17  3  0  0  0  0
M  END
> <s_m_source_file>
AV-unprocessed.smi

> <i_m_source_file_index>
3145

> <i_lp_mmshare_version>
43012

> <i_f3d_flags>
0

> <s_epik_input>
bjFbY0hdW2NIXVtjSF1uMVtDSDJdW0NAQEhdKFtDSDNdKVtOSF1bQ0gyXUMoPU8pW05IXVtDSDJdW0NIMl1DI04=

> <s_epik_cmdline>
J2VwaWtfcHl0aG9uJywgJy1waCcsICc3LjAnLCAnLXRuJywgJzgnLCAnLW1hJywgJzIwMCcsICctbWV0YWxfYmluZGluZycsICctaW1hZScsICc8aW5maWxlLm1hZT4nLCAnLW9tYWUnLCAnPG91dGZpbGUubWFlPic=

> <r_lp_tautomer_probability>
1

> <r_epik_Ionization_Penalty>
0.765991

> <r_epik_Ionization_Penalty_Charging>
0

> <r_epik_Ionization_Penalty_Neutral>
0.765991

> <r_epik_State_Penalty>
0.794192

> <r_epik_Charging_Adjusted_Penalty>
0.794192

> <i_epik_Tot_Q>
0

> <i_epik_Tot_abs_Q>
0

> <r_epik_Metal_State_Penalty>
0.806127

> <b_epik_Metal_Only>
0

> <s_lp_Force_Field>
OPLS_2005

> <r_lp_Energy>
5.26669

> <b_lp_Chiralities_Consistent>
1

> <s_lp_Variant>
AV-unprocessed.smi:3145-3

> <Gold.Version>
5.8.1

> <Gold.Id.Protein>
6NUR|6NUR_protein|mol2

> <Gold.PLP.Fitness>
42.8932

> <Gold.PLP.PLP>
-38.6328

> <Gold.PLP.part.hbond>
-2.0000

> <Gold.PLP.part.metal>
0.0000

> <Gold.PLP.part.buried>
-7.7500

> <Gold.PLP.part.nonpolar>
-29.9963

> <Gold.PLP.part.repulsive>
0.4192

> <Gold.PLP.ligand.clash>
0.0000

> <Gold.PLP.ligand.torsion>
0.4377

> <Gold.PLP.Chemscore.Hbond>
1.6880

> <Gold.PLP.Chemscore.CHOScore>
0.0000

> <Gold.PLP.Chemscore.Metal>
0.0000

> <Gold.Chemscore.Hbonds>
donor molecule, donor type, donor heavy atom, donor atom, acceptor molecule, acceptor atom, score
      L1  H     9    27       P1 10747  0.64
      L1  H    13    30       P1 10747  1.00

> <Gold.PLP.Chemscore.Internal.Correction>
0.0720

> <Gold.Rescore>
     Score         DG    S(hbond)    S(metal)    S(lipo)     H(rot)  DE(clash)    DE(int)     intcor
     11.87     -12.75       1.78        0.00      72.66       2.80       0.08       0.79       ----

> <Gold.Chemscore.Fitness>
11.8712

> <Gold.Chemscore.DG>
-12.7489

> <Gold.Chemscore.ZeroCoef>
-5.4800

> <Gold.Chemscore.Hbond>
1.7776

> <Gold.Chemscore.Metal>
0.0000

> <Gold.Chemscore.Lipo>
72.6623

> <Gold.Chemscore.Internal_Hbond>
0.0000

> <Gold.Chemscore.DEClash>
0.0841

> <Gold.Chemscore.DEInternal>
0.7937

> <Gold.Chemscore.Rot>
2.8006

> <Gold.Chemscore.Internal.Correction>
   9.000000E+99

> <Gold.Chemscore.Hbonds>
donor molecule, donor type, donor heavy atom, donor atom, acceptor molecule, acceptor atom, score
      L1  H     9    27       P1 10747  0.64
      L1  H    13    30       P1 10747  0.99

> <Gold.Chemscore.Hbond.Weighted>
-5.9370

> <Gold.Chemscore.Metal.Weighted>
-0.0000

> <Gold.Chemscore.Lipo.Weighted>
-8.5015

> <Gold.Chemscore.Internal_Hbond.Weighted>
0.0000

> <Gold.Chemscore.DEClash.Weighted>
0.0841

> <Gold.Chemscore.DEInternal.Weighted>
0.7937

> <Gold.Chemscore.Rot.Weighted>
7.1696

> <Gold.Chemscore.Internal.Correction.Weighted>
   9.000000E+99

> <Gold.Protein.RotatedTorsions>
[ 6907 6896 6895 6894 ] final -107.00 input  -60.11 | X-H torsion
[ 7974 7965 7964 7962 ] final   91.88 input  175.53 | X-H torsion
[ 8008 7997 7996 7995 ] final  100.82 input   59.86 | X-H torsion
[ 10167 10162 10161 10158 ] final    0.32 input  -65.29 | X-H torsion
[ 10718 10713 10712 10709 ] final -157.28 input   66.30 | X-H torsion
[ 10763 10752 10751 10750 ] final  -25.41 input  -60.55 | X-H torsion
[ 11005 11000 10999 10996 ] final -117.29 input  -57.11 | X-H torsion

> <Gold.Protein.ActiveResidues>
 VAL166  LYS551  ARG553  GLY616  TRP617  ASP618  TYR619  PRO620  LYS621  CYS622 
 ASP623  PHE694  ASN695  SER759  ASP760  ASP761  ALA762  ILE779  LEU786  VAL792 
 PHE793  MET794  SER795  GLU796  ALA797  LYS798  CYS799  TRP800  GLU811  SER814 

> <Gold.Protein.RotatedAtoms>
  150.7420  133.9892  159.3601 H   0  0  0  0  0  0  0  0  0  0  0  0  # atno 6907 bound_to 6896
  151.7838  135.0752  160.0387 H   0  0  0  0  0  0  0  0  0  0  0  0  # atno 6908 bound_to 6896
  152.3255  133.5864  159.5810 H   0  0  0  0  0  0  0  0  0  0  0  0  # atno 6909 bound_to 6896
  145.4998  139.2276  143.2783 H   0  0  0  0  0  0  0  0  0  0  0  0  # atno 7974 bound_to 7965
  156.1240  140.3207  155.8249 H   0  0  0  0  0  0  0  0  0  0  0  0  # atno 8008 bound_to 7997
  155.4454  140.0528  157.3023 H   0  0  0  0  0  0  0  0  0  0  0  0  # atno 8009 bound_to 7997
  154.4848  140.2068  155.9693 H   0  0  0  0  0  0  0  0  0  0  0  0  # atno 8010 bound_to 7997
  140.6734  143.6985  150.7971 H   0  0  0  0  0  0  0  0  0  0  0  0  # atno 10167 bound_to 10162
  156.5381  130.8551  151.2739 H   0  0  0  0  0  0  0  0  0  0  0  0  # atno 10718 bound_to 10713
  153.6994  135.6957  153.5067 H   0  0  0  0  0  0  0  0  0  0  0  0  # atno 10763 bound_to 10752
  153.2354  135.4323  155.0639 H   0  0  0  0  0  0  0  0  0  0  0  0  # atno 10764 bound_to 10752
  154.8349  135.3494  154.6533 H   0  0  0  0  0  0  0  0  0  0  0  0  # atno 10765 bound_to 10752
  141.0365  133.9902  157.3063 H   0  0  0  0  0  0  0  0  0  0  0  0  # atno 11005 bound_to 11000
  146.2233  140.5798  142.9007 LP  0  0  0  0  0  0  0  0  0  0  0  0  # atno 17320 bound_to 7965
  144.7786  140.5793  143.6621 LP  0  0  0  0  0  0  0  0  0  0  0  0  # atno 17321 bound_to 7965
  140.0674  143.5095  152.2597 LP  0  0  0  0  0  0  0  0  0  0  0  0  # atno 17342 bound_to 10162
  139.6013  144.7583  151.3164 LP  0  0  0  0  0  0  0  0  0  0  0  0  # atno 17343 bound_to 10162
  157.7410  130.9861  150.2416 LP  0  0  0  0  0  0  0  0  0  0  0  0  # atno 17370 bound_to 10713
  156.2997  130.3757  149.7762 LP  0  0  0  0  0  0  0  0  0  0  0  0  # atno 17371 bound_to 10713
  139.9244  135.0201  156.8181 LP  0  0  0  0  0  0  0  0  0  0  0  0  # atno 17394 bound_to 11000
  140.6313  133.9903  155.7663 LP  0  0  0  0  0  0  0  0  0  0  0  0  # atno 17395 bound_to 11000

$$$$
