AV-unprocessed.smi:1044|AV-procd|sdf|4543|dock10
  -GOLD-   22720 2573D 1   1.00000     0.00000
 Structure written by MMmdl.
 45 46  0  0  0  0  0  0  0  0  1 V2000
  146.2241  132.8207  150.1560 C   0  0  0  0  0  0  0  0  0  0  0  0
  145.9271  133.4346  151.5263 C   0  0  0  0  0  0  0  0  0  0  0  0
  147.1612  133.6729  152.1962 O   0  0  0  0  0  0  0  0  0  0  0  0
  147.6620  132.6951  153.0347 C   0  0  0  0  0  0  0  0  0  0  0  0
  147.1558  131.4401  152.9373 N   0  0  0  0  0  0  0  0  0  0  0  0
  147.6476  130.4834  153.7506 C   0  0  0  0  0  0  0  0  0  0  0  0
  148.6653  130.7217  154.6919 C   0  0  0  0  0  0  0  0  0  0  0  0
  149.1916  132.0229  154.7958 C   0  0  0  0  0  0  0  0  0  0  0  0
  148.6760  133.0417  153.9580 C   0  0  0  0  0  0  0  0  0  0  0  0
  149.1461  134.3846  153.9622 N   0  0  0  0  0  0  0  0  0  0  0  0
  149.8959  135.0134  154.8832 C   0  0  0  0  0  0  0  0  0  0  0  0
  150.2948  134.5199  155.9379 O   0  0  0  0  0  0  0  0  0  0  0  0
  150.1482  136.2781  154.5170 N   0  0  0  0  0  0  0  0  0  0  0  0
  150.9318  137.2372  155.2889 C   0  0  1  0  0  0  0  0  0  0  0  0
  150.8049  138.6343  154.6658 C   0  0  0  0  0  0  0  0  0  0  0  0
  151.6062  139.6437  155.4952 C   0  0  0  0  0  0  0  0  0  0  0  0
  151.1559  139.6390  156.9662 C   0  0  0  0  0  0  0  0  0  0  0  0
  151.1923  138.2802  157.5456 N   0  0  0  0  0  0  0  0  0  0  0  0
  152.5077  137.8091  158.5830 S   0  0  0  0  0  0  0  0  0  0  0  0
  153.3402  136.4513  157.6635 C   0  0  0  0  0  0  0  0  0  0  0  0
  153.4397  138.9435  158.6723 O   0  0  0  0  0  0  0  0  0  0  0  0
  151.9299  137.2426  159.8112 O   0  0  0  0  0  0  0  0  0  0  0  0
  150.4720  137.2554  156.7630 C   0  0  0  0  0  0  0  0  0  0  0  0
  145.3014  132.6225  149.6103 H   0  0  0  0  0  0  0  0  0  0  0  0
  146.7619  131.8776  150.2573 H   0  0  0  0  0  0  0  0  0  0  0  0
  146.8335  133.4919  149.5503 H   0  0  0  0  0  0  0  0  0  0  0  0
  145.3766  134.3678  151.3967 H   0  0  0  0  0  0  0  0  0  0  0  0
  145.3046  132.7513  152.1064 H   0  0  0  0  0  0  0  0  0  0  0  0
  147.2212  129.4970  153.6433 H   0  0  0  0  0  0  0  0  0  0  0  0
  149.0375  129.9238  155.3172 H   0  0  0  0  0  0  0  0  0  0  0  0
  149.9863  132.2060  155.5022 H   0  0  0  0  0  0  0  0  0  0  0  0
  148.8260  134.9516  153.1905 H   0  0  0  0  0  0  0  0  0  0  0  0
  149.7735  136.6015  153.6372 H   0  0  0  0  0  0  0  0  0  0  0  0
  151.9806  136.9443  155.2387 H   0  0  0  0  0  0  0  0  0  0  0  0
  151.1681  138.6267  153.6374 H   0  0  0  0  0  0  0  0  0  0  0  0
  149.7575  138.9372  154.6280 H   0  0  0  0  0  0  0  0  0  0  0  0
  152.6687  139.4139  155.4272 H   0  0  0  0  0  0  0  0  0  0  0  0
  151.4844  140.6432  155.0769 H   0  0  0  0  0  0  0  0  0  0  0  0
  151.7709  140.3208  157.5530 H   0  0  0  0  0  0  0  0  0  0  0  0
  150.1340  140.0132  157.0344 H   0  0  0  0  0  0  0  0  0  0  0  0
  154.2032  136.1122  158.2356 H   0  0  0  0  0  0  0  0  0  0  0  0
  153.6779  136.8108  156.6931 H   0  0  0  0  0  0  0  0  0  0  0  0
  152.6536  135.6158  157.5351 H   0  0  0  0  0  0  0  0  0  0  0  0
  149.4046  137.4738  156.8149 H   0  0  0  0  0  0  0  0  0  0  0  0
  150.6059  136.2747  157.2198 H   0  0  0  0  0  0  0  0  0  0  0  0
  1  2  1  0  0  0  0
  1 24  1  0  0  0  0
  1 25  1  0  0  0  0
  1 26  1  0  0  0  0
  2  3  1  0  0  0  0
  2 27  1  0  0  0  0
  2 28  1  0  0  0  0
  3  4  1  0  0  0  0
  4  9  1  0  0  0  0
  4  5  2  0  0  0  0
  5  6  1  0  0  0  0
  6  7  2  0  0  0  0
  6 29  1  0  0  0  0
  7  8  1  0  0  0  0
  7 30  1  0  0  0  0
  8  9  2  0  0  0  0
  8 31  1  0  0  0  0
  9 10  1  0  0  0  0
 10 11  1  0  0  0  0
 10 32  1  0  0  0  0
 11 12  2  0  0  0  0
 11 13  1  0  0  0  0
 13 14  1  0  0  0  0
 13 33  1  0  0  0  0
 14 23  1  0  0  0  0
 14 15  1  0  0  0  0
 14 34  1  0  0  0  0
 15 16  1  0  0  0  0
 15 35  1  0  0  0  0
 15 36  1  0  0  0  0
 16 17  1  0  0  0  0
 16 37  1  0  0  0  0
 16 38  1  0  0  0  0
 17 18  1  0  0  0  0
 17 39  1  0  0  0  0
 17 40  1  0  0  0  0
 18 19  1  0  0  0  0
 18 23  1  0  0  0  0
 19 20  1  0  0  0  0
 19 21  2  0  0  0  0
 19 22  2  0  0  0  0
 20 41  1  0  0  0  0
 20 42  1  0  0  0  0
 20 43  1  0  0  0  0
 23 44  1  0  0  0  0
 23 45  1  0  0  0  0
M  END
> <s_m_source_file>
AV-unprocessed.smi

> <i_m_source_file_index>
1044

> <i_lp_mmshare_version>
43012

> <i_f3d_flags>
0

> <s_epik_input>
W0NIM11bQ0gyXU9jMW5bY0hdW2NIXVtjSF1jMVtOSF1DKD1PKVtOSF1bQ0BASF0yW0NIMl1bQ0gyXVtDSDJdTihbQ0gyXTIpUyg9TykoPU8pW0NIM10=

> <s_epik_cmdline>
J2VwaWtfcHl0aG9uJywgJy1waCcsICc3LjAnLCAnLXRuJywgJzgnLCAnLW1hJywgJzIwMCcsICctbWV0YWxfYmluZGluZycsICctaW1hZScsICc8aW5maWxlLm1hZT4nLCAnLW9tYWUnLCAnPG91dGZpbGUubWFlPic=

> <r_lp_tautomer_probability>
1

> <r_epik_Ionization_Penalty>
0.000106941

> <r_epik_Ionization_Penalty_Charging>
0

> <r_epik_Ionization_Penalty_Neutral>
0.000106941

> <r_epik_State_Penalty>
-0

> <r_epik_Charging_Adjusted_Penalty>
0

> <i_epik_Tot_Q>
0

> <i_epik_Tot_abs_Q>
0

> <r_epik_Metal_State_Penalty>
-0

> <b_epik_Metal_Only>
0

> <s_lp_Force_Field>
OPLS_2005

> <r_lp_Energy>
2.58549

> <b_lp_Chiralities_Consistent>
1

> <s_lp_Variant>
AV-unprocessed.smi:1044-2

> <Gold.Version>
5.8.1

> <Gold.Id.Protein>
6NUR|6NUR_protein|mol2

> <Gold.PLP.Fitness>
44.9677

> <Gold.PLP.PLP>
-34.4094

> <Gold.PLP.part.hbond>
-4.7267

> <Gold.PLP.part.metal>
0.0000

> <Gold.PLP.part.buried>
-4.5576

> <Gold.PLP.part.nonpolar>
-26.9779

> <Gold.PLP.part.repulsive>
0.6909

> <Gold.PLP.ligand.clash>
0.0000

> <Gold.PLP.ligand.torsion>
1.6822

> <Gold.PLP.Chemscore.Hbond>
3.9500

> <Gold.PLP.Chemscore.CHOScore>
0.0000

> <Gold.PLP.Chemscore.Metal>
0.0000

> <Gold.Chemscore.Hbonds>
donor molecule, donor type, donor heavy atom, donor atom, acceptor molecule, acceptor atom, score
      L1  H    10    32       P1  7948  1.00
      L1  H    13    33       P1  7948  1.00
      P1  H  6896  6909       L1    22  0.76
      P1  H  7997  8008       L1    21  0.41

> <Gold.PLP.Chemscore.Internal.Correction>
2.0726

> <Gold.Rescore>
     Score         DG    S(hbond)    S(metal)    S(lipo)     H(rot)  DE(clash)    DE(int)     intcor
     15.01     -19.15       2.92        0.00      65.42       1.45       0.03       4.11       ----

> <Gold.Chemscore.Fitness>
15.0073

> <Gold.Chemscore.DG>
-19.1456

> <Gold.Chemscore.ZeroCoef>
-5.4800

> <Gold.Chemscore.Hbond>
2.9150

> <Gold.Chemscore.Metal>
0.0000

> <Gold.Chemscore.Lipo>
65.4175

> <Gold.Chemscore.Internal_Hbond>
0.0000

> <Gold.Chemscore.DEClash>
0.0266

> <Gold.Chemscore.DEInternal>
4.1117

> <Gold.Chemscore.Rot>
1.4549

> <Gold.Chemscore.Internal.Correction>
   9.000000E+99

> <Gold.Chemscore.Hbonds>
donor molecule, donor type, donor heavy atom, donor atom, acceptor molecule, acceptor atom, score
      L1  H    10    32       P1  7948  0.34
      L1  H    13    33       P1  7948  0.42
      P1  H  6896  6909       L1    22  0.72
      P1  H  7997  8008       L1    21  0.41

> <Gold.Chemscore.Hbond.Weighted>
-9.7362

> <Gold.Chemscore.Metal.Weighted>
-0.0000

> <Gold.Chemscore.Lipo.Weighted>
-7.6538

> <Gold.Chemscore.Internal_Hbond.Weighted>
0.0000

> <Gold.Chemscore.DEClash.Weighted>
0.0266

> <Gold.Chemscore.DEInternal.Weighted>
4.1117

> <Gold.Chemscore.Rot.Weighted>
3.7244

> <Gold.Chemscore.Internal.Correction.Weighted>
   9.000000E+99

> <Gold.Protein.RotatedTorsions>
[ 6907 6896 6895 6894 ] final  136.03 input  -60.11 | X-H torsion
[ 7974 7965 7964 7962 ] final   43.43 input  175.53 | X-H torsion
[ 8008 7997 7996 7995 ] final  -99.31 input   59.86 | X-H torsion
[ 10167 10162 10161 10158 ] final -159.31 input  -65.29 | X-H torsion
[ 10718 10713 10712 10709 ] final  -48.12 input   66.30 | X-H torsion
[ 10763 10752 10751 10750 ] final  -20.61 input  -60.55 | X-H torsion
[ 11005 11000 10999 10996 ] final    4.45 input  -57.11 | X-H torsion

> <Gold.Protein.ActiveResidues>
 VAL166  LYS551  ARG553  GLY616  TRP617  ASP618  TYR619  PRO620  LYS621  CYS622 
 ASP623  PHE694  ASN695  SER759  ASP760  ASP761  ALA762  ILE779  LEU786  VAL792 
 PHE793  MET794  SER795  GLU796  ALA797  LYS798  CYS799  TRP800  GLU811  SER814 

> <Gold.Protein.RotatedAtoms>
  152.2939  133.5588  159.5574 H   0  0  0  0  0  0  0  0  0  0  0  0  # atno 6907 bound_to 6896
  150.7247  134.0390  159.3768 H   0  0  0  0  0  0  0  0  0  0  0  0  # atno 6908 bound_to 6896
  151.8294  135.0627  160.0486 H   0  0  0  0  0  0  0  0  0  0  0  0  # atno 6909 bound_to 6896
  146.0656  139.5188  142.9630 H   0  0  0  0  0  0  0  0  0  0  0  0  # atno 7974 bound_to 7965
  154.8131  140.0449  157.1357 H   0  0  0  0  0  0  0  0  0  0  0  0  # atno 8008 bound_to 7997
  154.9346  140.3044  155.5131 H   0  0  0  0  0  0  0  0  0  0  0  0  # atno 8009 bound_to 7997
  156.2973  140.2317  156.4409 H   0  0  0  0  0  0  0  0  0  0  0  0  # atno 8010 bound_to 7997
  139.6624  143.9888  152.2234 H   0  0  0  0  0  0  0  0  0  0  0  0  # atno 10167 bound_to 10162
  156.2018  130.4156  149.9231 H   0  0  0  0  0  0  0  0  0  0  0  0  # atno 10718 bound_to 10713
  153.6231  135.6992  153.5303 H   0  0  0  0  0  0  0  0  0  0  0  0  # atno 10763 bound_to 10752
  153.2921  135.4154  155.1176 H   0  0  0  0  0  0  0  0  0  0  0  0  # atno 10764 bound_to 10752
  154.8539  135.3628  154.5772 H   0  0  0  0  0  0  0  0  0  0  0  0  # atno 10765 bound_to 10752
  140.5818  134.0006  155.8051 H   0  0  0  0  0  0  0  0  0  0  0  0  # atno 11005 bound_to 11000
  145.6483  141.0269  143.1774 LP  0  0  0  0  0  0  0  0  0  0  0  0  # atno 17320 bound_to 7965
  144.7200  139.8062  143.7385 LP  0  0  0  0  0  0  0  0  0  0  0  0  # atno 17321 bound_to 7965
  139.9631  144.6544  150.8060 LP  0  0  0  0  0  0  0  0  0  0  0  0  # atno 17342 bound_to 10162
  140.7585  143.3110  151.2846 LP  0  0  0  0  0  0  0  0  0  0  0  0  # atno 17343 bound_to 10162
  156.6938  130.8906  151.3591 LP  0  0  0  0  0  0  0  0  0  0  0  0  # atno 17370 bound_to 10713
  157.6990  130.9312  150.0729 LP  0  0  0  0  0  0  0  0  0  0  0  0  # atno 17371 bound_to 10713
  141.0991  133.9796  157.3109 LP  0  0  0  0  0  0  0  0  0  0  0  0  # atno 17394 bound_to 11000
  139.9314  135.0199  156.8412 LP  0  0  0  0  0  0  0  0  0  0  0  0  # atno 17395 bound_to 11000

$$$$
