AV-unprocessed.smi:114|AV-procd|sdf|1114|dock3
  -GOLD-   2262018233D 1   1.00000     0.00000
 Structure written by MMmdl.
 32 34  0  0  0  0  0  0  0  0  1 V2000
  150.5095  131.1540  154.9825 N   0  0  0  0  0  0  0  0  0  0  0  0
  149.4096  130.8620  154.2742 C   0  0  0  0  0  0  0  0  0  0  0  0
  149.0964  129.5600  154.0781 N   0  0  0  0  0  0  0  0  0  0  0  0
  148.0074  129.2250  153.3752 C   0  0  0  0  0  0  0  0  0  0  0  0
  147.7698  127.9007  153.2276 F   0  0  0  0  0  0  0  0  0  0  0  0
  147.1260  130.0520  152.8031 N   0  0  0  0  0  0  0  0  0  0  0  0
  147.4370  131.3660  152.9993 C   0  0  0  0  0  0  0  0  0  0  0  0
  148.5603  131.8513  153.7209 C   0  0  0  0  0  0  0  0  0  0  0  0
  148.5635  133.2395  153.7150 N   0  0  0  0  0  0  0  0  0  0  0  0
  147.4992  133.5528  153.0252 C   0  0  0  0  0  0  0  0  0  0  0  0
  146.7607  132.4865  152.5603 N   0  0  0  0  0  0  0  0  0  0  0  0
  145.5072  132.5299  151.7479 C   0  0  1  0  0  0  0  0  0  0  0  0
  144.5057  133.0991  152.5329 O   0  0  0  0  0  0  0  0  0  0  0  0
  143.7301  133.9954  151.7464 C   0  0  1  0  0  0  0  0  0  0  0  0
  143.0579  135.0339  152.6571 C   0  0  0  0  0  0  0  0  0  0  0  0
  142.3283  134.3847  153.6766 O   0  0  0  0  0  0  0  0  0  0  0  0
  144.7736  134.5946  150.8018 C   0  0  2  0  0  0  0  0  0  0  0  0
  144.1976  135.1727  149.6449 O   0  0  0  0  0  0  0  0  0  0  0  0
  145.6882  133.4087  150.4986 C   0  0  2  0  0  0  0  0  0  0  0  0
  145.2930  132.7117  149.3308 O   0  0  0  0  0  0  0  0  0  0  0  0
  145.2813  131.4861  151.5242 H   0  0  0  0  0  0  0  0  0  0  0  0
  142.9935  133.4297  151.1719 H   0  0  0  0  0  0  0  0  0  0  0  0
  145.3432  135.3632  151.3244 H   0  0  0  0  0  0  0  0  0  0  0  0
  146.7270  133.7212  150.3828 H   0  0  0  0  0  0  0  0  0  0  0  0
  150.7638  132.1185  155.1416 H   0  0  0  0  0  0  0  0  0  0  0  0
  151.0831  130.4102  155.3531 H   0  0  0  0  0  0  0  0  0  0  0  0
  147.2205  134.5797  152.8378 H   0  0  0  0  0  0  0  0  0  0  0  0
  143.7902  135.7180  153.0876 H   0  0  0  0  0  0  0  0  0  0  0  0
  142.3521  135.6354  152.0836 H   0  0  0  0  0  0  0  0  0  0  0  0
  142.5886  133.4766  153.7000 H   0  0  0  0  0  0  0  0  0  0  0  0
  144.8306  135.1333  148.9440 H   0  0  0  0  0  0  0  0  0  0  0  0
  145.3315  133.3091  148.5995 H   0  0  0  0  0  0  0  0  0  0  0  0
  1  2  1  0  0  0  0
  1 25  1  0  0  0  0
  1 26  1  0  0  0  0
  2  8  1  0  0  0  0
  2  3  2  0  0  0  0
  3  4  1  0  0  0  0
  4  5  1  0  0  0  0
  4  6  2  0  0  0  0
  6  7  1  0  0  0  0
  7 11  1  0  0  0  0
  7  8  2  0  0  0  0
  8  9  1  0  0  0  0
  9 10  2  0  0  0  0
 10 11  1  0  0  0  0
 10 27  1  0  0  0  0
 11 12  1  0  0  0  0
 12 21  1  0  0  0  0
 12 19  1  0  0  0  0
 12 13  1  0  0  0  0
 13 14  1  0  0  0  0
 14 22  1  0  0  0  0
 14 15  1  0  0  0  0
 14 17  1  0  0  0  0
 15 16  1  0  0  0  0
 15 28  1  0  0  0  0
 15 29  1  0  0  0  0
 16 30  1  0  0  0  0
 17 23  1  0  0  0  0
 17 18  1  0  0  0  0
 17 19  1  0  0  0  0
 18 31  1  0  0  0  0
 19 24  1  0  0  0  0
 19 20  1  0  0  0  0
 20 32  1  0  0  0  0
M  END
> <s_m_source_file>
AV-unprocessed.smi

> <i_m_source_file_index>
114

> <i_lp_mmshare_version>
43012

> <i_f3d_flags>
0

> <s_epik_input>
RmMobjEpbmMoW05IMl0pYyhjMTIpbltjSF1uMltDQEBIXTNPW0NASF0oW0NIMl1bT0hdKVtDQEBIXShbT0hdKVtDQEBIXTNbT0hd

> <s_epik_cmdline>
J2VwaWtfcHl0aG9uJywgJy1waCcsICc3LjAnLCAnLXRuJywgJzgnLCAnLW1hJywgJzIwMCcsICctbWV0YWxfYmluZGluZycsICctaW1hZScsICc8aW5maWxlLm1hZT4nLCAnLW9tYWUnLCAnPG91dGZpbGUubWFlPic=

> <r_lp_tautomer_probability>
1

> <r_epik_Ionization_Penalty>
1.13199e-05

> <r_epik_Ionization_Penalty_Charging>
0

> <r_epik_Ionization_Penalty_Neutral>
1.13199e-05

> <r_epik_State_Penalty>
-0

> <r_epik_Charging_Adjusted_Penalty>
0

> <i_epik_Tot_Q>
0

> <i_epik_Tot_abs_Q>
0

> <r_epik_Metal_State_Penalty>
-0

> <b_epik_Metal_Only>
0

> <s_epik_Chemistry_Notes>
This compound contains an acetal/aminal-like group ( X-CH(R)-Y where X, Y are N, S, or O) that may be acid/base labile, releasing an aldehyde.

> <s_lp_Force_Field>
OPLS_2005

> <r_lp_Energy>
39.1669

> <b_lp_Chiralities_Consistent>
1

> <s_lp_Variant>
AV-unprocessed.smi:114-8

> <Gold.Version>
5.8.1

> <Gold.Id.Protein>
6NUR|6NUR_protein|mol2

> <Gold.PLP.Fitness>
39.9126

> <Gold.PLP.PLP>
-28.9605

> <Gold.PLP.part.hbond>
-3.3352

> <Gold.PLP.part.metal>
0.0000

> <Gold.PLP.part.buried>
-4.3305

> <Gold.PLP.part.nonpolar>
-21.2651

> <Gold.PLP.part.repulsive>
0.5156

> <Gold.PLP.ligand.clash>
0.0000

> <Gold.PLP.ligand.torsion>
0.1279

> <Gold.PLP.Chemscore.Hbond>
2.9600

> <Gold.PLP.Chemscore.CHOScore>
0.7717

> <Gold.PLP.Chemscore.Metal>
0.0000

> <Gold.Chemscore.Hbonds>
donor molecule, donor type, donor heavy atom, donor atom, acceptor molecule, acceptor atom, score
      L1  H    16    30       P1 10957  0.93
      L1  H    18    31       P1  7921  1.00
      L1  H    20    32       P1  7921  1.00
      L1  C    10    27       P1  7948  0.73

> <Gold.PLP.Chemscore.Internal.Correction>
0.0130

> <Gold.Rescore>
     Score         DG    S(hbond)    S(metal)    S(lipo)     H(rot)  DE(clash)    DE(int)     intcor
      6.06      -6.34       2.37        0.00      27.78       4.03       0.10       0.19       ----

> <Gold.Chemscore.Fitness>
6.0558

> <Gold.Chemscore.DG>
-6.3404

> <Gold.Chemscore.ZeroCoef>
-5.4800

> <Gold.Chemscore.Hbond>
2.3716

> <Gold.Chemscore.Metal>
0.0000

> <Gold.Chemscore.Lipo>
27.7796

> <Gold.Chemscore.Internal_Hbond>
0.0000

> <Gold.Chemscore.DEClash>
0.0990

> <Gold.Chemscore.DEInternal>
0.1856

> <Gold.Chemscore.Rot>
4.0277

> <Gold.Chemscore.Internal.Correction>
   9.000000E+99

> <Gold.Chemscore.Hbonds>
donor molecule, donor type, donor heavy atom, donor atom, acceptor molecule, acceptor atom, score
      L1  H    16    30       P1 10957  0.86
      L1  H    18    31       P1  7921  1.00
      L1  H    20    32       P1  7921  0.25

> <Gold.Chemscore.Hbond.Weighted>
-7.9212

> <Gold.Chemscore.Metal.Weighted>
-0.0000

> <Gold.Chemscore.Lipo.Weighted>
-3.2502

> <Gold.Chemscore.Internal_Hbond.Weighted>
0.0000

> <Gold.Chemscore.DEClash.Weighted>
0.0990

> <Gold.Chemscore.DEInternal.Weighted>
0.1856

> <Gold.Chemscore.Rot.Weighted>
10.3110

> <Gold.Chemscore.Internal.Correction.Weighted>
   9.000000E+99

> <Gold.Protein.RotatedTorsions>
[ 6907 6896 6895 6894 ] final  105.98 input  -60.11 | X-H torsion
[ 7974 7965 7964 7962 ] final -106.71 input  175.53 | X-H torsion
[ 8008 7997 7996 7995 ] final   52.73 input   59.86 | X-H torsion
[ 10167 10162 10161 10158 ] final   52.74 input  -65.29 | X-H torsion
[ 10718 10713 10712 10709 ] final  122.59 input   66.30 | X-H torsion
[ 10763 10752 10751 10750 ] final    3.30 input  -60.55 | X-H torsion
[ 11005 11000 10999 10996 ] final -132.76 input  -57.11 | X-H torsion

> <Gold.Protein.ActiveResidues>
 VAL166  LYS551  ARG553  GLY616  TRP617  ASP618  TYR619  PRO620  LYS621  CYS622 
 ASP623  PHE694  ASN695  SER759  ASP760  ASP761  ALA762  ILE779  LEU786  VAL792 
 PHE793  MET794  SER795  GLU796  ALA797  LYS798  CYS799  TRP800  GLU811  SER814 

> <Gold.Protein.RotatedAtoms>
  152.5211  133.9449  159.7643 H   0  0  0  0  0  0  0  0  0  0  0  0  # atno 6907 bound_to 6896
  150.9771  133.6275  159.2735 H   0  0  0  0  0  0  0  0  0  0  0  0  # atno 6908 bound_to 6896
  151.3466  135.0881  159.9442 H   0  0  0  0  0  0  0  0  0  0  0  0  # atno 6909 bound_to 6896
  145.2145  140.9109  143.3295 H   0  0  0  0  0  0  0  0  0  0  0  0  # atno 7974 bound_to 7965
  155.4567  140.3460  155.4307 H   0  0  0  0  0  0  0  0  0  0  0  0  # atno 8008 bound_to 7997
  156.1187  140.1481  156.9266 H   0  0  0  0  0  0  0  0  0  0  0  0  # atno 8009 bound_to 7997
  154.4807  140.0870  156.7350 H   0  0  0  0  0  0  0  0  0  0  0  0  # atno 8010 bound_to 7997
  140.2482  144.3508  150.6357 H   0  0  0  0  0  0  0  0  0  0  0  0  # atno 10167 bound_to 10162
  157.5730  131.1081  150.8331 H   0  0  0  0  0  0  0  0  0  0  0  0  # atno 10718 bound_to 10713
  153.2850  135.6944  153.7348 H   0  0  0  0  0  0  0  0  0  0  0  0  # atno 10763 bound_to 10752
  153.6321  135.3408  155.3046 H   0  0  0  0  0  0  0  0  0  0  0  0  # atno 10764 bound_to 10752
  154.8507  135.4411  154.1915 H   0  0  0  0  0  0  0  0  0  0  0  0  # atno 10765 bound_to 10752
  140.9141  134.1529  157.4366 H   0  0  0  0  0  0  0  0  0  0  0  0  # atno 11005 bound_to 11000
  144.9824  139.3770  143.6255 LP  0  0  0  0  0  0  0  0  0  0  0  0  # atno 17320 bound_to 7965
  146.3390  139.8971  142.8800 LP  0  0  0  0  0  0  0  0  0  0  0  0  # atno 17321 bound_to 7965
  140.6061  143.2168  151.6978 LP  0  0  0  0  0  0  0  0  0  0  0  0  # atno 17342 bound_to 10162
  139.5055  144.3716  152.0464 LP  0  0  0  0  0  0  0  0  0  0  0  0  # atno 17343 bound_to 10162
  156.8798  130.5175  149.5291 LP  0  0  0  0  0  0  0  0  0  0  0  0  # atno 17370 bound_to 10713
  156.0775  130.5794  150.9501 LP  0  0  0  0  0  0  0  0  0  0  0  0  # atno 17371 bound_to 10713
  139.8763  134.9947  156.5706 LP  0  0  0  0  0  0  0  0  0  0  0  0  # atno 17394 bound_to 11000
  140.8072  133.8458  155.8778 LP  0  0  0  0  0  0  0  0  0  0  0  0  # atno 17395 bound_to 11000

$$$$
