AV-unprocessed.smi:2055|AV-procd|sdf|8337|dock1
  -GOLD-   2272011 03D 1   1.00000     0.00000
 Structure written by MMmdl.
 44 45  0  0  0  0  0  0  0  0  2 V2000
  144.7254  134.0603  150.5360 C   0  0  0  0  0  0  0  0  0  0  0  0
  145.8209  134.0010  151.6117 C   0  0  1  0  0  0  0  0  0  0  0  0
  146.9353  133.0124  151.2261 C   0  0  0  0  0  0  0  0  0  0  0  0
  146.4086  131.7080  151.0981 O   0  0  0  0  0  0  0  0  0  0  0  0
  146.3954  135.3323  151.7864 N   0  0  0  0  0  0  0  0  0  0  0  0
  145.6979  136.4463  152.0451 C   0  0  0  0  0  0  0  0  0  0  0  0
  144.4698  136.4962  152.1140 O   0  0  0  0  0  0  0  0  0  0  0  0
  146.5016  137.4986  152.2526 N   0  0  0  0  0  0  0  0  0  0  0  0
  146.0432  138.8335  152.6276 C   0  0  0  0  0  0  0  0  0  0  0  0
  147.1035  139.7207  153.2721 C   0  0  0  0  0  0  0  0  0  0  0  0
  146.9373  141.1210  153.2528 C   0  0  0  0  0  0  0  0  0  0  0  0
  147.9155  141.9374  153.8499 C   0  0  0  0  0  0  0  0  0  0  0  0
  148.9965  141.3757  154.4312 N   0  3  0  0  0  0  0  0  0  0  0  0
  149.2191  140.0394  154.4801 C   0  0  0  0  0  0  0  0  0  0  0  0
  150.3844  139.5808  155.1347 N   0  0  0  0  0  0  0  0  0  0  0  0
  151.3346  138.7761  154.3709 C   0  0  0  0  0  0  0  0  0  0  0  0
  152.3531  138.1060  155.3079 C   0  0  0  0  0  0  0  0  0  0  0  0
  152.9788  139.0920  156.1208 O   0  0  0  0  0  0  0  0  0  0  0  0
  152.0389  139.7570  156.9569 C   0  0  0  0  0  0  0  0  0  0  0  0
  151.0048  140.4966  156.0912 C   0  0  0  0  0  0  0  0  0  0  0  0
  148.2615  139.1811  153.8823 C   0  0  0  0  0  0  0  0  0  0  0  0
  144.2663  133.0821  150.3896 H   0  0  0  0  0  0  0  0  0  0  0  0
  145.1276  134.3860  149.5760 H   0  0  0  0  0  0  0  0  0  0  0  0
  143.9322  134.7535  150.8186 H   0  0  0  0  0  0  0  0  0  0  0  0
  145.3582  133.6606  152.5405 H   0  0  0  0  0  0  0  0  0  0  0  0
  147.3622  133.2841  150.2600 H   0  0  0  0  0  0  0  0  0  0  0  0
  147.7518  133.0212  151.9491 H   0  0  0  0  0  0  0  0  0  0  0  0
  147.0784  131.1488  150.7348 H   0  0  0  0  0  0  0  0  0  0  0  0
  147.4021  135.3981  151.7503 H   0  0  0  0  0  0  0  0  0  0  0  0
  147.4987  137.3630  152.1698 H   0  0  0  0  0  0  0  0  0  0  0  0
  145.6814  139.3323  151.7283 H   0  0  0  0  0  0  0  0  0  0  0  0
  145.1861  138.7433  153.2974 H   0  0  0  0  0  0  0  0  0  0  0  0
  146.0683  141.5664  152.7902 H   0  0  0  0  0  0  0  0  0  0  0  0
  147.8645  143.0160  153.8843 H   0  0  0  0  0  0  0  0  0  0  0  0
  150.8127  137.9984  153.8123 H   0  0  0  0  0  0  0  0  0  0  0  0
  151.8490  139.4130  153.6501 H   0  0  0  0  0  0  0  0  0  0  0  0
  151.8697  137.3545  155.9349 H   0  0  0  0  0  0  0  0  0  0  0  0
  153.1155  137.5894  154.7247 H   0  0  0  0  0  0  0  0  0  0  0  0
  151.5508  139.0389  157.6177 H   0  0  0  0  0  0  0  0  0  0  0  0
  152.5690  140.4649  157.5941 H   0  0  0  0  0  0  0  0  0  0  0  0
  151.4874  141.3051  155.5409 H   0  0  0  0  0  0  0  0  0  0  0  0
  150.2643  140.9529  156.7477 H   0  0  0  0  0  0  0  0  0  0  0  0
  148.4036  138.1116  153.8831 H   0  0  0  0  0  0  0  0  0  0  0  0
  149.6829  141.9942  154.8637 H   0  0  0  0  0  0  0  0  0  0  0  0
  1  2  1  0  0  0  0
  1 22  1  0  0  0  0
  1 23  1  0  0  0  0
  1 24  1  0  0  0  0
  2  3  1  0  0  0  0
  2  5  1  0  0  0  0
  2 25  1  0  0  0  0
  3  4  1  0  0  0  0
  3 26  1  0  0  0  0
  3 27  1  0  0  0  0
  4 28  1  0  0  0  0
  5  6  1  0  0  0  0
  5 29  1  0  0  0  0
  6  7  2  0  0  0  0
  6  8  1  0  0  0  0
  8  9  1  0  0  0  0
  8 30  1  0  0  0  0
  9 10  1  0  0  0  0
  9 31  1  0  0  0  0
  9 32  1  0  0  0  0
 10 21  1  0  0  0  0
 10 11  2  0  0  0  0
 11 12  1  0  0  0  0
 11 33  1  0  0  0  0
 12 13  2  0  0  0  0
 12 34  1  0  0  0  0
 13 14  1  0  0  0  0
 13 44  1  0  0  0  0
 14 15  1  0  0  0  0
 14 21  2  0  0  0  0
 15 20  1  0  0  0  0
 15 16  1  0  0  0  0
 16 17  1  0  0  0  0
 16 35  1  0  0  0  0
 16 36  1  0  0  0  0
 17 18  1  0  0  0  0
 17 37  1  0  0  0  0
 17 38  1  0  0  0  0
 18 19  1  0  0  0  0
 19 20  1  0  0  0  0
 19 39  1  0  0  0  0
 19 40  1  0  0  0  0
 20 41  1  0  0  0  0
 20 42  1  0  0  0  0
 21 43  1  0  0  0  0
M  CHG  1  13   1
M  END
> <s_m_source_file>
AV-unprocessed.smi

> <i_m_source_file_index>
2055

> <i_lp_mmshare_version>
43012

> <i_f3d_flags>
0

> <s_epik_input>
W09IXVtDSDJdW0NAQEhdKFtDSDNdKVtOSF1DKD1PKVtOSF1bQ0gyXWMxW2NIXVtjSF1uYyhbY0hdMSlOMltDSDJdW0NIMl1PW0NIMl1bQ0gyXTI=

> <s_epik_cmdline>
J2VwaWtfcHl0aG9uJywgJy1waCcsICc3LjAnLCAnLXRuJywgJzgnLCAnLW1hJywgJzIwMCcsICctbWV0YWxfYmluZGluZycsICctaW1hZScsICc8aW5maWxlLm1hZT4nLCAnLW9tYWUnLCAnPG91dGZpbGUubWFlPic=

> <r_lp_tautomer_probability>
0.999994

> <r_epik_Ionization_Penalty>
2.3082

> <r_epik_Ionization_Penalty_Charging>
2.30816

> <r_epik_Ionization_Penalty_Neutral>
3.71771e-05

> <r_epik_State_Penalty>
2.45942

> <r_epik_Charging_Adjusted_Penalty>
4.76758

> <i_epik_Tot_Q>
1

> <i_epik_Tot_abs_Q>
1

> <r_epik_Metal_State_Penalty>
2.47143

> <b_epik_Metal_Only>
0

> <s_lp_Force_Field>
OPLS_2005

> <r_lp_Energy>
18.1512

> <b_lp_Chiralities_Consistent>
1

> <s_lp_Variant>
AV-unprocessed.smi:2055-4

> <Gold.Version>
5.8.1

> <Gold.Id.Protein>
6NUR|6NUR_protein|mol2

> <Gold.PLP.Fitness>
45.1019

> <Gold.PLP.PLP>
-34.1695

> <Gold.PLP.part.hbond>
-4.0000

> <Gold.PLP.part.metal>
0.0000

> <Gold.PLP.part.buried>
-1.4182

> <Gold.PLP.part.nonpolar>
-28.5229

> <Gold.PLP.part.repulsive>
0.5561

> <Gold.PLP.ligand.clash>
0.0044

> <Gold.PLP.ligand.torsion>
0.7761

> <Gold.PLP.Chemscore.Hbond>
3.9840

> <Gold.PLP.Chemscore.CHOScore>
0.0000

> <Gold.PLP.Chemscore.Metal>
0.0000

> <Gold.Chemscore.Hbonds>
donor molecule, donor type, donor heavy atom, donor atom, acceptor molecule, acceptor atom, score
      L1  H     4    28       P1 10747  0.99
      L1  H     5    29       P1  7948  1.00
      L1  H     8    30       P1  7948  0.99
      P1  H  7997  8010       L1    18  0.90

> <Gold.PLP.Chemscore.Internal.Correction>
0.5370

> <Gold.Rescore>
     Score         DG    S(hbond)    S(metal)    S(lipo)     H(rot)  DE(clash)    DE(int)     intcor
     16.99     -20.18       3.69        0.00      80.82       2.76       1.03       2.16       ----

> <Gold.Chemscore.Fitness>
16.9929

> <Gold.Chemscore.DG>
-20.1822

> <Gold.Chemscore.ZeroCoef>
-5.4800

> <Gold.Chemscore.Hbond>
3.6889

> <Gold.Chemscore.Metal>
0.0000

> <Gold.Chemscore.Lipo>
80.8217

> <Gold.Chemscore.Internal_Hbond>
0.0000

> <Gold.Chemscore.DEClash>
1.0268

> <Gold.Chemscore.DEInternal>
2.1626

> <Gold.Chemscore.Rot>
2.7636

> <Gold.Chemscore.Internal.Correction>
   9.000000E+99

> <Gold.Chemscore.Hbonds>
donor molecule, donor type, donor heavy atom, donor atom, acceptor molecule, acceptor atom, score
      L1  H     4    28       P1 10747  0.93
      L1  H     5    29       P1  7948  0.96
      L1  H     8    30       P1  7948  0.94
      P1  H  7997  8010       L1    18  0.18

> <Gold.Chemscore.Hbond.Weighted>
-12.3210

> <Gold.Chemscore.Metal.Weighted>
-0.0000

> <Gold.Chemscore.Lipo.Weighted>
-9.4561

> <Gold.Chemscore.Internal_Hbond.Weighted>
0.0000

> <Gold.Chemscore.DEClash.Weighted>
1.0268

> <Gold.Chemscore.DEInternal.Weighted>
2.1626

> <Gold.Chemscore.Rot.Weighted>
7.0749

> <Gold.Chemscore.Internal.Correction.Weighted>
   9.000000E+99

> <Gold.Protein.RotatedTorsions>
[ 6907 6896 6895 6894 ] final   52.41 input  -60.11 | X-H torsion
[ 7974 7965 7964 7962 ] final -131.31 input  175.53 | X-H torsion
[ 8008 7997 7996 7995 ] final   70.59 input   59.86 | X-H torsion
[ 10167 10162 10161 10158 ] final   23.47 input  -65.29 | X-H torsion
[ 10718 10713 10712 10709 ] final  -69.90 input   66.30 | X-H torsion
[ 10763 10752 10751 10750 ] final -121.36 input  -60.55 | X-H torsion
[ 11005 11000 10999 10996 ] final  -75.49 input  -57.11 | X-H torsion

> <Gold.Protein.ActiveResidues>
 VAL166  LYS551  ARG553  GLY616  TRP617  ASP618  TYR619  PRO620  LYS621  CYS622 
 ASP623  PHE694  ASN695  SER759  ASP760  ASP761  ALA762  ILE779  LEU786  VAL792 
 PHE793  MET794  SER795  GLU796  ALA797  LYS798  CYS799  TRP800  GLU811  SER814 

> <Gold.Protein.RotatedAtoms>
  152.3229  134.7357  160.0308 H   0  0  0  0  0  0  0  0  0  0  0  0  # atno 6907 bound_to 6896
  151.7799  133.3343  159.3476 H   0  0  0  0  0  0  0  0  0  0  0  0  # atno 6908 bound_to 6896
  150.7380  134.5871  159.6013 H   0  0  0  0  0  0  0  0  0  0  0  0  # atno 6909 bound_to 6896
  144.9391  140.7218  143.4858 H   0  0  0  0  0  0  0  0  0  0  0  0  # atno 7974 bound_to 7965
  155.7411  140.3490  155.5105 H   0  0  0  0  0  0  0  0  0  0  0  0  # atno 8008 bound_to 7997
  155.9093  140.1047  157.1313 H   0  0  0  0  0  0  0  0  0  0  0  0  # atno 8009 bound_to 7997
  154.4054  140.1271  156.4523 H   0  0  0  0  0  0  0  0  0  0  0  0  # atno 8010 bound_to 7997
  140.5266  143.9912  150.6444 H   0  0  0  0  0  0  0  0  0  0  0  0  # atno 10167 bound_to 10162
  156.0433  130.4321  150.2216 H   0  0  0  0  0  0  0  0  0  0  0  0  # atno 10718 bound_to 10713
  154.8666  135.4170  154.2608 H   0  0  0  0  0  0  0  0  0  0  0  0  # atno 10763 bound_to 10752
  153.3537  135.7000  153.6774 H   0  0  0  0  0  0  0  0  0  0  0  0  # atno 10764 bound_to 10752
  153.5703  135.3592  155.2807 H   0  0  0  0  0  0  0  0  0  0  0  0  # atno 10765 bound_to 10752
  141.1646  133.6948  156.7524 H   0  0  0  0  0  0  0  0  0  0  0  0  # atno 11005 bound_to 11000
  145.3020  139.1847  143.4684 LP  0  0  0  0  0  0  0  0  0  0  0  0  # atno 17320 bound_to 7965
  146.3278  140.3012  142.8621 LP  0  0  0  0  0  0  0  0  0  0  0  0  # atno 17321 bound_to 7965
  140.3276  143.3098  152.0720 LP  0  0  0  0  0  0  0  0  0  0  0  0  # atno 17342 bound_to 10162
  139.4940  144.6531  151.6631 LP  0  0  0  0  0  0  0  0  0  0  0  0  # atno 17343 bound_to 10162
  157.0309  131.0007  151.3312 LP  0  0  0  0  0  0  0  0  0  0  0  0  # atno 17370 bound_to 10713
  157.5278  130.8039  149.7882 LP  0  0  0  0  0  0  0  0  0  0  0  0  # atno 17371 bound_to 10713
  140.2594  134.8478  157.3744 LP  0  0  0  0  0  0  0  0  0  0  0  0  # atno 17394 bound_to 11000
  140.1626  134.4710  155.7885 LP  0  0  0  0  0  0  0  0  0  0  0  0  # atno 17395 bound_to 11000

$$$$
