AV-unprocessed.smi:101|AV-procd|sdf|929|dock8
  -GOLD-   2262017443D 1   1.00000     0.00000
 Structure written by MMmdl.
 43 45  0  0  0  0  0  0  0  0  2 V2000
  144.3130  144.8524  153.6980 C   0  0  0  0  0  0  0  0  0  0  0  0
  144.7879  143.8331  154.7192 C   0  0  0  0  0  0  0  0  0  0  0  0
  145.5361  142.7614  154.3761 C   0  0  0  0  0  0  0  0  0  0  0  0
  145.9726  141.8288  155.3066 N   0  0  0  0  0  0  0  0  0  0  0  0
  146.8955  140.6742  154.9279 C   0  0  2  0  0  0  0  0  0  0  0  0
  147.9613  140.6706  155.8239 O   0  0  0  0  0  0  0  0  0  0  0  0
  149.0115  141.4575  155.2801 C   0  0  1  0  0  0  0  0  0  0  0  0
  150.3288  141.1953  156.0242 C   0  0  0  0  0  0  0  0  0  0  0  0
  150.3371  141.9623  157.2167 O   0  0  0  0  0  0  0  0  0  0  0  0
  151.3875  141.9000  158.0556 C   0  0  0  0  0  0  0  0  0  0  0  0
  152.0955  140.8999  158.1900 O   0  0  0  0  0  0  0  0  0  0  0  0
  151.6064  143.1717  158.8036 C   0  0  0  0  0  0  0  0  0  0  0  0
  151.4938  144.4060  158.1219 C   0  0  0  0  0  0  0  0  0  0  0  0
  151.6937  145.6226  158.8032 C   0  0  0  0  0  0  0  0  0  0  0  0
  152.0088  145.6199  160.1745 C   0  0  0  0  0  0  0  0  0  0  0  0
  152.1244  144.3989  160.8639 C   0  0  0  0  0  0  0  0  0  0  0  0
  151.9255  143.1812  160.1844 C   0  0  0  0  0  0  0  0  0  0  0  0
  148.9826  141.0845  153.7869 C   0  0  1  0  0  0  0  0  0  0  0  0
  149.8409  139.9854  153.5215 O   0  0  0  0  0  0  0  0  0  0  0  0
  147.5015  140.7699  153.5105 C   0  0  1  0  0  0  0  0  0  0  0  0
  147.3168  139.5787  152.7680 O   0  0  0  0  0  0  0  0  0  0  0  0
  145.7115  142.0650  156.6851 C   0  0  0  0  0  0  0  0  0  0  0  0
  146.1941  141.2920  157.5130 O   0  0  0  0  0  0  0  0  0  0  0  0
  144.9408  143.1325  157.0394 N   0  5  0  0  0  0  0  0  0  0  0  0
  144.4463  144.0209  156.1323 C   0  0  0  0  0  0  0  0  0  0  0  0
  143.7358  144.9694  156.4643 O   0  0  0  0  0  0  0  0  0  0  0  0
  144.6492  144.5951  152.6934 H   0  0  0  0  0  0  0  0  0  0  0  0
  144.6991  145.8428  153.9409 H   0  0  0  0  0  0  0  0  0  0  0  0
  143.2238  144.9005  153.6872 H   0  0  0  0  0  0  0  0  0  0  0  0
  145.8096  142.6578  153.3383 H   0  0  0  0  0  0  0  0  0  0  0  0
  146.2976  139.7684  155.0370 H   0  0  0  0  0  0  0  0  0  0  0  0
  148.7557  142.5127  155.3823 H   0  0  0  0  0  0  0  0  0  0  0  0
  150.4426  140.1333  156.2469 H   0  0  0  0  0  0  0  0  0  0  0  0
  151.1741  141.4992  155.4050 H   0  0  0  0  0  0  0  0  0  0  0  0
  151.2527  144.4332  157.0690 H   0  0  0  0  0  0  0  0  0  0  0  0
  151.6050  146.5587  158.2719 H   0  0  0  0  0  0  0  0  0  0  0  0
  152.1616  146.5530  160.6969 H   0  0  0  0  0  0  0  0  0  0  0  0
  152.3667  144.3947  161.9167 H   0  0  0  0  0  0  0  0  0  0  0  0
  152.0235  142.2621  160.7439 H   0  0  0  0  0  0  0  0  0  0  0  0
  149.3235  141.9206  153.1756 H   0  0  0  0  0  0  0  0  0  0  0  0
  149.6970  139.6988  152.6328 H   0  0  0  0  0  0  0  0  0  0  0  0
  147.0220  141.5550  152.9293 H   0  0  0  0  0  0  0  0  0  0  0  0
  147.8457  139.6343  151.9866 H   0  0  0  0  0  0  0  0  0  0  0  0
  1  2  1  0  0  0  0
  1 27  1  0  0  0  0
  1 28  1  0  0  0  0
  1 29  1  0  0  0  0
  2 25  1  0  0  0  0
  2  3  2  0  0  0  0
  3  4  1  0  0  0  0
  3 30  1  0  0  0  0
  4  5  1  0  0  0  0
  4 22  1  0  0  0  0
  5 20  1  0  0  0  0
  5  6  1  0  0  0  0
  5 31  1  0  0  0  0
  6  7  1  0  0  0  0
  7  8  1  0  0  0  0
  7 18  1  0  0  0  0
  7 32  1  0  0  0  0
  8  9  1  0  0  0  0
  8 33  1  0  0  0  0
  8 34  1  0  0  0  0
  9 10  1  0  0  0  0
 10 11  2  0  0  0  0
 10 12  1  0  0  0  0
 12 17  1  0  0  0  0
 12 13  2  0  0  0  0
 13 14  1  0  0  0  0
 13 35  1  0  0  0  0
 14 15  2  0  0  0  0
 14 36  1  0  0  0  0
 15 16  1  0  0  0  0
 15 37  1  0  0  0  0
 16 17  2  0  0  0  0
 16 38  1  0  0  0  0
 17 39  1  0  0  0  0
 18 19  1  0  0  0  0
 18 20  1  0  0  0  0
 18 40  1  0  0  0  0
 19 41  1  0  0  0  0
 20 21  1  0  0  0  0
 20 42  1  0  0  0  0
 21 43  1  0  0  0  0
 22 23  2  0  0  0  0
 22 24  1  0  0  0  0
 24 25  1  0  0  0  0
 25 26  2  0  0  0  0
M  CHG  1  24  -1
M  END
> <s_m_source_file>
AV-unprocessed.smi

> <i_m_source_file_index>
101

> <i_lp_mmshare_version>
43012

> <i_f3d_flags>
0

> <s_epik_input>
Tz1jMVtuSF1jKD1PKW4oW2NIXWMxW0NIM10pW0NAQEhdMk9bQ0BIXShbQ0BASF0oW09IXSlbQ0BIXTJbT0hdKVtDSDJdT0MoPU8pYzNbY0hdW2NIXVtjSF1bY0hdW2NIXTM=

> <s_epik_cmdline>
J2VwaWtfcHl0aG9uJywgJy1waCcsICc3LjAnLCAnLXRuJywgJzgnLCAnLW1hJywgJzIwMCcsICctbWV0YWxfYmluZGluZycsICctaW1hZScsICc8aW5maWxlLm1hZT4nLCAnLW9tYWUnLCAnPG91dGZpbGUubWFlPic=

> <r_lp_tautomer_probability>
0.999537

> <r_epik_Ionization_Penalty>
3.21006

> <r_epik_Ionization_Penalty_Charging>
5.75142e-08

> <r_epik_Ionization_Penalty_Neutral>
3.21006

> <r_epik_State_Penalty>
3.20925

> <r_epik_Charging_Adjusted_Penalty>
3.20925

> <i_epik_Tot_Q>
-1

> <i_epik_Tot_abs_Q>
1

> <r_epik_Metal_State_Penalty>
0.119957

> <b_epik_Metal_Only>
1

> <s_epik_Chemistry_Notes>
This compound has an ester and may undergo hydrolysis at high or low pH. This compound contains an acetal/aminal-like group ( X-CH(R)-Y where X, Y are N, S, or O) that may be acid/base labile, releasing an aldehyde.

> <s_lp_Force_Field>
OPLS_2005

> <r_lp_Energy>
45.1107

> <b_lp_Chiralities_Consistent>
1

> <s_lp_Variant>
AV-unprocessed.smi:101-17

> <Gold.Version>
5.8.1

> <Gold.Id.Protein>
6NUR|6NUR_protein|mol2

> <Gold.PLP.Fitness>
53.2717

> <Gold.PLP.PLP>
-48.3595

> <Gold.PLP.part.hbond>
-2.5248

> <Gold.PLP.part.metal>
0.0000

> <Gold.PLP.part.buried>
-4.3331

> <Gold.PLP.part.nonpolar>
-41.5585

> <Gold.PLP.part.repulsive>
0.2727

> <Gold.PLP.ligand.clash>
0.0000

> <Gold.PLP.ligand.torsion>
1.6094

> <Gold.PLP.Chemscore.Hbond>
2.6633

> <Gold.PLP.Chemscore.CHOScore>
0.0000

> <Gold.PLP.Chemscore.Metal>
0.0000

> <Gold.Chemscore.Hbonds>
donor molecule, donor type, donor heavy atom, donor atom, acceptor molecule, acceptor atom, score
      L1  H    19    41       P1  7957  0.92
      L1  H    21    43       P1  7957  0.99
      P1  H  7989  7998       L1    19  0.66

> <Gold.PLP.Chemscore.Internal.Correction>
0.1412

> <Gold.Rescore>
     Score         DG    S(hbond)    S(metal)    S(lipo)     H(rot)  DE(clash)    DE(int)     intcor
     13.77     -17.70       2.00        0.00     118.90       3.27       0.65       3.28       ----

> <Gold.Chemscore.Fitness>
13.7675

> <Gold.Chemscore.DG>
-17.6989

> <Gold.Chemscore.ZeroCoef>
-5.4800

> <Gold.Chemscore.Hbond>
1.9963

> <Gold.Chemscore.Metal>
0.0000

> <Gold.Chemscore.Lipo>
118.8977

> <Gold.Chemscore.Internal_Hbond>
0.0000

> <Gold.Chemscore.DEClash>
0.6544

> <Gold.Chemscore.DEInternal>
3.2769

> <Gold.Chemscore.Rot>
3.2656

> <Gold.Chemscore.Internal.Correction>
   9.000000E+99

> <Gold.Chemscore.Hbonds>
donor molecule, donor type, donor heavy atom, donor atom, acceptor molecule, acceptor atom, score
      L1  H    19    41       P1  7957  0.84
      L1  H    21    43       P1  7957  0.93
      P1  H  7989  7998       L1    19  0.09

> <Gold.Chemscore.Hbond.Weighted>
-6.6677

> <Gold.Chemscore.Metal.Weighted>
-0.0000

> <Gold.Chemscore.Lipo.Weighted>
-13.9110

> <Gold.Chemscore.Internal_Hbond.Weighted>
0.0000

> <Gold.Chemscore.DEClash.Weighted>
0.6544

> <Gold.Chemscore.DEInternal.Weighted>
3.2769

> <Gold.Chemscore.Rot.Weighted>
8.3598

> <Gold.Chemscore.Internal.Correction.Weighted>
   9.000000E+99

> <Gold.Protein.RotatedTorsions>
[ 6907 6896 6895 6894 ] final   25.84 input  -60.11 | X-H torsion
[ 7974 7965 7964 7962 ] final  -12.19 input  175.53 | X-H torsion
[ 8008 7997 7996 7995 ] final    0.99 input   59.86 | X-H torsion
[ 10167 10162 10161 10158 ] final  136.51 input  -65.29 | X-H torsion
[ 10718 10713 10712 10709 ] final    6.90 input   66.30 | X-H torsion
[ 10763 10752 10751 10750 ] final   56.89 input  -60.55 | X-H torsion
[ 11005 11000 10999 10996 ] final  -47.65 input  -57.11 | X-H torsion

> <Gold.Protein.ActiveResidues>
 VAL166  LYS551  ARG553  GLY616  TRP617  ASP618  TYR619  PRO620  LYS621  CYS622 
 ASP623  PHE694  ASN695  SER759  ASP760  ASP761  ALA762  ILE779  LEU786  VAL792 
 PHE793  MET794  SER795  GLU796  ALA797  LYS798  CYS799  TRP800  GLU811  SER814 

> <Gold.Protein.RotatedAtoms>
  151.9785  135.0040  160.0556 H   0  0  0  0  0  0  0  0  0  0  0  0  # atno 6907 bound_to 6896
  152.1718  133.4644  159.4921 H   0  0  0  0  0  0  0  0  0  0  0  0  # atno 6908 bound_to 6896
  150.6903  134.1861  159.4310 H   0  0  0  0  0  0  0  0  0  0  0  0  # atno 6909 bound_to 6896
  146.2161  140.3021  142.8376 H   0  0  0  0  0  0  0  0  0  0  0  0  # atno 7974 bound_to 7965
  154.6745  140.2619  155.6972 H   0  0  0  0  0  0  0  0  0  0  0  0  # atno 8008 bound_to 7997
  156.2672  140.2822  156.1189 H   0  0  0  0  0  0  0  0  0  0  0  0  # atno 8009 bound_to 7997
  155.1120  140.0376  157.2716 H   0  0  0  0  0  0  0  0  0  0  0  0  # atno 8010 bound_to 7997
  139.5177  144.6460  151.5437 H   0  0  0  0  0  0  0  0  0  0  0  0  # atno 10167 bound_to 10162
  156.9290  130.5819  149.5649 H   0  0  0  0  0  0  0  0  0  0  0  0  # atno 10718 bound_to 10713
  152.9840  135.5660  154.5302 H   0  0  0  0  0  0  0  0  0  0  0  0  # atno 10763 bound_to 10752
  154.4775  135.2787  155.1598 H   0  0  0  0  0  0  0  0  0  0  0  0  # atno 10764 bound_to 10752
  154.3121  135.6286  153.5523 H   0  0  0  0  0  0  0  0  0  0  0  0  # atno 10765 bound_to 10752
  141.0653  133.6695  156.3328 H   0  0  0  0  0  0  0  0  0  0  0  0  # atno 11005 bound_to 11000
  144.9050  140.7688  143.5843 LP  0  0  0  0  0  0  0  0  0  0  0  0  # atno 17320 bound_to 7965
  145.2948  139.1871  143.4721 LP  0  0  0  0  0  0  0  0  0  0  0  0  # atno 17321 bound_to 7965
  140.6246  143.9194  150.6554 LP  0  0  0  0  0  0  0  0  0  0  0  0  # atno 17342 bound_to 10162
  140.2478  143.3615  152.1432 LP  0  0  0  0  0  0  0  0  0  0  0  0  # atno 17343 bound_to 10162
  156.0456  130.5533  150.8873 LP  0  0  0  0  0  0  0  0  0  0  0  0  # atno 17370 bound_to 10713
  157.5859  131.0945  150.9197 LP  0  0  0  0  0  0  0  0  0  0  0  0  # atno 17371 bound_to 10713
  140.5785  134.5770  157.5474 LP  0  0  0  0  0  0  0  0  0  0  0  0  # atno 17394 bound_to 11000
  139.9471  134.7683  156.0536 LP  0  0  0  0  0  0  0  0  0  0  0  0  # atno 17395 bound_to 11000

$$$$
