AV-unprocessed.smi:160|AV-procd|sdf|1373|dock4
  -GOLD-   2262019 93D 1   1.00000     0.00000
 Structure written by MMmdl.
 28 29  0  0  0  0  0  0  0  0  2 V2000
  151.4947  136.4793  154.2837 N   0  5  0  0  0  0  0  0  0  0  0  0
  151.7207  137.8054  154.4060 C   0  0  0  0  0  0  0  0  0  0  0  0
  152.8170  138.3462  154.5476 O   0  0  0  0  0  0  0  0  0  0  0  0
  150.4775  138.6614  154.3561 C   0  0  0  0  0  0  0  0  0  0  0  0
  150.5584  140.0167  154.5236 N   0  0  0  0  0  0  0  0  0  0  0  0
  149.2740  140.3227  154.4028 C   0  0  0  0  0  0  0  0  0  0  0  0
  148.4784  139.2735  154.1778 N   0  0  0  0  0  0  0  0  0  0  0  0
  146.9909  139.2243  153.9923 C   0  0  2  0  0  0  0  0  0  0  0  0
  146.4834  138.1781  154.7666 O   0  0  0  0  0  0  0  0  0  0  0  0
  146.1629  137.0708  153.9306 C   0  0  1  0  0  0  0  0  0  0  0  0
  145.1353  136.1687  154.6317 C   0  0  0  0  0  0  0  0  0  0  0  0
  144.0955  136.9502  155.1794 O   0  0  0  0  0  0  0  0  0  0  0  0
  145.6109  137.7794  152.6923 C   0  0  2  0  0  0  0  0  0  0  0  0
  145.5514  136.9406  151.5535 O   0  0  0  0  0  0  0  0  0  0  0  0
  146.5535  138.9708  152.5289 C   0  0  2  0  0  0  0  0  0  0  0  0
  147.6222  138.7047  151.6327 O   0  0  0  0  0  0  0  0  0  0  0  0
  149.2550  138.1616  154.1501 N   0  0  0  0  0  0  0  0  0  0  0  0
  146.6382  140.1777  154.3873 H   0  0  0  0  0  0  0  0  0  0  0  0
  147.0673  136.5165  153.6716 H   0  0  0  0  0  0  0  0  0  0  0  0
  144.6075  138.1504  152.9064 H   0  0  0  0  0  0  0  0  0  0  0  0
  146.0141  139.8441  152.1611 H   0  0  0  0  0  0  0  0  0  0  0  0
  151.1459  136.1237  153.3856 H   0  0  0  0  0  0  0  0  0  0  0  0
  148.9052  141.3351  154.4774 H   0  0  0  0  0  0  0  0  0  0  0  0
  144.7302  135.4218  153.9483 H   0  0  0  0  0  0  0  0  0  0  0  0
  145.6076  135.6322  155.4548 H   0  0  0  0  0  0  0  0  0  0  0  0
  143.7260  136.4874  155.9155 H   0  0  0  0  0  0  0  0  0  0  0  0
  145.1992  137.4396  150.8325 H   0  0  0  0  0  0  0  0  0  0  0  0
  148.3121  139.3313  151.7885 H   0  0  0  0  0  0  0  0  0  0  0  0
  1  2  1  0  0  0  0
  1 22  1  0  0  0  0
  2  3  2  0  0  0  0
  2  4  1  0  0  0  0
  4 17  2  0  0  0  0
  4  5  1  0  0  0  0
  5  6  2  0  0  0  0
  6  7  1  0  0  0  0
  6 23  1  0  0  0  0
  7  8  1  0  0  0  0
  7 17  1  0  0  0  0
  8 18  1  0  0  0  0
  8 15  1  0  0  0  0
  8  9  1  0  0  0  0
  9 10  1  0  0  0  0
 10 19  1  0  0  0  0
 10 11  1  0  0  0  0
 10 13  1  0  0  0  0
 11 12  1  0  0  0  0
 11 24  1  0  0  0  0
 11 25  1  0  0  0  0
 12 26  1  0  0  0  0
 13 20  1  0  0  0  0
 13 14  1  0  0  0  0
 13 15  1  0  0  0  0
 14 27  1  0  0  0  0
 15 21  1  0  0  0  0
 15 16  1  0  0  0  0
 16 28  1  0  0  0  0
M  CHG  1   1  -1
M  END
> <s_m_source_file>
AV-unprocessed.smi

> <i_m_source_file_index>
160

> <i_lp_mmshare_version>
43012

> <i_f3d_flags>
0

> <s_epik_input>
W05IMl1DKD1PKWMxbltjSF1uKG4xKVtDQEBIXTJPW0NASF0oW0NIMl1bT0hdKVtDQEBIXShbT0hdKVtDQEhdMltPSF0=

> <s_epik_cmdline>
J2VwaWtfcHl0aG9uJywgJy1waCcsICc3LjAnLCAnLXRuJywgJzgnLCAnLW1hJywgJzIwMCcsICctbWV0YWxfYmluZGluZycsICctaW1hZScsICc8aW5maWxlLm1hZT4nLCAnLW9tYWUnLCAnPG91dGZpbGUubWFlPic=

> <r_lp_tautomer_probability>
1

> <r_epik_Ionization_Penalty>
6.6993

> <r_epik_Ionization_Penalty_Charging>
6.6993

> <r_epik_Ionization_Penalty_Neutral>
6.01698e-06

> <r_epik_State_Penalty>
6.69929

> <r_epik_Charging_Adjusted_Penalty>
13.3986

> <i_epik_Tot_Q>
-1

> <i_epik_Tot_abs_Q>
1

> <r_epik_Metal_State_Penalty>
2.62798

> <b_epik_Metal_Only>
1

> <s_epik_Chemistry_Notes>
This compound contains an acetal/aminal-like group ( X-CH(R)-Y where X, Y are N, S, or O) that may be acid/base labile, releasing an aldehyde.

> <s_lp_Force_Field>
OPLS_2005

> <r_lp_Energy>
50.1619

> <b_lp_Chiralities_Consistent>
1

> <s_lp_Variant>
AV-unprocessed.smi:160-31

> <Gold.Version>
5.8.1

> <Gold.Id.Protein>
6NUR|6NUR_protein|mol2

> <Gold.PLP.Fitness>
44.0741

> <Gold.PLP.PLP>
-24.4841

> <Gold.PLP.part.hbond>
-6.6798

> <Gold.PLP.part.metal>
0.0000

> <Gold.PLP.part.buried>
-4.6562

> <Gold.PLP.part.nonpolar>
-15.4538

> <Gold.PLP.part.repulsive>
1.3358

> <Gold.PLP.ligand.clash>
0.0000

> <Gold.PLP.ligand.torsion>
0.4031

> <Gold.PLP.Chemscore.Hbond>
6.7920

> <Gold.PLP.Chemscore.CHOScore>
0.0000

> <Gold.PLP.Chemscore.Metal>
0.0000

> <Gold.Chemscore.Hbonds>
donor molecule, donor type, donor heavy atom, donor atom, acceptor molecule, acceptor atom, score
      L1  H     1    22       P1  7949  1.00
      L1  H    14    27       P1 10171  1.00
      L1  H    16    28       P1  7957  0.86
      P1  H  7954  7966       L1    16  0.91
      P1  H  7989  7998       L1     5  1.00
      P1  H 10752 10765       L1     1  2.00

> <Gold.PLP.Chemscore.Internal.Correction>
0.0202

> <Gold.Rescore>
     Score         DG    S(hbond)    S(metal)    S(lipo)     H(rot)  DE(clash)    DE(int)     intcor
     10.69     -12.16       4.51        0.00      16.83       4.04       0.76       0.72       ----

> <Gold.Chemscore.Fitness>
10.6872

> <Gold.Chemscore.DG>
-12.1619

> <Gold.Chemscore.ZeroCoef>
-5.4800

> <Gold.Chemscore.Hbond>
4.5077

> <Gold.Chemscore.Metal>
0.0000

> <Gold.Chemscore.Lipo>
16.8304

> <Gold.Chemscore.Internal_Hbond>
0.0000

> <Gold.Chemscore.DEClash>
0.7580

> <Gold.Chemscore.DEInternal>
0.7166

> <Gold.Chemscore.Rot>
4.0403

> <Gold.Chemscore.Internal.Correction>
   9.000000E+99

> <Gold.Chemscore.Hbonds>
donor molecule, donor type, donor heavy atom, donor atom, acceptor molecule, acceptor atom, score
      L1  H     1    22       P1  7949  0.34
      L1  H    14    27       P1 10171  0.93
      L1  H    16    28       P1  7957  0.82
      P1  H  7954  7966       L1    16  0.30
      P1  H  7989  7998       L1     5  0.87
      P1  H 10752 10765       L1     1  0.22

> <Gold.Chemscore.Hbond.Weighted>
-15.0558

> <Gold.Chemscore.Metal.Weighted>
-0.0000

> <Gold.Chemscore.Lipo.Weighted>
-1.9692

> <Gold.Chemscore.Internal_Hbond.Weighted>
0.0000

> <Gold.Chemscore.DEClash.Weighted>
0.7580

> <Gold.Chemscore.DEInternal.Weighted>
0.7166

> <Gold.Chemscore.Rot.Weighted>
10.3431

> <Gold.Chemscore.Internal.Correction.Weighted>
   9.000000E+99

> <Gold.Protein.RotatedTorsions>
[ 6907 6896 6895 6894 ] final  -11.48 input  -60.11 | X-H torsion
[ 7974 7965 7964 7962 ] final -100.99 input  175.53 | X-H torsion
[ 8008 7997 7996 7995 ] final  100.92 input   59.86 | X-H torsion
[ 10167 10162 10161 10158 ] final    2.51 input  -65.29 | X-H torsion
[ 10718 10713 10712 10709 ] final  127.47 input   66.30 | X-H torsion
[ 10763 10752 10751 10750 ] final  170.80 input  -60.55 | X-H torsion
[ 11005 11000 10999 10996 ] final  128.21 input  -57.11 | X-H torsion

> <Gold.Protein.ActiveResidues>
 VAL166  LYS551  ARG553  GLY616  TRP617  ASP618  TYR619  PRO620  LYS621  CYS622 
 ASP623  PHE694  ASN695  SER759  ASP760  ASP761  ALA762  ILE779  LEU786  VAL792 
 PHE793  MET794  SER795  GLU796  ALA797  LYS798  CYS799  TRP800  GLU811  SER814 

> <Gold.Protein.RotatedAtoms>
  151.3856  135.0947  159.9509 H   0  0  0  0  0  0  0  0  0  0  0  0  # atno 6907 bound_to 6896
  152.5095  133.9029  159.7460 H   0  0  0  0  0  0  0  0  0  0  0  0  # atno 6908 bound_to 6896
  150.9472  133.6534  159.2808 H   0  0  0  0  0  0  0  0  0  0  0  0  # atno 6909 bound_to 6896
  145.2874  140.9343  143.2897 H   0  0  0  0  0  0  0  0  0  0  0  0  # atno 7974 bound_to 7965
  156.1249  140.3206  155.8263 H   0  0  0  0  0  0  0  0  0  0  0  0  # atno 8008 bound_to 7997
  155.4437  140.0527  157.3025 H   0  0  0  0  0  0  0  0  0  0  0  0  # atno 8009 bound_to 7997
  154.4855  140.2071  155.9678 H   0  0  0  0  0  0  0  0  0  0  0  0  # atno 8010 bound_to 7997
  140.6631  143.7250  150.7776 H   0  0  0  0  0  0  0  0  0  0  0  0  # atno 10167 bound_to 10162
  157.5330  131.1098  150.8980 H   0  0  0  0  0  0  0  0  0  0  0  0  # atno 10718 bound_to 10713
  154.4027  135.2755  155.2086 H   0  0  0  0  0  0  0  0  0  0  0  0  # atno 10763 bound_to 10752
  154.4105  135.6023  153.5953 H   0  0  0  0  0  0  0  0  0  0  0  0  # atno 10764 bound_to 10752
  152.9831  135.5948  154.4297 H   0  0  0  0  0  0  0  0  0  0  0  0  # atno 10765 bound_to 10752
  139.9548  134.9615  156.8969 H   0  0  0  0  0  0  0  0  0  0  0  0  # atno 11005 bound_to 11000
  144.9201  139.4422  143.6545 LP  0  0  0  0  0  0  0  0  0  0  0  0  # atno 17320 bound_to 7965
  146.3196  139.8057  142.8956 LP  0  0  0  0  0  0  0  0  0  0  0  0  # atno 17321 bound_to 7965
  140.0923  143.4866  152.2472 LP  0  0  0  0  0  0  0  0  0  0  0  0  # atno 17342 bound_to 10162
  139.5871  144.7535  151.3492 LP  0  0  0  0  0  0  0  0  0  0  0  0  # atno 17343 bound_to 10162
  156.9555  130.5436  149.5284 LP  0  0  0  0  0  0  0  0  0  0  0  0  # atno 17370 bound_to 10713
  156.0437  130.5516  150.8830 LP  0  0  0  0  0  0  0  0  0  0  0  0  # atno 17371 bound_to 10713
  140.5634  134.0513  155.7406 LP  0  0  0  0  0  0  0  0  0  0  0  0  # atno 17394 bound_to 11000
  141.1218  133.9449  157.2714 LP  0  0  0  0  0  0  0  0  0  0  0  0  # atno 17395 bound_to 11000

$$$$
