AV-unprocessed.smi:1353|AV-procd|sdf|5532|dock1
  -GOLD-   22720 5123D 1   1.00000     0.00000
 Structure written by MMmdl.
 39 41  0  0  0  0  0  0  0  0  1 V2000
  153.4381  136.8138  160.5788 O   0  0  0  0  0  0  0  0  0  0  0  0
  153.4291  138.2212  160.4662 C   0  0  0  0  0  0  0  0  0  0  0  0
  152.4831  138.6837  159.3445 C   0  0  0  0  0  0  0  0  0  0  0  0
  152.3182  140.1764  159.2793 C   0  0  0  0  0  0  0  0  0  0  0  0
  152.8941  140.9743  160.1805 N   0  0  0  0  0  0  0  0  0  0  0  0
  152.4961  142.2326  159.7766 C   0  0  0  0  0  0  0  0  0  0  0  0
  152.7652  143.5032  160.3339 C   0  0  0  0  0  0  0  0  0  0  0  0
  152.2402  144.6691  159.7393 C   0  0  0  0  0  0  0  0  0  0  0  0
  151.4412  144.5811  158.5811 C   0  0  0  0  0  0  0  0  0  0  0  0
  151.1637  143.3251  158.0086 C   0  0  0  0  0  0  0  0  0  0  0  0
  151.6903  142.1635  158.6058 C   0  0  0  0  0  0  0  0  0  0  0  0
  151.6137  140.8066  158.3024 N   0  0  0  0  0  0  0  0  0  0  0  0
  150.9118  140.2306  157.1622 C   0  0  0  0  0  0  0  0  0  0  0  0
  151.4232  140.7735  155.8209 C   0  0  0  0  0  0  0  0  0  0  0  0
  150.8243  140.0428  154.7584 O   0  0  0  0  0  0  0  0  0  0  0  0
  149.5391  140.3675  154.3837 C   0  0  0  0  0  0  0  0  0  0  0  0
  148.7451  139.3270  153.8586 C   0  0  0  0  0  0  0  0  0  0  0  0
  147.4197  139.5682  153.4488 C   0  0  0  0  0  0  0  0  0  0  0  0
  146.8728  140.8597  153.5616 C   0  0  0  0  0  0  0  0  0  0  0  0
  147.6532  141.9069  154.0857 C   0  0  0  0  0  0  0  0  0  0  0  0
  148.9791  141.6654  154.4958 C   0  0  0  0  0  0  0  0  0  0  0  0
  152.8184  136.4584  159.9601 H   0  0  0  0  0  0  0  0  0  0  0  0
  153.1564  138.6675  161.4230 H   0  0  0  0  0  0  0  0  0  0  0  0
  154.4466  138.5432  160.2438 H   0  0  0  0  0  0  0  0  0  0  0  0
  152.8874  138.3582  158.3855 H   0  0  0  0  0  0  0  0  0  0  0  0
  151.5220  138.1826  159.4452 H   0  0  0  0  0  0  0  0  0  0  0  0
  153.3752  143.5804  161.2217 H   0  0  0  0  0  0  0  0  0  0  0  0
  152.4507  145.6351  160.1743 H   0  0  0  0  0  0  0  0  0  0  0  0
  151.0413  145.4786  158.1323 H   0  0  0  0  0  0  0  0  0  0  0  0
  150.5500  143.2562  157.1228 H   0  0  0  0  0  0  0  0  0  0  0  0
  151.0439  139.1488  157.1876 H   0  0  0  0  0  0  0  0  0  0  0  0
  149.8405  140.3989  157.2698 H   0  0  0  0  0  0  0  0  0  0  0  0
  151.1752  141.8324  155.7365 H   0  0  0  0  0  0  0  0  0  0  0  0
  152.5080  140.6840  155.7823 H   0  0  0  0  0  0  0  0  0  0  0  0
  149.1583  138.3331  153.7674 H   0  0  0  0  0  0  0  0  0  0  0  0
  146.8236  138.7623  153.0472 H   0  0  0  0  0  0  0  0  0  0  0  0
  145.8565  141.0466  153.2473 H   0  0  0  0  0  0  0  0  0  0  0  0
  147.2345  142.8986  154.1738 H   0  0  0  0  0  0  0  0  0  0  0  0
  149.5456  142.4930  154.8942 H   0  0  0  0  0  0  0  0  0  0  0  0
  1  2  1  0  0  0  0
  1 22  1  0  0  0  0
  2  3  1  0  0  0  0
  2 23  1  0  0  0  0
  2 24  1  0  0  0  0
  3  4  1  0  0  0  0
  3 25  1  0  0  0  0
  3 26  1  0  0  0  0
  4 12  1  0  0  0  0
  4  5  2  0  0  0  0
  5  6  1  0  0  0  0
  6 11  2  0  0  0  0
  6  7  1  0  0  0  0
  7  8  2  0  0  0  0
  7 27  1  0  0  0  0
  8  9  1  0  0  0  0
  8 28  1  0  0  0  0
  9 10  2  0  0  0  0
  9 29  1  0  0  0  0
 10 11  1  0  0  0  0
 10 30  1  0  0  0  0
 11 12  1  0  0  0  0
 12 13  1  0  0  0  0
 13 14  1  0  0  0  0
 13 31  1  0  0  0  0
 13 32  1  0  0  0  0
 14 15  1  0  0  0  0
 14 33  1  0  0  0  0
 14 34  1  0  0  0  0
 15 16  1  0  0  0  0
 16 21  1  0  0  0  0
 16 17  2  0  0  0  0
 17 18  1  0  0  0  0
 17 35  1  0  0  0  0
 18 19  2  0  0  0  0
 18 36  1  0  0  0  0
 19 20  1  0  0  0  0
 19 37  1  0  0  0  0
 20 21  2  0  0  0  0
 20 38  1  0  0  0  0
 21 39  1  0  0  0  0
M  END
> <s_m_source_file>
AV-unprocessed.smi

> <i_m_source_file_index>
1353

> <i_lp_mmshare_version>
43012

> <i_f3d_flags>
0

> <s_epik_input>
W2NIXTFbY0hdW2NIXVtjSF1jKGMxMiluKGMobjIpW0NIMl1bQ0gyXVtPSF0pW0NIMl1bQ0gyXU9jM1tjSF1bY0hdW2NIXVtjSF1bY0hdMw==

> <s_epik_cmdline>
J2VwaWtfcHl0aG9uJywgJy1waCcsICc3LjAnLCAnLXRuJywgJzgnLCAnLW1hJywgJzIwMCcsICctbWV0YWxfYmluZGluZycsICctaW1hZScsICc8aW5maWxlLm1hZT4nLCAnLW9tYWUnLCAnPG91dGZpbGUubWFlPic=

> <r_lp_tautomer_probability>
1

> <r_epik_Ionization_Penalty>
0.230562

> <r_epik_Ionization_Penalty_Charging>
0

> <r_epik_Ionization_Penalty_Neutral>
0.230562

> <r_epik_State_Penalty>
0.221203

> <r_epik_Charging_Adjusted_Penalty>
0.221203

> <i_epik_Tot_Q>
0

> <i_epik_Tot_abs_Q>
0

> <r_epik_Metal_State_Penalty>
0.000268091

> <b_epik_Metal_Only>
0

> <s_lp_Force_Field>
OPLS_2005

> <r_lp_Energy>
15.7907

> <b_lp_Chiralities_Consistent>
1

> <s_lp_Variant>
AV-unprocessed.smi:1353-1

> <Gold.Version>
5.8.1

> <Gold.Id.Protein>
6NUR|6NUR_protein|mol2

> <Gold.PLP.Fitness>
49.2279

> <Gold.PLP.PLP>
-47.6683

> <Gold.PLP.part.hbond>
-1.1057

> <Gold.PLP.part.metal>
0.0000

> <Gold.PLP.part.buried>
-1.7722

> <Gold.PLP.part.nonpolar>
-42.7646

> <Gold.PLP.part.repulsive>
0.0692

> <Gold.PLP.ligand.clash>
0.0000

> <Gold.PLP.ligand.torsion>
0.5161

> <Gold.PLP.Chemscore.Hbond>
0.8000

> <Gold.PLP.Chemscore.CHOScore>
0.0000

> <Gold.PLP.Chemscore.Metal>
0.0000

> <Gold.Chemscore.Hbonds>
donor molecule, donor type, donor heavy atom, donor atom, acceptor molecule, acceptor atom, score
      P1  H  7989  7998       L1    15  0.68

> <Gold.PLP.Chemscore.Internal.Correction>
0.1918

> <Gold.Rescore>
     Score         DG    S(hbond)    S(metal)    S(lipo)     H(rot)  DE(clash)    DE(int)     intcor
     14.80     -15.30       0.01        0.00     134.10       2.31       0.01       0.49       ----

> <Gold.Chemscore.Fitness>
14.8031

> <Gold.Chemscore.DG>
-15.3007

> <Gold.Chemscore.ZeroCoef>
-5.4800

> <Gold.Chemscore.Hbond>
0.0131

> <Gold.Chemscore.Metal>
0.0000

> <Gold.Chemscore.Lipo>
134.1036

> <Gold.Chemscore.Internal_Hbond>
0.0000

> <Gold.Chemscore.DEClash>
0.0085

> <Gold.Chemscore.DEInternal>
0.4891

> <Gold.Chemscore.Rot>
2.3098

> <Gold.Chemscore.Internal.Correction>
   9.000000E+99

> <Gold.Chemscore.Hbonds>
donor molecule, donor type, donor heavy atom, donor atom, acceptor molecule, acceptor atom, score
      P1  H  7989  7998       L1    15  0.02

> <Gold.Chemscore.Hbond.Weighted>
-0.0437

> <Gold.Chemscore.Metal.Weighted>
-0.0000

> <Gold.Chemscore.Lipo.Weighted>
-15.6901

> <Gold.Chemscore.Internal_Hbond.Weighted>
0.0000

> <Gold.Chemscore.DEClash.Weighted>
0.0085

> <Gold.Chemscore.DEInternal.Weighted>
0.4891

> <Gold.Chemscore.Rot.Weighted>
5.9131

> <Gold.Chemscore.Internal.Correction.Weighted>
   9.000000E+99

> <Gold.Protein.RotatedTorsions>
[ 6907 6896 6895 6894 ] final   -6.79 input  -60.11 | X-H torsion
[ 7974 7965 7964 7962 ] final  -66.71 input  175.53 | X-H torsion
[ 8008 7997 7996 7995 ] final  -54.32 input   59.86 | X-H torsion
[ 10167 10162 10161 10158 ] final  -34.21 input  -65.29 | X-H torsion
[ 10718 10713 10712 10709 ] final  -70.07 input   66.30 | X-H torsion
[ 10763 10752 10751 10750 ] final -146.15 input  -60.55 | X-H torsion
[ 11005 11000 10999 10996 ] final  166.36 input  -57.11 | X-H torsion

> <Gold.Protein.ActiveResidues>
 VAL166  LYS551  ARG553  GLY616  TRP617  ASP618  TYR619  PRO620  LYS621  CYS622 
 ASP623  PHE694  ASN695  SER759  ASP760  ASP761  ALA762  ILE779  LEU786  VAL792 
 PHE793  MET794  SER795  GLU796  ALA797  LYS798  CYS799  TRP800  GLU811  SER814 

> <Gold.Protein.RotatedAtoms>
  151.4599  135.1037  159.9721 H   0  0  0  0  0  0  0  0  0  0  0  0  # atno 6907 bound_to 6896
  152.4857  133.8362  159.7139 H   0  0  0  0  0  0  0  0  0  0  0  0  # atno 6908 bound_to 6896
  150.8964  133.7115  159.2917 H   0  0  0  0  0  0  0  0  0  0  0  0  # atno 6909 bound_to 6896
  145.7384  140.8965  143.0543 H   0  0  0  0  0  0  0  0  0  0  0  0  # atno 7974 bound_to 7965
  154.4159  140.1179  156.5296 H   0  0  0  0  0  0  0  0  0  0  0  0  # atno 8008 bound_to 7997
  155.6619  140.3496  155.4767 H   0  0  0  0  0  0  0  0  0  0  0  0  # atno 8009 bound_to 7997
  155.9706  140.1140  157.0806 H   0  0  0  0  0  0  0  0  0  0  0  0  # atno 8010 bound_to 7997
  140.7190  143.3564  151.2051 H   0  0  0  0  0  0  0  0  0  0  0  0  # atno 10167 bound_to 10162
  156.0425  130.4324  150.2241 H   0  0  0  0  0  0  0  0  0  0  0  0  # atno 10718 bound_to 10713
  154.8350  135.3394  154.6616 H   0  0  0  0  0  0  0  0  0  0  0  0  # atno 10763 bound_to 10752
  153.7231  135.6957  153.5012 H   0  0  0  0  0  0  0  0  0  0  0  0  # atno 10764 bound_to 10752
  153.2366  135.4398  155.0606 H   0  0  0  0  0  0  0  0  0  0  0  0  # atno 10765 bound_to 10752
  140.2656  134.7867  157.3629 H   0  0  0  0  0  0  0  0  0  0  0  0  # atno 11005 bound_to 11000
  144.6876  139.9426  143.7475 LP  0  0  0  0  0  0  0  0  0  0  0  0  # atno 17320 bound_to 7965
  146.0471  139.3476  143.0662 LP  0  0  0  0  0  0  0  0  0  0  0  0  # atno 17321 bound_to 7965
  139.7106  143.9382  152.2946 LP  0  0  0  0  0  0  0  0  0  0  0  0  # atno 17342 bound_to 10162
  139.9106  144.6858  150.8566 LP  0  0  0  0  0  0  0  0  0  0  0  0  # atno 17343 bound_to 10162
  157.0334  131.0014  151.3305 LP  0  0  0  0  0  0  0  0  0  0  0  0  # atno 17370 bound_to 10713
  157.5261  130.8028  149.7863 LP  0  0  0  0  0  0  0  0  0  0  0  0  # atno 17371 bound_to 10713
  140.1422  134.4957  155.8023 LP  0  0  0  0  0  0  0  0  0  0  0  0  # atno 17394 bound_to 11000
  141.2184  133.6830  156.7231 LP  0  0  0  0  0  0  0  0  0  0  0  0  # atno 17395 bound_to 11000

$$$$
