AV-unprocessed.smi:1706|AV-procd|sdf|6886|dock8
  -GOLD-   22720 8 93D 1   1.00000     0.00000
 Structure written by MMmdl.
 35 36  0  0  0  0  0  0  0  0  1 V2000
  151.7008  145.3482  159.9950 C   0  0  0  0  0  0  0  0  0  0  0  0
  152.1512  144.0764  160.5182 N   0  0  0  0  0  0  0  0  0  0  0  0
  152.6994  143.0122  159.8357 C   0  0  0  0  0  0  0  0  0  0  0  0
  152.9527  142.0267  160.7479 C   0  0  0  0  0  0  0  0  0  0  0  0
  153.5275  140.6538  160.5168 C   0  0  0  0  0  0  0  0  0  0  0  0
  152.5099  139.6964  159.8744 C   0  0  0  0  0  0  0  0  0  0  0  0
  152.3375  139.9908  158.4555 N   0  0  0  0  0  0  0  0  0  0  0  0
  152.3927  139.0963  157.4556 C   0  0  0  0  0  0  0  0  0  0  0  0
  152.6526  137.9083  157.6504 O   0  0  0  0  0  0  0  0  0  0  0  0
  152.0940  139.6008  156.2326 N   0  0  0  0  0  0  0  0  0  0  0  0
  152.2838  138.9351  154.9348 C   0  0  0  0  0  0  0  0  0  0  0  0
  150.8971  138.6225  154.3441 C   0  0  0  0  0  0  0  0  0  0  0  0
  150.1477  139.8282  154.2140 O   0  0  0  0  0  0  0  0  0  0  0  0
  149.9722  140.5140  155.4514 C   0  0  0  0  0  0  0  0  0  0  0  0
  151.3473  140.8494  156.0563 C   0  0  0  0  0  0  0  0  0  0  0  0
  152.5230  142.5983  161.9796 C   0  0  0  0  0  0  0  0  0  0  0  0
  152.0434  143.8232  161.8386 N   0  0  0  0  0  0  0  0  0  0  0  0
  152.0677  145.4843  158.9774 H   0  0  0  0  0  0  0  0  0  0  0  0
  152.0748  146.1617  160.6176 H   0  0  0  0  0  0  0  0  0  0  0  0
  150.6108  145.3749  159.9862 H   0  0  0  0  0  0  0  0  0  0  0  0
  152.8537  143.0390  158.7669 H   0  0  0  0  0  0  0  0  0  0  0  0
  154.4092  140.7139  159.8777 H   0  0  0  0  0  0  0  0  0  0  0  0
  153.8768  140.2217  161.4549 H   0  0  0  0  0  0  0  0  0  0  0  0
  152.8402  138.6634  159.9869 H   0  0  0  0  0  0  0  0  0  0  0  0
  151.5577  139.7834  160.4009 H   0  0  0  0  0  0  0  0  0  0  0  0
  152.1111  140.9450  158.2166 H   0  0  0  0  0  0  0  0  0  0  0  0
  152.8316  139.6021  154.2675 H   0  0  0  0  0  0  0  0  0  0  0  0
  152.8719  138.0188  154.9837 H   0  0  0  0  0  0  0  0  0  0  0  0
  151.0001  138.1633  153.3609 H   0  0  0  0  0  0  0  0  0  0  0  0
  150.3570  137.9133  154.9735 H   0  0  0  0  0  0  0  0  0  0  0  0
  149.4060  141.4278  155.2711 H   0  0  0  0  0  0  0  0  0  0  0  0
  149.3842  139.9022  156.1375 H   0  0  0  0  0  0  0  0  0  0  0  0
  151.2185  141.4023  156.9878 H   0  0  0  0  0  0  0  0  0  0  0  0
  151.9011  141.5112  155.3890 H   0  0  0  0  0  0  0  0  0  0  0  0
  152.5384  142.1576  162.9656 H   0  0  0  0  0  0  0  0  0  0  0  0
  1  2  1  0  0  0  0
  1 18  1  0  0  0  0
  1 19  1  0  0  0  0
  1 20  1  0  0  0  0
  2 17  1  0  0  0  0
  2  3  1  0  0  0  0
  3  4  2  0  0  0  0
  3 21  1  0  0  0  0
  4  5  1  0  0  0  0
  4 16  1  0  0  0  0
  5  6  1  0  0  0  0
  5 22  1  0  0  0  0
  5 23  1  0  0  0  0
  6  7  1  0  0  0  0
  6 24  1  0  0  0  0
  6 25  1  0  0  0  0
  7  8  1  0  0  0  0
  7 26  1  0  0  0  0
  8  9  2  0  0  0  0
  8 10  1  0  0  0  0
 10 15  1  0  0  0  0
 10 11  1  0  0  0  0
 11 12  1  0  0  0  0
 11 27  1  0  0  0  0
 11 28  1  0  0  0  0
 12 13  1  0  0  0  0
 12 29  1  0  0  0  0
 12 30  1  0  0  0  0
 13 14  1  0  0  0  0
 14 15  1  0  0  0  0
 14 31  1  0  0  0  0
 14 32  1  0  0  0  0
 15 33  1  0  0  0  0
 15 34  1  0  0  0  0
 16 17  2  0  0  0  0
 16 35  1  0  0  0  0
M  END
> <s_m_source_file>
AV-unprocessed.smi

> <i_m_source_file_index>
1706

> <i_lp_mmshare_version>
43012

> <i_f3d_flags>
0

> <s_epik_input>
W0NIM11uMVtjSF1jKFtjSF1uMSlbQ0gyXVtDSDJdW05IXUMoPU8pTjJbQ0gyXVtDSDJdT1tDSDJdW0NIMl0y

> <s_epik_cmdline>
J2VwaWtfcHl0aG9uJywgJy1waCcsICc3LjAnLCAnLXRuJywgJzgnLCAnLW1hJywgJzIwMCcsICctbWV0YWxfYmluZGluZycsICctaW1hZScsICc8aW5maWxlLm1hZT4nLCAnLW9tYWUnLCAnPG91dGZpbGUubWFlPic=

> <r_lp_tautomer_probability>
1

> <r_epik_Ionization_Penalty>
0.000534981

> <r_epik_Ionization_Penalty_Charging>
0

> <r_epik_Ionization_Penalty_Neutral>
0.000534981

> <r_epik_State_Penalty>
-0

> <r_epik_Charging_Adjusted_Penalty>
0

> <i_epik_Tot_Q>
0

> <i_epik_Tot_abs_Q>
0

> <r_epik_Metal_State_Penalty>
-0

> <b_epik_Metal_Only>
0

> <s_lp_Force_Field>
OPLS_2005

> <r_lp_Energy>
25.9186

> <b_lp_Chiralities_Consistent>
1

> <s_lp_Variant>
AV-unprocessed.smi:1706-1

> <Gold.Version>
5.8.1

> <Gold.Id.Protein>
6NUR|6NUR_protein|mol2

> <Gold.PLP.Fitness>
42.9296

> <Gold.PLP.PLP>
-42.2139

> <Gold.PLP.part.hbond>
-1.0000

> <Gold.PLP.part.metal>
0.0000

> <Gold.PLP.part.buried>
-4.9446

> <Gold.PLP.part.nonpolar>
-36.4578

> <Gold.PLP.part.repulsive>
0.9168

> <Gold.PLP.ligand.clash>
0.5861

> <Gold.PLP.ligand.torsion>
0.4305

> <Gold.PLP.Chemscore.Hbond>
0.7125

> <Gold.PLP.Chemscore.CHOScore>
0.0000

> <Gold.PLP.Chemscore.Metal>
0.0000

> <Gold.Chemscore.Hbonds>
donor molecule, donor type, donor heavy atom, donor atom, acceptor molecule, acceptor atom, score
      P1  H  7989  7998       L1    13  0.75

> <Gold.PLP.Chemscore.Internal.Correction>
0.0254

> <Gold.Rescore>
     Score         DG    S(hbond)    S(metal)    S(lipo)     H(rot)  DE(clash)    DE(int)     intcor
     12.71     -12.98       0.00        0.00      95.55       1.44       0.07       0.20       ----

> <Gold.Chemscore.Fitness>
12.7082

> <Gold.Chemscore.DG>
-12.9800

> <Gold.Chemscore.ZeroCoef>
-5.4800

> <Gold.Chemscore.Hbond>
0.0000

> <Gold.Chemscore.Metal>
0.0000

> <Gold.Chemscore.Lipo>
95.5471

> <Gold.Chemscore.Internal_Hbond>
0.0000

> <Gold.Chemscore.DEClash>
0.0700

> <Gold.Chemscore.DEInternal>
0.2018

> <Gold.Chemscore.Rot>
1.4371

> <Gold.Chemscore.Internal.Correction>
   9.000000E+99

> <Gold.Chemscore.Hbonds>
donor molecule, donor type, donor heavy atom, donor atom, acceptor molecule, acceptor atom, score
      P1  H  7989  7998       L1    13  0.02

> <Gold.Chemscore.Hbond.Weighted>
-0.0000

> <Gold.Chemscore.Metal.Weighted>
-0.0000

> <Gold.Chemscore.Lipo.Weighted>
-11.1790

> <Gold.Chemscore.Internal_Hbond.Weighted>
0.0000

> <Gold.Chemscore.DEClash.Weighted>
0.0700

> <Gold.Chemscore.DEInternal.Weighted>
0.2018

> <Gold.Chemscore.Rot.Weighted>
3.6790

> <Gold.Chemscore.Internal.Correction.Weighted>
   9.000000E+99

> <Gold.Protein.RotatedTorsions>
[ 6907 6896 6895 6894 ] final   88.77 input  -60.11 | X-H torsion
[ 7974 7965 7964 7962 ] final  101.43 input  175.53 | X-H torsion
[ 8008 7997 7996 7995 ] final -156.79 input   59.86 | X-H torsion
[ 10167 10162 10161 10158 ] final   24.07 input  -65.29 | X-H torsion
[ 10718 10713 10712 10709 ] final   29.03 input   66.30 | X-H torsion
[ 10763 10752 10751 10750 ] final -156.45 input  -60.55 | X-H torsion
[ 11005 11000 10999 10996 ] final  155.08 input  -57.11 | X-H torsion

> <Gold.Protein.ActiveResidues>
 VAL166  LYS551  ARG553  GLY616  TRP617  ASP618  TYR619  PRO620  LYS621  CYS622 
 ASP623  PHE694  ASN695  SER759  ASP760  ASP761  ALA762  ILE779  LEU786  VAL792 
 PHE793  MET794  SER795  GLU796  ALA797  LYS798  CYS799  TRP800  GLU811  SER814 

> <Gold.Protein.RotatedAtoms>
  152.5429  134.2070  159.8734 H   0  0  0  0  0  0  0  0  0  0  0  0  # atno 6907 bound_to 6896
  151.2055  133.4579  159.2604 H   0  0  0  0  0  0  0  0  0  0  0  0  # atno 6908 bound_to 6896
  151.0947  134.9950  159.8475 H   0  0  0  0  0  0  0  0  0  0  0  0  # atno 6909 bound_to 6896
  145.3724  139.2395  143.3448 H   0  0  0  0  0  0  0  0  0  0  0  0  # atno 7974 bound_to 7965
  155.7226  140.0792  157.2324 H   0  0  0  0  0  0  0  0  0  0  0  0  # atno 8008 bound_to 7997
  154.4043  140.1610  156.2473 H   0  0  0  0  0  0  0  0  0  0  0  0  # atno 8009 bound_to 7997
  155.9182  140.3399  155.6155 H   0  0  0  0  0  0  0  0  0  0  0  0  # atno 8010 bound_to 7997
  140.5218  143.9989  150.6420 H   0  0  0  0  0  0  0  0  0  0  0  0  # atno 10167 bound_to 10162
  157.2413  130.7070  149.6360 H   0  0  0  0  0  0  0  0  0  0  0  0  # atno 10718 bound_to 10713
  154.7711  135.3145  154.8187 H   0  0  0  0  0  0  0  0  0  0  0  0  # atno 10763 bound_to 10752
  153.8922  135.6824  153.4764 H   0  0  0  0  0  0  0  0  0  0  0  0  # atno 10764 bound_to 10752
  153.1325  135.4774  154.9306 H   0  0  0  0  0  0  0  0  0  0  0  0  # atno 10765 bound_to 10752
  140.1548  134.8650  157.2501 H   0  0  0  0  0  0  0  0  0  0  0  0  # atno 11005 bound_to 11000
  146.2879  140.4378  142.8751 LP  0  0  0  0  0  0  0  0  0  0  0  0  # atno 17320 bound_to 7965
  144.8566  140.7080  143.6134 LP  0  0  0  0  0  0  0  0  0  0  0  0  # atno 17321 bound_to 7965
  140.3340  143.3060  152.0657 LP  0  0  0  0  0  0  0  0  0  0  0  0  # atno 17342 bound_to 10162
  139.4926  144.6489  151.6719 LP  0  0  0  0  0  0  0  0  0  0  0  0  # atno 17343 bound_to 10162
  155.9670  130.4457  150.5513 LP  0  0  0  0  0  0  0  0  0  0  0  0  # atno 17370 bound_to 10713
  157.3376  131.0711  151.1813 LP  0  0  0  0  0  0  0  0  0  0  0  0  # atno 17371 bound_to 10713
  140.2560  134.3627  155.7424 LP  0  0  0  0  0  0  0  0  0  0  0  0  # atno 17394 bound_to 11000
  141.2203  133.7343  156.9008 LP  0  0  0  0  0  0  0  0  0  0  0  0  # atno 17395 bound_to 11000

$$$$
