AV-unprocessed.smi:702|AV-procd|sdf|3424|dock6
  -GOLD-   22720 0403D 1   1.00000     0.00000
 Structure written by MMmdl.
 50 52  0  0  0  0  0  0  0  0  4 V2000
  157.2037  137.8590  160.6344 C   0  0  0  0  0  0  0  0  0  0  0  0
  155.7038  137.9146  160.9856 C   0  0  2  0  0  0  0  0  0  0  0  0
  155.3465  139.3097  161.2839 N   0  5  0  0  0  0  0  0  0  0  0  0
  154.6385  140.1321  160.4641 C   0  0  0  0  0  0  0  0  0  0  0  0
  154.4494  140.0038  159.2493 O   0  0  0  0  0  0  0  0  0  0  0  0
  154.0950  141.1657  161.1309 N   0  0  0  0  0  0  0  0  0  0  0  0
  153.3080  142.2359  160.6276 C   0  0  0  0  0  0  0  0  0  0  0  0
  152.7668  143.1496  161.5585 C   0  0  0  0  0  0  0  0  0  0  0  0
  151.9963  144.2360  161.0970 C   0  0  0  0  0  0  0  0  0  0  0  0
  151.7935  144.4023  159.7722 N   0  3  0  0  0  0  0  0  0  0  0  0
  152.3067  143.5661  158.8443 C   0  0  0  0  0  0  0  0  0  0  0  0
  153.0851  142.4617  159.2457 C   0  0  0  0  0  0  0  0  0  0  0  0
  155.3051  136.9428  162.1828 C   0  0  0  0  0  0  0  0  0  0  0  0
  155.4696  135.4781  161.7755 N   0  3  0  0  0  0  0  0  0  0  0  0
  155.0536  134.4578  162.7865 C   0  0  0  0  0  0  0  0  0  0  0  0
  155.5706  133.0665  162.3908 C   0  0  0  0  0  0  0  0  0  0  0  0
  155.0235  132.7032  161.1322 O   0  0  0  0  0  0  0  0  0  0  0  0
  155.4063  133.6135  160.1123 C   0  0  0  0  0  0  0  0  0  0  0  0
  154.9097  135.0295  160.4538 C   0  0  0  0  0  0  0  0  0  0  0  0
  156.1939  137.2616  163.4464 C   0  0  0  0  0  0  0  0  0  0  0  0
  155.2614  137.5147  164.6405 C   0  0  0  0  0  0  0  0  0  0  0  0
  153.8723  137.0476  164.2215 C   0  0  0  0  0  0  0  0  0  0  0  0
  153.8460  137.1898  162.6971 C   0  0  0  0  0  0  0  0  0  0  0  0
  157.5137  136.8520  160.3565 H   0  0  0  0  0  0  0  0  0  0  0  0
  157.8302  138.1805  161.4666 H   0  0  0  0  0  0  0  0  0  0  0  0
  157.4298  138.5059  159.7859 H   0  0  0  0  0  0  0  0  0  0  0  0
  155.1612  137.5752  160.1044 H   0  0  0  0  0  0  0  0  0  0  0  0
  154.2042  141.1370  162.1343 H   0  0  0  0  0  0  0  0  0  0  0  0
  152.9322  143.0159  162.6178 H   0  0  0  0  0  0  0  0  0  0  0  0
  151.5409  144.9722  161.7429 H   0  0  0  0  0  0  0  0  0  0  0  0
  152.0867  143.8071  157.8145 H   0  0  0  0  0  0  0  0  0  0  0  0
  153.5072  141.8142  158.4921 H   0  0  0  0  0  0  0  0  0  0  0  0
  155.4059  134.6671  163.7926 H   0  0  0  0  0  0  0  0  0  0  0  0
  153.9656  134.4199  162.8421 H   0  0  0  0  0  0  0  0  0  0  0  0
  156.6611  133.0481  162.3540 H   0  0  0  0  0  0  0  0  0  0  0  0
  155.2627  132.3275  163.1307 H   0  0  0  0  0  0  0  0  0  0  0  0
  156.4902  133.6027  159.9865 H   0  0  0  0  0  0  0  0  0  0  0  0
  154.9740  133.2821  159.1680 H   0  0  0  0  0  0  0  0  0  0  0  0
  153.8201  135.0359  160.4802 H   0  0  0  0  0  0  0  0  0  0  0  0
  155.1997  135.6575  159.6146 H   0  0  0  0  0  0  0  0  0  0  0  0
  156.9136  136.4735  163.6608 H   0  0  0  0  0  0  0  0  0  0  0  0
  156.8369  138.1416  163.3668 H   0  0  0  0  0  0  0  0  0  0  0  0
  155.6055  137.0172  165.5475 H   0  0  0  0  0  0  0  0  0  0  0  0
  155.2302  138.5850  164.8495 H   0  0  0  0  0  0  0  0  0  0  0  0
  153.7227  136.0117  164.5198 H   0  0  0  0  0  0  0  0  0  0  0  0
  153.0843  137.6294  164.7006 H   0  0  0  0  0  0  0  0  0  0  0  0
  153.4816  138.1989  162.4944 H   0  0  0  0  0  0  0  0  0  0  0  0
  153.1053  136.5273  162.2516 H   0  0  0  0  0  0  0  0  0  0  0  0
  156.4695  135.3706  161.6857 H   0  0  0  0  0  0  0  0  0  0  0  0
  151.2341  145.1958  159.4591 H   0  0  0  0  0  0  0  0  0  0  0  0
  1  2  1  0  0  0  0
  1 24  1  0  0  0  0
  1 25  1  0  0  0  0
  1 26  1  0  0  0  0
  2  3  1  0  0  0  0
  2 13  1  0  0  0  0
  2 27  1  0  0  0  0
  3  4  1  0  0  0  0
  4  5  2  0  0  0  0
  4  6  1  0  0  0  0
  6  7  1  0  0  0  0
  6 28  1  0  0  0  0
  7 12  1  0  0  0  0
  7  8  2  0  0  0  0
  8  9  1  0  0  0  0
  8 29  1  0  0  0  0
  9 10  2  0  0  0  0
  9 30  1  0  0  0  0
 10 11  1  0  0  0  0
 10 50  1  0  0  0  0
 11 12  2  0  0  0  0
 11 31  1  0  0  0  0
 12 32  1  0  0  0  0
 13 23  1  0  0  0  0
 13 14  1  0  0  0  0
 13 20  1  0  0  0  0
 14 19  1  0  0  0  0
 14 15  1  0  0  0  0
 14 49  1  0  0  0  0
 15 16  1  0  0  0  0
 15 33  1  0  0  0  0
 15 34  1  0  0  0  0
 16 17  1  0  0  0  0
 16 35  1  0  0  0  0
 16 36  1  0  0  0  0
 17 18  1  0  0  0  0
 18 19  1  0  0  0  0
 18 37  1  0  0  0  0
 18 38  1  0  0  0  0
 19 39  1  0  0  0  0
 19 40  1  0  0  0  0
 20 21  1  0  0  0  0
 20 41  1  0  0  0  0
 20 42  1  0  0  0  0
 21 22  1  0  0  0  0
 21 43  1  0  0  0  0
 21 44  1  0  0  0  0
 22 23  1  0  0  0  0
 22 45  1  0  0  0  0
 22 46  1  0  0  0  0
 23 47  1  0  0  0  0
 23 48  1  0  0  0  0
M  CHG  1   3  -1
M  CHG  1  10   1
M  CHG  1  14   1
M  END
> <s_m_source_file>
AV-unprocessed.smi

> <i_m_source_file_index>
702

> <i_lp_mmshare_version>
43012

> <i_f3d_flags>
0

> <s_epik_input>
W0NIMl0xW0NIMl1PW0NIMl1bQ0gyXU4xQzIoW0NIMl1bQ0gyXVtDSDJdW0NIMl0yKVtDQEhdKFtDSDNdKVtOSF1DKD1PKVtOSF1jM1tjSF1bY0hdbltjSF1bY0hdMw==

> <s_epik_cmdline>
J2VwaWtfcHl0aG9uJywgJy1waCcsICc3LjAnLCAnLXRuJywgJzgnLCAnLW1hJywgJzIwMCcsICctbWV0YWxfYmluZGluZycsICctaW1hZScsICc8aW5maWxlLm1hZT4nLCAnLW9tYWUnLCAnPG91dGZpbGUubWFlPic=

> <r_epik_Ionization_Penalty>
8.33674

> <r_epik_Ionization_Penalty_Charging>
8.33674

> <r_epik_Ionization_Penalty_Neutral>
3.60854e-06

> <r_epik_State_Penalty>
8.24268

> <r_epik_Charging_Adjusted_Penalty>
16.5794

> <i_epik_Tot_Q>
1

> <i_epik_Tot_abs_Q>
3

> <r_epik_Metal_State_Penalty>
4.24853

> <b_epik_Metal_Only>
1

> <s_lp_Force_Field>
OPLS_2005

> <r_lp_Energy>
64.6776

> <b_lp_Chiralities_Consistent>
1

> <s_lp_Variant>
AV-unprocessed.smi:702-9

> <Gold.Version>
5.8.1

> <Gold.Id.Protein>
6NUR|6NUR_protein|mol2

> <Gold.PLP.Fitness>
43.1073

> <Gold.PLP.PLP>
-40.8965

> <Gold.PLP.part.hbond>
-1.0000

> <Gold.PLP.part.metal>
0.0000

> <Gold.PLP.part.buried>
-5.8414

> <Gold.PLP.part.nonpolar>
-33.6374

> <Gold.PLP.part.repulsive>
0.1169

> <Gold.PLP.ligand.clash>
0.0000

> <Gold.PLP.ligand.torsion>
0.5037

> <Gold.PLP.Chemscore.Hbond>
0.9920

> <Gold.PLP.Chemscore.CHOScore>
0.0000

> <Gold.PLP.Chemscore.Metal>
0.0000

> <Gold.Chemscore.Hbonds>
donor molecule, donor type, donor heavy atom, donor atom, acceptor molecule, acceptor atom, score
      P1  H  7997  8008       L1     5  0.99

> <Gold.PLP.Chemscore.Internal.Correction>
0.2422

> <Gold.Rescore>
     Score         DG    S(hbond)    S(metal)    S(lipo)     H(rot)  DE(clash)    DE(int)     intcor
     16.32     -18.19       0.97        0.00     112.77       1.45       0.00       1.87       ----

> <Gold.Chemscore.Fitness>
16.3189

> <Gold.Chemscore.DG>
-18.1872

> <Gold.Chemscore.ZeroCoef>
-5.4800

> <Gold.Chemscore.Hbond>
0.9659

> <Gold.Chemscore.Metal>
0.0000

> <Gold.Chemscore.Lipo>
112.7679

> <Gold.Chemscore.Internal_Hbond>
0.0000

> <Gold.Chemscore.DEClash>
0.0000

> <Gold.Chemscore.DEInternal>
1.8683

> <Gold.Chemscore.Rot>
1.4504

> <Gold.Chemscore.Internal.Correction>
   9.000000E+99

> <Gold.Chemscore.Hbonds>
donor molecule, donor type, donor heavy atom, donor atom, acceptor molecule, acceptor atom, score
      P1  H  7997  8008       L1     5  0.88

> <Gold.Chemscore.Hbond.Weighted>
-3.2262

> <Gold.Chemscore.Metal.Weighted>
-0.0000

> <Gold.Chemscore.Lipo.Weighted>
-13.1938

> <Gold.Chemscore.Internal_Hbond.Weighted>
0.0000

> <Gold.Chemscore.DEClash.Weighted>
0.0000

> <Gold.Chemscore.DEInternal.Weighted>
1.8683

> <Gold.Chemscore.Rot.Weighted>
3.7129

> <Gold.Chemscore.Internal.Correction.Weighted>
   9.000000E+99

> <Gold.Protein.RotatedTorsions>
[ 6907 6896 6895 6894 ] final  -73.44 input  -60.11 | X-H torsion
[ 7974 7965 7964 7962 ] final  -40.03 input  175.53 | X-H torsion
[ 8008 7997 7996 7995 ] final -124.72 input   59.86 | X-H torsion
[ 10167 10162 10161 10158 ] final -157.01 input  -65.29 | X-H torsion
[ 10718 10713 10712 10709 ] final   -5.17 input   66.30 | X-H torsion
[ 10763 10752 10751 10750 ] final -136.14 input  -60.55 | X-H torsion
[ 11005 11000 10999 10996 ] final  127.05 input  -57.11 | X-H torsion

> <Gold.Protein.ActiveResidues>
 VAL166  LYS551  ARG553  GLY616  TRP617  ASP618  TYR619  PRO620  LYS621  CYS622 
 ASP623  PHE694  ASN695  SER759  ASP760  ASP761  ALA762  ILE779  LEU786  VAL792 
 PHE793  MET794  SER795  GLU796  ALA797  LYS798  CYS799  TRP800  GLU811  SER814 

> <Gold.Protein.RotatedAtoms>
  150.7130  134.5016  159.5563 H   0  0  0  0  0  0  0  0  0  0  0  0  # atno 6907 bound_to 6896
  152.2612  134.8029  160.0439 H   0  0  0  0  0  0  0  0  0  0  0  0  # atno 6908 bound_to 6896
  151.8742  133.3446  159.3782 H   0  0  0  0  0  0  0  0  0  0  0  0  # atno 6909 bound_to 6896
  146.0342  140.6693  142.9118 H   0  0  0  0  0  0  0  0  0  0  0  0  # atno 7974 bound_to 7965
  155.2015  140.0416  157.2918 H   0  0  0  0  0  0  0  0  0  0  0  0  # atno 8008 bound_to 7997
  154.6072  140.2467  155.7688 H   0  0  0  0  0  0  0  0  0  0  0  0  # atno 8009 bound_to 7997
  156.2357  140.2922  156.0315 H   0  0  0  0  0  0  0  0  0  0  0  0  # atno 8010 bound_to 7997
  139.6804  143.9590  152.2334 H   0  0  0  0  0  0  0  0  0  0  0  0  # atno 10167 bound_to 10162
  156.7505  130.5238  149.5805 H   0  0  0  0  0  0  0  0  0  0  0  0  # atno 10718 bound_to 10713
  154.8690  135.3682  154.5012 H   0  0  0  0  0  0  0  0  0  0  0  0  # atno 10763 bound_to 10752
  153.5652  135.7022  153.5534 H   0  0  0  0  0  0  0  0  0  0  0  0  # atno 10764 bound_to 10752
  153.3591  135.4051  155.1668 H   0  0  0  0  0  0  0  0  0  0  0  0  # atno 10765 bound_to 10752
  139.9487  134.9625  156.8797 H   0  0  0  0  0  0  0  0  0  0  0  0  # atno 11005 bound_to 11000
  144.7044  140.3790  143.7130 LP  0  0  0  0  0  0  0  0  0  0  0  0  # atno 17320 bound_to 7965
  145.6991  139.1657  143.2603 LP  0  0  0  0  0  0  0  0  0  0  0  0  # atno 17321 bound_to 7965
  139.9379  144.6700  150.8296 LP  0  0  0  0  0  0  0  0  0  0  0  0  # atno 17342 bound_to 10162
  140.7650  143.3264  151.2506 LP  0  0  0  0  0  0  0  0  0  0  0  0  # atno 17343 bound_to 10162
  156.1404  130.6241  151.0459 LP  0  0  0  0  0  0  0  0  0  0  0  0  # atno 17370 bound_to 10713
  157.6779  131.0845  150.7447 LP  0  0  0  0  0  0  0  0  0  0  0  0  # atno 17371 bound_to 10713
  140.5771  134.0388  155.7451 LP  0  0  0  0  0  0  0  0  0  0  0  0  # atno 17394 bound_to 11000
  141.1145  133.9563  157.2849 LP  0  0  0  0  0  0  0  0  0  0  0  0  # atno 17395 bound_to 11000

$$$$
