AV-unprocessed.smi:1792|AV-procd|sdf|7222|dock6
  -GOLD-   22720 8463D 1   1.00000     0.00000
 Structure written by MMmdl.
 42 43  0  0  0  0  0  0  0  0  1 V2000
  147.9054  140.1034  153.5154 C   0  0  0  0  0  0  0  0  0  0  0  0
  147.9397  138.9118  154.5027 C   0  0  0  0  0  0  0  0  0  0  0  0
  147.8539  139.4989  155.9350 C   0  0  0  0  0  0  0  0  0  0  0  0
  146.6317  138.0966  154.2901 C   0  0  0  0  0  0  0  0  0  0  0  0
  146.7778  137.0951  153.2352 N   0  0  0  0  0  0  0  0  0  0  0  0
  145.8175  136.2698  152.7970 C   0  0  0  0  0  0  0  0  0  0  0  0
  144.6606  136.2836  153.2183 O   0  0  0  0  0  0  0  0  0  0  0  0
  146.2926  135.4380  151.8536 N   0  0  0  0  0  0  0  0  0  0  0  0
  145.6025  134.4078  151.1612 C   0  0  0  0  0  0  0  0  0  0  0  0
  146.4285  133.5102  150.4476 C   0  0  0  0  0  0  0  0  0  0  0  0
  145.8424  132.4491  149.7310 C   0  0  0  0  0  0  0  0  0  0  0  0
  144.4427  132.3138  149.7446 C   0  0  0  0  0  0  0  0  0  0  0  0
  143.6932  133.2518  150.4783 C   0  0  0  0  0  0  0  0  0  0  0  0
  144.2531  134.2689  151.1669 N   0  0  0  0  0  0  0  0  0  0  0  0
  149.1519  138.0589  154.3459 N   0  0  0  0  0  0  0  0  0  0  0  0
  149.1891  136.8728  155.2092 C   0  0  0  0  0  0  0  0  0  0  0  0
  150.4047  135.9779  154.9128 C   0  0  0  0  0  0  0  0  0  0  0  0
  151.6022  136.7337  155.0461 O   0  0  0  0  0  0  0  0  0  0  0  0
  151.6315  137.8597  154.1781 C   0  0  0  0  0  0  0  0  0  0  0  0
  150.4287  138.7715  154.4728 C   0  0  0  0  0  0  0  0  0  0  0  0
  147.0082  140.7060  153.6621 H   0  0  0  0  0  0  0  0  0  0  0  0
  147.8963  139.7768  152.4758 H   0  0  0  0  0  0  0  0  0  0  0  0
  148.7559  140.7720  153.6458 H   0  0  0  0  0  0  0  0  0  0  0  0
  146.8893  139.9750  156.1158 H   0  0  0  0  0  0  0  0  0  0  0  0
  148.6081  140.2650  156.1141 H   0  0  0  0  0  0  0  0  0  0  0  0
  147.9805  138.7270  156.6951 H   0  0  0  0  0  0  0  0  0  0  0  0
  146.3368  137.6261  155.2300 H   0  0  0  0  0  0  0  0  0  0  0  0
  145.7955  138.7460  154.0319 H   0  0  0  0  0  0  0  0  0  0  0  0
  147.6985  137.0074  152.8303 H   0  0  0  0  0  0  0  0  0  0  0  0
  147.2666  135.5449  151.6125 H   0  0  0  0  0  0  0  0  0  0  0  0
  147.5025  133.6286  150.4481 H   0  0  0  0  0  0  0  0  0  0  0  0
  146.4568  131.7516  149.1814 H   0  0  0  0  0  0  0  0  0  0  0  0
  143.9566  131.5135  149.2067 H   0  0  0  0  0  0  0  0  0  0  0  0
  142.6159  133.1844  150.5139 H   0  0  0  0  0  0  0  0  0  0  0  0
  149.2197  137.1698  156.2576 H   0  0  0  0  0  0  0  0  0  0  0  0
  148.2942  136.2673  155.0774 H   0  0  0  0  0  0  0  0  0  0  0  0
  150.4347  135.1385  155.6077 H   0  0  0  0  0  0  0  0  0  0  0  0
  150.3401  135.5591  153.9073 H   0  0  0  0  0  0  0  0  0  0  0  0
  152.5644  138.4025  154.3302 H   0  0  0  0  0  0  0  0  0  0  0  0
  151.6194  137.5284  153.1385 H   0  0  0  0  0  0  0  0  0  0  0  0
  150.4761  139.6129  153.7839 H   0  0  0  0  0  0  0  0  0  0  0  0
  150.5356  139.1788  155.4781 H   0  0  0  0  0  0  0  0  0  0  0  0
  1  2  1  0  0  0  0
  1 21  1  0  0  0  0
  1 22  1  0  0  0  0
  1 23  1  0  0  0  0
  2  3  1  0  0  0  0
  2  4  1  0  0  0  0
  2 15  1  0  0  0  0
  3 24  1  0  0  0  0
  3 25  1  0  0  0  0
  3 26  1  0  0  0  0
  4  5  1  0  0  0  0
  4 27  1  0  0  0  0
  4 28  1  0  0  0  0
  5  6  1  0  0  0  0
  5 29  1  0  0  0  0
  6  7  2  0  0  0  0
  6  8  1  0  0  0  0
  8  9  1  0  0  0  0
  8 30  1  0  0  0  0
  9 14  1  0  0  0  0
  9 10  2  0  0  0  0
 10 11  1  0  0  0  0
 10 31  1  0  0  0  0
 11 12  2  0  0  0  0
 11 32  1  0  0  0  0
 12 13  1  0  0  0  0
 12 33  1  0  0  0  0
 13 14  2  0  0  0  0
 13 34  1  0  0  0  0
 15 20  1  0  0  0  0
 15 16  1  0  0  0  0
 16 17  1  0  0  0  0
 16 35  1  0  0  0  0
 16 36  1  0  0  0  0
 17 18  1  0  0  0  0
 17 37  1  0  0  0  0
 17 38  1  0  0  0  0
 18 19  1  0  0  0  0
 19 20  1  0  0  0  0
 19 39  1  0  0  0  0
 19 40  1  0  0  0  0
 20 41  1  0  0  0  0
 20 42  1  0  0  0  0
M  END
> <s_m_source_file>
AV-unprocessed.smi

> <i_m_source_file_index>
1792

> <i_lp_mmshare_version>
43012

> <i_f3d_flags>
0

> <s_epik_input>
W0NIMl0xW0NIMl1PW0NIMl1bQ0gyXU4xQyhbQ0gzXSkoW0NIM10pW0NIMl1bTkhdQyg9TylbTkhdYzJbY0hdW2NIXVtjSF1bY0hdbjI=

> <s_epik_cmdline>
J2VwaWtfcHl0aG9uJywgJy1waCcsICc3LjAnLCAnLXRuJywgJzgnLCAnLW1hJywgJzIwMCcsICctbWV0YWxfYmluZGluZycsICctaW1hZScsICc8aW5maWxlLm1hZT4nLCAnLW9tYWUnLCAnPG91dGZpbGUubWFlPic=

> <r_epik_Ionization_Penalty>
0.26604

> <r_epik_Ionization_Penalty_Charging>
0

> <r_epik_Ionization_Penalty_Neutral>
0.26604

> <r_epik_State_Penalty>
0.257924

> <r_epik_Charging_Adjusted_Penalty>
0.257924

> <i_epik_Tot_Q>
0

> <i_epik_Tot_abs_Q>
0

> <r_epik_Metal_State_Penalty>
0.257923

> <b_epik_Metal_Only>
0

> <s_lp_Force_Field>
OPLS_2005

> <r_lp_Energy>
43.4175

> <b_lp_Chiralities_Consistent>
1

> <s_lp_Variant>
AV-unprocessed.smi:1792-1

> <Gold.Version>
5.8.1

> <Gold.Id.Protein>
6NUR|6NUR_protein|mol2

> <Gold.PLP.Fitness>
40.9660

> <Gold.PLP.PLP>
-29.8318

> <Gold.PLP.part.hbond>
-3.0000

> <Gold.PLP.part.metal>
0.0000

> <Gold.PLP.part.buried>
-3.7478

> <Gold.PLP.part.nonpolar>
-24.2059

> <Gold.PLP.part.repulsive>
0.5854

> <Gold.PLP.ligand.clash>
0.0000

> <Gold.PLP.ligand.torsion>
0.4507

> <Gold.PLP.Chemscore.Hbond>
3.0000

> <Gold.PLP.Chemscore.CHOScore>
0.9906

> <Gold.PLP.Chemscore.Metal>
0.0000

> <Gold.Chemscore.Hbonds>
donor molecule, donor type, donor heavy atom, donor atom, acceptor molecule, acceptor atom, score
      L1  H     5    29       P1  7948  1.00
      L1  H     8    30       P1  7948  1.00
      P1  H 10752 10764       L1    18  1.00
      L1  C    13    34       P1 10186  1.00

> <Gold.PLP.Chemscore.Internal.Correction>
0.0640

> <Gold.Rescore>
     Score         DG    S(hbond)    S(metal)    S(lipo)     H(rot)  DE(clash)    DE(int)     intcor
     14.99     -16.66       2.13        0.00      67.60       1.50       0.05       1.62       ----

> <Gold.Chemscore.Fitness>
14.9896

> <Gold.Chemscore.DG>
-16.6587

> <Gold.Chemscore.ZeroCoef>
-5.4800

> <Gold.Chemscore.Hbond>
2.1319

> <Gold.Chemscore.Metal>
0.0000

> <Gold.Chemscore.Lipo>
67.6044

> <Gold.Chemscore.Internal_Hbond>
0.0000

> <Gold.Chemscore.DEClash>
0.0525

> <Gold.Chemscore.DEInternal>
1.6166

> <Gold.Chemscore.Rot>
1.5045

> <Gold.Chemscore.Internal.Correction>
   9.000000E+99

> <Gold.Chemscore.Hbonds>
donor molecule, donor type, donor heavy atom, donor atom, acceptor molecule, acceptor atom, score
      L1  H     5    29       P1  7948  0.98
      L1  H     8    30       P1  7948  0.97
      P1  H 10752 10764       L1    18  0.22

> <Gold.Chemscore.Hbond.Weighted>
-7.1205

> <Gold.Chemscore.Metal.Weighted>
-0.0000

> <Gold.Chemscore.Lipo.Weighted>
-7.9097

> <Gold.Chemscore.Internal_Hbond.Weighted>
0.0000

> <Gold.Chemscore.DEClash.Weighted>
0.0525

> <Gold.Chemscore.DEInternal.Weighted>
1.6166

> <Gold.Chemscore.Rot.Weighted>
3.8515

> <Gold.Chemscore.Internal.Correction.Weighted>
   9.000000E+99

> <Gold.Protein.RotatedTorsions>
[ 6907 6896 6895 6894 ] final  -23.02 input  -60.11 | X-H torsion
[ 7974 7965 7964 7962 ] final  162.64 input  175.53 | X-H torsion
[ 8008 7997 7996 7995 ] final   75.91 input   59.86 | X-H torsion
[ 10167 10162 10161 10158 ] final -171.61 input  -65.29 | X-H torsion
[ 10718 10713 10712 10709 ] final -170.42 input   66.30 | X-H torsion
[ 10763 10752 10751 10750 ] final  -72.48 input  -60.55 | X-H torsion
[ 11005 11000 10999 10996 ] final  115.04 input  -57.11 | X-H torsion

> <Gold.Protein.ActiveResidues>
 VAL166  LYS551  ARG553  GLY616  TRP617  ASP618  TYR619  PRO620  LYS621  CYS622 
 ASP623  PHE694  ASN695  SER759  ASP760  ASP761  ALA762  ILE779  LEU786  VAL792 
 PHE793  MET794  SER795  GLU796  ALA797  LYS798  CYS799  TRP800  GLU811  SER814 

> <Gold.Protein.RotatedAtoms>
  151.2101  135.0478  159.8907 H   0  0  0  0  0  0  0  0  0  0  0  0  # atno 6907 bound_to 6896
  152.5425  134.0754  159.8222 H   0  0  0  0  0  0  0  0  0  0  0  0  # atno 6908 bound_to 6896
  151.0906  133.5271  159.2647 H   0  0  0  0  0  0  0  0  0  0  0  0  # atno 6909 bound_to 6896
  144.7627  139.8069  143.6327 H   0  0  0  0  0  0  0  0  0  0  0  0  # atno 7974 bound_to 7965
  155.8197  140.3470  155.5507 H   0  0  0  0  0  0  0  0  0  0  0  0  # atno 8008 bound_to 7997
  155.8355  140.0933  157.1787 H   0  0  0  0  0  0  0  0  0  0  0  0  # atno 8009 bound_to 7997
  154.4004  140.1404  156.3652 H   0  0  0  0  0  0  0  0  0  0  0  0  # atno 8010 bound_to 7997
  139.5792  144.1462  152.1492 H   0  0  0  0  0  0  0  0  0  0  0  0  # atno 10167 bound_to 10162
  156.7259  130.9288  151.3101 H   0  0  0  0  0  0  0  0  0  0  0  0  # atno 10718 bound_to 10713
  154.4463  135.5928  153.6162 H   0  0  0  0  0  0  0  0  0  0  0  0  # atno 10763 bound_to 10752
  152.9809  135.6010  154.3660 H   0  0  0  0  0  0  0  0  0  0  0  0  # atno 10764 bound_to 10752
  154.3516  135.2841  155.2347 H   0  0  0  0  0  0  0  0  0  0  0  0  # atno 10765 bound_to 10752
  139.8998  134.9577  156.6984 H   0  0  0  0  0  0  0  0  0  0  0  0  # atno 11005 bound_to 11000
  146.1705  139.4854  142.9930 LP  0  0  0  0  0  0  0  0  0  0  0  0  # atno 17320 bound_to 7965
  145.6568  141.0250  143.1730 LP  0  0  0  0  0  0  0  0  0  0  0  0  # atno 17321 bound_to 7965
  140.1011  144.5538  150.6988 LP  0  0  0  0  0  0  0  0  0  0  0  0  # atno 17342 bound_to 10162
  140.7072  143.2477  151.4690 LP  0  0  0  0  0  0  0  0  0  0  0  0  # atno 17343 bound_to 10162
  157.6879  130.9203  150.0434 LP  0  0  0  0  0  0  0  0  0  0  0  0  # atno 17370 bound_to 10713
  156.1562  130.3643  149.9365 LP  0  0  0  0  0  0  0  0  0  0  0  0  # atno 17371 bound_to 10713
  140.7170  133.9174  155.8121 LP  0  0  0  0  0  0  0  0  0  0  0  0  # atno 17394 bound_to 11000
  141.0257  134.0827  157.4071 LP  0  0  0  0  0  0  0  0  0  0  0  0  # atno 17395 bound_to 11000

$$$$
