AV-unprocessed.smi:1932|AV-procd|sdf|7814|dock8
  -GOLD-   22720 9553D 1   1.00000     0.00000
 Structure written by MMmdl.
 44 45  0  0  0  0  0  0  0  0  1 V2000
  153.9786  136.9138  164.6000 C   0  0  0  0  0  0  0  0  0  0  0  0
  154.6676  136.1923  163.4378 C   0  0  0  0  0  0  0  0  0  0  0  0
  155.5144  135.3397  163.7061 O   0  0  0  0  0  0  0  0  0  0  0  0
  154.3283  136.5100  162.1640 N   0  0  0  0  0  0  0  0  0  0  0  0
  154.9569  135.8178  161.0354 C   0  0  0  0  0  0  0  0  0  0  0  0
  153.3075  137.5110  161.8058 C   0  0  0  0  0  0  0  0  0  0  0  0
  153.1428  137.7634  160.2974 C   0  0  0  0  0  0  0  0  0  0  0  0
  152.8142  136.8279  159.5691 O   0  0  0  0  0  0  0  0  0  0  0  0
  153.3831  138.9990  159.8291 N   0  0  0  0  0  0  0  0  0  0  0  0
  153.3548  139.3893  158.4252 C   0  0  0  0  0  0  0  0  0  0  0  0
  152.4569  140.5960  158.1856 C   0  0  0  0  0  0  0  0  0  0  0  0
  152.5748  141.7261  159.0218 C   0  0  0  0  0  0  0  0  0  0  0  0
  151.7163  142.8219  158.8194 C   0  0  0  0  0  0  0  0  0  0  0  0
  150.7657  142.7419  157.7853 C   0  0  0  0  0  0  0  0  0  0  0  0
  150.6424  141.6698  156.9753 N   0  0  0  0  0  0  0  0  0  0  0  0
  151.4696  140.6132  157.1648 C   0  0  0  0  0  0  0  0  0  0  0  0
  151.3406  139.5230  156.2867 N   0  0  0  0  0  0  0  0  0  0  0  0
  150.8417  138.3194  156.9384 C   0  0  0  0  0  0  0  0  0  0  0  0
  150.5020  137.2556  155.8803 C   0  0  0  0  0  0  0  0  0  0  0  0
  151.6476  137.0038  155.0708 O   0  0  0  0  0  0  0  0  0  0  0  0
  152.0840  138.1728  154.3826 C   0  0  0  0  0  0  0  0  0  0  0  0
  152.4699  139.2576  155.4036 C   0  0  0  0  0  0  0  0  0  0  0  0
  152.9212  136.6528  164.6428 H   0  0  0  0  0  0  0  0  0  0  0  0
  154.0717  137.9955  164.5065 H   0  0  0  0  0  0  0  0  0  0  0  0
  154.4294  136.6247  165.5499 H   0  0  0  0  0  0  0  0  0  0  0  0
  156.0093  135.5979  161.2154 H   0  0  0  0  0  0  0  0  0  0  0  0
  154.9135  136.4194  160.1266 H   0  0  0  0  0  0  0  0  0  0  0  0
  154.4427  134.8764  160.8404 H   0  0  0  0  0  0  0  0  0  0  0  0
  152.3413  137.1864  162.1950 H   0  0  0  0  0  0  0  0  0  0  0  0
  153.4962  138.4634  162.3012 H   0  0  0  0  0  0  0  0  0  0  0  0
  153.6510  139.7122  160.4920 H   0  0  0  0  0  0  0  0  0  0  0  0
  154.3642  139.5880  158.0611 H   0  0  0  0  0  0  0  0  0  0  0  0
  152.9908  138.5449  157.8408 H   0  0  0  0  0  0  0  0  0  0  0  0
  153.3076  141.7520  159.8149 H   0  0  0  0  0  0  0  0  0  0  0  0
  151.7813  143.6996  159.4452 H   0  0  0  0  0  0  0  0  0  0  0  0
  150.0865  143.5614  157.6027 H   0  0  0  0  0  0  0  0  0  0  0  0
  151.6024  137.9382  157.6210 H   0  0  0  0  0  0  0  0  0  0  0  0
  149.9600  138.5463  157.5381 H   0  0  0  0  0  0  0  0  0  0  0  0
  150.1959  136.3278  156.3638 H   0  0  0  0  0  0  0  0  0  0  0  0
  149.6678  137.5812  155.2563 H   0  0  0  0  0  0  0  0  0  0  0  0
  152.9407  137.9211  153.7578 H   0  0  0  0  0  0  0  0  0  0  0  0
  151.2948  138.5257  153.7171 H   0  0  0  0  0  0  0  0  0  0  0  0
  152.7618  140.1742  154.8899 H   0  0  0  0  0  0  0  0  0  0  0  0
  153.3283  138.9237  155.9880 H   0  0  0  0  0  0  0  0  0  0  0  0
  1  2  1  0  0  0  0
  1 23  1  0  0  0  0
  1 24  1  0  0  0  0
  1 25  1  0  0  0  0
  2  3  2  0  0  0  0
  2  4  1  0  0  0  0
  4  5  1  0  0  0  0
  4  6  1  0  0  0  0
  5 26  1  0  0  0  0
  5 27  1  0  0  0  0
  5 28  1  0  0  0  0
  6  7  1  0  0  0  0
  6 29  1  0  0  0  0
  6 30  1  0  0  0  0
  7  8  2  0  0  0  0
  7  9  1  0  0  0  0
  9 10  1  0  0  0  0
  9 31  1  0  0  0  0
 10 11  1  0  0  0  0
 10 32  1  0  0  0  0
 10 33  1  0  0  0  0
 11 16  1  0  0  0  0
 11 12  2  0  0  0  0
 12 13  1  0  0  0  0
 12 34  1  0  0  0  0
 13 14  2  0  0  0  0
 13 35  1  0  0  0  0
 14 15  1  0  0  0  0
 14 36  1  0  0  0  0
 15 16  2  0  0  0  0
 16 17  1  0  0  0  0
 17 22  1  0  0  0  0
 17 18  1  0  0  0  0
 18 19  1  0  0  0  0
 18 37  1  0  0  0  0
 18 38  1  0  0  0  0
 19 20  1  0  0  0  0
 19 39  1  0  0  0  0
 19 40  1  0  0  0  0
 20 21  1  0  0  0  0
 21 22  1  0  0  0  0
 21 41  1  0  0  0  0
 21 42  1  0  0  0  0
 22 43  1  0  0  0  0
 22 44  1  0  0  0  0
M  END
> <s_m_source_file>
AV-unprocessed.smi

> <i_m_source_file_index>
1932

> <i_lp_mmshare_version>
43012

> <i_f3d_flags>
0

> <s_epik_input>
W0NIM11DKD1PKU4oW0NIM10pW0NIMl1DKD1PKVtOSF1bQ0gyXWMxW2NIXVtjSF1bY0hdbmMxTjJbQ0gyXVtDSDJdT1tDSDJdW0NIMl0y

> <s_epik_cmdline>
J2VwaWtfcHl0aG9uJywgJy1waCcsICc3LjAnLCAnLXRuJywgJzgnLCAnLW1hJywgJzIwMCcsICctbWV0YWxfYmluZGluZycsICctaW1hZScsICc8aW5maWxlLm1hZT4nLCAnLW9tYWUnLCAnPG91dGZpbGUubWFlPic=

> <r_lp_tautomer_probability>
1

> <r_epik_Ionization_Penalty>
0.00462916

> <r_epik_Ionization_Penalty_Charging>
0

> <r_epik_Ionization_Penalty_Neutral>
0.00462916

> <r_epik_State_Penalty>
0.00334737

> <r_epik_Charging_Adjusted_Penalty>
0.00334737

> <i_epik_Tot_Q>
0

> <i_epik_Tot_abs_Q>
0

> <r_epik_Metal_State_Penalty>
-0

> <b_epik_Metal_Only>
0

> <s_lp_Force_Field>
OPLS_2005

> <r_lp_Energy>
20.2877

> <b_lp_Chiralities_Consistent>
1

> <s_lp_Variant>
AV-unprocessed.smi:1932-1

> <Gold.Version>
5.8.1

> <Gold.Id.Protein>
6NUR|6NUR_protein|mol2

> <Gold.PLP.Fitness>
43.1555

> <Gold.PLP.PLP>
-34.5364

> <Gold.PLP.part.hbond>
-2.0000

> <Gold.PLP.part.metal>
0.0000

> <Gold.PLP.part.buried>
-2.9163

> <Gold.PLP.part.nonpolar>
-29.2036

> <Gold.PLP.part.repulsive>
0.2859

> <Gold.PLP.ligand.clash>
0.0000

> <Gold.PLP.ligand.torsion>
0.2525

> <Gold.PLP.Chemscore.Hbond>
2.0000

> <Gold.PLP.Chemscore.CHOScore>
0.9761

> <Gold.PLP.Chemscore.Metal>
0.0000

> <Gold.Chemscore.Hbonds>
donor molecule, donor type, donor heavy atom, donor atom, acceptor molecule, acceptor atom, score
      P1  H  6896  6908       L1     8  1.00
      P1  H 10752 10763       L1    20  1.00
      L1  C    14    36       P1  8028  0.97

> <Gold.PLP.Chemscore.Internal.Correction>
0.1957

> <Gold.Rescore>
     Score         DG    S(hbond)    S(metal)    S(lipo)     H(rot)  DE(clash)    DE(int)     intcor
     15.27     -16.17       1.89        0.00      81.18       2.00       0.33       0.58       ----

> <Gold.Chemscore.Fitness>
15.2669

> <Gold.Chemscore.DG>
-16.1709

> <Gold.Chemscore.ZeroCoef>
-5.4800

> <Gold.Chemscore.Hbond>
1.8866

> <Gold.Chemscore.Metal>
0.0000

> <Gold.Chemscore.Lipo>
81.1813

> <Gold.Chemscore.Internal_Hbond>
0.0000

> <Gold.Chemscore.DEClash>
0.3255

> <Gold.Chemscore.DEInternal>
0.5785

> <Gold.Chemscore.Rot>
1.9956

> <Gold.Chemscore.Internal.Correction>
   9.000000E+99

> <Gold.Chemscore.Hbonds>
donor molecule, donor type, donor heavy atom, donor atom, acceptor molecule, acceptor atom, score
      P1  H  6896  6908       L1     8  0.91
      P1  H 10752 10763       L1    20  0.38

> <Gold.Chemscore.Hbond.Weighted>
-6.3013

> <Gold.Chemscore.Metal.Weighted>
-0.0000

> <Gold.Chemscore.Lipo.Weighted>
-9.4982

> <Gold.Chemscore.Internal_Hbond.Weighted>
0.0000

> <Gold.Chemscore.DEClash.Weighted>
0.3255

> <Gold.Chemscore.DEInternal.Weighted>
0.5785

> <Gold.Chemscore.Rot.Weighted>
5.1087

> <Gold.Chemscore.Internal.Correction.Weighted>
   9.000000E+99

> <Gold.Protein.RotatedTorsions>
[ 6907 6896 6895 6894 ] final -109.13 input  -60.11 | X-H torsion
[ 7974 7965 7964 7962 ] final  -78.21 input  175.53 | X-H torsion
[ 8008 7997 7996 7995 ] final  144.28 input   59.86 | X-H torsion
[ 10167 10162 10161 10158 ] final -139.37 input  -65.29 | X-H torsion
[ 10718 10713 10712 10709 ] final   -8.02 input   66.30 | X-H torsion
[ 10763 10752 10751 10750 ] final   51.09 input  -60.55 | X-H torsion
[ 11005 11000 10999 10996 ] final  -92.20 input  -57.11 | X-H torsion

> <Gold.Protein.ActiveResidues>
 VAL166  LYS551  ARG553  GLY616  TRP617  ASP618  TYR619  PRO620  LYS621  CYS622 
 ASP623  PHE694  ASN695  SER759  ASP760  ASP761  ALA762  ILE779  LEU786  VAL792 
 PHE793  MET794  SER795  GLU796  ALA797  LYS798  CYS799  TRP800  GLU811  SER814 

> <Gold.Protein.RotatedAtoms>
  150.7543  133.9575  159.3504 H   0  0  0  0  0  0  0  0  0  0  0  0  # atno 6907 bound_to 6896
  151.7498  135.0833  160.0338 H   0  0  0  0  0  0  0  0  0  0  0  0  # atno 6908 bound_to 6896
  152.3474  133.6101  159.5956 H   0  0  0  0  0  0  0  0  0  0  0  0  # atno 6909 bound_to 6896
  145.5895  140.9432  143.1300 H   0  0  0  0  0  0  0  0  0  0  0  0  # atno 7974 bound_to 7965
  156.2911  140.2240  156.5027 H   0  0  0  0  0  0  0  0  0  0  0  0  # atno 8008 bound_to 7997
  154.7675  140.0469  157.1046 H   0  0  0  0  0  0  0  0  0  0  0  0  # atno 8009 bound_to 7997
  154.9914  140.3090  155.4908 H   0  0  0  0  0  0  0  0  0  0  0  0  # atno 8010 bound_to 7997
  139.8386  143.7352  152.2664 H   0  0  0  0  0  0  0  0  0  0  0  0  # atno 10167 bound_to 10162
  156.7087  130.5115  149.5898 H   0  0  0  0  0  0  0  0  0  0  0  0  # atno 10718 bound_to 10713
  152.9785  135.5857  154.4359 H   0  0  0  0  0  0  0  0  0  0  0  0  # atno 10763 bound_to 10752
  154.3966  135.2768  155.2124 H   0  0  0  0  0  0  0  0  0  0  0  0  # atno 10764 bound_to 10752
  154.3973  135.6111  153.5931 H   0  0  0  0  0  0  0  0  0  0  0  0  # atno 10765 bound_to 10752
  141.1527  133.7805  156.9986 H   0  0  0  0  0  0  0  0  0  0  0  0  # atno 11005 bound_to 11000
  144.7358  139.7591  143.7330 LP  0  0  0  0  0  0  0  0  0  0  0  0  # atno 17320 bound_to 7965
  146.1657  139.4788  142.9959 LP  0  0  0  0  0  0  0  0  0  0  0  0  # atno 17321 bound_to 7965
  139.7582  144.7514  151.0404 LP  0  0  0  0  0  0  0  0  0  0  0  0  # atno 17342 bound_to 10162
  140.7800  143.4781  151.0054 LP  0  0  0  0  0  0  0  0  0  0  0  0  # atno 17343 bound_to 10162
  156.1676  130.6416  151.0798 LP  0  0  0  0  0  0  0  0  0  0  0  0  # atno 17370 bound_to 10713
  157.6944  131.0799  150.7011 LP  0  0  0  0  0  0  0  0  0  0  0  0  # atno 17371 bound_to 10713
  140.0955  134.9567  157.1842 LP  0  0  0  0  0  0  0  0  0  0  0  0  # atno 17394 bound_to 11000
  140.3388  134.2727  155.7215 LP  0  0  0  0  0  0  0  0  0  0  0  0  # atno 17395 bound_to 11000

$$$$
