AV-unprocessed.smi:1412|AV-procd|sdf|5746|dock8
  -GOLD-   22720 5383D 1   1.00000     0.00000
 Structure written by MMmdl.
 41 42  0  0  0  0  0  0  0  0  3 V2000
  149.9871  132.5972  154.3287 C   0  0  0  0  0  0  0  0  0  0  0  0
  149.0842  133.3818  153.3606 C   0  0  0  0  0  0  0  0  0  0  0  0
  147.6888  133.8092  153.9094 C   0  0  1  0  0  0  0  0  0  0  0  0
  146.9639  132.5664  154.4925 C   0  0  0  0  0  0  0  0  0  0  0  0
  147.8547  134.8274  155.0780 C   0  0  0  0  0  0  0  0  0  0  0  0
  148.2859  136.1452  154.6074 N   0  0  0  0  0  0  0  0  0  0  0  0
  148.3836  137.2654  155.3373 C   0  0  0  0  0  0  0  0  0  0  0  0
  147.9826  137.2831  156.5025 O   0  0  0  0  0  0  0  0  0  0  0  0
  148.9722  138.2883  154.6803 N   0  5  0  0  0  0  0  0  0  0  0  0
  148.5065  139.5382  154.8375 C   0  0  0  0  0  0  0  0  0  0  0  0
  149.2861  140.6190  154.6705 N   0  0  0  0  0  0  0  0  0  0  0  0
  148.6134  141.8144  154.8824 N   0  0  0  0  0  0  0  0  0  0  0  0
  147.3354  141.6036  155.1967 C   0  0  0  0  0  0  0  0  0  0  0  0
  146.8379  139.9258  155.2626 S   0  0  0  0  0  0  0  0  0  0  0  0
  146.8570  134.4465  152.8223 N   0  3  0  0  0  0  0  0  0  0  0  0
  146.4196  133.5348  151.7292 C   0  0  0  0  0  0  0  0  0  0  0  0
  145.8547  134.3517  150.5586 C   0  0  0  0  0  0  0  0  0  0  0  0
  144.7424  135.1069  151.0200 O   0  0  0  0  0  0  0  0  0  0  0  0
  145.1156  136.0311  152.0338 C   0  0  0  0  0  0  0  0  0  0  0  0
  145.7033  135.2869  153.2474 C   0  0  0  0  0  0  0  0  0  0  0  0
  150.9471  132.3816  153.8592 H   0  0  0  0  0  0  0  0  0  0  0  0
  149.5492  131.6403  154.6111 H   0  0  0  0  0  0  0  0  0  0  0  0
  150.1942  133.1593  155.2388 H   0  0  0  0  0  0  0  0  0  0  0  0
  149.6466  134.2622  153.0493 H   0  0  0  0  0  0  0  0  0  0  0  0
  148.9518  132.7788  152.4619 H   0  0  0  0  0  0  0  0  0  0  0  0
  147.4358  132.2175  155.4112 H   0  0  0  0  0  0  0  0  0  0  0  0
  146.9739  131.7248  153.7990 H   0  0  0  0  0  0  0  0  0  0  0  0
  145.9243  132.7832  154.7412 H   0  0  0  0  0  0  0  0  0  0  0  0
  146.9051  134.9737  155.5924 H   0  0  0  0  0  0  0  0  0  0  0  0
  148.5321  134.4472  155.8430 H   0  0  0  0  0  0  0  0  0  0  0  0
  148.6093  136.1964  153.6520 H   0  0  0  0  0  0  0  0  0  0  0  0
  146.6817  142.4409  155.3897 H   0  0  0  0  0  0  0  0  0  0  0  0
  147.2407  132.9170  151.3715 H   0  0  0  0  0  0  0  0  0  0  0  0
  145.6478  132.8545  152.0911 H   0  0  0  0  0  0  0  0  0  0  0  0
  146.6152  135.0090  150.1329 H   0  0  0  0  0  0  0  0  0  0  0  0
  145.5231  133.6868  149.7611 H   0  0  0  0  0  0  0  0  0  0  0  0
  145.8352  136.7486  151.6357 H   0  0  0  0  0  0  0  0  0  0  0  0
  144.2347  136.5993  152.3330 H   0  0  0  0  0  0  0  0  0  0  0  0
  144.9409  134.6638  153.7162 H   0  0  0  0  0  0  0  0  0  0  0  0
  145.9937  136.0441  153.9733 H   0  0  0  0  0  0  0  0  0  0  0  0
  147.4953  135.0969  152.3844 H   0  0  0  0  0  0  0  0  0  0  0  0
  1  2  1  0  0  0  0
  1 21  1  0  0  0  0
  1 22  1  0  0  0  0
  1 23  1  0  0  0  0
  2  3  1  0  0  0  0
  2 24  1  0  0  0  0
  2 25  1  0  0  0  0
  3  4  1  0  0  0  0
  3  5  1  0  0  0  0
  3 15  1  0  0  0  0
  4 26  1  0  0  0  0
  4 27  1  0  0  0  0
  4 28  1  0  0  0  0
  5  6  1  0  0  0  0
  5 29  1  0  0  0  0
  5 30  1  0  0  0  0
  6  7  1  0  0  0  0
  6 31  1  0  0  0  0
  7  8  2  0  0  0  0
  7  9  1  0  0  0  0
  9 10  1  0  0  0  0
 10 14  1  0  0  0  0
 10 11  2  0  0  0  0
 11 12  1  0  0  0  0
 12 13  2  0  0  0  0
 13 14  1  0  0  0  0
 13 32  1  0  0  0  0
 15 20  1  0  0  0  0
 15 16  1  0  0  0  0
 15 41  1  0  0  0  0
 16 17  1  0  0  0  0
 16 33  1  0  0  0  0
 16 34  1  0  0  0  0
 17 18  1  0  0  0  0
 17 35  1  0  0  0  0
 17 36  1  0  0  0  0
 18 19  1  0  0  0  0
 19 20  1  0  0  0  0
 19 37  1  0  0  0  0
 19 38  1  0  0  0  0
 20 39  1  0  0  0  0
 20 40  1  0  0  0  0
M  CHG  1   9  -1
M  CHG  1  15   1
M  END
> <s_m_source_file>
AV-unprocessed.smi

> <i_m_source_file_index>
1412

> <i_lp_mmshare_version>
43012

> <i_f3d_flags>
0

> <s_epik_input>
W0NIMl0xW0NIMl1PW0NIMl1bQ0gyXU4xW0NAQF0oW0NIM10pKFtDSDJdW0NIM10pW0NIMl1bTkhdQyg9TylbTkhdYzJubltjSF1zMg==

> <s_epik_cmdline>
J2VwaWtfcHl0aG9uJywgJy1waCcsICc3LjAnLCAnLXRuJywgJzgnLCAnLW1hJywgJzIwMCcsICctbWV0YWxfYmluZGluZycsICctaW1hZScsICc8aW5maWxlLm1hZT4nLCAnLW9tYWUnLCAnPG91dGZpbGUubWFlPic=

> <r_lp_tautomer_probability>
1

> <r_epik_Ionization_Penalty>
4.35651

> <r_epik_Ionization_Penalty_Charging>
4.3235

> <r_epik_Ionization_Penalty_Neutral>
0.0330098

> <r_epik_State_Penalty>
4.4846

> <r_epik_Charging_Adjusted_Penalty>
8.8081

> <i_epik_Tot_Q>
0

> <i_epik_Tot_abs_Q>
2

> <r_epik_Metal_State_Penalty>
1.11611

> <b_epik_Metal_Only>
1

> <s_lp_Force_Field>
OPLS_2005

> <r_lp_Energy>
23.2339

> <b_lp_Chiralities_Consistent>
1

> <s_lp_Variant>
AV-unprocessed.smi:1412-7

> <Gold.Version>
5.8.1

> <Gold.Id.Protein>
6NUR|6NUR_protein|mol2

> <Gold.PLP.Fitness>
39.2203

> <Gold.PLP.PLP>
-25.6865

> <Gold.PLP.part.hbond>
-5.0000

> <Gold.PLP.part.metal>
0.0000

> <Gold.PLP.part.buried>
-2.1237

> <Gold.PLP.part.nonpolar>
-18.4318

> <Gold.PLP.part.repulsive>
1.5315

> <Gold.PLP.ligand.clash>
0.0000

> <Gold.PLP.ligand.torsion>
0.9208

> <Gold.PLP.Chemscore.Hbond>
4.2365

> <Gold.PLP.Chemscore.CHOScore>
0.8305

> <Gold.PLP.Chemscore.Metal>
0.0000

> <Gold.Chemscore.Hbonds>
donor molecule, donor type, donor heavy atom, donor atom, acceptor molecule, acceptor atom, score
      L1  H     6    31       P1  7948  1.00
      L1  H    15    41       P1  7948  2.00

> <Gold.PLP.Chemscore.Internal.Correction>
0.1747

> <Gold.Rescore>
     Score         DG    S(hbond)    S(metal)    S(lipo)     H(rot)  DE(clash)    DE(int)     intcor
     13.05     -14.72       2.42        0.00      50.82       1.88       0.94       0.72       ----

> <Gold.Chemscore.Fitness>
13.0533

> <Gold.Chemscore.DG>
-14.7162

> <Gold.Chemscore.ZeroCoef>
-5.4800

> <Gold.Chemscore.Hbond>
2.4244

> <Gold.Chemscore.Metal>
0.0000

> <Gold.Chemscore.Lipo>
50.8216

> <Gold.Chemscore.Internal_Hbond>
0.0000

> <Gold.Chemscore.DEClash>
0.9417

> <Gold.Chemscore.DEInternal>
0.7213

> <Gold.Chemscore.Rot>
1.8779

> <Gold.Chemscore.Internal.Correction>
   9.000000E+99

> <Gold.Chemscore.Hbonds>
donor molecule, donor type, donor heavy atom, donor atom, acceptor molecule, acceptor atom, score
      L1  H     6    31       P1  7948  1.00
      L1  H    15    41       P1  7948  0.99

> <Gold.Chemscore.Hbond.Weighted>
-8.0975

> <Gold.Chemscore.Metal.Weighted>
-0.0000

> <Gold.Chemscore.Lipo.Weighted>
-5.9461

> <Gold.Chemscore.Internal_Hbond.Weighted>
0.0000

> <Gold.Chemscore.DEClash.Weighted>
0.9417

> <Gold.Chemscore.DEInternal.Weighted>
0.7213

> <Gold.Chemscore.Rot.Weighted>
4.8074

> <Gold.Chemscore.Internal.Correction.Weighted>
   9.000000E+99

> <Gold.Protein.RotatedTorsions>
[ 6907 6896 6895 6894 ] final  144.63 input  -60.11 | X-H torsion
[ 7974 7965 7964 7962 ] final  -71.94 input  175.53 | X-H torsion
[ 8008 7997 7996 7995 ] final -100.64 input   59.86 | X-H torsion
[ 10167 10162 10161 10158 ] final  -26.85 input  -65.29 | X-H torsion
[ 10718 10713 10712 10709 ] final  166.36 input   66.30 | X-H torsion
[ 10763 10752 10751 10750 ] final   97.10 input  -60.55 | X-H torsion
[ 11005 11000 10999 10996 ] final -132.89 input  -57.11 | X-H torsion

> <Gold.Protein.ActiveResidues>
 VAL166  LYS551  ARG553  GLY616  TRP617  ASP618  TYR619  PRO620  LYS621  CYS622 
 ASP623  PHE694  ASN695  SER759  ASP760  ASP761  ALA762  ILE779  LEU786  VAL792 
 PHE793  MET794  SER795  GLU796  ALA797  LYS798  CYS799  TRP800  GLU811  SER814 

> <Gold.Protein.RotatedAtoms>
  152.1913  133.4775  159.5008 H   0  0  0  0  0  0  0  0  0  0  0  0  # atno 6907 bound_to 6896
  150.6951  134.1709  159.4221 H   0  0  0  0  0  0  0  0  0  0  0  0  # atno 6908 bound_to 6896
  151.9624  135.0117  160.0599 H   0  0  0  0  0  0  0  0  0  0  0  0  # atno 6909 bound_to 6896
  145.6716  140.9219  143.0880 H   0  0  0  0  0  0  0  0  0  0  0  0  # atno 7974 bound_to 7965
  154.8314  140.0439  157.1479 H   0  0  0  0  0  0  0  0  0  0  0  0  # atno 8008 bound_to 7997
  154.9148  140.3018  155.5227 H   0  0  0  0  0  0  0  0  0  0  0  0  # atno 8009 bound_to 7997
  156.2987  140.2351  156.4191 H   0  0  0  0  0  0  0  0  0  0  0  0  # atno 8010 bound_to 7997
  140.7280  143.4143  151.1054 H   0  0  0  0  0  0  0  0  0  0  0  0  # atno 10167 bound_to 10162
  157.0670  131.0356  151.2626 H   0  0  0  0  0  0  0  0  0  0  0  0  # atno 10718 bound_to 10713
  153.2728  135.4195  155.1004 H   0  0  0  0  0  0  0  0  0  0  0  0  # atno 10763 bound_to 10752
  154.8462  135.3476  154.6220 H   0  0  0  0  0  0  0  0  0  0  0  0  # atno 10764 bound_to 10752
  153.6640  135.7047  153.5225 H   0  0  0  0  0  0  0  0  0  0  0  0  # atno 10765 bound_to 10752
  140.9130  134.1543  157.4374 H   0  0  0  0  0  0  0  0  0  0  0  0  # atno 11005 bound_to 11000
  144.7055  139.8580  143.7431 LP  0  0  0  0  0  0  0  0  0  0  0  0  # atno 17320 bound_to 7965
  146.1040  139.4038  143.0329 LP  0  0  0  0  0  0  0  0  0  0  0  0  # atno 17321 bound_to 7965
  139.7780  143.8396  152.3133 LP  0  0  0  0  0  0  0  0  0  0  0  0  # atno 17342 bound_to 10162
  139.8338  144.7242  150.9417 LP  0  0  0  0  0  0  0  0  0  0  0  0  # atno 17343 bound_to 10162
  157.4909  130.7821  149.7506 LP  0  0  0  0  0  0  0  0  0  0  0  0  # atno 17370 bound_to 10713
  155.9961  130.3907  150.2791 LP  0  0  0  0  0  0  0  0  0  0  0  0  # atno 17371 bound_to 10713
  139.8761  134.9943  156.5686 LP  0  0  0  0  0  0  0  0  0  0  0  0  # atno 17394 bound_to 11000
  140.8086  133.8448  155.8789 LP  0  0  0  0  0  0  0  0  0  0  0  0  # atno 17395 bound_to 11000

$$$$
