AV-unprocessed.smi:1047|AV-procd|sdf|4599|dock6
  -GOLD-   22720 3 93D 1   1.00000     0.00000
 Structure written by MMmdl.
 57 59  0  0  0  0  0  0  0  0  3 V2000
  146.3589  131.7559  152.0646 C   0  0  0  0  0  0  0  0  0  0  0  0
  146.6873  132.9336  152.9931 C   0  0  0  0  0  0  0  0  0  0  0  0
  148.1096  132.9489  153.4182 N   0  3  2  0  0  0  0  0  0  0  0  0
  148.5002  131.7739  154.2354 C   0  0  0  0  0  0  0  0  0  0  0  0
  149.9878  131.8559  154.6155 C   0  0  0  0  0  0  0  0  0  0  0  0
  150.2409  133.0787  155.2958 O   0  0  0  0  0  0  0  0  0  0  0  0
  149.9694  134.2156  154.4822 C   0  0  2  0  0  0  0  0  0  0  0  0
  150.3467  135.4753  155.2758 C   0  0  0  0  0  0  0  0  0  0  0  0
  149.9877  136.6890  154.5492 N   0  0  0  0  0  0  0  0  0  0  0  0
  150.9048  137.7976  154.7987 C   0  0  0  0  0  0  0  0  0  0  0  0
  151.0655  138.0772  156.3025 C   0  0  2  0  0  0  0  0  0  0  0  0
  149.8097  138.4983  156.7944 O   0  0  0  0  0  0  0  0  0  0  0  0
  152.1236  139.1617  156.5954 C   0  0  0  0  0  0  0  0  0  0  0  0
  151.5640  140.5218  156.6152 N   0  0  0  0  0  0  0  0  0  0  0  0
  150.7650  141.1444  155.7065 C   0  0  0  0  0  0  0  0  0  0  0  0
  150.5024  142.3946  156.1782 N   0  3  0  0  0  0  0  0  0  0  0  0
  151.1425  142.5738  157.4062 C   0  0  0  0  0  0  0  0  0  0  0  0
  151.1718  143.6657  158.2658 C   0  0  0  0  0  0  0  0  0  0  0  0
  151.9284  143.5330  159.4519 C   0  0  0  0  0  0  0  0  0  0  0  0
  151.9802  144.7075  160.4144 C   0  0  0  0  0  0  0  0  0  0  0  0
  152.6264  142.3320  159.7415 C   0  0  0  0  0  0  0  0  0  0  0  0
  153.4412  142.2018  161.0173 C   0  0  0  0  0  0  0  0  0  0  0  0
  152.5823  141.2322  158.8550 C   0  0  0  0  0  0  0  0  0  0  0  0
  151.8291  141.3775  157.6920 C   0  0  0  0  0  0  0  0  0  0  0  0
  148.4722  134.2054  154.1165 C   0  0  0  0  0  0  0  0  0  0  0  0
  145.3357  131.8348  151.6958 H   0  0  0  0  0  0  0  0  0  0  0  0
  146.4426  130.7970  152.5754 H   0  0  0  0  0  0  0  0  0  0  0  0
  147.0209  131.7377  151.1986 H   0  0  0  0  0  0  0  0  0  0  0  0
  146.4695  133.8556  152.4523 H   0  0  0  0  0  0  0  0  0  0  0  0
  146.0354  132.9264  153.8676 H   0  0  0  0  0  0  0  0  0  0  0  0
  147.8875  131.7336  155.1376 H   0  0  0  0  0  0  0  0  0  0  0  0
  148.3228  130.8498  153.6864 H   0  0  0  0  0  0  0  0  0  0  0  0
  150.2540  131.0261  155.2704 H   0  0  0  0  0  0  0  0  0  0  0  0
  150.6216  131.7788  153.7306 H   0  0  0  0  0  0  0  0  0  0  0  0
  150.5644  134.1702  153.5675 H   0  0  0  0  0  0  0  0  0  0  0  0
  149.8240  135.4663  156.2332 H   0  0  0  0  0  0  0  0  0  0  0  0
  151.4132  135.4656  155.5043 H   0  0  0  0  0  0  0  0  0  0  0  0
  149.9562  136.4921  153.5537 H   0  0  0  0  0  0  0  0  0  0  0  0
  151.8793  137.5887  154.3552 H   0  0  0  0  0  0  0  0  0  0  0  0
  150.5260  138.6943  154.3057 H   0  0  0  0  0  0  0  0  0  0  0  0
  151.3291  137.1548  156.8220 H   0  0  0  0  0  0  0  0  0  0  0  0
  149.9354  138.8758  157.6516 H   0  0  0  0  0  0  0  0  0  0  0  0
  152.5728  138.9896  157.5743 H   0  0  0  0  0  0  0  0  0  0  0  0
  152.9423  139.1180  155.8772 H   0  0  0  0  0  0  0  0  0  0  0  0
  150.4020  140.7222  154.7805 H   0  0  0  0  0  0  0  0  0  0  0  0
  150.6394  144.5777  158.0379 H   0  0  0  0  0  0  0  0  0  0  0  0
  151.5728  144.4249  161.3854 H   0  0  0  0  0  0  0  0  0  0  0  0
  151.4006  145.5534  160.0437 H   0  0  0  0  0  0  0  0  0  0  0  0
  153.0077  145.0442  160.5541 H   0  0  0  0  0  0  0  0  0  0  0  0
  153.9130  141.2215  161.0921 H   0  0  0  0  0  0  0  0  0  0  0  0
  152.8047  142.3321  161.8926 H   0  0  0  0  0  0  0  0  0  0  0  0
  154.2301  142.9534  161.0467 H   0  0  0  0  0  0  0  0  0  0  0  0
  153.1181  140.3209  159.0760 H   0  0  0  0  0  0  0  0  0  0  0  0
  148.2470  135.0581  153.4743 H   0  0  0  0  0  0  0  0  0  0  0  0
  147.8624  134.3116  155.0155 H   0  0  0  0  0  0  0  0  0  0  0  0
  148.6654  132.9224  152.5752 H   0  0  0  0  0  0  0  0  0  0  0  0
  149.9265  143.0730  155.6960 H   0  0  0  0  0  0  0  0  0  0  0  0
  1  2  1  0  0  0  0
  1 26  1  0  0  0  0
  1 27  1  0  0  0  0
  1 28  1  0  0  0  0
  2  3  1  0  0  0  0
  2 29  1  0  0  0  0
  2 30  1  0  0  0  0
  3 25  1  0  0  0  0
  3  4  1  0  0  0  0
  3 56  1  0  0  0  0
  4  5  1  0  0  0  0
  4 31  1  0  0  0  0
  4 32  1  0  0  0  0
  5  6  1  0  0  0  0
  5 33  1  0  0  0  0
  5 34  1  0  0  0  0
  6  7  1  0  0  0  0
  7  8  1  0  0  0  0
  7 25  1  0  0  0  0
  7 35  1  0  0  0  0
  8  9  1  0  0  0  0
  8 36  1  0  0  0  0
  8 37  1  0  0  0  0
  9 10  1  0  0  0  0
  9 38  1  0  0  0  0
 10 11  1  0  0  0  0
 10 39  1  0  0  0  0
 10 40  1  0  0  0  0
 11 12  1  0  0  0  0
 11 13  1  0  0  0  0
 11 41  1  0  0  0  0
 12 42  1  0  0  0  0
 13 14  1  0  0  0  0
 13 43  1  0  0  0  0
 13 44  1  0  0  0  0
 14 24  1  0  0  0  0
 14 15  1  0  0  0  0
 15 16  2  0  0  0  0
 15 45  1  0  0  0  0
 16 17  1  0  0  0  0
 16 57  1  0  0  0  0
 17 24  2  0  0  0  0
 17 18  1  0  0  0  0
 18 19  2  0  0  0  0
 18 46  1  0  0  0  0
 19 20  1  0  0  0  0
 19 21  1  0  0  0  0
 20 47  1  0  0  0  0
 20 48  1  0  0  0  0
 20 49  1  0  0  0  0
 21 22  1  0  0  0  0
 21 23  2  0  0  0  0
 22 50  1  0  0  0  0
 22 51  1  0  0  0  0
 22 52  1  0  0  0  0
 23 24  1  0  0  0  0
 23 53  1  0  0  0  0
 25 54  1  0  0  0  0
 25 55  1  0  0  0  0
M  CHG  1   3   1
M  CHG  1  16   1
M  END
> <s_m_source_file>
AV-unprocessed.smi

> <i_m_source_file_index>
1047

> <i_lp_mmshare_version>
43012

> <i_f3d_flags>
0

> <s_epik_input>
W0NIM11bQ0gyXU4xW0NIMl1bQ0gyXU9bQ0BIXShbQ0gyXTEpW0NIMl1bTkhdW0NIMl1bQ0BIXShbT0hdKVtDSDJdbihbY0hdbjIpYyhjMjMpW2NIXWMoW0NIM10pYyhbY0hdMylbQ0gzXQ==

> <s_epik_cmdline>
J2VwaWtfcHl0aG9uJywgJy1waCcsICc3LjAnLCAnLXRuJywgJzgnLCAnLW1hJywgJzIwMCcsICctbWV0YWxfYmluZGluZycsICctaW1hZScsICc8aW5maWxlLm1hZT4nLCAnLW9tYWUnLCAnPG91dGZpbGUubWFlPic=

> <r_epik_Ionization_Penalty>
2.03028

> <r_epik_Ionization_Penalty_Charging>
1.21256

> <r_epik_Ionization_Penalty_Neutral>
0.817715

> <r_epik_State_Penalty>
2.54959

> <r_epik_Charging_Adjusted_Penalty>
3.76215

> <i_epik_Tot_Q>
2

> <i_epik_Tot_abs_Q>
2

> <r_epik_Metal_State_Penalty>
6.52811

> <b_epik_Metal_Only>
0

> <s_lp_Force_Field>
OPLS_2005

> <r_lp_Energy>
31.8247

> <b_lp_Chiralities_Consistent>
1

> <s_lp_Variant>
AV-unprocessed.smi:1047-40

> <Gold.Version>
5.8.1

> <Gold.Id.Protein>
6NUR|6NUR_protein|mol2

> <Gold.PLP.Fitness>
56.3423

> <Gold.PLP.PLP>
-48.6879

> <Gold.PLP.part.hbond>
-2.0000

> <Gold.PLP.part.metal>
0.0000

> <Gold.PLP.part.buried>
-6.5963

> <Gold.PLP.part.nonpolar>
-40.7410

> <Gold.PLP.part.repulsive>
0.1091

> <Gold.PLP.ligand.clash>
0.0000

> <Gold.PLP.ligand.torsion>
0.7293

> <Gold.PLP.Chemscore.Hbond>
3.0000

> <Gold.PLP.Chemscore.CHOScore>
0.0000

> <Gold.PLP.Chemscore.Metal>
0.0000

> <Gold.Chemscore.Hbonds>
donor molecule, donor type, donor heavy atom, donor atom, acceptor molecule, acceptor atom, score
      L1  H     9    38       P1  7948  0.85
      L1  H    16    57       P1  8028  2.00

> <Gold.PLP.Chemscore.Internal.Correction>
0.1130

> <Gold.Rescore>
     Score         DG    S(hbond)    S(metal)    S(lipo)     H(rot)  DE(clash)    DE(int)     intcor
     19.11     -20.40       1.95        0.00     131.18       2.71       0.05       1.24       ----

> <Gold.Chemscore.Fitness>
19.1076

> <Gold.Chemscore.DG>
-20.4023

> <Gold.Chemscore.ZeroCoef>
-5.4800

> <Gold.Chemscore.Hbond>
1.9486

> <Gold.Chemscore.Metal>
0.0000

> <Gold.Chemscore.Lipo>
131.1845

> <Gold.Chemscore.Internal_Hbond>
0.0000

> <Gold.Chemscore.DEClash>
0.0539

> <Gold.Chemscore.DEInternal>
1.2408

> <Gold.Chemscore.Rot>
2.7088

> <Gold.Chemscore.Internal.Correction>
   9.000000E+99

> <Gold.Chemscore.Hbonds>
donor molecule, donor type, donor heavy atom, donor atom, acceptor molecule, acceptor atom, score
      L1  H     9    38       P1  7948  0.14
      L1  H    16    57       P1  8028  0.95

> <Gold.Chemscore.Hbond.Weighted>
-6.5083

> <Gold.Chemscore.Metal.Weighted>
-0.0000

> <Gold.Chemscore.Lipo.Weighted>
-15.3486

> <Gold.Chemscore.Internal_Hbond.Weighted>
0.0000

> <Gold.Chemscore.DEClash.Weighted>
0.0539

> <Gold.Chemscore.DEInternal.Weighted>
1.2408

> <Gold.Chemscore.Rot.Weighted>
6.9346

> <Gold.Chemscore.Internal.Correction.Weighted>
   9.000000E+99

> <Gold.Protein.RotatedTorsions>
[ 6907 6896 6895 6894 ] final    9.63 input  -60.11 | X-H torsion
[ 7974 7965 7964 7962 ] final  150.07 input  175.53 | X-H torsion
[ 8008 7997 7996 7995 ] final   16.01 input   59.86 | X-H torsion
[ 10167 10162 10161 10158 ] final   -1.31 input  -65.29 | X-H torsion
[ 10718 10713 10712 10709 ] final  134.04 input   66.30 | X-H torsion
[ 10763 10752 10751 10750 ] final  146.68 input  -60.55 | X-H torsion
[ 11005 11000 10999 10996 ] final   76.17 input  -57.11 | X-H torsion

> <Gold.Protein.ActiveResidues>
 VAL166  LYS551  ARG553  GLY616  TRP617  ASP618  TYR619  PRO620  LYS621  CYS622 
 ASP623  PHE694  ASN695  SER759  ASP760  ASP761  ALA762  ILE779  LEU786  VAL792 
 PHE793  MET794  SER795  GLU796  ALA797  LYS798  CYS799  TRP800  GLU811  SER814 

> <Gold.Protein.RotatedAtoms>
  151.7253  135.0886  160.0290 H   0  0  0  0  0  0  0  0  0  0  0  0  # atno 6907 bound_to 6896
  152.3576  133.6252  159.5999 H   0  0  0  0  0  0  0  0  0  0  0  0  # atno 6908 bound_to 6896
  150.7582  133.9391  159.3492 H   0  0  0  0  0  0  0  0  0  0  0  0  # atno 6909 bound_to 6896
  144.8391  139.6361  143.6024 H   0  0  0  0  0  0  0  0  0  0  0  0  # atno 7974 bound_to 7965
  154.8708  140.2958  155.5483 H   0  0  0  0  0  0  0  0  0  0  0  0  # atno 8008 bound_to 7997
  156.3021  140.2460  156.3629 H   0  0  0  0  0  0  0  0  0  0  0  0  # atno 8009 bound_to 7997
  154.8819  140.0397  157.1777 H   0  0  0  0  0  0  0  0  0  0  0  0  # atno 8010 bound_to 7997
  140.6805  143.6790  150.8121 H   0  0  0  0  0  0  0  0  0  0  0  0  # atno 10167 bound_to 10162
  157.4712  131.1080  150.9800 H   0  0  0  0  0  0  0  0  0  0  0  0  # atno 10718 bound_to 10713
  154.0258  135.2902  155.3375 H   0  0  0  0  0  0  0  0  0  0  0  0  # atno 10763 bound_to 10752
  154.7018  135.5185  153.8541 H   0  0  0  0  0  0  0  0  0  0  0  0  # atno 10764 bound_to 10752
  153.0661  135.6631  154.0476 H   0  0  0  0  0  0  0  0  0  0  0  0  # atno 10765 bound_to 10752
  139.9310  134.7579  156.1362 H   0  0  0  0  0  0  0  0  0  0  0  0  # atno 11005 bound_to 11000
  146.2686  139.6580  142.9312 LP  0  0  0  0  0  0  0  0  0  0  0  0  # atno 17320 bound_to 7965
  145.4732  141.0436  143.2687 LP  0  0  0  0  0  0  0  0  0  0  0  0  # atno 17321 bound_to 7965
  140.0490  143.5269  152.2683 LP  0  0  0  0  0  0  0  0  0  0  0  0  # atno 17342 bound_to 10162
  139.6124  144.7612  151.2922 LP  0  0  0  0  0  0  0  0  0  0  0  0  # atno 17343 bound_to 10162
  157.0564  130.5807  149.5378 LP  0  0  0  0  0  0  0  0  0  0  0  0  # atno 17370 bound_to 10713
  156.0074  130.5163  150.7877 LP  0  0  0  0  0  0  0  0  0  0  0  0  # atno 17371 bound_to 10713
  141.0898  133.6719  156.2516 LP  0  0  0  0  0  0  0  0  0  0  0  0  # atno 17394 bound_to 11000
  140.6202  134.5369  157.5546 LP  0  0  0  0  0  0  0  0  0  0  0  0  # atno 17395 bound_to 11000

$$$$
