AV-unprocessed.smi:2799|AV-procd|sdf|10789|dock6
  -GOLD-   2272015223D 1   1.00000     0.00000
 Structure written by MMmdl.
 52 53  0  0  0  0  0  0  0  0  2 V2000
  145.7927  142.7821  154.8851 C   0  0  0  0  0  0  0  0  0  0  0  0
  146.6797  142.9988  153.6479 C   0  0  0  0  0  0  0  0  0  0  0  0
  145.9640  143.8939  152.6252 C   0  0  0  0  0  0  0  0  0  0  0  0
  147.1036  141.6642  153.0030 C   0  0  0  0  0  0  0  0  0  0  0  0
  147.9215  140.8359  153.9359 N   0  3  2  0  0  0  0  0  0  0  0  0
  149.2006  141.5344  154.2472 C   0  0  0  0  0  0  0  0  0  0  0  0
  150.0361  140.7901  155.2915 C   0  0  0  0  0  0  0  0  0  0  0  0
  150.3475  139.3841  154.7880 C   0  0  0  0  0  0  0  0  0  0  0  0
  149.0344  138.6522  154.5079 C   0  0  0  0  0  0  0  0  0  0  0  0
  148.1044  139.4052  153.5175 C   0  0  1  0  0  0  0  0  0  0  0  0
  146.7443  138.6551  153.4198 C   0  0  0  0  0  0  0  0  0  0  0  0
  146.8865  137.2782  152.9510 N   0  0  0  0  0  0  0  0  0  0  0  0
  145.8773  136.4445  152.6593 C   0  0  0  0  0  0  0  0  0  0  0  0
  144.6922  136.7511  152.7847 O   0  0  0  0  0  0  0  0  0  0  0  0
  146.3452  135.2642  152.2128 N   0  0  0  0  0  0  0  0  0  0  0  0
  145.6388  134.1135  151.8202 C   0  0  0  0  0  0  0  0  0  0  0  0
  144.6946  134.0812  150.8464 C   0  0  0  0  0  0  0  0  0  0  0  0
  144.0132  132.8529  150.5143 C   0  0  0  0  0  0  0  0  0  0  0  0
  144.3248  131.7452  151.2011 C   0  0  0  0  0  0  0  0  0  0  0  0
  145.2887  131.7582  152.2231 N   0  0  0  0  0  0  0  0  0  0  0  0
  145.5595  130.4951  152.9146 C   0  0  0  0  0  0  0  0  0  0  0  0
  145.9719  132.8883  152.5738 C   0  0  0  0  0  0  0  0  0  0  0  0
  146.8175  132.8703  153.4717 O   0  0  0  0  0  0  0  0  0  0  0  0
  144.8828  142.2380  154.6300 H   0  0  0  0  0  0  0  0  0  0  0  0
  145.4971  143.7340  155.3272 H   0  0  0  0  0  0  0  0  0  0  0  0
  146.3141  142.2161  155.6571 H   0  0  0  0  0  0  0  0  0  0  0  0
  147.5771  143.5300  153.9676 H   0  0  0  0  0  0  0  0  0  0  0  0
  145.0483  143.4267  152.2608 H   0  0  0  0  0  0  0  0  0  0  0  0
  146.6007  144.0959  151.7634 H   0  0  0  0  0  0  0  0  0  0  0  0
  145.6944  144.8552  153.0638 H   0  0  0  0  0  0  0  0  0  0  0  0
  146.2194  141.1474  152.6397 H   0  0  0  0  0  0  0  0  0  0  0  0
  147.6773  141.8620  152.0959 H   0  0  0  0  0  0  0  0  0  0  0  0
  149.7842  141.6509  153.3322 H   0  0  0  0  0  0  0  0  0  0  0  0
  148.9865  142.5392  154.6134 H   0  0  0  0  0  0  0  0  0  0  0  0
  150.9629  141.3315  155.4840 H   0  0  0  0  0  0  0  0  0  0  0  0
  149.4980  140.7422  156.2394 H   0  0  0  0  0  0  0  0  0  0  0  0
  150.9512  139.4329  153.8808 H   0  0  0  0  0  0  0  0  0  0  0  0
  150.9334  138.8385  155.5281 H   0  0  0  0  0  0  0  0  0  0  0  0
  149.2740  137.6596  154.1261 H   0  0  0  0  0  0  0  0  0  0  0  0
  148.5101  138.4964  155.4521 H   0  0  0  0  0  0  0  0  0  0  0  0
  148.5794  139.4091  152.5349 H   0  0  0  0  0  0  0  0  0  0  0  0
  146.2323  138.6876  154.3829 H   0  0  0  0  0  0  0  0  0  0  0  0
  146.0625  139.1213  152.7132 H   0  0  0  0  0  0  0  0  0  0  0  0
  147.8287  136.9407  152.8163 H   0  0  0  0  0  0  0  0  0  0  0  0
  147.3469  135.1921  152.1069 H   0  0  0  0  0  0  0  0  0  0  0  0
  144.4085  134.9643  150.2990 H   0  0  0  0  0  0  0  0  0  0  0  0
  143.2720  132.8270  149.7294 H   0  0  0  0  0  0  0  0  0  0  0  0
  143.8614  130.7880  151.0108 H   0  0  0  0  0  0  0  0  0  0  0  0
  145.4600  130.6140  153.9947 H   0  0  0  0  0  0  0  0  0  0  0  0
  146.5742  130.1561  152.7016 H   0  0  0  0  0  0  0  0  0  0  0  0
  144.8777  129.6977  152.6164 H   0  0  0  0  0  0  0  0  0  0  0  0
  147.4032  140.7940  154.8019 H   0  0  0  0  0  0  0  0  0  0  0  0
  1  2  1  0  0  0  0
  1 24  1  0  0  0  0
  1 25  1  0  0  0  0
  1 26  1  0  0  0  0
  2  3  1  0  0  0  0
  2  4  1  0  0  0  0
  2 27  1  0  0  0  0
  3 28  1  0  0  0  0
  3 29  1  0  0  0  0
  3 30  1  0  0  0  0
  4  5  1  0  0  0  0
  4 31  1  0  0  0  0
  4 32  1  0  0  0  0
  5 10  1  0  0  0  0
  5  6  1  0  0  0  0
  5 52  1  0  0  0  0
  6  7  1  0  0  0  0
  6 33  1  0  0  0  0
  6 34  1  0  0  0  0
  7  8  1  0  0  0  0
  7 35  1  0  0  0  0
  7 36  1  0  0  0  0
  8  9  1  0  0  0  0
  8 37  1  0  0  0  0
  8 38  1  0  0  0  0
  9 10  1  0  0  0  0
  9 39  1  0  0  0  0
  9 40  1  0  0  0  0
 10 11  1  0  0  0  0
 10 41  1  0  0  0  0
 11 12  1  0  0  0  0
 11 42  1  0  0  0  0
 11 43  1  0  0  0  0
 12 13  1  0  0  0  0
 12 44  1  0  0  0  0
 13 14  2  0  0  0  0
 13 15  1  0  0  0  0
 15 16  1  0  0  0  0
 15 45  1  0  0  0  0
 16 22  1  0  0  0  0
 16 17  2  0  0  0  0
 17 18  1  0  0  0  0
 17 46  1  0  0  0  0
 18 19  2  0  0  0  0
 18 47  1  0  0  0  0
 19 20  1  0  0  0  0
 19 48  1  0  0  0  0
 20 21  1  0  0  0  0
 20 22  1  0  0  0  0
 21 49  1  0  0  0  0
 21 50  1  0  0  0  0
 21 51  1  0  0  0  0
 22 23  2  0  0  0  0
M  CHG  1   5   1
M  END
> <s_m_source_file>
AV-unprocessed.smi

> <i_m_source_file_index>
2799

> <i_lp_mmshare_version>
43012

> <i_f3d_flags>
0

> <s_epik_input>
W0NIM11bQ0hdKFtDSDNdKVtDSDJdTjFbQ0gyXVtDSDJdW0NIMl1bQ0gyXVtDQEhdMVtDSDJdW05IXUMoPU8pW05IXWMyW2NIXVtjSF1bY0hdbihbQ0gzXSljMj1P

> <s_epik_cmdline>
J2VwaWtfcHl0aG9uJywgJy1waCcsICc3LjAnLCAnLXRuJywgJzgnLCAnLW1hJywgJzIwMCcsICctbWV0YWxfYmluZGluZycsICctaW1hZScsICc8aW5maWxlLm1hZT4nLCAnLW9tYWUnLCAnPG91dGZpbGUubWFlPic=

> <r_lp_tautomer_probability>
1

> <r_epik_Ionization_Penalty>
0.0010885

> <r_epik_Ionization_Penalty_Charging>
0.00106921

> <r_epik_Ionization_Penalty_Neutral>
1.92865e-05

> <r_epik_State_Penalty>
0.000697184

> <r_epik_Charging_Adjusted_Penalty>
0.0017664

> <i_epik_Tot_Q>
1

> <i_epik_Tot_abs_Q>
1

> <r_epik_Metal_State_Penalty>
-0

> <b_epik_Metal_Only>
0

> <s_lp_Force_Field>
OPLS_2005

> <r_lp_Energy>
37.4199

> <b_lp_Chiralities_Consistent>
1

> <s_lp_Variant>
AV-unprocessed.smi:2799-1

> <Gold.Version>
5.8.1

> <Gold.Id.Protein>
6NUR|6NUR_protein|mol2

> <Gold.PLP.Fitness>
49.9451

> <Gold.PLP.PLP>
-45.1864

> <Gold.PLP.part.hbond>
-1.8643

> <Gold.PLP.part.metal>
0.0000

> <Gold.PLP.part.buried>
-3.5927

> <Gold.PLP.part.nonpolar>
-39.3760

> <Gold.PLP.part.repulsive>
0.4634

> <Gold.PLP.ligand.clash>
0.0000

> <Gold.PLP.ligand.torsion>
0.6153

> <Gold.PLP.Chemscore.Hbond>
1.9513

> <Gold.PLP.Chemscore.CHOScore>
0.0000

> <Gold.PLP.Chemscore.Metal>
0.0000

> <Gold.Chemscore.Hbonds>
donor molecule, donor type, donor heavy atom, donor atom, acceptor molecule, acceptor atom, score
      L1  H    12    44       P1  7948  0.99
      L1  H    15    45       P1  7948  0.88

> <Gold.PLP.Chemscore.Internal.Correction>
0.1356

> <Gold.Rescore>
     Score         DG    S(hbond)    S(metal)    S(lipo)     H(rot)  DE(clash)    DE(int)     intcor
     17.59     -18.98       1.88        0.00      95.94       1.57       0.52       0.87       ----

> <Gold.Chemscore.Fitness>
17.5926

> <Gold.Chemscore.DG>
-18.9776

> <Gold.Chemscore.ZeroCoef>
-5.4800

> <Gold.Chemscore.Hbond>
1.8827

> <Gold.Chemscore.Metal>
0.0000

> <Gold.Chemscore.Lipo>
95.9427

> <Gold.Chemscore.Internal_Hbond>
0.0000

> <Gold.Chemscore.DEClash>
0.5170

> <Gold.Chemscore.DEInternal>
0.8680

> <Gold.Chemscore.Rot>
1.5688

> <Gold.Chemscore.Internal.Correction>
   9.000000E+99

> <Gold.Chemscore.Hbonds>
donor molecule, donor type, donor heavy atom, donor atom, acceptor molecule, acceptor atom, score
      L1  H    12    44       P1  7948  0.93
      L1  H    15    45       P1  7948  0.86

> <Gold.Chemscore.Hbond.Weighted>
-6.2883

> <Gold.Chemscore.Metal.Weighted>
-0.0000

> <Gold.Chemscore.Lipo.Weighted>
-11.2253

> <Gold.Chemscore.Internal_Hbond.Weighted>
0.0000

> <Gold.Chemscore.DEClash.Weighted>
0.5170

> <Gold.Chemscore.DEInternal.Weighted>
0.8680

> <Gold.Chemscore.Rot.Weighted>
4.0161

> <Gold.Chemscore.Internal.Correction.Weighted>
   9.000000E+99

> <Gold.Protein.RotatedTorsions>
[ 6907 6896 6895 6894 ] final  -54.49 input  -60.11 | X-H torsion
[ 7974 7965 7964 7962 ] final  130.88 input  175.53 | X-H torsion
[ 8008 7997 7996 7995 ] final -171.37 input   59.86 | X-H torsion
[ 10167 10162 10161 10158 ] final -124.38 input  -65.29 | X-H torsion
[ 10718 10713 10712 10709 ] final  171.36 input   66.30 | X-H torsion
[ 10763 10752 10751 10750 ] final  -85.65 input  -60.55 | X-H torsion
[ 11005 11000 10999 10996 ] final -108.77 input  -57.11 | X-H torsion

> <Gold.Protein.ActiveResidues>
 VAL166  LYS551  ARG553  GLY616  TRP617  ASP618  TYR619  PRO620  LYS621  CYS622 
 ASP623  PHE694  ASN695  SER759  ASP760  ASP761  ALA762  ILE779  LEU786  VAL792 
 PHE793  MET794  SER795  GLU796  ALA797  LYS798  CYS799  TRP800  GLU811  SER814 

> <Gold.Protein.RotatedAtoms>
  150.8333  134.7596  159.6871 H   0  0  0  0  0  0  0  0  0  0  0  0  # atno 6907 bound_to 6896
  152.4434  134.5540  159.9885 H   0  0  0  0  0  0  0  0  0  0  0  0  # atno 6908 bound_to 6896
  151.5696  133.3354  159.3023 H   0  0  0  0  0  0  0  0  0  0  0  0  # atno 6909 bound_to 6896
  145.0132  139.4200  143.5234 H   0  0  0  0  0  0  0  0  0  0  0  0  # atno 7974 bound_to 7965
  155.9306  140.1090  157.1135 H   0  0  0  0  0  0  0  0  0  0  0  0  # atno 8008 bound_to 7997
  154.4070  140.1238  156.4863 H   0  0  0  0  0  0  0  0  0  0  0  0  # atno 8009 bound_to 7997
  155.7084  140.3471  155.4965 H   0  0  0  0  0  0  0  0  0  0  0  0  # atno 8010 bound_to 7997
  139.9934  143.5617  152.2333 H   0  0  0  0  0  0  0  0  0  0  0  0  # atno 10167 bound_to 10162
  156.9946  131.0158  151.2847 H   0  0  0  0  0  0  0  0  0  0  0  0  # atno 10718 bound_to 10713
  154.6135  135.5477  153.7498 H   0  0  0  0  0  0  0  0  0  0  0  0  # atno 10763 bound_to 10752
  153.0205  135.6395  154.1544 H   0  0  0  0  0  0  0  0  0  0  0  0  # atno 10764 bound_to 10752
  154.1481  135.2904  155.3122 H   0  0  0  0  0  0  0  0  0  0  0  0  # atno 10765 bound_to 10752
  141.0884  133.9098  157.2133 H   0  0  0  0  0  0  0  0  0  0  0  0  # atno 11005 bound_to 11000
  146.3473  139.9588  142.8720 LP  0  0  0  0  0  0  0  0  0  0  0  0  # atno 17320 bound_to 7965
  145.1995  140.9848  143.4164 LP  0  0  0  0  0  0  0  0  0  0  0  0  # atno 17321 bound_to 7965
  139.6323  144.7646  151.2510 LP  0  0  0  0  0  0  0  0  0  0  0  0  # atno 17342 bound_to 10162
  140.7446  143.6457  150.8294 LP  0  0  0  0  0  0  0  0  0  0  0  0  # atno 17343 bound_to 10162
  157.5434  130.8134  149.8056 LP  0  0  0  0  0  0  0  0  0  0  0  0  # atno 17370 bound_to 10713
  156.0194  130.3801  150.2009 LP  0  0  0  0  0  0  0  0  0  0  0  0  # atno 17371 bound_to 10713
  139.9705  135.0129  156.9501 LP  0  0  0  0  0  0  0  0  0  0  0  0  # atno 17394 bound_to 11000
  140.5310  134.0814  155.7316 LP  0  0  0  0  0  0  0  0  0  0  0  0  # atno 17395 bound_to 11000

$$$$
