AV-unprocessed.smi:1662|AV-procd|sdf|6657|dock9
  -GOLD-   22720 7363D 1   1.00000     0.00000
 Structure written by MMmdl.
 47 48  0  0  0  0  0  0  0  0  1 V2000
  152.7372  139.0097  154.9912 C   0  0  0  0  0  0  0  0  0  0  0  0
  152.0602  138.4281  156.2030 C   0  0  0  0  0  0  0  0  0  0  0  0
  152.6913  138.5310  157.3263 N   0  0  0  0  0  0  0  0  0  0  0  0
  152.1602  138.0287  158.4987 N   0  0  0  0  0  0  0  0  0  0  0  0
  153.0231  138.2114  159.6754 C   0  0  0  0  0  0  0  0  0  0  0  0
  153.2880  139.6858  160.0145 C   0  0  0  0  0  0  0  0  0  0  0  0
  154.2016  140.0025  160.7779 O   0  0  0  0  0  0  0  0  0  0  0  0
  152.4838  140.5773  159.4137 N   0  0  0  0  0  0  0  0  0  0  0  0
  152.5316  142.0292  159.5838 C   0  0  2  0  0  0  0  0  0  0  0  0
  152.5986  142.3442  161.0905 C   0  0  0  0  0  0  0  0  0  0  0  0
  152.5804  143.8549  161.3618 C   0  0  0  0  0  0  0  0  0  0  0  0
  151.3571  144.5193  160.7110 C   0  0  0  0  0  0  0  0  0  0  0  0
  151.2776  144.2385  159.1967 C   0  0  1  0  0  0  0  0  0  0  0  0
  152.3422  145.0351  158.4148 C   0  0  0  0  0  0  0  0  0  0  0  0
  151.3017  142.7099  158.9255 C   0  0  1  0  0  0  0  0  0  0  0  0
  151.1522  142.3794  157.4272 C   0  0  0  0  0  0  0  0  0  0  0  0
  150.9506  137.4052  158.5986 C   0  0  0  0  0  0  0  0  0  0  0  0
  150.5098  136.9819  159.6683 O   0  0  0  0  0  0  0  0  0  0  0  0
  150.2421  137.2907  157.3219 C   0  0  0  0  0  0  0  0  0  0  0  0
  148.9745  136.6372  157.3808 C   0  0  0  0  0  0  0  0  0  0  0  0
  147.9558  136.0901  157.4354 N   0  0  0  0  0  0  0  0  0  0  0  0
  150.7572  137.7722  156.1629 C   0  0  0  0  0  0  0  0  0  0  0  0
  150.0625  137.6782  154.8113 C   0  0  0  0  0  0  0  0  0  0  0  0
  152.1158  139.7789  154.5323 H   0  0  0  0  0  0  0  0  0  0  0  0
  152.9262  138.2371  154.2456 H   0  0  0  0  0  0  0  0  0  0  0  0
  153.6957  139.4679  155.2408 H   0  0  0  0  0  0  0  0  0  0  0  0
  152.5725  137.7405  160.5511 H   0  0  0  0  0  0  0  0  0  0  0  0
  153.9732  137.6957  159.5227 H   0  0  0  0  0  0  0  0  0  0  0  0
  151.7695  140.2206  158.7954 H   0  0  0  0  0  0  0  0  0  0  0  0
  153.4377  142.4241  159.1219 H   0  0  0  0  0  0  0  0  0  0  0  0
  151.7544  141.8795  161.6021 H   0  0  0  0  0  0  0  0  0  0  0  0
  153.4991  141.9066  161.5234 H   0  0  0  0  0  0  0  0  0  0  0  0
  152.5702  144.0361  162.4371 H   0  0  0  0  0  0  0  0  0  0  0  0
  153.4977  144.3079  160.9853 H   0  0  0  0  0  0  0  0  0  0  0  0
  150.4527  144.1455  161.1930 H   0  0  0  0  0  0  0  0  0  0  0  0
  151.3740  145.5938  160.8967 H   0  0  0  0  0  0  0  0  0  0  0  0
  150.3104  144.6135  158.8592 H   0  0  0  0  0  0  0  0  0  0  0  0
  153.3549  144.7014  158.6382 H   0  0  0  0  0  0  0  0  0  0  0  0
  152.2873  146.0967  158.6570 H   0  0  0  0  0  0  0  0  0  0  0  0
  152.1960  144.9491  157.3384 H   0  0  0  0  0  0  0  0  0  0  0  0
  150.4149  142.3003  159.4127 H   0  0  0  0  0  0  0  0  0  0  0  0
  152.0544  142.6296  156.8687 H   0  0  0  0  0  0  0  0  0  0  0  0
  150.3204  142.9278  156.9850 H   0  0  0  0  0  0  0  0  0  0  0  0
  150.9550  141.3189  157.2703 H   0  0  0  0  0  0  0  0  0  0  0  0
  149.1024  137.1672  154.8748 H   0  0  0  0  0  0  0  0  0  0  0  0
  150.6794  137.1265  154.1013 H   0  0  0  0  0  0  0  0  0  0  0  0
  149.8775  138.6736  154.4063 H   0  0  0  0  0  0  0  0  0  0  0  0
  1  2  1  0  0  0  0
  1 24  1  0  0  0  0
  1 25  1  0  0  0  0
  1 26  1  0  0  0  0
  2 22  1  0  0  0  0
  2  3  2  0  0  0  0
  3  4  1  0  0  0  0
  4  5  1  0  0  0  0
  4 17  1  0  0  0  0
  5  6  1  0  0  0  0
  5 27  1  0  0  0  0
  5 28  1  0  0  0  0
  6  7  2  0  0  0  0
  6  8  1  0  0  0  0
  8  9  1  0  0  0  0
  8 29  1  0  0  0  0
  9 15  1  0  0  0  0
  9 10  1  0  0  0  0
  9 30  1  0  0  0  0
 10 11  1  0  0  0  0
 10 31  1  0  0  0  0
 10 32  1  0  0  0  0
 11 12  1  0  0  0  0
 11 33  1  0  0  0  0
 11 34  1  0  0  0  0
 12 13  1  0  0  0  0
 12 35  1  0  0  0  0
 12 36  1  0  0  0  0
 13 14  1  0  0  0  0
 13 15  1  0  0  0  0
 13 37  1  0  0  0  0
 14 38  1  0  0  0  0
 14 39  1  0  0  0  0
 14 40  1  0  0  0  0
 15 16  1  0  0  0  0
 15 41  1  0  0  0  0
 16 42  1  0  0  0  0
 16 43  1  0  0  0  0
 16 44  1  0  0  0  0
 17 18  2  0  0  0  0
 17 19  1  0  0  0  0
 19 20  1  0  0  0  0
 19 22  2  0  0  0  0
 20 21  3  0  0  0  0
 22 23  1  0  0  0  0
 23 45  1  0  0  0  0
 23 46  1  0  0  0  0
 23 47  1  0  0  0  0
M  END
> <s_m_source_file>
AV-unprocessed.smi

> <i_m_source_file_index>
1662

> <i_lp_mmshare_version>
43012

> <i_f3d_flags>
0

> <s_epik_input>
TiNDYyhjMVtDSDNdKWMoPU8pbihuYzFbQ0gzXSlbQ0gyXUMoPU8pW05IXVtDQEBIXTJbQ0gyXVtDSDJdW0NIMl1bQ0BASF0oW0NIM10pW0NASF0yW0NIM10=

> <s_epik_cmdline>
J2VwaWtfcHl0aG9uJywgJy1waCcsICc3LjAnLCAnLXRuJywgJzgnLCAnLW1hJywgJzIwMCcsICctbWV0YWxfYmluZGluZycsICctaW1hZScsICc8aW5maWxlLm1hZT4nLCAnLW9tYWUnLCAnPG91dGZpbGUubWFlPic=

> <r_lp_tautomer_probability>
1

> <r_epik_Ionization_Penalty>
1.90709e-08

> <r_epik_Ionization_Penalty_Charging>
2.37982e-11

> <r_epik_Ionization_Penalty_Neutral>
1.90471e-08

> <r_epik_State_Penalty>
-0

> <r_epik_Charging_Adjusted_Penalty>
2.37982e-11

> <i_epik_Tot_Q>
0

> <i_epik_Tot_abs_Q>
0

> <r_epik_Metal_State_Penalty>
-0

> <b_epik_Metal_Only>
0

> <s_lp_Force_Field>
OPLS_2005

> <r_lp_Energy>
29.144

> <b_lp_Chiralities_Consistent>
1

> <s_lp_Variant>
AV-unprocessed.smi:1662-1

> <Gold.Version>
5.8.1

> <Gold.Id.Protein>
6NUR|6NUR_protein|mol2

> <Gold.PLP.Fitness>
42.7977

> <Gold.PLP.PLP>
-40.3999

> <Gold.PLP.part.hbond>
-1.0000

> <Gold.PLP.part.metal>
0.0000

> <Gold.PLP.part.buried>
-6.7256

> <Gold.PLP.part.nonpolar>
-33.5660

> <Gold.PLP.part.repulsive>
0.1340

> <Gold.PLP.ligand.clash>
0.0000

> <Gold.PLP.ligand.torsion>
0.3036

> <Gold.PLP.Chemscore.Hbond>
1.0000

> <Gold.PLP.Chemscore.CHOScore>
0.0000

> <Gold.PLP.Chemscore.Metal>
0.0000

> <Gold.Chemscore.Hbonds>
donor molecule, donor type, donor heavy atom, donor atom, acceptor molecule, acceptor atom, score
      P1  H  6896  6908       L1    18  1.00

> <Gold.PLP.Chemscore.Internal.Correction>
0.0049

> <Gold.Rescore>
     Score         DG    S(hbond)    S(metal)    S(lipo)     H(rot)  DE(clash)    DE(int)     intcor
     17.44     -19.11       0.99        0.00     119.86       1.45       0.04       1.63       ----

> <Gold.Chemscore.Fitness>
17.4406

> <Gold.Chemscore.DG>
-19.1079

> <Gold.Chemscore.ZeroCoef>
-5.4800

> <Gold.Chemscore.Hbond>
0.9932

> <Gold.Chemscore.Metal>
0.0000

> <Gold.Chemscore.Lipo>
119.8581

> <Gold.Chemscore.Internal_Hbond>
0.0000

> <Gold.Chemscore.DEClash>
0.0402

> <Gold.Chemscore.DEInternal>
1.6271

> <Gold.Chemscore.Rot>
1.4504

> <Gold.Chemscore.Internal.Correction>
   9.000000E+99

> <Gold.Chemscore.Hbonds>
donor molecule, donor type, donor heavy atom, donor atom, acceptor molecule, acceptor atom, score
      P1  H  6896  6908       L1    18  0.62

> <Gold.Chemscore.Hbond.Weighted>
-3.3174

> <Gold.Chemscore.Metal.Weighted>
-0.0000

> <Gold.Chemscore.Lipo.Weighted>
-14.0234

> <Gold.Chemscore.Internal_Hbond.Weighted>
0.0000

> <Gold.Chemscore.DEClash.Weighted>
0.0402

> <Gold.Chemscore.DEInternal.Weighted>
1.6271

> <Gold.Chemscore.Rot.Weighted>
3.7129

> <Gold.Chemscore.Internal.Correction.Weighted>
   9.000000E+99

> <Gold.Protein.RotatedTorsions>
[ 6907 6896 6895 6894 ] final -152.27 input  -60.11 | X-H torsion
[ 7974 7965 7964 7962 ] final  -37.69 input  175.53 | X-H torsion
[ 8008 7997 7996 7995 ] final   11.53 input   59.86 | X-H torsion
[ 10167 10162 10161 10158 ] final -124.77 input  -65.29 | X-H torsion
[ 10718 10713 10712 10709 ] final  113.32 input   66.30 | X-H torsion
[ 10763 10752 10751 10750 ] final  141.88 input  -60.55 | X-H torsion
[ 11005 11000 10999 10996 ] final  176.68 input  -57.11 | X-H torsion

> <Gold.Protein.ActiveResidues>
 VAL166  LYS551  ARG553  GLY616  TRP617  ASP618  TYR619  PRO620  LYS621  CYS622 
 ASP623  PHE694  ASN695  SER759  ASP760  ASP761  ALA762  ILE779  LEU786  VAL792 
 PHE793  MET794  SER795  GLU796  ALA797  LYS798  CYS799  TRP800  GLU811  SER814 

> <Gold.Protein.RotatedAtoms>
  151.2253  133.4480  159.2601 H   0  0  0  0  0  0  0  0  0  0  0  0  # atno 6907 bound_to 6896
  151.0846  134.9879  159.8383 H   0  0  0  0  0  0  0  0  0  0  0  0  # atno 6908 bound_to 6896
  152.5428  134.2191  159.8833 H   0  0  0  0  0  0  0  0  0  0  0  0  # atno 6909 bound_to 6896
  146.0553  140.6425  142.9023 H   0  0  0  0  0  0  0  0  0  0  0  0  # atno 7974 bound_to 7965
  154.8082  140.2863  155.5872 H   0  0  0  0  0  0  0  0  0  0  0  0  # atno 8008 bound_to 7997
  156.2985  140.2573  156.2895 H   0  0  0  0  0  0  0  0  0  0  0  0  # atno 8009 bound_to 7997
  154.9478  140.0380  157.2118 H   0  0  0  0  0  0  0  0  0  0  0  0  # atno 8010 bound_to 7997
  139.9892  143.5659  152.2348 H   0  0  0  0  0  0  0  0  0  0  0  0  # atno 10167 bound_to 10162
  157.6344  131.0982  150.7024 H   0  0  0  0  0  0  0  0  0  0  0  0  # atno 10718 bound_to 10713
  153.9465  135.2974  155.3440 H   0  0  0  0  0  0  0  0  0  0  0  0  # atno 10763 bound_to 10752
  154.7449  135.5007  153.9190 H   0  0  0  0  0  0  0  0  0  0  0  0  # atno 10764 bound_to 10752
  153.1016  135.6735  153.9771 H   0  0  0  0  0  0  0  0  0  0  0  0  # atno 10765 bound_to 10752
  140.3757  134.6990  157.4420 H   0  0  0  0  0  0  0  0  0  0  0  0  # atno 11005 bound_to 11000
  144.7144  140.4158  143.7055 LP  0  0  0  0  0  0  0  0  0  0  0  0  # atno 17320 bound_to 7965
  145.6655  139.1589  143.2784 LP  0  0  0  0  0  0  0  0  0  0  0  0  # atno 17321 bound_to 7965
  139.6352  144.7649  151.2452 LP  0  0  0  0  0  0  0  0  0  0  0  0  # atno 17342 bound_to 10162
  140.7461  143.6410  150.8335 LP  0  0  0  0  0  0  0  0  0  0  0  0  # atno 17343 bound_to 10162
  156.7357  130.4723  149.5489 LP  0  0  0  0  0  0  0  0  0  0  0  0  # atno 17370 bound_to 10713
  156.1572  130.6350  151.0673 LP  0  0  0  0  0  0  0  0  0  0  0  0  # atno 17371 bound_to 10713
  140.0517  134.6121  155.8854 LP  0  0  0  0  0  0  0  0  0  0  0  0  # atno 17394 bound_to 11000
  141.1940  133.6581  156.5574 LP  0  0  0  0  0  0  0  0  0  0  0  0  # atno 17395 bound_to 11000

$$$$
