AV-unprocessed.smi:2256|AV-procd|sdf|9126|dock9
  -GOLD-   2272012333D 1   1.00000     0.00000
 Structure written by MMmdl.
 42 44  0  0  0  0  0  0  0  0  1 V2000
  145.9034  138.1530  154.7798 C   0  0  0  0  0  0  0  0  0  0  0  0
  147.0519  139.0876  155.1158 C   0  0  0  0  0  0  0  0  0  0  0  0
  147.5276  139.0121  156.4282 N   0  0  0  0  0  0  0  0  0  0  0  0
  148.4976  139.7782  156.8077 C   0  0  0  0  0  0  0  0  0  0  0  0
  149.0982  140.6966  155.9313 N   0  0  0  0  0  0  0  0  0  0  0  0
  150.1883  141.5140  156.4893 C   0  0  0  0  0  0  0  0  0  0  0  0
  151.5710  140.8474  156.3096 C   0  0  2  0  0  0  0  0  0  0  0  0
  151.6733  140.2581  155.0287 O   0  0  0  0  0  0  0  0  0  0  0  0
  151.8518  139.7537  157.3542 C   0  0  0  0  0  0  0  0  0  0  0  0
  153.0959  140.0056  157.9961 O   0  0  0  0  0  0  0  0  0  0  0  0
  153.1168  140.8458  159.0889 C   0  0  0  0  0  0  0  0  0  0  0  0
  152.2101  141.9221  159.2759 C   0  0  0  0  0  0  0  0  0  0  0  0
  152.2895  142.7413  160.4182 C   0  0  0  0  0  0  0  0  0  0  0  0
  153.2745  142.4985  161.3901 C   0  0  0  0  0  0  0  0  0  0  0  0
  154.1716  141.4333  161.2060 C   0  0  0  0  0  0  0  0  0  0  0  0
  155.2206  140.9602  161.9696 N   0  0  0  0  0  0  0  0  0  0  0  0
  155.8152  139.8692  161.3609 C   0  0  0  0  0  0  0  0  0  0  0  0
  155.1635  139.6085  160.1838 C   0  0  0  0  0  0  0  0  0  0  0  0
  154.1159  140.5863  160.0601 C   0  0  0  0  0  0  0  0  0  0  0  0
  148.7061  140.8236  154.6306 C   0  0  0  0  0  0  0  0  0  0  0  0
  149.2538  141.6190  153.8646 O   0  0  0  0  0  0  0  0  0  0  0  0
  147.5962  139.9507  154.2151 C   0  0  0  0  0  0  0  0  0  0  0  0
  147.1192  140.0780  152.7737 C   0  0  0  0  0  0  0  0  0  0  0  0
  155.5329  141.3385  162.8523 H   0  0  0  0  0  0  0  0  0  0  0  0
  145.0218  138.7235  154.4863 H   0  0  0  0  0  0  0  0  0  0  0  0
  145.6313  137.5344  155.6357 H   0  0  0  0  0  0  0  0  0  0  0  0
  146.1778  137.4873  153.9613 H   0  0  0  0  0  0  0  0  0  0  0  0
  148.9076  139.7558  157.8189 H   0  0  0  0  0  0  0  0  0  0  0  0
  150.1862  142.4801  155.9808 H   0  0  0  0  0  0  0  0  0  0  0  0
  150.0189  141.7655  157.5386 H   0  0  0  0  0  0  0  0  0  0  0  0
  152.3647  141.5911  156.3882 H   0  0  0  0  0  0  0  0  0  0  0  0
  151.4099  139.3529  155.0912 H   0  0  0  0  0  0  0  0  0  0  0  0
  151.0375  139.6993  158.0790 H   0  0  0  0  0  0  0  0  0  0  0  0
  151.9053  138.7913  156.8427 H   0  0  0  0  0  0  0  0  0  0  0  0
  151.4392  142.1420  158.5535 H   0  0  0  0  0  0  0  0  0  0  0  0
  151.5930  143.5567  160.5470 H   0  0  0  0  0  0  0  0  0  0  0  0
  153.3402  143.1237  162.2682 H   0  0  0  0  0  0  0  0  0  0  0  0
  156.6558  139.3663  161.8160 H   0  0  0  0  0  0  0  0  0  0  0  0
  155.3840  138.8234  159.4758 H   0  0  0  0  0  0  0  0  0  0  0  0
  147.9378  139.8633  152.0859 H   0  0  0  0  0  0  0  0  0  0  0  0
  146.7738  141.0944  152.5815 H   0  0  0  0  0  0  0  0  0  0  0  0
  146.3007  139.4029  152.5303 H   0  0  0  0  0  0  0  0  0  0  0  0
  1  2  1  0  0  0  0
  1 25  1  0  0  0  0
  1 26  1  0  0  0  0
  1 27  1  0  0  0  0
  2 22  2  0  0  0  0
  2  3  1  0  0  0  0
  3  4  2  0  0  0  0
  4  5  1  0  0  0  0
  4 28  1  0  0  0  0
  5  6  1  0  0  0  0
  5 20  1  0  0  0  0
  6  7  1  0  0  0  0
  6 29  1  0  0  0  0
  6 30  1  0  0  0  0
  7  8  1  0  0  0  0
  7  9  1  0  0  0  0
  7 31  1  0  0  0  0
  8 32  1  0  0  0  0
  9 10  1  0  0  0  0
  9 33  1  0  0  0  0
  9 34  1  0  0  0  0
 10 11  1  0  0  0  0
 11 19  1  0  0  0  0
 11 12  2  0  0  0  0
 12 13  1  0  0  0  0
 12 35  1  0  0  0  0
 13 14  2  0  0  0  0
 13 36  1  0  0  0  0
 14 15  1  0  0  0  0
 14 37  1  0  0  0  0
 15 19  2  0  0  0  0
 15 16  1  0  0  0  0
 16 24  1  0  0  0  0
 16 17  1  0  0  0  0
 17 18  2  0  0  0  0
 17 38  1  0  0  0  0
 18 19  1  0  0  0  0
 18 39  1  0  0  0  0
 20 21  2  0  0  0  0
 20 22  1  0  0  0  0
 22 23  1  0  0  0  0
 23 40  1  0  0  0  0
 23 41  1  0  0  0  0
 23 42  1  0  0  0  0
M  END
> <s_m_source_file>
AV-unprocessed.smi

> <i_m_source_file_index>
2256

> <i_lp_mmshare_version>
43012

> <i_f3d_flags>
0

> <s_epik_input>
W0NIM11jMW5bY0hdbihjKD1PKWMxW0NIM10pW0NIMl1bQ0BIXShbT0hdKVtDSDJdT2MoW2NIXVtjSF1bY0hdMiljKGMyMylbY0hdW2NIXVtuSF0z

> <s_epik_cmdline>
J2VwaWtfcHl0aG9uJywgJy1waCcsICc3LjAnLCAnLXRuJywgJzgnLCAnLW1hJywgJzIwMCcsICctbWV0YWxfYmluZGluZycsICctaW1hZScsICc8aW5maWxlLm1hZT4nLCAnLW9tYWUnLCAnPG91dGZpbGUubWFlPic=

> <r_lp_tautomer_probability>
1

> <r_epik_Ionization_Penalty>
4.18314e-05

> <r_epik_Ionization_Penalty_Charging>
1.04093e-07

> <r_epik_Ionization_Penalty_Neutral>
4.17273e-05

> <r_epik_State_Penalty>
-0

> <r_epik_Charging_Adjusted_Penalty>
1.04093e-07

> <i_epik_Tot_Q>
0

> <i_epik_Tot_abs_Q>
0

> <r_epik_Metal_State_Penalty>
-0

> <b_epik_Metal_Only>
0

> <s_lp_Force_Field>
OPLS_2005

> <r_lp_Energy>
26.398

> <b_lp_Chiralities_Consistent>
1

> <s_lp_Variant>
AV-unprocessed.smi:2256-1

> <Gold.Version>
5.8.1

> <Gold.Id.Protein>
6NUR|6NUR_protein|mol2

> <Gold.PLP.Fitness>
45.5123

> <Gold.PLP.PLP>
-40.9026

> <Gold.PLP.part.hbond>
-5.0000

> <Gold.PLP.part.metal>
0.0000

> <Gold.PLP.part.buried>
-4.1541

> <Gold.PLP.part.nonpolar>
-31.9522

> <Gold.PLP.part.repulsive>
0.4608

> <Gold.PLP.ligand.clash>
0.0000

> <Gold.PLP.ligand.torsion>
1.7907

> <Gold.PLP.Chemscore.Hbond>
2.6880

> <Gold.PLP.Chemscore.CHOScore>
0.0000

> <Gold.PLP.Chemscore.Metal>
0.0000

> <Gold.Chemscore.Hbonds>
donor molecule, donor type, donor heavy atom, donor atom, acceptor molecule, acceptor atom, score
      P1  H  7989  7998       L1     8  0.93
      P1  H  7997  8010       L1    10  1.00
      P1  H  8011  8017       L1    21  0.66

> <Gold.PLP.Chemscore.Internal.Correction>
0.1270

> <Gold.Rescore>
     Score         DG    S(hbond)    S(metal)    S(lipo)     H(rot)  DE(clash)    DE(int)     intcor
     16.47     -18.30       2.38        0.00      98.07       2.58       0.03       1.80       ----

> <Gold.Chemscore.Fitness>
16.4677

> <Gold.Chemscore.DG>
-18.2967

> <Gold.Chemscore.ZeroCoef>
-5.4800

> <Gold.Chemscore.Hbond>
2.3798

> <Gold.Chemscore.Metal>
0.0000

> <Gold.Chemscore.Lipo>
98.0694

> <Gold.Chemscore.Internal_Hbond>
0.0000

> <Gold.Chemscore.DEClash>
0.0313

> <Gold.Chemscore.DEInternal>
1.7976

> <Gold.Chemscore.Rot>
2.5804

> <Gold.Chemscore.Internal.Correction>
   9.000000E+99

> <Gold.Chemscore.Hbonds>
donor molecule, donor type, donor heavy atom, donor atom, acceptor molecule, acceptor atom, score
      P1  H  7989  7998       L1     8  0.81
      P1  H  7997  8010       L1    10  0.83
      P1  H  8011  8017       L1    21  0.66

> <Gold.Chemscore.Hbond.Weighted>
-7.9485

> <Gold.Chemscore.Metal.Weighted>
-0.0000

> <Gold.Chemscore.Lipo.Weighted>
-11.4741

> <Gold.Chemscore.Internal_Hbond.Weighted>
0.0000

> <Gold.Chemscore.DEClash.Weighted>
0.0313

> <Gold.Chemscore.DEInternal.Weighted>
1.7976

> <Gold.Chemscore.Rot.Weighted>
6.6059

> <Gold.Chemscore.Internal.Correction.Weighted>
   9.000000E+99

> <Gold.Protein.RotatedTorsions>
[ 6907 6896 6895 6894 ] final -173.48 input  -60.11 | X-H torsion
[ 7974 7965 7964 7962 ] final  -14.24 input  175.53 | X-H torsion
[ 8008 7997 7996 7995 ] final   44.06 input   59.86 | X-H torsion
[ 10167 10162 10161 10158 ] final  -99.48 input  -65.29 | X-H torsion
[ 10718 10713 10712 10709 ] final   41.91 input   66.30 | X-H torsion
[ 10763 10752 10751 10750 ] final   40.00 input  -60.55 | X-H torsion
[ 11005 11000 10999 10996 ] final   36.02 input  -57.11 | X-H torsion

> <Gold.Protein.ActiveResidues>
 VAL166  LYS551  ARG553  GLY616  TRP617  ASP618  TYR619  PRO620  LYS621  CYS622 
 ASP623  PHE694  ASN695  SER759  ASP760  ASP761  ALA762  ILE779  LEU786  VAL792 
 PHE793  MET794  SER795  GLU796  ALA797  LYS798  CYS799  TRP800  GLU811  SER814 

> <Gold.Protein.RotatedAtoms>
  151.5568  133.3409  159.2963 H   0  0  0  0  0  0  0  0  0  0  0  0  # atno 6907 bound_to 6896
  150.8446  134.7753  159.6971 H   0  0  0  0  0  0  0  0  0  0  0  0  # atno 6908 bound_to 6896
  152.4506  134.5408  159.9890 H   0  0  0  0  0  0  0  0  0  0  0  0  # atno 6909 bound_to 6896
  146.2082  140.3319  142.8400 H   0  0  0  0  0  0  0  0  0  0  0  0  # atno 7974 bound_to 7965
  155.3130  140.3392  155.4243 H   0  0  0  0  0  0  0  0  0  0  0  0  # atno 8008 bound_to 7997
  156.1946  140.1710  156.8062 H   0  0  0  0  0  0  0  0  0  0  0  0  # atno 8009 bound_to 7997
  154.5483  140.0711  156.8609 H   0  0  0  0  0  0  0  0  0  0  0  0  # atno 8010 bound_to 7997
  140.2620  143.3401  152.0616 H   0  0  0  0  0  0  0  0  0  0  0  0  # atno 10167 bound_to 10162
  157.3989  130.7848  149.7331 H   0  0  0  0  0  0  0  0  0  0  0  0  # atno 10718 bound_to 10713
  152.9949  135.6204  154.2555 H   0  0  0  0  0  0  0  0  0  0  0  0  # atno 10763 bound_to 10752
  154.2293  135.2793  155.2898 H   0  0  0  0  0  0  0  0  0  0  0  0  # atno 10764 bound_to 10752
  154.5463  135.5746  153.6941 H   0  0  0  0  0  0  0  0  0  0  0  0  # atno 10765 bound_to 10752
  140.2368  134.3462  155.7941 H   0  0  0  0  0  0  0  0  0  0  0  0  # atno 11005 bound_to 11000
  144.8846  140.7445  143.5965 LP  0  0  0  0  0  0  0  0  0  0  0  0  # atno 17320 bound_to 7965
  145.3240  139.1779  143.4572 LP  0  0  0  0  0  0  0  0  0  0  0  0  # atno 17321 bound_to 7965
  139.5014  144.6712  151.6237 LP  0  0  0  0  0  0  0  0  0  0  0  0  # atno 17342 bound_to 10162
  140.5958  143.9698  150.6353 LP  0  0  0  0  0  0  0  0  0  0  0  0  # atno 17343 bound_to 10162
  155.9818  130.4016  150.3453 LP  0  0  0  0  0  0  0  0  0  0  0  0  # atno 17370 bound_to 10713
  157.1578  131.0337  151.2855 LP  0  0  0  0  0  0  0  0  0  0  0  0  # atno 17371 bound_to 10713
  141.2214  133.7276  156.8820 LP  0  0  0  0  0  0  0  0  0  0  0  0  # atno 17394 bound_to 11000
  140.1694  134.9110  157.2814 LP  0  0  0  0  0  0  0  0  0  0  0  0  # atno 17395 bound_to 11000

$$$$
