AV-unprocessed.smi:3085|AV-procd|sdf|11753|dock3
  -GOLD-   2272017143D 1   1.00000     0.00000
 Structure written by MMmdl.
 28 29  0  0  0  0  0  0  0  0  2 V2000
  152.7034  142.2038  159.5502 C   0  0  0  0  0  0  0  0  0  0  0  0
  152.2916  140.9767  158.7291 C   0  0  0  0  0  0  0  0  0  0  0  0
  151.3862  141.3331  157.5969 C   0  0  0  0  0  0  0  0  0  0  0  0
  150.9427  140.4141  156.6866 N   0  0  0  0  0  0  0  0  0  0  0  0
  150.2321  141.2005  155.8836 C   0  0  0  0  0  0  0  0  0  0  0  0
  149.4936  140.7530  154.6617 C   0  0  1  0  0  0  0  0  0  0  0  0
  149.6121  139.2348  154.4258 C   0  0  0  0  0  0  0  0  0  0  0  0
  148.7856  138.8379  153.2692 N   0  3  0  0  0  0  0  0  0  0  0  0
  147.3842  139.2724  153.4330 C   0  0  0  0  0  0  0  0  0  0  0  0
  147.3278  140.7857  153.7069 C   0  0  0  0  0  0  0  0  0  0  0  0
  148.1228  141.0981  154.8463 O   0  0  0  0  0  0  0  0  0  0  0  0
  150.2607  142.4787  156.2684 N   0  0  0  0  0  0  0  0  0  0  0  0
  151.0146  142.5941  157.3815 N   0  0  0  0  0  0  0  0  0  0  0  0
  149.8103  143.2665  155.8249 H   0  0  0  0  0  0  0  0  0  0  0  0
  153.3581  141.9187  160.3739 H   0  0  0  0  0  0  0  0  0  0  0  0
  151.8322  142.7033  159.9749 H   0  0  0  0  0  0  0  0  0  0  0  0
  153.2379  142.9274  158.9344 H   0  0  0  0  0  0  0  0  0  0  0  0
  153.1789  140.4814  158.3333 H   0  0  0  0  0  0  0  0  0  0  0  0
  151.7936  140.2506  159.3728 H   0  0  0  0  0  0  0  0  0  0  0  0
  149.8875  141.2978  153.8011 H   0  0  0  0  0  0  0  0  0  0  0  0
  150.6492  138.9515  154.2440 H   0  0  0  0  0  0  0  0  0  0  0  0
  149.2771  138.6838  155.3058 H   0  0  0  0  0  0  0  0  0  0  0  0
  149.1630  139.2696  152.4376 H   0  0  0  0  0  0  0  0  0  0  0  0
  146.8192  139.0220  152.5348 H   0  0  0  0  0  0  0  0  0  0  0  0
  146.9331  138.7232  154.2606 H   0  0  0  0  0  0  0  0  0  0  0  0
  147.6766  141.3508  152.8411 H   0  0  0  0  0  0  0  0  0  0  0  0
  146.3000  141.0960  153.8964 H   0  0  0  0  0  0  0  0  0  0  0  0
  148.8162  137.8339  153.1621 H   0  0  0  0  0  0  0  0  0  0  0  0
  1  2  1  0  0  0  0
  1 15  1  0  0  0  0
  1 16  1  0  0  0  0
  1 17  1  0  0  0  0
  2 18  1  0  0  0  0
  2 19  1  0  0  0  0
  2  3  1  0  0  0  0
  3  4  1  0  0  0  0
  3 13  2  0  0  0  0
  4  5  2  0  0  0  0
  5  6  1  0  0  0  0
  5 12  1  0  0  0  0
  6 11  1  0  0  0  0
  6  7  1  0  0  0  0
  6 20  1  0  0  0  0
  7  8  1  0  0  0  0
  7 21  1  0  0  0  0
  7 22  1  0  0  0  0
  8  9  1  0  0  0  0
  8 23  1  0  0  0  0
  8 28  1  0  0  0  0
  9 10  1  0  0  0  0
  9 24  1  0  0  0  0
  9 25  1  0  0  0  0
 10 11  1  0  0  0  0
 10 26  1  0  0  0  0
 10 27  1  0  0  0  0
 12 13  1  0  0  0  0
 12 14  1  0  0  0  0
M  CHG  1   8   1
M  END
> <s_m_source_file>
AV-unprocessed.smi

> <i_m_source_file_index>
3085

> <i_lp_mmshare_version>
43012

> <i_f3d_flags>
0

> <s_epik_input>
W0NIM11bQ0gyXWMxbmMobltuSF0xKVtDQEBIXTJbQ0gyXVtOSF1bQ0gyXVtDSDJdTzI=

> <s_epik_cmdline>
J2VwaWtfcHl0aG9uJywgJy1waCcsICc3LjAnLCAnLXRuJywgJzgnLCAnLW1hJywgJzIwMCcsICctbWV0YWxfYmluZGluZycsICctaW1hZScsICc8aW5maWxlLm1hZT4nLCAnLW9tYWUnLCAnPG91dGZpbGUubWFlPic=

> <r_epik_Ionization_Penalty>
0.162344

> <r_epik_Ionization_Penalty_Charging>
0.125708

> <r_epik_Ionization_Penalty_Neutral>
0.0366364

> <r_epik_State_Penalty>
0.637958

> <r_epik_Charging_Adjusted_Penalty>
0.763666

> <i_epik_Tot_Q>
1

> <i_epik_Tot_abs_Q>
1

> <r_epik_Metal_State_Penalty>
0.860091

> <b_epik_Metal_Only>
0

> <s_lp_Force_Field>
OPLS_2005

> <r_lp_Energy>
9.17309

> <b_lp_Chiralities_Consistent>
1

> <s_lp_Variant>
AV-unprocessed.smi:3085-4

> <Gold.Version>
5.8.1

> <Gold.Id.Protein>
6NUR|6NUR_protein|mol2

> <Gold.PLP.Fitness>
36.4816

> <Gold.PLP.PLP>
-24.7560

> <Gold.PLP.part.hbond>
-3.0000

> <Gold.PLP.part.metal>
0.0000

> <Gold.PLP.part.buried>
-4.6827

> <Gold.PLP.part.nonpolar>
-18.6468

> <Gold.PLP.part.repulsive>
0.3947

> <Gold.PLP.ligand.clash>
0.0000

> <Gold.PLP.ligand.torsion>
0.0079

> <Gold.PLP.Chemscore.Hbond>
3.9113

> <Gold.PLP.Chemscore.CHOScore>
0.0000

> <Gold.PLP.Chemscore.Metal>
0.0000

> <Gold.Chemscore.Hbonds>
donor molecule, donor type, donor heavy atom, donor atom, acceptor molecule, acceptor atom, score
      L1  H     8    23       P1  7957  1.00
      L1  H     8    28       P1  7948  1.78
      L1  H    12    14       P1  8028  1.00

> <Gold.PLP.Chemscore.Internal.Correction>
0.0076

> <Gold.Rescore>
     Score         DG    S(hbond)    S(metal)    S(lipo)     H(rot)  DE(clash)    DE(int)     intcor
     17.07     -17.08       2.88        0.00      45.41       1.30       0.00       0.01       ----

> <Gold.Chemscore.Fitness>
17.0709

> <Gold.Chemscore.DG>
-17.0782

> <Gold.Chemscore.ZeroCoef>
-5.4800

> <Gold.Chemscore.Hbond>
2.8791

> <Gold.Chemscore.Metal>
0.0000

> <Gold.Chemscore.Lipo>
45.4081

> <Gold.Chemscore.Internal_Hbond>
0.0000

> <Gold.Chemscore.DEClash>
0.0000

> <Gold.Chemscore.DEInternal>
0.0074

> <Gold.Chemscore.Rot>
1.3011

> <Gold.Chemscore.Internal.Correction>
   9.000000E+99

> <Gold.Chemscore.Hbonds>
donor molecule, donor type, donor heavy atom, donor atom, acceptor molecule, acceptor atom, score
      L1  H     8    23       P1  7957  0.95
      L1  H     8    28       P1  7948  0.82
      L1  H    12    14       P1  8028  1.00

> <Gold.Chemscore.Hbond.Weighted>
-9.6163

> <Gold.Chemscore.Metal.Weighted>
-0.0000

> <Gold.Chemscore.Lipo.Weighted>
-5.3128

> <Gold.Chemscore.Internal_Hbond.Weighted>
0.0000

> <Gold.Chemscore.DEClash.Weighted>
0.0000

> <Gold.Chemscore.DEInternal.Weighted>
0.0074

> <Gold.Chemscore.Rot.Weighted>
3.3308

> <Gold.Chemscore.Internal.Correction.Weighted>
   9.000000E+99

> <Gold.Protein.RotatedTorsions>
[ 6907 6896 6895 6894 ] final   79.61 input  -60.11 | X-H torsion
[ 7974 7965 7964 7962 ] final -115.34 input  175.53 | X-H torsion
[ 8008 7997 7996 7995 ] final   64.99 input   59.86 | X-H torsion
[ 10167 10162 10161 10158 ] final -106.07 input  -65.29 | X-H torsion
[ 10718 10713 10712 10709 ] final  -44.71 input   66.30 | X-H torsion
[ 10763 10752 10751 10750 ] final   75.36 input  -60.55 | X-H torsion
[ 11005 11000 10999 10996 ] final  -79.72 input  -57.11 | X-H torsion

> <Gold.Protein.ActiveResidues>
 VAL166  LYS551  ARG553  GLY616  TRP617  ASP618  TYR619  PRO620  LYS621  CYS622 
 ASP623  PHE694  ASN695  SER759  ASP760  ASP761  ALA762  ILE779  LEU786  VAL792 
 PHE793  MET794  SER795  GLU796  ALA797  LYS798  CYS799  TRP800  GLU811  SER814 

> <Gold.Protein.RotatedAtoms>
  152.5205  134.3485  159.9242 H   0  0  0  0  0  0  0  0  0  0  0  0  # atno 6907 bound_to 6896
  151.3436  133.3946  159.2681 H   0  0  0  0  0  0  0  0  0  0  0  0  # atno 6908 bound_to 6896
  150.9784  134.9162  159.7887 H   0  0  0  0  0  0  0  0  0  0  0  0  # atno 6909 bound_to 6896
  145.1095  140.8603  143.3878 H   0  0  0  0  0  0  0  0  0  0  0  0  # atno 7974 bound_to 7965
  155.6548  140.3497  155.4761 H   0  0  0  0  0  0  0  0  0  0  0  0  # atno 8008 bound_to 7997
  155.9818  140.1176  157.0743 H   0  0  0  0  0  0  0  0  0  0  0  0  # atno 8009 bound_to 7997
  154.4194  140.1137  156.5432 H   0  0  0  0  0  0  0  0  0  0  0  0  # atno 8010 bound_to 7997
  140.1917  143.3887  152.1201 H   0  0  0  0  0  0  0  0  0  0  0  0  # atno 10167 bound_to 10162
  156.2358  130.4176  149.8820 H   0  0  0  0  0  0  0  0  0  0  0  0  # atno 10718 bound_to 10713
  153.0649  135.4991  154.8178 H   0  0  0  0  0  0  0  0  0  0  0  0  # atno 10763 bound_to 10752
  154.6939  135.2989  154.9443 H   0  0  0  0  0  0  0  0  0  0  0  0  # atno 10764 bound_to 10752
  154.0188  135.6744  153.4823 H   0  0  0  0  0  0  0  0  0  0  0  0  # atno 10765 bound_to 10752
  141.1667  133.7118  156.8165 H   0  0  0  0  0  0  0  0  0  0  0  0  # atno 11005 bound_to 11000
  145.0863  139.2923  143.5758 LP  0  0  0  0  0  0  0  0  0  0  0  0  # atno 17320 bound_to 7965
  146.3527  140.0385  142.8645 LP  0  0  0  0  0  0  0  0  0  0  0  0  # atno 17321 bound_to 7965
  139.5253  144.7094  151.5252 LP  0  0  0  0  0  0  0  0  0  0  0  0  # atno 17342 bound_to 10162
  140.6451  143.8810  150.6729 LP  0  0  0  0  0  0  0  0  0  0  0  0  # atno 17343 bound_to 10162
  156.6418  130.8708  151.3515 LP  0  0  0  0  0  0  0  0  0  0  0  0  # atno 17370 bound_to 10713
  157.7153  130.9490  150.1235 LP  0  0  0  0  0  0  0  0  0  0  0  0  # atno 17371 bound_to 10713
  140.2150  134.8799  157.3315 LP  0  0  0  0  0  0  0  0  0  0  0  0  # atno 17394 bound_to 11000
  140.2047  134.4211  155.7644 LP  0  0  0  0  0  0  0  0  0  0  0  0  # atno 17395 bound_to 11000

$$$$
