AV-unprocessed.smi:36|AV-procd|sdf|289|dock8
  -GOLD-   2262016 73D 1   1.00000     0.00000
 Structure written by MMmdl.
 64 67  0  0  0  0  0  0  0  0  1 V2000
  151.4283  129.8785  154.8593 C   0  0  0  0  0  0  0  0  0  0  0  0
  152.4510  129.6442  155.9834 C   0  0  0  0  0  0  0  0  0  0  0  0
  152.2930  128.2219  156.5477 C   0  0  0  0  0  0  0  0  0  0  0  0
  153.8778  129.8298  155.4408 C   0  0  0  0  0  0  0  0  0  0  0  0
  152.1497  130.9020  157.3888 Si  0  0  0  0  0  0  0  0  0  0  0  0
  153.3835  130.6532  158.8116 C   0  0  0  0  0  0  0  0  0  0  0  0
  152.2757  132.6852  156.7422 C   0  0  0  0  0  0  0  0  0  0  0  0
  150.5909  130.6321  157.9928 O   0  0  0  0  0  0  0  0  0  0  0  0
  150.0554  131.2723  159.1332 C   0  0  0  0  0  0  0  0  0  0  0  0
  148.7907  132.0503  158.7441 C   0  0  2  0  0  0  0  0  0  0  0  0
  149.1719  133.3348  158.2608 O   0  0  0  0  0  0  0  0  0  0  0  0
  148.1715  134.2293  158.6092 C   0  0  2  0  0  0  0  0  0  0  0  0
  148.7359  135.6094  158.5993 N   0  0  0  0  0  0  0  0  0  0  0  0
  148.8913  136.4376  159.6500 C   0  0  0  0  0  0  0  0  0  0  0  0
  149.4184  137.6254  159.3643 N   0  0  0  0  0  0  0  0  0  0  0  0
  149.6154  137.5476  157.9893 C   0  0  0  0  0  0  0  0  0  0  0  0
  150.1686  138.5414  157.0442 C   0  0  0  0  0  0  0  0  0  0  0  0
  150.5535  139.6831  157.5283 N   0  0  0  0  0  0  0  0  0  0  0  0
  151.0799  140.6553  156.6880 C   0  0  0  0  0  0  0  0  0  0  0  0
  151.2658  140.6071  155.4689 O   0  0  0  0  0  0  0  0  0  0  0  0
  151.4505  141.9130  157.4033 C   0  0  0  0  0  0  0  0  0  0  0  0
  151.9022  141.8605  158.7391 C   0  0  0  0  0  0  0  0  0  0  0  0
  152.2412  143.0481  159.4168 C   0  0  0  0  0  0  0  0  0  0  0  0
  152.1274  144.2901  158.7626 C   0  0  0  0  0  0  0  0  0  0  0  0
  151.6751  144.3453  157.4300 C   0  0  0  0  0  0  0  0  0  0  0  0
  151.3358  143.1587  156.7508 C   0  0  0  0  0  0  0  0  0  0  0  0
  150.1632  138.0168  155.7450 N   0  0  0  0  0  0  0  0  0  0  0  0
  149.7065  136.7425  155.3737 C   0  0  0  0  0  0  0  0  0  0  0  0
  149.2174  135.8544  156.1977 N   0  0  0  0  0  0  0  0  0  0  0  0
  149.2017  136.3263  157.5026 C   0  0  0  0  0  0  0  0  0  0  0  0
  147.7472  133.8260  160.0128 C   0  0  0  0  0  0  0  0  0  0  0  0
  147.8312  132.3103  159.9263 C   0  0  1  0  0  0  0  0  0  0  0  0
  146.5556  131.7649  159.6515 O   0  0  0  0  0  0  0  0  0  0  0  0
  151.5724  129.1741  154.0393 H   0  0  0  0  0  0  0  0  0  0  0  0
  151.5140  130.8844  154.4475 H   0  0  0  0  0  0  0  0  0  0  0  0
  150.4067  129.7568  155.2202 H   0  0  0  0  0  0  0  0  0  0  0  0
  151.2858  128.0545  156.9298 H   0  0  0  0  0  0  0  0  0  0  0  0
  152.9889  128.0412  157.3680 H   0  0  0  0  0  0  0  0  0  0  0  0
  152.4826  127.4682  155.7827 H   0  0  0  0  0  0  0  0  0  0  0  0
  154.0973  129.1124  154.6494 H   0  0  0  0  0  0  0  0  0  0  0  0
  154.6207  129.6905  156.2269 H   0  0  0  0  0  0  0  0  0  0  0  0
  154.0200  130.8282  155.0269 H   0  0  0  0  0  0  0  0  0  0  0  0
  154.4119  130.7950  158.4798 H   0  0  0  0  0  0  0  0  0  0  0  0
  153.3129  129.6509  159.2335 H   0  0  0  0  0  0  0  0  0  0  0  0
  153.2045  131.3589  159.6225 H   0  0  0  0  0  0  0  0  0  0  0  0
  153.2741  132.9029  156.3636 H   0  0  0  0  0  0  0  0  0  0  0  0
  152.0629  133.4116  157.5262 H   0  0  0  0  0  0  0  0  0  0  0  0
  151.5739  132.8693  155.9292 H   0  0  0  0  0  0  0  0  0  0  0  0
  149.8285  130.5225  159.8915 H   0  0  0  0  0  0  0  0  0  0  0  0
  150.7986  131.9455  159.5623 H   0  0  0  0  0  0  0  0  0  0  0  0
  148.2704  131.5391  157.9334 H   0  0  0  0  0  0  0  0  0  0  0  0
  147.3614  134.2191  157.8782 H   0  0  0  0  0  0  0  0  0  0  0  0
  148.6074  136.1616  160.6551 H   0  0  0  0  0  0  0  0  0  0  0  0
  151.9889  140.9116  159.2485 H   0  0  0  0  0  0  0  0  0  0  0  0
  152.5871  143.0058  160.4392 H   0  0  0  0  0  0  0  0  0  0  0  0
  152.3859  145.2003  159.2833 H   0  0  0  0  0  0  0  0  0  0  0  0
  151.5867  145.2980  156.9293 H   0  0  0  0  0  0  0  0  0  0  0  0
  150.9860  143.2092  155.7297 H   0  0  0  0  0  0  0  0  0  0  0  0
  149.7909  136.5352  154.3060 H   0  0  0  0  0  0  0  0  0  0  0  0
  148.4769  134.2014  160.7320 H   0  0  0  0  0  0  0  0  0  0  0  0
  146.7614  134.2200  160.2635 H   0  0  0  0  0  0  0  0  0  0  0  0
  148.1972  131.8883  160.8632 H   0  0  0  0  0  0  0  0  0  0  0  0
  146.6677  130.8746  159.3554 H   0  0  0  0  0  0  0  0  0  0  0  0
  150.5208  138.6101  155.0103 H   0  0  0  0  0  0  0  0  0  0  0  0
  1  2  1  0  0  0  0
  1 34  1  0  0  0  0
  1 35  1  0  0  0  0
  1 36  1  0  0  0  0
  2  3  1  0  0  0  0
  2  4  1  0  0  0  0
  2  5  1  0  0  0  0
  3 37  1  0  0  0  0
  3 38  1  0  0  0  0
  3 39  1  0  0  0  0
  4 40  1  0  0  0  0
  4 41  1  0  0  0  0
  4 42  1  0  0  0  0
  5  6  1  0  0  0  0
  5  7  1  0  0  0  0
  5  8  1  0  0  0  0
  6 43  1  0  0  0  0
  6 44  1  0  0  0  0
  6 45  1  0  0  0  0
  7 46  1  0  0  0  0
  7 47  1  0  0  0  0
  7 48  1  0  0  0  0
  8  9  1  0  0  0  0
  9 10  1  0  0  0  0
  9 49  1  0  0  0  0
  9 50  1  0  0  0  0
 10 32  1  0  0  0  0
 10 11  1  0  0  0  0
 10 51  1  0  0  0  0
 11 12  1  0  0  0  0
 12 13  1  0  0  0  0
 12 31  1  0  0  0  0
 12 52  1  0  0  0  0
 13 30  1  0  0  0  0
 13 14  1  0  0  0  0
 14 15  2  0  0  0  0
 14 53  1  0  0  0  0
 15 16  1  0  0  0  0
 16 30  2  0  0  0  0
 16 17  1  0  0  0  0
 17 18  2  0  0  0  0
 17 27  1  0  0  0  0
 18 19  1  0  0  0  0
 19 20  2  0  0  0  0
 19 21  1  0  0  0  0
 21 26  1  0  0  0  0
 21 22  2  0  0  0  0
 22 23  1  0  0  0  0
 22 54  1  0  0  0  0
 23 24  2  0  0  0  0
 23 55  1  0  0  0  0
 24 25  1  0  0  0  0
 24 56  1  0  0  0  0
 25 26  2  0  0  0  0
 25 57  1  0  0  0  0
 26 58  1  0  0  0  0
 27 28  1  0  0  0  0
 27 64  1  0  0  0  0
 28 29  2  0  0  0  0
 28 59  1  0  0  0  0
 29 30  1  0  0  0  0
 31 32  1  0  0  0  0
 31 60  1  0  0  0  0
 31 61  1  0  0  0  0
 32 33  1  0  0  0  0
 32 62  1  0  0  0  0
 33 63  1  0  0  0  0
M  END
> <s_m_source_file>
AV-unprocessed.smi

> <i_m_source_file_index>
36

> <i_lp_mmshare_version>
43012

> <i_f3d_flags>
0

> <s_epik_input>
W0NIM11DKFtDSDNdKShbQ0gzXSlbU2ldKFtDSDNdKShbQ0gzXSlPW0NIMl1bQ0BASF0xT1tDQEhdKFtDSDJdW0NASF0xW09IXSluKFtjSF1uMiljKGMyMyluW2NIXW5jM1tOSF1DKD1PKWM0W2NIXVtjSF1bY0hdW2NIXVtjSF00

> <s_epik_cmdline>
J2VwaWtfcHl0aG9uJywgJy1waCcsICc3LjAnLCAnLXRuJywgJzgnLCAnLW1hJywgJzIwMCcsICctbWV0YWxfYmluZGluZycsICctaW1hZScsICc8aW5maWxlLm1hZT4nLCAnLW9tYWUnLCAnPG91dGZpbGUubWFlPic=

> <r_epik_Ionization_Penalty>
0.0850405

> <r_epik_Ionization_Penalty_Charging>
0.0850403

> <r_epik_Ionization_Penalty_Neutral>
1.47497e-07

> <r_epik_State_Penalty>
2.6133

> <r_epik_Charging_Adjusted_Penalty>
2.69834

> <i_epik_Tot_Q>
0

> <i_epik_Tot_abs_Q>
0

> <r_epik_Metal_State_Penalty>
2.92945

> <b_epik_Metal_Only>
0

> <s_epik_Chemistry_Notes>
This compound contains an acetal/aminal-like group ( X-CH(R)-Y where X, Y are N, S, or O) that may be acid/base labile, releasing an aldehyde.

> <s_lp_Force_Field>
OPLS_2005

> <r_lp_Energy>
44.9546

> <b_lp_Chiralities_Consistent>
1

> <s_lp_Variant>
AV-unprocessed.smi:36-11

> <Gold.Version>
5.8.1

> <Gold.Id.Protein>
6NUR|6NUR_protein|mol2

> <Gold.PLP.Fitness>
48.5842

> <Gold.PLP.PLP>
-42.7771

> <Gold.PLP.part.hbond>
-2.9753

> <Gold.PLP.part.metal>
0.0000

> <Gold.PLP.part.buried>
-5.0727

> <Gold.PLP.part.nonpolar>
-33.4312

> <Gold.PLP.part.repulsive>
0.0608

> <Gold.PLP.ligand.clash>
0.0000

> <Gold.PLP.ligand.torsion>
1.1294

> <Gold.PLP.Chemscore.Hbond>
1.7338

> <Gold.PLP.Chemscore.CHOScore>
0.8368

> <Gold.PLP.Chemscore.Metal>
0.0000

> <Gold.Chemscore.Hbonds>
donor molecule, donor type, donor heavy atom, donor atom, acceptor molecule, acceptor atom, score
      P1  H  6896  6908       L1    11  1.00
      P1  H  7989  7998       L1    20  0.83
      L1  C    28    59       P1  7948  0.90

> <Gold.PLP.Chemscore.Internal.Correction>
0.3538

> <Gold.Rescore>
     Score         DG    S(hbond)    S(metal)    S(lipo)     H(rot)  DE(clash)    DE(int)     intcor
     13.08     -15.47       1.10        0.00     113.02       2.70       1.25       1.14       ----

> <Gold.Chemscore.Fitness>
13.0815

> <Gold.Chemscore.DG>
-15.4702

> <Gold.Chemscore.ZeroCoef>
-5.4800

> <Gold.Chemscore.Hbond>
1.1044

> <Gold.Chemscore.Metal>
0.0000

> <Gold.Chemscore.Lipo>
113.0240

> <Gold.Chemscore.Internal_Hbond>
0.0000

> <Gold.Chemscore.DEClash>
1.2485

> <Gold.Chemscore.DEInternal>
1.1401

> <Gold.Chemscore.Rot>
2.7041

> <Gold.Chemscore.Internal.Correction>
   9.000000E+99

> <Gold.Chemscore.Hbonds>
donor molecule, donor type, donor heavy atom, donor atom, acceptor molecule, acceptor atom, score
      P1  H  6896  6908       L1    11  0.27
      P1  H  7989  7998       L1    20  0.79

> <Gold.Chemscore.Hbond.Weighted>
-3.6888

> <Gold.Chemscore.Metal.Weighted>
-0.0000

> <Gold.Chemscore.Lipo.Weighted>
-13.2238

> <Gold.Chemscore.Internal_Hbond.Weighted>
0.0000

> <Gold.Chemscore.DEClash.Weighted>
1.2485

> <Gold.Chemscore.DEInternal.Weighted>
1.1401

> <Gold.Chemscore.Rot.Weighted>
6.9225

> <Gold.Chemscore.Internal.Correction.Weighted>
   9.000000E+99

> <Gold.Protein.RotatedTorsions>
[ 6907 6896 6895 6894 ] final  129.41 input  -60.11 | X-H torsion
[ 7974 7965 7964 7962 ] final  107.39 input  175.53 | X-H torsion
[ 8008 7997 7996 7995 ] final  100.09 input   59.86 | X-H torsion
[ 10167 10162 10161 10158 ] final   18.67 input  -65.29 | X-H torsion
[ 10718 10713 10712 10709 ] final  -52.35 input   66.30 | X-H torsion
[ 10763 10752 10751 10750 ] final -161.88 input  -60.55 | X-H torsion
[ 11005 11000 10999 10996 ] final   40.00 input  -57.11 | X-H torsion

> <Gold.Protein.ActiveResidues>
 VAL166  LYS551  ARG553  GLY616  TRP617  ASP618  TYR619  PRO620  LYS621  CYS622 
 ASP623  PHE694  ASN695  SER759  ASP760  ASP761  ALA762  ILE779  LEU786  VAL792 
 PHE793  MET794  SER795  GLU796  ALA797  LYS798  CYS799  TRP800  GLU811  SER814 

> <Gold.Protein.RotatedAtoms>
  152.3626  133.6317  159.6026 H   0  0  0  0  0  0  0  0  0  0  0  0  # atno 6907 bound_to 6896
  150.7612  133.9398  159.3461 H   0  0  0  0  0  0  0  0  0  0  0  0  # atno 6908 bound_to 6896
  151.7234  135.0890  160.0339 H   0  0  0  0  0  0  0  0  0  0  0  0  # atno 6909 bound_to 6896
  145.2942  139.2590  143.3848 H   0  0  0  0  0  0  0  0  0  0  0  0  # atno 7974 bound_to 7965
  156.1169  140.3218  155.8152 H   0  0  0  0  0  0  0  0  0  0  0  0  # atno 8008 bound_to 7997
  155.4574  140.0537  157.3012 H   0  0  0  0  0  0  0  0  0  0  0  0  # atno 8009 bound_to 7997
  154.4799  140.2048  155.9802 H   0  0  0  0  0  0  0  0  0  0  0  0  # atno 8010 bound_to 7997
  140.5636  143.9292  150.6660 H   0  0  0  0  0  0  0  0  0  0  0  0  # atno 10167 bound_to 10162
  156.1629  130.4149  149.9765 H   0  0  0  0  0  0  0  0  0  0  0  0  # atno 10718 bound_to 10713
  154.7264  135.3037  154.8963 H   0  0  0  0  0  0  0  0  0  0  0  0  # atno 10763 bound_to 10752
  153.9819  135.6729  153.4754 H   0  0  0  0  0  0  0  0  0  0  0  0  # atno 10764 bound_to 10752
  153.0879  135.4974  154.8552 H   0  0  0  0  0  0  0  0  0  0  0  0  # atno 10765 bound_to 10752
  140.1973  134.3913  155.8114 H   0  0  0  0  0  0  0  0  0  0  0  0  # atno 11005 bound_to 11000
  146.3174  140.3441  142.8650 LP  0  0  0  0  0  0  0  0  0  0  0  0  # atno 17320 bound_to 7965
  144.9147  140.7799  143.5785 LP  0  0  0  0  0  0  0  0  0  0  0  0  # atno 17321 bound_to 7965
  140.2749  143.3430  152.1204 LP  0  0  0  0  0  0  0  0  0  0  0  0  # atno 17342 bound_to 10162
  139.5082  144.6846  151.5922 LP  0  0  0  0  0  0  0  0  0  0  0  0  # atno 17343 bound_to 10162
  156.7589  130.9143  151.3640 LP  0  0  0  0  0  0  0  0  0  0  0  0  # atno 17370 bound_to 10713
  157.6746  130.9082  150.0120 LP  0  0  0  0  0  0  0  0  0  0  0  0  # atno 17371 bound_to 10713
  141.2227  133.7076  156.8198 LP  0  0  0  0  0  0  0  0  0  0  0  0  # atno 17394 bound_to 11000
  140.2093  134.8839  157.3257 LP  0  0  0  0  0  0  0  0  0  0  0  0  # atno 17395 bound_to 11000

$$$$
