AV-unprocessed.smi:707|AV-procd|sdf|3454|dock2
  -GOLD-   22720 0443D 1   1.00000     0.00000
 Structure written by MMmdl.
 44 45  0  0  0  0  0  0  0  0  1 V2000
  145.7428  141.3618  157.4068 C   0  0  0  0  0  0  0  0  0  0  0  0
  145.4753  142.2010  156.1996 C   0  0  0  0  0  0  0  0  0  0  0  0
  144.6037  143.2161  156.1779 N   0  0  0  0  0  0  0  0  0  0  0  0
  144.6552  143.7218  154.8936 N   0  0  0  0  0  0  0  0  0  0  0  0
  145.5529  142.9603  154.2691 C   0  0  0  0  0  0  0  0  0  0  0  0
  146.1011  141.9953  155.0229 N   0  0  0  0  0  0  0  0  0  0  0  0
  147.1009  141.0128  154.6478 C   0  0  0  0  0  0  0  0  0  0  0  0
  148.3995  141.6824  154.1786 C   0  0  0  0  0  0  0  0  0  0  0  0
  149.3058  141.8847  155.2996 N   0  0  0  0  0  0  0  0  0  0  0  0
  150.3744  141.1170  155.5574 C   0  0  0  0  0  0  0  0  0  0  0  0
  150.7007  140.1565  154.8606 O   0  0  0  0  0  0  0  0  0  0  0  0
  151.2132  141.4978  156.7758 C   0  0  0  0  0  0  0  0  0  0  0  0
  150.7616  142.7503  157.2740 O   0  0  0  0  0  0  0  0  0  0  0  0
  151.6982  143.4264  158.1036 C   0  0  1  0  0  0  0  0  0  0  0  0
  150.9682  144.6217  158.7396 C   0  0  0  0  0  0  0  0  0  0  0  0
  151.8810  145.3791  159.7156 C   0  0  0  0  0  0  0  0  0  0  0  0
  152.4325  144.4409  160.8004 C   0  0  0  0  0  0  0  0  0  0  0  0
  153.1674  143.2348  160.1843 C   0  0  1  0  0  0  0  0  0  0  0  0
  153.7095  142.2942  161.2702 C   0  0  0  0  0  0  0  0  0  0  0  0
  152.2490  142.4867  159.1976 C   0  0  0  0  0  0  0  0  0  0  0  0
  145.2150  141.7614  158.2733 H   0  0  0  0  0  0  0  0  0  0  0  0
  146.8093  141.3478  157.6305 H   0  0  0  0  0  0  0  0  0  0  0  0
  145.4044  140.3399  157.2359 H   0  0  0  0  0  0  0  0  0  0  0  0
  145.8185  143.1116  153.2331 H   0  0  0  0  0  0  0  0  0  0  0  0
  147.2895  140.3589  155.4999 H   0  0  0  0  0  0  0  0  0  0  0  0
  146.6892  140.3865  153.8550 H   0  0  0  0  0  0  0  0  0  0  0  0
  148.8928  141.0642  153.4270 H   0  0  0  0  0  0  0  0  0  0  0  0
  148.1785  142.6431  153.7106 H   0  0  0  0  0  0  0  0  0  0  0  0
  149.1081  142.6529  155.9242 H   0  0  0  0  0  0  0  0  0  0  0  0
  151.1252  140.7174  157.5318 H   0  0  0  0  0  0  0  0  0  0  0  0
  152.2611  141.5594  156.4789 H   0  0  0  0  0  0  0  0  0  0  0  0
  152.5204  143.8104  157.4965 H   0  0  0  0  0  0  0  0  0  0  0  0
  150.6158  145.2994  157.9615 H   0  0  0  0  0  0  0  0  0  0  0  0
  150.0811  144.2716  159.2695 H   0  0  0  0  0  0  0  0  0  0  0  0
  152.7079  145.8317  159.1671 H   0  0  0  0  0  0  0  0  0  0  0  0
  151.3313  146.1991  160.1785 H   0  0  0  0  0  0  0  0  0  0  0  0
  153.1069  144.9956  161.4538 H   0  0  0  0  0  0  0  0  0  0  0  0
  151.6119  144.0919  161.4288 H   0  0  0  0  0  0  0  0  0  0  0  0
  154.0224  143.6143  159.6228 H   0  0  0  0  0  0  0  0  0  0  0  0
  152.9025  141.8801  161.8755 H   0  0  0  0  0  0  0  0  0  0  0  0
  154.3923  142.8187  161.9393 H   0  0  0  0  0  0  0  0  0  0  0  0
  154.2569  141.4604  160.8297 H   0  0  0  0  0  0  0  0  0  0  0  0
  151.4175  142.0351  159.7405 H   0  0  0  0  0  0  0  0  0  0  0  0
  152.8041  141.6646  158.7465 H   0  0  0  0  0  0  0  0  0  0  0  0
  1  2  1  0  0  0  0
  1 21  1  0  0  0  0
  1 22  1  0  0  0  0
  1 23  1  0  0  0  0
  2  6  1  0  0  0  0
  2  3  2  0  0  0  0
  3  4  1  0  0  0  0
  4  5  2  0  0  0  0
  5  6  1  0  0  0  0
  5 24  1  0  0  0  0
  6  7  1  0  0  0  0
  7  8  1  0  0  0  0
  7 25  1  0  0  0  0
  7 26  1  0  0  0  0
  8  9  1  0  0  0  0
  8 27  1  0  0  0  0
  8 28  1  0  0  0  0
  9 10  1  0  0  0  0
  9 29  1  0  0  0  0
 10 11  2  0  0  0  0
 10 12  1  0  0  0  0
 12 13  1  0  0  0  0
 12 30  1  0  0  0  0
 12 31  1  0  0  0  0
 13 14  1  0  0  0  0
 14 20  1  0  0  0  0
 14 15  1  0  0  0  0
 14 32  1  0  0  0  0
 15 16  1  0  0  0  0
 15 33  1  0  0  0  0
 15 34  1  0  0  0  0
 16 17  1  0  0  0  0
 16 35  1  0  0  0  0
 16 36  1  0  0  0  0
 17 18  1  0  0  0  0
 17 37  1  0  0  0  0
 17 38  1  0  0  0  0
 18 19  1  0  0  0  0
 18 20  1  0  0  0  0
 18 39  1  0  0  0  0
 19 40  1  0  0  0  0
 19 41  1  0  0  0  0
 19 42  1  0  0  0  0
 20 43  1  0  0  0  0
 20 44  1  0  0  0  0
M  END
> <s_m_source_file>
AV-unprocessed.smi

> <i_m_source_file_index>
707

> <i_lp_mmshare_version>
43012

> <i_f3d_flags>
0

> <s_epik_input>
W0NIM11jMW5uW2NIXW4xW0NIMl1bQ0gyXVtOSF1DKD1PKVtDSDJdT1tDQEBIXTJbQ0gyXVtDSDJdW0NIMl1bQ0BASF0oW0NIM10pW0NIMl0y

> <s_epik_cmdline>
J2VwaWtfcHl0aG9uJywgJy1waCcsICc3LjAnLCAnLXRuJywgJzgnLCAnLW1hJywgJzIwMCcsICctbWV0YWxfYmluZGluZycsICctaW1hZScsICc8aW5maWxlLm1hZT4nLCAnLW9tYWUnLCAnPG91dGZpbGUubWFlPic=

> <r_lp_tautomer_probability>
1

> <r_epik_Ionization_Penalty>
0.000271783

> <r_epik_Ionization_Penalty_Charging>
0

> <r_epik_Ionization_Penalty_Neutral>
0.000271783

> <r_epik_State_Penalty>
-0

> <r_epik_Charging_Adjusted_Penalty>
0

> <i_epik_Tot_Q>
0

> <i_epik_Tot_abs_Q>
0

> <r_epik_Metal_State_Penalty>
-0

> <b_epik_Metal_Only>
0

> <s_lp_Force_Field>
OPLS_2005

> <r_lp_Energy>
13.3019

> <b_lp_Chiralities_Consistent>
1

> <s_lp_Variant>
AV-unprocessed.smi:707-2

> <Gold.Version>
5.8.1

> <Gold.Id.Protein>
6NUR|6NUR_protein|mol2

> <Gold.PLP.Fitness>
51.2448

> <Gold.PLP.PLP>
-46.6357

> <Gold.PLP.part.hbond>
-2.0000

> <Gold.PLP.part.metal>
0.0000

> <Gold.PLP.part.buried>
-5.7143

> <Gold.PLP.part.nonpolar>
-39.3899

> <Gold.PLP.part.repulsive>
0.7254

> <Gold.PLP.ligand.clash>
0.0000

> <Gold.PLP.ligand.torsion>
0.5256

> <Gold.PLP.Chemscore.Hbond>
1.8320

> <Gold.PLP.Chemscore.CHOScore>
0.0000

> <Gold.PLP.Chemscore.Metal>
0.0000

> <Gold.Chemscore.Hbonds>
donor molecule, donor type, donor heavy atom, donor atom, acceptor molecule, acceptor atom, score
      L1  H     9    29       P1  8028  0.57
      P1  H  7989  7998       L1    11  1.00

> <Gold.PLP.Chemscore.Internal.Correction>
0.1644

> <Gold.Rescore>
     Score         DG    S(hbond)    S(metal)    S(lipo)     H(rot)  DE(clash)    DE(int)     intcor
     14.02     -16.27       1.47        0.00     103.30       2.42       1.58       0.68       ----

> <Gold.Chemscore.Fitness>
14.0158

> <Gold.Chemscore.DG>
-16.2710

> <Gold.Chemscore.ZeroCoef>
-5.4800

> <Gold.Chemscore.Hbond>
1.4664

> <Gold.Chemscore.Metal>
0.0000

> <Gold.Chemscore.Lipo>
103.2996

> <Gold.Chemscore.Internal_Hbond>
0.0000

> <Gold.Chemscore.DEClash>
1.5790

> <Gold.Chemscore.DEInternal>
0.6761

> <Gold.Chemscore.Rot>
2.4191

> <Gold.Chemscore.Internal.Correction>
   9.000000E+99

> <Gold.Chemscore.Hbonds>
donor molecule, donor type, donor heavy atom, donor atom, acceptor molecule, acceptor atom, score
      L1  H     9    29       P1  8028  0.56
      P1  H  7989  7998       L1    11  0.50

> <Gold.Chemscore.Hbond.Weighted>
-4.8979

> <Gold.Chemscore.Metal.Weighted>
-0.0000

> <Gold.Chemscore.Lipo.Weighted>
-12.0861

> <Gold.Chemscore.Internal_Hbond.Weighted>
0.0000

> <Gold.Chemscore.DEClash.Weighted>
1.5790

> <Gold.Chemscore.DEInternal.Weighted>
0.6761

> <Gold.Chemscore.Rot.Weighted>
6.1929

> <Gold.Chemscore.Internal.Correction.Weighted>
   9.000000E+99

> <Gold.Protein.RotatedTorsions>
[ 6907 6896 6895 6894 ] final  -78.45 input  -60.11 | X-H torsion
[ 7974 7965 7964 7962 ] final   76.50 input  175.53 | X-H torsion
[ 8008 7997 7996 7995 ] final   72.14 input   59.86 | X-H torsion
[ 10167 10162 10161 10158 ] final -167.35 input  -65.29 | X-H torsion
[ 10718 10713 10712 10709 ] final  -68.69 input   66.30 | X-H torsion
[ 10763 10752 10751 10750 ] final  155.11 input  -60.55 | X-H torsion
[ 11005 11000 10999 10996 ] final  100.93 input  -57.11 | X-H torsion

> <Gold.Protein.ActiveResidues>
 VAL166  LYS551  ARG553  GLY616  TRP617  ASP618  TYR619  PRO620  LYS621  CYS622 
 ASP623  PHE694  ASN695  SER759  ASP760  ASP761  ALA762  ILE779  LEU786  VAL792 
 PHE793  MET794  SER795  GLU796  ALA797  LYS798  CYS799  TRP800  GLU811  SER814 

> <Gold.Protein.RotatedAtoms>
  150.6972  134.4270  159.5230 H   0  0  0  0  0  0  0  0  0  0  0  0  # atno 6907 bound_to 6896
  152.2003  134.8591  160.0517 H   0  0  0  0  0  0  0  0  0  0  0  0  # atno 6908 bound_to 6896
  151.9513  133.3632  159.4038 H   0  0  0  0  0  0  0  0  0  0  0  0  # atno 6909 bound_to 6896
  145.7020  139.2586  143.1700 H   0  0  0  0  0  0  0  0  0  0  0  0  # atno 7974 bound_to 7965
  155.7644  140.3486  155.5214 H   0  0  0  0  0  0  0  0  0  0  0  0  # atno 8008 bound_to 7997
  155.8883  140.1013  157.1457 H   0  0  0  0  0  0  0  0  0  0  0  0  # atno 8009 bound_to 7997
  154.4031  140.1309  156.4270 H   0  0  0  0  0  0  0  0  0  0  0  0  # atno 8010 bound_to 7997
  139.6055  144.0922  152.1788 H   0  0  0  0  0  0  0  0  0  0  0  0  # atno 10167 bound_to 10162
  156.0492  130.4299  150.2038 H   0  0  0  0  0  0  0  0  0  0  0  0  # atno 10718 bound_to 10713
  154.1631  135.2808  155.3103 H   0  0  0  0  0  0  0  0  0  0  0  0  # atno 10763 bound_to 10752
  154.6132  135.5492  153.7499 H   0  0  0  0  0  0  0  0  0  0  0  0  # atno 10764 bound_to 10752
  153.0186  135.6420  154.1772 H   0  0  0  0  0  0  0  0  0  0  0  0  # atno 10765 bound_to 10752
  139.8772  134.9161  156.4830 H   0  0  0  0  0  0  0  0  0  0  0  0  # atno 11005 bound_to 11000
  146.0789  140.7786  142.9651 LP  0  0  0  0  0  0  0  0  0  0  0  0  # atno 17320 bound_to 7965
  144.6966  140.3458  143.7191 LP  0  0  0  0  0  0  0  0  0  0  0  0  # atno 17321 bound_to 7965
  140.0528  144.5919  150.7323 LP  0  0  0  0  0  0  0  0  0  0  0  0  # atno 17342 bound_to 10162
  140.7281  143.2659  151.4048 LP  0  0  0  0  0  0  0  0  0  0  0  0  # atno 17343 bound_to 10162
  157.0124  130.9955  151.3362 LP  0  0  0  0  0  0  0  0  0  0  0  0  # atno 17370 bound_to 10713
  157.5401  130.8114  149.8019 LP  0  0  0  0  0  0  0  0  0  0  0  0  # atno 17371 bound_to 10713
  140.8713  133.7986  155.9368 LP  0  0  0  0  0  0  0  0  0  0  0  0  # atno 17394 bound_to 11000
  140.8949  134.2450  157.5074 LP  0  0  0  0  0  0  0  0  0  0  0  0  # atno 17395 bound_to 11000

$$$$
