AV-unprocessed.smi:1720|AV-procd|sdf|6933|dock5
  -GOLD-   22720 8143D 1   1.00000     0.00000
 Structure written by MMmdl.
 32 33  0  0  0  0  0  0  0  0  1 V2000
  151.6628  137.9695  155.2928 C   0  0  0  0  0  0  0  0  0  0  0  0
  150.1446  137.9630  155.0621 C   0  0  2  0  0  0  0  0  0  0  0  0
  149.7723  136.7031  154.4202 N   0  0  0  0  0  0  0  0  0  0  0  0
  149.9740  135.4758  154.9214 C   0  0  0  0  0  0  0  0  0  0  0  0
  150.5017  135.2600  156.0125 O   0  0  0  0  0  0  0  0  0  0  0  0
  149.5220  134.5289  154.0833 N   0  0  0  0  0  0  0  0  0  0  0  0
  149.5592  133.1240  154.2711 C   0  0  0  0  0  0  0  0  0  0  0  0
  149.2881  132.1645  153.2581 C   0  0  0  0  0  0  0  0  0  0  0  0
  149.3980  130.9277  153.7214 N   0  0  0  0  0  0  0  0  0  0  0  0
  149.7387  131.0885  155.0201 N   0  0  0  0  0  0  0  0  0  0  0  0
  149.8493  132.4082  155.3987 C   0  0  0  0  0  0  0  0  0  0  0  0
  149.6878  139.1621  154.2055 C   0  0  1  0  0  0  0  0  0  0  0  0
  148.1713  139.3419  154.0987 C   0  0  0  0  0  0  0  0  0  0  0  0
  148.0585  140.8150  153.7831 C   0  0  0  0  0  0  0  0  0  0  0  0
  149.1613  141.4013  154.6584 C   0  0  0  0  0  0  0  0  0  0  0  0
  150.1555  140.3860  154.7694 O   0  0  0  0  0  0  0  0  0  0  0  0
  149.8899  130.2967  155.6289 H   0  0  0  0  0  0  0  0  0  0  0  0
  151.9778  138.8736  155.8147 H   0  0  0  0  0  0  0  0  0  0  0  0
  152.2095  137.9221  154.3503 H   0  0  0  0  0  0  0  0  0  0  0  0
  151.9711  137.1182  155.9007 H   0  0  0  0  0  0  0  0  0  0  0  0
  149.6656  138.0376  156.0401 H   0  0  0  0  0  0  0  0  0  0  0  0
  149.3282  136.7750  153.5164 H   0  0  0  0  0  0  0  0  0  0  0  0
  149.1035  134.8461  153.2212 H   0  0  0  0  0  0  0  0  0  0  0  0
  149.0198  132.3210  152.2236 H   0  0  0  0  0  0  0  0  0  0  0  0
  150.1159  132.7010  156.4034 H   0  0  0  0  0  0  0  0  0  0  0  0
  150.1040  139.0841  153.1994 H   0  0  0  0  0  0  0  0  0  0  0  0
  147.7184  138.7058  153.3377 H   0  0  0  0  0  0  0  0  0  0  0  0
  147.6891  139.1291  155.0541 H   0  0  0  0  0  0  0  0  0  0  0  0
  148.2793  140.9901  152.7291 H   0  0  0  0  0  0  0  0  0  0  0  0
  147.0739  141.2295  154.0018 H   0  0  0  0  0  0  0  0  0  0  0  0
  149.5747  142.3215  154.2458 H   0  0  0  0  0  0  0  0  0  0  0  0
  148.7794  141.6198  155.6563 H   0  0  0  0  0  0  0  0  0  0  0  0
  1  2  1  0  0  0  0
  1 18  1  0  0  0  0
  1 19  1  0  0  0  0
  1 20  1  0  0  0  0
  2  3  1  0  0  0  0
  2 12  1  0  0  0  0
  2 21  1  0  0  0  0
  3  4  1  0  0  0  0
  3 22  1  0  0  0  0
  4  5  2  0  0  0  0
  4  6  1  0  0  0  0
  6  7  1  0  0  0  0
  6 23  1  0  0  0  0
  7 11  2  0  0  0  0
  7  8  1  0  0  0  0
  8  9  2  0  0  0  0
  8 24  1  0  0  0  0
  9 10  1  0  0  0  0
 10 17  1  0  0  0  0
 10 11  1  0  0  0  0
 11 25  1  0  0  0  0
 12 16  1  0  0  0  0
 12 13  1  0  0  0  0
 12 26  1  0  0  0  0
 13 14  1  0  0  0  0
 13 27  1  0  0  0  0
 13 28  1  0  0  0  0
 14 15  1  0  0  0  0
 14 29  1  0  0  0  0
 14 30  1  0  0  0  0
 15 16  1  0  0  0  0
 15 31  1  0  0  0  0
 15 32  1  0  0  0  0
M  END
> <s_m_source_file>
AV-unprocessed.smi

> <i_m_source_file_index>
1720

> <i_lp_mmshare_version>
43012

> <i_f3d_flags>
0

> <s_epik_input>
TzFbQ0gyXVtDSDJdW0NIMl1bQ0BIXTFbQ0BIXShbQ0gzXSlbTkhdQyg9TylbTkhdYzJbY0hdbltuSF1bY0hdMg==

> <s_epik_cmdline>
J2VwaWtfcHl0aG9uJywgJy1waCcsICc3LjAnLCAnLXRuJywgJzgnLCAnLW1hJywgJzIwMCcsICctbWV0YWxfYmluZGluZycsICctaW1hZScsICc8aW5maWxlLm1hZT4nLCAnLW9tYWUnLCAnPG91dGZpbGUubWFlPic=

> <r_lp_tautomer_probability>
1

> <r_epik_Ionization_Penalty>
4.95841e-05

> <r_epik_Ionization_Penalty_Charging>
0

> <r_epik_Ionization_Penalty_Neutral>
4.95841e-05

> <r_epik_State_Penalty>
-0

> <r_epik_Charging_Adjusted_Penalty>
0

> <i_epik_Tot_Q>
0

> <i_epik_Tot_abs_Q>
0

> <r_epik_Metal_State_Penalty>
-0

> <b_epik_Metal_Only>
0

> <s_lp_Force_Field>
OPLS_2005

> <r_lp_Energy>
20.0516

> <b_lp_Chiralities_Consistent>
1

> <s_lp_Variant>
AV-unprocessed.smi:1720-3

> <Gold.Version>
5.8.1

> <Gold.Id.Protein>
6NUR|6NUR_protein|mol2

> <Gold.PLP.Fitness>
38.0356

> <Gold.PLP.PLP>
-26.5773

> <Gold.PLP.part.hbond>
-3.0000

> <Gold.PLP.part.metal>
0.0000

> <Gold.PLP.part.buried>
-2.7686

> <Gold.PLP.part.nonpolar>
-21.3309

> <Gold.PLP.part.repulsive>
0.2698

> <Gold.PLP.ligand.clash>
0.0000

> <Gold.PLP.ligand.torsion>
0.0835

> <Gold.PLP.Chemscore.Hbond>
2.8720

> <Gold.PLP.Chemscore.CHOScore>
0.9999

> <Gold.PLP.Chemscore.Metal>
0.0000

> <Gold.Chemscore.Hbonds>
donor molecule, donor type, donor heavy atom, donor atom, acceptor molecule, acceptor atom, score
      L1  H     3    22       P1  7948  1.00
      L1  H     6    23       P1  7948  0.68
      P1  H  7989  7998       L1    16  0.99
      L1  C     8    24       P1 10747  1.00

> <Gold.PLP.Chemscore.Internal.Correction>
0.0095

> <Gold.Rescore>
     Score         DG    S(hbond)    S(metal)    S(lipo)     H(rot)  DE(clash)    DE(int)     intcor
     14.35     -15.76       2.05        0.00      57.96       1.31       0.07       1.33       ----

> <Gold.Chemscore.Fitness>
14.3545

> <Gold.Chemscore.DG>
-15.7600

> <Gold.Chemscore.ZeroCoef>
-5.4800

> <Gold.Chemscore.Hbond>
2.0499

> <Gold.Chemscore.Metal>
0.0000

> <Gold.Chemscore.Lipo>
57.9617

> <Gold.Chemscore.Internal_Hbond>
0.0000

> <Gold.Chemscore.DEClash>
0.0711

> <Gold.Chemscore.DEInternal>
1.3344

> <Gold.Chemscore.Rot>
1.3079

> <Gold.Chemscore.Internal.Correction>
   9.000000E+99

> <Gold.Chemscore.Hbonds>
donor molecule, donor type, donor heavy atom, donor atom, acceptor molecule, acceptor atom, score
      L1  H     3    22       P1  7948  0.91
      L1  H     6    23       P1  7948  0.07
      P1  H  7989  7998       L1    16  0.17

> <Gold.Chemscore.Hbond.Weighted>
-6.8468

> <Gold.Chemscore.Metal.Weighted>
-0.0000

> <Gold.Chemscore.Lipo.Weighted>
-6.7815

> <Gold.Chemscore.Internal_Hbond.Weighted>
0.0000

> <Gold.Chemscore.DEClash.Weighted>
0.0711

> <Gold.Chemscore.DEInternal.Weighted>
1.3344

> <Gold.Chemscore.Rot.Weighted>
3.3483

> <Gold.Chemscore.Internal.Correction.Weighted>
   9.000000E+99

> <Gold.Protein.RotatedTorsions>
[ 6907 6896 6895 6894 ] final  115.80 input  -60.11 | X-H torsion
[ 7974 7965 7964 7962 ] final   59.85 input  175.53 | X-H torsion
[ 8008 7997 7996 7995 ] final  -65.49 input   59.86 | X-H torsion
[ 10167 10162 10161 10158 ] final   50.07 input  -65.29 | X-H torsion
[ 10718 10713 10712 10709 ] final  165.25 input   66.30 | X-H torsion
[ 10763 10752 10751 10750 ] final -170.46 input  -60.55 | X-H torsion
[ 11005 11000 10999 10996 ] final -173.14 input  -57.11 | X-H torsion

> <Gold.Protein.ActiveResidues>
 VAL166  LYS551  ARG553  GLY616  TRP617  ASP618  TYR619  PRO620  LYS621  CYS622 
 ASP623  PHE694  ASN695  SER759  ASP760  ASP761  ALA762  ILE779  LEU786  VAL792 
 PHE793  MET794  SER795  GLU796  ALA797  LYS798  CYS799  TRP800  GLU811  SER814 

> <Gold.Protein.RotatedAtoms>
  152.4718  133.8048  159.6971 H   0  0  0  0  0  0  0  0  0  0  0  0  # atno 6907 bound_to 6896
  150.8712  133.7493  159.2967 H   0  0  0  0  0  0  0  0  0  0  0  0  # atno 6908 bound_to 6896
  151.5028  135.1065  159.9885 H   0  0  0  0  0  0  0  0  0  0  0  0  # atno 6909 bound_to 6896
  145.9025  139.3592  143.0584 H   0  0  0  0  0  0  0  0  0  0  0  0  # atno 7974 bound_to 7965
  154.4675  140.0932  156.7058 H   0  0  0  0  0  0  0  0  0  0  0  0  # atno 8008 bound_to 7997
  155.4817  140.3468  155.4322 H   0  0  0  0  0  0  0  0  0  0  0  0  # atno 8009 bound_to 7997
  156.0981  140.1415  156.9492 H   0  0  0  0  0  0  0  0  0  0  0  0  # atno 8010 bound_to 7997
  140.2763  144.3208  150.6276 H   0  0  0  0  0  0  0  0  0  0  0  0  # atno 10167 bound_to 10162
  157.0828  131.0397  151.2568 H   0  0  0  0  0  0  0  0  0  0  0  0  # atno 10718 bound_to 10713
  154.6412  135.2899  155.0101 H   0  0  0  0  0  0  0  0  0  0  0  0  # atno 10763 bound_to 10752
  154.1227  135.6545  153.4910 H   0  0  0  0  0  0  0  0  0  0  0  0  # atno 10764 bound_to 10752
  153.0327  135.5291  154.7280 H   0  0  0  0  0  0  0  0  0  0  0  0  # atno 10765 bound_to 10752
  140.4891  134.6002  157.4948 H   0  0  0  0  0  0  0  0  0  0  0  0  # atno 11005 bound_to 11000
  145.8773  140.9384  143.0619 LP  0  0  0  0  0  0  0  0  0  0  0  0  # atno 17320 bound_to 7965
  144.6737  140.0733  143.7472 LP  0  0  0  0  0  0  0  0  0  0  0  0  # atno 17321 bound_to 7965
  140.5848  143.2170  151.7361 LP  0  0  0  0  0  0  0  0  0  0  0  0  # atno 17342 bound_to 10162
  139.4975  144.4026  152.0165 LP  0  0  0  0  0  0  0  0  0  0  0  0  # atno 17343 bound_to 10162
  157.4786  130.7751  149.7392 LP  0  0  0  0  0  0  0  0  0  0  0  0  # atno 17370 bound_to 10713
  155.9919  130.3934  150.2966 LP  0  0  0  0  0  0  0  0  0  0  0  0  # atno 17371 bound_to 10713
  139.9780  134.7184  155.9913 LP  0  0  0  0  0  0  0  0  0  0  0  0  # atno 17394 bound_to 11000
  141.1493  133.6551  156.3964 LP  0  0  0  0  0  0  0  0  0  0  0  0  # atno 17395 bound_to 11000

$$$$
