AV-unprocessed.smi:1891|AV-procd|sdf|7668|dock4
  -GOLD-   22720 9403D 1   1.00000     0.00000
 Structure written by MMmdl.
 37 39  0  0  0  0  0  0  0  0  2 V2000
  152.3221  136.9448  154.0476 O   0  0  0  0  0  0  0  0  0  0  0  0
  152.3849  138.2659  154.5360 C   0  0  0  0  0  0  0  0  0  0  0  0
  151.0914  138.9940  154.3711 C   0  0  0  0  0  0  0  0  0  0  0  0
  150.0948  138.6526  153.5061 N   0  3  0  0  0  0  0  0  0  0  0  0
  149.0336  139.5503  153.6279 C   0  0  0  0  0  0  0  0  0  0  0  0
  147.8120  139.6141  152.9646 C   0  0  0  0  0  0  0  0  0  0  0  0
  146.9473  140.6666  153.3308 C   0  0  0  0  0  0  0  0  0  0  0  0
  147.3090  141.6037  154.3206 C   0  0  0  0  0  0  0  0  0  0  0  0
  148.5501  141.5283  154.9866 C   0  0  0  0  0  0  0  0  0  0  0  0
  149.3989  140.4848  154.6180 C   0  0  0  0  0  0  0  0  0  0  0  0
  150.6733  140.1022  155.0507 N   0  0  0  0  0  0  0  0  0  0  0  0
  151.3339  140.8921  156.1021 C   0  0  0  0  0  0  0  0  0  0  0  0
  150.5412  140.9199  157.4241 C   0  0  1  0  0  0  0  0  0  0  0  0
  150.8101  139.7460  158.1672 O   0  0  0  0  0  0  0  0  0  0  0  0
  150.8345  142.1898  158.2113 C   0  0  0  0  0  0  0  0  0  0  0  0
  152.1662  142.5545  158.5124 C   0  0  0  0  0  0  0  0  0  0  0  0
  152.4359  143.7345  159.2319 C   0  0  0  0  0  0  0  0  0  0  0  0
  151.3768  144.5605  159.6528 C   0  0  0  0  0  0  0  0  0  0  0  0
  151.6360  145.6952  160.3448 F   0  0  0  0  0  0  0  0  0  0  0  0
  150.0480  144.2075  159.3504 C   0  0  0  0  0  0  0  0  0  0  0  0
  149.7759  143.0282  158.6295 C   0  0  0  0  0  0  0  0  0  0  0  0
  148.4919  142.7091  158.3368 F   0  0  0  0  0  0  0  0  0  0  0  0
  152.1967  136.9781  153.1106 H   0  0  0  0  0  0  0  0  0  0  0  0
  152.6726  138.2504  155.5870 H   0  0  0  0  0  0  0  0  0  0  0  0
  153.1699  138.8004  154.0006 H   0  0  0  0  0  0  0  0  0  0  0  0
  147.5326  138.8974  152.2061 H   0  0  0  0  0  0  0  0  0  0  0  0
  145.9874  140.7571  152.8431 H   0  0  0  0  0  0  0  0  0  0  0  0
  146.6206  142.3968  154.5747 H   0  0  0  0  0  0  0  0  0  0  0  0
  148.8171  142.2504  155.7442 H   0  0  0  0  0  0  0  0  0  0  0  0
  152.3278  140.4754  156.2651 H   0  0  0  0  0  0  0  0  0  0  0  0
  151.4883  141.9028  155.7220 H   0  0  0  0  0  0  0  0  0  0  0  0
  149.4747  140.8936  157.2001 H   0  0  0  0  0  0  0  0  0  0  0  0
  150.8924  139.9815  159.0789 H   0  0  0  0  0  0  0  0  0  0  0  0
  152.9884  141.9326  158.1899 H   0  0  0  0  0  0  0  0  0  0  0  0
  153.4563  144.0063  159.4592 H   0  0  0  0  0  0  0  0  0  0  0  0
  149.2357  144.8437  159.6697 H   0  0  0  0  0  0  0  0  0  0  0  0
  150.1406  137.8584  152.8808 H   0  0  0  0  0  0  0  0  0  0  0  0
  1  2  1  0  0  0  0
  1 23  1  0  0  0  0
  2  3  1  0  0  0  0
  2 24  1  0  0  0  0
  2 25  1  0  0  0  0
  3 11  1  0  0  0  0
  3  4  2  0  0  0  0
  4  5  1  0  0  0  0
  4 37  1  0  0  0  0
  5 10  2  0  0  0  0
  5  6  1  0  0  0  0
  6  7  2  0  0  0  0
  6 26  1  0  0  0  0
  7  8  1  0  0  0  0
  7 27  1  0  0  0  0
  8  9  2  0  0  0  0
  8 28  1  0  0  0  0
  9 10  1  0  0  0  0
  9 29  1  0  0  0  0
 10 11  1  0  0  0  0
 11 12  1  0  0  0  0
 12 13  1  0  0  0  0
 12 30  1  0  0  0  0
 12 31  1  0  0  0  0
 13 14  1  0  0  0  0
 13 15  1  0  0  0  0
 13 32  1  0  0  0  0
 14 33  1  0  0  0  0
 15 21  1  0  0  0  0
 15 16  2  0  0  0  0
 16 17  1  0  0  0  0
 16 34  1  0  0  0  0
 17 18  2  0  0  0  0
 17 35  1  0  0  0  0
 18 19  1  0  0  0  0
 18 20  1  0  0  0  0
 20 21  2  0  0  0  0
 20 36  1  0  0  0  0
 21 22  1  0  0  0  0
M  CHG  1   4   1
M  END
> <s_m_source_file>
AV-unprocessed.smi

> <i_m_source_file_index>
1891

> <i_lp_mmshare_version>
43012

> <i_f3d_flags>
0

> <s_epik_input>
W2NIXTFbY0hdW2NIXVtjSF1jKGMxMiluKGMobjIpW0NIMl1bT0hdKVtDSDJdW0NASF0oW09IXSljM1tjSF1bY0hdYyhGKVtjSF1jM0Y=

> <s_epik_cmdline>
J2VwaWtfcHl0aG9uJywgJy1waCcsICc3LjAnLCAnLXRuJywgJzgnLCAnLW1hJywgJzIwMCcsICctbWV0YWxfYmluZGluZycsICctaW1hZScsICc8aW5maWxlLm1hZT4nLCAnLW9tYWUnLCAnPG91dGZpbGUubWFlPic=

> <r_epik_Ionization_Penalty>
1.35643

> <r_epik_Ionization_Penalty_Charging>
1.35557

> <r_epik_Ionization_Penalty_Neutral>
0.00085758

> <r_epik_State_Penalty>
1.43401

> <r_epik_Charging_Adjusted_Penalty>
2.78958

> <i_epik_Tot_Q>
1

> <i_epik_Tot_abs_Q>
1

> <r_epik_Metal_State_Penalty>
5.47166

> <b_epik_Metal_Only>
0

> <s_lp_Force_Field>
OPLS_2005

> <r_lp_Energy>
14.1785

> <b_lp_Chiralities_Consistent>
1

> <s_lp_Variant>
AV-unprocessed.smi:1891-4

> <Gold.Version>
5.8.1

> <Gold.Id.Protein>
6NUR|6NUR_protein|mol2

> <Gold.PLP.Fitness>
60.2659

> <Gold.PLP.PLP>
-49.6003

> <Gold.PLP.part.hbond>
-4.0000

> <Gold.PLP.part.metal>
0.0000

> <Gold.PLP.part.buried>
0.7569

> <Gold.PLP.part.nonpolar>
-46.0005

> <Gold.PLP.part.repulsive>
0.0833

> <Gold.PLP.ligand.clash>
0.0000

> <Gold.PLP.ligand.torsion>
0.6791

> <Gold.PLP.Chemscore.Hbond>
4.0000

> <Gold.PLP.Chemscore.CHOScore>
0.0000

> <Gold.PLP.Chemscore.Metal>
0.0000

> <Gold.Chemscore.Hbonds>
donor molecule, donor type, donor heavy atom, donor atom, acceptor molecule, acceptor atom, score
      L1  H     1    23       P1  7949  0.59
      L1  H     4    37       P1  7948  0.90
      P1  H 10752 10765       L1     1  0.66

> <Gold.PLP.Chemscore.Internal.Correction>
0.0237

> <Gold.Rescore>
     Score         DG    S(hbond)    S(metal)    S(lipo)     H(rot)  DE(clash)    DE(int)     intcor
     17.55     -19.94       2.63        0.00     112.94       2.95       1.87       0.53       ----

> <Gold.Chemscore.Fitness>
17.5471

> <Gold.Chemscore.DG>
-19.9388

> <Gold.Chemscore.ZeroCoef>
-5.4800

> <Gold.Chemscore.Hbond>
2.6319

> <Gold.Chemscore.Metal>
0.0000

> <Gold.Chemscore.Lipo>
112.9380

> <Gold.Chemscore.Internal_Hbond>
0.0000

> <Gold.Chemscore.DEClash>
1.8657

> <Gold.Chemscore.DEInternal>
0.5260

> <Gold.Chemscore.Rot>
2.9475

> <Gold.Chemscore.Internal.Correction>
   9.000000E+99

> <Gold.Chemscore.Hbonds>
donor molecule, donor type, donor heavy atom, donor atom, acceptor molecule, acceptor atom, score
      L1  H     1    23       P1  7949  0.60
      L1  H     4    37       P1  7948  0.08
      P1  H 10752 10765       L1     1  0.19

> <Gold.Chemscore.Hbond.Weighted>
-8.7907

> <Gold.Chemscore.Metal.Weighted>
-0.0000

> <Gold.Chemscore.Lipo.Weighted>
-13.2137

> <Gold.Chemscore.Internal_Hbond.Weighted>
0.0000

> <Gold.Chemscore.DEClash.Weighted>
1.8657

> <Gold.Chemscore.DEInternal.Weighted>
0.5260

> <Gold.Chemscore.Rot.Weighted>
7.5457

> <Gold.Chemscore.Internal.Correction.Weighted>
   9.000000E+99

> <Gold.Protein.RotatedTorsions>
[ 6907 6896 6895 6894 ] final  -96.32 input  -60.11 | X-H torsion
[ 7974 7965 7964 7962 ] final   86.86 input  175.53 | X-H torsion
[ 8008 7997 7996 7995 ] final   92.30 input   59.86 | X-H torsion
[ 10167 10162 10161 10158 ] final  -26.97 input  -65.29 | X-H torsion
[ 10718 10713 10712 10709 ] final    8.93 input   66.30 | X-H torsion
[ 10763 10752 10751 10750 ] final  157.07 input  -60.55 | X-H torsion
[ 11005 11000 10999 10996 ] final   48.49 input  -57.11 | X-H torsion

> <Gold.Protein.ActiveResidues>
 VAL166  LYS551  ARG553  GLY616  TRP617  ASP618  TYR619  PRO620  LYS621  CYS622 
 ASP623  PHE694  ASN695  SER759  ASP760  ASP761  ALA762  ILE779  LEU786  VAL792 
 PHE793  MET794  SER795  GLU796  ALA797  LYS798  CYS799  TRP800  GLU811  SER814 

> <Gold.Protein.RotatedAtoms>
  150.6986  134.1521  159.4143 H   0  0  0  0  0  0  0  0  0  0  0  0  # atno 6907 bound_to 6896
  151.9503  135.0170  160.0551 H   0  0  0  0  0  0  0  0  0  0  0  0  # atno 6908 bound_to 6896
  152.2016  133.4810  159.5098 H   0  0  0  0  0  0  0  0  0  0  0  0  # atno 6909 bound_to 6896
  145.5667  139.2309  143.2429 H   0  0  0  0  0  0  0  0  0  0  0  0  # atno 7974 bound_to 7965
  156.0337  140.3327  155.7168 H   0  0  0  0  0  0  0  0  0  0  0  0  # atno 8008 bound_to 7997
  155.5847  140.0640  157.2792 H   0  0  0  0  0  0  0  0  0  0  0  0  # atno 8009 bound_to 7997
  154.4364  140.1838  156.1001 H   0  0  0  0  0  0  0  0  0  0  0  0  # atno 8010 bound_to 7997
  140.7280  143.4133  151.1070 H   0  0  0  0  0  0  0  0  0  0  0  0  # atno 10167 bound_to 10162
  156.9588  130.5925  149.5661 H   0  0  0  0  0  0  0  0  0  0  0  0  # atno 10718 bound_to 10713
  154.1943  135.2793  155.3012 H   0  0  0  0  0  0  0  0  0  0  0  0  # atno 10763 bound_to 10752
  154.5904  135.5561  153.7276 H   0  0  0  0  0  0  0  0  0  0  0  0  # atno 10764 bound_to 10752
  153.0104  135.6367  154.2082 H   0  0  0  0  0  0  0  0  0  0  0  0  # atno 10765 bound_to 10752
  140.1186  134.4860  155.8617 H   0  0  0  0  0  0  0  0  0  0  0  0  # atno 11005 bound_to 11000
  146.1813  140.6493  142.9188 LP  0  0  0  0  0  0  0  0  0  0  0  0  # atno 17320 bound_to 7965
  144.7457  140.5061  143.6837 LP  0  0  0  0  0  0  0  0  0  0  0  0  # atno 17321 bound_to 7965
  139.7769  143.8412  152.3131 LP  0  0  0  0  0  0  0  0  0  0  0  0  # atno 17342 bound_to 10162
  139.8349  144.7236  150.9403 LP  0  0  0  0  0  0  0  0  0  0  0  0  # atno 17343 bound_to 10162
  156.0331  130.5421  150.8585 LP  0  0  0  0  0  0  0  0  0  0  0  0  # atno 17370 bound_to 10713
  157.5672  131.0946  150.9472 LP  0  0  0  0  0  0  0  0  0  0  0  0  # atno 17371 bound_to 10713
  141.2146  133.6752  156.6844 LP  0  0  0  0  0  0  0  0  0  0  0  0  # atno 17394 bound_to 11000
  140.2996  134.8175  157.4086 LP  0  0  0  0  0  0  0  0  0  0  0  0  # atno 17395 bound_to 11000

$$$$
