AV-unprocessed.smi:2527|AV-procd|sdf|9945|dock5
  -GOLD-   2272013583D 1   1.00000     0.00000
 Structure written by MMmdl.
 35 37  0  0  0  0  0  0  0  0  2 V2000
  147.1899  142.2694  154.4885 C   0  0  0  0  0  0  0  0  0  0  0  0
  148.4051  141.5430  154.5241 O   0  0  0  0  0  0  0  0  0  0  0  0
  148.9560  141.4647  155.8291 C   0  0  0  0  0  0  0  0  0  0  0  0
  150.3762  142.0473  155.8245 C   0  0  0  0  0  0  0  0  0  0  0  0
  151.2412  141.3864  156.7911 N   0  0  0  0  0  0  0  0  0  0  0  0
  151.8673  140.1893  156.6671 C   0  0  0  0  0  0  0  0  0  0  0  0
  151.7002  139.2135  155.2001 S   0  0  0  0  0  0  0  0  0  0  0  0
  150.5508  137.9349  155.7884 C   0  0  0  0  0  0  0  0  0  0  0  0
  150.6790  137.6262  157.2634 C   0  0  0  0  0  0  0  0  0  0  0  0
  149.5669  137.7484  158.0447 N   0  0  0  0  0  0  0  0  0  0  0  0
  149.9353  137.4191  159.2785 C   0  0  0  0  0  0  0  0  0  0  0  0
  149.1524  137.4278  160.2260 O   0  0  0  0  0  0  0  0  0  0  0  0
  151.2522  137.0970  159.2695 N   0  5  0  0  0  0  0  0  0  0  0  0
  151.7119  137.2440  157.9202 N   0  0  0  0  0  0  0  0  0  0  0  0
  152.6093  139.8228  157.7143 N   0  0  0  0  0  0  0  0  0  0  0  0
  152.4516  140.8763  158.5916 C   0  0  0  0  0  0  0  0  0  0  0  0
  152.9902  141.0858  159.8811 C   0  0  0  0  0  0  0  0  0  0  0  0
  152.6876  142.2619  160.5984 C   0  0  0  0  0  0  0  0  0  0  0  0
  153.3552  142.5031  162.1709 Cl  0  0  0  0  0  0  0  0  0  0  0  0
  151.8434  143.2420  160.0366 C   0  0  0  0  0  0  0  0  0  0  0  0
  151.2953  143.0514  158.7537 C   0  0  0  0  0  0  0  0  0  0  0  0
  151.6006  141.8753  158.0430 C   0  0  0  0  0  0  0  0  0  0  0  0
  148.6499  138.0335  157.7349 H   0  0  0  0  0  0  0  0  0  0  0  0
  146.8126  142.3008  153.4664 H   0  0  0  0  0  0  0  0  0  0  0  0
  147.3343  143.2967  154.8259 H   0  0  0  0  0  0  0  0  0  0  0  0
  146.4305  141.7981  155.1136 H   0  0  0  0  0  0  0  0  0  0  0  0
  148.3323  142.0203  156.5310 H   0  0  0  0  0  0  0  0  0  0  0  0
  148.9782  140.4264  156.1639 H   0  0  0  0  0  0  0  0  0  0  0  0
  150.8177  141.9424  154.8331 H   0  0  0  0  0  0  0  0  0  0  0  0
  150.3522  143.1171  156.0326 H   0  0  0  0  0  0  0  0  0  0  0  0
  149.5305  138.2544  155.5724 H   0  0  0  0  0  0  0  0  0  0  0  0
  150.7228  137.0152  155.2283 H   0  0  0  0  0  0  0  0  0  0  0  0
  153.6386  140.3402  160.3172 H   0  0  0  0  0  0  0  0  0  0  0  0
  151.6168  144.1418  160.5896 H   0  0  0  0  0  0  0  0  0  0  0  0
  150.6519  143.8023  158.3198 H   0  0  0  0  0  0  0  0  0  0  0  0
  1  2  1  0  0  0  0
  1 24  1  0  0  0  0
  1 25  1  0  0  0  0
  1 26  1  0  0  0  0
  2  3  1  0  0  0  0
  3  4  1  0  0  0  0
  3 27  1  0  0  0  0
  3 28  1  0  0  0  0
  4  5  1  0  0  0  0
  4 29  1  0  0  0  0
  4 30  1  0  0  0  0
  5 22  1  0  0  0  0
  5  6  1  0  0  0  0
  6  7  1  0  0  0  0
  6 15  2  0  0  0  0
  7  8  1  0  0  0  0
  8 31  1  0  0  0  0
  8 32  1  0  0  0  0
  8  9  1  0  0  0  0
  9 14  2  0  0  0  0
  9 10  1  0  0  0  0
 10 11  1  0  0  0  0
 10 23  1  0  0  0  0
 11 13  1  0  0  0  0
 11 12  2  0  0  0  0
 13 14  1  0  0  0  0
 15 16  1  0  0  0  0
 16 22  2  0  0  0  0
 16 17  1  0  0  0  0
 17 18  2  0  0  0  0
 17 33  1  0  0  0  0
 18 19  1  0  0  0  0
 18 20  1  0  0  0  0
 20 21  2  0  0  0  0
 20 34  1  0  0  0  0
 21 22  1  0  0  0  0
 21 35  1  0  0  0  0
M  CHG  1  13  -1
M  END
> <s_m_source_file>
AV-unprocessed.smi

> <i_m_source_file_index>
2527

> <i_lp_mmshare_version>
43012

> <i_f3d_flags>
0

> <s_epik_input>
W2NIXTFjKENsKVtjSF1bY0hdYyhjMTIpbihbQ0gyXVtDSDJdT1tDSDNdKWMobjIpU1tDSDJdYzNuYyg9TylbbkhdW25IXTM=

> <s_epik_cmdline>
J2VwaWtfcHl0aG9uJywgJy1waCcsICc3LjAnLCAnLXRuJywgJzgnLCAnLW1hJywgJzIwMCcsICctbWV0YWxfYmluZGluZycsICctaW1hZScsICc8aW5maWxlLm1hZT4nLCAnLW9tYWUnLCAnPG91dGZpbGUubWFlPic=

> <r_lp_tautomer_probability>
0.999897

> <r_epik_Ionization_Penalty>
2.94119

> <r_epik_Ionization_Penalty_Charging>
1.40065e-06

> <r_epik_Ionization_Penalty_Neutral>
2.94119

> <r_epik_State_Penalty>
4.57578

> <r_epik_Charging_Adjusted_Penalty>
4.57578

> <i_epik_Tot_Q>
-1

> <i_epik_Tot_abs_Q>
1

> <r_epik_Metal_State_Penalty>
2.1052

> <b_epik_Metal_Only>
1

> <s_lp_Force_Field>
OPLS_2005

> <r_lp_Energy>
14.3955

> <b_lp_Chiralities_Consistent>
1

> <s_lp_Variant>
AV-unprocessed.smi:2527-4

> <Gold.Version>
5.8.1

> <Gold.Id.Protein>
6NUR|6NUR_protein|mol2

> <Gold.PLP.Fitness>
49.0798

> <Gold.PLP.PLP>
-41.3021

> <Gold.PLP.part.hbond>
-3.0000

> <Gold.PLP.part.metal>
0.0000

> <Gold.PLP.part.buried>
-6.7269

> <Gold.PLP.part.nonpolar>
-31.9525

> <Gold.PLP.part.repulsive>
0.2291

> <Gold.PLP.ligand.clash>
0.0000

> <Gold.PLP.ligand.torsion>
1.2459

> <Gold.PLP.Chemscore.Hbond>
3.3988

> <Gold.PLP.Chemscore.CHOScore>
0.0000

> <Gold.PLP.Chemscore.Metal>
0.0000

> <Gold.Chemscore.Hbonds>
donor molecule, donor type, donor heavy atom, donor atom, acceptor molecule, acceptor atom, score
      P1  H  6896  6908       L1    13  1.82
      P1  H  6931  6943       L1    12  0.38
      P1  H  7997  8009       L1    15  0.79

> <Gold.PLP.Chemscore.Internal.Correction>
0.0730

> <Gold.Rescore>
     Score         DG    S(hbond)    S(metal)    S(lipo)     H(rot)  DE(clash)    DE(int)     intcor
     13.38     -14.69       1.67        0.00      92.65       2.81       0.00       1.31       ----

> <Gold.Chemscore.Fitness>
13.3819

> <Gold.Chemscore.DG>
-14.6920

> <Gold.Chemscore.ZeroCoef>
-5.4800

> <Gold.Chemscore.Hbond>
1.6656

> <Gold.Chemscore.Metal>
0.0000

> <Gold.Chemscore.Lipo>
92.6542

> <Gold.Chemscore.Internal_Hbond>
0.0000

> <Gold.Chemscore.DEClash>
0.0000

> <Gold.Chemscore.DEInternal>
1.3101

> <Gold.Chemscore.Rot>
2.8092

> <Gold.Chemscore.Internal.Correction>
   9.000000E+99

> <Gold.Chemscore.Hbonds>
donor molecule, donor type, donor heavy atom, donor atom, acceptor molecule, acceptor atom, score
      P1  H  6896  6908       L1    13  0.53
      P1  H  6931  6943       L1    12  0.38
      P1  H  7997  8009       L1    15  0.13

> <Gold.Chemscore.Hbond.Weighted>
-5.5631

> <Gold.Chemscore.Metal.Weighted>
-0.0000

> <Gold.Chemscore.Lipo.Weighted>
-10.8405

> <Gold.Chemscore.Internal_Hbond.Weighted>
0.0000

> <Gold.Chemscore.DEClash.Weighted>
0.0000

> <Gold.Chemscore.DEInternal.Weighted>
1.3101

> <Gold.Chemscore.Rot.Weighted>
7.1916

> <Gold.Chemscore.Internal.Correction.Weighted>
   9.000000E+99

> <Gold.Protein.RotatedTorsions>
[ 6907 6896 6895 6894 ] final -122.85 input  -60.11 | X-H torsion
[ 7974 7965 7964 7962 ] final  122.17 input  175.53 | X-H torsion
[ 8008 7997 7996 7995 ] final  153.17 input   59.86 | X-H torsion
[ 10167 10162 10161 10158 ] final   11.72 input  -65.29 | X-H torsion
[ 10718 10713 10712 10709 ] final  -16.24 input   66.30 | X-H torsion
[ 10763 10752 10751 10750 ] final  -56.17 input  -60.55 | X-H torsion
[ 11005 11000 10999 10996 ] final -155.40 input  -57.11 | X-H torsion

> <Gold.Protein.ActiveResidues>
 VAL166  LYS551  ARG553  GLY616  TRP617  ASP618  TYR619  PRO620  LYS621  CYS622 
 ASP623  PHE694  ASN695  SER759  ASP760  ASP761  ALA762  ILE779  LEU786  VAL792 
 PHE793  MET794  SER795  GLU796  ALA797  LYS798  CYS799  TRP800  GLU811  SER814 

> <Gold.Protein.RotatedAtoms>
  150.8615  133.7636  159.2990 H   0  0  0  0  0  0  0  0  0  0  0  0  # atno 6907 bound_to 6896
  151.5277  135.1066  159.9904 H   0  0  0  0  0  0  0  0  0  0  0  0  # atno 6908 bound_to 6896
  152.4630  133.7818  159.6910 H   0  0  0  0  0  0  0  0  0  0  0  0  # atno 6909 bound_to 6896
  145.1107  139.3455  143.4764 H   0  0  0  0  0  0  0  0  0  0  0  0  # atno 7974 bound_to 7965
  156.2594  140.2001  156.6448 H   0  0  0  0  0  0  0  0  0  0  0  0  # atno 8008 bound_to 7997
  154.6581  140.0564  157.0057 H   0  0  0  0  0  0  0  0  0  0  0  0  # atno 8009 bound_to 7997
  155.1316  140.3234  155.4475 H   0  0  0  0  0  0  0  0  0  0  0  0  # atno 8010 bound_to 7997
  140.6114  143.8400  150.7069 H   0  0  0  0  0  0  0  0  0  0  0  0  # atno 10167 bound_to 10162
  156.5904  130.4797  149.6282 H   0  0  0  0  0  0  0  0  0  0  0  0  # atno 10718 bound_to 10713
  154.2025  135.6408  153.5091 H   0  0  0  0  0  0  0  0  0  0  0  0  # atno 10763 bound_to 10752
  153.0008  135.5454  154.6301 H   0  0  0  0  0  0  0  0  0  0  0  0  # atno 10764 bound_to 10752
  154.5717  135.2917  155.0794 H   0  0  0  0  0  0  0  0  0  0  0  0  # atno 10765 bound_to 10752
  140.6869  134.4084  157.5222 H   0  0  0  0  0  0  0  0  0  0  0  0  # atno 11005 bound_to 11000
  146.3526  140.1025  142.8607 LP  0  0  0  0  0  0  0  0  0  0  0  0  # atno 17320 bound_to 7965
  145.0850  140.9246  143.4803 LP  0  0  0  0  0  0  0  0  0  0  0  0  # atno 17321 bound_to 7965
  140.1969  143.3991  152.1821 LP  0  0  0  0  0  0  0  0  0  0  0  0  # atno 17342 bound_to 10162
  139.5364  144.7214  151.4879 LP  0  0  0  0  0  0  0  0  0  0  0  0  # atno 17343 bound_to 10162
  156.2555  130.6932  151.1683 LP  0  0  0  0  0  0  0  0  0  0  0  0  # atno 17370 bound_to 10713
  157.7305  131.0616  150.5723 LP  0  0  0  0  0  0  0  0  0  0  0  0  # atno 17371 bound_to 10713
  139.8935  134.8729  156.2221 LP  0  0  0  0  0  0  0  0  0  0  0  0  # atno 17394 bound_to 11000
  141.0273  133.7008  156.1369 LP  0  0  0  0  0  0  0  0  0  0  0  0  # atno 17395 bound_to 11000

$$$$
