AV-unprocessed.smi:630|AV-procd|sdf|3118|dock1
  -GOLD-   22720 0 43D 1   1.00000     0.00000
 Structure written by MMmdl.
 37 38  0  0  0  0  0  0  0  0  1 V2000
  150.0936  135.8157  156.3322 N   0  0  0  0  0  0  0  0  0  0  0  0
  150.3562  136.7256  155.3903 C   0  0  0  0  0  0  0  0  0  0  0  0
  151.3211  136.6191  154.6346 O   0  0  0  0  0  0  0  0  0  0  0  0
  149.4058  137.9354  155.2947 C   0  0  1  0  0  0  0  0  0  0  0  0
  149.8657  138.9045  154.1766 C   0  0  0  0  0  0  0  0  0  0  0  0
  149.3546  140.3415  154.3813 C   0  0  0  0  0  0  0  0  0  0  0  0
  147.9573  140.6459  153.8116 C   0  0  0  0  0  0  0  0  0  0  0  0
  146.9061  139.5249  153.8950 C   0  0  0  0  0  0  0  0  0  0  0  0
  146.9257  138.6810  155.1853 C   0  0  0  0  0  0  0  0  0  0  0  0
  147.9216  137.4955  155.1749 C   0  0  1  0  0  0  0  0  0  0  0  0
  147.6985  136.6206  154.0192 N   0  0  0  0  0  0  0  0  0  0  0  0
  146.5932  135.8993  153.7841 C   0  0  0  0  0  0  0  0  0  0  0  0
  145.6080  135.9031  154.5229 O   0  0  0  0  0  0  0  0  0  0  0  0
  146.7138  135.1869  152.6506 N   0  0  0  0  0  0  0  0  0  0  0  0
  145.7721  134.3014  152.0648 C   0  0  0  0  0  0  0  0  0  0  0  0
  144.4610  134.5501  151.9665 N   0  0  0  0  0  0  0  0  0  0  0  0
  143.7742  133.5022  151.3481 C   0  0  0  0  0  0  0  0  0  0  0  0
  144.5840  132.4573  150.9782 C   0  0  0  0  0  0  0  0  0  0  0  0
  146.2514  132.7487  151.3950 S   0  0  0  0  0  0  0  0  0  0  0  0
  150.6891  135.0057  156.4246 H   0  0  0  0  0  0  0  0  0  0  0  0
  149.2999  135.9364  156.9447 H   0  0  0  0  0  0  0  0  0  0  0  0
  149.5063  138.4668  156.2428 H   0  0  0  0  0  0  0  0  0  0  0  0
  150.9563  138.9494  154.1779 H   0  0  0  0  0  0  0  0  0  0  0  0
  149.5905  138.5350  153.1879 H   0  0  0  0  0  0  0  0  0  0  0  0
  149.3761  140.5892  155.4431 H   0  0  0  0  0  0  0  0  0  0  0  0
  150.0583  141.0341  153.9179 H   0  0  0  0  0  0  0  0  0  0  0  0
  147.5730  141.5313  154.3196 H   0  0  0  0  0  0  0  0  0  0  0  0
  148.0567  140.9344  152.7646 H   0  0  0  0  0  0  0  0  0  0  0  0
  145.9239  139.9889  153.8005 H   0  0  0  0  0  0  0  0  0  0  0  0
  146.9926  138.8838  153.0182 H   0  0  0  0  0  0  0  0  0  0  0  0
  147.1018  139.3201  156.0512 H   0  0  0  0  0  0  0  0  0  0  0  0
  145.9246  138.2731  155.3308 H   0  0  0  0  0  0  0  0  0  0  0  0
  147.7099  136.9068  156.0701 H   0  0  0  0  0  0  0  0  0  0  0  0
  148.4586  136.5473  153.3587 H   0  0  0  0  0  0  0  0  0  0  0  0
  147.5835  135.2873  152.1488 H   0  0  0  0  0  0  0  0  0  0  0  0
  142.7062  133.5834  151.2102 H   0  0  0  0  0  0  0  0  0  0  0  0
  144.3011  131.5377  150.4878 H   0  0  0  0  0  0  0  0  0  0  0  0
  1  2  1  0  0  0  0
  1 20  1  0  0  0  0
  1 21  1  0  0  0  0
  2  3  2  0  0  0  0
  2  4  1  0  0  0  0
  4 10  1  0  0  0  0
  4  5  1  0  0  0  0
  4 22  1  0  0  0  0
  5  6  1  0  0  0  0
  5 23  1  0  0  0  0
  5 24  1  0  0  0  0
  6  7  1  0  0  0  0
  6 25  1  0  0  0  0
  6 26  1  0  0  0  0
  7  8  1  0  0  0  0
  7 27  1  0  0  0  0
  7 28  1  0  0  0  0
  8  9  1  0  0  0  0
  8 29  1  0  0  0  0
  8 30  1  0  0  0  0
  9 10  1  0  0  0  0
  9 31  1  0  0  0  0
  9 32  1  0  0  0  0
 10 11  1  0  0  0  0
 10 33  1  0  0  0  0
 11 12  1  0  0  0  0
 11 34  1  0  0  0  0
 12 13  2  0  0  0  0
 12 14  1  0  0  0  0
 14 15  1  0  0  0  0
 14 35  1  0  0  0  0
 15 19  1  0  0  0  0
 15 16  2  0  0  0  0
 16 17  1  0  0  0  0
 17 18  2  0  0  0  0
 17 36  1  0  0  0  0
 18 19  1  0  0  0  0
 18 37  1  0  0  0  0
M  END
> <s_m_source_file>
AV-unprocessed.smi

> <i_m_source_file_index>
630

> <i_lp_mmshare_version>
43012

> <i_f3d_flags>
0

> <s_epik_input>
W05IMl1DKD1PKVtDQEBIXTFbQ0gyXVtDSDJdW0NIMl1bQ0gyXVtDSDJdW0NASF0xW05IXUMoPU8pW05IXWMybltjSF1bY0hdczI=

> <s_epik_cmdline>
J2VwaWtfcHl0aG9uJywgJy1waCcsICc3LjAnLCAnLXRuJywgJzgnLCAnLW1hJywgJzIwMCcsICctbWV0YWxfYmluZGluZycsICctaW1hZScsICc8aW5maWxlLm1hZT4nLCAnLW9tYWUnLCAnPG91dGZpbGUubWFlPic=

> <r_lp_tautomer_probability>
0.999

> <r_epik_Ionization_Penalty>
0.000342689

> <r_epik_Ionization_Penalty_Charging>
0

> <r_epik_Ionization_Penalty_Neutral>
0.000342689

> <r_epik_State_Penalty>
0.000177984

> <r_epik_Charging_Adjusted_Penalty>
0.000177984

> <i_epik_Tot_Q>
0

> <i_epik_Tot_abs_Q>
0

> <r_epik_Metal_State_Penalty>
0.00743087

> <b_epik_Metal_Only>
0

> <s_lp_Force_Field>
OPLS_2005

> <r_lp_Energy>
14.0273

> <b_lp_Chiralities_Consistent>
1

> <s_lp_Variant>
AV-unprocessed.smi:630-2

> <Gold.Version>
5.8.1

> <Gold.Id.Protein>
6NUR|6NUR_protein|mol2

> <Gold.PLP.Fitness>
35.5941

> <Gold.PLP.PLP>
-24.4962

> <Gold.PLP.part.hbond>
-3.0000

> <Gold.PLP.part.metal>
0.0000

> <Gold.PLP.part.buried>
-2.7034

> <Gold.PLP.part.nonpolar>
-19.0330

> <Gold.PLP.part.repulsive>
0.3916

> <Gold.PLP.ligand.clash>
0.0000

> <Gold.PLP.ligand.torsion>
0.4802

> <Gold.PLP.Chemscore.Hbond>
2.9840

> <Gold.PLP.Chemscore.CHOScore>
1.0000

> <Gold.PLP.Chemscore.Metal>
0.0000

> <Gold.Chemscore.Hbonds>
donor molecule, donor type, donor heavy atom, donor atom, acceptor molecule, acceptor atom, score
      L1  H    11    34       P1  7948  0.99
      L1  H    14    35       P1  7948  0.98
      P1  H 10752 10764       L1     3  1.00
      L1  C    17    36       P1 10186  1.00

> <Gold.PLP.Chemscore.Internal.Correction>
0.1064

> <Gold.Rescore>
     Score         DG    S(hbond)    S(metal)    S(lipo)     H(rot)  DE(clash)    DE(int)     intcor
     16.67     -17.56       2.92        0.00      53.09       1.52       0.37       0.52       ----

> <Gold.Chemscore.Fitness>
16.6653

> <Gold.Chemscore.DG>
-17.5565

> <Gold.Chemscore.ZeroCoef>
-5.4800

> <Gold.Chemscore.Hbond>
2.9197

> <Gold.Chemscore.Metal>
0.0000

> <Gold.Chemscore.Lipo>
53.0915

> <Gold.Chemscore.Internal_Hbond>
0.0000

> <Gold.Chemscore.DEClash>
0.3744

> <Gold.Chemscore.DEInternal>
0.5168

> <Gold.Chemscore.Rot>
1.5184

> <Gold.Chemscore.Internal.Correction>
   9.000000E+99

> <Gold.Chemscore.Hbonds>
donor molecule, donor type, donor heavy atom, donor atom, acceptor molecule, acceptor atom, score
      L1  H    11    34       P1  7948  0.93
      L1  H    14    35       P1  7948  0.92
      P1  H 10752 10764       L1     3  1.00

> <Gold.Chemscore.Hbond.Weighted>
-9.7519

> <Gold.Chemscore.Metal.Weighted>
-0.0000

> <Gold.Chemscore.Lipo.Weighted>
-6.2117

> <Gold.Chemscore.Internal_Hbond.Weighted>
0.0000

> <Gold.Chemscore.DEClash.Weighted>
0.3744

> <Gold.Chemscore.DEInternal.Weighted>
0.5168

> <Gold.Chemscore.Rot.Weighted>
3.8872

> <Gold.Chemscore.Internal.Correction.Weighted>
   9.000000E+99

> <Gold.Protein.RotatedTorsions>
[ 6907 6896 6895 6894 ] final  174.07 input  -60.11 | X-H torsion
[ 7974 7965 7964 7962 ] final  -49.57 input  175.53 | X-H torsion
[ 8008 7997 7996 7995 ] final -137.74 input   59.86 | X-H torsion
[ 10167 10162 10161 10158 ] final  141.20 input  -65.29 | X-H torsion
[ 10718 10713 10712 10709 ] final  100.69 input   66.30 | X-H torsion
[ 10763 10752 10751 10750 ] final  -78.90 input  -60.55 | X-H torsion
[ 11005 11000 10999 10996 ] final  146.60 input  -57.11 | X-H torsion

> <Gold.Protein.ActiveResidues>
 VAL166  LYS551  ARG553  GLY616  TRP617  ASP618  TYR619  PRO620  LYS621  CYS622 
 ASP623  PHE694  ASN695  SER759  ASP760  ASP761  ALA762  ILE779  LEU786  VAL792 
 PHE793  MET794  SER795  GLU796  ALA797  LYS798  CYS799  TRP800  GLU811  SER814 

> <Gold.Protein.RotatedAtoms>
  151.7581  133.3332  159.3409 H   0  0  0  0  0  0  0  0  0  0  0  0  # atno 6907 bound_to 6896
  150.7508  134.6130  159.6106 H   0  0  0  0  0  0  0  0  0  0  0  0  # atno 6908 bound_to 6896
  152.3423  134.7119  160.0311 H   0  0  0  0  0  0  0  0  0  0  0  0  # atno 6909 bound_to 6896
  145.9392  140.7678  142.9561 H   0  0  0  0  0  0  0  0  0  0  0  0  # atno 7974 bound_to 7965
  155.4168  140.0516  157.3028 H   0  0  0  0  0  0  0  0  0  0  0  0  # atno 8008 bound_to 7997
  154.4921  140.2124  155.9486 H   0  0  0  0  0  0  0  0  0  0  0  0  # atno 8009 bound_to 7997
  156.1356  140.3164  155.8420 H   0  0  0  0  0  0  0  0  0  0  0  0  # atno 8010 bound_to 7997
  139.5027  144.6186  151.6104 H   0  0  0  0  0  0  0  0  0  0  0  0  # atno 10167 bound_to 10162
  157.6848  131.0705  150.5139 H   0  0  0  0  0  0  0  0  0  0  0  0  # atno 10718 bound_to 10713
  154.5318  135.5714  153.6765 H   0  0  0  0  0  0  0  0  0  0  0  0  # atno 10763 bound_to 10752
  152.9941  135.6206  154.2618 H   0  0  0  0  0  0  0  0  0  0  0  0  # atno 10764 bound_to 10752
  154.2545  135.2858  155.2783 H   0  0  0  0  0  0  0  0  0  0  0  0  # atno 10765 bound_to 10752
  140.0806  134.9099  157.1495 H   0  0  0  0  0  0  0  0  0  0  0  0  # atno 11005 bound_to 11000
  144.6776  140.2252  143.7362 LP  0  0  0  0  0  0  0  0  0  0  0  0  # atno 17320 bound_to 7965
  145.8323  139.2091  143.1875 LP  0  0  0  0  0  0  0  0  0  0  0  0  # atno 17321 bound_to 7965
  140.5882  143.9826  150.6308 LP  0  0  0  0  0  0  0  0  0  0  0  0  # atno 17342 bound_to 10162
  140.2998  143.3268  152.0982 LP  0  0  0  0  0  0  0  0  0  0  0  0  # atno 17343 bound_to 10162
  156.5455  130.4218  149.6133 LP  0  0  0  0  0  0  0  0  0  0  0  0  # atno 17370 bound_to 10713
  156.2948  130.7144  151.2002 LP  0  0  0  0  0  0  0  0  0  0  0  0  # atno 17371 bound_to 10713
  140.3493  134.2616  155.7200 LP  0  0  0  0  0  0  0  0  0  0  0  0  # atno 17394 bound_to 11000
  141.2045  133.7884  157.0282 LP  0  0  0  0  0  0  0  0  0  0  0  0  # atno 17395 bound_to 11000

$$$$
