AV-unprocessed.smi:845|AV-procd|sdf|3929|dock2
  -GOLD-   22720 1393D 1   1.00000     0.00000
 Structure written by MMmdl.
 42 43  0  0  0  0  0  0  0  0  1 V2000
  146.9963  141.1753  153.9415 C   0  0  0  0  0  0  0  0  0  0  0  0
  148.0337  140.4594  154.8265 C   0  0  0  0  0  0  0  0  0  0  0  0
  149.2827  141.3335  155.0510 C   0  0  0  0  0  0  0  0  0  0  0  0
  148.3547  138.9878  154.3725 C   0  0  2  0  0  0  0  0  0  0  0  0
  147.0987  138.0652  154.4773 C   0  0  0  0  0  0  0  0  0  0  0  0
  147.0669  137.0127  153.4697 N   0  0  0  0  0  0  0  0  0  0  0  0
  146.0032  136.2492  153.1850 C   0  0  0  0  0  0  0  0  0  0  0  0
  144.9257  136.3365  153.7746 O   0  0  0  0  0  0  0  0  0  0  0  0
  146.2744  135.3962  152.1818 N   0  0  0  0  0  0  0  0  0  0  0  0
  145.4054  134.4554  151.5697 C   0  0  0  0  0  0  0  0  0  0  0  0
  144.0698  134.5088  151.6326 N   0  0  0  0  0  0  0  0  0  0  0  0
  143.4696  133.4567  150.9362 C   0  0  0  0  0  0  0  0  0  0  0  0
  144.3698  132.6055  150.3451 C   0  0  0  0  0  0  0  0  0  0  0  0
  146.0167  133.0950  150.6403 S   0  0  0  0  0  0  0  0  0  0  0  0
  149.5584  138.4329  155.0511 N   0  0  0  0  0  0  0  0  0  0  0  0
  149.5644  136.9668  155.1398 C   0  0  0  0  0  0  0  0  0  0  0  0
  150.8227  136.4110  155.8292 C   0  0  0  0  0  0  0  0  0  0  0  0
  151.9831  136.8533  155.1403 O   0  0  0  0  0  0  0  0  0  0  0  0
  152.0626  138.2702  155.0906 C   0  0  0  0  0  0  0  0  0  0  0  0
  150.8127  138.8336  154.3927 C   0  0  0  0  0  0  0  0  0  0  0  0
  147.3858  141.4013  152.9493 H   0  0  0  0  0  0  0  0  0  0  0  0
  146.6910  142.1213  154.3895 H   0  0  0  0  0  0  0  0  0  0  0  0
  146.0992  140.5676  153.8194 H   0  0  0  0  0  0  0  0  0  0  0  0
  147.5763  140.4403  155.8094 H   0  0  0  0  0  0  0  0  0  0  0  0
  149.7663  141.6327  154.1233 H   0  0  0  0  0  0  0  0  0  0  0  0
  150.0204  140.8173  155.6655 H   0  0  0  0  0  0  0  0  0  0  0  0
  149.0159  142.2528  155.5731 H   0  0  0  0  0  0  0  0  0  0  0  0
  148.5951  139.0322  153.3091 H   0  0  0  0  0  0  0  0  0  0  0  0
  147.0867  137.5287  155.4252 H   0  0  0  0  0  0  0  0  0  0  0  0
  146.1872  138.6650  154.4467 H   0  0  0  0  0  0  0  0  0  0  0  0
  147.9117  136.8711  152.9355 H   0  0  0  0  0  0  0  0  0  0  0  0
  147.2085  135.4337  151.8010 H   0  0  0  0  0  0  0  0  0  0  0  0
  142.3919  133.3902  150.9129 H   0  0  0  0  0  0  0  0  0  0  0  0
  144.1644  131.7242  149.7560 H   0  0  0  0  0  0  0  0  0  0  0  0
  148.7147  136.6160  155.7236 H   0  0  0  0  0  0  0  0  0  0  0  0
  149.4724  136.5331  154.1428 H   0  0  0  0  0  0  0  0  0  0  0  0
  150.8646  136.7306  156.8717 H   0  0  0  0  0  0  0  0  0  0  0  0
  150.8038  135.3210  155.8294 H   0  0  0  0  0  0  0  0  0  0  0  0
  152.1589  138.6754  156.0992 H   0  0  0  0  0  0  0  0  0  0  0  0
  152.9615  138.5554  154.5440 H   0  0  0  0  0  0  0  0  0  0  0  0
  150.8044  138.4990  153.3544 H   0  0  0  0  0  0  0  0  0  0  0  0
  150.9340  139.9122  154.3641 H   0  0  0  0  0  0  0  0  0  0  0  0
  1  2  1  0  0  0  0
  1 21  1  0  0  0  0
  1 22  1  0  0  0  0
  1 23  1  0  0  0  0
  2  3  1  0  0  0  0
  2  4  1  0  0  0  0
  2 24  1  0  0  0  0
  3 25  1  0  0  0  0
  3 26  1  0  0  0  0
  3 27  1  0  0  0  0
  4  5  1  0  0  0  0
  4 15  1  0  0  0  0
  4 28  1  0  0  0  0
  5  6  1  0  0  0  0
  5 29  1  0  0  0  0
  5 30  1  0  0  0  0
  6  7  1  0  0  0  0
  6 31  1  0  0  0  0
  7  8  2  0  0  0  0
  7  9  1  0  0  0  0
  9 10  1  0  0  0  0
  9 32  1  0  0  0  0
 10 14  1  0  0  0  0
 10 11  2  0  0  0  0
 11 12  1  0  0  0  0
 12 13  2  0  0  0  0
 12 33  1  0  0  0  0
 13 14  1  0  0  0  0
 13 34  1  0  0  0  0
 15 20  1  0  0  0  0
 15 16  1  0  0  0  0
 16 17  1  0  0  0  0
 16 35  1  0  0  0  0
 16 36  1  0  0  0  0
 17 18  1  0  0  0  0
 17 37  1  0  0  0  0
 17 38  1  0  0  0  0
 18 19  1  0  0  0  0
 19 20  1  0  0  0  0
 19 39  1  0  0  0  0
 19 40  1  0  0  0  0
 20 41  1  0  0  0  0
 20 42  1  0  0  0  0
M  END
> <s_m_source_file>
AV-unprocessed.smi

> <i_m_source_file_index>
845

> <i_lp_mmshare_version>
43012

> <i_f3d_flags>
0

> <s_epik_input>
W0NIMl0xW0NIMl1PW0NIMl1bQ0gyXU4xW0NASF0oW0NIXShbQ0gzXSlbQ0gzXSlbQ0gyXVtOSF1DKD1PKVtOSF1jMm5bY0hdW2NIXXMy

> <s_epik_cmdline>
J2VwaWtfcHl0aG9uJywgJy1waCcsICc3LjAnLCAnLXRuJywgJzgnLCAnLW1hJywgJzIwMCcsICctbWV0YWxfYmluZGluZycsICctaW1hZScsICc8aW5maWxlLm1hZT4nLCAnLW9tYWUnLCAnPG91dGZpbGUubWFlPic=

> <r_lp_tautomer_probability>
0.999

> <r_epik_Ionization_Penalty>
0.423897

> <r_epik_Ionization_Penalty_Charging>
0

> <r_epik_Ionization_Penalty_Neutral>
0.423897

> <r_epik_State_Penalty>
0.424384

> <r_epik_Charging_Adjusted_Penalty>
0.424384

> <i_epik_Tot_Q>
0

> <i_epik_Tot_abs_Q>
0

> <r_epik_Metal_State_Penalty>
0.434476

> <b_epik_Metal_Only>
0

> <s_lp_Force_Field>
OPLS_2005

> <r_lp_Energy>
36.4292

> <b_lp_Chiralities_Consistent>
1

> <s_lp_Variant>
AV-unprocessed.smi:845-3

> <Gold.Version>
5.8.1

> <Gold.Id.Protein>
6NUR|6NUR_protein|mol2

> <Gold.PLP.Fitness>
40.7802

> <Gold.PLP.PLP>
-31.4348

> <Gold.PLP.part.hbond>
-2.8627

> <Gold.PLP.part.metal>
0.0000

> <Gold.PLP.part.buried>
-5.2417

> <Gold.PLP.part.nonpolar>
-24.2364

> <Gold.PLP.part.repulsive>
0.4083

> <Gold.PLP.ligand.clash>
0.0000

> <Gold.PLP.ligand.torsion>
1.3760

> <Gold.PLP.Chemscore.Hbond>
2.9120

> <Gold.PLP.Chemscore.CHOScore>
1.0000

> <Gold.PLP.Chemscore.Metal>
0.0000

> <Gold.Chemscore.Hbonds>
donor molecule, donor type, donor heavy atom, donor atom, acceptor molecule, acceptor atom, score
      L1  H     6    31       P1  7948  1.00
      L1  H     9    32       P1  7948  0.99
      P1  H 10752 10763       L1    18  1.00
      L1  C    12    33       P1 10186  0.97

> <Gold.PLP.Chemscore.Internal.Correction>
0.3615

> <Gold.Rescore>
     Score         DG    S(hbond)    S(metal)    S(lipo)     H(rot)  DE(clash)    DE(int)     intcor
     16.46     -19.39       2.88        0.00      75.11       1.75       0.04       2.89       ----

> <Gold.Chemscore.Fitness>
16.4627

> <Gold.Chemscore.DG>
-19.3896

> <Gold.Chemscore.ZeroCoef>
-5.4800

> <Gold.Chemscore.Hbond>
2.8755

> <Gold.Chemscore.Metal>
0.0000

> <Gold.Chemscore.Lipo>
75.1081

> <Gold.Chemscore.Internal_Hbond>
0.0000

> <Gold.Chemscore.DEClash>
0.0368

> <Gold.Chemscore.DEInternal>
2.8900

> <Gold.Chemscore.Rot>
1.7509

> <Gold.Chemscore.Internal.Correction>
   9.000000E+99

> <Gold.Chemscore.Hbonds>
donor molecule, donor type, donor heavy atom, donor atom, acceptor molecule, acceptor atom, score
      L1  H     6    31       P1  7948  0.99
      L1  H     9    32       P1  7948  0.93
      P1  H 10752 10763       L1    18  0.79

> <Gold.Chemscore.Hbond.Weighted>
-9.6042

> <Gold.Chemscore.Metal.Weighted>
-0.0000

> <Gold.Chemscore.Lipo.Weighted>
-8.7876

> <Gold.Chemscore.Internal_Hbond.Weighted>
0.0000

> <Gold.Chemscore.DEClash.Weighted>
0.0368

> <Gold.Chemscore.DEInternal.Weighted>
2.8900

> <Gold.Chemscore.Rot.Weighted>
4.4823

> <Gold.Chemscore.Internal.Correction.Weighted>
   9.000000E+99

> <Gold.Protein.RotatedTorsions>
[ 6907 6896 6895 6894 ] final    1.52 input  -60.11 | X-H torsion
[ 7974 7965 7964 7962 ] final   70.02 input  175.53 | X-H torsion
[ 8008 7997 7996 7995 ] final -126.77 input   59.86 | X-H torsion
[ 10167 10162 10161 10158 ] final   96.96 input  -65.29 | X-H torsion
[ 10718 10713 10712 10709 ] final   87.07 input   66.30 | X-H torsion
[ 10763 10752 10751 10750 ] final   66.80 input  -60.55 | X-H torsion
[ 11005 11000 10999 10996 ] final  151.63 input  -57.11 | X-H torsion

> <Gold.Protein.ActiveResidues>
 VAL166  LYS551  ARG553  GLY616  TRP617  ASP618  TYR619  PRO620  LYS621  CYS622 
 ASP623  PHE694  ASN695  SER759  ASP760  ASP761  ALA762  ILE779  LEU786  VAL792 
 PHE793  MET794  SER795  GLU796  ALA797  LYS798  CYS799  TRP800  GLU811  SER814 

> <Gold.Protein.RotatedAtoms>
  151.5940  135.1051  160.0045 H   0  0  0  0  0  0  0  0  0  0  0  0  # atno 6907 bound_to 6896
  152.4292  133.7243  159.6562 H   0  0  0  0  0  0  0  0  0  0  0  0  # atno 6908 bound_to 6896
  150.8183  133.8227  159.3173 H   0  0  0  0  0  0  0  0  0  0  0  0  # atno 6909 bound_to 6896
  145.7832  139.2898  143.1253 H   0  0  0  0  0  0  0  0  0  0  0  0  # atno 7974 bound_to 7965
  155.2352  140.0426  157.2967 H   0  0  0  0  0  0  0  0  0  0  0  0  # atno 8008 bound_to 7997
  154.5863  140.2414  155.7953 H   0  0  0  0  0  0  0  0  0  0  0  0  # atno 8009 bound_to 7997
  156.2228  140.2964  156.0003 H   0  0  0  0  0  0  0  0  0  0  0  0  # atno 8010 bound_to 7997
  139.7845  144.6875  150.9976 H   0  0  0  0  0  0  0  0  0  0  0  0  # atno 10167 bound_to 10162
  157.6936  131.0241  150.3068 H   0  0  0  0  0  0  0  0  0  0  0  0  # atno 10718 bound_to 10713
  153.0156  135.5307  154.6879 H   0  0  0  0  0  0  0  0  0  0  0  0  # atno 10763 bound_to 10752
  154.6022  135.2869  155.0525 H   0  0  0  0  0  0  0  0  0  0  0  0  # atno 10764 bound_to 10752
  154.1578  135.6552  153.5031 H   0  0  0  0  0  0  0  0  0  0  0  0  # atno 10765 bound_to 10752
  140.1236  134.8847  157.2107 H   0  0  0  0  0  0  0  0  0  0  0  0  # atno 11005 bound_to 11000
  146.0052  140.8484  142.9998 LP  0  0  0  0  0  0  0  0  0  0  0  0  # atno 17320 bound_to 7965
  144.6793  140.2410  143.7343 LP  0  0  0  0  0  0  0  0  0  0  0  0  # atno 17321 bound_to 7965
  140.7819  143.4446  151.0501 LP  0  0  0  0  0  0  0  0  0  0  0  0  # atno 17342 bound_to 10162
  139.8126  143.7930  152.3172 LP  0  0  0  0  0  0  0  0  0  0  0  0  # atno 17343 bound_to 10162
  156.3576  130.3841  149.7278 LP  0  0  0  0  0  0  0  0  0  0  0  0  # atno 17370 bound_to 10713
  156.4735  130.8008  151.3025 LP  0  0  0  0  0  0  0  0  0  0  0  0  # atno 17371 bound_to 10713
  140.2933  134.3216  155.7309 LP  0  0  0  0  0  0  0  0  0  0  0  0  # atno 17394 bound_to 11000
  141.2157  133.7547  156.9534 LP  0  0  0  0  0  0  0  0  0  0  0  0  # atno 17395 bound_to 11000

$$$$
