AV-unprocessed.smi:193|AV-procd|sdf|1514|dock10
  -GOLD-   2262019353D 1   1.00000     0.00000
 Structure written by MMmdl.
 61 65  0  0  0  0  0  0  0  0  1 V2000
  153.7463  139.1348  159.3149 C   0  0  0  0  0  0  0  0  0  0  0  0
  153.6690  140.5045  160.0048 C   0  0  2  0  0  0  0  0  0  0  0  0
  153.9854  140.3397  161.5090 C   0  0  0  0  0  0  0  0  0  0  0  0
  154.1385  141.6121  162.2157 N   0  0  0  0  0  0  0  0  0  0  0  0
  154.9108  141.6497  163.3313 C   0  0  0  0  0  0  0  0  0  0  0  0
  155.7850  140.6377  163.5766 N   0  0  0  0  0  0  0  0  0  0  0  0
  156.5484  140.6562  164.6733 C   0  0  0  0  0  0  0  0  0  0  0  0
  156.5977  141.5741  165.6404 N   0  0  0  0  0  0  0  0  0  0  0  0
  155.7272  142.5956  165.3985 C   0  0  0  0  0  0  0  0  0  0  0  0
  154.8600  142.7144  164.2758 C   0  0  0  0  0  0  0  0  0  0  0  0
  154.1422  143.9022  164.3573 N   0  0  0  0  0  0  0  0  0  0  0  0
  154.5511  144.4465  165.4700 C   0  0  0  0  0  0  0  0  0  0  0  0
  155.4921  143.7228  166.1671 N   0  0  0  0  0  0  0  0  0  0  0  0
  156.1106  144.0932  167.4310 C   0  0  0  0  0  0  0  0  0  0  0  0
  155.4089  143.4974  168.6834 C   0  0  0  0  0  0  0  0  0  0  0  0
  154.4492  144.4394  169.1234 O   0  0  0  0  0  0  0  0  0  0  0  0
  154.6568  142.1946  168.3469 C   0  0  0  0  0  0  0  0  0  0  0  0
  155.6262  141.0125  168.1583 C   0  0  0  0  0  0  0  0  0  0  0  0
  156.4434  140.8573  169.3141 O   0  0  0  0  0  0  0  0  0  0  0  0
  157.2521  141.9964  169.5883 C   0  0  0  0  0  0  0  0  0  0  0  0
  156.3560  143.2147  169.8693 C   0  0  0  0  0  0  0  0  0  0  0  0
  153.0753  142.6087  162.1106 C   0  0  0  0  0  0  0  0  0  0  0  0
  153.0974  143.2626  160.7214 C   0  0  0  0  0  0  0  0  0  0  0  0
  152.2265  142.5951  159.7518 N   0  0  0  0  0  0  0  0  0  0  0  0
  152.5571  143.0849  158.4193 C   0  0  1  0  0  0  0  0  0  0  0  0
  151.4283  143.5997  157.5543 C   0  0  0  0  0  0  0  0  0  0  0  0
  152.4332  144.5704  158.1283 C   0  0  1  0  0  0  0  0  0  0  0  0
  151.9983  145.5852  159.1680 C   0  0  0  0  0  0  0  0  0  0  0  0
  152.2683  141.1277  159.7828 C   0  0  0  0  0  0  0  0  0  0  0  0
  153.0088  138.4429  159.7230 H   0  0  0  0  0  0  0  0  0  0  0  0
  154.7311  138.6848  159.4429 H   0  0  0  0  0  0  0  0  0  0  0  0
  153.5654  139.2229  158.2433 H   0  0  0  0  0  0  0  0  0  0  0  0
  154.4348  141.1272  159.5403 H   0  0  0  0  0  0  0  0  0  0  0  0
  153.2078  139.7515  161.9977 H   0  0  0  0  0  0  0  0  0  0  0  0
  154.9122  139.7717  161.6035 H   0  0  0  0  0  0  0  0  0  0  0  0
  157.2148  139.8147  164.7936 H   0  0  0  0  0  0  0  0  0  0  0  0
  154.1689  145.3947  165.8186 H   0  0  0  0  0  0  0  0  0  0  0  0
  157.1561  143.7830  167.4025 H   0  0  0  0  0  0  0  0  0  0  0  0
  156.1272  145.1816  167.4792 H   0  0  0  0  0  0  0  0  0  0  0  0
  154.2204  144.2415  170.0184 H   0  0  0  0  0  0  0  0  0  0  0  0
  153.9711  141.9462  169.1587 H   0  0  0  0  0  0  0  0  0  0  0  0
  154.0408  142.3239  167.4562 H   0  0  0  0  0  0  0  0  0  0  0  0
  155.0625  140.0920  168.0055 H   0  0  0  0  0  0  0  0  0  0  0  0
  156.2499  141.1450  167.2739 H   0  0  0  0  0  0  0  0  0  0  0  0
  157.8718  141.7819  170.4591 H   0  0  0  0  0  0  0  0  0  0  0  0
  157.9319  142.1849  168.7566 H   0  0  0  0  0  0  0  0  0  0  0  0
  156.9612  144.0864  170.1175 H   0  0  0  0  0  0  0  0  0  0  0  0
  155.7669  143.0018  170.7629 H   0  0  0  0  0  0  0  0  0  0  0  0
  152.1075  142.1533  162.3233 H   0  0  0  0  0  0  0  0  0  0  0  0
  153.1977  143.3838  162.8666 H   0  0  0  0  0  0  0  0  0  0  0  0
  152.7547  144.2932  160.8103 H   0  0  0  0  0  0  0  0  0  0  0  0
  154.1242  143.3194  160.3558 H   0  0  0  0  0  0  0  0  0  0  0  0
  153.3492  142.5760  157.8725 H   0  0  0  0  0  0  0  0  0  0  0  0
  151.4818  143.3955  156.4870 H   0  0  0  0  0  0  0  0  0  0  0  0
  150.4247  143.6014  157.9761 H   0  0  0  0  0  0  0  0  0  0  0  0
  153.1669  144.9657  157.4287 H   0  0  0  0  0  0  0  0  0  0  0  0
  151.2241  145.1762  159.8180 H   0  0  0  0  0  0  0  0  0  0  0  0
  151.6000  146.4729  158.6766 H   0  0  0  0  0  0  0  0  0  0  0  0
  152.8486  145.8824  159.7815 H   0  0  0  0  0  0  0  0  0  0  0  0
  151.8316  140.7546  158.8555 H   0  0  0  0  0  0  0  0  0  0  0  0
  151.5946  140.7797  160.5662 H   0  0  0  0  0  0  0  0  0  0  0  0
  1  2  1  0  0  0  0
  1 30  1  0  0  0  0
  1 31  1  0  0  0  0
  1 32  1  0  0  0  0
  2 29  1  0  0  0  0
  2  3  1  0  0  0  0
  2 33  1  0  0  0  0
  3  4  1  0  0  0  0
  3 34  1  0  0  0  0
  3 35  1  0  0  0  0
  4  5  1  0  0  0  0
  4 22  1  0  0  0  0
  5 10  1  0  0  0  0
  5  6  2  0  0  0  0
  6  7  1  0  0  0  0
  7  8  2  0  0  0  0
  7 36  1  0  0  0  0
  8  9  1  0  0  0  0
  9 13  1  0  0  0  0
  9 10  2  0  0  0  0
 10 11  1  0  0  0  0
 11 12  2  0  0  0  0
 12 13  1  0  0  0  0
 12 37  1  0  0  0  0
 13 14  1  0  0  0  0
 14 15  1  0  0  0  0
 14 38  1  0  0  0  0
 14 39  1  0  0  0  0
 15 21  1  0  0  0  0
 15 16  1  0  0  0  0
 15 17  1  0  0  0  0
 16 40  1  0  0  0  0
 17 18  1  0  0  0  0
 17 41  1  0  0  0  0
 17 42  1  0  0  0  0
 18 19  1  0  0  0  0
 18 43  1  0  0  0  0
 18 44  1  0  0  0  0
 19 20  1  0  0  0  0
 20 21  1  0  0  0  0
 20 45  1  0  0  0  0
 20 46  1  0  0  0  0
 21 47  1  0  0  0  0
 21 48  1  0  0  0  0
 22 23  1  0  0  0  0
 22 49  1  0  0  0  0
 22 50  1  0  0  0  0
 23 24  1  0  0  0  0
 23 51  1  0  0  0  0
 23 52  1  0  0  0  0
 24 25  1  0  0  0  0
 24 29  1  0  0  0  0
 25 27  1  0  0  0  0
 25 26  1  0  0  0  0
 25 53  1  0  0  0  0
 26 27  1  0  0  0  0
 26 54  1  0  0  0  0
 26 55  1  0  0  0  0
 27 28  1  0  0  0  0
 27 56  1  0  0  0  0
 28 57  1  0  0  0  0
 28 58  1  0  0  0  0
 28 59  1  0  0  0  0
 29 60  1  0  0  0  0
 29 61  1  0  0  0  0
M  END
> <s_m_source_file>
AV-unprocessed.smi

> <i_m_source_file_index>
193

> <i_lp_mmshare_version>
43012

> <i_f3d_flags>
0

> <s_epik_input>
W0NIM11bQ0BASF0xW0NIMl1bQ0BIXTFOKFtDSDJdMilbQ0gyXVtDSDJdTihbQ0gyXVtDQEhdMltDSDNdKWMobltjSF1uMyljKGMzNCluW2NIXW40W0NIMl1DNShbT0hdKVtDSDJdW0NIMl1PW0NIMl1bQ0gyXTU=

> <s_epik_cmdline>
J2VwaWtfcHl0aG9uJywgJy1waCcsICc3LjAnLCAnLXRuJywgJzgnLCAnLW1hJywgJzIwMCcsICctbWV0YWxfYmluZGluZycsICctaW1hZScsICc8aW5maWxlLm1hZT4nLCAnLW9tYWUnLCAnPG91dGZpbGUubWFlPic=

> <r_lp_tautomer_probability>
1

> <r_epik_Ionization_Penalty>
1.45227

> <r_epik_Ionization_Penalty_Charging>
0

> <r_epik_Ionization_Penalty_Neutral>
1.45227

> <r_epik_State_Penalty>
2.02377

> <r_epik_Charging_Adjusted_Penalty>
2.02377

> <i_epik_Tot_Q>
0

> <i_epik_Tot_abs_Q>
0

> <r_epik_Metal_State_Penalty>
2.01937

> <b_epik_Metal_Only>
0

> <s_lp_Force_Field>
OPLS_2005

> <r_lp_Energy>
54.496

> <b_lp_Chiralities_Consistent>
1

> <s_lp_Variant>
AV-unprocessed.smi:193-19

> <Gold.Version>
5.8.1

> <Gold.Id.Protein>
6NUR|6NUR_protein|mol2

> <Gold.PLP.Fitness>
54.8371

> <Gold.PLP.PLP>
-57.0218

> <Gold.PLP.part.hbond>
-2.2406

> <Gold.PLP.part.metal>
0.0000

> <Gold.PLP.part.buried>
-0.3218

> <Gold.PLP.part.nonpolar>
-53.1276

> <Gold.PLP.part.repulsive>
0.1047

> <Gold.PLP.ligand.clash>
0.0000

> <Gold.PLP.ligand.torsion>
1.7611

> <Gold.PLP.Chemscore.Hbond>
0.0000

> <Gold.PLP.Chemscore.CHOScore>
0.0000

> <Gold.PLP.Chemscore.Metal>
0.0000

> <Gold.PLP.Chemscore.Internal.Correction>
1.3375

> <Gold.Rescore>
     Score         DG    S(hbond)    S(metal)    S(lipo)     H(rot)  DE(clash)    DE(int)     intcor
     12.09     -16.53       0.00        0.00     136.14       1.91       1.37       3.07       ----

> <Gold.Chemscore.Fitness>
12.0906

> <Gold.Chemscore.DG>
-16.5275

> <Gold.Chemscore.ZeroCoef>
-5.4800

> <Gold.Chemscore.Hbond>
0.0000

> <Gold.Chemscore.Metal>
0.0000

> <Gold.Chemscore.Lipo>
136.1441

> <Gold.Chemscore.Internal_Hbond>
0.0000

> <Gold.Chemscore.DEClash>
1.3671

> <Gold.Chemscore.DEInternal>
3.0698

> <Gold.Chemscore.Rot>
1.9068

> <Gold.Chemscore.Internal.Correction>
   9.000000E+99

> <Gold.Chemscore.Hbond.Weighted>
-0.0000

> <Gold.Chemscore.Metal.Weighted>
-0.0000

> <Gold.Chemscore.Lipo.Weighted>
-15.9289

> <Gold.Chemscore.Internal_Hbond.Weighted>
0.0000

> <Gold.Chemscore.DEClash.Weighted>
1.3671

> <Gold.Chemscore.DEInternal.Weighted>
3.0698

> <Gold.Chemscore.Rot.Weighted>
4.8814

> <Gold.Chemscore.Internal.Correction.Weighted>
   9.000000E+99

> <Gold.Protein.RotatedTorsions>
[ 6907 6896 6895 6894 ] final  -94.06 input  -60.11 | X-H torsion
[ 7974 7965 7964 7962 ] final -157.25 input  175.53 | X-H torsion
[ 8008 7997 7996 7995 ] final  158.74 input   59.86 | X-H torsion
[ 10167 10162 10161 10158 ] final -154.79 input  -65.29 | X-H torsion
[ 10718 10713 10712 10709 ] final  -53.25 input   66.30 | X-H torsion
[ 10763 10752 10751 10750 ] final  120.77 input  -60.55 | X-H torsion
[ 11005 11000 10999 10996 ] final  112.14 input  -57.11 | X-H torsion

> <Gold.Protein.ActiveResidues>
 VAL166  LYS551  ARG553  GLY616  TRP617  ASP618  TYR619  PRO620  LYS621  CYS622 
 ASP623  PHE694  ASN695  SER759  ASP760  ASP761  ALA762  ILE779  LEU786  VAL792 
 PHE793  MET794  SER795  GLU796  ALA797  LYS798  CYS799  TRP800  GLU811  SER814 

> <Gold.Protein.RotatedAtoms>
  150.6934  134.1870  159.4270 H   0  0  0  0  0  0  0  0  0  0  0  0  # atno 6907 bound_to 6896
  151.9843  135.0010  160.0568 H   0  0  0  0  0  0  0  0  0  0  0  0  # atno 6908 bound_to 6896
  152.1727  133.4619  159.4954 H   0  0  0  0  0  0  0  0  0  0  0  0  # atno 6909 bound_to 6896
  144.7556  140.3995  143.6014 H   0  0  0  0  0  0  0  0  0  0  0  0  # atno 7974 bound_to 7965
  156.2284  140.1850  156.7306 H   0  0  0  0  0  0  0  0  0  0  0  0  # atno 8008 bound_to 7997
  154.5979  140.0640  156.9357 H   0  0  0  0  0  0  0  0  0  0  0  0  # atno 8009 bound_to 7997
  155.2224  140.3308  155.4316 H   0  0  0  0  0  0  0  0  0  0  0  0  # atno 8010 bound_to 7997
  139.6985  143.9303  152.2418 H   0  0  0  0  0  0  0  0  0  0  0  0  # atno 10167 bound_to 10162
  156.1551  130.4150  149.9882 H   0  0  0  0  0  0  0  0  0  0  0  0  # atno 10718 bound_to 10713
  153.6036  135.3443  155.2954 H   0  0  0  0  0  0  0  0  0  0  0  0  # atno 10763 bound_to 10752
  154.8631  135.4233  154.2386 H   0  0  0  0  0  0  0  0  0  0  0  0  # atno 10764 bound_to 10752
  153.3220  135.7039  153.7094 H   0  0  0  0  0  0  0  0  0  0  0  0  # atno 10765 bound_to 10752
  139.8920  134.9523  156.6540 H   0  0  0  0  0  0  0  0  0  0  0  0  # atno 11005 bound_to 11000
  145.6790  139.1614  143.2712 LP  0  0  0  0  0  0  0  0  0  0  0  0  # atno 17320 bound_to 7965
  146.1563  140.6853  142.9298 LP  0  0  0  0  0  0  0  0  0  0  0  0  # atno 17321 bound_to 7965
  139.9139  144.6840  150.8533 LP  0  0  0  0  0  0  0  0  0  0  0  0  # atno 17342 bound_to 10162
  140.7703  143.3424  151.2181 LP  0  0  0  0  0  0  0  0  0  0  0  0  # atno 17343 bound_to 10162
  156.7728  130.9193  151.3644 LP  0  0  0  0  0  0  0  0  0  0  0  0  # atno 17370 bound_to 10713
  157.6688  130.9032  149.9993 LP  0  0  0  0  0  0  0  0  0  0  0  0  # atno 17371 bound_to 10713
  140.7498  133.8907  155.8338 LP  0  0  0  0  0  0  0  0  0  0  0  0  # atno 17394 bound_to 11000
  141.0010  134.1150  157.4317 LP  0  0  0  0  0  0  0  0  0  0  0  0  # atno 17395 bound_to 11000

$$$$
