AV-unprocessed.smi:3187|AV-procd|sdf|12180|dock9
  -GOLD-   2272018 23D 1   1.00000     0.00000
 Structure written by MMmdl.
 42 43  0  0  0  0  0  0  0  0  3 V2000
  151.3967  145.3988  159.5790 C   0  0  0  0  0  0  0  0  0  0  0  0
  151.9102  144.1189  160.2177 C   0  0  0  0  0  0  0  0  0  0  0  0
  152.1979  144.0980  161.5332 C   0  0  0  0  0  0  0  0  0  0  0  0
  152.7830  142.9084  162.2585 C   0  0  0  0  0  0  0  0  0  0  0  0
  153.4699  141.9539  161.2794 C   0  0  0  0  0  0  0  0  0  0  0  0
  152.5564  141.6166  160.0896 C   0  0  2  0  0  0  0  0  0  0  0  0
  153.2573  140.5855  159.1835 C   0  0  0  0  0  0  0  0  0  0  0  0
  152.1035  142.8886  159.3072 C   0  0  1  0  0  0  0  0  0  0  0  0
  150.8455  142.5693  158.4561 C   0  0  0  0  0  0  0  0  0  0  0  0
  150.9276  143.1108  157.0818 N   0  3  0  0  0  0  0  0  0  0  0  0
  151.0252  142.0959  156.0107 C   0  0  0  0  0  0  0  0  0  0  0  0
  149.9851  140.9721  156.1613 C   0  0  0  0  0  0  0  0  0  0  0  0
  150.2359  139.8719  155.2268 N   0  0  0  0  0  0  0  0  0  0  0  0
  151.3901  139.1422  155.0951 C   0  0  0  0  0  0  0  0  0  0  0  0
  151.1616  138.2252  154.1013 C   0  0  0  0  0  0  0  0  0  0  0  0
  149.8792  138.4338  153.6685 N   0  3  0  0  0  0  0  0  0  0  0  0
  149.3177  139.4348  154.3545 C   0  0  0  0  0  0  0  0  0  0  0  0
  151.9830  145.6466  158.6939 H   0  0  0  0  0  0  0  0  0  0  0  0
  151.4693  146.2413  160.2678 H   0  0  0  0  0  0  0  0  0  0  0  0
  150.3488  145.3011  159.2970 H   0  0  0  0  0  0  0  0  0  0  0  0
  152.0257  144.9768  162.1376 H   0  0  0  0  0  0  0  0  0  0  0  0
  153.5035  143.2587  162.9981 H   0  0  0  0  0  0  0  0  0  0  0  0
  151.9848  142.4019  162.8021 H   0  0  0  0  0  0  0  0  0  0  0  0
  154.3919  142.4089  160.9143 H   0  0  0  0  0  0  0  0  0  0  0  0
  153.7629  141.0450  161.8065 H   0  0  0  0  0  0  0  0  0  0  0  0
  151.6658  141.1408  160.5039 H   0  0  0  0  0  0  0  0  0  0  0  0
  154.1569  141.0044  158.7317 H   0  0  0  0  0  0  0  0  0  0  0  0
  152.6160  140.2331  158.3771 H   0  0  0  0  0  0  0  0  0  0  0  0
  153.5575  139.7064  159.7545 H   0  0  0  0  0  0  0  0  0  0  0  0
  152.9167  143.1548  158.6299 H   0  0  0  0  0  0  0  0  0  0  0  0
  150.6980  141.4946  158.3737 H   0  0  0  0  0  0  0  0  0  0  0  0
  149.9585  142.9620  158.9554 H   0  0  0  0  0  0  0  0  0  0  0  0
  150.0841  143.6434  156.9213 H   0  0  0  0  0  0  0  0  0  0  0  0
  150.9381  142.5798  155.0368 H   0  0  0  0  0  0  0  0  0  0  0  0
  152.0269  141.6673  156.0561 H   0  0  0  0  0  0  0  0  0  0  0  0
  149.9924  140.5693  157.1756 H   0  0  0  0  0  0  0  0  0  0  0  0
  148.9763  141.3378  155.9681 H   0  0  0  0  0  0  0  0  0  0  0  0
  152.2665  139.3234  155.7010 H   0  0  0  0  0  0  0  0  0  0  0  0
  151.7984  137.4606  153.6803 H   0  0  0  0  0  0  0  0  0  0  0  0
  148.3191  139.8135  154.2261 H   0  0  0  0  0  0  0  0  0  0  0  0
  151.7163  143.7389  157.0199 H   0  0  0  0  0  0  0  0  0  0  0  0
  149.4211  137.9082  152.9341 H   0  0  0  0  0  0  0  0  0  0  0  0
  1  2  1  0  0  0  0
  1 18  1  0  0  0  0
  1 19  1  0  0  0  0
  1 20  1  0  0  0  0
  2  8  1  0  0  0  0
  2  3  2  0  0  0  0
  3  4  1  0  0  0  0
  3 21  1  0  0  0  0
  4  5  1  0  0  0  0
  4 22  1  0  0  0  0
  4 23  1  0  0  0  0
  5  6  1  0  0  0  0
  5 24  1  0  0  0  0
  5 25  1  0  0  0  0
  6  7  1  0  0  0  0
  6  8  1  0  0  0  0
  6 26  1  0  0  0  0
  7 27  1  0  0  0  0
  7 28  1  0  0  0  0
  7 29  1  0  0  0  0
  8  9  1  0  0  0  0
  8 30  1  0  0  0  0
  9 10  1  0  0  0  0
  9 31  1  0  0  0  0
  9 32  1  0  0  0  0
 10 11  1  0  0  0  0
 10 33  1  0  0  0  0
 10 41  1  0  0  0  0
 11 12  1  0  0  0  0
 11 34  1  0  0  0  0
 11 35  1  0  0  0  0
 12 13  1  0  0  0  0
 12 36  1  0  0  0  0
 12 37  1  0  0  0  0
 13 17  1  0  0  0  0
 13 14  1  0  0  0  0
 14 15  2  0  0  0  0
 14 38  1  0  0  0  0
 15 16  1  0  0  0  0
 15 39  1  0  0  0  0
 16 17  2  0  0  0  0
 16 42  1  0  0  0  0
 17 40  1  0  0  0  0
M  CHG  1  10   1
M  CHG  1  16   1
M  END
> <s_m_source_file>
AV-unprocessed.smi

> <i_m_source_file_index>
3187

> <i_lp_mmshare_version>
43012

> <i_f3d_flags>
0

> <s_epik_input>
W0NIM11DMT1bQ0hdW0NIMl1bQ0gyXVtDQEBIXShbQ0gzXSlbQ0BIXTFbQ0gyXVtOSF1bQ0gyXVtDSDJdbjJbY0hdW2NIXW5bY0hdMg==

> <s_epik_cmdline>
J2VwaWtfcHl0aG9uJywgJy1waCcsICc3LjAnLCAnLXRuJywgJzgnLCAnLW1hJywgJzIwMCcsICctbWV0YWxfYmluZGluZycsICctaW1hZScsICc8aW5maWxlLm1hZT4nLCAnLW9tYWUnLCAnPG91dGZpbGUubWFlPic=

> <r_lp_tautomer_probability>
1

> <r_epik_Ionization_Penalty>
1.51066

> <r_epik_Ionization_Penalty_Charging>
0.0026721

> <r_epik_Ionization_Penalty_Neutral>
1.50798

> <r_epik_State_Penalty>
1.12593

> <r_epik_Charging_Adjusted_Penalty>
1.12861

> <i_epik_Tot_Q>
2

> <i_epik_Tot_abs_Q>
2

> <r_epik_Metal_State_Penalty>
5.12155

> <b_epik_Metal_Only>
0

> <s_lp_Force_Field>
OPLS_2005

> <r_lp_Energy>
26.137

> <b_lp_Chiralities_Consistent>
1

> <s_lp_Variant>
AV-unprocessed.smi:3187-6

> <Gold.Version>
5.8.1

> <Gold.Id.Protein>
6NUR|6NUR_protein|mol2

> <Gold.PLP.Fitness>
57.6856

> <Gold.PLP.PLP>
-47.6065

> <Gold.PLP.part.hbond>
-3.0000

> <Gold.PLP.part.metal>
0.0000

> <Gold.PLP.part.buried>
-6.8900

> <Gold.PLP.part.nonpolar>
-38.0449

> <Gold.PLP.part.repulsive>
0.0872

> <Gold.PLP.ligand.clash>
0.0000

> <Gold.PLP.ligand.torsion>
1.0143

> <Gold.PLP.Chemscore.Hbond>
4.0000

> <Gold.PLP.Chemscore.CHOScore>
0.0000

> <Gold.PLP.Chemscore.Metal>
0.0000

> <Gold.Chemscore.Hbonds>
donor molecule, donor type, donor heavy atom, donor atom, acceptor molecule, acceptor atom, score
      L1  H    10    33       P1  8028  1.98
      L1  H    16    42       P1  7948  2.00

> <Gold.PLP.Chemscore.Internal.Correction>
0.1077

> <Gold.Rescore>
     Score         DG    S(hbond)    S(metal)    S(lipo)     H(rot)  DE(clash)    DE(int)     intcor
     20.28     -21.84       1.94        0.00     127.63       1.97       0.52       1.03       ----

> <Gold.Chemscore.Fitness>
20.2830

> <Gold.Chemscore.DG>
-21.8364

> <Gold.Chemscore.ZeroCoef>
-5.4800

> <Gold.Chemscore.Hbond>
1.9387

> <Gold.Chemscore.Metal>
0.0000

> <Gold.Chemscore.Lipo>
127.6282

> <Gold.Chemscore.Internal_Hbond>
0.0000

> <Gold.Chemscore.DEClash>
0.5227

> <Gold.Chemscore.DEInternal>
1.0307

> <Gold.Chemscore.Rot>
1.9732

> <Gold.Chemscore.Internal.Correction>
   9.000000E+99

> <Gold.Chemscore.Hbonds>
donor molecule, donor type, donor heavy atom, donor atom, acceptor molecule, acceptor atom, score
      L1  H    10    33       P1  8028  0.87
      L1  H    16    42       P1  7948  0.85

> <Gold.Chemscore.Hbond.Weighted>
-6.4752

> <Gold.Chemscore.Metal.Weighted>
-0.0000

> <Gold.Chemscore.Lipo.Weighted>
-14.9325

> <Gold.Chemscore.Internal_Hbond.Weighted>
0.0000

> <Gold.Chemscore.DEClash.Weighted>
0.5227

> <Gold.Chemscore.DEInternal.Weighted>
1.0307

> <Gold.Chemscore.Rot.Weighted>
5.0514

> <Gold.Chemscore.Internal.Correction.Weighted>
   9.000000E+99

> <Gold.Protein.RotatedTorsions>
[ 6907 6896 6895 6894 ] final   96.67 input  -60.11 | X-H torsion
[ 7974 7965 7964 7962 ] final  -61.22 input  175.53 | X-H torsion
[ 8008 7997 7996 7995 ] final   -8.42 input   59.86 | X-H torsion
[ 10167 10162 10161 10158 ] final  106.21 input  -65.29 | X-H torsion
[ 10718 10713 10712 10709 ] final   13.10 input   66.30 | X-H torsion
[ 10763 10752 10751 10750 ] final -168.63 input  -60.55 | X-H torsion
[ 11005 11000 10999 10996 ] final   95.96 input  -57.11 | X-H torsion

> <Gold.Protein.ActiveResidues>
 VAL166  LYS551  ARG553  GLY616  TRP617  ASP618  TYR619  PRO620  LYS621  CYS622 
 ASP623  PHE694  ASN695  SER759  ASP760  ASP761  ALA762  ILE779  LEU786  VAL792 
 PHE793  MET794  SER795  GLU796  ALA797  LYS798  CYS799  TRP800  GLU811  SER814 

> <Gold.Protein.RotatedAtoms>
  152.5432  134.0851  159.8252 H   0  0  0  0  0  0  0  0  0  0  0  0  # atno 6907 bound_to 6896
  151.0947  133.5281  159.2620 H   0  0  0  0  0  0  0  0  0  0  0  0  # atno 6908 bound_to 6896
  151.2059  135.0470  159.8945 H   0  0  0  0  0  0  0  0  0  0  0  0  # atno 6909 bound_to 6896
  145.8061  140.8626  143.0206 H   0  0  0  0  0  0  0  0  0  0  0  0  # atno 7974 bound_to 7965
  154.5743  140.2381  155.8146 H   0  0  0  0  0  0  0  0  0  0  0  0  # atno 8008 bound_to 7997
  156.2131  140.3020  155.9734 H   0  0  0  0  0  0  0  0  0  0  0  0  # atno 8009 bound_to 7997
  155.2656  140.0416  157.2992 H   0  0  0  0  0  0  0  0  0  0  0  0  # atno 8010 bound_to 7997
  139.7028  144.7091  151.1156 H   0  0  0  0  0  0  0  0  0  0  0  0  # atno 10167 bound_to 10162
  157.0198  130.6150  149.5719 H   0  0  0  0  0  0  0  0  0  0  0  0  # atno 10718 bound_to 10713
  154.6608  135.2925  154.9868 H   0  0  0  0  0  0  0  0  0  0  0  0  # atno 10763 bound_to 10752
  154.0928  135.6588  153.4859 H   0  0  0  0  0  0  0  0  0  0  0  0  # atno 10764 bound_to 10752
  153.0429  135.5224  154.7559 H   0  0  0  0  0  0  0  0  0  0  0  0  # atno 10765 bound_to 10752
  139.8785  134.8926  156.4088 H   0  0  0  0  0  0  0  0  0  0  0  0  # atno 11005 bound_to 11000
  144.6763  140.0329  143.7482 LP  0  0  0  0  0  0  0  0  0  0  0  0  # atno 17320 bound_to 7965
  145.9826  139.2953  143.1032 LP  0  0  0  0  0  0  0  0  0  0  0  0  # atno 17321 bound_to 7965
  140.7714  143.5400  150.9324 LP  0  0  0  0  0  0  0  0  0  0  0  0  # atno 17342 bound_to 10162
  139.9082  143.6753  152.3120 LP  0  0  0  0  0  0  0  0  0  0  0  0  # atno 17343 bound_to 10162
  156.0106  130.5197  150.7976 LP  0  0  0  0  0  0  0  0  0  0  0  0  # atno 17370 bound_to 10713
  157.5258  131.0934  151.0019 LP  0  0  0  0  0  0  0  0  0  0  0  0  # atno 17371 bound_to 10713
  140.9215  133.7642  155.9912 LP  0  0  0  0  0  0  0  0  0  0  0  0  # atno 17394 bound_to 11000
  140.8434  134.3039  157.5304 LP  0  0  0  0  0  0  0  0  0  0  0  0  # atno 17395 bound_to 11000

$$$$
