AV-unprocessed.smi:561|AV-procd|sdf|2937|dock5
  -GOLD-   2262023433D 1   1.00000     0.00000
 Structure written by MMmdl.
 37 38  0  0  0  0  0  0  0  0  2 V2000
  146.5900  129.4052  152.5499 C   0  0  0  0  0  0  0  0  0  0  0  0
  146.9384  130.8996  152.5633 C   0  0  1  0  0  0  0  0  0  0  0  0
  145.6801  131.7654  152.7851 C   0  0  0  0  0  0  0  0  0  0  0  0
  145.0043  132.1204  151.5328 N   0  0  0  0  0  0  0  0  0  0  0  0
  145.4980  131.9940  150.2598 C   0  0  0  0  0  0  0  0  0  0  0  0
  144.5248  132.4615  149.4150 C   0  0  0  0  0  0  0  0  0  0  0  0
  143.4769  132.8483  150.2069 N   0  3  0  0  0  0  0  0  0  0  0  0
  143.7686  132.6357  151.4941 C   0  0  0  0  0  0  0  0  0  0  0  0
  147.9336  131.1419  153.6066 N   0  0  0  0  0  0  0  0  0  0  0  0
  148.4280  132.3416  153.9655 C   0  0  0  0  0  0  0  0  0  0  0  0
  148.0740  133.3978  153.4407 O   0  0  0  0  0  0  0  0  0  0  0  0
  149.4331  132.3288  155.0614 C   0  0  0  0  0  0  0  0  0  0  0  0
  149.9701  131.2098  155.4346 N   0  0  0  0  0  0  0  0  0  0  0  0
  150.8945  131.1463  156.4571 N   0  0  0  0  0  0  0  0  0  0  0  0
  151.1941  129.7965  156.9305 C   0  0  0  0  0  0  0  0  0  0  0  0
  151.5278  132.2198  156.9920 C   0  0  0  0  0  0  0  0  0  0  0  0
  152.3403  132.1456  157.9135 O   0  0  0  0  0  0  0  0  0  0  0  0
  151.2102  133.5810  156.3661 C   0  0  0  0  0  0  0  0  0  0  0  0
  149.7951  133.6267  155.7558 C   0  0  0  0  0  0  0  0  0  0  0  0
  145.8713  129.1770  151.7622 H   0  0  0  0  0  0  0  0  0  0  0  0
  146.1549  129.0893  153.4985 H   0  0  0  0  0  0  0  0  0  0  0  0
  147.4768  128.7966  152.3702 H   0  0  0  0  0  0  0  0  0  0  0  0
  147.3638  131.1383  151.5866 H   0  0  0  0  0  0  0  0  0  0  0  0
  144.9538  131.2265  153.3950 H   0  0  0  0  0  0  0  0  0  0  0  0
  145.9257  132.6817  153.3245 H   0  0  0  0  0  0  0  0  0  0  0  0
  146.4822  131.5978  150.0562 H   0  0  0  0  0  0  0  0  0  0  0  0
  144.5005  132.5464  148.3384 H   0  0  0  0  0  0  0  0  0  0  0  0
  143.1349  132.8496  152.3363 H   0  0  0  0  0  0  0  0  0  0  0  0
  148.2861  130.3294  154.0928 H   0  0  0  0  0  0  0  0  0  0  0  0
  150.9739  129.7047  157.9950 H   0  0  0  0  0  0  0  0  0  0  0  0
  152.2485  129.5613  156.7784 H   0  0  0  0  0  0  0  0  0  0  0  0
  150.6085  129.0389  156.4071 H   0  0  0  0  0  0  0  0  0  0  0  0
  151.3302  134.3721  157.1069 H   0  0  0  0  0  0  0  0  0  0  0  0
  151.9518  133.7643  155.5875 H   0  0  0  0  0  0  0  0  0  0  0  0
  149.7475  134.4633  155.0577 H   0  0  0  0  0  0  0  0  0  0  0  0
  149.0608  133.8343  156.5349 H   0  0  0  0  0  0  0  0  0  0  0  0
  142.6068  133.2402  149.8694 H   0  0  0  0  0  0  0  0  0  0  0  0
  1  2  1  0  0  0  0
  1 20  1  0  0  0  0
  1 21  1  0  0  0  0
  1 22  1  0  0  0  0
  2  3  1  0  0  0  0
  2  9  1  0  0  0  0
  2 23  1  0  0  0  0
  3  4  1  0  0  0  0
  3 24  1  0  0  0  0
  3 25  1  0  0  0  0
  4  8  1  0  0  0  0
  4  5  1  0  0  0  0
  5  6  2  0  0  0  0
  5 26  1  0  0  0  0
  6  7  1  0  0  0  0
  6 27  1  0  0  0  0
  7  8  2  0  0  0  0
  7 37  1  0  0  0  0
  8 28  1  0  0  0  0
  9 10  1  0  0  0  0
  9 29  1  0  0  0  0
 10 11  2  0  0  0  0
 10 12  1  0  0  0  0
 12 19  1  0  0  0  0
 12 13  2  0  0  0  0
 13 14  1  0  0  0  0
 14 15  1  0  0  0  0
 14 16  1  0  0  0  0
 15 30  1  0  0  0  0
 15 31  1  0  0  0  0
 15 32  1  0  0  0  0
 16 17  2  0  0  0  0
 16 18  1  0  0  0  0
 18 19  1  0  0  0  0
 18 33  1  0  0  0  0
 18 34  1  0  0  0  0
 19 35  1  0  0  0  0
 19 36  1  0  0  0  0
M  CHG  1   7   1
M  END
> <s_m_source_file>
AV-unprocessed.smi

> <i_m_source_file_index>
561

> <i_lp_mmshare_version>
43012

> <i_f3d_flags>
0

> <s_epik_input>
W2NIXTFuW2NIXVtjSF1uMVtDSDJdW0NAQEhdKFtDSDNdKVtOSF1DKD1PKUMyPU5OKFtDSDNdKUMoPU8pW0NIMl1bQ0gyXTI=

> <s_epik_cmdline>
J2VwaWtfcHl0aG9uJywgJy1waCcsICc3LjAnLCAnLXRuJywgJzgnLCAnLW1hJywgJzIwMCcsICctbWV0YWxfYmluZGluZycsICctaW1hZScsICc8aW5maWxlLm1hZT4nLCAnLW9tYWUnLCAnPG91dGZpbGUubWFlPic=

> <r_lp_tautomer_probability>
1

> <r_epik_Ionization_Penalty>
0.358595

> <r_epik_Ionization_Penalty_Charging>
0

> <r_epik_Ionization_Penalty_Neutral>
0.358595

> <r_epik_State_Penalty>
0.355181

> <r_epik_Charging_Adjusted_Penalty>
0.355181

> <i_epik_Tot_Q>
1

> <i_epik_Tot_abs_Q>
1

> <r_epik_Metal_State_Penalty>
0.718565

> <b_epik_Metal_Only>
0

> <s_epik_Chemistry_Notes>
This compound has an imine and may undergo hydrolysis.

> <s_lp_Force_Field>
OPLS_2005

> <r_lp_Energy>
19.4288

> <b_lp_Chiralities_Consistent>
1

> <s_lp_Variant>
AV-unprocessed.smi:561-2

> <Gold.Version>
5.8.1

> <Gold.Id.Protein>
6NUR|6NUR_protein|mol2

> <Gold.PLP.Fitness>
42.5014

> <Gold.PLP.PLP>
-31.4828

> <Gold.PLP.part.hbond>
-2.0000

> <Gold.PLP.part.metal>
0.0000

> <Gold.PLP.part.buried>
-5.1397

> <Gold.PLP.part.nonpolar>
-25.2549

> <Gold.PLP.part.repulsive>
0.2225

> <Gold.PLP.ligand.clash>
0.0000

> <Gold.PLP.ligand.torsion>
0.6346

> <Gold.PLP.Chemscore.Hbond>
3.0000

> <Gold.PLP.Chemscore.CHOScore>
1.0905

> <Gold.PLP.Chemscore.Metal>
0.0000

> <Gold.Chemscore.Hbonds>
donor molecule, donor type, donor heavy atom, donor atom, acceptor molecule, acceptor atom, score
      L1  H     7    37       P1 10186  2.00
      P1  H  6896  6907       L1    17  1.00
      L1  C     5    26       P1 10747  0.83
      L1  C     8    28       P1 10957  0.44

> <Gold.PLP.Chemscore.Internal.Correction>
0.0163

> <Gold.Rescore>
     Score         DG    S(hbond)    S(metal)    S(lipo)     H(rot)  DE(clash)    DE(int)     intcor
     13.81     -14.50       1.96        0.00      59.69       1.76       0.07       0.63       ----

> <Gold.Chemscore.Fitness>
13.8086

> <Gold.Chemscore.DG>
-14.5049

> <Gold.Chemscore.ZeroCoef>
-5.4800

> <Gold.Chemscore.Hbond>
1.9591

> <Gold.Chemscore.Metal>
0.0000

> <Gold.Chemscore.Lipo>
59.6944

> <Gold.Chemscore.Internal_Hbond>
0.0000

> <Gold.Chemscore.DEClash>
0.0698

> <Gold.Chemscore.DEInternal>
0.6265

> <Gold.Chemscore.Rot>
1.7589

> <Gold.Chemscore.Internal.Correction>
   9.000000E+99

> <Gold.Chemscore.Hbonds>
donor molecule, donor type, donor heavy atom, donor atom, acceptor molecule, acceptor atom, score
      L1  H     7    37       P1 10186  0.95
      P1  H  6896  6907       L1    17  0.82

> <Gold.Chemscore.Hbond.Weighted>
-6.5435

> <Gold.Chemscore.Metal.Weighted>
-0.0000

> <Gold.Chemscore.Lipo.Weighted>
-6.9842

> <Gold.Chemscore.Internal_Hbond.Weighted>
0.0000

> <Gold.Chemscore.DEClash.Weighted>
0.0698

> <Gold.Chemscore.DEInternal.Weighted>
0.6265

> <Gold.Chemscore.Rot.Weighted>
4.5028

> <Gold.Chemscore.Internal.Correction.Weighted>
   9.000000E+99

> <Gold.Protein.RotatedTorsions>
[ 6907 6896 6895 6894 ] final  164.89 input  -60.11 | X-H torsion
[ 7974 7965 7964 7962 ] final -161.86 input  175.53 | X-H torsion
[ 8008 7997 7996 7995 ] final   59.49 input   59.86 | X-H torsion
[ 10167 10162 10161 10158 ] final  145.41 input  -65.29 | X-H torsion
[ 10718 10713 10712 10709 ] final   40.06 input   66.30 | X-H torsion
[ 10763 10752 10751 10750 ] final  -51.49 input  -60.55 | X-H torsion
[ 11005 11000 10999 10996 ] final  -93.06 input  -57.11 | X-H torsion

> <Gold.Protein.ActiveResidues>
 VAL166  LYS551  ARG553  GLY616  TRP617  ASP618  TYR619  PRO620  LYS621  CYS622 
 ASP623  PHE694  ASN695  SER759  ASP760  ASP761  ALA762  ILE779  LEU786  VAL792 
 PHE793  MET794  SER795  GLU796  ALA797  LYS798  CYS799  TRP800  GLU811  SER814 

> <Gold.Protein.RotatedAtoms>
  151.9029  133.3542  159.3836 H   0  0  0  0  0  0  0  0  0  0  0  0  # atno 6907 bound_to 6896
  150.7076  134.4810  159.5479 H   0  0  0  0  0  0  0  0  0  0  0  0  # atno 6908 bound_to 6896
  152.2401  134.8237  160.0512 H   0  0  0  0  0  0  0  0  0  0  0  0  # atno 6909 bound_to 6896
  144.7377  140.3336  143.6148 H   0  0  0  0  0  0  0  0  0  0  0  0  # atno 7974 bound_to 7965
  155.5670  140.3489  155.4505 H   0  0  0  0  0  0  0  0  0  0  0  0  # atno 8008 bound_to 7997
  156.0472  140.1309  157.0116 H   0  0  0  0  0  0  0  0  0  0  0  0  # atno 8009 bound_to 7997
  154.4418  140.1012  156.6309 H   0  0  0  0  0  0  0  0  0  0  0  0  # atno 8010 bound_to 7997
  139.4927  144.5903  151.6694 H   0  0  0  0  0  0  0  0  0  0  0  0  # atno 10167 bound_to 10162
  157.3778  130.7737  149.7169 H   0  0  0  0  0  0  0  0  0  0  0  0  # atno 10718 bound_to 10713
  154.1274  135.6525  153.4915 H   0  0  0  0  0  0  0  0  0  0  0  0  # atno 10763 bound_to 10752
  153.0206  135.5284  154.7036 H   0  0  0  0  0  0  0  0  0  0  0  0  # atno 10764 bound_to 10752
  154.6261  135.2970  155.0241 H   0  0  0  0  0  0  0  0  0  0  0  0  # atno 10765 bound_to 10752
  141.1506  133.7862  157.0107 H   0  0  0  0  0  0  0  0  0  0  0  0  # atno 11005 bound_to 11000
  145.7446  139.1774  143.2356 LP  0  0  0  0  0  0  0  0  0  0  0  0  # atno 17320 bound_to 7965
  146.1108  140.7431  142.9504 LP  0  0  0  0  0  0  0  0  0  0  0  0  # atno 17321 bound_to 7965
  140.5529  144.0396  150.6135 LP  0  0  0  0  0  0  0  0  0  0  0  0  # atno 17342 bound_to 10162
  140.3456  143.2993  152.0542 LP  0  0  0  0  0  0  0  0  0  0  0  0  # atno 17343 bound_to 10162
  155.9769  130.4069  150.3747 LP  0  0  0  0  0  0  0  0  0  0  0  0  # atno 17370 bound_to 10713
  157.1847  131.0401  151.2731 LP  0  0  0  0  0  0  0  0  0  0  0  0  # atno 17371 bound_to 10713
  140.0880  134.9609  157.1730 LP  0  0  0  0  0  0  0  0  0  0  0  0  # atno 17394 bound_to 11000
  140.3485  134.2624  155.7201 LP  0  0  0  0  0  0  0  0  0  0  0  0  # atno 17395 bound_to 11000

$$$$
