AV-unprocessed.smi:752|AV-procd|sdf|3598|dock6
  -GOLD-   22720 0593D 1   1.00000     0.00000
 Structure written by MMmdl.
 41 42  0  0  0  0  0  0  0  0  1 V2000
  155.2308  140.1682  161.4788 C   0  0  0  0  0  0  0  0  0  0  0  0
  154.5878  140.8765  160.2818 C   0  0  0  0  0  0  0  0  0  0  0  0
  153.7829  142.0664  160.6843 C   0  0  0  0  0  0  0  0  0  0  0  0
  153.1221  142.8364  159.8162 N   0  0  0  0  0  0  0  0  0  0  0  0
  152.4481  143.8939  160.4371 C   0  0  0  0  0  0  0  0  0  0  0  0
  151.5950  144.8233  159.6215 C   0  0  0  0  0  0  0  0  0  0  0  0
  150.3375  144.0791  159.1732 C   0  0  0  0  0  0  0  0  0  0  0  0
  149.3547  144.0241  159.9122 O   0  0  0  0  0  0  0  0  0  0  0  0
  150.4051  143.4673  157.9807 N   0  0  0  0  0  0  0  0  0  0  0  0
  149.4450  142.4865  157.4896 C   0  0  0  0  0  0  0  0  0  0  0  0
  150.0387  141.6461  156.3380 C   0  0  1  0  0  0  0  0  0  0  0  0
  151.3256  140.9227  156.7772 C   0  0  0  0  0  0  0  0  0  0  0  0
  151.9407  140.1199  155.6200 C   0  0  0  0  0  0  0  0  0  0  0  0
  150.9366  139.1091  155.0405 C   0  0  0  0  0  0  0  0  0  0  0  0
  149.6124  139.7769  154.6251 C   0  0  2  0  0  0  0  0  0  0  0  0
  149.8070  140.5779  153.4758 O   0  0  0  0  0  0  0  0  0  0  0  0
  149.0230  140.6281  155.7652 C   0  0  0  0  0  0  0  0  0  0  0  0
  152.6412  143.9321  161.7963 C   0  0  0  0  0  0  0  0  0  0  0  0
  153.6559  142.6281  162.3467 S   0  0  0  0  0  0  0  0  0  0  0  0
  155.8116  139.3050  161.1540 H   0  0  0  0  0  0  0  0  0  0  0  0
  154.4736  139.8156  162.1796 H   0  0  0  0  0  0  0  0  0  0  0  0
  155.9013  140.8374  162.0184 H   0  0  0  0  0  0  0  0  0  0  0  0
  155.3584  141.1941  159.5786 H   0  0  0  0  0  0  0  0  0  0  0  0
  153.9402  140.1841  159.7435 H   0  0  0  0  0  0  0  0  0  0  0  0
  151.3120  145.6998  160.2054 H   0  0  0  0  0  0  0  0  0  0  0  0
  152.1336  145.1902  158.7466 H   0  0  0  0  0  0  0  0  0  0  0  0
  151.2501  143.5846  157.4400 H   0  0  0  0  0  0  0  0  0  0  0  0
  149.1192  141.8417  158.3076 H   0  0  0  0  0  0  0  0  0  0  0  0
  148.5588  143.0200  157.1453 H   0  0  0  0  0  0  0  0  0  0  0  0
  150.3125  142.3345  155.5366 H   0  0  0  0  0  0  0  0  0  0  0  0
  152.0540  141.6475  157.1427 H   0  0  0  0  0  0  0  0  0  0  0  0
  151.1092  140.2544  157.6117 H   0  0  0  0  0  0  0  0  0  0  0  0
  152.2690  140.8032  154.8356 H   0  0  0  0  0  0  0  0  0  0  0  0
  152.8333  139.5976  155.9651 H   0  0  0  0  0  0  0  0  0  0  0  0
  151.3785  138.5837  154.1931 H   0  0  0  0  0  0  0  0  0  0  0  0
  150.7283  138.3485  155.7940 H   0  0  0  0  0  0  0  0  0  0  0  0
  148.8939  139.0032  154.3521 H   0  0  0  0  0  0  0  0  0  0  0  0
  149.6425  140.0495  152.7097 H   0  0  0  0  0  0  0  0  0  0  0  0
  148.6934  139.9663  156.5671 H   0  0  0  0  0  0  0  0  0  0  0  0
  148.1268  141.1336  155.4056 H   0  0  0  0  0  0  0  0  0  0  0  0
  152.2355  144.6378  162.5062 H   0  0  0  0  0  0  0  0  0  0  0  0
  1  2  1  0  0  0  0
  1 20  1  0  0  0  0
  1 21  1  0  0  0  0
  1 22  1  0  0  0  0
  2  3  1  0  0  0  0
  2 23  1  0  0  0  0
  2 24  1  0  0  0  0
  3 19  1  0  0  0  0
  3  4  2  0  0  0  0
  4  5  1  0  0  0  0
  5  6  1  0  0  0  0
  5 18  2  0  0  0  0
  6  7  1  0  0  0  0
  6 25  1  0  0  0  0
  6 26  1  0  0  0  0
  7  8  2  0  0  0  0
  7  9  1  0  0  0  0
  9 10  1  0  0  0  0
  9 27  1  0  0  0  0
 10 11  1  0  0  0  0
 10 28  1  0  0  0  0
 10 29  1  0  0  0  0
 11 17  1  0  0  0  0
 11 12  1  0  0  0  0
 11 30  1  0  0  0  0
 12 13  1  0  0  0  0
 12 31  1  0  0  0  0
 12 32  1  0  0  0  0
 13 14  1  0  0  0  0
 13 33  1  0  0  0  0
 13 34  1  0  0  0  0
 14 15  1  0  0  0  0
 14 35  1  0  0  0  0
 14 36  1  0  0  0  0
 15 16  1  0  0  0  0
 15 17  1  0  0  0  0
 15 37  1  0  0  0  0
 16 38  1  0  0  0  0
 17 39  1  0  0  0  0
 17 40  1  0  0  0  0
 18 19  1  0  0  0  0
 18 41  1  0  0  0  0
M  END
> <s_m_source_file>
AV-unprocessed.smi

> <i_m_source_file_index>
752

> <i_lp_mmshare_version>
43012

> <i_f3d_flags>
0

> <s_epik_input>
W0NIM11bQ0gyXWMxbmMoW2NIXXMxKVtDSDJdQyg9TylbTkhdW0NIMl1bQ0BASF0yW0NIMl1bQ0gyXVtDSDJdW0NAQEhdKFtPSF0pW0NIMl0y

> <s_epik_cmdline>
J2VwaWtfcHl0aG9uJywgJy1waCcsICc3LjAnLCAnLXRuJywgJzgnLCAnLW1hJywgJzIwMCcsICctbWV0YWxfYmluZGluZycsICctaW1hZScsICc8aW5maWxlLm1hZT4nLCAnLW9tYWUnLCAnPG91dGZpbGUubWFlPic=

> <r_lp_tautomer_probability>
1

> <r_epik_Ionization_Penalty>
5.44903e-05

> <r_epik_Ionization_Penalty_Charging>
0

> <r_epik_Ionization_Penalty_Neutral>
5.44903e-05

> <r_epik_State_Penalty>
-0

> <r_epik_Charging_Adjusted_Penalty>
0

> <i_epik_Tot_Q>
0

> <i_epik_Tot_abs_Q>
0

> <r_epik_Metal_State_Penalty>
-0

> <b_epik_Metal_Only>
0

> <s_lp_Force_Field>
OPLS_2005

> <r_lp_Energy>
4.32924

> <b_lp_Chiralities_Consistent>
1

> <s_lp_Variant>
AV-unprocessed.smi:752-4

> <Gold.Version>
5.8.1

> <Gold.Id.Protein>
6NUR|6NUR_protein|mol2

> <Gold.PLP.Fitness>
50.3362

> <Gold.PLP.PLP>
-45.0954

> <Gold.PLP.part.hbond>
-4.3662

> <Gold.PLP.part.metal>
0.0000

> <Gold.PLP.part.buried>
-3.3105

> <Gold.PLP.part.nonpolar>
-36.8949

> <Gold.PLP.part.repulsive>
0.1946

> <Gold.PLP.ligand.clash>
0.0000

> <Gold.PLP.ligand.torsion>
0.6307

> <Gold.PLP.Chemscore.Hbond>
2.1540

> <Gold.PLP.Chemscore.CHOScore>
0.0000

> <Gold.PLP.Chemscore.Metal>
0.0000

> <Gold.Chemscore.Hbonds>
donor molecule, donor type, donor heavy atom, donor atom, acceptor molecule, acceptor atom, score
      L1  H    16    38       P1  7957  0.90
      P1  H  6933  6944       L1     8  0.05
      P1  H  7989  7998       L1    16  0.43
      P1  H  8011  8017       L1    16  0.41

> <Gold.PLP.Chemscore.Internal.Correction>
0.0403

> <Gold.Rescore>
     Score         DG    S(hbond)    S(metal)    S(lipo)     H(rot)  DE(clash)    DE(int)     intcor
     19.42     -20.11       1.96        0.00     114.71       2.08       0.02       0.67       ----

> <Gold.Chemscore.Fitness>
19.4201

> <Gold.Chemscore.DG>
-20.1112

> <Gold.Chemscore.ZeroCoef>
-5.4800

> <Gold.Chemscore.Hbond>
1.9597

> <Gold.Chemscore.Metal>
0.0000

> <Gold.Chemscore.Lipo>
114.7087

> <Gold.Chemscore.Internal_Hbond>
0.0000

> <Gold.Chemscore.DEClash>
0.0210

> <Gold.Chemscore.DEInternal>
0.6701

> <Gold.Chemscore.Rot>
2.0840

> <Gold.Chemscore.Internal.Correction>
   9.000000E+99

> <Gold.Chemscore.Hbonds>
donor molecule, donor type, donor heavy atom, donor atom, acceptor molecule, acceptor atom, score
      L1  H    16    38       P1  7957  0.84
      P1  H  6933  6944       L1     8  0.07
      P1  H  7989  7998       L1    16  0.10
      P1  H  8011  8017       L1    16  0.03

> <Gold.Chemscore.Hbond.Weighted>
-6.5453

> <Gold.Chemscore.Metal.Weighted>
-0.0000

> <Gold.Chemscore.Lipo.Weighted>
-13.4209

> <Gold.Chemscore.Internal_Hbond.Weighted>
0.0000

> <Gold.Chemscore.DEClash.Weighted>
0.0210

> <Gold.Chemscore.DEInternal.Weighted>
0.6701

> <Gold.Chemscore.Rot.Weighted>
5.3350

> <Gold.Chemscore.Internal.Correction.Weighted>
   9.000000E+99

> <Gold.Protein.RotatedTorsions>
[ 6907 6896 6895 6894 ] final  -20.11 input  -60.11 | X-H torsion
[ 7974 7965 7964 7962 ] final -138.96 input  175.53 | X-H torsion
[ 8008 7997 7996 7995 ] final  -19.90 input   59.86 | X-H torsion
[ 10167 10162 10161 10158 ] final  -67.14 input  -65.29 | X-H torsion
[ 10718 10713 10712 10709 ] final -142.52 input   66.30 | X-H torsion
[ 10763 10752 10751 10750 ] final -146.08 input  -60.55 | X-H torsion
[ 11005 11000 10999 10996 ] final   57.56 input  -57.11 | X-H torsion

> <Gold.Protein.ActiveResidues>
 VAL166  LYS551  ARG553  GLY616  TRP617  ASP618  TYR619  PRO620  LYS621  CYS622 
 ASP623  PHE694  ASN695  SER759  ASP760  ASP761  ALA762  ILE779  LEU786  VAL792 
 PHE793  MET794  SER795  GLU796  ALA797  LYS798  CYS799  TRP800  GLU811  SER814 

> <Gold.Protein.RotatedAtoms>
  151.2531  135.0629  159.9069 H   0  0  0  0  0  0  0  0  0  0  0  0  # atno 6907 bound_to 6896
  152.5377  134.0311  159.8035 H   0  0  0  0  0  0  0  0  0  0  0  0  # atno 6908 bound_to 6896
  151.0522  133.5565  159.2672 H   0  0  0  0  0  0  0  0  0  0  0  0  # atno 6909 bound_to 6896
  144.8716  140.6375  143.5263 H   0  0  0  0  0  0  0  0  0  0  0  0  # atno 7974 bound_to 7965
  154.4805  140.2076  155.9775 H   0  0  0  0  0  0  0  0  0  0  0  0  # atno 8008 bound_to 7997
  156.1158  140.3221  155.8106 H   0  0  0  0  0  0  0  0  0  0  0  0  # atno 8009 bound_to 7997
  155.4556  140.0520  157.2987 H   0  0  0  0  0  0  0  0  0  0  0  0  # atno 8010 bound_to 7997
  140.5605  143.2312  151.6737 H   0  0  0  0  0  0  0  0  0  0  0  0  # atno 10167 bound_to 10162
  156.3469  130.7667  151.1813 H   0  0  0  0  0  0  0  0  0  0  0  0  # atno 10718 bound_to 10713
  154.8353  135.3396  154.6605 H   0  0  0  0  0  0  0  0  0  0  0  0  # atno 10763 bound_to 10752
  153.7221  135.6957  153.5015 H   0  0  0  0  0  0  0  0  0  0  0  0  # atno 10764 bound_to 10752
  153.2374  135.4396  155.0614 H   0  0  0  0  0  0  0  0  0  0  0  0  # atno 10765 bound_to 10752
  140.0443  134.5828  155.9342 H   0  0  0  0  0  0  0  0  0  0  0  0  # atno 11005 bound_to 11000
  145.4120  139.1578  143.4120 LP  0  0  0  0  0  0  0  0  0  0  0  0  # atno 17320 bound_to 7965
  146.2934  140.4224  142.8731 LP  0  0  0  0  0  0  0  0  0  0  0  0  # atno 17321 bound_to 7965
  139.5068  144.3669  152.0508 LP  0  0  0  0  0  0  0  0  0  0  0  0  # atno 17342 bound_to 10162
  140.2795  144.3875  150.6123 LP  0  0  0  0  0  0  0  0  0  0  0  0  # atno 17343 bound_to 10162
  157.7455  131.0439  150.4765 LP  0  0  0  0  0  0  0  0  0  0  0  0  # atno 17370 bound_to 10713
  156.4954  130.4105  149.6383 LP  0  0  0  0  0  0  0  0  0  0  0  0  # atno 17371 bound_to 10713
  141.1899  133.6567  156.5388 LP  0  0  0  0  0  0  0  0  0  0  0  0  # atno 17394 bound_to 11000
  140.4019  134.7349  157.4784 LP  0  0  0  0  0  0  0  0  0  0  0  0  # atno 17395 bound_to 11000

$$$$
