AV-unprocessed.smi:2749|AV-procd|sdf|10585|dock2
  -GOLD-   2272015 33D 1   1.00000     0.00000
 Structure written by MMmdl.
 32 34  0  0  0  0  0  0  0  0  1 V2000
  149.5736  140.7277  157.3662 O   0  0  0  0  0  0  0  0  0  0  0  0
  149.4374  141.8336  156.8456 C   0  0  0  0  0  0  0  0  0  0  0  0
  148.8612  141.9610  155.6306 N   0  0  0  0  0  0  0  0  0  0  0  0
  148.3194  140.9949  154.7317 C   0  0  0  0  0  0  0  0  0  0  0  0
  147.3589  141.5094  153.8306 C   0  0  0  0  0  0  0  0  0  0  0  0
  146.7554  140.6517  152.8902 C   0  0  0  0  0  0  0  0  0  0  0  0
  147.1303  139.2968  152.8737 C   0  0  0  0  0  0  0  0  0  0  0  0
  146.5785  138.4338  151.9882 F   0  0  0  0  0  0  0  0  0  0  0  0
  148.0944  138.8618  153.8009 C   0  0  0  0  0  0  0  0  0  0  0  0
  148.6723  139.6839  154.7025 N   0  0  0  0  0  0  0  0  0  0  0  0
  149.8459  142.9706  157.4315 N   0  0  0  0  0  0  0  0  0  0  0  0
  150.4900  143.0867  158.7366 C   0  0  2  0  0  0  0  0  0  0  0  0
  149.9107  144.2438  159.5571 C   0  0  0  0  0  0  0  0  0  0  0  0
  151.1512  145.1166  159.7912 C   0  0  1  0  0  0  0  0  0  0  0  0
  152.1491  144.4576  160.7550 C   0  0  0  0  0  0  0  0  0  0  0  0
  152.7362  143.3438  159.8874 C   0  0  0  0  0  0  0  0  0  0  0  0
  151.9555  143.5259  158.5790 C   0  0  2  0  0  0  0  0  0  0  0  0
  151.8231  144.9379  158.5576 O   0  0  0  0  0  0  0  0  0  0  0  0
  148.8220  142.9106  155.2899 H   0  0  0  0  0  0  0  0  0  0  0  0
  147.0826  142.5537  153.8559 H   0  0  0  0  0  0  0  0  0  0  0  0
  146.0195  141.0278  152.1949 H   0  0  0  0  0  0  0  0  0  0  0  0
  148.4111  137.8293  153.8204 H   0  0  0  0  0  0  0  0  0  0  0  0
  149.6934  143.8332  156.9278 H   0  0  0  0  0  0  0  0  0  0  0  0
  150.4348  142.1475  159.2898 H   0  0  0  0  0  0  0  0  0  0  0  0
  149.1580  144.7986  158.9948 H   0  0  0  0  0  0  0  0  0  0  0  0
  149.4554  143.9113  160.4907 H   0  0  0  0  0  0  0  0  0  0  0  0
  150.9224  146.1550  160.0323 H   0  0  0  0  0  0  0  0  0  0  0  0
  152.9276  145.1618  161.0505 H   0  0  0  0  0  0  0  0  0  0  0  0
  151.6666  144.0822  161.6579 H   0  0  0  0  0  0  0  0  0  0  0  0
  153.8025  143.5068  159.7272 H   0  0  0  0  0  0  0  0  0  0  0  0
  152.6035  142.3518  160.3203 H   0  0  0  0  0  0  0  0  0  0  0  0
  152.4607  143.1065  157.7079 H   0  0  0  0  0  0  0  0  0  0  0  0
  1  2  2  0  0  0  0
  2  3  1  0  0  0  0
  2 11  1  0  0  0  0
  3  4  1  0  0  0  0
  3 19  1  0  0  0  0
  4 10  1  0  0  0  0
  4  5  2  0  0  0  0
  5  6  1  0  0  0  0
  5 20  1  0  0  0  0
  6  7  2  0  0  0  0
  6 21  1  0  0  0  0
  7  8  1  0  0  0  0
  7  9  1  0  0  0  0
  9 10  2  0  0  0  0
  9 22  1  0  0  0  0
 11 12  1  0  0  0  0
 11 23  1  0  0  0  0
 12 17  1  0  0  0  0
 12 13  1  0  0  0  0
 12 24  1  0  0  0  0
 13 14  1  0  0  0  0
 13 25  1  0  0  0  0
 13 26  1  0  0  0  0
 14 18  1  0  0  0  0
 14 15  1  0  0  0  0
 14 27  1  0  0  0  0
 15 16  1  0  0  0  0
 15 28  1  0  0  0  0
 15 29  1  0  0  0  0
 16 17  1  0  0  0  0
 16 30  1  0  0  0  0
 16 31  1  0  0  0  0
 17 18  1  0  0  0  0
 17 32  1  0  0  0  0
M  END
> <s_m_source_file>
AV-unprocessed.smi

> <i_m_source_file_index>
2749

> <i_lp_mmshare_version>
43012

> <i_f3d_flags>
0

> <s_epik_input>
W0NIMl0xW0NIMl1bQ0BIXShPMilbQ0BASF0oW0NIMl1bQ0BASF0xMilbTkhdQyg9TylbTkhdYzNbY0hdW2NIXWMoRilbY0hdbjM=

> <s_epik_cmdline>
J2VwaWtfcHl0aG9uJywgJy1waCcsICc3LjAnLCAnLXRuJywgJzgnLCAnLW1hJywgJzIwMCcsICctbWV0YWxfYmluZGluZycsICctaW1hZScsICc8aW5maWxlLm1hZT4nLCAnLW9tYWUnLCAnPG91dGZpbGUubWFlPic=

> <r_lp_tautomer_probability>
1

> <r_epik_Ionization_Penalty>
3.37159e-05

> <r_epik_Ionization_Penalty_Charging>
0

> <r_epik_Ionization_Penalty_Neutral>
3.37159e-05

> <r_epik_State_Penalty>
-0

> <r_epik_Charging_Adjusted_Penalty>
0

> <i_epik_Tot_Q>
0

> <i_epik_Tot_abs_Q>
0

> <r_epik_Metal_State_Penalty>
-0

> <b_epik_Metal_Only>
0

> <s_lp_Force_Field>
OPLS_2005

> <r_lp_Energy>
42.1362

> <b_lp_Chiralities_Consistent>
1

> <s_lp_Variant>
AV-unprocessed.smi:2749-1

> <Gold.Version>
5.8.1

> <Gold.Id.Protein>
6NUR|6NUR_protein|mol2

> <Gold.PLP.Fitness>
44.9167

> <Gold.PLP.PLP>
-36.4912

> <Gold.PLP.part.hbond>
-2.0000

> <Gold.PLP.part.metal>
0.0000

> <Gold.PLP.part.buried>
-3.6381

> <Gold.PLP.part.nonpolar>
-32.7898

> <Gold.PLP.part.repulsive>
0.3463

> <Gold.PLP.ligand.clash>
0.0000

> <Gold.PLP.ligand.torsion>
0.2614

> <Gold.PLP.Chemscore.Hbond>
2.0000

> <Gold.PLP.Chemscore.CHOScore>
0.9727

> <Gold.PLP.Chemscore.Metal>
0.0000

> <Gold.Chemscore.Hbonds>
donor molecule, donor type, donor heavy atom, donor atom, acceptor molecule, acceptor atom, score
      L1  H     3    19       P1  8028  0.99
      L1  H    11    23       P1  8028  1.00
      L1  C     9    22       P1  7948  0.88

> <Gold.PLP.Chemscore.Internal.Correction>
0.0300

> <Gold.Rescore>
     Score         DG    S(hbond)    S(metal)    S(lipo)     H(rot)  DE(clash)    DE(int)     intcor
     18.44     -19.74       1.88        0.00      90.17       1.00       0.08       1.22       ----

> <Gold.Chemscore.Fitness>
18.4437

> <Gold.Chemscore.DG>
-19.7450

> <Gold.Chemscore.ZeroCoef>
-5.4800

> <Gold.Chemscore.Hbond>
1.8788

> <Gold.Chemscore.Metal>
0.0000

> <Gold.Chemscore.Lipo>
90.1688

> <Gold.Chemscore.Internal_Hbond>
0.0000

> <Gold.Chemscore.DEClash>
0.0805

> <Gold.Chemscore.DEInternal>
1.2208

> <Gold.Chemscore.Rot>
1.0000

> <Gold.Chemscore.Internal.Correction>
   9.000000E+99

> <Gold.Chemscore.Hbonds>
donor molecule, donor type, donor heavy atom, donor atom, acceptor molecule, acceptor atom, score
      L1  H     3    19       P1  8028  0.93
      L1  H    11    23       P1  8028  0.88

> <Gold.Chemscore.Hbond.Weighted>
-6.2752

> <Gold.Chemscore.Metal.Weighted>
-0.0000

> <Gold.Chemscore.Lipo.Weighted>
-10.5498

> <Gold.Chemscore.Internal_Hbond.Weighted>
0.0000

> <Gold.Chemscore.DEClash.Weighted>
0.0805

> <Gold.Chemscore.DEInternal.Weighted>
1.2208

> <Gold.Chemscore.Rot.Weighted>
2.5600

> <Gold.Chemscore.Internal.Correction.Weighted>
   9.000000E+99

> <Gold.Protein.RotatedTorsions>
[ 6907 6896 6895 6894 ] final  -45.58 input  -60.11 | X-H torsion
[ 7974 7965 7964 7962 ] final  -79.90 input  175.53 | X-H torsion
[ 8008 7997 7996 7995 ] final -179.19 input   59.86 | X-H torsion
[ 10167 10162 10161 10158 ] final  -18.37 input  -65.29 | X-H torsion
[ 10718 10713 10712 10709 ] final   97.83 input   66.30 | X-H torsion
[ 10763 10752 10751 10750 ] final  130.66 input  -60.55 | X-H torsion
[ 11005 11000 10999 10996 ] final -108.56 input  -57.11 | X-H torsion

> <Gold.Protein.ActiveResidues>
 VAL166  LYS551  ARG553  GLY616  TRP617  ASP618  TYR619  PRO620  LYS621  CYS622 
 ASP623  PHE694  ASN695  SER759  ASP760  ASP761  ALA762  ILE779  LEU786  VAL792 
 PHE793  MET794  SER795  GLU796  ALA797  LYS798  CYS799  TRP800  GLU811  SER814 

> <Gold.Protein.RotatedAtoms>
  150.9204  134.8622  159.7485 H   0  0  0  0  0  0  0  0  0  0  0  0  # atno 6907 bound_to 6896
  152.4990  134.4226  159.9495 H   0  0  0  0  0  0  0  0  0  0  0  0  # atno 6908 bound_to 6896
  151.4261  133.3644  159.2797 H   0  0  0  0  0  0  0  0  0  0  0  0  # atno 6909 bound_to 6896
  145.5670  140.9472  143.1416 H   0  0  0  0  0  0  0  0  0  0  0  0  # atno 7974 bound_to 7965
  156.0276  140.1275  157.0292 H   0  0  0  0  0  0  0  0  0  0  0  0  # atno 8008 bound_to 7997
  154.4336  140.1056  156.6123 H   0  0  0  0  0  0  0  0  0  0  0  0  # atno 8009 bound_to 7997
  155.5854  140.3468  155.4554 H   0  0  0  0  0  0  0  0  0  0  0  0  # atno 8010 bound_to 7997
  140.7258  143.4923  150.9976 H   0  0  0  0  0  0  0  0  0  0  0  0  # atno 10167 bound_to 10162
  157.6906  131.0621  150.4703 H   0  0  0  0  0  0  0  0  0  0  0  0  # atno 10718 bound_to 10713
  153.7616  135.3195  155.3338 H   0  0  0  0  0  0  0  0  0  0  0  0  # atno 10763 bound_to 10752
  154.8228  135.4591  154.0832 H   0  0  0  0  0  0  0  0  0  0  0  0  # atno 10764 bound_to 10752
  153.2065  135.6930  153.8250 H   0  0  0  0  0  0  0  0  0  0  0  0  # atno 10765 bound_to 10752
  141.0895  133.9080  157.2108 H   0  0  0  0  0  0  0  0  0  0  0  0  # atno 11005 bound_to 11000
  144.7455  139.7331  143.7294 LP  0  0  0  0  0  0  0  0  0  0  0  0  # atno 17320 bound_to 7965
  146.1811  139.5003  142.9866 LP  0  0  0  0  0  0  0  0  0  0  0  0  # atno 17321 bound_to 7965
  139.8628  143.7293  152.3172 LP  0  0  0  0  0  0  0  0  0  0  0  0  # atno 17342 bound_to 10162
  139.7514  144.7533  151.0501 LP  0  0  0  0  0  0  0  0  0  0  0  0  # atno 17343 bound_to 10162
  156.5041  130.4124  149.6337 LP  0  0  0  0  0  0  0  0  0  0  0  0  # atno 17370 bound_to 10713
  156.3301  130.7327  151.2254 LP  0  0  0  0  0  0  0  0  0  0  0  0  # atno 17371 bound_to 10713
  139.9719  135.0126  156.9533 LP  0  0  0  0  0  0  0  0  0  0  0  0  # atno 17394 bound_to 11000
  140.5285  134.0837  155.7309 LP  0  0  0  0  0  0  0  0  0  0  0  0  # atno 17395 bound_to 11000

$$$$
