AV-unprocessed.smi:2908|AV-procd|sdf|11169|dock5
  -GOLD-   2272016 63D 1   1.00000     0.00000
 Structure written by MMmdl.
 44 45  0  0  0  0  0  0  0  0  2 V2000
  148.4367  139.4550  156.4787 O   0  0  0  0  0  0  0  0  0  0  0  0
  148.2883  140.0794  155.4269 C   0  0  0  0  0  0  0  0  0  0  0  0
  149.2026  140.9606  154.9842 N   0  0  0  0  0  0  0  0  0  0  0  0
  150.4677  141.2845  155.6398 C   0  0  0  0  0  0  0  0  0  0  0  0
  150.3234  141.4281  157.1677 C   0  0  0  0  0  0  0  0  0  0  0  0
  151.1818  142.5304  157.7625 C   0  0  0  0  0  0  0  0  0  0  0  0
  152.1453  142.2776  158.7635 C   0  0  0  0  0  0  0  0  0  0  0  0
  152.9276  143.3447  159.2513 C   0  0  0  0  0  0  0  0  0  0  0  0
  152.7290  144.6405  158.7313 C   0  0  0  0  0  0  0  0  0  0  0  0
  151.7508  144.8367  157.7354 C   0  0  0  0  0  0  0  0  0  0  0  0
  151.0210  143.7891  157.2941 N   0  3  0  0  0  0  0  0  0  0  0  0
  147.1741  139.9856  154.6588 N   0  0  0  0  0  0  0  0  0  0  0  0
  146.9973  140.5477  153.3114 C   0  0  0  0  0  0  0  0  0  0  0  0
  147.1004  139.4061  152.2854 C   0  0  0  0  0  0  0  0  0  0  0  0
  146.0631  138.2854  152.5569 C   0  0  0  0  0  0  0  0  0  0  0  0
  146.2419  137.0986  151.5710 C   0  0  2  0  0  0  0  0  0  0  0  0
  146.0623  137.5803  150.2517 O   0  0  0  0  0  0  0  0  0  0  0  0
  145.2698  135.9112  151.7650 C   0  0  0  0  0  0  0  0  0  0  0  0
  145.7133  135.1224  152.7451 F   0  0  0  0  0  0  0  0  0  0  0  0
  144.0635  136.3446  152.1293 F   0  0  0  0  0  0  0  0  0  0  0  0
  145.1542  135.1982  150.6442 F   0  0  0  0  0  0  0  0  0  0  0  0
  146.1214  137.8618  154.0456 C   0  0  0  0  0  0  0  0  0  0  0  0
  146.0746  139.0752  154.9921 C   0  0  0  0  0  0  0  0  0  0  0  0
  149.0037  141.4445  154.1205 H   0  0  0  0  0  0  0  0  0  0  0  0
  151.2263  140.5374  155.4003 H   0  0  0  0  0  0  0  0  0  0  0  0
  150.8288  142.2242  155.2215 H   0  0  0  0  0  0  0  0  0  0  0  0
  149.2804  141.6244  157.4185 H   0  0  0  0  0  0  0  0  0  0  0  0
  150.5760  140.4827  157.6496 H   0  0  0  0  0  0  0  0  0  0  0  0
  152.2917  141.2781  159.1463 H   0  0  0  0  0  0  0  0  0  0  0  0
  153.6734  143.1711  160.0132 H   0  0  0  0  0  0  0  0  0  0  0  0
  153.3198  145.4709  159.0894 H   0  0  0  0  0  0  0  0  0  0  0  0
  151.5344  145.7916  157.2793 H   0  0  0  0  0  0  0  0  0  0  0  0
  146.0166  141.0205  153.2439 H   0  0  0  0  0  0  0  0  0  0  0  0
  147.7120  141.3315  153.0614 H   0  0  0  0  0  0  0  0  0  0  0  0
  146.9638  139.8159  151.2846 H   0  0  0  0  0  0  0  0  0  0  0  0
  148.1084  138.9897  152.3112 H   0  0  0  0  0  0  0  0  0  0  0  0
  145.0738  138.7135  152.3877 H   0  0  0  0  0  0  0  0  0  0  0  0
  147.2640  136.7240  151.6410 H   0  0  0  0  0  0  0  0  0  0  0  0
  145.1355  137.6760  150.0927 H   0  0  0  0  0  0  0  0  0  0  0  0
  145.2832  137.2093  154.2869 H   0  0  0  0  0  0  0  0  0  0  0  0
  147.0307  137.2888  154.2332 H   0  0  0  0  0  0  0  0  0  0  0  0
  146.1063  138.7414  156.0302 H   0  0  0  0  0  0  0  0  0  0  0  0
  145.1239  139.5992  154.8825 H   0  0  0  0  0  0  0  0  0  0  0  0
  150.3246  143.9532  156.5666 H   0  0  0  0  0  0  0  0  0  0  0  0
  1  2  2  0  0  0  0
  2  3  1  0  0  0  0
  2 12  1  0  0  0  0
  3  4  1  0  0  0  0
  3 24  1  0  0  0  0
  4  5  1  0  0  0  0
  4 25  1  0  0  0  0
  4 26  1  0  0  0  0
  5  6  1  0  0  0  0
  5 27  1  0  0  0  0
  5 28  1  0  0  0  0
  6 11  1  0  0  0  0
  6  7  2  0  0  0  0
  7  8  1  0  0  0  0
  7 29  1  0  0  0  0
  8  9  2  0  0  0  0
  8 30  1  0  0  0  0
  9 10  1  0  0  0  0
  9 31  1  0  0  0  0
 10 11  2  0  0  0  0
 10 32  1  0  0  0  0
 11 44  1  0  0  0  0
 12 23  1  0  0  0  0
 12 13  1  0  0  0  0
 13 14  1  0  0  0  0
 13 33  1  0  0  0  0
 13 34  1  0  0  0  0
 14 15  1  0  0  0  0
 14 35  1  0  0  0  0
 14 36  1  0  0  0  0
 15 16  1  0  0  0  0
 15 22  1  0  0  0  0
 15 37  1  0  0  0  0
 16 17  1  0  0  0  0
 16 18  1  0  0  0  0
 16 38  1  0  0  0  0
 17 39  1  0  0  0  0
 18 19  1  0  0  0  0
 18 20  1  0  0  0  0
 18 21  1  0  0  0  0
 22 23  1  0  0  0  0
 22 40  1  0  0  0  0
 22 41  1  0  0  0  0
 23 42  1  0  0  0  0
 23 43  1  0  0  0  0
M  CHG  1  11   1
M  END
> <s_m_source_file>
AV-unprocessed.smi

> <i_m_source_file_index>
2908

> <i_lp_mmshare_version>
43012

> <i_f3d_flags>
0

> <s_epik_input>
RkMoRikoRilbQ0BASF0oW09IXSlbQ0hdKFtDSDJdW0NIMl0xKVtDSDJdW0NIMl1OMUMoPU8pW05IXVtDSDJdW0NIMl1jMltjSF1bY0hdW2NIXVtjSF1uMg==

> <s_epik_cmdline>
J2VwaWtfcHl0aG9uJywgJy1waCcsICc3LjAnLCAnLXRuJywgJzgnLCAnLW1hJywgJzIwMCcsICctbWV0YWxfYmluZGluZycsICctaW1hZScsICc8aW5maWxlLm1hZT4nLCAnLW9tYWUnLCAnPG91dGZpbGUubWFlPic=

> <r_epik_Ionization_Penalty>
1.55054

> <r_epik_Ionization_Penalty_Charging>
1.55036

> <r_epik_Ionization_Penalty_Neutral>
0.00017404

> <r_epik_State_Penalty>
1.64453

> <r_epik_Charging_Adjusted_Penalty>
3.19489

> <i_epik_Tot_Q>
1

> <i_epik_Tot_abs_Q>
1

> <r_epik_Metal_State_Penalty>
1.68672

> <b_epik_Metal_Only>
0

> <s_lp_Force_Field>
OPLS_2005

> <r_lp_Energy>
42.7125

> <b_lp_Chiralities_Consistent>
1

> <s_lp_Variant>
AV-unprocessed.smi:2908-3

> <Gold.Version>
5.8.1

> <Gold.Id.Protein>
6NUR|6NUR_protein|mol2

> <Gold.PLP.Fitness>
51.2609

> <Gold.PLP.PLP>
-41.8612

> <Gold.PLP.part.hbond>
-3.0000

> <Gold.PLP.part.metal>
0.0000

> <Gold.PLP.part.buried>
0.7998

> <Gold.PLP.part.nonpolar>
-39.6338

> <Gold.PLP.part.repulsive>
0.1255

> <Gold.PLP.ligand.clash>
0.0000

> <Gold.PLP.ligand.torsion>
1.1696

> <Gold.PLP.Chemscore.Hbond>
3.7360

> <Gold.PLP.Chemscore.CHOScore>
0.0000

> <Gold.PLP.Chemscore.Metal>
0.0000

> <Gold.Chemscore.Hbonds>
donor molecule, donor type, donor heavy atom, donor atom, acceptor molecule, acceptor atom, score
      L1  H    11    44       P1  8028  2.00
      L1  H    17    39       P1 10171  1.00
      P1  H  7954  7966       L1    17  0.41

> <Gold.PLP.Chemscore.Internal.Correction>
0.5309

> <Gold.Rescore>
     Score         DG    S(hbond)    S(metal)    S(lipo)     H(rot)  DE(clash)    DE(int)     intcor
     16.55     -20.94       2.71        0.00     107.37       2.40       2.02       2.37       ----

> <Gold.Chemscore.Fitness>
16.5505

> <Gold.Chemscore.DG>
-20.9419

> <Gold.Chemscore.ZeroCoef>
-5.4800

> <Gold.Chemscore.Hbond>
2.7095

> <Gold.Chemscore.Metal>
0.0000

> <Gold.Chemscore.Lipo>
107.3740

> <Gold.Chemscore.Internal_Hbond>
0.0000

> <Gold.Chemscore.DEClash>
2.0216

> <Gold.Chemscore.DEInternal>
2.3698

> <Gold.Chemscore.Rot>
2.4026

> <Gold.Chemscore.Internal.Correction>
   9.000000E+99

> <Gold.Chemscore.Hbonds>
donor molecule, donor type, donor heavy atom, donor atom, acceptor molecule, acceptor atom, score
      L1  H    11    44       P1  8028  0.99
      L1  H    17    39       P1 10171  0.91
      P1  H  7954  7966       L1    17  0.05

> <Gold.Chemscore.Hbond.Weighted>
-9.0499

> <Gold.Chemscore.Metal.Weighted>
-0.0000

> <Gold.Chemscore.Lipo.Weighted>
-12.5628

> <Gold.Chemscore.Internal_Hbond.Weighted>
0.0000

> <Gold.Chemscore.DEClash.Weighted>
2.0216

> <Gold.Chemscore.DEInternal.Weighted>
2.3698

> <Gold.Chemscore.Rot.Weighted>
6.1508

> <Gold.Chemscore.Internal.Correction.Weighted>
   9.000000E+99

> <Gold.Protein.RotatedTorsions>
[ 6907 6896 6895 6894 ] final  129.90 input  -60.11 | X-H torsion
[ 7974 7965 7964 7962 ] final   57.02 input  175.53 | X-H torsion
[ 8008 7997 7996 7995 ] final  -70.39 input   59.86 | X-H torsion
[ 10167 10162 10161 10158 ] final   35.58 input  -65.29 | X-H torsion
[ 10718 10713 10712 10709 ] final  -28.73 input   66.30 | X-H torsion
[ 10763 10752 10751 10750 ] final -112.55 input  -60.55 | X-H torsion
[ 11005 11000 10999 10996 ] final -174.44 input  -57.11 | X-H torsion

> <Gold.Protein.ActiveResidues>
 VAL166  LYS551  ARG553  GLY616  TRP617  ASP618  TYR619  PRO620  LYS621  CYS622 
 ASP623  PHE694  ASN695  SER759  ASP760  ASP761  ALA762  ILE779  LEU786  VAL792 
 PHE793  MET794  SER795  GLU796  ALA797  LYS798  CYS799  TRP800  GLU811  SER814 

> <Gold.Protein.RotatedAtoms>
  152.3579  133.6260  159.5992 H   0  0  0  0  0  0  0  0  0  0  0  0  # atno 6907 bound_to 6896
  150.7581  133.9471  159.3483 H   0  0  0  0  0  0  0  0  0  0  0  0  # atno 6908 bound_to 6896
  151.7313  135.0875  160.0351 H   0  0  0  0  0  0  0  0  0  0  0  0  # atno 6909 bound_to 6896
  145.9336  139.3828  143.0406 H   0  0  0  0  0  0  0  0  0  0  0  0  # atno 7974 bound_to 7965
  154.5008  140.0835  156.7794 H   0  0  0  0  0  0  0  0  0  0  0  0  # atno 8008 bound_to 7997
  155.4006  140.3437  155.4238 H   0  0  0  0  0  0  0  0  0  0  0  0  # atno 8009 bound_to 7997
  156.1454  140.1542  156.8842 H   0  0  0  0  0  0  0  0  0  0  0  0  # atno 8010 bound_to 7997
  140.4208  144.1462  150.6148 H   0  0  0  0  0  0  0  0  0  0  0  0  # atno 10167 bound_to 10162
  156.4215  130.4427  149.7181 H   0  0  0  0  0  0  0  0  0  0  0  0  # atno 10718 bound_to 10713
  154.8354  135.4487  154.1211 H   0  0  0  0  0  0  0  0  0  0  0  0  # atno 10763 bound_to 10752
  153.2446  135.6920  153.7751 H   0  0  0  0  0  0  0  0  0  0  0  0  # atno 10764 bound_to 10752
  153.7086  135.3360  155.3217 H   0  0  0  0  0  0  0  0  0  0  0  0  # atno 10765 bound_to 10752
  140.4745  134.6134  157.4895 H   0  0  0  0  0  0  0  0  0  0  0  0  # atno 11005 bound_to 11000
  145.8394  140.9589  143.0807 LP  0  0  0  0  0  0  0  0  0  0  0  0  # atno 17320 bound_to 7965
  144.6768  140.0264  143.7483 LP  0  0  0  0  0  0  0  0  0  0  0  0  # atno 17321 bound_to 7965
  140.4535  143.2477  151.9316 LP  0  0  0  0  0  0  0  0  0  0  0  0  # atno 17342 bound_to 10162
  139.4782  144.5538  151.8344 LP  0  0  0  0  0  0  0  0  0  0  0  0  # atno 17343 bound_to 10162
  156.4120  130.7726  151.2740 LP  0  0  0  0  0  0  0  0  0  0  0  0  # atno 17370 bound_to 10713
  157.7508  131.0208  150.3726 LP  0  0  0  0  0  0  0  0  0  0  0  0  # atno 17371 bound_to 10713
  139.9864  134.7054  155.9766 LP  0  0  0  0  0  0  0  0  0  0  0  0  # atno 17394 bound_to 11000
  141.1561  133.6543  156.4166 LP  0  0  0  0  0  0  0  0  0  0  0  0  # atno 17395 bound_to 11000

$$$$
