AV-unprocessed.smi:1184|AV-procd|sdf|4972|dock10
  -GOLD-   22720 3563D 1   1.00000     0.00000
 Structure written by MMmdl.
 43 44  0  0  0  0  0  0  0  0  2 V2000
  144.0428  131.9037  148.3354 C   0  0  0  0  0  0  0  0  0  0  0  0
  143.8666  132.1911  149.8337 C   0  0  0  0  0  0  0  0  0  0  0  0
  143.8339  133.6433  150.1254 N   0  3  2  0  0  0  0  0  0  0  0  0
  144.8329  134.4456  149.3799 C   0  0  0  0  0  0  0  0  0  0  0  0
  145.4293  135.4540  150.3738 C   0  0  0  0  0  0  0  0  0  0  0  0
  144.4688  135.4393  151.5618 C   0  0  2  0  0  0  0  0  0  0  0  0
  145.0923  135.9077  152.8917 C   0  0  0  0  0  0  0  0  0  0  0  0
  146.3820  135.2616  153.1088 N   0  0  0  0  0  0  0  0  0  0  0  0
  146.6103  134.2705  153.9847 C   0  0  0  0  0  0  0  0  0  0  0  0
  145.7183  133.6620  154.5753 O   0  0  0  0  0  0  0  0  0  0  0  0
  148.0741  133.9796  154.3064 C   0  0  0  0  0  0  0  0  0  0  0  0
  148.2716  134.1452  155.7927 C   0  0  0  0  0  0  0  0  0  0  0  0
  148.1642  135.3375  156.5650 C   0  0  0  0  0  0  0  0  0  0  0  0
  147.8518  136.7299  156.0967 C   0  0  0  0  0  0  0  0  0  0  0  0
  148.3620  135.1112  157.8528 N   0  0  0  0  0  0  0  0  0  0  0  0
  148.6128  133.7407  157.9677 O   0  0  0  0  0  0  0  0  0  0  0  0
  148.5551  133.1886  156.7294 C   0  0  0  0  0  0  0  0  0  0  0  0
  148.7761  131.7163  156.6450 C   0  0  0  0  0  0  0  0  0  0  0  0
  143.9685  133.9938  151.5526 C   0  0  0  0  0  0  0  0  0  0  0  0
  144.1362  130.8321  148.1578 H   0  0  0  0  0  0  0  0  0  0  0  0
  144.9403  132.3835  147.9435 H   0  0  0  0  0  0  0  0  0  0  0  0
  143.1913  132.2573  147.7532 H   0  0  0  0  0  0  0  0  0  0  0  0
  142.9580  131.7158  150.2060 H   0  0  0  0  0  0  0  0  0  0  0  0
  144.7004  131.7458  150.3776 H   0  0  0  0  0  0  0  0  0  0  0  0
  145.6199  133.8233  148.9508 H   0  0  0  0  0  0  0  0  0  0  0  0
  144.3293  134.9549  148.5578 H   0  0  0  0  0  0  0  0  0  0  0  0
  146.4170  135.1124  150.6869 H   0  0  0  0  0  0  0  0  0  0  0  0
  145.5453  136.4491  149.9431 H   0  0  0  0  0  0  0  0  0  0  0  0
  143.6241  136.0882  151.3235 H   0  0  0  0  0  0  0  0  0  0  0  0
  145.1893  136.9945  152.9111 H   0  0  0  0  0  0  0  0  0  0  0  0
  144.4343  135.6444  153.7202 H   0  0  0  0  0  0  0  0  0  0  0  0
  147.1814  135.6840  152.6589 H   0  0  0  0  0  0  0  0  0  0  0  0
  148.3210  132.9688  153.9798 H   0  0  0  0  0  0  0  0  0  0  0  0
  148.7145  134.6518  153.7343 H   0  0  0  0  0  0  0  0  0  0  0  0
  147.0332  136.7266  155.3770 H   0  0  0  0  0  0  0  0  0  0  0  0
  148.7182  137.1803  155.6125 H   0  0  0  0  0  0  0  0  0  0  0  0
  147.5588  137.3779  156.9234 H   0  0  0  0  0  0  0  0  0  0  0  0
  149.1871  131.4387  155.6742 H   0  0  0  0  0  0  0  0  0  0  0  0
  147.8372  131.1793  156.7795 H   0  0  0  0  0  0  0  0  0  0  0  0
  149.4725  131.3807  157.4136 H   0  0  0  0  0  0  0  0  0  0  0  0
  143.0203  133.8774  152.0779 H   0  0  0  0  0  0  0  0  0  0  0  0
  144.7031  133.3406  152.0271 H   0  0  0  0  0  0  0  0  0  0  0  0
  142.9304  133.9875  149.8328 H   0  0  0  0  0  0  0  0  0  0  0  0
  1  2  1  0  0  0  0
  1 20  1  0  0  0  0
  1 21  1  0  0  0  0
  1 22  1  0  0  0  0
  2  3  1  0  0  0  0
  2 23  1  0  0  0  0
  2 24  1  0  0  0  0
  3 19  1  0  0  0  0
  3  4  1  0  0  0  0
  3 43  1  0  0  0  0
  4  5  1  0  0  0  0
  4 25  1  0  0  0  0
  4 26  1  0  0  0  0
  5  6  1  0  0  0  0
  5 27  1  0  0  0  0
  5 28  1  0  0  0  0
  6  7  1  0  0  0  0
  6 19  1  0  0  0  0
  6 29  1  0  0  0  0
  7  8  1  0  0  0  0
  7 30  1  0  0  0  0
  7 31  1  0  0  0  0
  8  9  1  0  0  0  0
  8 32  1  0  0  0  0
  9 10  2  0  0  0  0
  9 11  1  0  0  0  0
 11 12  1  0  0  0  0
 11 33  1  0  0  0  0
 11 34  1  0  0  0  0
 12 17  2  0  0  0  0
 12 13  1  0  0  0  0
 13 14  1  0  0  0  0
 13 15  2  0  0  0  0
 14 35  1  0  0  0  0
 14 36  1  0  0  0  0
 14 37  1  0  0  0  0
 15 16  1  0  0  0  0
 16 17  1  0  0  0  0
 17 18  1  0  0  0  0
 18 38  1  0  0  0  0
 18 39  1  0  0  0  0
 18 40  1  0  0  0  0
 19 41  1  0  0  0  0
 19 42  1  0  0  0  0
M  CHG  1   3   1
M  END
> <s_m_source_file>
AV-unprocessed.smi

> <i_m_source_file_index>
1184

> <i_lp_mmshare_version>
43012

> <i_f3d_flags>
0

> <s_epik_input>
W0NIM11bQ0gyXU4xW0NIMl1bQ0gyXVtDQEhdKFtDSDJdMSlbQ0gyXVtOSF1DKD1PKVtDSDJdYzJjKFtDSDNdKW5vYzJbQ0gzXQ==

> <s_epik_cmdline>
J2VwaWtfcHl0aG9uJywgJy1waCcsICc3LjAnLCAnLXRuJywgJzgnLCAnLW1hJywgJzIwMCcsICctbWV0YWxfYmluZGluZycsICctaW1hZScsICc8aW5maWxlLm1hZT4nLCAnLW9tYWUnLCAnPG91dGZpbGUubWFlPic=

> <r_epik_Ionization_Penalty>
0.000590726

> <r_epik_Ionization_Penalty_Charging>
0.000590692

> <r_epik_Ionization_Penalty_Neutral>
3.44741e-08

> <r_epik_State_Penalty>
0.000371644

> <r_epik_Charging_Adjusted_Penalty>
0.000962336

> <i_epik_Tot_Q>
1

> <i_epik_Tot_abs_Q>
1

> <r_epik_Metal_State_Penalty>
-0

> <b_epik_Metal_Only>
0

> <s_lp_Force_Field>
OPLS_2005

> <r_lp_Energy>
20.136

> <b_lp_Chiralities_Consistent>
1

> <s_lp_Variant>
AV-unprocessed.smi:1184-4

> <Gold.Version>
5.8.1

> <Gold.Id.Protein>
6NUR|6NUR_protein|mol2

> <Gold.PLP.Fitness>
40.9816

> <Gold.PLP.PLP>
-32.6721

> <Gold.PLP.part.hbond>
-2.0000

> <Gold.PLP.part.metal>
0.0000

> <Gold.PLP.part.buried>
-1.0647

> <Gold.PLP.part.nonpolar>
-30.7031

> <Gold.PLP.part.repulsive>
0.0947

> <Gold.PLP.ligand.clash>
0.0000

> <Gold.PLP.ligand.torsion>
0.3417

> <Gold.PLP.Chemscore.Hbond>
2.9840

> <Gold.PLP.Chemscore.CHOScore>
0.0000

> <Gold.PLP.Chemscore.Metal>
0.0000

> <Gold.Chemscore.Hbonds>
donor molecule, donor type, donor heavy atom, donor atom, acceptor molecule, acceptor atom, score
      L1  H     3    43       P1 10186  2.00
      L1  H     8    32       P1  7948  1.00

> <Gold.PLP.Chemscore.Internal.Correction>
0.0410

> <Gold.Rescore>
     Score         DG    S(hbond)    S(metal)    S(lipo)     H(rot)  DE(clash)    DE(int)     intcor
     15.60     -17.76       1.94        0.00      86.10       1.67       1.82       0.35       ----

> <Gold.Chemscore.Fitness>
15.5960

> <Gold.Chemscore.DG>
-17.7624

> <Gold.Chemscore.ZeroCoef>
-5.4800

> <Gold.Chemscore.Hbond>
1.9400

> <Gold.Chemscore.Metal>
0.0000

> <Gold.Chemscore.Lipo>
86.1012

> <Gold.Chemscore.Internal_Hbond>
0.0000

> <Gold.Chemscore.DEClash>
1.8172

> <Gold.Chemscore.DEInternal>
0.3491

> <Gold.Chemscore.Rot>
1.6684

> <Gold.Chemscore.Internal.Correction>
   9.000000E+99

> <Gold.Chemscore.Hbonds>
donor molecule, donor type, donor heavy atom, donor atom, acceptor molecule, acceptor atom, score
      L1  H     3    43       P1 10186  0.97
      L1  H     8    32       P1  7948  0.96

> <Gold.Chemscore.Hbond.Weighted>
-6.4797

> <Gold.Chemscore.Metal.Weighted>
-0.0000

> <Gold.Chemscore.Lipo.Weighted>
-10.0738

> <Gold.Chemscore.Internal_Hbond.Weighted>
0.0000

> <Gold.Chemscore.DEClash.Weighted>
1.8172

> <Gold.Chemscore.DEInternal.Weighted>
0.3491

> <Gold.Chemscore.Rot.Weighted>
4.2712

> <Gold.Chemscore.Internal.Correction.Weighted>
   9.000000E+99

> <Gold.Protein.RotatedTorsions>
[ 6907 6896 6895 6894 ] final  -59.37 input  -60.11 | X-H torsion
[ 7974 7965 7964 7962 ] final  -63.61 input  175.53 | X-H torsion
[ 8008 7997 7996 7995 ] final  -85.73 input   59.86 | X-H torsion
[ 10167 10162 10161 10158 ] final   -0.31 input  -65.29 | X-H torsion
[ 10718 10713 10712 10709 ] final  -51.47 input   66.30 | X-H torsion
[ 10763 10752 10751 10750 ] final   76.01 input  -60.55 | X-H torsion
[ 11005 11000 10999 10996 ] final  159.38 input  -57.11 | X-H torsion

> <Gold.Protein.ActiveResidues>
 VAL166  LYS551  ARG553  GLY616  TRP617  ASP618  TYR619  PRO620  LYS621  CYS622 
 ASP623  PHE694  ASN695  SER759  ASP760  ASP761  ALA762  ILE779  LEU786  VAL792 
 PHE793  MET794  SER795  GLU796  ALA797  LYS798  CYS799  TRP800  GLU811  SER814 

> <Gold.Protein.RotatedAtoms>
  150.7935  134.6977  159.6532 H   0  0  0  0  0  0  0  0  0  0  0  0  # atno 6907 bound_to 6896
  152.4044  134.6228  160.0065 H   0  0  0  0  0  0  0  0  0  0  0  0  # atno 6908 bound_to 6896
  151.6489  133.3285  159.3183 H   0  0  0  0  0  0  0  0  0  0  0  0  # atno 6909 bound_to 6896
  145.7770  140.8783  143.0350 H   0  0  0  0  0  0  0  0  0  0  0  0  # atno 7974 bound_to 7965
  154.6440  140.0587  156.9878 H   0  0  0  0  0  0  0  0  0  0  0  0  # atno 8008 bound_to 7997
  155.1473  140.3271  155.4420 H   0  0  0  0  0  0  0  0  0  0  0  0  # atno 8009 bound_to 7997
  156.2544  140.1953  156.6586 H   0  0  0  0  0  0  0  0  0  0  0  0  # atno 8010 bound_to 7997
  140.6762  143.6910  150.8028 H   0  0  0  0  0  0  0  0  0  0  0  0  # atno 10167 bound_to 10162
  156.1707  130.4149  149.9651 H   0  0  0  0  0  0  0  0  0  0  0  0  # atno 10718 bound_to 10713
  153.0695  135.4967  154.8274 H   0  0  0  0  0  0  0  0  0  0  0  0  # atno 10763 bound_to 10752
  154.7002  135.3000  154.9354 H   0  0  0  0  0  0  0  0  0  0  0  0  # atno 10764 bound_to 10752
  154.0080  135.6758  153.4816 H   0  0  0  0  0  0  0  0  0  0  0  0  # atno 10765 bound_to 10752
  140.1957  134.8375  157.2962 H   0  0  0  0  0  0  0  0  0  0  0  0  # atno 11005 bound_to 11000
  144.6803  139.9935  143.7484 LP  0  0  0  0  0  0  0  0  0  0  0  0  # atno 17320 bound_to 7965
  146.0113  139.3172  143.0869 LP  0  0  0  0  0  0  0  0  0  0  0  0  # atno 17321 bound_to 7965
  140.0603  143.5161  152.2631 LP  0  0  0  0  0  0  0  0  0  0  0  0  # atno 17342 bound_to 10162
  139.6055  144.7595  151.3071 LP  0  0  0  0  0  0  0  0  0  0  0  0  # atno 17343 bound_to 10162
  156.7452  130.9094  151.3634 LP  0  0  0  0  0  0  0  0  0  0  0  0  # atno 17370 bound_to 10713
  157.6801  130.9131  150.0245 LP  0  0  0  0  0  0  0  0  0  0  0  0  # atno 17371 bound_to 10713
  140.2110  134.4138  155.7613 LP  0  0  0  0  0  0  0  0  0  0  0  0  # atno 17394 bound_to 11000
  141.2227  133.7118  156.8338 LP  0  0  0  0  0  0  0  0  0  0  0  0  # atno 17395 bound_to 11000

$$$$
