AV-unprocessed.smi:34|AV-procd|sdf|246|dock10
  -GOLD-   2262016 03D 1   1.00000     0.00000
 Structure written by MMmdl.
 54 58  0  0  0  0  0  0  0  0  2 V2000
  143.6119  138.3797  156.1726 O   0  0  0  0  0  0  0  0  0  0  0  0
  143.2958  137.8525  155.1038 C   0  0  0  0  0  0  0  0  0  0  0  0
  144.0910  137.1588  154.2502 N   0  5  0  0  0  0  0  0  0  0  0  0
  145.3863  136.9730  154.5456 C   0  0  0  0  0  0  0  0  0  0  0  0
  145.7771  135.8860  155.2583 N   0  0  0  0  0  0  0  0  0  0  0  0
  147.0680  135.7017  155.5551 C   0  0  0  0  0  0  0  0  0  0  0  0
  148.1179  136.4687  155.2469 N   0  0  0  0  0  0  0  0  0  0  0  0
  147.7395  137.5725  154.5391 C   0  0  0  0  0  0  0  0  0  0  0  0
  146.4024  137.8895  154.1584 C   0  0  0  0  0  0  0  0  0  0  0  0
  146.3608  139.0817  153.4517 N   0  0  0  0  0  0  0  0  0  0  0  0
  147.6456  139.4278  153.4343 C   0  0  0  0  0  0  0  0  0  0  0  0
  148.5236  138.6016  154.0380 N   0  0  0  0  0  0  0  0  0  0  0  0
  150.0037  138.7979  154.1479 C   0  0  1  0  0  0  0  0  0  0  0  0
  150.2377  140.0141  154.8003 O   0  0  0  0  0  0  0  0  0  0  0  0
  150.9069  139.7844  156.0383 C   0  0  2  0  0  0  0  0  0  0  0  0
  151.7662  140.9944  156.4262 C   0  0  0  0  0  0  0  0  0  0  0  0
  151.5273  141.3288  157.7842 O   0  0  0  0  0  0  0  0  0  0  0  0
  152.4913  141.1329  158.7049 C   0  0  0  0  0  0  0  0  0  0  0  0
  153.3407  140.2431  158.6240 O   0  0  0  0  0  0  0  0  0  0  0  0
  152.4188  142.1001  159.8378 C   0  0  0  0  0  0  0  0  0  0  0  0
  153.0030  141.7568  161.0795 C   0  0  0  0  0  0  0  0  0  0  0  0
  152.9462  142.6464  162.1697 C   0  0  0  0  0  0  0  0  0  0  0  0
  152.3071  143.8921  162.0308 C   0  0  0  0  0  0  0  0  0  0  0  0
  151.7245  144.2469  160.8001 C   0  0  0  0  0  0  0  0  0  0  0  0
  151.7783  143.3573  159.7090 C   0  0  0  0  0  0  0  0  0  0  0  0
  151.6768  138.4880  155.7891 C   0  0  2  0  0  0  0  0  0  0  0  0
  152.7606  138.7600  155.0554 F   0  0  0  0  0  0  0  0  0  0  0  0
  150.6627  137.6903  154.9848 C   0  0  2  0  0  0  0  0  0  0  0  0
  151.3069  136.6998  154.2091 O   0  0  0  0  0  0  0  0  0  0  0  0
  141.8867  138.0202  154.6014 C   0  0  0  0  0  0  0  0  0  0  0  0
  141.1167  136.8782  154.2827 C   0  0  0  0  0  0  0  0  0  0  0  0
  139.8051  137.0134  153.7875 C   0  0  0  0  0  0  0  0  0  0  0  0
  139.2521  138.2936  153.5965 C   0  0  0  0  0  0  0  0  0  0  0  0
  140.0139  139.4383  153.8968 C   0  0  0  0  0  0  0  0  0  0  0  0
  141.3255  139.3039  154.3921 C   0  0  0  0  0  0  0  0  0  0  0  0
  147.2928  134.8101  156.1213 H   0  0  0  0  0  0  0  0  0  0  0  0
  147.9678  140.3381  152.9502 H   0  0  0  0  0  0  0  0  0  0  0  0
  150.3700  138.8542  153.1216 H   0  0  0  0  0  0  0  0  0  0  0  0
  150.1597  139.6174  156.8132 H   0  0  0  0  0  0  0  0  0  0  0  0
  152.8236  140.7792  156.2661 H   0  0  0  0  0  0  0  0  0  0  0  0
  151.5092  141.8477  155.7972 H   0  0  0  0  0  0  0  0  0  0  0  0
  153.4981  140.8054  161.2106 H   0  0  0  0  0  0  0  0  0  0  0  0
  153.3935  142.3715  163.1136 H   0  0  0  0  0  0  0  0  0  0  0  0
  152.2641  144.5743  162.8670 H   0  0  0  0  0  0  0  0  0  0  0  0
  151.2350  145.2035  160.6918 H   0  0  0  0  0  0  0  0  0  0  0  0
  151.3212  143.6607  158.7786 H   0  0  0  0  0  0  0  0  0  0  0  0
  152.0017  137.9893  156.7027 H   0  0  0  0  0  0  0  0  0  0  0  0
  149.9347  137.2296  155.6532 H   0  0  0  0  0  0  0  0  0  0  0  0
  150.9692  136.7436  153.3275 H   0  0  0  0  0  0  0  0  0  0  0  0
  141.5273  135.8883  154.4212 H   0  0  0  0  0  0  0  0  0  0  0  0
  139.2243  136.1338  153.5526 H   0  0  0  0  0  0  0  0  0  0  0  0
  138.2468  138.3976  153.2165 H   0  0  0  0  0  0  0  0  0  0  0  0
  139.5937  140.4216  153.7451 H   0  0  0  0  0  0  0  0  0  0  0  0
  141.8965  140.1961  154.6062 H   0  0  0  0  0  0  0  0  0  0  0  0
  1  2  2  0  0  0  0
  2  3  1  0  0  0  0
  2 30  1  0  0  0  0
  3  4  1  0  0  0  0
  4  9  1  0  0  0  0
  4  5  2  0  0  0  0
  5  6  1  0  0  0  0
  6  7  2  0  0  0  0
  6 36  1  0  0  0  0
  7  8  1  0  0  0  0
  8 12  1  0  0  0  0
  8  9  2  0  0  0  0
  9 10  1  0  0  0  0
 10 11  2  0  0  0  0
 11 12  1  0  0  0  0
 11 37  1  0  0  0  0
 12 13  1  0  0  0  0
 13 28  1  0  0  0  0
 13 14  1  0  0  0  0
 13 38  1  0  0  0  0
 14 15  1  0  0  0  0
 15 16  1  0  0  0  0
 15 26  1  0  0  0  0
 15 39  1  0  0  0  0
 16 17  1  0  0  0  0
 16 40  1  0  0  0  0
 16 41  1  0  0  0  0
 17 18  1  0  0  0  0
 18 19  2  0  0  0  0
 18 20  1  0  0  0  0
 20 25  1  0  0  0  0
 20 21  2  0  0  0  0
 21 22  1  0  0  0  0
 21 42  1  0  0  0  0
 22 23  2  0  0  0  0
 22 43  1  0  0  0  0
 23 24  1  0  0  0  0
 23 44  1  0  0  0  0
 24 25  2  0  0  0  0
 24 45  1  0  0  0  0
 25 46  1  0  0  0  0
 26 27  1  0  0  0  0
 26 28  1  0  0  0  0
 26 47  1  0  0  0  0
 28 29  1  0  0  0  0
 28 48  1  0  0  0  0
 29 49  1  0  0  0  0
 30 35  1  0  0  0  0
 30 31  2  0  0  0  0
 31 32  1  0  0  0  0
 31 50  1  0  0  0  0
 32 33  2  0  0  0  0
 32 51  1  0  0  0  0
 33 34  1  0  0  0  0
 33 52  1  0  0  0  0
 34 35  2  0  0  0  0
 34 53  1  0  0  0  0
 35 54  1  0  0  0  0
M  CHG  1   3  -1
M  END
> <s_m_source_file>
AV-unprocessed.smi

> <i_m_source_file_index>
34

> <i_lp_mmshare_version>
43012

> <i_f3d_flags>
0

> <s_epik_input>
W2NIXTFbY0hdW2NIXVtjSF1bY0hdYzFDKD1PKVtOSF1jKG5bY0hdbjIpYyhjMjMpbltjSF1uM1tDQEBIXTRPW0NASF0oW0NAQEhdKEYpW0NASF00W09IXSlbQ0gyXU9DKD1PKWM1W2NIXVtjSF1bY0hdW2NIXVtjSF01

> <s_epik_cmdline>
J2VwaWtfcHl0aG9uJywgJy1waCcsICc3LjAnLCAnLXRuJywgJzgnLCAnLW1hJywgJzIwMCcsICctbWV0YWxfYmluZGluZycsICctaW1hZScsICc8aW5maWxlLm1hZT4nLCAnLW9tYWUnLCAnPG91dGZpbGUubWFlPic=

> <r_lp_tautomer_probability>
1

> <r_epik_Ionization_Penalty>
4.33227

> <r_epik_Ionization_Penalty_Charging>
3.41027

> <r_epik_Ionization_Penalty_Neutral>
0.922001

> <r_epik_State_Penalty>
3.41358

> <r_epik_Charging_Adjusted_Penalty>
6.82385

> <i_epik_Tot_Q>
-1

> <i_epik_Tot_abs_Q>
1

> <r_epik_Metal_State_Penalty>
0.496292

> <b_epik_Metal_Only>
1

> <s_epik_Chemistry_Notes>
This compound has an ester and may undergo hydrolysis at high or low pH. This compound contains an acetal/aminal-like group ( X-CH(R)-Y where X, Y are N, S, or O) that may be acid/base labile, releasing an aldehyde.

> <s_lp_Force_Field>
OPLS_2005

> <r_lp_Energy>
46.0199

> <b_lp_Chiralities_Consistent>
1

> <s_lp_Variant>
AV-unprocessed.smi:34-32

> <Gold.Version>
5.8.1

> <Gold.Id.Protein>
6NUR|6NUR_protein|mol2

> <Gold.PLP.Fitness>
61.7833

> <Gold.PLP.PLP>
-54.4981

> <Gold.PLP.part.hbond>
-4.1482

> <Gold.PLP.part.metal>
0.0000

> <Gold.PLP.part.buried>
-3.5071

> <Gold.PLP.part.nonpolar>
-45.9900

> <Gold.PLP.part.repulsive>
0.5247

> <Gold.PLP.ligand.clash>
0.0000

> <Gold.PLP.ligand.torsion>
3.4576

> <Gold.PLP.Chemscore.Hbond>
3.8400

> <Gold.PLP.Chemscore.CHOScore>
0.7302

> <Gold.PLP.Chemscore.Metal>
0.0000

> <Gold.Chemscore.Hbonds>
donor molecule, donor type, donor heavy atom, donor atom, acceptor molecule, acceptor atom, score
      L1  H    29    49       P1  7949  0.84
      P1  H  7989  7998       L1    14  0.86
      P1  H  7997  8008       L1    19  0.93
      P1  H 10752 10765       L1    29  1.00
      L1  C    11    37       P1  7957  0.71

> <Gold.PLP.Chemscore.Internal.Correction>
0.4897

> <Gold.Rescore>
     Score         DG    S(hbond)    S(metal)    S(lipo)     H(rot)  DE(clash)    DE(int)     intcor
     14.95     -20.32       2.26        0.00     121.35       2.69       0.41       4.96       ----

> <Gold.Chemscore.Fitness>
14.9458

> <Gold.Chemscore.DG>
-20.3157

> <Gold.Chemscore.ZeroCoef>
-5.4800

> <Gold.Chemscore.Hbond>
2.2561

> <Gold.Chemscore.Metal>
0.0000

> <Gold.Chemscore.Lipo>
121.3485

> <Gold.Chemscore.Internal_Hbond>
0.0000

> <Gold.Chemscore.DEClash>
0.4092

> <Gold.Chemscore.DEInternal>
4.9607

> <Gold.Chemscore.Rot>
2.6944

> <Gold.Chemscore.Internal.Correction>
   9.000000E+99

> <Gold.Chemscore.Hbonds>
donor molecule, donor type, donor heavy atom, donor atom, acceptor molecule, acceptor atom, score
      L1  H    29    49       P1  7949  0.18
      P1  H  7989  7998       L1    14  0.13
      P1  H  7997  8008       L1    19  0.86
      P1  H 10752 10765       L1    29  0.85

> <Gold.Chemscore.Hbond.Weighted>
-7.5355

> <Gold.Chemscore.Metal.Weighted>
-0.0000

> <Gold.Chemscore.Lipo.Weighted>
-14.1978

> <Gold.Chemscore.Internal_Hbond.Weighted>
0.0000

> <Gold.Chemscore.DEClash.Weighted>
0.4092

> <Gold.Chemscore.DEInternal.Weighted>
4.9607

> <Gold.Chemscore.Rot.Weighted>
6.8975

> <Gold.Chemscore.Internal.Correction.Weighted>
   9.000000E+99

> <Gold.Protein.RotatedTorsions>
[ 6907 6896 6895 6894 ] final  -40.41 input  -60.11 | X-H torsion
[ 7974 7965 7964 7962 ] final -103.04 input  175.53 | X-H torsion
[ 8008 7997 7996 7995 ] final  -92.21 input   59.86 | X-H torsion
[ 10167 10162 10161 10158 ] final -136.37 input  -65.29 | X-H torsion
[ 10718 10713 10712 10709 ] final   98.66 input   66.30 | X-H torsion
[ 10763 10752 10751 10750 ] final  167.13 input  -60.55 | X-H torsion
[ 11005 11000 10999 10996 ] final -106.46 input  -57.11 | X-H torsion

> <Gold.Protein.ActiveResidues>
 VAL166  LYS551  ARG553  GLY616  TRP617  ASP618  TYR619  PRO620  LYS621  CYS622 
 ASP623  PHE694  ASN695  SER759  ASP760  ASP761  ALA762  ILE779  LEU786  VAL792 
 PHE793  MET794  SER795  GLU796  ALA797  LYS798  CYS799  TRP800  GLU811  SER814 

> <Gold.Protein.RotatedAtoms>
  150.9788  134.9147  159.7831 H   0  0  0  0  0  0  0  0  0  0  0  0  # atno 6907 bound_to 6896
  152.5215  134.3439  159.9237 H   0  0  0  0  0  0  0  0  0  0  0  0  # atno 6908 bound_to 6896
  151.3447  133.3908  159.2709 H   0  0  0  0  0  0  0  0  0  0  0  0  # atno 6909 bound_to 6896
  145.2609  140.9269  143.3041 H   0  0  0  0  0  0  0  0  0  0  0  0  # atno 7974 bound_to 7965
  154.7203  140.0511  157.0633 H   0  0  0  0  0  0  0  0  0  0  0  0  # atno 8008 bound_to 7997
  155.0436  140.3171  155.4697 H   0  0  0  0  0  0  0  0  0  0  0  0  # atno 8009 bound_to 7997
  156.2814  140.2128  156.5560 H   0  0  0  0  0  0  0  0  0  0  0  0  # atno 8010 bound_to 7997
  139.8684  143.6988  152.2642 H   0  0  0  0  0  0  0  0  0  0  0  0  # atno 10167 bound_to 10162
  157.6891  131.0646  150.4830 H   0  0  0  0  0  0  0  0  0  0  0  0  # atno 10718 bound_to 10713
  154.3493  135.2753  155.2380 H   0  0  0  0  0  0  0  0  0  0  0  0  # atno 10763 bound_to 10752
  154.4617  135.5905  153.6263 H   0  0  0  0  0  0  0  0  0  0  0  0  # atno 10764 bound_to 10752
  152.9851  135.6066  154.3702 H   0  0  0  0  0  0  0  0  0  0  0  0  # atno 10765 bound_to 10752
  141.1003  133.8896  157.1859 H   0  0  0  0  0  0  0  0  0  0  0  0  # atno 11005 bound_to 11000
  144.9419  139.4180  143.6445 LP  0  0  0  0  0  0  0  0  0  0  0  0  # atno 17320 bound_to 7965
  146.3275  139.8383  142.8895 LP  0  0  0  0  0  0  0  0  0  0  0  0  # atno 17321 bound_to 7965
  139.7307  144.7583  151.0807 LP  0  0  0  0  0  0  0  0  0  0  0  0  # atno 17342 bound_to 10162
  140.7764  143.5092  150.9673 LP  0  0  0  0  0  0  0  0  0  0  0  0  # atno 17343 bound_to 10162
  156.5161  130.4151  149.6275 LP  0  0  0  0  0  0  0  0  0  0  0  0  # atno 17370 bound_to 10713
  156.3197  130.7273  151.2183 LP  0  0  0  0  0  0  0  0  0  0  0  0  # atno 17371 bound_to 10713
  139.9852  135.0084  156.9846 LP  0  0  0  0  0  0  0  0  0  0  0  0  # atno 17394 bound_to 11000
  140.5038  134.1070  155.7256 LP  0  0  0  0  0  0  0  0  0  0  0  0  # atno 17395 bound_to 11000

$$$$
