AV-unprocessed.smi:2819|AV-procd|sdf|10851|dock7
  -GOLD-   2272015293D 1   1.00000     0.00000
 Structure written by MMmdl.
 51 52  0  0  0  0  0  0  0  0  3 V2000
  151.0931  139.7970  155.4359 C   0  0  0  0  0  0  0  0  0  0  0  0
  150.0376  138.9441  154.8986 N   0  0  0  0  0  0  0  0  0  0  0  0
  150.2277  137.5005  154.8324 C   0  0  0  0  0  0  0  0  0  0  0  0
  148.8542  139.5244  154.3909 C   0  0  0  0  0  0  0  0  0  0  0  0
  148.7233  140.9153  154.1921 C   0  0  0  0  0  0  0  0  0  0  0  0
  147.4995  141.3813  153.6808 C   0  0  0  0  0  0  0  0  0  0  0  0
  146.4975  140.5145  153.3989 N   0  3  0  0  0  0  0  0  0  0  0  0
  146.6714  139.1998  153.6053 C   0  0  0  0  0  0  0  0  0  0  0  0
  145.6054  138.3803  153.3010 N   0  0  0  0  0  0  0  0  0  0  0  0
  145.4767  137.0430  153.4029 C   0  0  0  0  0  0  0  0  0  0  0  0
  146.3552  136.2698  153.7862 O   0  0  0  0  0  0  0  0  0  0  0  0
  144.2520  136.6389  153.0307 N   0  0  0  0  0  0  0  0  0  0  0  0
  143.7903  135.2508  152.9924 C   0  0  0  0  0  0  0  0  0  0  0  0
  144.6592  134.3254  152.0867 C   0  0  0  0  0  0  0  0  0  0  0  0
  143.8488  133.0805  151.6460 C   0  0  0  0  0  0  0  0  0  0  0  0
  145.0349  135.0749  150.7838 C   0  0  0  0  0  0  0  0  0  0  0  0
  145.9130  133.8821  152.7983 N   0  3  0  0  0  0  0  0  0  0  0  0
  145.7075  133.1558  154.0840 C   0  0  0  0  0  0  0  0  0  0  0  0
  147.0502  132.9226  154.7967 C   0  0  0  0  0  0  0  0  0  0  0  0
  147.9236  132.1963  153.9444 O   0  0  0  0  0  0  0  0  0  0  0  0
  148.2087  132.9140  152.7526 C   0  0  0  0  0  0  0  0  0  0  0  0
  146.9083  133.1481  151.9653 C   0  0  0  0  0  0  0  0  0  0  0  0
  147.8210  138.7049  154.0905 N   0  0  0  0  0  0  0  0  0  0  0  0
  151.4828  140.4583  154.6616 H   0  0  0  0  0  0  0  0  0  0  0  0
  151.9242  139.2063  155.8213 H   0  0  0  0  0  0  0  0  0  0  0  0
  150.7128  140.4088  156.2547 H   0  0  0  0  0  0  0  0  0  0  0  0
  150.1619  137.1521  153.8014 H   0  0  0  0  0  0  0  0  0  0  0  0
  149.4708  136.9859  155.4248 H   0  0  0  0  0  0  0  0  0  0  0  0
  151.2053  137.2109  155.2183 H   0  0  0  0  0  0  0  0  0  0  0  0
  149.5165  141.6137  154.4138 H   0  0  0  0  0  0  0  0  0  0  0  0
  147.2888  142.4231  153.4880 H   0  0  0  0  0  0  0  0  0  0  0  0
  144.7919  138.8638  152.9510 H   0  0  0  0  0  0  0  0  0  0  0  0
  143.5897  137.3407  152.7328 H   0  0  0  0  0  0  0  0  0  0  0  0
  143.8105  134.8991  154.0233 H   0  0  0  0  0  0  0  0  0  0  0  0
  142.7429  135.2219  152.6915 H   0  0  0  0  0  0  0  0  0  0  0  0
  143.0515  133.3407  150.9494 H   0  0  0  0  0  0  0  0  0  0  0  0
  143.3654  132.5815  152.4858 H   0  0  0  0  0  0  0  0  0  0  0  0
  144.4836  132.3512  151.1413 H   0  0  0  0  0  0  0  0  0  0  0  0
  144.1656  135.2353  150.1453 H   0  0  0  0  0  0  0  0  0  0  0  0
  145.7617  134.5121  150.1967 H   0  0  0  0  0  0  0  0  0  0  0  0
  145.4526  136.0625  150.9781 H   0  0  0  0  0  0  0  0  0  0  0  0
  145.0652  133.7139  154.7621 H   0  0  0  0  0  0  0  0  0  0  0  0
  145.2277  132.1939  153.9030 H   0  0  0  0  0  0  0  0  0  0  0  0
  147.5077  133.8691  155.0893 H   0  0  0  0  0  0  0  0  0  0  0  0
  146.8943  132.3490  155.7107 H   0  0  0  0  0  0  0  0  0  0  0  0
  148.6980  133.8603  152.9891 H   0  0  0  0  0  0  0  0  0  0  0  0
  148.9109  132.3345  152.1531 H   0  0  0  0  0  0  0  0  0  0  0  0
  146.5028  132.1869  151.6497 H   0  0  0  0  0  0  0  0  0  0  0  0
  147.1644  133.7015  151.0640 H   0  0  0  0  0  0  0  0  0  0  0  0
  145.6175  140.8757  153.0296 H   0  0  0  0  0  0  0  0  0  0  0  0
  146.3739  134.7434  153.0555 H   0  0  0  0  0  0  0  0  0  0  0  0
  1  2  1  0  0  0  0
  1 24  1  0  0  0  0
  1 25  1  0  0  0  0
  1 26  1  0  0  0  0
  2  3  1  0  0  0  0
  2  4  1  0  0  0  0
  3 27  1  0  0  0  0
  3 28  1  0  0  0  0
  3 29  1  0  0  0  0
  4 23  1  0  0  0  0
  4  5  2  0  0  0  0
  5  6  1  0  0  0  0
  5 30  1  0  0  0  0
  6  7  2  0  0  0  0
  6 31  1  0  0  0  0
  7  8  1  0  0  0  0
  7 50  1  0  0  0  0
  8  9  1  0  0  0  0
  8 23  2  0  0  0  0
  9 10  1  0  0  0  0
  9 32  1  0  0  0  0
 10 11  2  0  0  0  0
 10 12  1  0  0  0  0
 12 13  1  0  0  0  0
 12 33  1  0  0  0  0
 13 14  1  0  0  0  0
 13 34  1  0  0  0  0
 13 35  1  0  0  0  0
 14 15  1  0  0  0  0
 14 16  1  0  0  0  0
 14 17  1  0  0  0  0
 15 36  1  0  0  0  0
 15 37  1  0  0  0  0
 15 38  1  0  0  0  0
 16 39  1  0  0  0  0
 16 40  1  0  0  0  0
 16 41  1  0  0  0  0
 17 22  1  0  0  0  0
 17 18  1  0  0  0  0
 17 51  1  0  0  0  0
 18 19  1  0  0  0  0
 18 42  1  0  0  0  0
 18 43  1  0  0  0  0
 19 20  1  0  0  0  0
 19 44  1  0  0  0  0
 19 45  1  0  0  0  0
 20 21  1  0  0  0  0
 21 22  1  0  0  0  0
 21 46  1  0  0  0  0
 21 47  1  0  0  0  0
 22 48  1  0  0  0  0
 22 49  1  0  0  0  0
M  CHG  1   7   1
M  CHG  1  17   1
M  END
> <s_m_source_file>
AV-unprocessed.smi

> <i_m_source_file_index>
2819

> <i_lp_mmshare_version>
43012

> <i_f3d_flags>
0

> <s_epik_input>
W0NIM11OKFtDSDNdKWMxW2NIXVtjSF1uYyhuMSlbTkhdQyg9TylbTkhdW0NIMl1DKFtDSDNdKShbQ0gzXSlOMltDSDJdW0NIMl1PW0NIMl1bQ0gyXTI=

> <s_epik_cmdline>
J2VwaWtfcHl0aG9uJywgJy1waCcsICc3LjAnLCAnLXRuJywgJzgnLCAnLW1hJywgJzIwMCcsICctbWV0YWxfYmluZGluZycsICctaW1hZScsICc8aW5maWxlLm1hZT4nLCAnLW9tYWUnLCAnPG91dGZpbGUubWFlPic=

> <r_lp_tautomer_probability>
0.999336

> <r_epik_Ionization_Penalty>
0.713728

> <r_epik_Ionization_Penalty_Charging>
0.713701

> <r_epik_Ionization_Penalty_Neutral>
2.70516e-05

> <r_epik_State_Penalty>
0.725459

> <r_epik_Charging_Adjusted_Penalty>
1.43916

> <i_epik_Tot_Q>
2

> <i_epik_Tot_abs_Q>
2

> <r_epik_Metal_State_Penalty>
1.06371

> <b_epik_Metal_Only>
0

> <s_lp_Force_Field>
OPLS_2005

> <r_lp_Energy>
33.0145

> <b_lp_Chiralities_Consistent>
1

> <s_lp_Variant>
AV-unprocessed.smi:2819-2

> <Gold.Version>
5.8.1

> <Gold.Id.Protein>
6NUR|6NUR_protein|mol2

> <Gold.PLP.Fitness>
42.6538

> <Gold.PLP.PLP>
-34.3973

> <Gold.PLP.part.hbond>
-2.0000

> <Gold.PLP.part.metal>
0.0000

> <Gold.PLP.part.buried>
-5.3190

> <Gold.PLP.part.nonpolar>
-28.6242

> <Gold.PLP.part.repulsive>
0.3545

> <Gold.PLP.ligand.clash>
0.0000

> <Gold.PLP.ligand.torsion>
0.4075

> <Gold.PLP.Chemscore.Hbond>
2.9840

> <Gold.PLP.Chemscore.CHOScore>
0.0000

> <Gold.PLP.Chemscore.Metal>
0.0000

> <Gold.Chemscore.Hbonds>
donor molecule, donor type, donor heavy atom, donor atom, acceptor molecule, acceptor atom, score
      L1  H     7    50       P1 10175  1.90
      L1  H     9    32       P1 10175  1.00

> <Gold.PLP.Chemscore.Internal.Correction>
0.1196

> <Gold.Rescore>
     Score         DG    S(hbond)    S(metal)    S(lipo)     H(rot)  DE(clash)    DE(int)     intcor
     12.24     -14.06       1.54        0.00      63.83       1.57       0.01       1.80       ----

> <Gold.Chemscore.Fitness>
12.2449

> <Gold.Chemscore.DG>
-14.0558

> <Gold.Chemscore.ZeroCoef>
-5.4800

> <Gold.Chemscore.Hbond>
1.5362

> <Gold.Chemscore.Metal>
0.0000

> <Gold.Chemscore.Lipo>
63.8252

> <Gold.Chemscore.Internal_Hbond>
0.0000

> <Gold.Chemscore.DEClash>
0.0108

> <Gold.Chemscore.DEInternal>
1.8001

> <Gold.Chemscore.Rot>
1.5713

> <Gold.Chemscore.Internal.Correction>
   9.000000E+99

> <Gold.Chemscore.Hbonds>
donor molecule, donor type, donor heavy atom, donor atom, acceptor molecule, acceptor atom, score
      L1  H     7    50       P1 10175  0.38
      L1  H     9    32       P1 10175  0.95

> <Gold.Chemscore.Hbond.Weighted>
-5.1308

> <Gold.Chemscore.Metal.Weighted>
-0.0000

> <Gold.Chemscore.Lipo.Weighted>
-7.4675

> <Gold.Chemscore.Internal_Hbond.Weighted>
0.0000

> <Gold.Chemscore.DEClash.Weighted>
0.0108

> <Gold.Chemscore.DEInternal.Weighted>
1.8001

> <Gold.Chemscore.Rot.Weighted>
4.0225

> <Gold.Chemscore.Internal.Correction.Weighted>
   9.000000E+99

> <Gold.Protein.RotatedTorsions>
[ 6907 6896 6895 6894 ] final  107.00 input  -60.11 | X-H torsion
[ 7974 7965 7964 7962 ] final  -65.01 input  175.53 | X-H torsion
[ 8008 7997 7996 7995 ] final   41.46 input   59.86 | X-H torsion
[ 10167 10162 10161 10158 ] final  -29.86 input  -65.29 | X-H torsion
[ 10718 10713 10712 10709 ] final   27.35 input   66.30 | X-H torsion
[ 10763 10752 10751 10750 ] final   88.63 input  -60.55 | X-H torsion
[ 11005 11000 10999 10996 ] final    7.81 input  -57.11 | X-H torsion

> <Gold.Protein.ActiveResidues>
 VAL166  LYS551  ARG553  GLY616  TRP617  ASP618  TYR619  PRO620  LYS621  CYS622 
 ASP623  PHE694  ASN695  SER759  ASP760  ASP761  ALA762  ILE779  LEU786  VAL792 
 PHE793  MET794  SER795  GLU796  ALA797  LYS798  CYS799  TRP800  GLU811  SER814 

> <Gold.Protein.RotatedAtoms>
  152.5172  133.9298  159.7574 H   0  0  0  0  0  0  0  0  0  0  0  0  # atno 6907 bound_to 6896
  150.9651  133.6395  159.2754 H   0  0  0  0  0  0  0  0  0  0  0  0  # atno 6908 bound_to 6896
  151.3626  135.0912  159.9492 H   0  0  0  0  0  0  0  0  0  0  0  0  # atno 6909 bound_to 6896
  145.7596  140.8868  143.0437 H   0  0  0  0  0  0  0  0  0  0  0  0  # atno 7974 bound_to 7965
  155.2700  140.3365  155.4266 H   0  0  0  0  0  0  0  0  0  0  0  0  # atno 8008 bound_to 7997
  156.2137  140.1780  156.7680 H   0  0  0  0  0  0  0  0  0  0  0  0  # atno 8009 bound_to 7997
  154.5722  140.0668  156.8966 H   0  0  0  0  0  0  0  0  0  0  0  0  # atno 8010 bound_to 7997
  140.7256  143.3895  151.1456 H   0  0  0  0  0  0  0  0  0  0  0  0  # atno 10167 bound_to 10162
  157.2191  130.6970  149.6262 H   0  0  0  0  0  0  0  0  0  0  0  0  # atno 10718 bound_to 10713
  153.1788  135.4500  155.0001 H   0  0  0  0  0  0  0  0  0  0  0  0  # atno 10763 bound_to 10752
  154.8016  135.3258  154.7537 H   0  0  0  0  0  0  0  0  0  0  0  0  # atno 10764 bound_to 10752
  153.8004  135.6963  153.4911 H   0  0  0  0  0  0  0  0  0  0  0  0  # atno 10765 bound_to 10752
  140.5441  134.0346  155.7914 H   0  0  0  0  0  0  0  0  0  0  0  0  # atno 11005 bound_to 11000
  144.6833  139.9705  143.7482 LP  0  0  0  0  0  0  0  0  0  0  0  0  # atno 17320 bound_to 7965
  146.0277  139.3307  143.0774 LP  0  0  0  0  0  0  0  0  0  0  0  0  # atno 17321 bound_to 7965
  139.7497  143.8797  152.3073 LP  0  0  0  0  0  0  0  0  0  0  0  0  # atno 17342 bound_to 10162
  139.8647  144.7099  150.9058 LP  0  0  0  0  0  0  0  0  0  0  0  0  # atno 17343 bound_to 10162
  155.9684  130.4526  150.5779 LP  0  0  0  0  0  0  0  0  0  0  0  0  # atno 17370 bound_to 10713
  157.3595  131.0747  151.1648 LP  0  0  0  0  0  0  0  0  0  0  0  0  # atno 17371 bound_to 10713
  141.1210  133.9461  157.2729 LP  0  0  0  0  0  0  0  0  0  0  0  0  # atno 17394 bound_to 11000
  139.9489  135.0179  156.8934 LP  0  0  0  0  0  0  0  0  0  0  0  0  # atno 17395 bound_to 11000

$$$$
