AV-unprocessed.smi:2506|AV-procd|sdf|9862|dock7
  -GOLD-   2272013493D 1   1.00000     0.00000
 Structure written by MMmdl.
 39 40  0  0  0  0  0  0  0  0  2 V2000
  150.5080  138.6763  154.3443 C   0  0  0  0  0  0  0  0  0  0  0  0
  149.4329  139.7434  154.2307 C   0  0  0  0  0  0  0  0  0  0  0  0
  149.8200  140.9957  154.5714 N   0  0  0  0  0  0  0  0  0  0  0  0
  148.9111  141.9813  154.4905 N   0  3  0  0  0  0  0  0  0  0  0  0
  147.6334  141.7772  154.0935 C   0  0  0  0  0  0  0  0  0  0  0  0
  147.1960  140.4895  153.7338 C   0  0  0  0  0  0  0  0  0  0  0  0
  148.1266  139.4275  153.7893 C   0  0  0  0  0  0  0  0  0  0  0  0
  147.8047  138.0794  153.4665 N   0  0  0  0  0  0  0  0  0  0  0  0
  146.6415  137.4331  153.6521 C   0  0  0  0  0  0  0  0  0  0  0  0
  145.6347  137.9190  154.1669 O   0  0  0  0  0  0  0  0  0  0  0  0
  146.7034  136.1817  153.1759 N   0  0  0  0  0  0  0  0  0  0  0  0
  145.6107  135.2111  153.1836 C   0  0  0  0  0  0  0  0  0  0  0  0
  145.3670  134.5689  151.7949 C   0  0  0  0  0  0  0  0  0  0  0  0
  145.2110  135.6565  150.7074 C   0  0  0  0  0  0  0  0  0  0  0  0
  146.4762  133.5729  151.4122 C   0  0  0  0  0  0  0  0  0  0  0  0
  145.8358  132.5778  150.4378 C   0  0  0  0  0  0  0  0  0  0  0  0
  144.3258  132.6279  150.7062 C   0  0  0  0  0  0  0  0  0  0  0  0
  144.1213  133.6664  151.8163 C   0  0  0  0  0  0  0  0  0  0  0  0
  150.6756  138.2022  153.3768 H   0  0  0  0  0  0  0  0  0  0  0  0
  150.2079  137.9088  155.0584 H   0  0  0  0  0  0  0  0  0  0  0  0
  151.4570  139.0960  154.6809 H   0  0  0  0  0  0  0  0  0  0  0  0
  146.9992  142.6515  154.0815 H   0  0  0  0  0  0  0  0  0  0  0  0
  146.1678  140.3438  153.4398 H   0  0  0  0  0  0  0  0  0  0  0  0
  148.5158  137.5728  152.9593 H   0  0  0  0  0  0  0  0  0  0  0  0
  147.5726  135.8733  152.7651 H   0  0  0  0  0  0  0  0  0  0  0  0
  145.8763  134.4409  153.9085 H   0  0  0  0  0  0  0  0  0  0  0  0
  144.6898  135.6621  153.5574 H   0  0  0  0  0  0  0  0  0  0  0  0
  144.9525  135.2302  149.7380 H   0  0  0  0  0  0  0  0  0  0  0  0
  146.1313  136.2239  150.5695 H   0  0  0  0  0  0  0  0  0  0  0  0
  144.4244  136.3644  150.9703 H   0  0  0  0  0  0  0  0  0  0  0  0
  147.3564  134.0583  150.9888 H   0  0  0  0  0  0  0  0  0  0  0  0
  146.8060  133.0297  152.2990 H   0  0  0  0  0  0  0  0  0  0  0  0
  146.0372  132.8772  149.4085 H   0  0  0  0  0  0  0  0  0  0  0  0
  146.2412  131.5742  150.5695 H   0  0  0  0  0  0  0  0  0  0  0  0
  143.7995  132.9332  149.8008 H   0  0  0  0  0  0  0  0  0  0  0  0
  143.9315  131.6539  150.9978 H   0  0  0  0  0  0  0  0  0  0  0  0
  144.0573  133.1426  152.7712 H   0  0  0  0  0  0  0  0  0  0  0  0
  143.1911  134.2237  151.6976 H   0  0  0  0  0  0  0  0  0  0  0  0
  149.1927  142.9285  154.7453 H   0  0  0  0  0  0  0  0  0  0  0  0
  1  2  1  0  0  0  0
  1 19  1  0  0  0  0
  1 20  1  0  0  0  0
  1 21  1  0  0  0  0
  2  7  1  0  0  0  0
  2  3  2  0  0  0  0
  3  4  1  0  0  0  0
  4  5  2  0  0  0  0
  4 39  1  0  0  0  0
  5  6  1  0  0  0  0
  5 22  1  0  0  0  0
  6  7  2  0  0  0  0
  6 23  1  0  0  0  0
  7  8  1  0  0  0  0
  8  9  1  0  0  0  0
  8 24  1  0  0  0  0
  9 10  2  0  0  0  0
  9 11  1  0  0  0  0
 11 12  1  0  0  0  0
 11 25  1  0  0  0  0
 12 13  1  0  0  0  0
 12 26  1  0  0  0  0
 12 27  1  0  0  0  0
 13 18  1  0  0  0  0
 13 14  1  0  0  0  0
 13 15  1  0  0  0  0
 14 28  1  0  0  0  0
 14 29  1  0  0  0  0
 14 30  1  0  0  0  0
 15 16  1  0  0  0  0
 15 31  1  0  0  0  0
 15 32  1  0  0  0  0
 16 17  1  0  0  0  0
 16 33  1  0  0  0  0
 16 34  1  0  0  0  0
 17 18  1  0  0  0  0
 17 35  1  0  0  0  0
 17 36  1  0  0  0  0
 18 37  1  0  0  0  0
 18 38  1  0  0  0  0
M  CHG  1   4   1
M  END
> <s_m_source_file>
AV-unprocessed.smi

> <i_m_source_file_index>
2506

> <i_lp_mmshare_version>
43012

> <i_f3d_flags>
0

> <s_epik_input>
W0NIM11jMW5uW2NIXVtjSF1jMVtOSF1DKD1PKVtOSF1bQ0gyXUMyKFtDSDNdKVtDSDJdW0NIMl1bQ0gyXVtDSDJdMg==

> <s_epik_cmdline>
J2VwaWtfcHl0aG9uJywgJy1waCcsICc3LjAnLCAnLXRuJywgJzgnLCAnLW1hJywgJzIwMCcsICctbWV0YWxfYmluZGluZycsICctaW1hZScsICc8aW5maWxlLm1hZT4nLCAnLW9tYWUnLCAnPG91dGZpbGUubWFlPic=

> <r_lp_tautomer_probability>
0.5088

> <r_epik_Ionization_Penalty>
1.13414

> <r_epik_Ionization_Penalty_Charging>
1.1341

> <r_epik_Ionization_Penalty_Neutral>
4.35135e-05

> <r_epik_State_Penalty>
2.14502

> <r_epik_Charging_Adjusted_Penalty>
3.27912

> <i_epik_Tot_Q>
1

> <i_epik_Tot_abs_Q>
1

> <r_epik_Metal_State_Penalty>
2.23434

> <b_epik_Metal_Only>
0

> <s_lp_Force_Field>
OPLS_2005

> <r_lp_Energy>
34.1821

> <b_lp_Chiralities_Consistent>
1

> <s_lp_Variant>
AV-unprocessed.smi:2506-2

> <Gold.Version>
5.8.1

> <Gold.Id.Protein>
6NUR|6NUR_protein|mol2

> <Gold.PLP.Fitness>
45.4346

> <Gold.PLP.PLP>
-33.0010

> <Gold.PLP.part.hbond>
-4.0000

> <Gold.PLP.part.metal>
0.0000

> <Gold.PLP.part.buried>
-3.3792

> <Gold.PLP.part.nonpolar>
-26.1683

> <Gold.PLP.part.repulsive>
1.4071

> <Gold.PLP.ligand.clash>
0.0000

> <Gold.PLP.ligand.torsion>
0.3379

> <Gold.PLP.Chemscore.Hbond>
4.3650

> <Gold.PLP.Chemscore.CHOScore>
0.0000

> <Gold.PLP.Chemscore.Metal>
0.0000

> <Gold.Chemscore.Hbonds>
donor molecule, donor type, donor heavy atom, donor atom, acceptor molecule, acceptor atom, score
      L1  H     4    39       P1  8028  2.00
      L1  H     8    24       P1  7948  1.00
      L1  H    11    25       P1  7948  0.99
      P1  H  7989  7998       L1     3  0.36

> <Gold.PLP.Chemscore.Internal.Correction>
0.0143

> <Gold.Rescore>
     Score         DG    S(hbond)    S(metal)    S(lipo)     H(rot)  DE(clash)    DE(int)     intcor
     19.48     -20.56       2.95        0.00      71.24       1.22       0.00       1.08       ----

> <Gold.Chemscore.Fitness>
19.4779

> <Gold.Chemscore.DG>
-20.5597

> <Gold.Chemscore.ZeroCoef>
-5.4800

> <Gold.Chemscore.Hbond>
2.9549

> <Gold.Chemscore.Metal>
0.0000

> <Gold.Chemscore.Lipo>
71.2427

> <Gold.Chemscore.Internal_Hbond>
0.0000

> <Gold.Chemscore.DEClash>
0.0000

> <Gold.Chemscore.DEInternal>
1.0817

> <Gold.Chemscore.Rot>
1.2207

> <Gold.Chemscore.Internal.Correction>
   9.000000E+99

> <Gold.Chemscore.Hbonds>
donor molecule, donor type, donor heavy atom, donor atom, acceptor molecule, acceptor atom, score
      L1  H     4    39       P1  8028  0.92
      L1  H     8    24       P1  7948  0.94
      L1  H    11    25       P1  7948  0.94
      P1  H  7989  7998       L1     3  0.04

> <Gold.Chemscore.Hbond.Weighted>
-9.8693

> <Gold.Chemscore.Metal.Weighted>
-0.0000

> <Gold.Chemscore.Lipo.Weighted>
-8.3354

> <Gold.Chemscore.Internal_Hbond.Weighted>
0.0000

> <Gold.Chemscore.DEClash.Weighted>
0.0000

> <Gold.Chemscore.DEInternal.Weighted>
1.0817

> <Gold.Chemscore.Rot.Weighted>
3.1250

> <Gold.Chemscore.Internal.Correction.Weighted>
   9.000000E+99

> <Gold.Protein.RotatedTorsions>
[ 6907 6896 6895 6894 ] final -146.18 input  -60.11 | X-H torsion
[ 7974 7965 7964 7962 ] final -101.13 input  175.53 | X-H torsion
[ 8008 7997 7996 7995 ] final -149.29 input   59.86 | X-H torsion
[ 10167 10162 10161 10158 ] final   20.72 input  -65.29 | X-H torsion
[ 10718 10713 10712 10709 ] final  -38.10 input   66.30 | X-H torsion
[ 10763 10752 10751 10750 ] final  -46.22 input  -60.55 | X-H torsion
[ 11005 11000 10999 10996 ] final  -39.32 input  -57.11 | X-H torsion

> <Gold.Protein.ActiveResidues>
 VAL166  LYS551  ARG553  GLY616  TRP617  ASP618  TYR619  PRO620  LYS621  CYS622 
 ASP623  PHE694  ASN695  SER759  ASP760  ASP761  ALA762  ILE779  LEU786  VAL792 
 PHE793  MET794  SER795  GLU796  ALA797  LYS798  CYS799  TRP800  GLU811  SER814 

> <Gold.Protein.RotatedAtoms>
  151.1380  133.4990  159.2597 H   0  0  0  0  0  0  0  0  0  0  0  0  # atno 6907 bound_to 6896
  151.1685  135.0306  159.8751 H   0  0  0  0  0  0  0  0  0  0  0  0  # atno 6908 bound_to 6896
  152.5461  134.1246  159.8467 H   0  0  0  0  0  0  0  0  0  0  0  0  # atno 6909 bound_to 6896
  145.2855  140.9338  143.2907 H   0  0  0  0  0  0  0  0  0  0  0  0  # atno 7974 bound_to 7965
  155.6052  140.0666  157.2722 H   0  0  0  0  0  0  0  0  0  0  0  0  # atno 8008 bound_to 7997
  154.4268  140.1811  156.1262 H   0  0  0  0  0  0  0  0  0  0  0  0  # atno 8009 bound_to 7997
  156.0128  140.3325  155.6961 H   0  0  0  0  0  0  0  0  0  0  0  0  # atno 8010 bound_to 7997
  140.5482  143.9556  150.6561 H   0  0  0  0  0  0  0  0  0  0  0  0  # atno 10167 bound_to 10162
  156.3077  130.4248  149.8081 H   0  0  0  0  0  0  0  0  0  0  0  0  # atno 10718 bound_to 10713
  154.0414  135.6643  153.4790 H   0  0  0  0  0  0  0  0  0  0  0  0  # atno 10763 bound_to 10752
  153.0500  135.5090  154.7839 H   0  0  0  0  0  0  0  0  0  0  0  0  # atno 10764 bound_to 10752
  154.6816  135.3046  154.9571 H   0  0  0  0  0  0  0  0  0  0  0  0  # atno 10765 bound_to 10752
  141.0093  133.6916  156.2171 H   0  0  0  0  0  0  0  0  0  0  0  0  # atno 11005 bound_to 11000
  144.9216  139.4404  143.6538 LP  0  0  0  0  0  0  0  0  0  0  0  0  # atno 17320 bound_to 7965
  146.3202  139.8080  142.8951 LP  0  0  0  0  0  0  0  0  0  0  0  0  # atno 17321 bound_to 7965
  140.2975  143.3282  152.1003 LP  0  0  0  0  0  0  0  0  0  0  0  0  # atno 17342 bound_to 10162
  139.5016  144.6717  151.6226 LP  0  0  0  0  0  0  0  0  0  0  0  0  # atno 17343 bound_to 10162
  156.5436  130.8311  151.3277 LP  0  0  0  0  0  0  0  0  0  0  0  0  # atno 17370 bound_to 10713
  157.7383  130.9812  150.2246 LP  0  0  0  0  0  0  0  0  0  0  0  0  # atno 17371 bound_to 10713
  140.6760  134.4818  157.5588 LP  0  0  0  0  0  0  0  0  0  0  0  0  # atno 17394 bound_to 11000
  139.9081  134.8405  156.1630 LP  0  0  0  0  0  0  0  0  0  0  0  0  # atno 17395 bound_to 11000

$$$$
