AV-unprocessed.smi:1019|AV-procd|sdf|4447|dock10
  -GOLD-   22720 2413D 1   1.00000     0.00000
 Structure written by MMmdl.
 45 47  0  0  0  0  0  0  0  0  3 V2000
  145.7117  136.3433  153.5335 C   0  0  0  0  0  0  0  0  0  0  0  0
  146.1289  136.6271  152.1415 N   0  3  1  0  0  0  0  0  0  0  0  0
  145.3908  135.8031  151.1533 C   0  0  0  0  0  0  0  0  0  0  0  0
  145.6268  134.3200  151.3833 C   0  0  0  0  0  0  0  0  0  0  0  0
  144.7378  133.3729  150.8317 C   0  0  0  0  0  0  0  0  0  0  0  0
  144.9395  131.9973  151.0560 C   0  0  0  0  0  0  0  0  0  0  0  0
  146.0333  131.5627  151.8288 C   0  0  0  0  0  0  0  0  0  0  0  0
  146.9264  132.5039  152.3760 C   0  0  0  0  0  0  0  0  0  0  0  0
  146.7247  133.8799  152.1531 C   0  0  0  0  0  0  0  0  0  0  0  0
  146.1246  138.0803  151.8295 C   0  0  0  0  0  0  0  0  0  0  0  0
  146.8210  138.8989  152.9315 C   0  0  2  0  0  0  0  0  0  0  0  0
  145.9216  139.8963  153.3711 O   0  0  0  0  0  0  0  0  0  0  0  0
  148.1213  139.5673  152.4354 C   0  0  0  0  0  0  0  0  0  0  0  0
  148.6760  140.5297  153.3958 N   0  0  0  0  0  0  0  0  0  0  0  0
  148.2374  141.7705  153.7442 C   0  0  0  0  0  0  0  0  0  0  0  0
  149.0990  142.2639  154.6765 N   0  3  0  0  0  0  0  0  0  0  0  0
  150.1057  141.3278  154.9238 C   0  0  0  0  0  0  0  0  0  0  0  0
  151.2006  141.3706  155.7817 C   0  0  0  0  0  0  0  0  0  0  0  0
  152.0417  140.2383  155.7910 C   0  0  0  0  0  0  0  0  0  0  0  0
  151.7808  139.1221  154.9696 C   0  0  0  0  0  0  0  0  0  0  0  0
  150.6674  139.0890  154.1038 C   0  0  0  0  0  0  0  0  0  0  0  0
  149.8409  140.2119  154.1017 C   0  0  0  0  0  0  0  0  0  0  0  0
  144.6613  136.5959  153.6860 H   0  0  0  0  0  0  0  0  0  0  0  0
  146.3076  136.9163  154.2443 H   0  0  0  0  0  0  0  0  0  0  0  0
  145.8461  135.2870  153.7685 H   0  0  0  0  0  0  0  0  0  0  0  0
  144.3185  135.9828  151.2455 H   0  0  0  0  0  0  0  0  0  0  0  0
  145.6690  136.0907  150.1380 H   0  0  0  0  0  0  0  0  0  0  0  0
  143.8953  133.6989  150.2391 H   0  0  0  0  0  0  0  0  0  0  0  0
  144.2556  131.2750  150.6350 H   0  0  0  0  0  0  0  0  0  0  0  0
  146.1885  130.5075  151.9995 H   0  0  0  0  0  0  0  0  0  0  0  0
  147.7666  132.1698  152.9668 H   0  0  0  0  0  0  0  0  0  0  0  0
  147.4136  134.5950  152.5787 H   0  0  0  0  0  0  0  0  0  0  0  0
  146.6260  138.2794  150.8824 H   0  0  0  0  0  0  0  0  0  0  0  0
  145.0954  138.4162  151.6903 H   0  0  0  0  0  0  0  0  0  0  0  0
  147.0347  138.2591  153.7879 H   0  0  0  0  0  0  0  0  0  0  0  0
  145.1424  139.8562  152.8376 H   0  0  0  0  0  0  0  0  0  0  0  0
  148.8892  138.8248  152.2152 H   0  0  0  0  0  0  0  0  0  0  0  0
  147.9392  140.1055  151.5038 H   0  0  0  0  0  0  0  0  0  0  0  0
  147.3634  142.2724  153.3536 H   0  0  0  0  0  0  0  0  0  0  0  0
  151.4039  142.2242  156.4117 H   0  0  0  0  0  0  0  0  0  0  0  0
  152.9047  140.2259  156.4413 H   0  0  0  0  0  0  0  0  0  0  0  0
  152.4493  138.2739  155.0047 H   0  0  0  0  0  0  0  0  0  0  0  0
  150.4767  138.2294  153.4789 H   0  0  0  0  0  0  0  0  0  0  0  0
  147.0901  136.3264  152.0683 H   0  0  0  0  0  0  0  0  0  0  0  0
  149.0060  143.1744  155.1088 H   0  0  0  0  0  0  0  0  0  0  0  0
  1  2  1  0  0  0  0
  1 23  1  0  0  0  0
  1 24  1  0  0  0  0
  1 25  1  0  0  0  0
  2  3  1  0  0  0  0
  2 10  1  0  0  0  0
  2 44  1  0  0  0  0
  3  4  1  0  0  0  0
  3 26  1  0  0  0  0
  3 27  1  0  0  0  0
  4  9  1  0  0  0  0
  4  5  2  0  0  0  0
  5  6  1  0  0  0  0
  5 28  1  0  0  0  0
  6  7  2  0  0  0  0
  6 29  1  0  0  0  0
  7  8  1  0  0  0  0
  7 30  1  0  0  0  0
  8  9  2  0  0  0  0
  8 31  1  0  0  0  0
  9 32  1  0  0  0  0
 10 11  1  0  0  0  0
 10 33  1  0  0  0  0
 10 34  1  0  0  0  0
 11 12  1  0  0  0  0
 11 13  1  0  0  0  0
 11 35  1  0  0  0  0
 12 36  1  0  0  0  0
 13 14  1  0  0  0  0
 13 37  1  0  0  0  0
 13 38  1  0  0  0  0
 14 22  1  0  0  0  0
 14 15  1  0  0  0  0
 15 16  2  0  0  0  0
 15 39  1  0  0  0  0
 16 17  1  0  0  0  0
 16 45  1  0  0  0  0
 17 22  2  0  0  0  0
 17 18  1  0  0  0  0
 18 19  2  0  0  0  0
 18 40  1  0  0  0  0
 19 20  1  0  0  0  0
 19 41  1  0  0  0  0
 20 21  2  0  0  0  0
 20 42  1  0  0  0  0
 21 22  1  0  0  0  0
 21 43  1  0  0  0  0
M  CHG  1   2   1
M  CHG  1  16   1
M  END
> <s_m_source_file>
AV-unprocessed.smi

> <i_m_source_file_index>
1019

> <i_lp_mmshare_version>
43012

> <i_f3d_flags>
0

> <s_epik_input>
W2NIXTFbY0hdW2NIXVtjSF1bY0hdYzFbQ0gyXU4oW0NIM10pW0NIMl1bQ0BIXShbT0hdKVtDSDJdbihbY0hdbjIpYyhjMjMpW2NIXVtjSF1bY0hdW2NIXTM=

> <s_epik_cmdline>
J2VwaWtfcHl0aG9uJywgJy1waCcsICc3LjAnLCAnLXRuJywgJzgnLCAnLW1hJywgJzIwMCcsICctbWV0YWxfYmluZGluZycsICctaW1hZScsICc8aW5maWxlLm1hZT4nLCAnLW9tYWUnLCAnPG91dGZpbGUubWFlPic=

> <r_epik_Ionization_Penalty>
1.5198

> <r_epik_Ionization_Penalty_Charging>
1.5198

> <r_epik_Ionization_Penalty_Neutral>
3.13312e-06

> <r_epik_State_Penalty>
1.624

> <r_epik_Charging_Adjusted_Penalty>
3.1438

> <i_epik_Tot_Q>
2

> <i_epik_Tot_abs_Q>
2

> <r_epik_Metal_State_Penalty>
5.67392

> <b_epik_Metal_Only>
0

> <s_lp_Force_Field>
OPLS_2005

> <r_lp_Energy>
24.5939

> <b_lp_Chiralities_Consistent>
1

> <s_lp_Variant>
AV-unprocessed.smi:1019-5

> <Gold.Version>
5.8.1

> <Gold.Id.Protein>
6NUR|6NUR_protein|mol2

> <Gold.PLP.Fitness>
56.3503

> <Gold.PLP.PLP>
-43.6194

> <Gold.PLP.part.hbond>
-2.9767

> <Gold.PLP.part.metal>
0.0000

> <Gold.PLP.part.buried>
5.7456

> <Gold.PLP.part.nonpolar>
-45.2029

> <Gold.PLP.part.repulsive>
0.2223

> <Gold.PLP.ligand.clash>
0.0000

> <Gold.PLP.ligand.torsion>
1.2415

> <Gold.PLP.Chemscore.Hbond>
5.0000

> <Gold.PLP.Chemscore.CHOScore>
0.0000

> <Gold.PLP.Chemscore.Metal>
0.0000

> <Gold.Chemscore.Hbonds>
donor molecule, donor type, donor heavy atom, donor atom, acceptor molecule, acceptor atom, score
      L1  H     2    44       P1  7948  2.00
      L1  H    12    36       P1 10175  0.98
      L1  H    16    45       P1  8028  2.00

> <Gold.PLP.Chemscore.Internal.Correction>
0.2138

> <Gold.Rescore>
     Score         DG    S(hbond)    S(metal)    S(lipo)     H(rot)  DE(clash)    DE(int)     intcor
     16.35     -21.97       2.81        0.00     114.48       2.46       3.15       2.47       ----

> <Gold.Chemscore.Fitness>
16.3534

> <Gold.Chemscore.DG>
-21.9690

> <Gold.Chemscore.ZeroCoef>
-5.4800

> <Gold.Chemscore.Hbond>
2.8085

> <Gold.Chemscore.Metal>
0.0000

> <Gold.Chemscore.Lipo>
114.4785

> <Gold.Chemscore.Internal_Hbond>
0.0000

> <Gold.Chemscore.DEClash>
3.1503

> <Gold.Chemscore.DEInternal>
2.4653

> <Gold.Chemscore.Rot>
2.4552

> <Gold.Chemscore.Internal.Correction>
   9.000000E+99

> <Gold.Chemscore.Hbonds>
donor molecule, donor type, donor heavy atom, donor atom, acceptor molecule, acceptor atom, score
      L1  H     2    44       P1  7948  1.00
      L1  H    12    36       P1 10175  0.93
      L1  H    16    45       P1  8028  1.00

> <Gold.Chemscore.Hbond.Weighted>
-9.3804

> <Gold.Chemscore.Metal.Weighted>
-0.0000

> <Gold.Chemscore.Lipo.Weighted>
-13.3940

> <Gold.Chemscore.Internal_Hbond.Weighted>
0.0000

> <Gold.Chemscore.DEClash.Weighted>
3.1503

> <Gold.Chemscore.DEInternal.Weighted>
2.4653

> <Gold.Chemscore.Rot.Weighted>
6.2854

> <Gold.Chemscore.Internal.Correction.Weighted>
   9.000000E+99

> <Gold.Protein.RotatedTorsions>
[ 6907 6896 6895 6894 ] final  135.60 input  -60.11 | X-H torsion
[ 7974 7965 7964 7962 ] final   67.44 input  175.53 | X-H torsion
[ 8008 7997 7996 7995 ] final   95.89 input   59.86 | X-H torsion
[ 10167 10162 10161 10158 ] final -119.01 input  -65.29 | X-H torsion
[ 10718 10713 10712 10709 ] final -136.18 input   66.30 | X-H torsion
[ 10763 10752 10751 10750 ] final   93.86 input  -60.55 | X-H torsion
[ 11005 11000 10999 10996 ] final  172.54 input  -57.11 | X-H torsion

> <Gold.Protein.ActiveResidues>
 VAL166  LYS551  ARG553  GLY616  TRP617  ASP618  TYR619  PRO620  LYS621  CYS622 
 ASP623  PHE694  ASN695  SER759  ASP760  ASP761  ALA762  ILE779  LEU786  VAL792 
 PHE793  MET794  SER795  GLU796  ALA797  LYS798  CYS799  TRP800  GLU811  SER814 

> <Gold.Protein.RotatedAtoms>
  152.2986  133.5632  159.5603 H   0  0  0  0  0  0  0  0  0  0  0  0  # atno 6907 bound_to 6896
  150.7267  134.0325  159.3747 H   0  0  0  0  0  0  0  0  0  0  0  0  # atno 6908 bound_to 6896
  151.8226  135.0647  160.0478 H   0  0  0  0  0  0  0  0  0  0  0  0  # atno 6909 bound_to 6896
  145.8146  139.3051  143.1079 H   0  0  0  0  0  0  0  0  0  0  0  0  # atno 7974 bound_to 7965
  156.0738  140.3280  155.7608 H   0  0  0  0  0  0  0  0  0  0  0  0  # atno 8008 bound_to 7997
  155.5264  140.0589  157.2914 H   0  0  0  0  0  0  0  0  0  0  0  0  # atno 8009 bound_to 7997
  154.4544  140.1935  156.0440 H   0  0  0  0  0  0  0  0  0  0  0  0  # atno 8010 bound_to 7997
  140.0513  143.5057  152.2080 H   0  0  0  0  0  0  0  0  0  0  0  0  # atno 10167 bound_to 10162
  156.2742  130.7283  151.1260 H   0  0  0  0  0  0  0  0  0  0  0  0  # atno 10718 bound_to 10713
  153.2351  135.4310  155.0637 H   0  0  0  0  0  0  0  0  0  0  0  0  # atno 10763 bound_to 10752
  154.8315  135.3389  154.6731 H   0  0  0  0  0  0  0  0  0  0  0  0  # atno 10764 bound_to 10752
  153.7156  135.7020  153.5082 H   0  0  0  0  0  0  0  0  0  0  0  0  # atno 10765 bound_to 10752
  140.3308  134.7358  157.4133 H   0  0  0  0  0  0  0  0  0  0  0  0  # atno 11005 bound_to 11000
  145.9740  140.8737  143.0148 LP  0  0  0  0  0  0  0  0  0  0  0  0  # atno 17320 bound_to 7965
  144.6754  140.1986  143.7389 LP  0  0  0  0  0  0  0  0  0  0  0  0  # atno 17321 bound_to 7965
  139.5951  144.7564  151.3306 LP  0  0  0  0  0  0  0  0  0  0  0  0  # atno 17342 bound_to 10162
  140.7215  143.7122  150.7761 LP  0  0  0  0  0  0  0  0  0  0  0  0  # atno 17343 bound_to 10162
  157.7294  131.0624  150.5777 LP  0  0  0  0  0  0  0  0  0  0  0  0  # atno 17370 bound_to 10713
  156.5876  130.4321  149.5950 LP  0  0  0  0  0  0  0  0  0  0  0  0  # atno 17371 bound_to 10713
  140.0862  134.5663  155.8490 LP  0  0  0  0  0  0  0  0  0  0  0  0  # atno 17394 bound_to 11000
  141.2064  133.6654  156.6238 LP  0  0  0  0  0  0  0  0  0  0  0  0  # atno 17395 bound_to 11000

$$$$
