AV-unprocessed.smi:2703|AV-procd|sdf|10438|dock1
  -GOLD-   2272014483D 1   1.00000     0.00000
 Structure written by MMmdl.
 42 44  0  0  0  0  0  0  0  0  3 V2000
  153.3616  142.4280  161.2532 C   0  0  0  0  0  0  0  0  0  0  0  0
  152.6658  142.1613  159.9302 C   0  0  0  0  0  0  0  0  0  0  0  0
  152.7470  140.8714  159.3588 C   0  0  0  0  0  0  0  0  0  0  0  0
  152.1155  140.5827  158.1292 C   0  0  0  0  0  0  0  0  0  0  0  0
  152.0675  139.4082  157.3978 N   0  0  0  0  0  0  0  0  0  0  0  0
  151.3327  139.7745  156.3515 C   0  0  0  0  0  0  0  0  0  0  0  0
  150.8963  141.0482  156.3193 N   0  0  0  0  0  0  0  0  0  0  0  0
  150.0862  141.6663  155.2845 C   0  0  0  0  0  0  0  0  0  0  0  0
  149.1784  140.6531  154.5613 C   0  0  2  0  0  0  0  0  0  0  0  0
  149.8806  140.0711  153.4790 O   0  0  0  0  0  0  0  0  0  0  0  0
  147.8903  141.3088  154.0369 C   0  0  0  0  0  0  0  0  0  0  0  0
  146.8367  141.9226  155.3843 S   0  0  0  0  0  0  0  0  0  0  0  0
  145.7934  143.2064  154.7355 C   0  0  0  0  0  0  0  0  0  0  0  0
  145.8851  143.6439  153.3953 C   0  0  0  0  0  0  0  0  0  0  0  0
  145.0349  144.6615  152.9356 C   0  0  0  0  0  0  0  0  0  0  0  0
  144.1080  145.2234  153.8258 C   0  0  0  0  0  0  0  0  0  0  0  0
  144.0519  144.7571  155.1530 C   0  0  0  0  0  0  0  0  0  0  0  0
  144.8816  143.7651  155.6011 N   0  3  0  0  0  0  0  0  0  0  0  0
  144.7910  143.3738  156.8243 O   0  5  0  0  0  0  0  0  0  0  0  0
  151.3926  141.6276  157.4824 C   0  0  0  0  0  0  0  0  0  0  0  0
  151.3046  142.9149  158.0411 C   0  0  0  0  0  0  0  0  0  0  0  0
  151.9434  143.1870  159.2690 C   0  0  0  0  0  0  0  0  0  0  0  0
  151.8452  144.5813  159.8623 C   0  0  0  0  0  0  0  0  0  0  0  0
  153.8504  141.5308  161.6342 H   0  0  0  0  0  0  0  0  0  0  0  0
  152.6433  142.7611  162.0028 H   0  0  0  0  0  0  0  0  0  0  0  0
  154.1228  143.1994  161.1354 H   0  0  0  0  0  0  0  0  0  0  0  0
  153.2979  140.0902  159.8615 H   0  0  0  0  0  0  0  0  0  0  0  0
  151.0978  139.0768  155.5608 H   0  0  0  0  0  0  0  0  0  0  0  0
  149.4820  142.4469  155.7489 H   0  0  0  0  0  0  0  0  0  0  0  0
  150.7462  142.1662  154.5744 H   0  0  0  0  0  0  0  0  0  0  0  0
  148.9136  139.8555  155.2570 H   0  0  0  0  0  0  0  0  0  0  0  0
  149.4828  140.3574  152.6713 H   0  0  0  0  0  0  0  0  0  0  0  0
  148.1437  142.1533  153.3953 H   0  0  0  0  0  0  0  0  0  0  0  0
  147.3241  140.6007  153.4306 H   0  0  0  0  0  0  0  0  0  0  0  0
  146.5985  143.2109  152.7120 H   0  0  0  0  0  0  0  0  0  0  0  0
  145.0930  145.0057  151.9133 H   0  0  0  0  0  0  0  0  0  0  0  0
  143.4422  146.0077  153.4966 H   0  0  0  0  0  0  0  0  0  0  0  0
  143.3654  145.1412  155.8938 H   0  0  0  0  0  0  0  0  0  0  0  0
  150.7526  143.6872  157.5266 H   0  0  0  0  0  0  0  0  0  0  0  0
  151.2700  145.2478  159.2192 H   0  0  0  0  0  0  0  0  0  0  0  0
  152.8379  145.0137  159.9882 H   0  0  0  0  0  0  0  0  0  0  0  0
  151.3543  144.5487  160.8350 H   0  0  0  0  0  0  0  0  0  0  0  0
  1  2  1  0  0  0  0
  1 24  1  0  0  0  0
  1 25  1  0  0  0  0
  1 26  1  0  0  0  0
  2 22  1  0  0  0  0
  2  3  2  0  0  0  0
  3  4  1  0  0  0  0
  3 27  1  0  0  0  0
  4 20  2  0  0  0  0
  4  5  1  0  0  0  0
  5  6  2  0  0  0  0
  6  7  1  0  0  0  0
  6 28  1  0  0  0  0
  7  8  1  0  0  0  0
  7 20  1  0  0  0  0
  8  9  1  0  0  0  0
  8 29  1  0  0  0  0
  8 30  1  0  0  0  0
  9 10  1  0  0  0  0
  9 11  1  0  0  0  0
  9 31  1  0  0  0  0
 10 32  1  0  0  0  0
 11 12  1  0  0  0  0
 11 33  1  0  0  0  0
 11 34  1  0  0  0  0
 12 13  1  0  0  0  0
 13 18  1  0  0  0  0
 13 14  2  0  0  0  0
 14 15  1  0  0  0  0
 14 35  1  0  0  0  0
 15 16  2  0  0  0  0
 15 36  1  0  0  0  0
 16 17  1  0  0  0  0
 16 37  1  0  0  0  0
 17 18  2  0  0  0  0
 17 38  1  0  0  0  0
 18 19  1  0  0  0  0
 20 21  1  0  0  0  0
 21 22  2  0  0  0  0
 21 39  1  0  0  0  0
 22 23  1  0  0  0  0
 23 40  1  0  0  0  0
 23 41  1  0  0  0  0
 23 42  1  0  0  0  0
M  CHG  1  18   1
M  CHG  1  19  -1
M  END
> <s_m_source_file>
AV-unprocessed.smi

> <i_m_source_file_index>
2703

> <i_lp_mmshare_version>
43012

> <i_f3d_flags>
0

> <s_epik_input>
W0NIM11jKFtjSF0xKWMoW0NIM10pW2NIXWMoYzEyKW4oW2NIXW4yKVtDSDJdW0NASF0oW09IXSlbQ0gyXVNjM1tjSF1bY0hdW2NIXVtjSF1bbitdM1tPLV0=

> <s_epik_cmdline>
J2VwaWtfcHl0aG9uJywgJy1waCcsICc3LjAnLCAnLXRuJywgJzgnLCAnLW1hJywgJzIwMCcsICctbWV0YWxfYmluZGluZycsICctaW1hZScsICc8aW5maWxlLm1hZT4nLCAnLW9tYWUnLCAnPG91dGZpbGUubWFlPic=

> <r_epik_Ionization_Penalty>
0.106001

> <r_epik_Ionization_Penalty_Charging>
1.39204e-07

> <r_epik_Ionization_Penalty_Neutral>
0.106001

> <r_epik_State_Penalty>
0.0958598

> <r_epik_Charging_Adjusted_Penalty>
0.0958599

> <i_epik_Tot_Q>
0

> <i_epik_Tot_abs_Q>
2

> <r_epik_Metal_State_Penalty>
0.000104041

> <b_epik_Metal_Only>
0

> <s_lp_Force_Field>
OPLS_2005

> <r_lp_Energy>
16.8737

> <b_lp_Chiralities_Consistent>
1

> <s_lp_Variant>
AV-unprocessed.smi:2703-1

> <Gold.Version>
5.8.1

> <Gold.Id.Protein>
6NUR|6NUR_protein|mol2

> <Gold.PLP.Fitness>
58.7442

> <Gold.PLP.PLP>
-55.9966

> <Gold.PLP.part.hbond>
-1.4471

> <Gold.PLP.part.metal>
0.0000

> <Gold.PLP.part.buried>
-6.9758

> <Gold.PLP.part.nonpolar>
-47.2315

> <Gold.PLP.part.repulsive>
0.0903

> <Gold.PLP.ligand.clash>
0.0000

> <Gold.PLP.ligand.torsion>
0.8642

> <Gold.PLP.Chemscore.Hbond>
1.4080

> <Gold.PLP.Chemscore.CHOScore>
0.0000

> <Gold.PLP.Chemscore.Metal>
0.0000

> <Gold.Chemscore.Hbonds>
donor molecule, donor type, donor heavy atom, donor atom, acceptor molecule, acceptor atom, score
      L1  H    10    32       P1  7957  0.75
      P1  H  7989  7998       L1    10  0.62

> <Gold.PLP.Chemscore.Internal.Correction>
0.2520

> <Gold.Rescore>
     Score         DG    S(hbond)    S(metal)    S(lipo)     H(rot)  DE(clash)    DE(int)     intcor
     18.18     -19.14       0.88        0.00     140.81       2.26       0.03       0.93       ----

> <Gold.Chemscore.Fitness>
18.1795

> <Gold.Chemscore.DG>
-19.1362

> <Gold.Chemscore.ZeroCoef>
-5.4800

> <Gold.Chemscore.Hbond>
0.8850

> <Gold.Chemscore.Metal>
0.0000

> <Gold.Chemscore.Lipo>
140.8135

> <Gold.Chemscore.Internal_Hbond>
0.0000

> <Gold.Chemscore.DEClash>
0.0313

> <Gold.Chemscore.DEInternal>
0.9255

> <Gold.Chemscore.Rot>
2.2558

> <Gold.Chemscore.Internal.Correction>
   9.000000E+99

> <Gold.Chemscore.Hbonds>
donor molecule, donor type, donor heavy atom, donor atom, acceptor molecule, acceptor atom, score
      L1  H    10    32       P1  7957  0.72
      P1  H  7989  7998       L1    10  0.17

> <Gold.Chemscore.Hbond.Weighted>
-2.9558

> <Gold.Chemscore.Metal.Weighted>
-0.0000

> <Gold.Chemscore.Lipo.Weighted>
-16.4752

> <Gold.Chemscore.Internal_Hbond.Weighted>
0.0000

> <Gold.Chemscore.DEClash.Weighted>
0.0313

> <Gold.Chemscore.DEInternal.Weighted>
0.9255

> <Gold.Chemscore.Rot.Weighted>
5.7748

> <Gold.Chemscore.Internal.Correction.Weighted>
   9.000000E+99

> <Gold.Protein.RotatedTorsions>
[ 6907 6896 6895 6894 ] final -149.73 input  -60.11 | X-H torsion
[ 7974 7965 7964 7962 ] final  -23.13 input  175.53 | X-H torsion
[ 8008 7997 7996 7995 ] final  -45.98 input   59.86 | X-H torsion
[ 10167 10162 10161 10158 ] final   79.61 input  -65.29 | X-H torsion
[ 10718 10713 10712 10709 ] final   44.81 input   66.30 | X-H torsion
[ 10763 10752 10751 10750 ] final  -15.59 input  -60.55 | X-H torsion
[ 11005 11000 10999 10996 ] final   92.36 input  -57.11 | X-H torsion

> <Gold.Protein.ActiveResidues>
 VAL166  LYS551  ARG553  GLY616  TRP617  ASP618  TYR619  PRO620  LYS621  CYS622 
 ASP623  PHE694  ASN695  SER759  ASP760  ASP761  ALA762  ILE779  LEU786  VAL792 
 PHE793  MET794  SER795  GLU796  ALA797  LYS798  CYS799  TRP800  GLU811  SER814 

> <Gold.Protein.RotatedAtoms>
  151.1883  133.4683  159.2594 H   0  0  0  0  0  0  0  0  0  0  0  0  # atno 6907 bound_to 6896
  151.1189  135.0068  159.8539 H   0  0  0  0  0  0  0  0  0  0  0  0  # atno 6908 bound_to 6896
  152.5455  134.1796  159.8683 H   0  0  0  0  0  0  0  0  0  0  0  0  # atno 6909 bound_to 6896
  146.1635  140.4573  142.8562 H   0  0  0  0  0  0  0  0  0  0  0  0  # atno 7974 bound_to 7965
  154.4004  140.1383  156.3936 H   0  0  0  0  0  0  0  0  0  0  0  0  # atno 8008 bound_to 7997
  155.7890  140.3479  155.5318 H   0  0  0  0  0  0  0  0  0  0  0  0  # atno 8009 bound_to 7997
  155.8598  140.0954  157.1611 H   0  0  0  0  0  0  0  0  0  0  0  0  # atno 8010 bound_to 7997
  139.9585  144.5977  150.8094 H   0  0  0  0  0  0  0  0  0  0  0  0  # atno 10167 bound_to 10162
  157.4308  130.8024  149.7601 H   0  0  0  0  0  0  0  0  0  0  0  0  # atno 10718 bound_to 10713
  153.5457  135.7012  153.5615 H   0  0  0  0  0  0  0  0  0  0  0  0  # atno 10763 bound_to 10752
  153.3561  135.3982  155.1683 H   0  0  0  0  0  0  0  0  0  0  0  0  # atno 10764 bound_to 10752
  154.8668  135.3777  154.4964 H   0  0  0  0  0  0  0  0  0  0  0  0  # atno 10765 bound_to 10752
  139.8824  134.8728  156.3561 H   0  0  0  0  0  0  0  0  0  0  0  0  # atno 11005 bound_to 11000
  144.8059  140.6299  143.6447 LP  0  0  0  0  0  0  0  0  0  0  0  0  # atno 17320 bound_to 7965
  145.4528  139.1521  143.3909 LP  0  0  0  0  0  0  0  0  0  0  0  0  # atno 17321 bound_to 7965
  140.7560  143.3058  151.2965 LP  0  0  0  0  0  0  0  0  0  0  0  0  # atno 17342 bound_to 10162
  139.6572  144.0254  152.2668 LP  0  0  0  0  0  0  0  0  0  0  0  0  # atno 17343 bound_to 10162
  155.9912  130.3939  150.2993 LP  0  0  0  0  0  0  0  0  0  0  0  0  # atno 17370 bound_to 10713
  157.1149  131.0231  151.3033 LP  0  0  0  0  0  0  0  0  0  0  0  0  # atno 17371 bound_to 10713
  140.9561  133.7419  156.0338 LP  0  0  0  0  0  0  0  0  0  0  0  0  # atno 17394 bound_to 11000
  140.8046  134.3469  157.5429 LP  0  0  0  0  0  0  0  0  0  0  0  0  # atno 17395 bound_to 11000

$$$$
