AV-unprocessed.smi:609|AV-procd|sdf|3049|dock8
  -GOLD-   2262023573D 1   1.00000     0.00000
 Structure written by MMmdl.
 44 46  0  0  0  0  0  0  0  0  3 V2000
  151.9907  144.0839  160.9773 C   0  0  0  0  0  0  0  0  0  0  0  0
  151.9809  143.1298  159.7949 C   0  0  0  0  0  0  0  0  0  0  0  0
  151.1722  143.4459  158.6798 C   0  0  0  0  0  0  0  0  0  0  0  0
  151.1875  142.5557  157.6127 C   0  0  0  0  0  0  0  0  0  0  0  0
  150.5198  142.5845  156.3863 N   0  3  0  0  0  0  0  0  0  0  0  0
  150.8582  141.4840  155.6586 C   0  0  0  0  0  0  0  0  0  0  0  0
  151.7232  140.7474  156.4080 N   0  0  0  0  0  0  0  0  0  0  0  0
  152.3936  139.4768  156.1035 C   0  0  0  0  0  0  0  0  0  0  0  0
  151.4186  138.3514  155.6999 C   0  0  2  0  0  0  0  0  0  0  0  0
  152.1785  137.1809  155.4822 O   0  0  0  0  0  0  0  0  0  0  0  0
  150.5948  138.6667  154.4377 C   0  0  0  0  0  0  0  0  0  0  0  0
  148.8523  138.9992  154.8227 S   0  0  0  0  0  0  0  0  0  0  0  0
  148.1583  139.6341  153.3285 C   0  0  0  0  0  0  0  0  0  0  0  0
  148.0149  138.9353  152.1996 N   0  3  0  0  0  0  0  0  0  0  0  0
  147.4456  139.7220  151.2348 C   0  0  0  0  0  0  0  0  0  0  0  0
  147.2287  140.9492  151.8094 C   0  0  0  0  0  0  0  0  0  0  0  0
  147.6733  140.8655  153.1047 N   0  0  0  0  0  0  0  0  0  0  0  0
  147.6334  141.9318  154.1084 C   0  0  0  0  0  0  0  0  0  0  0  0
  151.9664  141.3826  157.6300 C   0  0  0  0  0  0  0  0  0  0  0  0
  152.7693  141.0561  158.7196 C   0  0  0  0  0  0  0  0  0  0  0  0
  152.7707  141.9509  159.8136 C   0  0  0  0  0  0  0  0  0  0  0  0
  153.6405  141.6237  161.0155 C   0  0  0  0  0  0  0  0  0  0  0  0
  151.3176  144.9264  160.8162 H   0  0  0  0  0  0  0  0  0  0  0  0
  152.9923  144.4837  161.1371 H   0  0  0  0  0  0  0  0  0  0  0  0
  151.6721  143.5725  161.8859 H   0  0  0  0  0  0  0  0  0  0  0  0
  150.5711  144.3431  158.6574 H   0  0  0  0  0  0  0  0  0  0  0  0
  150.5025  141.2391  154.6681 H   0  0  0  0  0  0  0  0  0  0  0  0
  153.0996  139.6706  155.2945 H   0  0  0  0  0  0  0  0  0  0  0  0
  152.9885  139.1873  156.9712 H   0  0  0  0  0  0  0  0  0  0  0  0
  150.7362  138.1536  156.5270 H   0  0  0  0  0  0  0  0  0  0  0  0
  152.3181  136.7530  156.3134 H   0  0  0  0  0  0  0  0  0  0  0  0
  150.9977  139.5449  153.9365 H   0  0  0  0  0  0  0  0  0  0  0  0
  150.6514  137.8415  153.7267 H   0  0  0  0  0  0  0  0  0  0  0  0
  147.2407  139.3592  150.2380 H   0  0  0  0  0  0  0  0  0  0  0  0
  146.7976  141.8526  151.4020 H   0  0  0  0  0  0  0  0  0  0  0  0
  146.8499  142.6435  153.8468 H   0  0  0  0  0  0  0  0  0  0  0  0
  148.5948  142.4450  154.1245 H   0  0  0  0  0  0  0  0  0  0  0  0
  147.4171  141.5133  155.0916 H   0  0  0  0  0  0  0  0  0  0  0  0
  153.3713  140.1593  158.7324 H   0  0  0  0  0  0  0  0  0  0  0  0
  154.2146  140.7104  160.8559 H   0  0  0  0  0  0  0  0  0  0  0  0
  153.0260  141.4809  161.9046 H   0  0  0  0  0  0  0  0  0  0  0  0
  154.3482  142.4303  161.2084 H   0  0  0  0  0  0  0  0  0  0  0  0
  148.2899  137.9685  152.0791 H   0  0  0  0  0  0  0  0  0  0  0  0
  149.8861  143.3049  156.0641 H   0  0  0  0  0  0  0  0  0  0  0  0
  1  2  1  0  0  0  0
  1 23  1  0  0  0  0
  1 24  1  0  0  0  0
  1 25  1  0  0  0  0
  2 21  1  0  0  0  0
  2  3  2  0  0  0  0
  3  4  1  0  0  0  0
  3 26  1  0  0  0  0
  4 19  2  0  0  0  0
  4  5  1  0  0  0  0
  5  6  2  0  0  0  0
  5 44  1  0  0  0  0
  6  7  1  0  0  0  0
  6 27  1  0  0  0  0
  7  8  1  0  0  0  0
  7 19  1  0  0  0  0
  8  9  1  0  0  0  0
  8 28  1  0  0  0  0
  8 29  1  0  0  0  0
  9 10  1  0  0  0  0
  9 11  1  0  0  0  0
  9 30  1  0  0  0  0
 10 31  1  0  0  0  0
 11 12  1  0  0  0  0
 11 32  1  0  0  0  0
 11 33  1  0  0  0  0
 12 13  1  0  0  0  0
 13 17  1  0  0  0  0
 13 14  2  0  0  0  0
 14 15  1  0  0  0  0
 14 43  1  0  0  0  0
 15 16  2  0  0  0  0
 15 34  1  0  0  0  0
 16 17  1  0  0  0  0
 16 35  1  0  0  0  0
 17 18  1  0  0  0  0
 18 36  1  0  0  0  0
 18 37  1  0  0  0  0
 18 38  1  0  0  0  0
 19 20  1  0  0  0  0
 20 21  2  0  0  0  0
 20 39  1  0  0  0  0
 21 22  1  0  0  0  0
 22 40  1  0  0  0  0
 22 41  1  0  0  0  0
 22 42  1  0  0  0  0
M  CHG  1   5   1
M  CHG  1  14   1
M  END
> <s_m_source_file>
AV-unprocessed.smi

> <i_m_source_file_index>
609

> <i_lp_mmshare_version>
43012

> <i_f3d_flags>
0

> <s_epik_input>
W0NIM11jKFtjSF0xKWMoW0NIM10pW2NIXWMoYzEyKW4oW2NIXW4yKVtDSDJdW0NASF0oW09IXSlbQ0gyXVNjM25bY0hdW2NIXW4zW0NIM10=

> <s_epik_cmdline>
J2VwaWtfcHl0aG9uJywgJy1waCcsICc3LjAnLCAnLXRuJywgJzgnLCAnLW1hJywgJzIwMCcsICctbWV0YWxfYmluZGluZycsICctaW1hZScsICc8aW5maWxlLm1hZT4nLCAnLW9tYWUnLCAnPG91dGZpbGUubWFlPic=

> <r_lp_tautomer_probability>
1

> <r_epik_Ionization_Penalty>
1.19058

> <r_epik_Ionization_Penalty_Charging>
1.07615

> <r_epik_Ionization_Penalty_Neutral>
0.114429

> <r_epik_State_Penalty>
1.23473

> <r_epik_Charging_Adjusted_Penalty>
2.31088

> <i_epik_Tot_Q>
2

> <i_epik_Tot_abs_Q>
2

> <r_epik_Metal_State_Penalty>
4.63867

> <b_epik_Metal_Only>
0

> <s_lp_Force_Field>
OPLS_2005

> <r_lp_Energy>
20.2349

> <b_lp_Chiralities_Consistent>
1

> <s_lp_Variant>
AV-unprocessed.smi:609-5

> <Gold.Version>
5.8.1

> <Gold.Id.Protein>
6NUR|6NUR_protein|mol2

> <Gold.PLP.Fitness>
59.8164

> <Gold.PLP.PLP>
-46.8929

> <Gold.PLP.part.hbond>
-4.0000

> <Gold.PLP.part.metal>
0.0000

> <Gold.PLP.part.buried>
0.4239

> <Gold.PLP.part.nonpolar>
-43.0006

> <Gold.PLP.part.repulsive>
0.1368

> <Gold.PLP.ligand.clash>
0.0000

> <Gold.PLP.ligand.torsion>
0.7814

> <Gold.PLP.Chemscore.Hbond>
4.8000

> <Gold.PLP.Chemscore.CHOScore>
0.0158

> <Gold.PLP.Chemscore.Metal>
0.0000

> <Gold.Chemscore.Hbonds>
donor molecule, donor type, donor heavy atom, donor atom, acceptor molecule, acceptor atom, score
      L1  H     5    44       P1  8028  2.00
      L1  H    14    43       P1  7948  2.00
      P1  H 10752 10765       L1    10  0.42

> <Gold.PLP.Chemscore.Internal.Correction>
0.0387

> <Gold.Rescore>
     Score         DG    S(hbond)    S(metal)    S(lipo)     H(rot)  DE(clash)    DE(int)     intcor
     18.57     -20.93       2.33        0.00     122.06       2.59       1.53       0.83       ----

> <Gold.Chemscore.Fitness>
18.5673

> <Gold.Chemscore.DG>
-20.9270

> <Gold.Chemscore.ZeroCoef>
-5.4800

> <Gold.Chemscore.Hbond>
2.3315

> <Gold.Chemscore.Metal>
0.0000

> <Gold.Chemscore.Lipo>
122.0573

> <Gold.Chemscore.Internal_Hbond>
0.0000

> <Gold.Chemscore.DEClash>
1.5321

> <Gold.Chemscore.DEInternal>
0.8276

> <Gold.Chemscore.Rot>
2.5863

> <Gold.Chemscore.Internal.Correction>
   9.000000E+99

> <Gold.Chemscore.Hbonds>
donor molecule, donor type, donor heavy atom, donor atom, acceptor molecule, acceptor atom, score
      L1  H     5    44       P1  8028  1.00
      L1  H    14    43       P1  7948  1.00
      P1  H 10752 10765       L1    10  0.02

> <Gold.Chemscore.Hbond.Weighted>
-7.7873

> <Gold.Chemscore.Metal.Weighted>
-0.0000

> <Gold.Chemscore.Lipo.Weighted>
-14.2807

> <Gold.Chemscore.Internal_Hbond.Weighted>
0.0000

> <Gold.Chemscore.DEClash.Weighted>
1.5321

> <Gold.Chemscore.DEInternal.Weighted>
0.8276

> <Gold.Chemscore.Rot.Weighted>
6.6210

> <Gold.Chemscore.Internal.Correction.Weighted>
   9.000000E+99

> <Gold.Protein.RotatedTorsions>
[ 6907 6896 6895 6894 ] final -135.39 input  -60.11 | X-H torsion
[ 7974 7965 7964 7962 ] final  -31.25 input  175.53 | X-H torsion
[ 8008 7997 7996 7995 ] final   53.13 input   59.86 | X-H torsion
[ 10167 10162 10161 10158 ] final  -78.66 input  -65.29 | X-H torsion
[ 10718 10713 10712 10709 ] final  -63.43 input   66.30 | X-H torsion
[ 10763 10752 10751 10750 ] final  175.12 input  -60.55 | X-H torsion
[ 11005 11000 10999 10996 ] final    3.48 input  -57.11 | X-H torsion

> <Gold.Protein.ActiveResidues>
 VAL166  LYS551  ARG553  GLY616  TRP617  ASP618  TYR619  PRO620  LYS621  CYS622 
 ASP623  PHE694  ASN695  SER759  ASP760  ASP761  ALA762  ILE779  LEU786  VAL792 
 PHE793  MET794  SER795  GLU796  ALA797  LYS798  CYS799  TRP800  GLU811  SER814 

> <Gold.Protein.RotatedAtoms>
  150.9973  133.6091  159.2699 H   0  0  0  0  0  0  0  0  0  0  0  0  # atno 6907 bound_to 6896
  151.3290  135.0836  159.9342 H   0  0  0  0  0  0  0  0  0  0  0  0  # atno 6908 bound_to 6896
  152.5263  133.9606  159.7769 H   0  0  0  0  0  0  0  0  0  0  0  0  # atno 6909 bound_to 6896
  146.1082  140.5643  142.8790 H   0  0  0  0  0  0  0  0  0  0  0  0  # atno 7974 bound_to 7965
  155.4632  140.3462  155.4315 H   0  0  0  0  0  0  0  0  0  0  0  0  # atno 8008 bound_to 7997
  156.1147  140.1470  156.9318 H   0  0  0  0  0  0  0  0  0  0  0  0  # atno 8009 bound_to 7997
  154.4781  140.0878  156.7290 H   0  0  0  0  0  0  0  0  0  0  0  0  # atno 8010 bound_to 7997
  140.4662  143.2439  151.8274 H   0  0  0  0  0  0  0  0  0  0  0  0  # atno 10167 bound_to 10162
  156.0791  130.4220  150.1276 H   0  0  0  0  0  0  0  0  0  0  0  0  # atno 10718 bound_to 10713
  154.4633  135.2768  155.1697 H   0  0  0  0  0  0  0  0  0  0  0  0  # atno 10763 bound_to 10752
  154.3476  135.6157  153.5630 H   0  0  0  0  0  0  0  0  0  0  0  0  # atno 10764 bound_to 10752
  152.9857  135.5803  154.5000 H   0  0  0  0  0  0  0  0  0  0  0  0  # atno 10765 bound_to 10752
  140.5926  133.9910  155.8095 H   0  0  0  0  0  0  0  0  0  0  0  0  # atno 11005 bound_to 11000
  144.7489  140.5139  143.6816 LP  0  0  0  0  0  0  0  0  0  0  0  0  # atno 17320 bound_to 7965
  145.5718  139.1484  143.3284 LP  0  0  0  0  0  0  0  0  0  0  0  0  # atno 17321 bound_to 7965
  139.4812  144.4947  151.9139 LP  0  0  0  0  0  0  0  0  0  0  0  0  # atno 17342 bound_to 10162
  140.4033  144.2465  150.5892 LP  0  0  0  0  0  0  0  0  0  0  0  0  # atno 17343 bound_to 10162
  156.9311  130.9714  151.3533 LP  0  0  0  0  0  0  0  0  0  0  0  0  # atno 17370 bound_to 10713
  157.5901  130.8437  149.8646 LP  0  0  0  0  0  0  0  0  0  0  0  0  # atno 17371 bound_to 10713
  141.0925  133.9895  157.3214 LP  0  0  0  0  0  0  0  0  0  0  0  0  # atno 17394 bound_to 11000
  139.9267  135.0201  156.8260 LP  0  0  0  0  0  0  0  0  0  0  0  0  # atno 17395 bound_to 11000

$$$$
