AV-unprocessed.smi:2143|AV-procd|sdf|8726|dock3
  -GOLD-   2272011493D 1   1.00000     0.00000
 Structure written by MMmdl.
 44 45  0  0  0  0  0  0  0  0  1 V2000
  151.9596  144.7160  160.5073 C   0  0  0  0  0  0  0  0  0  0  0  0
  152.8078  143.9828  159.4475 C   0  0  2  0  0  0  0  0  0  0  0  0
  152.5195  144.5091  158.0267 C   0  0  0  0  0  0  0  0  0  0  0  0
  151.1487  144.0503  157.5052 C   0  0  0  0  0  0  0  0  0  0  0  0
  151.0246  142.5211  157.5469 C   0  0  0  0  0  0  0  0  0  0  0  0
  151.3044  141.9572  158.9536 C   0  0  1  0  0  0  0  0  0  0  0  0
  151.2544  140.4970  158.8894 N   0  0  0  0  0  0  0  0  0  0  0  0
  151.8705  139.7245  157.9812 C   0  0  0  0  0  0  0  0  0  0  0  0
  152.5506  140.1722  157.0568 O   0  0  0  0  0  0  0  0  0  0  0  0
  151.6600  138.2124  158.1389 C   0  0  0  0  0  0  0  0  0  0  0  0
  152.7443  137.5517  158.8771 N   0  0  0  0  0  0  0  0  0  0  0  0
  152.9433  137.8484  160.2130 C   0  0  0  0  0  0  0  0  0  0  0  0
  153.9029  137.2720  160.9692 C   0  0  0  0  0  0  0  0  0  0  0  0
  154.8085  136.2805  160.4016 C   0  0  0  0  0  0  0  0  0  0  0  0
  155.6815  135.7129  161.0596 O   0  0  0  0  0  0  0  0  0  0  0  0
  154.5953  136.0086  159.0290 N   0  0  0  0  0  0  0  0  0  0  0  0
  155.4388  135.0197  158.3898 C   0  0  0  0  0  0  0  0  0  0  0  0
  153.5774  136.6012  158.2480 C   0  0  0  0  0  0  0  0  0  0  0  0
  153.4053  136.3044  157.0632 O   0  0  0  0  0  0  0  0  0  0  0  0
  152.6796  142.4362  159.4892 C   0  0  2  0  0  0  0  0  0  0  0  0
  153.0215  141.8567  160.8763 C   0  0  0  0  0  0  0  0  0  0  0  0
  150.8978  144.4898  160.4155 H   0  0  0  0  0  0  0  0  0  0  0  0
  152.0725  145.7964  160.4147 H   0  0  0  0  0  0  0  0  0  0  0  0
  152.2672  144.4527  161.5188 H   0  0  0  0  0  0  0  0  0  0  0  0
  153.8475  144.2286  159.6679 H   0  0  0  0  0  0  0  0  0  0  0  0
  152.5812  145.5977  158.0063 H   0  0  0  0  0  0  0  0  0  0  0  0
  153.2950  144.1517  157.3478 H   0  0  0  0  0  0  0  0  0  0  0  0
  150.3517  144.5009  158.0974 H   0  0  0  0  0  0  0  0  0  0  0  0
  151.0055  144.4036  156.4836 H   0  0  0  0  0  0  0  0  0  0  0  0
  150.0268  142.2266  157.2192 H   0  0  0  0  0  0  0  0  0  0  0  0
  151.7235  142.0873  156.8303 H   0  0  0  0  0  0  0  0  0  0  0  0
  150.5267  142.3264  159.6236 H   0  0  0  0  0  0  0  0  0  0  0  0
  150.7106  140.0348  159.6036 H   0  0  0  0  0  0  0  0  0  0  0  0
  150.7044  138.0221  158.6314 H   0  0  0  0  0  0  0  0  0  0  0  0
  151.5694  137.7773  157.1426 H   0  0  0  0  0  0  0  0  0  0  0  0
  152.2940  138.5736  160.6819 H   0  0  0  0  0  0  0  0  0  0  0  0
  153.9993  137.5448  162.0098 H   0  0  0  0  0  0  0  0  0  0  0  0
  155.6141  135.3145  157.3541 H   0  0  0  0  0  0  0  0  0  0  0  0
  154.9108  134.0670  158.4507 H   0  0  0  0  0  0  0  0  0  0  0  0
  156.4052  134.9720  158.8930 H   0  0  0  0  0  0  0  0  0  0  0  0
  153.4379  142.0495  158.8060 H   0  0  0  0  0  0  0  0  0  0  0  0
  152.2455  142.0827  161.6080 H   0  0  0  0  0  0  0  0  0  0  0  0
  153.9630  142.2604  161.2492 H   0  0  0  0  0  0  0  0  0  0  0  0
  153.1292  140.7725  160.8406 H   0  0  0  0  0  0  0  0  0  0  0  0
  1  2  1  0  0  0  0
  1 22  1  0  0  0  0
  1 23  1  0  0  0  0
  1 24  1  0  0  0  0
  2 20  1  0  0  0  0
  2  3  1  0  0  0  0
  2 25  1  0  0  0  0
  3  4  1  0  0  0  0
  3 26  1  0  0  0  0
  3 27  1  0  0  0  0
  4  5  1  0  0  0  0
  4 28  1  0  0  0  0
  4 29  1  0  0  0  0
  5  6  1  0  0  0  0
  5 30  1  0  0  0  0
  5 31  1  0  0  0  0
  6  7  1  0  0  0  0
  6 20  1  0  0  0  0
  6 32  1  0  0  0  0
  7  8  1  0  0  0  0
  7 33  1  0  0  0  0
  8  9  2  0  0  0  0
  8 10  1  0  0  0  0
 10 11  1  0  0  0  0
 10 34  1  0  0  0  0
 10 35  1  0  0  0  0
 11 18  1  0  0  0  0
 11 12  1  0  0  0  0
 12 13  2  0  0  0  0
 12 36  1  0  0  0  0
 13 14  1  0  0  0  0
 13 37  1  0  0  0  0
 14 15  2  0  0  0  0
 14 16  1  0  0  0  0
 16 17  1  0  0  0  0
 16 18  1  0  0  0  0
 17 38  1  0  0  0  0
 17 39  1  0  0  0  0
 17 40  1  0  0  0  0
 18 19  2  0  0  0  0
 20 21  1  0  0  0  0
 20 41  1  0  0  0  0
 21 42  1  0  0  0  0
 21 43  1  0  0  0  0
 21 44  1  0  0  0  0
M  END
> <s_m_source_file>
AV-unprocessed.smi

> <i_m_source_file_index>
2143

> <i_lp_mmshare_version>
43012

> <i_f3d_flags>
0

> <s_epik_input>
W0NIM11bQ0BASF0xW0NIMl1bQ0gyXVtDSDJdW0NASF0oW0NASF0xW0NIM10pW05IXUMoPU8pW0NIMl1uMltjSF1bY0hdYyg9TyluKFtDSDNdKWMyPU8=

> <s_epik_cmdline>
J2VwaWtfcHl0aG9uJywgJy1waCcsICc3LjAnLCAnLXRuJywgJzgnLCAnLW1hJywgJzIwMCcsICctbWV0YWxfYmluZGluZycsICctaW1hZScsICc8aW5maWxlLm1hZT4nLCAnLW9tYWUnLCAnPG91dGZpbGUubWFlPic=

> <r_lp_tautomer_probability>
1

> <r_epik_Ionization_Penalty>
3.18445e-08

> <r_epik_Ionization_Penalty_Charging>
1.27977e-08

> <r_epik_Ionization_Penalty_Neutral>
1.90469e-08

> <r_epik_State_Penalty>
-0

> <r_epik_Charging_Adjusted_Penalty>
1.27977e-08

> <i_epik_Tot_Q>
0

> <i_epik_Tot_abs_Q>
0

> <r_epik_Metal_State_Penalty>
-0

> <b_epik_Metal_Only>
0

> <s_lp_Force_Field>
OPLS_2005

> <r_lp_Energy>
21.4841

> <b_lp_Chiralities_Consistent>
1

> <s_lp_Variant>
AV-unprocessed.smi:2143-5

> <Gold.Version>
5.8.1

> <Gold.Id.Protein>
6NUR|6NUR_protein|mol2

> <Gold.PLP.Fitness>
44.4096

> <Gold.PLP.PLP>
-39.4477

> <Gold.PLP.part.hbond>
-2.0000

> <Gold.PLP.part.metal>
0.0000

> <Gold.PLP.part.buried>
-2.0011

> <Gold.PLP.part.nonpolar>
-35.3177

> <Gold.PLP.part.repulsive>
0.1831

> <Gold.PLP.ligand.clash>
0.0000

> <Gold.PLP.ligand.torsion>
0.5226

> <Gold.PLP.Chemscore.Hbond>
2.0000

> <Gold.PLP.Chemscore.CHOScore>
0.0000

> <Gold.PLP.Chemscore.Metal>
0.0000

> <Gold.Chemscore.Hbonds>
donor molecule, donor type, donor heavy atom, donor atom, acceptor molecule, acceptor atom, score
      P1  H  7997  8008       L1     9  1.00
      P1  H 10752 10765       L1    19  1.00

> <Gold.PLP.Chemscore.Internal.Correction>
0.0071

> <Gold.Rescore>
     Score         DG    S(hbond)    S(metal)    S(lipo)     H(rot)  DE(clash)    DE(int)     intcor
     19.18     -20.92       1.99        0.00     108.23       1.51       0.00       1.74       ----

> <Gold.Chemscore.Fitness>
19.1759

> <Gold.Chemscore.DG>
-20.9169

> <Gold.Chemscore.ZeroCoef>
-5.4800

> <Gold.Chemscore.Hbond>
1.9901

> <Gold.Chemscore.Metal>
0.0000

> <Gold.Chemscore.Lipo>
108.2348

> <Gold.Chemscore.Internal_Hbond>
0.0000

> <Gold.Chemscore.DEClash>
0.0000

> <Gold.Chemscore.DEInternal>
1.7410

> <Gold.Chemscore.Rot>
1.5131

> <Gold.Chemscore.Internal.Correction>
   9.000000E+99

> <Gold.Chemscore.Hbonds>
donor molecule, donor type, donor heavy atom, donor atom, acceptor molecule, acceptor atom, score
      P1  H  7997  8008       L1     9  0.96
      P1  H 10752 10765       L1    19  0.94

> <Gold.Chemscore.Hbond.Weighted>
-6.6468

> <Gold.Chemscore.Metal.Weighted>
-0.0000

> <Gold.Chemscore.Lipo.Weighted>
-12.6635

> <Gold.Chemscore.Internal_Hbond.Weighted>
0.0000

> <Gold.Chemscore.DEClash.Weighted>
0.0000

> <Gold.Chemscore.DEInternal.Weighted>
1.7410

> <Gold.Chemscore.Rot.Weighted>
3.8734

> <Gold.Chemscore.Internal.Correction.Weighted>
   9.000000E+99

> <Gold.Protein.RotatedTorsions>
[ 6907 6896 6895 6894 ] final -174.59 input  -60.11 | X-H torsion
[ 7974 7965 7964 7962 ] final   74.41 input  175.53 | X-H torsion
[ 8008 7997 7996 7995 ] final  -50.92 input   59.86 | X-H torsion
[ 10167 10162 10161 10158 ] final  165.13 input  -65.29 | X-H torsion
[ 10718 10713 10712 10709 ] final -129.49 input   66.30 | X-H torsion
[ 10763 10752 10751 10750 ] final -129.64 input  -60.55 | X-H torsion
[ 11005 11000 10999 10996 ] final  -49.13 input  -57.11 | X-H torsion

> <Gold.Protein.ActiveResidues>
 VAL166  LYS551  ARG553  GLY616  TRP617  ASP618  TYR619  PRO620  LYS621  CYS622 
 ASP623  PHE694  ASN695  SER759  ASP760  ASP761  ALA762  ILE779  LEU786  VAL792 
 PHE793  MET794  SER795  GLU796  ALA797  LYS798  CYS799  TRP800  GLU811  SER814 

> <Gold.Protein.RotatedAtoms>
  151.5748  133.3385  159.2996 H   0  0  0  0  0  0  0  0  0  0  0  0  # atno 6907 bound_to 6896
  150.8347  134.7617  159.6894 H   0  0  0  0  0  0  0  0  0  0  0  0  # atno 6908 bound_to 6896
  152.4425  134.5569  159.9934 H   0  0  0  0  0  0  0  0  0  0  0  0  # atno 6909 bound_to 6896
  145.7286  139.2675  143.1554 H   0  0  0  0  0  0  0  0  0  0  0  0  # atno 7974 bound_to 7965
  154.4072  140.1260  156.4745 H   0  0  0  0  0  0  0  0  0  0  0  0  # atno 8008 bound_to 7997
  155.7146  140.3493  155.4969 H   0  0  0  0  0  0  0  0  0  0  0  0  # atno 8009 bound_to 7997
  155.9269  140.1062  157.1153 H   0  0  0  0  0  0  0  0  0  0  0  0  # atno 8010 bound_to 7997
  139.4900  144.4164  151.9238 H   0  0  0  0  0  0  0  0  0  0  0  0  # atno 10167 bound_to 10162
  156.2052  130.6883  151.0586 H   0  0  0  0  0  0  0  0  0  0  0  0  # atno 10718 bound_to 10713
  154.8757  135.3889  154.3953 H   0  0  0  0  0  0  0  0  0  0  0  0  # atno 10763 bound_to 10752
  153.4684  135.7029  153.6013 H   0  0  0  0  0  0  0  0  0  0  0  0  # atno 10764 bound_to 10752
  153.4482  135.3840  155.2236 H   0  0  0  0  0  0  0  0  0  0  0  0  # atno 10765 bound_to 10752
  141.0741  133.6671  156.3541 H   0  0  0  0  0  0  0  0  0  0  0  0  # atno 11005 bound_to 11000
  146.0559  140.8022  142.9759 LP  0  0  0  0  0  0  0  0  0  0  0  0  # atno 17320 bound_to 7965
  144.6898  140.3122  143.7246 LP  0  0  0  0  0  0  0  0  0  0  0  0  # atno 17321 bound_to 7965
  140.3607  144.2976  150.5934 LP  0  0  0  0  0  0  0  0  0  0  0  0  # atno 17342 bound_to 10162
  140.5405  143.2224  151.8092 LP  0  0  0  0  0  0  0  0  0  0  0  0  # atno 17343 bound_to 10162
  157.7008  131.0776  150.6825 LP  0  0  0  0  0  0  0  0  0  0  0  0  # atno 17370 bound_to 10713
  156.6883  130.4587  149.5607 LP  0  0  0  0  0  0  0  0  0  0  0  0  # atno 17371 bound_to 10713
  140.5611  134.5933  157.5434 LP  0  0  0  0  0  0  0  0  0  0  0  0  # atno 17394 bound_to 11000
  139.9553  134.7545  156.0355 LP  0  0  0  0  0  0  0  0  0  0  0  0  # atno 17395 bound_to 11000

$$$$
