AV-unprocessed.smi:427|AV-procd|sdf|2543|dock7
  -GOLD-   2262022503D 1   1.00000     0.00000
 Structure written by MMmdl.
 51 52  0  0  0  0  0  0  0  0  1 V2000
  146.1138  135.8598  155.0176 C   0  0  0  0  0  0  0  0  0  0  0  0
  146.7105  134.6689  154.2903 C   0  0  0  0  0  0  0  0  0  0  0  0
  145.8842  133.8588  153.4837 C   0  0  0  0  0  0  0  0  0  0  0  0
  146.4081  132.7390  152.7933 C   0  0  0  0  0  0  0  0  0  0  0  0
  145.5348  131.8339  151.9029 C   0  0  0  0  0  0  0  0  0  0  0  0
  144.0752  132.3335  151.9303 C   0  0  0  0  0  0  0  0  0  0  0  0
  145.5330  130.3571  152.3594 C   0  0  0  0  0  0  0  0  0  0  0  0
  146.0578  131.8734  150.4516 C   0  0  0  0  0  0  0  0  0  0  0  0
  147.7855  132.4560  152.9367 C   0  0  0  0  0  0  0  0  0  0  0  0
  148.6149  133.2604  153.7396 C   0  0  0  0  0  0  0  0  0  0  0  0
  148.0855  134.3789  154.4267 C   0  0  0  0  0  0  0  0  0  0  0  0
  148.8348  135.2129  155.2296 O   0  0  0  0  0  0  0  0  0  0  0  0
  150.2530  135.1251  155.1694 C   0  0  0  0  0  0  0  0  0  0  0  0
  150.8705  136.4938  155.5003 C   0  0  1  0  0  0  0  0  0  0  0  0
  152.1858  136.2701  155.9668 O   0  0  0  0  0  0  0  0  0  0  0  0
  150.8820  137.4549  154.2907 C   0  0  0  0  0  0  0  0  0  0  0  0
  150.6300  138.8393  154.6536 N   0  0  0  0  0  0  0  0  0  0  0  0
  151.6372  139.5325  155.3702 C   0  0  0  0  0  0  0  0  0  0  0  0
  152.7023  139.0016  155.6868 O   0  0  0  0  0  0  0  0  0  0  0  0
  151.3047  140.9113  155.7119 C   0  0  0  0  0  0  0  0  0  0  0  0
  150.1134  141.4449  155.3648 C   0  0  0  0  0  0  0  0  0  0  0  0
  149.1462  140.7356  154.6801 N   0  0  0  0  0  0  0  0  0  0  0  0
  147.8802  141.3075  154.3222 C   0  0  0  0  0  0  0  0  0  0  0  0
  149.3750  139.3936  154.3058 C   0  0  0  0  0  0  0  0  0  0  0  0
  148.5135  138.7386  153.7119 O   0  0  0  0  0  0  0  0  0  0  0  0
  145.0495  135.9680  154.8070 H   0  0  0  0  0  0  0  0  0  0  0  0
  146.6141  136.7793  154.7128 H   0  0  0  0  0  0  0  0  0  0  0  0
  146.2358  135.7442  156.0949 H   0  0  0  0  0  0  0  0  0  0  0  0
  144.8404  134.1201  153.4103 H   0  0  0  0  0  0  0  0  0  0  0  0
  143.4281  131.6996  151.3232 H   0  0  0  0  0  0  0  0  0  0  0  0
  143.9802  133.3483  151.5436 H   0  0  0  0  0  0  0  0  0  0  0  0
  143.6765  132.3310  152.9453 H   0  0  0  0  0  0  0  0  0  0  0  0
  145.1417  130.2478  153.3716 H   0  0  0  0  0  0  0  0  0  0  0  0
  146.5342  129.9252  152.3341 H   0  0  0  0  0  0  0  0  0  0  0  0
  144.9070  129.7440  151.7101 H   0  0  0  0  0  0  0  0  0  0  0  0
  145.4700  131.2249  149.8007 H   0  0  0  0  0  0  0  0  0  0  0  0
  147.0943  131.5388  150.3967 H   0  0  0  0  0  0  0  0  0  0  0  0
  146.0136  132.8757  150.0254 H   0  0  0  0  0  0  0  0  0  0  0  0
  148.2244  131.6113  152.4274 H   0  0  0  0  0  0  0  0  0  0  0  0
  149.6587  132.9957  153.8104 H   0  0  0  0  0  0  0  0  0  0  0  0
  150.5942  134.4011  155.9110 H   0  0  0  0  0  0  0  0  0  0  0  0
  150.5878  134.7802  154.1894 H   0  0  0  0  0  0  0  0  0  0  0  0
  150.3018  136.9278  156.3238 H   0  0  0  0  0  0  0  0  0  0  0  0
  152.4469  137.0088  156.4952 H   0  0  0  0  0  0  0  0  0  0  0  0
  151.8119  137.4013  153.7220 H   0  0  0  0  0  0  0  0  0  0  0  0
  150.1114  137.1831  153.5669 H   0  0  0  0  0  0  0  0  0  0  0  0
  152.0222  141.5118  156.2516 H   0  0  0  0  0  0  0  0  0  0  0  0
  149.9117  142.4699  155.6399 H   0  0  0  0  0  0  0  0  0  0  0  0
  147.8040  141.2819  153.2338 H   0  0  0  0  0  0  0  0  0  0  0  0
  147.8602  142.3354  154.6856 H   0  0  0  0  0  0  0  0  0  0  0  0
  147.1019  140.7138  154.8044 H   0  0  0  0  0  0  0  0  0  0  0  0
  1  2  1  0  0  0  0
  1 26  1  0  0  0  0
  1 27  1  0  0  0  0
  1 28  1  0  0  0  0
  2 11  1  0  0  0  0
  2  3  2  0  0  0  0
  3  4  1  0  0  0  0
  3 29  1  0  0  0  0
  4  5  1  0  0  0  0
  4  9  2  0  0  0  0
  5  6  1  0  0  0  0
  5  7  1  0  0  0  0
  5  8  1  0  0  0  0
  6 30  1  0  0  0  0
  6 31  1  0  0  0  0
  6 32  1  0  0  0  0
  7 33  1  0  0  0  0
  7 34  1  0  0  0  0
  7 35  1  0  0  0  0
  8 36  1  0  0  0  0
  8 37  1  0  0  0  0
  8 38  1  0  0  0  0
  9 10  1  0  0  0  0
  9 39  1  0  0  0  0
 10 11  2  0  0  0  0
 10 40  1  0  0  0  0
 11 12  1  0  0  0  0
 12 13  1  0  0  0  0
 13 14  1  0  0  0  0
 13 41  1  0  0  0  0
 13 42  1  0  0  0  0
 14 15  1  0  0  0  0
 14 16  1  0  0  0  0
 14 43  1  0  0  0  0
 15 44  1  0  0  0  0
 16 17  1  0  0  0  0
 16 45  1  0  0  0  0
 16 46  1  0  0  0  0
 17 24  1  0  0  0  0
 17 18  1  0  0  0  0
 18 19  2  0  0  0  0
 18 20  1  0  0  0  0
 20 21  2  0  0  0  0
 20 47  1  0  0  0  0
 21 22  1  0  0  0  0
 21 48  1  0  0  0  0
 22 23  1  0  0  0  0
 22 24  1  0  0  0  0
 23 49  1  0  0  0  0
 23 50  1  0  0  0  0
 23 51  1  0  0  0  0
 24 25  2  0  0  0  0
M  END
> <s_m_source_file>
AV-unprocessed.smi

> <i_m_source_file_index>
427

> <i_lp_mmshare_version>
43012

> <i_f3d_flags>
0

> <s_epik_input>
W0NIM11jMVtjSF1jKEMoW0NIM10pKFtDSDNdKVtDSDNdKVtjSF1bY0hdYzFPW0NIMl1bQ0BIXShbT0hdKVtDSDJdbjJjKD1PKVtjSF1bY0hdbihbQ0gzXSljMj1P

> <s_epik_cmdline>
J2VwaWtfcHl0aG9uJywgJy1waCcsICc3LjAnLCAnLXRuJywgJzgnLCAnLW1hJywgJzIwMCcsICctbWV0YWxfYmluZGluZycsICctaW1hZScsICc8aW5maWxlLm1hZT4nLCAnLW9tYWUnLCAnPG91dGZpbGUubWFlPic=

> <r_lp_tautomer_probability>
1

> <r_epik_Ionization_Penalty>
2.02112e-07

> <r_epik_Ionization_Penalty_Charging>
8.49383e-08

> <r_epik_Ionization_Penalty_Neutral>
1.17174e-07

> <r_epik_State_Penalty>
-0

> <r_epik_Charging_Adjusted_Penalty>
8.49383e-08

> <i_epik_Tot_Q>
0

> <i_epik_Tot_abs_Q>
0

> <r_epik_Metal_State_Penalty>
-0

> <b_epik_Metal_Only>
0

> <s_lp_Force_Field>
OPLS_2005

> <r_lp_Energy>
28.8364

> <b_lp_Chiralities_Consistent>
1

> <s_lp_Variant>
AV-unprocessed.smi:427-2

> <Gold.Version>
5.8.1

> <Gold.Id.Protein>
6NUR|6NUR_protein|mol2

> <Gold.PLP.Fitness>
52.9184

> <Gold.PLP.PLP>
-46.2559

> <Gold.PLP.part.hbond>
-2.0000

> <Gold.PLP.part.metal>
0.0000

> <Gold.PLP.part.buried>
-2.9345

> <Gold.PLP.part.nonpolar>
-41.2523

> <Gold.PLP.part.repulsive>
1.4221

> <Gold.PLP.ligand.clash>
0.0000

> <Gold.PLP.ligand.torsion>
1.1861

> <Gold.PLP.Chemscore.Hbond>
2.0000

> <Gold.PLP.Chemscore.CHOScore>
0.9985

> <Gold.PLP.Chemscore.Metal>
0.0000

> <Gold.Chemscore.Hbonds>
donor molecule, donor type, donor heavy atom, donor atom, acceptor molecule, acceptor atom, score
      P1  H  7997  8009       L1    19  0.84
      P1  H 10752 10763       L1    15  1.00
      L1  C    21    48       P1  8028  1.00

> <Gold.PLP.Chemscore.Internal.Correction>
0.0393

> <Gold.Rescore>
     Score         DG    S(hbond)    S(metal)    S(lipo)     H(rot)  DE(clash)    DE(int)     intcor
     14.27     -16.72       1.94        0.00      95.17       2.49       0.06       2.39       ----

> <Gold.Chemscore.Fitness>
14.2690

> <Gold.Chemscore.DG>
-16.7209

> <Gold.Chemscore.ZeroCoef>
-5.4800

> <Gold.Chemscore.Hbond>
1.9399

> <Gold.Chemscore.Metal>
0.0000

> <Gold.Chemscore.Lipo>
95.1669

> <Gold.Chemscore.Internal_Hbond>
0.0000

> <Gold.Chemscore.DEClash>
0.0641

> <Gold.Chemscore.DEInternal>
2.3877

> <Gold.Chemscore.Rot>
2.4894

> <Gold.Chemscore.Internal.Correction>
   9.000000E+99

> <Gold.Chemscore.Hbonds>
donor molecule, donor type, donor heavy atom, donor atom, acceptor molecule, acceptor atom, score
      P1  H  7997  8009       L1    19  0.80
      P1  H 10752 10763       L1    15  0.62

> <Gold.Chemscore.Hbond.Weighted>
-6.4791

> <Gold.Chemscore.Metal.Weighted>
-0.0000

> <Gold.Chemscore.Lipo.Weighted>
-11.1345

> <Gold.Chemscore.Internal_Hbond.Weighted>
0.0000

> <Gold.Chemscore.DEClash.Weighted>
0.0641

> <Gold.Chemscore.DEInternal.Weighted>
2.3877

> <Gold.Chemscore.Rot.Weighted>
6.3728

> <Gold.Chemscore.Internal.Correction.Weighted>
   9.000000E+99

> <Gold.Protein.RotatedTorsions>
[ 6907 6896 6895 6894 ] final   -4.86 input  -60.11 | X-H torsion
[ 7974 7965 7964 7962 ] final  -18.29 input  175.53 | X-H torsion
[ 8008 7997 7996 7995 ] final -140.12 input   59.86 | X-H torsion
[ 10167 10162 10161 10158 ] final -111.76 input  -65.29 | X-H torsion
[ 10718 10713 10712 10709 ] final   -8.27 input   66.30 | X-H torsion
[ 10763 10752 10751 10750 ] final   70.61 input  -60.55 | X-H torsion
[ 11005 11000 10999 10996 ] final  -97.66 input  -57.11 | X-H torsion

> <Gold.Protein.ActiveResidues>
 VAL166  LYS551  ARG553  GLY616  TRP617  ASP618  TYR619  PRO620  LYS621  CYS622 
 ASP623  PHE694  ASN695  SER759  ASP760  ASP761  ALA762  ILE779  LEU786  VAL792 
 PHE793  MET794  SER795  GLU796  ALA797  LYS798  CYS799  TRP800  GLU811  SER814 

> <Gold.Protein.RotatedAtoms>
  151.4909  135.1057  159.9803 H   0  0  0  0  0  0  0  0  0  0  0  0  # atno 6907 bound_to 6896
  152.4741  133.8094  159.7005 H   0  0  0  0  0  0  0  0  0  0  0  0  # atno 6908 bound_to 6896
  150.8768  133.7365  159.2970 H   0  0  0  0  0  0  0  0  0  0  0  0  # atno 6909 bound_to 6896
  146.1899  140.3900  142.8462 H   0  0  0  0  0  0  0  0  0  0  0  0  # atno 7974 bound_to 7965
  155.4560  140.0542  157.2996 H   0  0  0  0  0  0  0  0  0  0  0  0  # atno 8008 bound_to 7997
  154.4757  140.2060  155.9840 H   0  0  0  0  0  0  0  0  0  0  0  0  # atno 8009 bound_to 7997
  156.1128  140.3201  155.8101 H   0  0  0  0  0  0  0  0  0  0  0  0  # atno 8010 bound_to 7997
  140.1300  143.4368  152.1633 H   0  0  0  0  0  0  0  0  0  0  0  0  # atno 10167 bound_to 10162
  156.7051  130.5105  149.5907 H   0  0  0  0  0  0  0  0  0  0  0  0  # atno 10718 bound_to 10713
  153.0351  135.5167  154.7467 H   0  0  0  0  0  0  0  0  0  0  0  0  # atno 10763 bound_to 10752
  154.6450  135.2917  155.0059 H   0  0  0  0  0  0  0  0  0  0  0  0  # atno 10764 bound_to 10752
  154.0963  135.6643  153.4913 H   0  0  0  0  0  0  0  0  0  0  0  0  # atno 10765 bound_to 10752
  141.1371  133.8187  157.0736 H   0  0  0  0  0  0  0  0  0  0  0  0  # atno 11005 bound_to 11000
  144.8468  140.6940  143.6194 LP  0  0  0  0  0  0  0  0  0  0  0  0  # atno 17320 bound_to 7965
  145.3823  139.1634  143.4274 LP  0  0  0  0  0  0  0  0  0  0  0  0  # atno 17321 bound_to 7965
  139.5524  144.7348  151.4394 LP  0  0  0  0  0  0  0  0  0  0  0  0  # atno 17342 bound_to 10162
  140.6822  143.8055  150.7137 LP  0  0  0  0  0  0  0  0  0  0  0  0  # atno 17343 bound_to 10162
  156.1701  130.6431  151.0827 LP  0  0  0  0  0  0  0  0  0  0  0  0  # atno 17370 bound_to 10713
  157.6958  131.0794  150.6973 LP  0  0  0  0  0  0  0  0  0  0  0  0  # atno 17371 bound_to 10713
  140.0496  134.9812  157.1112 LP  0  0  0  0  0  0  0  0  0  0  0  0  # atno 17394 bound_to 11000
  140.4010  134.2082  155.7163 LP  0  0  0  0  0  0  0  0  0  0  0  0  # atno 17395 bound_to 11000

$$$$
