AV-unprocessed.smi:2026|AV-procd|sdf|8202|dock9
  -GOLD-   2272010463D 1   1.00000     0.00000
 Structure written by MMmdl.
 46 48  0  0  0  0  0  0  0  0  1 V2000
  151.9033  144.7082  158.2813 C   0  0  0  0  0  0  0  0  0  0  0  0
  151.8179  143.2200  157.9912 C   0  0  0  0  0  0  0  0  0  0  0  0
  151.3149  142.7901  156.7426 C   0  0  0  0  0  0  0  0  0  0  0  0
  151.2192  141.4153  156.4340 C   0  0  0  0  0  0  0  0  0  0  0  0
  150.7643  140.7808  155.2907 N   0  0  0  0  0  0  0  0  0  0  0  0
  150.9261  139.5005  155.6131 C   0  0  0  0  0  0  0  0  0  0  0  0
  151.4320  139.2304  156.8317 N   0  0  0  0  0  0  0  0  0  0  0  0
  151.6909  137.9178  157.3964 C   0  0  0  0  0  0  0  0  0  0  0  0
  150.4027  137.0997  157.6118 C   0  0  1  0  0  0  0  0  0  0  0  0
  150.7590  135.7681  157.9313 O   0  0  0  0  0  0  0  0  0  0  0  0
  149.5524  137.6761  158.7626 C   0  0  0  0  0  0  0  0  0  0  0  0
  148.4184  136.8081  159.0950 N   0  0  0  0  0  0  0  0  0  0  0  0
  147.6181  136.2237  158.1861 C   0  0  0  0  0  0  0  0  0  0  0  0
  147.7146  136.3081  156.9627 O   0  0  0  0  0  0  0  0  0  0  0  0
  146.6818  135.5228  158.8394 N   0  0  0  0  0  0  0  0  0  0  0  0
  146.8144  135.6096  160.2813 C   0  0  0  0  0  0  0  0  0  0  0  0
  145.5763  136.2763  160.9067 C   0  0  0  0  0  0  0  0  0  0  0  0
  147.1033  134.2260  160.8912 C   0  0  0  0  0  0  0  0  0  0  0  0
  148.0330  136.5173  160.3447 C   0  0  0  0  0  0  0  0  0  0  0  0
  148.5502  136.9064  161.3923 O   0  0  0  0  0  0  0  0  0  0  0  0
  151.6433  140.4741  157.4174 C   0  0  0  0  0  0  0  0  0  0  0  0
  152.1460  140.8898  158.6632 C   0  0  0  0  0  0  0  0  0  0  0  0
  152.2348  142.2670  158.9550 C   0  0  0  0  0  0  0  0  0  0  0  0
  152.7796  142.7049  160.3032 C   0  0  0  0  0  0  0  0  0  0  0  0
  151.5775  145.3009  157.4261 H   0  0  0  0  0  0  0  0  0  0  0  0
  152.9288  144.9945  158.5148 H   0  0  0  0  0  0  0  0  0  0  0  0
  151.2693  144.9678  159.1295 H   0  0  0  0  0  0  0  0  0  0  0  0
  150.9972  143.5153  156.0080 H   0  0  0  0  0  0  0  0  0  0  0  0
  150.6635  138.7116  154.9233 H   0  0  0  0  0  0  0  0  0  0  0  0
  152.3799  137.3826  156.7417 H   0  0  0  0  0  0  0  0  0  0  0  0
  152.2100  138.0559  158.3459 H   0  0  0  0  0  0  0  0  0  0  0  0
  149.8297  137.0949  156.6835 H   0  0  0  0  0  0  0  0  0  0  0  0
  150.3593  135.1886  157.3008 H   0  0  0  0  0  0  0  0  0  0  0  0
  150.1697  137.8759  159.6405 H   0  0  0  0  0  0  0  0  0  0  0  0
  149.1544  138.6488  158.4679 H   0  0  0  0  0  0  0  0  0  0  0  0
  145.9522  134.9901  158.3882 H   0  0  0  0  0  0  0  0  0  0  0  0
  145.6805  136.3674  161.9885 H   0  0  0  0  0  0  0  0  0  0  0  0
  144.6764  135.6921  160.7118 H   0  0  0  0  0  0  0  0  0  0  0  0
  145.4105  137.2775  160.5056 H   0  0  0  0  0  0  0  0  0  0  0  0
  147.2139  134.2869  161.9744 H   0  0  0  0  0  0  0  0  0  0  0  0
  148.0200  133.7905  160.4904 H   0  0  0  0  0  0  0  0  0  0  0  0
  146.2914  133.5286  160.6828 H   0  0  0  0  0  0  0  0  0  0  0  0
  152.4627  140.1544  159.3878 H   0  0  0  0  0  0  0  0  0  0  0  0
  153.0168  141.8478  160.9339 H   0  0  0  0  0  0  0  0  0  0  0  0
  152.0484  143.3164  160.8324 H   0  0  0  0  0  0  0  0  0  0  0  0
  153.6914  143.2884  160.1740 H   0  0  0  0  0  0  0  0  0  0  0  0
  1  2  1  0  0  0  0
  1 25  1  0  0  0  0
  1 26  1  0  0  0  0
  1 27  1  0  0  0  0
  2 23  1  0  0  0  0
  2  3  2  0  0  0  0
  3  4  1  0  0  0  0
  3 28  1  0  0  0  0
  4 21  2  0  0  0  0
  4  5  1  0  0  0  0
  5  6  2  0  0  0  0
  6  7  1  0  0  0  0
  6 29  1  0  0  0  0
  7  8  1  0  0  0  0
  7 21  1  0  0  0  0
  8  9  1  0  0  0  0
  8 30  1  0  0  0  0
  8 31  1  0  0  0  0
  9 10  1  0  0  0  0
  9 11  1  0  0  0  0
  9 32  1  0  0  0  0
 10 33  1  0  0  0  0
 11 12  1  0  0  0  0
 11 34  1  0  0  0  0
 11 35  1  0  0  0  0
 12 19  1  0  0  0  0
 12 13  1  0  0  0  0
 13 14  2  0  0  0  0
 13 15  1  0  0  0  0
 15 16  1  0  0  0  0
 15 36  1  0  0  0  0
 16 17  1  0  0  0  0
 16 18  1  0  0  0  0
 16 19  1  0  0  0  0
 17 37  1  0  0  0  0
 17 38  1  0  0  0  0
 17 39  1  0  0  0  0
 18 40  1  0  0  0  0
 18 41  1  0  0  0  0
 18 42  1  0  0  0  0
 19 20  2  0  0  0  0
 21 22  1  0  0  0  0
 22 23  2  0  0  0  0
 22 43  1  0  0  0  0
 23 24  1  0  0  0  0
 24 44  1  0  0  0  0
 24 45  1  0  0  0  0
 24 46  1  0  0  0  0
M  END
> <s_m_source_file>
AV-unprocessed.smi

> <i_m_source_file_index>
2026

> <i_lp_mmshare_version>
43012

> <i_f3d_flags>
0

> <s_epik_input>
W0NIM11jKFtjSF0xKWMoW0NIM10pW2NIXWMoYzEyKW4oW2NIXW4yKVtDSDJdW0NASF0oW09IXSlbQ0gyXU4oQzM9TylDKD1PKVtOSF1DMyhbQ0gzXSlbQ0gzXQ==

> <s_epik_cmdline>
J2VwaWtfcHl0aG9uJywgJy1waCcsICc3LjAnLCAnLXRuJywgJzgnLCAnLW1hJywgJzIwMCcsICctbWV0YWxfYmluZGluZycsICctaW1hZScsICc8aW5maWxlLm1hZT4nLCAnLW9tYWUnLCAnPG91dGZpbGUubWFlPic=

> <r_lp_tautomer_probability>
1

> <r_epik_Ionization_Penalty>
0.103994

> <r_epik_Ionization_Penalty_Charging>
0

> <r_epik_Ionization_Penalty_Neutral>
0.103994

> <r_epik_State_Penalty>
0.0938482

> <r_epik_Charging_Adjusted_Penalty>
0.0938482

> <i_epik_Tot_Q>
0

> <i_epik_Tot_abs_Q>
0

> <r_epik_Metal_State_Penalty>
0.106997

> <b_epik_Metal_Only>
0

> <s_lp_Force_Field>
OPLS_2005

> <r_lp_Energy>
23.8549

> <b_lp_Chiralities_Consistent>
1

> <s_lp_Variant>
AV-unprocessed.smi:2026-2

> <Gold.Version>
5.8.1

> <Gold.Id.Protein>
6NUR|6NUR_protein|mol2

> <Gold.PLP.Fitness>
44.6103

> <Gold.PLP.PLP>
-38.2425

> <Gold.PLP.part.hbond>
-3.0468

> <Gold.PLP.part.metal>
0.0000

> <Gold.PLP.part.buried>
-5.5216

> <Gold.PLP.part.nonpolar>
-29.3091

> <Gold.PLP.part.repulsive>
0.0624

> <Gold.PLP.ligand.clash>
0.0000

> <Gold.PLP.ligand.torsion>
0.3248

> <Gold.PLP.Chemscore.Hbond>
2.3280

> <Gold.PLP.Chemscore.CHOScore>
0.0000

> <Gold.PLP.Chemscore.Metal>
0.0000

> <Gold.Chemscore.Hbonds>
donor molecule, donor type, donor heavy atom, donor atom, acceptor molecule, acceptor atom, score
      P1  H  6896  6907       L1    10  0.53
      P1  H  6931  6943       L1    20  0.96
      P1  H  7989  7998       L1     5  0.83

> <Gold.PLP.Chemscore.Internal.Correction>
0.0335

> <Gold.Rescore>
     Score         DG    S(hbond)    S(metal)    S(lipo)     H(rot)  DE(clash)    DE(int)     intcor
     16.49     -18.72       2.35        0.00      99.40       2.44       0.77       1.46       ----

> <Gold.Chemscore.Fitness>
16.4870

> <Gold.Chemscore.DG>
-18.7187

> <Gold.Chemscore.ZeroCoef>
-5.4800

> <Gold.Chemscore.Hbond>
2.3485

> <Gold.Chemscore.Metal>
0.0000

> <Gold.Chemscore.Lipo>
99.4035

> <Gold.Chemscore.Internal_Hbond>
0.0000

> <Gold.Chemscore.DEClash>
0.7682

> <Gold.Chemscore.DEInternal>
1.4634

> <Gold.Chemscore.Rot>
2.4358

> <Gold.Chemscore.Internal.Correction>
   9.000000E+99

> <Gold.Chemscore.Hbonds>
donor molecule, donor type, donor heavy atom, donor atom, acceptor molecule, acceptor atom, score
      P1  H  6896  6907       L1    10  0.26
      P1  H  6931  6943       L1    20  0.91
      P1  H  7989  7998       L1     5  0.32

> <Gold.Chemscore.Hbond.Weighted>
-7.8441

> <Gold.Chemscore.Metal.Weighted>
-0.0000

> <Gold.Chemscore.Lipo.Weighted>
-11.6302

> <Gold.Chemscore.Internal_Hbond.Weighted>
0.0000

> <Gold.Chemscore.DEClash.Weighted>
0.7682

> <Gold.Chemscore.DEInternal.Weighted>
1.4634

> <Gold.Chemscore.Rot.Weighted>
6.2357

> <Gold.Chemscore.Internal.Correction.Weighted>
   9.000000E+99

> <Gold.Protein.RotatedTorsions>
[ 6907 6896 6895 6894 ] final  -58.02 input  -60.11 | X-H torsion
[ 7974 7965 7964 7962 ] final -159.10 input  175.53 | X-H torsion
[ 8008 7997 7996 7995 ] final  -36.13 input   59.86 | X-H torsion
[ 10167 10162 10161 10158 ] final -175.50 input  -65.29 | X-H torsion
[ 10718 10713 10712 10709 ] final  -38.32 input   66.30 | X-H torsion
[ 10763 10752 10751 10750 ] final   43.77 input  -60.55 | X-H torsion
[ 11005 11000 10999 10996 ] final   90.68 input  -57.11 | X-H torsion

> <Gold.Protein.ActiveResidues>
 VAL166  LYS551  ARG553  GLY616  TRP617  ASP618  TYR619  PRO620  LYS621  CYS622 
 ASP623  PHE694  ASN695  SER759  ASP760  ASP761  ALA762  ILE779  LEU786  VAL792 
 PHE793  MET794  SER795  GLU796  ALA797  LYS798  CYS799  TRP800  GLU811  SER814 

> <Gold.Protein.RotatedAtoms>
  150.8039  134.7152  159.6626 H   0  0  0  0  0  0  0  0  0  0  0  0  # atno 6907 bound_to 6896
  152.4158  134.6041  160.0018 H   0  0  0  0  0  0  0  0  0  0  0  0  # atno 6908 bound_to 6896
  151.6270  133.3297  159.3136 H   0  0  0  0  0  0  0  0  0  0  0  0  # atno 6909 bound_to 6896
  144.7479  140.3733  143.6071 H   0  0  0  0  0  0  0  0  0  0  0  0  # atno 7974 bound_to 7965
  154.4080  140.1639  156.2324 H   0  0  0  0  0  0  0  0  0  0  0  0  # atno 8008 bound_to 7997
  155.9271  140.3417  155.6196 H   0  0  0  0  0  0  0  0  0  0  0  0  # atno 8009 bound_to 7997
  155.7151  140.0761  157.2345 H   0  0  0  0  0  0  0  0  0  0  0  0  # atno 8010 bound_to 7997
  139.5577  144.1946  152.1188 H   0  0  0  0  0  0  0  0  0  0  0  0  # atno 10167 bound_to 10162
  156.3051  130.4245  149.8105 H   0  0  0  0  0  0  0  0  0  0  0  0  # atno 10718 bound_to 10713
  152.9854  135.6091  154.3166 H   0  0  0  0  0  0  0  0  0  0  0  0  # atno 10763 bound_to 10752
  154.2878  135.2775  155.2670 H   0  0  0  0  0  0  0  0  0  0  0  0  # atno 10764 bound_to 10752
  154.4980  135.5874  153.6565 H   0  0  0  0  0  0  0  0  0  0  0  0  # atno 10765 bound_to 10752
  139.8852  134.8628  156.3319 H   0  0  0  0  0  0  0  0  0  0  0  0  # atno 11005 bound_to 11000
  145.7054  139.1671  143.2569 LP  0  0  0  0  0  0  0  0  0  0  0  0  # atno 17320 bound_to 7965
  146.1385  140.7090  142.9378 LP  0  0  0  0  0  0  0  0  0  0  0  0  # atno 17321 bound_to 7965
  140.1454  144.5164  150.6719 LP  0  0  0  0  0  0  0  0  0  0  0  0  # atno 17342 bound_to 10162
  140.6853  143.2347  151.5277 LP  0  0  0  0  0  0  0  0  0  0  0  0  # atno 17343 bound_to 10162
  156.5468  130.8324  151.3287 LP  0  0  0  0  0  0  0  0  0  0  0  0  # atno 17370 bound_to 10713
  157.7377  130.9801  150.2212 LP  0  0  0  0  0  0  0  0  0  0  0  0  # atno 17371 bound_to 10713
  140.9717  133.7323  156.0544 LP  0  0  0  0  0  0  0  0  0  0  0  0  # atno 17394 bound_to 11000
  140.7862  134.3669  157.5475 LP  0  0  0  0  0  0  0  0  0  0  0  0  # atno 17395 bound_to 11000

$$$$
