AV-unprocessed.smi:2286|AV-procd|sdf|9204|dock5
  -GOLD-   2272012423D 1   1.00000     0.00000
 Structure written by MMmdl.
 46 47  0  0  0  0  0  0  0  0  1 V2000
  147.0111  129.1094  152.5626 C   0  0  0  0  0  0  0  0  0  0  0  0
  146.6534  130.5304  152.1802 C   0  0  0  0  0  0  0  0  0  0  0  0
  145.5604  130.7986  151.3342 C   0  0  0  0  0  0  0  0  0  0  0  0
  145.2793  132.1420  151.0169 C   0  0  0  0  0  0  0  0  0  0  0  0
  144.1166  132.5013  150.1163 C   0  0  0  0  0  0  0  0  0  0  0  0
  146.0055  133.1782  151.4885 N   0  0  0  0  0  0  0  0  0  0  0  0
  147.0607  132.9318  152.3039 C   0  0  0  0  0  0  0  0  0  0  0  0
  147.8848  133.9484  152.8554 N   0  0  0  0  0  0  0  0  0  0  0  0
  148.6473  133.8919  153.9616 C   0  0  0  0  0  0  0  0  0  0  0  0
  148.7347  132.9255  154.7202 O   0  0  0  0  0  0  0  0  0  0  0  0
  149.3191  135.0383  154.1456 N   0  0  0  0  0  0  0  0  0  0  0  0
  150.2316  135.3100  155.2536 C   0  0  0  0  0  0  0  0  0  0  0  0
  150.9279  136.6716  155.1415 C   0  0  0  0  0  0  0  0  0  0  0  0
  151.6776  136.9243  154.1969 O   0  0  0  0  0  0  0  0  0  0  0  0
  150.6849  137.5349  156.1396 N   0  0  0  0  0  0  0  0  0  0  0  0
  151.2523  138.8748  156.2579 C   0  0  0  0  0  0  0  0  0  0  0  0
  151.6722  139.1608  157.7154 C   0  0  0  0  0  0  0  0  0  0  0  0
  152.1912  140.5981  157.8824 C   0  0  0  0  0  0  0  0  0  0  0  0
  151.1582  141.6258  157.3946 C   0  0  0  0  0  0  0  0  0  0  0  0
  150.7473  141.3496  155.9401 C   0  0  0  0  0  0  0  0  0  0  0  0
  150.2236  139.9139  155.7720 C   0  0  0  0  0  0  0  0  0  0  0  0
  147.4129  131.6127  152.6685 C   0  0  0  0  0  0  0  0  0  0  0  0
  146.2685  128.4006  152.1946 H   0  0  0  0  0  0  0  0  0  0  0  0
  147.0660  129.0114  153.6470 H   0  0  0  0  0  0  0  0  0  0  0  0
  147.9801  128.8385  152.1427 H   0  0  0  0  0  0  0  0  0  0  0  0
  144.9531  129.9970  150.9393 H   0  0  0  0  0  0  0  0  0  0  0  0
  143.7463  131.6253  149.5830 H   0  0  0  0  0  0  0  0  0  0  0  0
  144.4183  133.2447  149.3777 H   0  0  0  0  0  0  0  0  0  0  0  0
  143.2983  132.9146  150.7063 H   0  0  0  0  0  0  0  0  0  0  0  0
  147.9107  134.8138  152.3370 H   0  0  0  0  0  0  0  0  0  0  0  0
  149.1811  135.7839  153.4796 H   0  0  0  0  0  0  0  0  0  0  0  0
  149.7011  135.2410  156.2052 H   0  0  0  0  0  0  0  0  0  0  0  0
  150.9946  134.5316  155.2649 H   0  0  0  0  0  0  0  0  0  0  0  0
  150.0584  137.2409  156.8749 H   0  0  0  0  0  0  0  0  0  0  0  0
  152.1330  138.9443  155.6161 H   0  0  0  0  0  0  0  0  0  0  0  0
  150.8224  139.0050  158.3815 H   0  0  0  0  0  0  0  0  0  0  0  0
  152.4439  138.4578  158.0316 H   0  0  0  0  0  0  0  0  0  0  0  0
  152.4357  140.7851  158.9284 H   0  0  0  0  0  0  0  0  0  0  0  0
  153.1190  140.7182  157.3218 H   0  0  0  0  0  0  0  0  0  0  0  0
  150.2771  141.5921  158.0367 H   0  0  0  0  0  0  0  0  0  0  0  0
  151.5660  142.6332  157.4813 H   0  0  0  0  0  0  0  0  0  0  0  0
  149.9836  142.0623  155.6282 H   0  0  0  0  0  0  0  0  0  0  0  0
  151.6034  141.5061  155.2827 H   0  0  0  0  0  0  0  0  0  0  0  0
  149.9772  139.7343  154.7247 H   0  0  0  0  0  0  0  0  0  0  0  0
  149.2932  139.8035  156.3314 H   0  0  0  0  0  0  0  0  0  0  0  0
  148.2560  131.4298  153.3193 H   0  0  0  0  0  0  0  0  0  0  0  0
  1  2  1  0  0  0  0
  1 23  1  0  0  0  0
  1 24  1  0  0  0  0
  1 25  1  0  0  0  0
  2 22  1  0  0  0  0
  2  3  2  0  0  0  0
  3  4  1  0  0  0  0
  3 26  1  0  0  0  0
  4  5  1  0  0  0  0
  4  6  2  0  0  0  0
  5 27  1  0  0  0  0
  5 28  1  0  0  0  0
  5 29  1  0  0  0  0
  6  7  1  0  0  0  0
  7  8  1  0  0  0  0
  7 22  2  0  0  0  0
  8  9  1  0  0  0  0
  8 30  1  0  0  0  0
  9 10  2  0  0  0  0
  9 11  1  0  0  0  0
 11 12  1  0  0  0  0
 11 31  1  0  0  0  0
 12 13  1  0  0  0  0
 12 32  1  0  0  0  0
 12 33  1  0  0  0  0
 13 14  2  0  0  0  0
 13 15  1  0  0  0  0
 15 16  1  0  0  0  0
 15 34  1  0  0  0  0
 16 21  1  0  0  0  0
 16 17  1  0  0  0  0
 16 35  1  0  0  0  0
 17 18  1  0  0  0  0
 17 36  1  0  0  0  0
 17 37  1  0  0  0  0
 18 19  1  0  0  0  0
 18 38  1  0  0  0  0
 18 39  1  0  0  0  0
 19 20  1  0  0  0  0
 19 40  1  0  0  0  0
 19 41  1  0  0  0  0
 20 21  1  0  0  0  0
 20 42  1  0  0  0  0
 20 43  1  0  0  0  0
 21 44  1  0  0  0  0
 21 45  1  0  0  0  0
 22 46  1  0  0  0  0
M  END
> <s_m_source_file>
AV-unprocessed.smi

> <i_m_source_file_index>
2286

> <i_lp_mmshare_version>
43012

> <i_f3d_flags>
0

> <s_epik_input>
W0NIM11jMVtjSF1jKFtDSDNdKW5jKFtjSF0xKVtOSF1DKD1PKVtOSF1bQ0gyXUMoPU8pW05IXVtDSF0yW0NIMl1bQ0gyXVtDSDJdW0NIMl1bQ0gyXTI=

> <s_epik_cmdline>
J2VwaWtfcHl0aG9uJywgJy1waCcsICc3LjAnLCAnLXRuJywgJzgnLCAnLW1hJywgJzIwMCcsICctbWV0YWxfYmluZGluZycsICctaW1hZScsICc8aW5maWxlLm1hZT4nLCAnLW9tYWUnLCAnPG91dGZpbGUubWFlPic=

> <r_lp_tautomer_probability>
1

> <r_epik_Ionization_Penalty>
0.000219548

> <r_epik_Ionization_Penalty_Charging>
0

> <r_epik_Ionization_Penalty_Neutral>
0.000219548

> <r_epik_State_Penalty>
-0

> <r_epik_Charging_Adjusted_Penalty>
0

> <i_epik_Tot_Q>
0

> <i_epik_Tot_abs_Q>
0

> <r_epik_Metal_State_Penalty>
-0

> <b_epik_Metal_Only>
0

> <s_lp_Force_Field>
OPLS_2005

> <r_lp_Energy>
6.54337

> <b_lp_Chiralities_Consistent>
1

> <s_lp_Variant>
AV-unprocessed.smi:2286-1

> <Gold.Version>
5.8.1

> <Gold.Id.Protein>
6NUR|6NUR_protein|mol2

> <Gold.PLP.Fitness>
44.8628

> <Gold.PLP.PLP>
-36.6510

> <Gold.PLP.part.hbond>
-3.0000

> <Gold.PLP.part.metal>
0.0000

> <Gold.PLP.part.buried>
-5.9659

> <Gold.PLP.part.nonpolar>
-28.0648

> <Gold.PLP.part.repulsive>
0.3638

> <Gold.PLP.ligand.clash>
0.0000

> <Gold.PLP.ligand.torsion>
0.3977

> <Gold.PLP.Chemscore.Hbond>
3.0000

> <Gold.PLP.Chemscore.CHOScore>
0.0000

> <Gold.PLP.Chemscore.Metal>
0.0000

> <Gold.Chemscore.Hbonds>
donor molecule, donor type, donor heavy atom, donor atom, acceptor molecule, acceptor atom, score
      L1  H     8    30       P1  7948  0.88
      L1  H    11    31       P1  7948  0.93
      P1  H 10752 10765       L1    14  1.00

> <Gold.PLP.Chemscore.Internal.Correction>
0.0072

> <Gold.Rescore>
     Score         DG    S(hbond)    S(metal)    S(lipo)     H(rot)  DE(clash)    DE(int)     intcor
     18.74     -20.58       2.61        0.00      87.21       1.48       0.00       1.84       ----

> <Gold.Chemscore.Fitness>
18.7395

> <Gold.Chemscore.DG>
-20.5846

> <Gold.Chemscore.ZeroCoef>
-5.4800

> <Gold.Chemscore.Hbond>
2.6053

> <Gold.Chemscore.Metal>
0.0000

> <Gold.Chemscore.Lipo>
87.2148

> <Gold.Chemscore.Internal_Hbond>
0.0000

> <Gold.Chemscore.DEClash>
0.0038

> <Gold.Chemscore.DEInternal>
1.8412

> <Gold.Chemscore.Rot>
1.4849

> <Gold.Chemscore.Internal.Correction>
   9.000000E+99

> <Gold.Chemscore.Hbonds>
donor molecule, donor type, donor heavy atom, donor atom, acceptor molecule, acceptor atom, score
      L1  H     8    30       P1  7948  0.61
      L1  H    11    31       P1  7948  0.63
      P1  H 10752 10765       L1    14  0.60

> <Gold.Chemscore.Hbond.Weighted>
-8.7017

> <Gold.Chemscore.Metal.Weighted>
-0.0000

> <Gold.Chemscore.Lipo.Weighted>
-10.2041

> <Gold.Chemscore.Internal_Hbond.Weighted>
0.0000

> <Gold.Chemscore.DEClash.Weighted>
0.0038

> <Gold.Chemscore.DEInternal.Weighted>
1.8412

> <Gold.Chemscore.Rot.Weighted>
3.8012

> <Gold.Chemscore.Internal.Correction.Weighted>
   9.000000E+99

> <Gold.Protein.RotatedTorsions>
[ 6907 6896 6895 6894 ] final   70.85 input  -60.11 | X-H torsion
[ 7974 7965 7964 7962 ] final -165.46 input  175.53 | X-H torsion
[ 8008 7997 7996 7995 ] final  -98.26 input   59.86 | X-H torsion
[ 10167 10162 10161 10158 ] final -161.74 input  -65.29 | X-H torsion
[ 10718 10713 10712 10709 ] final   52.17 input   66.30 | X-H torsion
[ 10763 10752 10751 10750 ] final  157.63 input  -60.55 | X-H torsion
[ 11005 11000 10999 10996 ] final   21.16 input  -57.11 | X-H torsion

> <Gold.Protein.ActiveResidues>
 VAL166  LYS551  ARG553  GLY616  TRP617  ASP618  TYR619  PRO620  LYS621  CYS622 
 ASP623  PHE694  ASN695  SER759  ASP760  ASP761  ALA762  ILE779  LEU786  VAL792 
 PHE793  MET794  SER795  GLU796  ALA797  LYS798  CYS799  TRP800  GLU811  SER814 

> <Gold.Protein.RotatedAtoms>
  152.4774  134.4808  159.9664 H   0  0  0  0  0  0  0  0  0  0  0  0  # atno 6907 bound_to 6896
  151.4821  133.3538  159.2848 H   0  0  0  0  0  0  0  0  0  0  0  0  # atno 6908 bound_to 6896
  150.8822  134.8241  159.7294 H   0  0  0  0  0  0  0  0  0  0  0  0  # atno 6909 bound_to 6896
  144.7269  140.2811  143.6236 H   0  0  0  0  0  0  0  0  0  0  0  0  # atno 7974 bound_to 7965
  154.7988  140.0456  157.1257 H   0  0  0  0  0  0  0  0  0  0  0  0  # atno 8008 bound_to 7997
  154.9504  140.3064  155.5058 H   0  0  0  0  0  0  0  0  0  0  0  0  # atno 8009 bound_to 7997
  156.2959  140.2289  156.4581 H   0  0  0  0  0  0  0  0  0  0  0  0  # atno 8010 bound_to 7997
  139.6443  144.0201  152.2115 H   0  0  0  0  0  0  0  0  0  0  0  0  # atno 10167 bound_to 10162
  157.5050  130.8463  149.8363 H   0  0  0  0  0  0  0  0  0  0  0  0  # atno 10718 bound_to 10713
  154.2033  135.2789  155.2983 H   0  0  0  0  0  0  0  0  0  0  0  0  # atno 10763 bound_to 10752
  154.5836  135.5581  153.7213 H   0  0  0  0  0  0  0  0  0  0  0  0  # atno 10764 bound_to 10752
  153.0082  135.6351  154.2172 H   0  0  0  0  0  0  0  0  0  0  0  0  # atno 10765 bound_to 10752
  140.3946  134.1783  155.7663 H   0  0  0  0  0  0  0  0  0  0  0  0  # atno 11005 bound_to 11000
  145.7949  139.1941  143.2082 LP  0  0  0  0  0  0  0  0  0  0  0  0  # atno 17320 bound_to 7965
  146.0725  140.7853  142.9681 LP  0  0  0  0  0  0  0  0  0  0  0  0  # atno 17321 bound_to 7965
  139.9899  144.6369  150.7824 LP  0  0  0  0  0  0  0  0  0  0  0  0  # atno 17342 bound_to 10162
  140.7506  143.2959  151.3206 LP  0  0  0  0  0  0  0  0  0  0  0  0  # atno 17343 bound_to 10162
  156.0252  130.3782  150.1843 LP  0  0  0  0  0  0  0  0  0  0  0  0  # atno 17370 bound_to 10713
  157.0033  130.9929  151.3385 LP  0  0  0  0  0  0  0  0  0  0  0  0  # atno 17371 bound_to 10713
  141.1879  133.8272  157.1016 LP  0  0  0  0  0  0  0  0  0  0  0  0  # atno 17394 bound_to 11000
  140.0381  134.9868  157.0910 LP  0  0  0  0  0  0  0  0  0  0  0  0  # atno 17395 bound_to 11000

$$$$
