AV-unprocessed.smi:1756|AV-procd|sdf|7073|dock8
  -GOLD-   22720 8293D 1   1.00000     0.00000
 Structure written by MMmdl.
 37 38  0  0  0  0  0  0  0  0  2 V2000
  153.6224  144.4555  163.8114 O   0  0  0  0  0  0  0  0  0  0  0  0
  154.0394  143.3113  163.9888 C   0  0  0  0  0  0  0  0  0  0  0  0
  154.6089  142.9071  165.1333 N   0  0  0  0  0  0  0  0  0  0  0  0
  154.8328  143.7396  166.3113 C   0  0  0  0  0  0  0  0  0  0  0  0
  155.6501  143.0098  167.3926 C   0  0  2  0  0  0  0  0  0  0  0  0
  154.9259  141.7855  167.9931 C   0  0  0  0  0  0  0  0  0  0  0  0
  155.7485  141.1737  169.1326 C   0  0  0  0  0  0  0  0  0  0  0  0
  156.1062  142.2575  170.1542 C   0  0  0  0  0  0  0  0  0  0  0  0
  156.7732  143.4497  169.4514 C   0  0  0  0  0  0  0  0  0  0  0  0
  155.9157  143.9511  168.4307 O   0  0  0  0  0  0  0  0  0  0  0  0
  153.9833  142.2996  163.1036 N   0  0  0  0  0  0  0  0  0  0  0  0
  153.4901  142.2791  161.7870 C   0  0  0  0  0  0  0  0  0  0  0  0
  152.7606  143.2731  161.2074 C   0  0  0  0  0  0  0  0  0  0  0  0
  152.2881  143.1938  159.8308 C   0  0  0  0  0  0  0  0  0  0  0  0
  151.5445  144.3169  159.1297 C   0  0  0  0  0  0  0  0  0  0  0  0
  151.4085  145.3755  159.9287 F   0  0  0  0  0  0  0  0  0  0  0  0
  152.2173  144.6986  158.0452 F   0  0  0  0  0  0  0  0  0  0  0  0
  150.3304  143.9203  158.7472 F   0  0  0  0  0  0  0  0  0  0  0  0
  152.6890  142.0295  159.2051 C   0  0  0  0  0  0  0  0  0  0  0  0
  153.3988  140.9953  159.7069 N   0  5  0  0  0  0  0  0  0  0  0  0
  153.8290  141.0766  160.9975 C   0  0  0  0  0  0  0  0  0  0  0  0
  154.4890  140.1735  161.5133 O   0  0  0  0  0  0  0  0  0  0  0  0
  154.9152  141.9470  165.1936 H   0  0  0  0  0  0  0  0  0  0  0  0
  155.3798  144.6236  165.9822 H   0  0  0  0  0  0  0  0  0  0  0  0
  153.8910  144.1045  166.7247 H   0  0  0  0  0  0  0  0  0  0  0  0
  156.6006  142.6948  166.9580 H   0  0  0  0  0  0  0  0  0  0  0  0
  153.9471  142.0860  168.3693 H   0  0  0  0  0  0  0  0  0  0  0  0
  154.7480  141.0293  167.2286 H   0  0  0  0  0  0  0  0  0  0  0  0
  155.1942  140.3660  169.6114 H   0  0  0  0  0  0  0  0  0  0  0  0
  156.6612  140.7330  168.7298 H   0  0  0  0  0  0  0  0  0  0  0  0
  155.2025  142.5942  170.6642 H   0  0  0  0  0  0  0  0  0  0  0  0
  156.7667  141.8516  170.9206 H   0  0  0  0  0  0  0  0  0  0  0  0
  156.9688  144.2461  170.1695 H   0  0  0  0  0  0  0  0  0  0  0  0
  157.7358  143.1628  169.0252 H   0  0  0  0  0  0  0  0  0  0  0  0
  154.3270  141.4067  163.4257 H   0  0  0  0  0  0  0  0  0  0  0  0
  152.5129  144.1707  161.7484 H   0  0  0  0  0  0  0  0  0  0  0  0
  152.4003  141.9136  158.1386 H   0  0  0  0  0  0  0  0  0  0  0  0
  1  2  2  0  0  0  0
  2  3  1  0  0  0  0
  2 11  1  0  0  0  0
  3  4  1  0  0  0  0
  3 23  1  0  0  0  0
  4  5  1  0  0  0  0
  4 24  1  0  0  0  0
  4 25  1  0  0  0  0
  5 10  1  0  0  0  0
  5  6  1  0  0  0  0
  5 26  1  0  0  0  0
  6  7  1  0  0  0  0
  6 27  1  0  0  0  0
  6 28  1  0  0  0  0
  7  8  1  0  0  0  0
  7 29  1  0  0  0  0
  7 30  1  0  0  0  0
  8  9  1  0  0  0  0
  8 31  1  0  0  0  0
  8 32  1  0  0  0  0
  9 10  1  0  0  0  0
  9 33  1  0  0  0  0
  9 34  1  0  0  0  0
 11 12  1  0  0  0  0
 11 35  1  0  0  0  0
 12 21  1  0  0  0  0
 12 13  2  0  0  0  0
 13 14  1  0  0  0  0
 13 36  1  0  0  0  0
 14 15  1  0  0  0  0
 14 19  2  0  0  0  0
 15 16  1  0  0  0  0
 15 17  1  0  0  0  0
 15 18  1  0  0  0  0
 19 20  1  0  0  0  0
 19 37  1  0  0  0  0
 20 21  1  0  0  0  0
 21 22  2  0  0  0  0
M  CHG  1  20  -1
M  END
> <s_m_source_file>
AV-unprocessed.smi

> <i_m_source_file_index>
1756

> <i_lp_mmshare_version>
43012

> <i_f3d_flags>
0

> <s_epik_input>
Tz1jMVtuSF1bY0hdYyhDKEYpKEYpRilbY0hdYzFbTkhdQyg9TylbTkhdW0NIMl1bQ0BASF0yW0NIMl1bQ0gyXVtDSDJdW0NIMl1PMg==

> <s_epik_cmdline>
J2VwaWtfcHl0aG9uJywgJy1waCcsICc3LjAnLCAnLXRuJywgJzgnLCAnLW1hJywgJzIwMCcsICctbWV0YWxfYmluZGluZycsICctaW1hZScsICc8aW5maWxlLm1hZT4nLCAnLW9tYWUnLCAnPG91dGZpbGUubWFlPic=

> <r_lp_tautomer_probability>
1

> <r_epik_Ionization_Penalty>
3.16985

> <r_epik_Ionization_Penalty_Charging>
0.174782

> <r_epik_Ionization_Penalty_Neutral>
2.99507

> <r_epik_State_Penalty>
2.99125

> <r_epik_Charging_Adjusted_Penalty>
3.16603

> <i_epik_Tot_Q>
-1

> <i_epik_Tot_abs_Q>
1

> <r_epik_Metal_State_Penalty>
0.453096

> <b_epik_Metal_Only>
1

> <s_lp_Force_Field>
OPLS_2005

> <r_lp_Energy>
21.0117

> <b_lp_Chiralities_Consistent>
1

> <s_lp_Variant>
AV-unprocessed.smi:1756-3

> <Gold.Version>
5.8.1

> <Gold.Id.Protein>
6NUR|6NUR_protein|mol2

> <Gold.PLP.Fitness>
48.1370

> <Gold.PLP.PLP>
-48.3334

> <Gold.PLP.part.hbond>
-0.8705

> <Gold.PLP.part.metal>
0.0000

> <Gold.PLP.part.buried>
-6.4714

> <Gold.PLP.part.nonpolar>
-40.4010

> <Gold.PLP.part.repulsive>
0.3927

> <Gold.PLP.ligand.clash>
0.0000

> <Gold.PLP.ligand.torsion>
0.1237

> <Gold.PLP.Chemscore.Hbond>
0.0000

> <Gold.PLP.Chemscore.CHOScore>
0.0000

> <Gold.PLP.Chemscore.Metal>
0.0000

> <Gold.PLP.Chemscore.Internal.Correction>
0.0510

> <Gold.Rescore>
     Score         DG    S(hbond)    S(metal)    S(lipo)     H(rot)  DE(clash)    DE(int)     intcor
     10.13     -12.35       0.00        0.00      87.69       1.32       0.58       1.64       ----

> <Gold.Chemscore.Fitness>
10.1317

> <Gold.Chemscore.DG>
-12.3479

> <Gold.Chemscore.ZeroCoef>
-5.4800

> <Gold.Chemscore.Hbond>
0.0000

> <Gold.Chemscore.Metal>
0.0000

> <Gold.Chemscore.Lipo>
87.6870

> <Gold.Chemscore.Internal_Hbond>
0.0000

> <Gold.Chemscore.DEClash>
0.5763

> <Gold.Chemscore.DEInternal>
1.6398

> <Gold.Chemscore.Rot>
1.3248

> <Gold.Chemscore.Internal.Correction>
   9.000000E+99

> <Gold.Chemscore.Hbond.Weighted>
-0.0000

> <Gold.Chemscore.Metal.Weighted>
-0.0000

> <Gold.Chemscore.Lipo.Weighted>
-10.2594

> <Gold.Chemscore.Internal_Hbond.Weighted>
0.0000

> <Gold.Chemscore.DEClash.Weighted>
0.5763

> <Gold.Chemscore.DEInternal.Weighted>
1.6398

> <Gold.Chemscore.Rot.Weighted>
3.3915

> <Gold.Chemscore.Internal.Correction.Weighted>
   9.000000E+99

> <Gold.Protein.RotatedTorsions>
[ 6907 6896 6895 6894 ] final  132.31 input  -60.11 | X-H torsion
[ 7974 7965 7964 7962 ] final -106.18 input  175.53 | X-H torsion
[ 8008 7997 7996 7995 ] final    2.26 input   59.86 | X-H torsion
[ 10167 10162 10161 10158 ] final   57.29 input  -65.29 | X-H torsion
[ 10718 10713 10712 10709 ] final  124.76 input   66.30 | X-H torsion
[ 10763 10752 10751 10750 ] final   86.99 input  -60.55 | X-H torsion
[ 11005 11000 10999 10996 ] final  129.44 input  -57.11 | X-H torsion

> <Gold.Protein.ActiveResidues>
 VAL166  LYS551  ARG553  GLY616  TRP617  ASP618  TYR619  PRO620  LYS621  CYS622 
 ASP623  PHE694  ASN695  SER759  ASP760  ASP761  ALA762  ILE779  LEU786  VAL792 
 PHE793  MET794  SER795  GLU796  ALA797  LYS798  CYS799  TRP800  GLU811  SER814 

> <Gold.Protein.RotatedAtoms>
  152.3337  133.5987  159.5827 H   0  0  0  0  0  0  0  0  0  0  0  0  # atno 6907 bound_to 6896
  150.7438  133.9828  159.3591 H   0  0  0  0  0  0  0  0  0  0  0  0  # atno 6908 bound_to 6896
  151.7700  135.0789  160.0409 H   0  0  0  0  0  0  0  0  0  0  0  0  # atno 6909 bound_to 6896
  145.2210  140.9134  143.3259 H   0  0  0  0  0  0  0  0  0  0  0  0  # atno 7974 bound_to 7965
  154.6894  140.2650  155.6827 H   0  0  0  0  0  0  0  0  0  0  0  0  # atno 8008 bound_to 7997
  156.2726  140.2794  156.1390 H   0  0  0  0  0  0  0  0  0  0  0  0  # atno 8009 bound_to 7997
  155.0918  140.0373  157.2661 H   0  0  0  0  0  0  0  0  0  0  0  0  # atno 8010 bound_to 7997
  140.1996  144.4002  150.6535 H   0  0  0  0  0  0  0  0  0  0  0  0  # atno 10167 bound_to 10162
  157.5559  131.1092  150.8622 H   0  0  0  0  0  0  0  0  0  0  0  0  # atno 10718 bound_to 10713
  153.1625  135.4560  154.9791 H   0  0  0  0  0  0  0  0  0  0  0  0  # atno 10763 bound_to 10752
  154.7908  135.3220  154.7785 H   0  0  0  0  0  0  0  0  0  0  0  0  # atno 10764 bound_to 10752
  153.8273  135.6941  153.4874 H   0  0  0  0  0  0  0  0  0  0  0  0  # atno 10765 bound_to 10752
  139.9616  134.9601  156.9149 H   0  0  0  0  0  0  0  0  0  0  0  0  # atno 11005 bound_to 11000
  144.9765  139.3826  143.6283 LP  0  0  0  0  0  0  0  0  0  0  0  0  # atno 17320 bound_to 7965
  146.3376  139.8886  142.8812 LP  0  0  0  0  0  0  0  0  0  0  0  0  # atno 17321 bound_to 7965
  140.6400  143.2202  151.6311 LP  0  0  0  0  0  0  0  0  0  0  0  0  # atno 17342 bound_to 10162
  139.5223  144.3168  152.0945 LP  0  0  0  0  0  0  0  0  0  0  0  0  # atno 17343 bound_to 10162
  156.9134  130.5289  149.5280 LP  0  0  0  0  0  0  0  0  0  0  0  0  # atno 17370 bound_to 10713
  156.0618  130.5669  150.9208 LP  0  0  0  0  0  0  0  0  0  0  0  0  # atno 17371 bound_to 10713
  140.5488  134.0647  155.7363 LP  0  0  0  0  0  0  0  0  0  0  0  0  # atno 17394 bound_to 11000
  141.1293  133.9329  157.2569 LP  0  0  0  0  0  0  0  0  0  0  0  0  # atno 17395 bound_to 11000

$$$$
