AV-unprocessed.smi:54|AV-procd|sdf|555|dock1
  -GOLD-   2262016453D 1   1.00000     0.00000
 Structure written by MMmdl.
 43 45  0  0  0  0  0  0  0  0  2 V2000
  152.1737  143.8133  160.3032 C   0  0  0  0  0  0  0  0  0  0  0  0
  152.3113  142.2816  160.2985 C   0  0  0  0  0  0  0  0  0  0  0  0
  153.7139  141.8467  160.7543 C   0  0  0  0  0  0  0  0  0  0  0  0
  151.9909  141.7108  158.9099 C   0  0  0  0  0  0  0  0  0  0  0  0
  151.4851  142.4480  158.0599 O   0  0  0  0  0  0  0  0  0  0  0  0
  152.3036  140.4072  158.7333 N   0  0  0  0  0  0  0  0  0  0  0  0
  152.1385  139.6053  157.5977 C   0  0  0  0  0  0  0  0  0  0  0  0
  150.9858  139.5758  156.9668 N   0  0  0  0  0  0  0  0  0  0  0  0
  151.0050  138.7307  155.8753 C   0  0  0  0  0  0  0  0  0  0  0  0
  152.0461  137.9694  155.4214 C   0  0  0  0  0  0  0  0  0  0  0  0
  151.6893  137.2450  154.2904 N   0  0  0  0  0  0  0  0  0  0  0  0
  150.4217  137.6143  154.1116 C   0  0  0  0  0  0  0  0  0  0  0  0
  149.9433  138.5015  155.0094 N   0  0  0  0  0  0  0  0  0  0  0  0
  148.5752  139.1124  155.0856 C   0  0  2  0  0  0  0  0  0  0  0  0
  147.6603  138.2308  154.5045 O   0  0  0  0  0  0  0  0  0  0  0  0
  147.2980  138.7003  153.2127 C   0  0  1  0  0  0  0  0  0  0  0  0
  145.9893  138.0497  152.7336 C   0  0  0  0  0  0  0  0  0  0  0  0
  145.5941  138.6024  151.4964 O   0  0  0  0  0  0  0  0  0  0  0  0
  147.2984  140.2249  153.3822 C   0  0  1  0  0  0  0  0  0  0  0  0
  146.0945  140.6755  153.9753 O   0  0  0  0  0  0  0  0  0  0  0  0
  148.4765  140.4570  154.3210 C   0  0  2  0  0  0  0  0  0  0  0  0
  149.6319  140.7843  153.5673 O   0  0  0  0  0  0  0  0  0  0  0  0
  153.3143  138.0504  156.1840 C   0  0  0  0  0  0  0  0  0  0  0  0
  154.2787  137.3831  155.8146 O   0  0  0  0  0  0  0  0  0  0  0  0
  153.2982  138.8872  157.2657 N   0  5  0  0  0  0  0  0  0  0  0  0
  148.3772  139.2038  156.1541 H   0  0  0  0  0  0  0  0  0  0  0  0
  148.1012  138.4263  152.5265 H   0  0  0  0  0  0  0  0  0  0  0  0
  147.4136  140.7387  152.4267 H   0  0  0  0  0  0  0  0  0  0  0  0
  148.2885  141.2671  155.0270 H   0  0  0  0  0  0  0  0  0  0  0  0
  151.1767  144.1221  159.9866 H   0  0  0  0  0  0  0  0  0  0  0  0
  152.8965  144.2845  159.6361 H   0  0  0  0  0  0  0  0  0  0  0  0
  152.3379  144.2154  161.3033 H   0  0  0  0  0  0  0  0  0  0  0  0
  151.5893  141.8802  161.0117 H   0  0  0  0  0  0  0  0  0  0  0  0
  153.8155  140.7608  160.7417 H   0  0  0  0  0  0  0  0  0  0  0  0
  153.9134  142.1813  161.7725 H   0  0  0  0  0  0  0  0  0  0  0  0
  154.4920  142.2618  160.1124 H   0  0  0  0  0  0  0  0  0  0  0  0
  152.7246  139.9570  159.5325 H   0  0  0  0  0  0  0  0  0  0  0  0
  149.8271  137.2240  153.2993 H   0  0  0  0  0  0  0  0  0  0  0  0
  146.1370  136.9780  152.5991 H   0  0  0  0  0  0  0  0  0  0  0  0
  145.1885  138.1690  153.4637 H   0  0  0  0  0  0  0  0  0  0  0  0
  145.0947  139.3870  151.6639 H   0  0  0  0  0  0  0  0  0  0  0  0
  145.3920  140.5472  153.3566 H   0  0  0  0  0  0  0  0  0  0  0  0
  149.5845  140.3402  152.7348 H   0  0  0  0  0  0  0  0  0  0  0  0
  1  2  1  0  0  0  0
  1 30  1  0  0  0  0
  1 31  1  0  0  0  0
  1 32  1  0  0  0  0
  2  3  1  0  0  0  0
  2  4  1  0  0  0  0
  2 33  1  0  0  0  0
  3 34  1  0  0  0  0
  3 35  1  0  0  0  0
  3 36  1  0  0  0  0
  4  5  2  0  0  0  0
  4  6  1  0  0  0  0
  6 37  1  0  0  0  0
  6  7  1  0  0  0  0
  7 25  1  0  0  0  0
  7  8  2  0  0  0  0
  8  9  1  0  0  0  0
  9 13  1  0  0  0  0
  9 10  2  0  0  0  0
 10 11  1  0  0  0  0
 10 23  1  0  0  0  0
 11 12  2  0  0  0  0
 12 13  1  0  0  0  0
 12 38  1  0  0  0  0
 13 14  1  0  0  0  0
 14 26  1  0  0  0  0
 14 21  1  0  0  0  0
 14 15  1  0  0  0  0
 15 16  1  0  0  0  0
 16 27  1  0  0  0  0
 16 17  1  0  0  0  0
 16 19  1  0  0  0  0
 17 18  1  0  0  0  0
 17 39  1  0  0  0  0
 17 40  1  0  0  0  0
 18 41  1  0  0  0  0
 19 28  1  0  0  0  0
 19 20  1  0  0  0  0
 19 21  1  0  0  0  0
 20 42  1  0  0  0  0
 21 29  1  0  0  0  0
 21 22  1  0  0  0  0
 22 43  1  0  0  0  0
 23 24  2  0  0  0  0
 23 25  1  0  0  0  0
M  CHG  1  25  -1
M  END
> <s_m_source_file>
AV-unprocessed.smi

> <i_m_source_file_index>
54

> <i_lp_mmshare_version>
43012

> <i_f3d_flags>
0

> <s_epik_input>
W0NIM11bQ0hdKFtDSDNdKUMoPU8pW05IXWMobjEpW25IXWMoPU8pYyhjMTIpbltjSF1uMltDQEBIXTNPW0NASF0oW0NIMl1bT0hdKVtDQEBIXShbT0hdKVtDQEhdM1tPSF0=

> <s_epik_cmdline>
J2VwaWtfcHl0aG9uJywgJy1waCcsICc3LjAnLCAnLXRuJywgJzgnLCAnLW1hJywgJzIwMCcsICctbWV0YWxfYmluZGluZycsICctaW1hZScsICc8aW5maWxlLm1hZT4nLCAnLW9tYWUnLCAnPG91dGZpbGUubWFlPic=

> <r_lp_tautomer_probability>
0.85571

> <r_epik_Ionization_Penalty>
1.75936

> <r_epik_Ionization_Penalty_Charging>
4.55893e-11

> <r_epik_Ionization_Penalty_Neutral>
1.75936

> <r_epik_State_Penalty>
1.72072

> <r_epik_Charging_Adjusted_Penalty>
1.72072

> <i_epik_Tot_Q>
-1

> <i_epik_Tot_abs_Q>
1

> <r_epik_Metal_State_Penalty>
0.400338

> <b_epik_Metal_Only>
1

> <s_epik_Chemistry_Notes>
This compound contains an acetal/aminal-like group ( X-CH(R)-Y where X, Y are N, S, or O) that may be acid/base labile, releasing an aldehyde.

> <s_lp_Force_Field>
OPLS_2005

> <r_lp_Energy>
56.9095

> <b_lp_Chiralities_Consistent>
1

> <s_lp_Variant>
AV-unprocessed.smi:54-27

> <Gold.Version>
5.8.1

> <Gold.Id.Protein>
6NUR|6NUR_protein|mol2

> <Gold.PLP.Fitness>
59.8468

> <Gold.PLP.PLP>
-38.5063

> <Gold.PLP.part.hbond>
-8.3735

> <Gold.PLP.part.metal>
0.0000

> <Gold.PLP.part.buried>
-4.5628

> <Gold.PLP.part.nonpolar>
-27.7282

> <Gold.PLP.part.repulsive>
0.4166

> <Gold.PLP.ligand.clash>
0.0000

> <Gold.PLP.ligand.torsion>
1.4631

> <Gold.PLP.Chemscore.Hbond>
7.0482

> <Gold.PLP.Chemscore.CHOScore>
1.0000

> <Gold.PLP.Chemscore.Metal>
0.0000

> <Gold.Chemscore.Hbonds>
donor molecule, donor type, donor heavy atom, donor atom, acceptor molecule, acceptor atom, score
      L1  H    18    41       P1 10175  1.00
      L1  H    20    42       P1 10175  1.00
      L1  H    22    43       P1  7957  1.00
      P1  H  7989  7998       L1    22  0.21
      P1  H  7997  8008       L1    25  2.00
      P1  H  8011  8017       L1    22  0.05
      P1  H 10752 10763       L1    11  1.00
      P1  H 10752 10764       L1    24  0.18
      L1  C    12    38       P1  7948  0.70

> <Gold.PLP.Chemscore.Internal.Correction>
0.1222

> <Gold.Rescore>
     Score         DG    S(hbond)    S(metal)    S(lipo)     H(rot)  DE(clash)    DE(int)     intcor
     16.47     -18.07       4.57        0.00      65.01       4.02       0.22       1.39       ----

> <Gold.Chemscore.Fitness>
16.4663

> <Gold.Chemscore.DG>
-18.0741

> <Gold.Chemscore.ZeroCoef>
-5.4800

> <Gold.Chemscore.Hbond>
4.5739

> <Gold.Chemscore.Metal>
0.0000

> <Gold.Chemscore.Lipo>
65.0122

> <Gold.Chemscore.Internal_Hbond>
0.0000

> <Gold.Chemscore.DEClash>
0.2189

> <Gold.Chemscore.DEInternal>
1.3889

> <Gold.Chemscore.Rot>
4.0192

> <Gold.Chemscore.Internal.Correction>
   9.000000E+99

> <Gold.Chemscore.Hbonds>
donor molecule, donor type, donor heavy atom, donor atom, acceptor molecule, acceptor atom, score
      L1  H    18    41       P1 10175  0.84
      L1  H    20    42       P1 10175  0.94
      L1  H    22    43       P1  7957  0.98
      P1  H  7989  7998       L1    22  0.01
      P1  H  7997  8008       L1    25  0.17
      P1  H 10752 10763       L1    11  0.55
      P1  H 10752 10764       L1    24  0.18

> <Gold.Chemscore.Hbond.Weighted>
-15.2769

> <Gold.Chemscore.Metal.Weighted>
-0.0000

> <Gold.Chemscore.Lipo.Weighted>
-7.6064

> <Gold.Chemscore.Internal_Hbond.Weighted>
0.0000

> <Gold.Chemscore.DEClash.Weighted>
0.2189

> <Gold.Chemscore.DEInternal.Weighted>
1.3889

> <Gold.Chemscore.Rot.Weighted>
10.2893

> <Gold.Chemscore.Internal.Correction.Weighted>
   9.000000E+99

> <Gold.Protein.RotatedTorsions>
[ 6907 6896 6895 6894 ] final -147.97 input  -60.11 | X-H torsion
[ 7974 7965 7964 7962 ] final  -40.87 input  175.53 | X-H torsion
[ 8008 7997 7996 7995 ] final  -70.90 input   59.86 | X-H torsion
[ 10167 10162 10161 10158 ] final -149.93 input  -65.29 | X-H torsion
[ 10718 10713 10712 10709 ] final  176.90 input   66.30 | X-H torsion
[ 10763 10752 10751 10750 ] final   32.77 input  -60.55 | X-H torsion
[ 11005 11000 10999 10996 ] final   28.70 input  -57.11 | X-H torsion

> <Gold.Protein.ActiveResidues>
 VAL166  LYS551  ARG553  GLY616  TRP617  ASP618  TYR619  PRO620  LYS621  CYS622 
 ASP623  PHE694  ASN695  SER759  ASP760  ASP761  ALA762  ILE779  LEU786  VAL792 
 PHE793  MET794  SER795  GLU796  ALA797  LYS798  CYS799  TRP800  GLU811  SER814 

> <Gold.Protein.RotatedAtoms>
  151.1632  133.4831  159.2593 H   0  0  0  0  0  0  0  0  0  0  0  0  # atno 6907 bound_to 6896
  151.1432  135.0190  159.8645 H   0  0  0  0  0  0  0  0  0  0  0  0  # atno 6908 bound_to 6896
  152.5462  134.1524  159.8577 H   0  0  0  0  0  0  0  0  0  0  0  0  # atno 6909 bound_to 6896
  146.0264  140.6787  142.9154 H   0  0  0  0  0  0  0  0  0  0  0  0  # atno 7974 bound_to 7965
  154.5046  140.0826  156.7869 H   0  0  0  0  0  0  0  0  0  0  0  0  # atno 8008 bound_to 7997
  155.3923  140.3433  155.4234 H   0  0  0  0  0  0  0  0  0  0  0  0  # atno 8009 bound_to 7997
  156.1500  140.1555  156.8773 H   0  0  0  0  0  0  0  0  0  0  0  0  # atno 8010 bound_to 7997
  139.7399  143.8679  152.2559 H   0  0  0  0  0  0  0  0  0  0  0  0  # atno 10167 bound_to 10162
  156.9132  130.9916  151.3017 H   0  0  0  0  0  0  0  0  0  0  0  0  # atno 10718 bound_to 10713
  153.0245  135.6404  154.1406 H   0  0  0  0  0  0  0  0  0  0  0  0  # atno 10763 bound_to 10752
  154.1137  135.2851  155.3226 H   0  0  0  0  0  0  0  0  0  0  0  0  # atno 10764 bound_to 10752
  154.6313  135.5491  153.7746 H   0  0  0  0  0  0  0  0  0  0  0  0  # atno 10765 bound_to 10752
  140.3127  134.2631  155.7731 H   0  0  0  0  0  0  0  0  0  0  0  0  # atno 11005 bound_to 11000
  144.7011  140.3657  143.7155 LP  0  0  0  0  0  0  0  0  0  0  0  0  # atno 17320 bound_to 7965
  145.7111  139.1685  143.2538 LP  0  0  0  0  0  0  0  0  0  0  0  0  # atno 17321 bound_to 7965
  139.8626  144.7109  150.9081 LP  0  0  0  0  0  0  0  0  0  0  0  0  # atno 17342 bound_to 10162
  140.7784  143.3805  151.1486 LP  0  0  0  0  0  0  0  0  0  0  0  0  # atno 17343 bound_to 10162
  157.5954  130.8474  149.8721 LP  0  0  0  0  0  0  0  0  0  0  0  0  # atno 17370 bound_to 10713
  156.0526  130.3714  150.1166 LP  0  0  0  0  0  0  0  0  0  0  0  0  # atno 17371 bound_to 10713
  141.2104  133.7719  156.9932 LP  0  0  0  0  0  0  0  0  0  0  0  0  # atno 17394 bound_to 11000
  140.1010  134.9535  157.1923 LP  0  0  0  0  0  0  0  0  0  0  0  0  # atno 17395 bound_to 11000

$$$$
