AV-unprocessed.smi:2344|AV-procd|sdf|9358|dock3
  -GOLD-   2272012583D 1   1.00000     0.00000
 Structure written by MMmdl.
 35 36  0  0  0  0  0  0  0  0  1 V2000
  150.9669  142.0013  156.4384 C   0  0  0  0  0  0  0  0  0  0  0  0
  150.1898  140.9711  155.6463 C   0  0  0  0  0  0  0  0  0  0  0  0
  150.7752  139.7454  155.2770 C   0  0  0  0  0  0  0  0  0  0  0  0
  150.0084  138.8218  154.5408 C   0  0  0  0  0  0  0  0  0  0  0  0
  148.6769  139.1431  154.1929 C   0  0  0  0  0  0  0  0  0  0  0  0
  147.9930  138.1452  153.4489 N   0  0  0  0  0  0  0  0  0  0  0  0
  146.6675  137.9407  153.3527 C   0  0  0  0  0  0  0  0  0  0  0  0
  145.7993  138.6081  153.9158 O   0  0  0  0  0  0  0  0  0  0  0  0
  146.3954  136.8979  152.5553 N   0  0  0  0  0  0  0  0  0  0  0  0
  145.0562  136.4048  152.2552 C   0  0  1  0  0  0  0  0  0  0  0  0
  144.8600  136.2838  150.7692 C   0  0  0  0  0  0  0  0  0  0  0  0
  144.5726  135.0415  150.3876 C   0  0  0  0  0  0  0  0  0  0  0  0
  144.5411  134.0674  151.5360 C   0  0  2  0  0  0  0  0  0  0  0  0
  143.2109  133.2997  151.6049 C   0  0  0  0  0  0  0  0  0  0  0  0
  142.9674  132.6332  150.3844 O   0  0  0  0  0  0  0  0  0  0  0  0
  144.8173  134.9621  152.7730 C   0  0  0  0  0  0  0  0  0  0  0  0
  148.1209  140.3257  154.5562 N   0  0  0  0  0  0  0  0  0  0  0  0
  148.8563  141.2103  155.2617 C   0  0  0  0  0  0  0  0  0  0  0  0
  144.3039  137.0896  152.6505 H   0  0  0  0  0  0  0  0  0  0  0  0
  145.3643  133.3665  151.3917 H   0  0  0  0  0  0  0  0  0  0  0  0
  152.0409  141.8704  156.3025 H   0  0  0  0  0  0  0  0  0  0  0  0
  150.7403  141.9080  157.5008 H   0  0  0  0  0  0  0  0  0  0  0  0
  150.7058  143.0103  156.1177 H   0  0  0  0  0  0  0  0  0  0  0  0
  151.7940  139.5134  155.5508 H   0  0  0  0  0  0  0  0  0  0  0  0
  150.4431  137.8772  154.2480 H   0  0  0  0  0  0  0  0  0  0  0  0
  148.5823  137.5121  152.9294 H   0  0  0  0  0  0  0  0  0  0  0  0
  147.1678  136.4037  152.1335 H   0  0  0  0  0  0  0  0  0  0  0  0
  144.9388  137.1339  150.1074 H   0  0  0  0  0  0  0  0  0  0  0  0
  144.3937  134.7321  149.3684 H   0  0  0  0  0  0  0  0  0  0  0  0
  143.2199  132.5738  152.4188 H   0  0  0  0  0  0  0  0  0  0  0  0
  142.3849  133.9864  151.7926 H   0  0  0  0  0  0  0  0  0  0  0  0
  142.2891  133.0977  149.9183 H   0  0  0  0  0  0  0  0  0  0  0  0
  145.6710  134.5798  153.3343 H   0  0  0  0  0  0  0  0  0  0  0  0
  143.9699  134.9569  153.4593 H   0  0  0  0  0  0  0  0  0  0  0  0
  148.3644  142.1349  155.5257 H   0  0  0  0  0  0  0  0  0  0  0  0
  1  2  1  0  0  0  0
  1 21  1  0  0  0  0
  1 22  1  0  0  0  0
  1 23  1  0  0  0  0
  2 18  1  0  0  0  0
  2  3  2  0  0  0  0
  3  4  1  0  0  0  0
  3 24  1  0  0  0  0
  4  5  2  0  0  0  0
  4 25  1  0  0  0  0
  5  6  1  0  0  0  0
  5 17  1  0  0  0  0
  6  7  1  0  0  0  0
  6 26  1  0  0  0  0
  7  8  2  0  0  0  0
  7  9  1  0  0  0  0
  9 10  1  0  0  0  0
  9 27  1  0  0  0  0
 10 19  1  0  0  0  0
 10 16  1  0  0  0  0
 10 11  1  0  0  0  0
 11 12  2  0  0  0  0
 11 28  1  0  0  0  0
 12 13  1  0  0  0  0
 12 29  1  0  0  0  0
 13 20  1  0  0  0  0
 13 14  1  0  0  0  0
 13 16  1  0  0  0  0
 14 15  1  0  0  0  0
 14 30  1  0  0  0  0
 14 31  1  0  0  0  0
 15 32  1  0  0  0  0
 16 33  1  0  0  0  0
 16 34  1  0  0  0  0
 17 18  2  0  0  0  0
 18 35  1  0  0  0  0
M  END
> <s_m_source_file>
AV-unprocessed.smi

> <i_m_source_file_index>
2344

> <i_lp_mmshare_version>
43012

> <i_f3d_flags>
0

> <s_epik_input>
W0NIM11jMVtjSF1bY0hdYyhuW2NIXTEpW05IXUMoPU8pW05IXVtDQEBIXTJbQ0hdPVtDSF1bQ0BASF0oW0NIMl0yKVtDSDJdW09IXQ==

> <s_epik_cmdline>
J2VwaWtfcHl0aG9uJywgJy1waCcsICc3LjAnLCAnLXRuJywgJzgnLCAnLW1hJywgJzIwMCcsICctbWV0YWxfYmluZGluZycsICctaW1hZScsICc8aW5maWxlLm1hZT4nLCAnLW9tYWUnLCAnPG91dGZpbGUubWFlPic=

> <r_lp_tautomer_probability>
1

> <r_epik_Ionization_Penalty>
5.7643e-05

> <r_epik_Ionization_Penalty_Charging>
0

> <r_epik_Ionization_Penalty_Neutral>
5.7643e-05

> <r_epik_State_Penalty>
-0

> <r_epik_Charging_Adjusted_Penalty>
0

> <i_epik_Tot_Q>
0

> <i_epik_Tot_abs_Q>
0

> <r_epik_Metal_State_Penalty>
-0

> <b_epik_Metal_Only>
0

> <s_lp_Force_Field>
OPLS_2005

> <r_lp_Energy>
17.6743

> <b_lp_Chiralities_Consistent>
1

> <s_lp_Variant>
AV-unprocessed.smi:2344-2

> <Gold.Version>
5.8.1

> <Gold.Id.Protein>
6NUR|6NUR_protein|mol2

> <Gold.PLP.Fitness>
41.8317

> <Gold.PLP.PLP>
-30.1945

> <Gold.PLP.part.hbond>
-3.2573

> <Gold.PLP.part.metal>
0.0000

> <Gold.PLP.part.buried>
-0.6436

> <Gold.PLP.part.nonpolar>
-25.5745

> <Gold.PLP.part.repulsive>
0.5125

> <Gold.PLP.ligand.clash>
0.0000

> <Gold.PLP.ligand.torsion>
0.1785

> <Gold.PLP.Chemscore.Hbond>
2.9920

> <Gold.PLP.Chemscore.CHOScore>
1.0000

> <Gold.PLP.Chemscore.Metal>
0.0000

> <Gold.Chemscore.Hbonds>
donor molecule, donor type, donor heavy atom, donor atom, acceptor molecule, acceptor atom, score
      L1  H     6    26       P1  7948  1.00
      L1  H     9    27       P1  7948  1.00
      L1  H    15    32       P1 10186  1.00
      L1  C    18    35       P1  8028  0.75

> <Gold.PLP.Chemscore.Internal.Correction>
0.0182

> <Gold.Rescore>
     Score         DG    S(hbond)    S(metal)    S(lipo)     H(rot)  DE(clash)    DE(int)     intcor
     16.13     -18.74       2.94        0.00      69.05       1.82       1.47       1.14       ----

> <Gold.Chemscore.Fitness>
16.1297

> <Gold.Chemscore.DG>
-18.7402

> <Gold.Chemscore.ZeroCoef>
-5.4800

> <Gold.Chemscore.Hbond>
2.9449

> <Gold.Chemscore.Metal>
0.0000

> <Gold.Chemscore.Lipo>
69.0532

> <Gold.Chemscore.Internal_Hbond>
0.0000

> <Gold.Chemscore.DEClash>
1.4727

> <Gold.Chemscore.DEInternal>
1.1378

> <Gold.Chemscore.Rot>
1.8184

> <Gold.Chemscore.Internal.Correction>
   9.000000E+99

> <Gold.Chemscore.Hbonds>
donor molecule, donor type, donor heavy atom, donor atom, acceptor molecule, acceptor atom, score
      L1  H     6    26       P1  7948  0.99
      L1  H     9    27       P1  7948  0.95
      L1  H    15    32       P1 10186  0.99

> <Gold.Chemscore.Hbond.Weighted>
-9.8360

> <Gold.Chemscore.Metal.Weighted>
-0.0000

> <Gold.Chemscore.Lipo.Weighted>
-8.0792

> <Gold.Chemscore.Internal_Hbond.Weighted>
0.0000

> <Gold.Chemscore.DEClash.Weighted>
1.4727

> <Gold.Chemscore.DEInternal.Weighted>
1.1378

> <Gold.Chemscore.Rot.Weighted>
4.6551

> <Gold.Chemscore.Internal.Correction.Weighted>
   9.000000E+99

> <Gold.Protein.RotatedTorsions>
[ 6907 6896 6895 6894 ] final  132.66 input  -60.11 | X-H torsion
[ 7974 7965 7964 7962 ] final  -36.05 input  175.53 | X-H torsion
[ 8008 7997 7996 7995 ] final -174.23 input   59.86 | X-H torsion
[ 10167 10162 10161 10158 ] final -119.12 input  -65.29 | X-H torsion
[ 10718 10713 10712 10709 ] final   91.74 input   66.30 | X-H torsion
[ 10763 10752 10751 10750 ] final  -31.72 input  -60.55 | X-H torsion
[ 11005 11000 10999 10996 ] final   -2.76 input  -57.11 | X-H torsion

> <Gold.Protein.ActiveResidues>
 VAL166  LYS551  ARG553  GLY616  TRP617  ASP618  TYR619  PRO620  LYS621  CYS622 
 ASP623  PHE694  ASN695  SER759  ASP760  ASP761  ALA762  ILE779  LEU786  VAL792 
 PHE793  MET794  SER795  GLU796  ALA797  LYS798  CYS799  TRP800  GLU811  SER814 

> <Gold.Protein.RotatedAtoms>
  152.3300  133.5948  159.5803 H   0  0  0  0  0  0  0  0  0  0  0  0  # atno 6907 bound_to 6896
  150.7418  133.9881  159.3607 H   0  0  0  0  0  0  0  0  0  0  0  0  # atno 6908 bound_to 6896
  151.7757  135.0775  160.0417 H   0  0  0  0  0  0  0  0  0  0  0  0  # atno 6909 bound_to 6896
  146.0695  140.6232  142.8959 H   0  0  0  0  0  0  0  0  0  0  0  0  # atno 7974 bound_to 7965
  155.9674  140.1156  157.0842 H   0  0  0  0  0  0  0  0  0  0  0  0  # atno 8008 bound_to 7997
  154.4147  140.1170  156.5328 H   0  0  0  0  0  0  0  0  0  0  0  0  # atno 8009 bound_to 7997
  155.6641  140.3473  155.4796 H   0  0  0  0  0  0  0  0  0  0  0  0  # atno 8010 bound_to 7997
  140.0501  143.5068  152.2086 H   0  0  0  0  0  0  0  0  0  0  0  0  # atno 10167 bound_to 10162
  157.6960  131.0418  150.3776 H   0  0  0  0  0  0  0  0  0  0  0  0  # atno 10718 bound_to 10713
  153.8020  135.6889  153.4854 H   0  0  0  0  0  0  0  0  0  0  0  0  # atno 10763 bound_to 10752
  153.1682  135.4553  154.9865 H   0  0  0  0  0  0  0  0  0  0  0  0  # atno 10764 bound_to 10752
  154.8002  135.3335  154.7508 H   0  0  0  0  0  0  0  0  0  0  0  0  # atno 10765 bound_to 10752
  140.6619  133.9313  155.8441 H   0  0  0  0  0  0  0  0  0  0  0  0  # atno 11005 bound_to 11000
  144.7223  140.4412  143.6999 LP  0  0  0  0  0  0  0  0  0  0  0  0  # atno 17320 bound_to 7965
  145.6417  139.1551  143.2911 LP  0  0  0  0  0  0  0  0  0  0  0  0  # atno 17321 bound_to 7965
  139.5958  144.7566  151.3289 LP  0  0  0  0  0  0  0  0  0  0  0  0  # atno 17342 bound_to 10162
  140.7220  143.7108  150.7771 LP  0  0  0  0  0  0  0  0  0  0  0  0  # atno 17343 bound_to 10162
  156.4193  130.3949  149.6836 LP  0  0  0  0  0  0  0  0  0  0  0  0  # atno 17370 bound_to 10713
  156.4092  130.7713  151.2726 LP  0  0  0  0  0  0  0  0  0  0  0  0  # atno 17371 bound_to 10713
  141.0459  134.0555  157.3845 LP  0  0  0  0  0  0  0  0  0  0  0  0  # atno 17394 bound_to 11000
  139.9010  135.0164  156.7268 LP  0  0  0  0  0  0  0  0  0  0  0  0  # atno 17395 bound_to 11000

$$$$
