AV-unprocessed.smi:550|AV-procd|sdf|2894|dock5
  -GOLD-   2262023393D 1   1.00000     0.00000
 Structure written by MMmdl.
 45 47  0  0  0  0  0  0  0  0  1 V2000
  153.4462  136.5573  160.3790 O   0  0  0  0  0  0  0  0  0  0  0  0
  154.4796  136.8581  160.9758 C   0  0  0  0  0  0  0  0  0  0  0  0
  155.3264  135.9553  161.4910 N   0  0  0  0  0  0  0  0  0  0  0  0
  155.1559  134.5062  161.4393 C   0  0  0  0  0  0  0  0  0  0  0  0
  154.5127  133.9547  162.7265 C   0  0  2  0  0  0  0  0  0  0  0  0
  155.1715  134.5246  163.9980 C   0  0  0  0  0  0  0  0  0  0  0  0
  154.6562  133.7422  165.2099 C   0  0  0  0  0  0  0  0  0  0  0  0
  154.4128  132.0261  164.6199 S   0  0  0  0  0  0  0  0  0  0  0  0
  155.5660  131.2035  165.0153 O   0  0  0  0  0  0  0  0  0  0  0  0
  153.0388  131.6038  164.9310 O   0  0  0  0  0  0  0  0  0  0  0  0
  154.5459  132.4197  162.8344 C   0  0  0  0  0  0  0  0  0  0  0  0
  154.9197  138.1106  161.1848 N   0  0  0  0  0  0  0  0  0  0  0  0
  154.2932  139.3368  160.8341 C   0  0  0  0  0  0  0  0  0  0  0  0
  154.5440  140.4639  161.6401 C   0  0  0  0  0  0  0  0  0  0  0  0
  153.9206  141.6868  161.3281 C   0  0  0  0  0  0  0  0  0  0  0  0
  153.0514  141.7501  160.2136 C   0  0  0  0  0  0  0  0  0  0  0  0
  152.4028  142.9522  159.8680 N   0  0  0  0  0  0  0  0  0  0  0  0
  152.3820  143.4455  158.4995 C   0  0  0  0  0  0  0  0  0  0  0  0
  151.7188  144.8185  158.5943 C   0  0  0  0  0  0  0  0  0  0  0  0
  152.1576  145.3201  159.9700 C   0  0  0  0  0  0  0  0  0  0  0  0
  152.2602  144.0469  160.8180 C   0  0  0  0  0  0  0  0  0  0  0  0
  152.7936  140.6618  159.4503 N   0  0  0  0  0  0  0  0  0  0  0  0
  153.3949  139.4916  159.7517 C   0  0  0  0  0  0  0  0  0  0  0  0
  156.1534  136.2965  161.9587 H   0  0  0  0  0  0  0  0  0  0  0  0
  154.5752  134.2114  160.5635 H   0  0  0  0  0  0  0  0  0  0  0  0
  156.1440  134.0644  161.3082 H   0  0  0  0  0  0  0  0  0  0  0  0
  153.4657  134.2612  162.7453 H   0  0  0  0  0  0  0  0  0  0  0  0
  156.2528  134.3964  163.9301 H   0  0  0  0  0  0  0  0  0  0  0  0
  154.9840  135.5933  164.1068 H   0  0  0  0  0  0  0  0  0  0  0  0
  155.3436  133.7584  166.0556 H   0  0  0  0  0  0  0  0  0  0  0  0
  153.6898  134.1267  165.5365 H   0  0  0  0  0  0  0  0  0  0  0  0
  153.7406  131.9348  162.2822 H   0  0  0  0  0  0  0  0  0  0  0  0
  155.4967  132.0218  162.4786 H   0  0  0  0  0  0  0  0  0  0  0  0
  155.8310  138.1966  161.6101 H   0  0  0  0  0  0  0  0  0  0  0  0
  155.2082  140.3971  162.4894 H   0  0  0  0  0  0  0  0  0  0  0  0
  154.1098  142.5503  161.9479 H   0  0  0  0  0  0  0  0  0  0  0  0
  153.4042  143.5367  158.1296 H   0  0  0  0  0  0  0  0  0  0  0  0
  151.8318  142.7763  157.8372 H   0  0  0  0  0  0  0  0  0  0  0  0
  152.0081  145.4861  157.7826 H   0  0  0  0  0  0  0  0  0  0  0  0
  150.6337  144.7076  158.5717 H   0  0  0  0  0  0  0  0  0  0  0  0
  153.1412  145.7846  159.8894 H   0  0  0  0  0  0  0  0  0  0  0  0
  151.4735  146.0561  160.3930 H   0  0  0  0  0  0  0  0  0  0  0  0
  151.3493  143.8938  161.3972 H   0  0  0  0  0  0  0  0  0  0  0  0
  153.1018  144.1064  161.5093 H   0  0  0  0  0  0  0  0  0  0  0  0
  153.1200  138.6674  159.1125 H   0  0  0  0  0  0  0  0  0  0  0  0
  1  2  2  0  0  0  0
  2  3  1  0  0  0  0
  2 12  1  0  0  0  0
  3  4  1  0  0  0  0
  3 24  1  0  0  0  0
  4  5  1  0  0  0  0
  4 25  1  0  0  0  0
  4 26  1  0  0  0  0
  5 11  1  0  0  0  0
  5  6  1  0  0  0  0
  5 27  1  0  0  0  0
  6  7  1  0  0  0  0
  6 28  1  0  0  0  0
  6 29  1  0  0  0  0
  7  8  1  0  0  0  0
  7 30  1  0  0  0  0
  7 31  1  0  0  0  0
  8  9  2  0  0  0  0
  8 10  2  0  0  0  0
  8 11  1  0  0  0  0
 11 32  1  0  0  0  0
 11 33  1  0  0  0  0
 12 13  1  0  0  0  0
 12 34  1  0  0  0  0
 13 23  1  0  0  0  0
 13 14  2  0  0  0  0
 14 15  1  0  0  0  0
 14 35  1  0  0  0  0
 15 16  2  0  0  0  0
 15 36  1  0  0  0  0
 16 17  1  0  0  0  0
 16 22  1  0  0  0  0
 17 21  1  0  0  0  0
 17 18  1  0  0  0  0
 18 19  1  0  0  0  0
 18 37  1  0  0  0  0
 18 38  1  0  0  0  0
 19 20  1  0  0  0  0
 19 39  1  0  0  0  0
 19 40  1  0  0  0  0
 20 21  1  0  0  0  0
 20 41  1  0  0  0  0
 20 42  1  0  0  0  0
 21 43  1  0  0  0  0
 21 44  1  0  0  0  0
 22 23  2  0  0  0  0
 23 45  1  0  0  0  0
M  END
> <s_m_source_file>
AV-unprocessed.smi

> <i_m_source_file_index>
550

> <i_lp_mmshare_version>
43012

> <i_f3d_flags>
0

> <s_epik_input>
Tz1TMSg9TylbQ0gyXVtDSDJdW0NASF0oW0NIMl0xKVtDSDJdW05IXUMoPU8pW05IXWMyW2NIXVtjSF1jKG5bY0hdMilOM1tDSDJdW0NIMl1bQ0gyXVtDSDJdMw==

> <s_epik_cmdline>
J2VwaWtfcHl0aG9uJywgJy1waCcsICc3LjAnLCAnLXRuJywgJzgnLCAnLW1hJywgJzIwMCcsICctbWV0YWxfYmluZGluZycsICctaW1hZScsICc8aW5maWxlLm1hZT4nLCAnLW9tYWUnLCAnPG91dGZpbGUubWFlPic=

> <r_lp_tautomer_probability>
1

> <r_epik_Ionization_Penalty>
0.0965651

> <r_epik_Ionization_Penalty_Charging>
0

> <r_epik_Ionization_Penalty_Neutral>
0.0965651

> <r_epik_State_Penalty>
0.0861592

> <r_epik_Charging_Adjusted_Penalty>
0.0861592

> <i_epik_Tot_Q>
0

> <i_epik_Tot_abs_Q>
0

> <r_epik_Metal_State_Penalty>
0.0740405

> <b_epik_Metal_Only>
0

> <s_lp_Force_Field>
OPLS_2005

> <r_lp_Energy>
29.4066

> <b_lp_Chiralities_Consistent>
1

> <s_lp_Variant>
AV-unprocessed.smi:550-1

> <Gold.Version>
5.8.1

> <Gold.Id.Protein>
6NUR|6NUR_protein|mol2

> <Gold.PLP.Fitness>
49.3021

> <Gold.PLP.PLP>
-48.1392

> <Gold.PLP.part.hbond>
-0.8645

> <Gold.PLP.part.metal>
0.0000

> <Gold.PLP.part.buried>
-5.9253

> <Gold.PLP.part.nonpolar>
-42.3499

> <Gold.PLP.part.repulsive>
0.1042

> <Gold.PLP.ligand.clash>
0.0000

> <Gold.PLP.ligand.torsion>
0.9050

> <Gold.PLP.Chemscore.Hbond>
0.9263

> <Gold.PLP.Chemscore.CHOScore>
0.0000

> <Gold.PLP.Chemscore.Metal>
0.0000

> <Gold.Chemscore.Hbonds>
donor molecule, donor type, donor heavy atom, donor atom, acceptor molecule, acceptor atom, score
      P1  H  6896  6909       L1     1  0.93

> <Gold.PLP.Chemscore.Internal.Correction>
0.1942

> <Gold.Rescore>
     Score         DG    S(hbond)    S(metal)    S(lipo)     H(rot)  DE(clash)    DE(int)     intcor
     16.92     -18.95       0.99        0.00     114.37       1.25       0.07       1.96       ----

> <Gold.Chemscore.Fitness>
16.9196

> <Gold.Chemscore.DG>
-18.9536

> <Gold.Chemscore.ZeroCoef>
-5.4800

> <Gold.Chemscore.Hbond>
0.9863

> <Gold.Chemscore.Metal>
0.0000

> <Gold.Chemscore.Lipo>
114.3659

> <Gold.Chemscore.Internal_Hbond>
0.0000

> <Gold.Chemscore.DEClash>
0.0693

> <Gold.Chemscore.DEInternal>
1.9647

> <Gold.Chemscore.Rot>
1.2506

> <Gold.Chemscore.Internal.Correction>
   9.000000E+99

> <Gold.Chemscore.Hbonds>
donor molecule, donor type, donor heavy atom, donor atom, acceptor molecule, acceptor atom, score
      P1  H  6896  6909       L1     1  0.89

> <Gold.Chemscore.Hbond.Weighted>
-3.2944

> <Gold.Chemscore.Metal.Weighted>
-0.0000

> <Gold.Chemscore.Lipo.Weighted>
-13.3808

> <Gold.Chemscore.Internal_Hbond.Weighted>
0.0000

> <Gold.Chemscore.DEClash.Weighted>
0.0693

> <Gold.Chemscore.DEInternal.Weighted>
1.9647

> <Gold.Chemscore.Rot.Weighted>
3.2016

> <Gold.Chemscore.Internal.Correction.Weighted>
   9.000000E+99

> <Gold.Protein.RotatedTorsions>
[ 6907 6896 6895 6894 ] final  161.32 input  -60.11 | X-H torsion
[ 7974 7965 7964 7962 ] final -152.36 input  175.53 | X-H torsion
[ 8008 7997 7996 7995 ] final -138.39 input   59.86 | X-H torsion
[ 10167 10162 10161 10158 ] final  104.82 input  -65.29 | X-H torsion
[ 10718 10713 10712 10709 ] final   59.05 input   66.30 | X-H torsion
[ 10763 10752 10751 10750 ] final -170.09 input  -60.55 | X-H torsion
[ 11005 11000 10999 10996 ] final   20.27 input  -57.11 | X-H torsion

> <Gold.Protein.ActiveResidues>
 VAL166  LYS551  ARG553  GLY616  TRP617  ASP618  TYR619  PRO620  LYS621  CYS622 
 ASP623  PHE694  ASN695  SER759  ASP760  ASP761  ALA762  ILE779  LEU786  VAL792 
 PHE793  MET794  SER795  GLU796  ALA797  LYS798  CYS799  TRP800  GLU811  SER814 

> <Gold.Protein.RotatedAtoms>
  151.9574  133.3684  159.4022 H   0  0  0  0  0  0  0  0  0  0  0  0  # atno 6907 bound_to 6896
  150.6970  134.4276  159.5243 H   0  0  0  0  0  0  0  0  0  0  0  0  # atno 6908 bound_to 6896
  152.1960  134.8630  160.0563 H   0  0  0  0  0  0  0  0  0  0  0  0  # atno 6909 bound_to 6896
  144.7798  140.4673  143.5847 H   0  0  0  0  0  0  0  0  0  0  0  0  # atno 7974 bound_to 7965
  155.4276  140.0523  157.3021 H   0  0  0  0  0  0  0  0  0  0  0  0  # atno 8008 bound_to 7997
  154.4874  140.2106  155.9582 H   0  0  0  0  0  0  0  0  0  0  0  0  # atno 8009 bound_to 7997
  156.1295  140.3174  155.8332 H   0  0  0  0  0  0  0  0  0  0  0  0  # atno 8010 bound_to 7997
  139.7144  144.7071  151.0973 H   0  0  0  0  0  0  0  0  0  0  0  0  # atno 10167 bound_to 10162
  157.5645  130.8860  149.9165 H   0  0  0  0  0  0  0  0  0  0  0  0  # atno 10718 bound_to 10713
  154.6453  135.2904  155.0054 H   0  0  0  0  0  0  0  0  0  0  0  0  # atno 10763 bound_to 10752
  154.1166  135.6554  153.4899 H   0  0  0  0  0  0  0  0  0  0  0  0  # atno 10764 bound_to 10752
  153.0347  135.5278  154.7337 H   0  0  0  0  0  0  0  0  0  0  0  0  # atno 10765 bound_to 10752
  140.4045  134.1683  155.7665 H   0  0  0  0  0  0  0  0  0  0  0  0  # atno 11005 bound_to 11000
  145.6081  139.1510  143.3091 LP  0  0  0  0  0  0  0  0  0  0  0  0  # atno 17320 bound_to 7965
  146.2000  140.6199  142.9106 LP  0  0  0  0  0  0  0  0  0  0  0  0  # atno 17321 bound_to 7965
  140.7740  143.5249  150.9492 LP  0  0  0  0  0  0  0  0  0  0  0  0  # atno 17342 bound_to 10162
  139.8934  143.6924  152.3142 LP  0  0  0  0  0  0  0  0  0  0  0  0  # atno 17343 bound_to 10162
  156.0694  130.3687  150.0808 LP  0  0  0  0  0  0  0  0  0  0  0  0  # atno 17370 bound_to 10713
  156.8968  130.9607  151.3581 LP  0  0  0  0  0  0  0  0  0  0  0  0  # atno 17371 bound_to 10713
  141.1844  133.8344  157.1140 LP  0  0  0  0  0  0  0  0  0  0  0  0  # atno 17394 bound_to 11000
  140.0312  134.9900  157.0784 LP  0  0  0  0  0  0  0  0  0  0  0  0  # atno 17395 bound_to 11000

$$$$
