AV-unprocessed.smi:2349|AV-procd|sdf|9371|dock1
  -GOLD-   2272012593D 1   1.00000     0.00000
 Structure written by MMmdl.
 52 53  0  0  0  0  0  0  0  0  1 V2000
  151.0548  145.2534  158.8489 C   0  0  0  0  0  0  0  0  0  0  0  0
  151.8566  144.2176  159.6086 C   0  0  0  0  0  0  0  0  0  0  0  0
  152.6153  143.2445  158.9243 C   0  0  0  0  0  0  0  0  0  0  0  0
  153.3414  142.3056  159.6821 C   0  0  0  0  0  0  0  0  0  0  0  0
  153.2802  142.3736  161.0888 C   0  0  0  0  0  0  0  0  0  0  0  0
  154.0579  141.3925  161.9495 C   0  0  0  0  0  0  0  0  0  0  0  0
  154.2394  140.0153  161.2889 C   0  0  0  0  0  0  0  0  0  0  0  0
  154.3793  138.9639  162.2879 N   0  0  0  0  0  0  0  0  0  0  0  0
  155.3896  138.8554  163.1641 C   0  0  0  0  0  0  0  0  0  0  0  0
  156.3261  139.6554  163.1830 O   0  0  0  0  0  0  0  0  0  0  0  0
  155.2857  137.8055  164.0184 N   0  0  0  0  0  0  0  0  0  0  0  0
  154.1193  136.9209  164.1788 C   0  0  0  0  0  0  0  0  0  0  0  0
  154.4478  135.5548  163.5517 C   0  0  0  0  0  0  0  0  0  0  0  0
  155.7105  134.9313  164.1888 C   0  0  0  0  0  0  0  0  0  0  0  0
  156.0814  133.6035  163.4861 C   0  0  0  0  0  0  0  0  0  0  0  0
  154.8892  132.6833  163.1525 C   0  0  0  0  0  0  0  0  0  0  0  0
  154.7198  132.3151  161.9887 O   0  0  0  0  0  0  0  0  0  0  0  0
  154.0623  132.2981  164.1527 N   0  0  0  0  0  0  0  0  0  0  0  0
  152.8885  131.4662  163.8776 C   0  0  0  0  0  0  0  0  0  0  0  0
  154.2833  132.6427  165.5595 C   0  0  0  0  0  0  0  0  0  0  0  0
  156.8745  135.9543  164.1962 C   0  0  0  0  0  0  0  0  0  0  0  0
  156.4332  137.3070  164.7849 C   0  0  0  0  0  0  0  0  0  0  0  0
  152.4872  143.3838  161.6745 C   0  0  0  0  0  0  0  0  0  0  0  0
  151.7908  144.2904  160.9564 N   0  0  0  0  0  0  0  0  0  0  0  0
  151.2780  145.2214  157.7821 H   0  0  0  0  0  0  0  0  0  0  0  0
  151.2827  146.2558  159.2125 H   0  0  0  0  0  0  0  0  0  0  0  0
  149.9874  145.0741  158.9797 H   0  0  0  0  0  0  0  0  0  0  0  0
  152.6430  143.2166  157.8449 H   0  0  0  0  0  0  0  0  0  0  0  0
  153.9370  141.5498  159.1913 H   0  0  0  0  0  0  0  0  0  0  0  0
  155.0353  141.8204  162.1767 H   0  0  0  0  0  0  0  0  0  0  0  0
  153.5477  141.2779  162.9066 H   0  0  0  0  0  0  0  0  0  0  0  0
  153.3944  139.8037  160.6319 H   0  0  0  0  0  0  0  0  0  0  0  0
  155.1353  140.0195  160.6664 H   0  0  0  0  0  0  0  0  0  0  0  0
  153.6425  138.2750  162.3297 H   0  0  0  0  0  0  0  0  0  0  0  0
  153.9060  136.7995  165.2419 H   0  0  0  0  0  0  0  0  0  0  0  0
  153.1987  137.3147  163.7482 H   0  0  0  0  0  0  0  0  0  0  0  0
  153.5979  134.8824  163.6736 H   0  0  0  0  0  0  0  0  0  0  0  0
  154.5942  135.6765  162.4773 H   0  0  0  0  0  0  0  0  0  0  0  0
  155.4568  134.7125  165.2274 H   0  0  0  0  0  0  0  0  0  0  0  0
  156.5919  133.8222  162.5476 H   0  0  0  0  0  0  0  0  0  0  0  0
  156.7979  133.0730  164.1137 H   0  0  0  0  0  0  0  0  0  0  0  0
  152.3521  131.8150  162.9938 H   0  0  0  0  0  0  0  0  0  0  0  0
  152.1740  131.4743  164.7014 H   0  0  0  0  0  0  0  0  0  0  0  0
  153.1917  130.4326  163.7058 H   0  0  0  0  0  0  0  0  0  0  0  0
  155.3225  132.4850  165.8506 H   0  0  0  0  0  0  0  0  0  0  0  0
  153.6775  132.0348  166.2320 H   0  0  0  0  0  0  0  0  0  0  0  0
  154.0284  133.6878  165.7388 H   0  0  0  0  0  0  0  0  0  0  0  0
  157.7195  135.5732  164.7693 H   0  0  0  0  0  0  0  0  0  0  0  0
  157.2379  136.1062  163.1788 H   0  0  0  0  0  0  0  0  0  0  0  0
  157.2740  138.0020  164.7870 H   0  0  0  0  0  0  0  0  0  0  0  0
  156.1480  137.1866  165.8310 H   0  0  0  0  0  0  0  0  0  0  0  0
  152.4178  143.4756  162.7485 H   0  0  0  0  0  0  0  0  0  0  0  0
  1  2  1  0  0  0  0
  1 25  1  0  0  0  0
  1 26  1  0  0  0  0
  1 27  1  0  0  0  0
  2 24  1  0  0  0  0
  2  3  2  0  0  0  0
  3  4  1  0  0  0  0
  3 28  1  0  0  0  0
  4  5  2  0  0  0  0
  4 29  1  0  0  0  0
  5  6  1  0  0  0  0
  5 23  1  0  0  0  0
  6  7  1  0  0  0  0
  6 30  1  0  0  0  0
  6 31  1  0  0  0  0
  7  8  1  0  0  0  0
  7 32  1  0  0  0  0
  7 33  1  0  0  0  0
  8  9  1  0  0  0  0
  8 34  1  0  0  0  0
  9 10  2  0  0  0  0
  9 11  1  0  0  0  0
 11 22  1  0  0  0  0
 11 12  1  0  0  0  0
 12 13  1  0  0  0  0
 12 35  1  0  0  0  0
 12 36  1  0  0  0  0
 13 14  1  0  0  0  0
 13 37  1  0  0  0  0
 13 38  1  0  0  0  0
 14 15  1  0  0  0  0
 14 21  1  0  0  0  0
 14 39  1  0  0  0  0
 15 16  1  0  0  0  0
 15 40  1  0  0  0  0
 15 41  1  0  0  0  0
 16 17  2  0  0  0  0
 16 18  1  0  0  0  0
 18 19  1  0  0  0  0
 18 20  1  0  0  0  0
 19 42  1  0  0  0  0
 19 43  1  0  0  0  0
 19 44  1  0  0  0  0
 20 45  1  0  0  0  0
 20 46  1  0  0  0  0
 20 47  1  0  0  0  0
 21 22  1  0  0  0  0
 21 48  1  0  0  0  0
 21 49  1  0  0  0  0
 22 50  1  0  0  0  0
 22 51  1  0  0  0  0
 23 24  2  0  0  0  0
 23 52  1  0  0  0  0
M  END
> <s_m_source_file>
AV-unprocessed.smi

> <i_m_source_file_index>
2349

> <i_lp_mmshare_version>
43012

> <i_f3d_flags>
0

> <s_epik_input>
W0NIM11jMVtjSF1bY0hdYyhbY0hdbjEpW0NIMl1bQ0gyXVtOSF1DKD1PKU4yW0NIMl1bQ0gyXVtDSF0oW0NIMl1bQ0gyXTIpW0NIMl1DKD1PKU4oW0NIM10pW0NIM10=

> <s_epik_cmdline>
J2VwaWtfcHl0aG9uJywgJy1waCcsICc3LjAnLCAnLXRuJywgJzgnLCAnLW1hJywgJzIwMCcsICctbWV0YWxfYmluZGluZycsICctaW1hZScsICc8aW5maWxlLm1hZT4nLCAnLW9tYWUnLCAnPG91dGZpbGUubWFlPic=

> <r_epik_Ionization_Penalty>
0.0570544

> <r_epik_Ionization_Penalty_Charging>
0

> <r_epik_Ionization_Penalty_Neutral>
0.0570544

> <r_epik_State_Penalty>
0.0491874

> <r_epik_Charging_Adjusted_Penalty>
0.0491874

> <i_epik_Tot_Q>
0

> <i_epik_Tot_abs_Q>
0

> <r_epik_Metal_State_Penalty>
0.0448474

> <b_epik_Metal_Only>
0

> <s_lp_Force_Field>
OPLS_2005

> <r_lp_Energy>
37.0132

> <b_lp_Chiralities_Consistent>
1

> <s_lp_Variant>
AV-unprocessed.smi:2349-1

> <Gold.Version>
5.8.1

> <Gold.Id.Protein>
6NUR|6NUR_protein|mol2

> <Gold.PLP.Fitness>
50.1748

> <Gold.PLP.PLP>
-51.5730

> <Gold.PLP.part.hbond>
0.0000

> <Gold.PLP.part.metal>
0.0000

> <Gold.PLP.part.buried>
-4.9627

> <Gold.PLP.part.nonpolar>
-45.8745

> <Gold.PLP.part.repulsive>
0.1421

> <Gold.PLP.ligand.clash>
0.0000

> <Gold.PLP.ligand.torsion>
0.7728

> <Gold.PLP.Chemscore.Hbond>
0.0000

> <Gold.PLP.Chemscore.CHOScore>
0.0000

> <Gold.PLP.Chemscore.Metal>
0.0000

> <Gold.PLP.Chemscore.Internal.Correction>
0.1474

> <Gold.Rescore>
     Score         DG    S(hbond)    S(metal)    S(lipo)     H(rot)  DE(clash)    DE(int)     intcor
     17.37     -18.34       0.00        0.00     146.28       1.66       0.21       0.76       ----

> <Gold.Chemscore.Fitness>
17.3707

> <Gold.Chemscore.DG>
-18.3421

> <Gold.Chemscore.ZeroCoef>
-5.4800

> <Gold.Chemscore.Hbond>
0.0000

> <Gold.Chemscore.Metal>
0.0000

> <Gold.Chemscore.Lipo>
146.2808

> <Gold.Chemscore.Internal_Hbond>
0.0000

> <Gold.Chemscore.DEClash>
0.2089

> <Gold.Chemscore.DEInternal>
0.7625

> <Gold.Chemscore.Rot>
1.6612

> <Gold.Chemscore.Internal.Correction>
   9.000000E+99

> <Gold.Chemscore.Hbond.Weighted>
-0.0000

> <Gold.Chemscore.Metal.Weighted>
-0.0000

> <Gold.Chemscore.Lipo.Weighted>
-17.1148

> <Gold.Chemscore.Internal_Hbond.Weighted>
0.0000

> <Gold.Chemscore.DEClash.Weighted>
0.2089

> <Gold.Chemscore.DEInternal.Weighted>
0.7625

> <Gold.Chemscore.Rot.Weighted>
4.2528

> <Gold.Chemscore.Internal.Correction.Weighted>
   9.000000E+99

> <Gold.Protein.RotatedTorsions>
[ 6907 6896 6895 6894 ] final  -47.97 input  -60.11 | X-H torsion
[ 7974 7965 7964 7962 ] final -176.24 input  175.53 | X-H torsion
[ 8008 7997 7996 7995 ] final -160.42 input   59.86 | X-H torsion
[ 10167 10162 10161 10158 ] final   40.21 input  -65.29 | X-H torsion
[ 10718 10713 10712 10709 ] final   12.01 input   66.30 | X-H torsion
[ 10763 10752 10751 10750 ] final  172.93 input  -60.55 | X-H torsion
[ 11005 11000 10999 10996 ] final  150.37 input  -57.11 | X-H torsion

> <Gold.Protein.ActiveResidues>
 VAL166  LYS551  ARG553  GLY616  TRP617  ASP618  TYR619  PRO620  LYS621  CYS622 
 ASP623  PHE694  ASN695  SER759  ASP760  ASP761  ALA762  ILE779  LEU786  VAL792 
 PHE793  MET794  SER795  GLU796  ALA797  LYS798  CYS799  TRP800  GLU811  SER814 

> <Gold.Protein.RotatedAtoms>
  150.8953  134.8361  159.7322 H   0  0  0  0  0  0  0  0  0  0  0  0  # atno 6907 bound_to 6896
  152.4861  134.4585  159.9607 H   0  0  0  0  0  0  0  0  0  0  0  0  # atno 6908 bound_to 6896
  151.4642  133.3546  159.2849 H   0  0  0  0  0  0  0  0  0  0  0  0  # atno 6909 bound_to 6896
  144.7127  140.1201  143.6406 H   0  0  0  0  0  0  0  0  0  0  0  0  # atno 7974 bound_to 7965
  155.7772  140.0860  157.2078 H   0  0  0  0  0  0  0  0  0  0  0  0  # atno 8008 bound_to 7997
  154.3992  140.1514  156.3068 H   0  0  0  0  0  0  0  0  0  0  0  0  # atno 8009 bound_to 7997
  155.8689  140.3426  155.5810 H   0  0  0  0  0  0  0  0  0  0  0  0  # atno 8010 bound_to 7997
  140.3764  144.2037  150.6131 H   0  0  0  0  0  0  0  0  0  0  0  0  # atno 10167 bound_to 10162
  157.0039  130.6090  149.5699 H   0  0  0  0  0  0  0  0  0  0  0  0  # atno 10718 bound_to 10713
  154.4330  135.2760  155.1900 H   0  0  0  0  0  0  0  0  0  0  0  0  # atno 10763 bound_to 10752
  154.3798  135.6090  153.5788 H   0  0  0  0  0  0  0  0  0  0  0  0  # atno 10764 bound_to 10752
  152.9837  135.5877  154.4644 H   0  0  0  0  0  0  0  0  0  0  0  0  # atno 10765 bound_to 10752
  140.1126  134.8915  157.1957 H   0  0  0  0  0  0  0  0  0  0  0  0  # atno 11005 bound_to 11000
  145.9379  139.2649  143.1286 LP  0  0  0  0  0  0  0  0  0  0  0  0  # atno 17320 bound_to 7965
  145.9455  140.8948  143.0286 LP  0  0  0  0  0  0  0  0  0  0  0  0  # atno 17321 bound_to 7965
  140.4981  143.2326  151.8719 LP  0  0  0  0  0  0  0  0  0  0  0  0  # atno 17342 bound_to 10162
  139.4799  144.5090  151.8958 LP  0  0  0  0  0  0  0  0  0  0  0  0  # atno 17343 bound_to 10162
  156.0161  130.5255  150.8137 LP  0  0  0  0  0  0  0  0  0  0  0  0  # atno 17370 bound_to 10713
  157.5370  131.0939  150.9879 LP  0  0  0  0  0  0  0  0  0  0  0  0  # atno 17371 bound_to 10713
  140.3071  134.3065  155.7275 LP  0  0  0  0  0  0  0  0  0  0  0  0  # atno 17394 bound_to 11000
  141.2133  133.7628  156.9724 LP  0  0  0  0  0  0  0  0  0  0  0  0  # atno 17395 bound_to 11000

$$$$
