AV-unprocessed.smi:2032|AV-procd|sdf|8244|dock7
  -GOLD-   2272010513D 1   1.00000     0.00000
 Structure written by MMmdl.
 43 44  0  0  0  0  0  0  0  0  2 V2000
  150.5006  143.4719  157.8154 C   0  0  0  0  0  0  0  0  0  0  0  0
  149.9762  142.0336  157.9803 C   0  0  1  0  0  0  0  0  0  0  0  0
  148.5528  141.8277  157.4268 C   0  0  0  0  0  0  0  0  0  0  0  0
  148.5223  141.7972  155.9368 N   0  3  2  0  0  0  0  0  0  0  0  0
  147.1419  141.6261  155.3664 C   0  0  1  0  0  0  0  0  0  0  0  0
  147.1553  141.6691  153.8178 C   0  0  0  0  0  0  0  0  0  0  0  0
  146.4563  140.3258  155.8740 C   0  0  0  0  0  0  0  0  0  0  0  0
  145.3822  139.8555  155.0014 N   0  0  0  0  0  0  0  0  0  0  0  0
  144.7162  138.6995  155.1428 C   0  0  0  0  0  0  0  0  0  0  0  0
  144.9613  137.8795  156.0280 O   0  0  0  0  0  0  0  0  0  0  0  0
  143.7703  138.5638  154.1971 N   0  0  0  0  0  0  0  0  0  0  0  0
  142.8713  137.4822  154.0039 C   0  0  0  0  0  0  0  0  0  0  0  0
  143.1622  136.2026  154.2658 N   0  0  0  0  0  0  0  0  0  0  0  0
  142.0896  135.3529  153.9836 C   0  0  0  0  0  0  0  0  0  0  0  0
  140.9830  136.0071  153.5021 C   0  0  0  0  0  0  0  0  0  0  0  0
  141.2447  137.7267  153.3849 S   0  0  0  0  0  0  0  0  0  0  0  0
  149.5106  140.7976  155.4439 C   0  0  0  0  0  0  0  0  0  0  0  0
  150.9167  141.0563  156.0147 C   0  0  2  0  0  0  0  0  0  0  0  0
  151.9147  139.9733  155.5889 C   0  0  0  0  0  0  0  0  0  0  0  0
  150.8634  141.0630  157.4349 O   0  0  0  0  0  0  0  0  0  0  0  0
  149.8808  144.1751  158.3722 H   0  0  0  0  0  0  0  0  0  0  0  0
  150.5017  143.7977  156.7757 H   0  0  0  0  0  0  0  0  0  0  0  0
  151.5188  143.5599  158.1955 H   0  0  0  0  0  0  0  0  0  0  0  0
  149.9432  141.8359  159.0522 H   0  0  0  0  0  0  0  0  0  0  0  0
  148.1453  140.8897  157.8069 H   0  0  0  0  0  0  0  0  0  0  0  0
  147.9331  142.6281  157.8254 H   0  0  0  0  0  0  0  0  0  0  0  0
  146.5404  142.4687  155.7118 H   0  0  0  0  0  0  0  0  0  0  0  0
  146.1681  141.4966  153.3922 H   0  0  0  0  0  0  0  0  0  0  0  0
  147.8258  140.9141  153.4062 H   0  0  0  0  0  0  0  0  0  0  0  0
  147.4541  142.6409  153.4287 H   0  0  0  0  0  0  0  0  0  0  0  0
  147.2019  139.5462  156.0394 H   0  0  0  0  0  0  0  0  0  0  0  0
  145.9668  140.4925  156.8316 H   0  0  0  0  0  0  0  0  0  0  0  0
  145.1150  140.4652  154.2420 H   0  0  0  0  0  0  0  0  0  0  0  0
  143.6827  139.3214  153.5357 H   0  0  0  0  0  0  0  0  0  0  0  0
  142.2006  134.2924  154.1554 H   0  0  0  0  0  0  0  0  0  0  0  0
  140.0336  135.5832  153.2107 H   0  0  0  0  0  0  0  0  0  0  0  0
  149.1719  139.7934  155.7045 H   0  0  0  0  0  0  0  0  0  0  0  0
  149.6035  140.8385  154.3606 H   0  0  0  0  0  0  0  0  0  0  0  0
  151.2892  142.0146  155.6527 H   0  0  0  0  0  0  0  0  0  0  0  0
  152.0099  139.9313  154.5036 H   0  0  0  0  0  0  0  0  0  0  0  0
  151.6016  138.9880  155.9355 H   0  0  0  0  0  0  0  0  0  0  0  0
  152.9046  140.1715  156.0007 H   0  0  0  0  0  0  0  0  0  0  0  0
  148.8501  142.7006  155.6250 H   0  0  0  0  0  0  0  0  0  0  0  0
  1  2  1  0  0  0  0
  1 21  1  0  0  0  0
  1 22  1  0  0  0  0
  1 23  1  0  0  0  0
  2 20  1  0  0  0  0
  2  3  1  0  0  0  0
  2 24  1  0  0  0  0
  3  4  1  0  0  0  0
  3 25  1  0  0  0  0
  3 26  1  0  0  0  0
  4  5  1  0  0  0  0
  4 17  1  0  0  0  0
  4 43  1  0  0  0  0
  5  6  1  0  0  0  0
  5  7  1  0  0  0  0
  5 27  1  0  0  0  0
  6 28  1  0  0  0  0
  6 29  1  0  0  0  0
  6 30  1  0  0  0  0
  7  8  1  0  0  0  0
  7 31  1  0  0  0  0
  7 32  1  0  0  0  0
  8  9  1  0  0  0  0
  8 33  1  0  0  0  0
  9 10  2  0  0  0  0
  9 11  1  0  0  0  0
 11 12  1  0  0  0  0
 11 34  1  0  0  0  0
 12 16  1  0  0  0  0
 12 13  2  0  0  0  0
 13 14  1  0  0  0  0
 14 15  2  0  0  0  0
 14 35  1  0  0  0  0
 15 16  1  0  0  0  0
 15 36  1  0  0  0  0
 17 18  1  0  0  0  0
 17 37  1  0  0  0  0
 17 38  1  0  0  0  0
 18 19  1  0  0  0  0
 18 20  1  0  0  0  0
 18 39  1  0  0  0  0
 19 40  1  0  0  0  0
 19 41  1  0  0  0  0
 19 42  1  0  0  0  0
M  CHG  1   4   1
M  END
> <s_m_source_file>
AV-unprocessed.smi

> <i_m_source_file_index>
2032

> <i_lp_mmshare_version>
43012

> <i_f3d_flags>
0

> <s_epik_input>
W0NIM11bQ0BASF0xW0NIMl1OKFtDSDJdW0NASF0oTzEpW0NIM10pW0NASF0oW0NIM10pW0NIMl1bTkhdQyg9TylbTkhdYzJuW2NIXVtjSF1zMg==

> <s_epik_cmdline>
J2VwaWtfcHl0aG9uJywgJy1waCcsICc3LjAnLCAnLXRuJywgJzgnLCAnLW1hJywgJzIwMCcsICctbWV0YWxfYmluZGluZycsICctaW1hZScsICc8aW5maWxlLm1hZT4nLCAnLW9tYWUnLCAnPG91dGZpbGUubWFlPic=

> <r_lp_tautomer_probability>
0.999

> <r_epik_Ionization_Penalty>
0.695838

> <r_epik_Ionization_Penalty_Charging>
0.695697

> <r_epik_Ionization_Penalty_Neutral>
0.000141198

> <r_epik_State_Penalty>
0.717972

> <r_epik_Charging_Adjusted_Penalty>
1.41367

> <i_epik_Tot_Q>
1

> <i_epik_Tot_abs_Q>
1

> <r_epik_Metal_State_Penalty>
0.756405

> <b_epik_Metal_Only>
0

> <s_lp_Force_Field>
OPLS_2005

> <r_lp_Energy>
22.0252

> <b_lp_Chiralities_Consistent>
1

> <s_lp_Variant>
AV-unprocessed.smi:2032-14

> <Gold.Version>
5.8.1

> <Gold.Id.Protein>
6NUR|6NUR_protein|mol2

> <Gold.PLP.Fitness>
41.0013

> <Gold.PLP.PLP>
-26.6901

> <Gold.PLP.part.hbond>
-2.7574

> <Gold.PLP.part.metal>
0.0000

> <Gold.PLP.part.buried>
-2.7158

> <Gold.PLP.part.nonpolar>
-22.0994

> <Gold.PLP.part.repulsive>
0.1393

> <Gold.PLP.ligand.clash>
0.0000

> <Gold.PLP.ligand.torsion>
0.5415

> <Gold.PLP.Chemscore.Hbond>
3.3380

> <Gold.PLP.Chemscore.CHOScore>
1.7723

> <Gold.PLP.Chemscore.Metal>
0.0000

> <Gold.Chemscore.Hbonds>
donor molecule, donor type, donor heavy atom, donor atom, acceptor molecule, acceptor atom, score
      L1  H     4    43       P1  8028  2.00
      L1  H     8    33       P1 10175  0.32
      L1  H    11    34       P1 10175  1.00
      L1  C    14    35       P1 10957  0.74
      L1  C    15    36       P1 10187  0.72

> <Gold.PLP.Chemscore.Internal.Correction>
0.0633

> <Gold.Rescore>
     Score         DG    S(hbond)    S(metal)    S(lipo)     H(rot)  DE(clash)    DE(int)     intcor
     15.12     -16.59       2.34        0.00      63.44       1.61       0.08       1.39       ----

> <Gold.Chemscore.Fitness>
15.1213

> <Gold.Chemscore.DG>
-16.5893

> <Gold.Chemscore.ZeroCoef>
-5.4800

> <Gold.Chemscore.Hbond>
2.3385

> <Gold.Chemscore.Metal>
0.0000

> <Gold.Chemscore.Lipo>
63.4426

> <Gold.Chemscore.Internal_Hbond>
0.0000

> <Gold.Chemscore.DEClash>
0.0758

> <Gold.Chemscore.DEInternal>
1.3922

> <Gold.Chemscore.Rot>
1.6110

> <Gold.Chemscore.Internal.Correction>
   9.000000E+99

> <Gold.Chemscore.Hbonds>
donor molecule, donor type, donor heavy atom, donor atom, acceptor molecule, acceptor atom, score
      L1  H     4    43       P1  8028  0.92
      L1  H     8    33       P1 10175  0.32
      L1  H    11    34       P1 10175  0.94

> <Gold.Chemscore.Hbond.Weighted>
-7.8107

> <Gold.Chemscore.Metal.Weighted>
-0.0000

> <Gold.Chemscore.Lipo.Weighted>
-7.4228

> <Gold.Chemscore.Internal_Hbond.Weighted>
0.0000

> <Gold.Chemscore.DEClash.Weighted>
0.0758

> <Gold.Chemscore.DEInternal.Weighted>
1.3922

> <Gold.Chemscore.Rot.Weighted>
4.1242

> <Gold.Chemscore.Internal.Correction.Weighted>
   9.000000E+99

> <Gold.Protein.RotatedTorsions>
[ 6907 6896 6895 6894 ] final -144.37 input  -60.11 | X-H torsion
[ 7974 7965 7964 7962 ] final  -17.60 input  175.53 | X-H torsion
[ 8008 7997 7996 7995 ] final -161.21 input   59.86 | X-H torsion
[ 10167 10162 10161 10158 ] final   -5.35 input  -65.29 | X-H torsion
[ 10718 10713 10712 10709 ] final  -67.92 input   66.30 | X-H torsion
[ 10763 10752 10751 10750 ] final -162.30 input  -60.55 | X-H torsion
[ 11005 11000 10999 10996 ] final -151.51 input  -57.11 | X-H torsion

> <Gold.Protein.ActiveResidues>
 VAL166  LYS551  ARG553  GLY616  TRP617  ASP618  TYR619  PRO620  LYS621  CYS622 
 ASP623  PHE694  ASN695  SER759  ASP760  ASP761  ALA762  ILE779  LEU786  VAL792 
 PHE793  MET794  SER795  GLU796  ALA797  LYS798  CYS799  TRP800  GLU811  SER814 

> <Gold.Protein.RotatedAtoms>
  151.1131  133.5158  159.2604 H   0  0  0  0  0  0  0  0  0  0  0  0  # atno 6907 bound_to 6896
  151.1945  135.0416  159.8856 H   0  0  0  0  0  0  0  0  0  0  0  0  # atno 6908 bound_to 6896
  152.5451  134.0967  159.8353 H   0  0  0  0  0  0  0  0  0  0  0  0  # atno 6909 bound_to 6896
  146.1933  140.3803  142.8450 H   0  0  0  0  0  0  0  0  0  0  0  0  # atno 7974 bound_to 7965
  155.7888  140.0875  157.2020 H   0  0  0  0  0  0  0  0  0  0  0  0  # atno 8008 bound_to 7997
  154.3986  140.1494  156.3197 H   0  0  0  0  0  0  0  0  0  0  0  0  # atno 8009 bound_to 7997
  155.8579  140.3431  155.5739 H   0  0  0  0  0  0  0  0  0  0  0  0  # atno 8010 bound_to 7997
  140.6960  143.6318  150.8516 H   0  0  0  0  0  0  0  0  0  0  0  0  # atno 10167 bound_to 10162
  156.0532  130.4286  150.1925 H   0  0  0  0  0  0  0  0  0  0  0  0  # atno 10718 bound_to 10713
  154.7226  135.3029  154.9023 H   0  0  0  0  0  0  0  0  0  0  0  0  # atno 10763 bound_to 10752
  153.9890  135.6721  153.4757 H   0  0  0  0  0  0  0  0  0  0  0  0  # atno 10764 bound_to 10752
  153.0847  135.4990  154.8491 H   0  0  0  0  0  0  0  0  0  0  0  0  # atno 10765 bound_to 10752
  140.7288  134.3644  157.5170 H   0  0  0  0  0  0  0  0  0  0  0  0  # atno 11005 bound_to 11000
  144.8529  140.7028  143.6156 LP  0  0  0  0  0  0  0  0  0  0  0  0  # atno 17320 bound_to 7965
  145.3724  139.1655  143.4324 LP  0  0  0  0  0  0  0  0  0  0  0  0  # atno 17321 bound_to 7965
  140.0036  143.5717  152.2866 LP  0  0  0  0  0  0  0  0  0  0  0  0  # atno 17342 bound_to 10162
  139.6416  144.7655  151.2328 LP  0  0  0  0  0  0  0  0  0  0  0  0  # atno 17343 bound_to 10162
  157.0006  130.9921  151.3392 LP  0  0  0  0  0  0  0  0  0  0  0  0  # atno 17370 bound_to 10713
  157.5478  130.8162  149.8107 LP  0  0  0  0  0  0  0  0  0  0  0  0  # atno 17371 bound_to 10713
  139.8831  134.9005  156.2789 LP  0  0  0  0  0  0  0  0  0  0  0  0  # atno 17394 bound_to 11000
  140.9939  133.7192  156.0855 LP  0  0  0  0  0  0  0  0  0  0  0  0  # atno 17395 bound_to 11000

$$$$
