AV-unprocessed.smi:2021|AV-procd|sdf|8175|dock4
  -GOLD-   2272010423D 1   1.00000     0.00000
 Structure written by MMmdl.
 42 43  0  0  0  0  0  0  0  0  2 V2000
  149.2950  133.1524  153.4165 C   0  0  0  0  0  0  0  0  0  0  0  0
  149.8030  133.9408  154.6328 C   0  0  0  0  0  0  0  0  0  0  0  0
  150.2145  132.9801  155.7610 C   0  0  0  0  0  0  0  0  0  0  0  0
  148.7402  134.9572  155.1038 C   0  0  0  0  0  0  0  0  0  0  0  0
  148.9552  136.3204  154.5537 N   0  3  1  0  0  0  0  0  0  0  0  0
  147.7998  137.2297  154.7535 C   0  0  0  0  0  0  0  0  0  0  0  0
  148.0840  138.6039  154.1269 C   0  0  0  0  0  0  0  0  0  0  0  0
  149.2742  139.1437  154.6864 O   0  0  0  0  0  0  0  0  0  0  0  0
  150.4138  138.3343  154.4188 C   0  0  1  0  0  0  0  0  0  0  0  0
  151.6465  139.0761  154.9711 C   0  0  0  0  0  0  0  0  0  0  0  0
  151.2959  140.2122  155.8182 N   0  0  0  0  0  0  0  0  0  0  0  0
  151.8773  140.5048  156.9903 C   0  0  0  0  0  0  0  0  0  0  0  0
  152.7634  139.8157  157.4956 O   0  0  0  0  0  0  0  0  0  0  0  0
  151.3666  141.6296  157.5211 N   0  0  0  0  0  0  0  0  0  0  0  0
  151.7170  142.2645  158.7423 C   0  0  0  0  0  0  0  0  0  0  0  0
  151.6491  141.6628  159.9401 N   0  0  0  0  0  0  0  0  0  0  0  0
  152.0464  142.5075  160.9687 N   0  0  0  0  0  0  0  0  0  0  0  0
  152.3972  143.7112  160.5068 C   0  0  0  0  0  0  0  0  0  0  0  0
  152.2755  143.9311  158.7698 S   0  0  0  0  0  0  0  0  0  0  0  0
  150.2000  136.9464  155.0608 C   0  0  0  0  0  0  0  0  0  0  0  0
  148.4012  132.5771  153.6601 H   0  0  0  0  0  0  0  0  0  0  0  0
  150.0513  132.4546  153.0551 H   0  0  0  0  0  0  0  0  0  0  0  0
  149.0461  133.8199  152.5908 H   0  0  0  0  0  0  0  0  0  0  0  0
  150.6938  134.4772  154.3069 H   0  0  0  0  0  0  0  0  0  0  0  0
  149.3618  132.4022  156.1201 H   0  0  0  0  0  0  0  0  0  0  0  0
  150.6341  133.5173  156.6117 H   0  0  0  0  0  0  0  0  0  0  0  0
  150.9716  132.2743  155.4178 H   0  0  0  0  0  0  0  0  0  0  0  0
  147.7376  134.6185  154.8375 H   0  0  0  0  0  0  0  0  0  0  0  0
  148.7653  134.9962  156.1941 H   0  0  0  0  0  0  0  0  0  0  0  0
  146.8990  136.8118  154.3057 H   0  0  0  0  0  0  0  0  0  0  0  0
  147.6030  137.3435  155.8207 H   0  0  0  0  0  0  0  0  0  0  0  0
  148.1764  138.5282  153.0423 H   0  0  0  0  0  0  0  0  0  0  0  0
  147.2589  139.2873  154.3287 H   0  0  0  0  0  0  0  0  0  0  0  0
  150.5175  138.2246  153.3378 H   0  0  0  0  0  0  0  0  0  0  0  0
  152.2782  138.3866  155.5335 H   0  0  0  0  0  0  0  0  0  0  0  0
  152.2564  139.4456  154.1464 H   0  0  0  0  0  0  0  0  0  0  0  0
  150.5771  140.8321  155.4738 H   0  0  0  0  0  0  0  0  0  0  0  0
  150.6477  142.0927  156.9851 H   0  0  0  0  0  0  0  0  0  0  0  0
  152.7295  144.4753  161.1938 H   0  0  0  0  0  0  0  0  0  0  0  0
  150.1473  137.0358  156.1471 H   0  0  0  0  0  0  0  0  0  0  0  0
  151.0468  136.2983  154.8317 H   0  0  0  0  0  0  0  0  0  0  0  0
  149.0810  136.2128  153.5572 H   0  0  0  0  0  0  0  0  0  0  0  0
  1  2  1  0  0  0  0
  1 21  1  0  0  0  0
  1 22  1  0  0  0  0
  1 23  1  0  0  0  0
  2  3  1  0  0  0  0
  2  4  1  0  0  0  0
  2 24  1  0  0  0  0
  3 25  1  0  0  0  0
  3 26  1  0  0  0  0
  3 27  1  0  0  0  0
  4  5  1  0  0  0  0
  4 28  1  0  0  0  0
  4 29  1  0  0  0  0
  5 20  1  0  0  0  0
  5  6  1  0  0  0  0
  5 42  1  0  0  0  0
  6  7  1  0  0  0  0
  6 30  1  0  0  0  0
  6 31  1  0  0  0  0
  7  8  1  0  0  0  0
  7 32  1  0  0  0  0
  7 33  1  0  0  0  0
  8  9  1  0  0  0  0
  9 10  1  0  0  0  0
  9 20  1  0  0  0  0
  9 34  1  0  0  0  0
 10 11  1  0  0  0  0
 10 35  1  0  0  0  0
 10 36  1  0  0  0  0
 11 12  1  0  0  0  0
 11 37  1  0  0  0  0
 12 13  2  0  0  0  0
 12 14  1  0  0  0  0
 14 15  1  0  0  0  0
 14 38  1  0  0  0  0
 15 19  1  0  0  0  0
 15 16  2  0  0  0  0
 16 17  1  0  0  0  0
 17 18  2  0  0  0  0
 18 19  1  0  0  0  0
 18 39  1  0  0  0  0
 20 40  1  0  0  0  0
 20 41  1  0  0  0  0
M  CHG  1   5   1
M  END
> <s_m_source_file>
AV-unprocessed.smi

> <i_m_source_file_index>
2021

> <i_lp_mmshare_version>
43012

> <i_f3d_flags>
0

> <s_epik_input>
W0NIM11bQ0hdKFtDSDNdKVtDSDJdTjFbQ0gyXVtDSDJdT1tDQEhdKFtDSDJdMSlbQ0gyXVtOSF1DKD1PKVtOSF1jMm5uW2NIXXMy

> <s_epik_cmdline>
J2VwaWtfcHl0aG9uJywgJy1waCcsICc3LjAnLCAnLXRuJywgJzgnLCAnLW1hJywgJzIwMCcsICctbWV0YWxfYmluZGluZycsICctaW1hZScsICc8aW5maWxlLm1hZT4nLCAnLW9tYWUnLCAnPG91dGZpbGUubWFlPic=

> <r_lp_tautomer_probability>
1

> <r_epik_Ionization_Penalty>
0.102019

> <r_epik_Ionization_Penalty_Charging>
0.098413

> <r_epik_Ionization_Penalty_Neutral>
0.00360555

> <r_epik_State_Penalty>
0.0884988

> <r_epik_Charging_Adjusted_Penalty>
0.186912

> <i_epik_Tot_Q>
1

> <i_epik_Tot_abs_Q>
1

> <r_epik_Metal_State_Penalty>
0.454709

> <b_epik_Metal_Only>
0

> <s_lp_Force_Field>
OPLS_2005

> <r_lp_Energy>
17.0767

> <b_lp_Chiralities_Consistent>
1

> <s_lp_Variant>
AV-unprocessed.smi:2021-1

> <Gold.Version>
5.8.1

> <Gold.Id.Protein>
6NUR|6NUR_protein|mol2

> <Gold.PLP.Fitness>
40.2785

> <Gold.PLP.PLP>
-35.0204

> <Gold.PLP.part.hbond>
-3.4161

> <Gold.PLP.part.metal>
0.0000

> <Gold.PLP.part.buried>
-6.0539

> <Gold.PLP.part.nonpolar>
-26.1153

> <Gold.PLP.part.repulsive>
0.3941

> <Gold.PLP.ligand.clash>
0.0000

> <Gold.PLP.ligand.torsion>
1.8909

> <Gold.PLP.Chemscore.Hbond>
3.0000

> <Gold.PLP.Chemscore.CHOScore>
0.0000

> <Gold.PLP.Chemscore.Metal>
0.0000

> <Gold.Chemscore.Hbonds>
donor molecule, donor type, donor heavy atom, donor atom, acceptor molecule, acceptor atom, score
      L1  H     5    42       P1  7948  2.00
      P1  H  7997  8010       L1    13  1.00

> <Gold.PLP.Chemscore.Internal.Correction>
0.0398

> <Gold.Rescore>
     Score         DG    S(hbond)    S(metal)    S(lipo)     H(rot)  DE(clash)    DE(int)     intcor
     13.97     -15.83       1.98        0.00      73.11       1.88       0.00       1.86       ----

> <Gold.Chemscore.Fitness>
13.9673

> <Gold.Chemscore.DG>
-15.8281

> <Gold.Chemscore.ZeroCoef>
-5.4800

> <Gold.Chemscore.Hbond>
1.9789

> <Gold.Chemscore.Metal>
0.0000

> <Gold.Chemscore.Lipo>
73.1141

> <Gold.Chemscore.Internal_Hbond>
0.0000

> <Gold.Chemscore.DEClash>
0.0004

> <Gold.Chemscore.DEInternal>
1.8604

> <Gold.Chemscore.Rot>
1.8812

> <Gold.Chemscore.Internal.Correction>
   9.000000E+99

> <Gold.Chemscore.Hbonds>
donor molecule, donor type, donor heavy atom, donor atom, acceptor molecule, acceptor atom, score
      L1  H     5    42       P1  7948  0.97
      P1  H  7997  8010       L1    13  0.78

> <Gold.Chemscore.Hbond.Weighted>
-6.6097

> <Gold.Chemscore.Metal.Weighted>
-0.0000

> <Gold.Chemscore.Lipo.Weighted>
-8.5543

> <Gold.Chemscore.Internal_Hbond.Weighted>
0.0000

> <Gold.Chemscore.DEClash.Weighted>
0.0004

> <Gold.Chemscore.DEInternal.Weighted>
1.8604

> <Gold.Chemscore.Rot.Weighted>
4.8159

> <Gold.Chemscore.Internal.Correction.Weighted>
   9.000000E+99

> <Gold.Protein.RotatedTorsions>
[ 6907 6896 6895 6894 ] final -127.14 input  -60.11 | X-H torsion
[ 7974 7965 7964 7962 ] final  -40.94 input  175.53 | X-H torsion
[ 8008 7997 7996 7995 ] final   60.52 input   59.86 | X-H torsion
[ 10167 10162 10161 10158 ] final -150.85 input  -65.29 | X-H torsion
[ 10718 10713 10712 10709 ] final  176.66 input   66.30 | X-H torsion
[ 10763 10752 10751 10750 ] final   36.39 input  -60.55 | X-H torsion
[ 11005 11000 10999 10996 ] final   78.06 input  -57.11 | X-H torsion

> <Gold.Protein.ActiveResidues>
 VAL166  LYS551  ARG553  GLY616  TRP617  ASP618  TYR619  PRO620  LYS621  CYS622 
 ASP623  PHE694  ASN695  SER759  ASP760  ASP761  ALA762  ILE779  LEU786  VAL792 
 PHE793  MET794  SER795  GLU796  ALA797  LYS798  CYS799  TRP800  GLU811  SER814 

> <Gold.Protein.RotatedAtoms>
  150.9042  133.7080  159.2870 H   0  0  0  0  0  0  0  0  0  0  0  0  # atno 6907 bound_to 6896
  151.4588  135.1035  159.9728 H   0  0  0  0  0  0  0  0  0  0  0  0  # atno 6908 bound_to 6896
  152.4894  133.8410  159.7208 H   0  0  0  0  0  0  0  0  0  0  0  0  # atno 6909 bound_to 6896
  146.0258  140.6794  142.9156 H   0  0  0  0  0  0  0  0  0  0  0  0  # atno 7974 bound_to 7965
  155.5837  140.3492  155.4547 H   0  0  0  0  0  0  0  0  0  0  0  0  # atno 8008 bound_to 7997
  156.0354  140.1284  157.0238 H   0  0  0  0  0  0  0  0  0  0  0  0  # atno 8009 bound_to 7997
  154.4369  140.1035  156.6145 H   0  0  0  0  0  0  0  0  0  0  0  0  # atno 8010 bound_to 7997
  139.7318  143.8796  152.2537 H   0  0  0  0  0  0  0  0  0  0  0  0  # atno 10167 bound_to 10162
  156.9168  130.9927  151.3011 H   0  0  0  0  0  0  0  0  0  0  0  0  # atno 10718 bound_to 10713
  153.0079  135.6307  154.1978 H   0  0  0  0  0  0  0  0  0  0  0  0  # atno 10763 bound_to 10752
  154.1721  135.2818  155.3079 H   0  0  0  0  0  0  0  0  0  0  0  0  # atno 10764 bound_to 10752
  154.5900  135.5620  153.7329 H   0  0  0  0  0  0  0  0  0  0  0  0  # atno 10765 bound_to 10752
  139.9228  134.7733  156.1601 H   0  0  0  0  0  0  0  0  0  0  0  0  # atno 11005 bound_to 11000
  144.7009  140.3647  143.7157 LP  0  0  0  0  0  0  0  0  0  0  0  0  # atno 17320 bound_to 7965
  145.7120  139.1687  143.2533 LP  0  0  0  0  0  0  0  0  0  0  0  0  # atno 17321 bound_to 7965
  139.8722  144.7062  150.8975 LP  0  0  0  0  0  0  0  0  0  0  0  0  # atno 17342 bound_to 10162
  140.7772  143.3729  151.1616 LP  0  0  0  0  0  0  0  0  0  0  0  0  # atno 17343 bound_to 10162
  157.5933  130.8459  149.8691 LP  0  0  0  0  0  0  0  0  0  0  0  0  # atno 17370 bound_to 10713
  156.0510  130.3717  150.1202 LP  0  0  0  0  0  0  0  0  0  0  0  0  # atno 17371 bound_to 10713
  141.0763  133.6774  156.2244 LP  0  0  0  0  0  0  0  0  0  0  0  0  # atno 17394 bound_to 11000
  140.6423  134.5153  157.5570 LP  0  0  0  0  0  0  0  0  0  0  0  0  # atno 17395 bound_to 11000

$$$$
