AV-unprocessed.smi:2856|AV-procd|sdf|10994|dock9
  -GOLD-   2272015453D 1   1.00000     0.00000
 Structure written by MMmdl.
 37 38  0  0  0  0  0  0  0  0  1 V2000
  148.8791  133.0462  154.3436 C   0  0  0  0  0  0  0  0  0  0  0  0
  147.1807  133.5593  153.9695 S   0  0  0  0  0  0  0  0  0  0  0  0
  146.7764  132.4411  152.5896 C   0  0  1  0  0  0  0  0  0  0  0  0
  146.4814  131.0205  153.1096 C   0  0  0  0  0  0  0  0  0  0  0  0
  146.1767  130.0511  151.9566 C   0  0  0  0  0  0  0  0  0  0  0  0
  145.0202  130.5656  151.0863 C   0  0  0  0  0  0  0  0  0  0  0  0
  145.3036  131.9848  150.5641 C   0  0  0  0  0  0  0  0  0  0  0  0
  145.6218  132.9747  151.7055 C   0  0  1  0  0  0  0  0  0  0  0  0
  144.4259  133.2423  152.5061 N   0  0  0  0  0  0  0  0  0  0  0  0
  143.6775  134.3526  152.4386 C   0  0  0  0  0  0  0  0  0  0  0  0
  143.9192  135.2911  151.6790 O   0  0  0  0  0  0  0  0  0  0  0  0
  142.6436  134.2959  153.2952 N   0  0  0  0  0  0  0  0  0  0  0  0
  141.6364  135.2733  153.4996 C   0  0  0  0  0  0  0  0  0  0  0  0
  141.8580  136.6327  153.1524 C   0  0  0  0  0  0  0  0  0  0  0  0
  140.6823  137.2352  153.5027 C   0  0  0  0  0  0  0  0  0  0  0  0
  140.2035  138.6446  153.4319 C   0  0  0  0  0  0  0  0  0  0  0  0
  139.8144  136.3202  154.0134 O   0  0  0  0  0  0  0  0  0  0  0  0
  140.4321  135.0639  154.0090 N   0  0  0  0  0  0  0  0  0  0  0  0
  149.2395  133.5682  155.2300 H   0  0  0  0  0  0  0  0  0  0  0  0
  149.5464  133.2828  153.5155 H   0  0  0  0  0  0  0  0  0  0  0  0
  148.9225  131.9739  154.5341 H   0  0  0  0  0  0  0  0  0  0  0  0
  147.6740  132.3800  151.9723 H   0  0  0  0  0  0  0  0  0  0  0  0
  147.3336  130.6498  153.6801 H   0  0  0  0  0  0  0  0  0  0  0  0
  145.6377  131.0432  153.8005 H   0  0  0  0  0  0  0  0  0  0  0  0
  147.0681  129.9242  151.3411 H   0  0  0  0  0  0  0  0  0  0  0  0
  145.9331  129.0654  152.3540 H   0  0  0  0  0  0  0  0  0  0  0  0
  144.8586  129.8882  150.2474 H   0  0  0  0  0  0  0  0  0  0  0  0
  144.0963  130.5625  151.6657 H   0  0  0  0  0  0  0  0  0  0  0  0
  146.1517  131.9472  149.8793 H   0  0  0  0  0  0  0  0  0  0  0  0
  144.4582  132.3411  149.9744 H   0  0  0  0  0  0  0  0  0  0  0  0
  145.9491  133.9099  151.2497 H   0  0  0  0  0  0  0  0  0  0  0  0
  144.1542  132.5255  153.1629 H   0  0  0  0  0  0  0  0  0  0  0  0
  142.5620  133.4591  153.8532 H   0  0  0  0  0  0  0  0  0  0  0  0
  142.7344  137.0939  152.7220 H   0  0  0  0  0  0  0  0  0  0  0  0
  141.0000  139.3108  153.0998 H   0  0  0  0  0  0  0  0  0  0  0  0
  139.8631  138.9862  154.4096 H   0  0  0  0  0  0  0  0  0  0  0  0
  139.3723  138.7361  152.7328 H   0  0  0  0  0  0  0  0  0  0  0  0
  1  2  1  0  0  0  0
  1 19  1  0  0  0  0
  1 20  1  0  0  0  0
  1 21  1  0  0  0  0
  2  3  1  0  0  0  0
  3  8  1  0  0  0  0
  3  4  1  0  0  0  0
  3 22  1  0  0  0  0
  4  5  1  0  0  0  0
  4 23  1  0  0  0  0
  4 24  1  0  0  0  0
  5  6  1  0  0  0  0
  5 25  1  0  0  0  0
  5 26  1  0  0  0  0
  6  7  1  0  0  0  0
  6 27  1  0  0  0  0
  6 28  1  0  0  0  0
  7  8  1  0  0  0  0
  7 29  1  0  0  0  0
  7 30  1  0  0  0  0
  8  9  1  0  0  0  0
  8 31  1  0  0  0  0
  9 10  1  0  0  0  0
  9 32  1  0  0  0  0
 10 11  2  0  0  0  0
 10 12  1  0  0  0  0
 12 13  1  0  0  0  0
 12 33  1  0  0  0  0
 13 18  2  0  0  0  0
 13 14  1  0  0  0  0
 14 15  2  0  0  0  0
 14 34  1  0  0  0  0
 15 16  1  0  0  0  0
 15 17  1  0  0  0  0
 16 35  1  0  0  0  0
 16 36  1  0  0  0  0
 16 37  1  0  0  0  0
 17 18  1  0  0  0  0
M  END
> <s_m_source_file>
AV-unprocessed.smi

> <i_m_source_file_index>
2856

> <i_lp_mmshare_version>
43012

> <i_f3d_flags>
0

> <s_epik_input>
W0NIM11TW0NAQEhdMVtDSDJdW0NIMl1bQ0gyXVtDSDJdW0NASF0xW05IXUMoPU8pW05IXWMyW2NIXWMoW0NIM10pb24y

> <s_epik_cmdline>
J2VwaWtfcHl0aG9uJywgJy1waCcsICc3LjAnLCAnLXRuJywgJzgnLCAnLW1hJywgJzIwMCcsICctbWV0YWxfYmluZGluZycsICctaW1hZScsICc8aW5maWxlLm1hZT4nLCAnLW9tYWUnLCAnPG91dGZpbGUubWFlPic=

> <r_lp_tautomer_probability>
1

> <r_epik_Ionization_Penalty>
2.20874e-05

> <r_epik_Ionization_Penalty_Charging>
0

> <r_epik_Ionization_Penalty_Neutral>
2.20874e-05

> <r_epik_State_Penalty>
-0

> <r_epik_Charging_Adjusted_Penalty>
0

> <i_epik_Tot_Q>
0

> <i_epik_Tot_abs_Q>
0

> <r_epik_Metal_State_Penalty>
-0

> <b_epik_Metal_Only>
0

> <s_lp_Force_Field>
OPLS_2005

> <r_lp_Energy>
4.92743

> <b_lp_Chiralities_Consistent>
1

> <s_lp_Variant>
AV-unprocessed.smi:2856-2

> <Gold.Version>
5.8.1

> <Gold.Id.Protein>
6NUR|6NUR_protein|mol2

> <Gold.PLP.Fitness>
39.3011

> <Gold.PLP.PLP>
-33.4903

> <Gold.PLP.part.hbond>
-3.3294

> <Gold.PLP.part.metal>
0.0000

> <Gold.PLP.part.buried>
-7.4472

> <Gold.PLP.part.nonpolar>
-22.8457

> <Gold.PLP.part.repulsive>
0.4542

> <Gold.PLP.ligand.clash>
0.0000

> <Gold.PLP.ligand.torsion>
0.4719

> <Gold.PLP.Chemscore.Hbond>
2.2466

> <Gold.PLP.Chemscore.CHOScore>
0.0000

> <Gold.PLP.Chemscore.Metal>
0.0000

> <Gold.Chemscore.Hbonds>
donor molecule, donor type, donor heavy atom, donor atom, acceptor molecule, acceptor atom, score
      L1  H     9    32       P1 10957  0.25
      L1  H    12    33       P1 10957  1.00
      P1  H 11000 11005       L1    18  1.00

> <Gold.PLP.Chemscore.Internal.Correction>
0.0147

> <Gold.Rescore>
     Score         DG    S(hbond)    S(metal)    S(lipo)     H(rot)  DE(clash)    DE(int)     intcor
     16.15     -18.02       2.43        0.00      64.43       1.21       0.00       1.87       ----

> <Gold.Chemscore.Fitness>
16.1465

> <Gold.Chemscore.DG>
-18.0228

> <Gold.Chemscore.ZeroCoef>
-5.4800

> <Gold.Chemscore.Hbond>
2.4265

> <Gold.Chemscore.Metal>
0.0000

> <Gold.Chemscore.Lipo>
64.4301

> <Gold.Chemscore.Internal_Hbond>
0.0000

> <Gold.Chemscore.DEClash>
0.0029

> <Gold.Chemscore.DEInternal>
1.8734

> <Gold.Chemscore.Rot>
1.2109

> <Gold.Chemscore.Internal.Correction>
   9.000000E+99

> <Gold.Chemscore.Hbonds>
donor molecule, donor type, donor heavy atom, donor atom, acceptor molecule, acceptor atom, score
      L1  H     9    32       P1 10957  0.04
      L1  H    12    33       P1 10957  1.00
      P1  H 11000 11005       L1    18  0.44

> <Gold.Chemscore.Hbond.Weighted>
-8.1045

> <Gold.Chemscore.Metal.Weighted>
-0.0000

> <Gold.Chemscore.Lipo.Weighted>
-7.5383

> <Gold.Chemscore.Internal_Hbond.Weighted>
0.0000

> <Gold.Chemscore.DEClash.Weighted>
0.0029

> <Gold.Chemscore.DEInternal.Weighted>
1.8734

> <Gold.Chemscore.Rot.Weighted>
3.1000

> <Gold.Chemscore.Internal.Correction.Weighted>
   9.000000E+99

> <Gold.Protein.RotatedTorsions>
[ 6907 6896 6895 6894 ] final   84.34 input  -60.11 | X-H torsion
[ 7974 7965 7964 7962 ] final   44.97 input  175.53 | X-H torsion
[ 8008 7997 7996 7995 ] final    4.73 input   59.86 | X-H torsion
[ 10167 10162 10161 10158 ] final -146.95 input  -65.29 | X-H torsion
[ 10718 10713 10712 10709 ] final   60.72 input   66.30 | X-H torsion
[ 10763 10752 10751 10750 ] final -127.16 input  -60.55 | X-H torsion
[ 11005 11000 10999 10996 ] final   41.50 input  -57.11 | X-H torsion

> <Gold.Protein.ActiveResidues>
 VAL166  LYS551  ARG553  GLY616  TRP617  ASP618  TYR619  PRO620  LYS621  CYS622 
 ASP623  PHE694  ASN695  SER759  ASP760  ASP761  ALA762  ILE779  LEU786  VAL792 
 PHE793  MET794  SER795  GLU796  ALA797  LYS798  CYS799  TRP800  GLU811  SER814 

> <Gold.Protein.RotatedAtoms>
  152.5350  134.2756  159.8987 H   0  0  0  0  0  0  0  0  0  0  0  0  # atno 6907 bound_to 6896
  151.2711  133.4248  159.2629 H   0  0  0  0  0  0  0  0  0  0  0  0  # atno 6908 bound_to 6896
  151.0367  134.9593  159.8196 H   0  0  0  0  0  0  0  0  0  0  0  0  # atno 6909 bound_to 6896
  146.0521  139.5015  142.9711 H   0  0  0  0  0  0  0  0  0  0  0  0  # atno 7974 bound_to 7965
  154.7195  140.2709  155.6554 H   0  0  0  0  0  0  0  0  0  0  0  0  # atno 8008 bound_to 7997
  156.2819  140.2737  156.1787 H   0  0  0  0  0  0  0  0  0  0  0  0  # atno 8009 bound_to 7997
  155.0526  140.0371  157.2539 H   0  0  0  0  0  0  0  0  0  0  0  0  # atno 8010 bound_to 7997
  139.7666  143.8299  152.2617 H   0  0  0  0  0  0  0  0  0  0  0  0  # atno 10167 bound_to 10162
  157.5774  130.8955  149.9372 H   0  0  0  0  0  0  0  0  0  0  0  0  # atno 10718 bound_to 10713
  154.8750  135.3971  154.3549 H   0  0  0  0  0  0  0  0  0  0  0  0  # atno 10763 bound_to 10752
  153.4329  135.7025  153.6224 H   0  0  0  0  0  0  0  0  0  0  0  0  # atno 10764 bound_to 10752
  153.4838  135.3763  155.2425 H   0  0  0  0  0  0  0  0  0  0  0  0  # atno 10765 bound_to 10752
  140.1828  134.4082  155.8190 H   0  0  0  0  0  0  0  0  0  0  0  0  # atno 11005 bound_to 11000
  145.6706  141.0217  143.1660 LP  0  0  0  0  0  0  0  0  0  0  0  0  # atno 17320 bound_to 7965
  144.7128  139.8306  143.7409 LP  0  0  0  0  0  0  0  0  0  0  0  0  # atno 17321 bound_to 7965
  139.8321  144.7249  150.9438 LP  0  0  0  0  0  0  0  0  0  0  0  0  # atno 17342 bound_to 10162
  140.7811  143.4061  151.1069 LP  0  0  0  0  0  0  0  0  0  0  0  0  # atno 17343 bound_to 10162
  156.0819  130.3672  150.0563 LP  0  0  0  0  0  0  0  0  0  0  0  0  # atno 17370 bound_to 10713
  156.8707  130.9523  151.3609 LP  0  0  0  0  0  0  0  0  0  0  0  0  # atno 17371 bound_to 10713
  141.2223  133.7009  156.7961 LP  0  0  0  0  0  0  0  0  0  0  0  0  # atno 17394 bound_to 11000
  140.2247  134.8730  157.3414 LP  0  0  0  0  0  0  0  0  0  0  0  0  # atno 17395 bound_to 11000

$$$$
