AV-unprocessed.smi:174|AV-procd|sdf|1426|dock6
  -GOLD-   2262019203D 1   1.00000     0.00000
 Structure written by MMmdl.
 51 54  0  0  0  0  0  0  0  0  1 V2000
  146.0951  130.6940  153.5780 N   0  0  0  0  0  0  0  0  0  0  0  0
  147.1486  130.7734  154.3939 C   0  0  0  0  0  0  0  0  0  0  0  0
  147.0564  130.5563  155.6013 O   0  0  0  0  0  0  0  0  0  0  0  0
  148.4850  131.1719  153.7509 C   0  0  0  0  0  0  0  0  0  0  0  0
  149.0044  132.4634  154.2300 N   0  0  0  0  0  0  0  0  0  0  0  0
  150.2277  132.4225  155.0380 C   0  0  0  0  0  0  0  0  0  0  0  0
  150.2650  133.5436  156.0809 C   0  0  0  0  0  0  0  0  0  0  0  0
  150.0503  134.8347  155.4396 N   0  0  0  0  0  0  0  0  0  0  0  0
  150.4523  135.9785  156.0609 C   0  0  0  0  0  0  0  0  0  0  0  0
  150.8211  135.8892  157.3668 N   0  0  0  0  0  0  0  0  0  0  0  0
  151.2169  136.9709  158.0421 C   0  0  0  0  0  0  0  0  0  0  0  0
  151.3235  138.2282  157.6125 N   0  0  0  0  0  0  0  0  0  0  0  0
  150.9675  138.3316  156.3008 C   0  0  0  0  0  0  0  0  0  0  0  0
  150.5241  137.2718  155.4556 C   0  0  0  0  0  0  0  0  0  0  0  0
  150.2703  137.7756  154.1827 N   0  0  0  0  0  0  0  0  0  0  0  0
  150.5329  139.0502  154.2745 C   0  0  0  0  0  0  0  0  0  0  0  0
  150.9571  139.4690  155.5129 N   0  0  0  0  0  0  0  0  0  0  0  0
  151.3148  140.8242  155.8943 C   0  0  0  0  0  0  0  0  0  0  0  0
  151.5748  140.9628  157.4074 C   0  0  1  0  0  0  0  0  0  0  0  0
  152.7609  140.2696  157.7468 O   0  0  0  0  0  0  0  0  0  0  0  0
  151.7201  142.4340  157.8377 C   0  0  2  0  0  0  0  0  0  0  0  0
  152.2903  142.6328  159.2420 C   0  0  0  0  0  0  0  0  0  0  0  0
  151.7981  144.0183  159.6244 C   0  0  0  0  0  0  0  0  0  0  0  0
  150.6178  144.2650  158.6798 C   0  0  0  0  0  0  0  0  0  0  0  0
  150.4480  143.0514  157.9585 O   0  0  0  0  0  0  0  0  0  0  0  0
  148.9959  134.9602  154.4200 C   0  0  0  0  0  0  0  0  0  0  0  0
  148.4200  133.6361  153.8821 C   0  0  0  0  0  0  0  0  0  0  0  0
  147.4270  133.6920  153.1562 O   0  0  0  0  0  0  0  0  0  0  0  0
  145.1937  130.4295  153.9486 H   0  0  0  0  0  0  0  0  0  0  0  0
  146.2023  130.8915  152.5937 H   0  0  0  0  0  0  0  0  0  0  0  0
  149.2194  130.3840  153.9289 H   0  0  0  0  0  0  0  0  0  0  0  0
  148.3472  131.1953  152.6696 H   0  0  0  0  0  0  0  0  0  0  0  0
  150.3324  131.4627  155.5444 H   0  0  0  0  0  0  0  0  0  0  0  0
  151.0824  132.5129  154.3661 H   0  0  0  0  0  0  0  0  0  0  0  0
  149.4967  133.3813  156.8381 H   0  0  0  0  0  0  0  0  0  0  0  0
  151.2348  133.5179  156.5787 H   0  0  0  0  0  0  0  0  0  0  0  0
  151.4865  136.8046  159.0747 H   0  0  0  0  0  0  0  0  0  0  0  0
  150.4233  139.7238  153.4370 H   0  0  0  0  0  0  0  0  0  0  0  0
  152.1952  141.1282  155.3265 H   0  0  0  0  0  0  0  0  0  0  0  0
  150.5050  141.4873  155.5877 H   0  0  0  0  0  0  0  0  0  0  0  0
  150.7514  140.5045  157.9567 H   0  0  0  0  0  0  0  0  0  0  0  0
  152.5385  139.5631  158.3339 H   0  0  0  0  0  0  0  0  0  0  0  0
  152.3152  142.9901  157.1104 H   0  0  0  0  0  0  0  0  0  0  0  0
  151.8708  141.8944  159.9268 H   0  0  0  0  0  0  0  0  0  0  0  0
  153.3765  142.5443  159.2753 H   0  0  0  0  0  0  0  0  0  0  0  0
  151.5021  144.0601  160.6730 H   0  0  0  0  0  0  0  0  0  0  0  0
  152.5745  144.7672  159.4641 H   0  0  0  0  0  0  0  0  0  0  0  0
  149.7041  144.5271  159.2135 H   0  0  0  0  0  0  0  0  0  0  0  0
  150.8472  145.0712  157.9817 H   0  0  0  0  0  0  0  0  0  0  0  0
  148.1728  135.5495  154.8276 H   0  0  0  0  0  0  0  0  0  0  0  0
  149.3872  135.5087  153.5621 H   0  0  0  0  0  0  0  0  0  0  0  0
  1  2  1  0  0  0  0
  1 29  1  0  0  0  0
  1 30  1  0  0  0  0
  2  3  2  0  0  0  0
  2  4  1  0  0  0  0
  4  5  1  0  0  0  0
  4 31  1  0  0  0  0
  4 32  1  0  0  0  0
  5 27  1  0  0  0  0
  5  6  1  0  0  0  0
  6  7  1  0  0  0  0
  6 33  1  0  0  0  0
  6 34  1  0  0  0  0
  7  8  1  0  0  0  0
  7 35  1  0  0  0  0
  7 36  1  0  0  0  0
  8  9  1  0  0  0  0
  8 26  1  0  0  0  0
  9 14  1  0  0  0  0
  9 10  2  0  0  0  0
 10 11  1  0  0  0  0
 11 12  2  0  0  0  0
 11 37  1  0  0  0  0
 12 13  1  0  0  0  0
 13 17  1  0  0  0  0
 13 14  2  0  0  0  0
 14 15  1  0  0  0  0
 15 16  2  0  0  0  0
 16 17  1  0  0  0  0
 16 38  1  0  0  0  0
 17 18  1  0  0  0  0
 18 19  1  0  0  0  0
 18 39  1  0  0  0  0
 18 40  1  0  0  0  0
 19 20  1  0  0  0  0
 19 21  1  0  0  0  0
 19 41  1  0  0  0  0
 20 42  1  0  0  0  0
 21 25  1  0  0  0  0
 21 22  1  0  0  0  0
 21 43  1  0  0  0  0
 22 23  1  0  0  0  0
 22 44  1  0  0  0  0
 22 45  1  0  0  0  0
 23 24  1  0  0  0  0
 23 46  1  0  0  0  0
 23 47  1  0  0  0  0
 24 25  1  0  0  0  0
 24 48  1  0  0  0  0
 24 49  1  0  0  0  0
 26 27  1  0  0  0  0
 26 50  1  0  0  0  0
 26 51  1  0  0  0  0
 27 28  2  0  0  0  0
M  END
> <s_m_source_file>
AV-unprocessed.smi

> <i_m_source_file_index>
174

> <i_lp_mmshare_version>
43012

> <i_f3d_flags>
0

> <s_epik_input>
W05IMl1DKD1PKVtDSDJdTjFbQ0gyXVtDSDJdTihbQ0gyXUMxPU8pYyhuW2NIXW4yKWMoYzIzKW5bY0hdbjNbQ0gyXVtDQEhdKFtPSF0pW0NAQEhdNFtDSDJdW0NIMl1bQ0gyXU80

> <s_epik_cmdline>
J2VwaWtfcHl0aG9uJywgJy1waCcsICc3LjAnLCAnLXRuJywgJzgnLCAnLW1hJywgJzIwMCcsICctbWV0YWxfYmluZGluZycsICctaW1hZScsICc8aW5maWxlLm1hZT4nLCAnLW9tYWUnLCAnPG91dGZpbGUubWFlPic=

> <r_lp_tautomer_probability>
1

> <r_epik_Ionization_Penalty>
0.000250477

> <r_epik_Ionization_Penalty_Charging>
0

> <r_epik_Ionization_Penalty_Neutral>
0.000250477

> <r_epik_State_Penalty>
-0

> <r_epik_Charging_Adjusted_Penalty>
0

> <i_epik_Tot_Q>
0

> <i_epik_Tot_abs_Q>
0

> <r_epik_Metal_State_Penalty>
-0

> <b_epik_Metal_Only>
0

> <s_lp_Force_Field>
OPLS_2005

> <r_lp_Energy>
35.93

> <b_lp_Chiralities_Consistent>
1

> <s_lp_Variant>
AV-unprocessed.smi:174-2

> <Gold.Version>
5.8.1

> <Gold.Id.Protein>
6NUR|6NUR_protein|mol2

> <Gold.PLP.Fitness>
47.0408

> <Gold.PLP.PLP>
-40.1208

> <Gold.PLP.part.hbond>
-2.6701

> <Gold.PLP.part.metal>
0.0000

> <Gold.PLP.part.buried>
-4.5462

> <Gold.PLP.part.nonpolar>
-34.0576

> <Gold.PLP.part.repulsive>
0.7650

> <Gold.PLP.ligand.clash>
0.0000

> <Gold.PLP.ligand.torsion>
0.7425

> <Gold.PLP.Chemscore.Hbond>
1.7218

> <Gold.PLP.Chemscore.CHOScore>
1.0000

> <Gold.PLP.Chemscore.Metal>
0.0000

> <Gold.Chemscore.Hbonds>
donor molecule, donor type, donor heavy atom, donor atom, acceptor molecule, acceptor atom, score
      L1  H     1    29       P1 10956  0.26
      P1  H  7997  8010       L1    20  0.96
      L1  C    16    38       P1  7957  1.00

> <Gold.PLP.Chemscore.Internal.Correction>
0.2396

> <Gold.Rescore>
     Score         DG    S(hbond)    S(metal)    S(lipo)     H(rot)  DE(clash)    DE(int)     intcor
      5.75      -9.04       0.91        0.00      79.98       3.46       0.22       3.07       ----

> <Gold.Chemscore.Fitness>
5.7534

> <Gold.Chemscore.DG>
-9.0367

> <Gold.Chemscore.ZeroCoef>
-5.4800

> <Gold.Chemscore.Hbond>
0.9146

> <Gold.Chemscore.Metal>
0.0000

> <Gold.Chemscore.Lipo>
79.9769

> <Gold.Chemscore.Internal_Hbond>
0.0000

> <Gold.Chemscore.DEClash>
0.2163

> <Gold.Chemscore.DEInternal>
3.0670

> <Gold.Chemscore.Rot>
3.4591

> <Gold.Chemscore.Internal.Correction>
   9.000000E+99

> <Gold.Chemscore.Hbonds>
donor molecule, donor type, donor heavy atom, donor atom, acceptor molecule, acceptor atom, score
      L1  H     1    29       P1 10956  0.02
      P1  H  7997  8010       L1    20  0.83

> <Gold.Chemscore.Hbond.Weighted>
-3.0548

> <Gold.Chemscore.Metal.Weighted>
-0.0000

> <Gold.Chemscore.Lipo.Weighted>
-9.3573

> <Gold.Chemscore.Internal_Hbond.Weighted>
0.0000

> <Gold.Chemscore.DEClash.Weighted>
0.2163

> <Gold.Chemscore.DEInternal.Weighted>
3.0670

> <Gold.Chemscore.Rot.Weighted>
8.8553

> <Gold.Chemscore.Internal.Correction.Weighted>
   9.000000E+99

> <Gold.Protein.RotatedTorsions>
[ 6907 6896 6895 6894 ] final  -56.30 input  -60.11 | X-H torsion
[ 7974 7965 7964 7962 ] final  -23.47 input  175.53 | X-H torsion
[ 8008 7997 7996 7995 ] final   46.27 input   59.86 | X-H torsion
[ 10167 10162 10161 10158 ] final  151.07 input  -65.29 | X-H torsion
[ 10718 10713 10712 10709 ] final -111.02 input   66.30 | X-H torsion
[ 10763 10752 10751 10750 ] final  -16.30 input  -60.55 | X-H torsion
[ 11005 11000 10999 10996 ] final -172.39 input  -57.11 | X-H torsion

> <Gold.Protein.ActiveResidues>
 VAL166  LYS551  ARG553  GLY616  TRP617  ASP618  TYR619  PRO620  LYS621  CYS622 
 ASP623  PHE694  ASN695  SER759  ASP760  ASP761  ALA762  ILE779  LEU786  VAL792 
 PHE793  MET794  SER795  GLU796  ALA797  LYS798  CYS799  TRP800  GLU811  SER814 

> <Gold.Protein.RotatedAtoms>
  150.8179  134.7371  159.6746 H   0  0  0  0  0  0  0  0  0  0  0  0  # atno 6907 bound_to 6896
  152.4297  134.5798  159.9954 H   0  0  0  0  0  0  0  0  0  0  0  0  # atno 6908 bound_to 6896
  151.5990  133.3321  159.3079 H   0  0  0  0  0  0  0  0  0  0  0  0  # atno 6909 bound_to 6896
  146.1614  140.4620  142.8570 H   0  0  0  0  0  0  0  0  0  0  0  0  # atno 7974 bound_to 7965
  155.3497  140.3413  155.4239 H   0  0  0  0  0  0  0  0  0  0  0  0  # atno 8008 bound_to 7997
  156.1770  140.1651  156.8379 H   0  0  0  0  0  0  0  0  0  0  0  0  # atno 8009 bound_to 7997
  154.5293  140.0749  156.8298 H   0  0  0  0  0  0  0  0  0  0  0  0  # atno 8010 bound_to 7997
  139.4844  144.5471  151.7466 H   0  0  0  0  0  0  0  0  0  0  0  0  # atno 10167 bound_to 10162
  156.0623  130.5845  150.8316 H   0  0  0  0  0  0  0  0  0  0  0  0  # atno 10718 bound_to 10713
  153.5565  135.7010  153.5567 H   0  0  0  0  0  0  0  0  0  0  0  0  # atno 10763 bound_to 10752
  153.3468  135.4006  155.1615 H   0  0  0  0  0  0  0  0  0  0  0  0  # atno 10764 bound_to 10752
  154.8654  135.3755  154.5079 H   0  0  0  0  0  0  0  0  0  0  0  0  # atno 10765 bound_to 10752
  140.4976  134.5925  157.4976 H   0  0  0  0  0  0  0  0  0  0  0  0  # atno 11005 bound_to 11000
  144.8032  140.6252  143.6464 LP  0  0  0  0  0  0  0  0  0  0  0  0  # atno 17320 bound_to 7965
  145.4578  139.1516  143.3883 LP  0  0  0  0  0  0  0  0  0  0  0  0  # atno 17321 bound_to 7965
  140.5019  144.1156  150.5973 LP  0  0  0  0  0  0  0  0  0  0  0  0  # atno 17342 bound_to 10162
  140.4052  143.2684  151.9899 LP  0  0  0  0  0  0  0  0  0  0  0  0  # atno 17343 bound_to 10162
  157.5641  131.0946  150.9516 LP  0  0  0  0  0  0  0  0  0  0  0  0  # atno 17370 bound_to 10713
  156.9747  130.5504  149.5292 LP  0  0  0  0  0  0  0  0  0  0  0  0  # atno 17371 bound_to 10713
  139.9732  134.7258  156.0000 LP  0  0  0  0  0  0  0  0  0  0  0  0  # atno 17394 bound_to 11000
  141.1452  133.6557  156.3847 LP  0  0  0  0  0  0  0  0  0  0  0  0  # atno 17395 bound_to 11000

$$$$
