AV-unprocessed.smi:862|AV-procd|sdf|3979|dock6
  -GOLD-   22720 1453D 1   1.00000     0.00000
 Structure written by MMmdl.
 44 46  0  0  0  0  0  0  0  0  2 V2000
  149.3013  138.2911  153.5556 N   0  0  0  0  0  0  0  0  0  0  0  0
  149.9366  138.3939  154.7270 C   0  0  0  0  0  0  0  0  0  0  0  0
  149.9191  137.4710  155.5392 O   0  0  0  0  0  0  0  0  0  0  0  0
  150.6193  139.5514  154.9169 N   0  0  0  0  0  0  0  0  0  0  0  0
  150.3383  140.8407  154.2637 C   0  0  0  0  0  0  0  0  0  0  0  0
  149.6544  141.7711  155.2820 C   0  0  0  0  0  0  0  0  0  0  0  0
  150.5253  141.9574  156.5424 C   0  0  0  0  0  0  0  0  0  0  0  0
  149.7877  142.7476  157.5525 N   0  3  0  0  0  0  0  0  0  0  0  0
  150.5983  143.2775  158.6716 C   0  0  1  0  0  0  0  0  0  0  0  0
  152.0304  143.6320  158.2583 C   0  0  0  0  0  0  0  0  0  0  0  0
  152.4987  144.6796  159.2785 C   0  0  0  0  0  0  0  0  0  0  0  0
  151.2326  145.2327  159.9523 C   0  0  0  0  0  0  0  0  0  0  0  0
  150.0517  144.6103  159.1933 C   0  0  2  0  0  0  0  0  0  0  0  0
  148.8504  144.4608  160.0007 N   0  0  0  0  0  0  0  0  0  0  0  0
  148.6338  144.9848  161.2689 C   0  0  0  0  0  0  0  0  0  0  0  0
  147.3624  144.6102  161.6405 C   0  0  0  0  0  0  0  0  0  0  0  0
  146.7783  143.8621  160.6220 N   0  0  0  0  0  0  0  0  0  0  0  0
  147.7166  143.8152  159.6860 C   0  0  0  0  0  0  0  0  0  0  0  0
  150.9694  140.5890  157.1090 C   0  0  0  0  0  0  0  0  0  0  0  0
  151.5886  139.7084  156.0083 C   0  0  0  0  0  0  0  0  0  0  0  0
  148.7819  137.4516  153.3426 H   0  0  0  0  0  0  0  0  0  0  0  0
  149.3496  139.0434  152.8844 H   0  0  0  0  0  0  0  0  0  0  0  0
  151.2766  141.2830  153.9257 H   0  0  0  0  0  0  0  0  0  0  0  0
  149.7205  140.7568  153.3701 H   0  0  0  0  0  0  0  0  0  0  0  0
  149.4528  142.7386  154.8208 H   0  0  0  0  0  0  0  0  0  0  0  0
  148.6854  141.3514  155.5571 H   0  0  0  0  0  0  0  0  0  0  0  0
  151.4134  142.5160  156.2442 H   0  0  0  0  0  0  0  0  0  0  0  0
  149.3544  143.5342  157.0905 H   0  0  0  0  0  0  0  0  0  0  0  0
  150.6321  142.5584  159.4905 H   0  0  0  0  0  0  0  0  0  0  0  0
  152.6865  142.7614  158.2314 H   0  0  0  0  0  0  0  0  0  0  0  0
  152.0328  144.0760  157.2614 H   0  0  0  0  0  0  0  0  0  0  0  0
  153.1495  144.2242  160.0259 H   0  0  0  0  0  0  0  0  0  0  0  0
  153.0700  145.4691  158.7896 H   0  0  0  0  0  0  0  0  0  0  0  0
  151.2289  144.9350  161.0014 H   0  0  0  0  0  0  0  0  0  0  0  0
  151.1971  146.3223  159.9269 H   0  0  0  0  0  0  0  0  0  0  0  0
  149.8164  145.2545  158.3437 H   0  0  0  0  0  0  0  0  0  0  0  0
  149.3805  145.5657  161.7901 H   0  0  0  0  0  0  0  0  0  0  0  0
  146.8263  144.8216  162.5541 H   0  0  0  0  0  0  0  0  0  0  0  0
  147.5725  143.3012  158.7468 H   0  0  0  0  0  0  0  0  0  0  0  0
  151.6932  140.7201  157.9133 H   0  0  0  0  0  0  0  0  0  0  0  0
  150.1132  140.0719  157.5456 H   0  0  0  0  0  0  0  0  0  0  0  0
  151.9049  138.7525  156.4285 H   0  0  0  0  0  0  0  0  0  0  0  0
  152.4965  140.1734  155.6215 H   0  0  0  0  0  0  0  0  0  0  0  0
  149.0586  142.1602  157.9317 H   0  0  0  0  0  0  0  0  0  0  0  0
  1  2  1  0  0  0  0
  1 21  1  0  0  0  0
  1 22  1  0  0  0  0
  2  3  2  0  0  0  0
  2  4  1  0  0  0  0
  4 20  1  0  0  0  0
  4  5  1  0  0  0  0
  5  6  1  0  0  0  0
  5 23  1  0  0  0  0
  5 24  1  0  0  0  0
  6  7  1  0  0  0  0
  6 25  1  0  0  0  0
  6 26  1  0  0  0  0
  7  8  1  0  0  0  0
  7 19  1  0  0  0  0
  7 27  1  0  0  0  0
  8  9  1  0  0  0  0
  8 28  1  0  0  0  0
  8 44  1  0  0  0  0
  9 13  1  0  0  0  0
  9 10  1  0  0  0  0
  9 29  1  0  0  0  0
 10 11  1  0  0  0  0
 10 30  1  0  0  0  0
 10 31  1  0  0  0  0
 11 12  1  0  0  0  0
 11 32  1  0  0  0  0
 11 33  1  0  0  0  0
 12 13  1  0  0  0  0
 12 34  1  0  0  0  0
 12 35  1  0  0  0  0
 13 14  1  0  0  0  0
 13 36  1  0  0  0  0
 14 18  1  0  0  0  0
 14 15  1  0  0  0  0
 15 16  2  0  0  0  0
 15 37  1  0  0  0  0
 16 17  1  0  0  0  0
 16 38  1  0  0  0  0
 17 18  2  0  0  0  0
 18 39  1  0  0  0  0
 19 20  1  0  0  0  0
 19 40  1  0  0  0  0
 19 41  1  0  0  0  0
 20 42  1  0  0  0  0
 20 43  1  0  0  0  0
M  CHG  1   8   1
M  END
> <s_m_source_file>
AV-unprocessed.smi

> <i_m_source_file_index>
862

> <i_lp_mmshare_version>
43012

> <i_f3d_flags>
0

> <s_epik_input>
W05IMl1DKD1PKU4xW0NIMl1bQ0gyXVtDSF0oW0NIMl1bQ0gyXTEpW05IXVtDQEBIXTJbQ0gyXVtDSDJdW0NIMl1bQ0BIXTJuM1tjSF1bY0hdbltjSF0z

> <s_epik_cmdline>
J2VwaWtfcHl0aG9uJywgJy1waCcsICc3LjAnLCAnLXRuJywgJzgnLCAnLW1hJywgJzIwMCcsICctbWV0YWxfYmluZGluZycsICctaW1hZScsICc8aW5maWxlLm1hZT4nLCAnLW9tYWUnLCAnPG91dGZpbGUubWFlPic=

> <r_lp_tautomer_probability>
1

> <r_epik_Ionization_Penalty>
0.0731506

> <r_epik_Ionization_Penalty_Charging>
0.0731

> <r_epik_Ionization_Penalty_Neutral>
5.05966e-05

> <r_epik_State_Penalty>
0.128895

> <r_epik_Charging_Adjusted_Penalty>
0.201995

> <i_epik_Tot_Q>
1

> <i_epik_Tot_abs_Q>
1

> <r_epik_Metal_State_Penalty>
0.113934

> <b_epik_Metal_Only>
0

> <s_lp_Force_Field>
OPLS_2005

> <r_lp_Energy>
55.4297

> <b_lp_Chiralities_Consistent>
1

> <s_lp_Variant>
AV-unprocessed.smi:862-4

> <Gold.Version>
5.8.1

> <Gold.Id.Protein>
6NUR|6NUR_protein|mol2

> <Gold.PLP.Fitness>
46.8901

> <Gold.PLP.PLP>
-37.5129

> <Gold.PLP.part.hbond>
-3.0000

> <Gold.PLP.part.metal>
0.0000

> <Gold.PLP.part.buried>
2.3589

> <Gold.PLP.part.nonpolar>
-36.8676

> <Gold.PLP.part.repulsive>
0.2266

> <Gold.PLP.ligand.clash>
0.0000

> <Gold.PLP.ligand.torsion>
0.7356

> <Gold.PLP.Chemscore.Hbond>
3.5993

> <Gold.PLP.Chemscore.CHOScore>
0.0000

> <Gold.PLP.Chemscore.Metal>
0.0000

> <Gold.Chemscore.Hbonds>
donor molecule, donor type, donor heavy atom, donor atom, acceptor molecule, acceptor atom, score
      L1  H     1    21       P1  7948  0.58
      L1  H     1    22       P1  7957  1.00
      L1  H     8    28       P1  8028  2.00

> <Gold.PLP.Chemscore.Internal.Correction>
0.0508

> <Gold.Rescore>
     Score         DG    S(hbond)    S(metal)    S(lipo)     H(rot)  DE(clash)    DE(int)     intcor
     18.23     -21.54       2.53        0.00     101.03       1.64       2.64       0.68       ----

> <Gold.Chemscore.Fitness>
18.2267

> <Gold.Chemscore.DG>
-21.5431

> <Gold.Chemscore.ZeroCoef>
-5.4800

> <Gold.Chemscore.Hbond>
2.5280

> <Gold.Chemscore.Metal>
0.0000

> <Gold.Chemscore.Lipo>
101.0349

> <Gold.Chemscore.Internal_Hbond>
0.0000

> <Gold.Chemscore.DEClash>
2.6366

> <Gold.Chemscore.DEInternal>
0.6798

> <Gold.Chemscore.Rot>
1.6411

> <Gold.Chemscore.Internal.Correction>
   9.000000E+99

> <Gold.Chemscore.Hbonds>
donor molecule, donor type, donor heavy atom, donor atom, acceptor molecule, acceptor atom, score
      L1  H     1    21       P1  7948  0.58
      L1  H     1    22       P1  7957  0.95
      L1  H     8    28       P1  8028  0.81

> <Gold.Chemscore.Hbond.Weighted>
-8.4434

> <Gold.Chemscore.Metal.Weighted>
-0.0000

> <Gold.Chemscore.Lipo.Weighted>
-11.8211

> <Gold.Chemscore.Internal_Hbond.Weighted>
0.0000

> <Gold.Chemscore.DEClash.Weighted>
2.6366

> <Gold.Chemscore.DEInternal.Weighted>
0.6798

> <Gold.Chemscore.Rot.Weighted>
4.2013

> <Gold.Chemscore.Internal.Correction.Weighted>
   9.000000E+99

> <Gold.Protein.RotatedTorsions>
[ 6907 6896 6895 6894 ] final -131.83 input  -60.11 | X-H torsion
[ 7974 7965 7964 7962 ] final  -75.44 input  175.53 | X-H torsion
[ 8008 7997 7996 7995 ] final   -7.99 input   59.86 | X-H torsion
[ 10167 10162 10161 10158 ] final  121.18 input  -65.29 | X-H torsion
[ 10718 10713 10712 10709 ] final  -26.34 input   66.30 | X-H torsion
[ 10763 10752 10751 10750 ] final -131.35 input  -60.55 | X-H torsion
[ 11005 11000 10999 10996 ] final  -80.59 input  -57.11 | X-H torsion

> <Gold.Protein.ActiveResidues>
 VAL166  LYS551  ARG553  GLY616  TRP617  ASP618  TYR619  PRO620  LYS621  CYS622 
 ASP623  PHE694  ASN695  SER759  ASP760  ASP761  ALA762  ILE779  LEU786  VAL792 
 PHE793  MET794  SER795  GLU796  ALA797  LYS798  CYS799  TRP800  GLU811  SER814 

> <Gold.Protein.RotatedAtoms>
  150.9555  133.6502  159.2763 H   0  0  0  0  0  0  0  0  0  0  0  0  # atno 6907 bound_to 6896
  151.3843  135.0944  159.9516 H   0  0  0  0  0  0  0  0  0  0  0  0  # atno 6908 bound_to 6896
  152.5127  133.9082  159.7529 H   0  0  0  0  0  0  0  0  0  0  0  0  # atno 6909 bound_to 6896
  145.6259  140.9350  143.1113 H   0  0  0  0  0  0  0  0  0  0  0  0  # atno 7974 bound_to 7965
  154.5785  140.2393  155.8088 H   0  0  0  0  0  0  0  0  0  0  0  0  # atno 8008 bound_to 7997
  156.2161  140.3012  155.9800 H   0  0  0  0  0  0  0  0  0  0  0  0  # atno 8009 bound_to 7997
  155.2584  140.0413  157.2985 H   0  0  0  0  0  0  0  0  0  0  0  0  # atno 8010 bound_to 7997
  139.5935  144.7034  151.3232 H   0  0  0  0  0  0  0  0  0  0  0  0  # atno 10167 bound_to 10162
  156.4525  130.4487  149.6980 H   0  0  0  0  0  0  0  0  0  0  0  0  # atno 10718 bound_to 10713
  154.8751  135.3833  154.4233 H   0  0  0  0  0  0  0  0  0  0  0  0  # atno 10763 bound_to 10752
  153.4934  135.7030  153.5876 H   0  0  0  0  0  0  0  0  0  0  0  0  # atno 10764 bound_to 10752
  153.4240  135.3894  155.2096 H   0  0  0  0  0  0  0  0  0  0  0  0  # atno 10765 bound_to 10752
  141.1668  133.7157  156.8295 H   0  0  0  0  0  0  0  0  0  0  0  0  # atno 11005 bound_to 11000
  144.7212  139.8023  143.7381 LP  0  0  0  0  0  0  0  0  0  0  0  0  # atno 17320 bound_to 7965
  146.1394  139.4448  143.0118 LP  0  0  0  0  0  0  0  0  0  0  0  0  # atno 17321 bound_to 7965
  140.7193  143.7180  150.7718 LP  0  0  0  0  0  0  0  0  0  0  0  0  # atno 17342 bound_to 10162
  140.0741  143.5032  152.2564 LP  0  0  0  0  0  0  0  0  0  0  0  0  # atno 17343 bound_to 10162
  156.3801  130.7574  151.2566 LP  0  0  0  0  0  0  0  0  0  0  0  0  # atno 17370 bound_to 10713
  157.7502  131.0298  150.4109 LP  0  0  0  0  0  0  0  0  0  0  0  0  # atno 17371 bound_to 10713
  140.2061  134.8862  157.3223 LP  0  0  0  0  0  0  0  0  0  0  0  0  # atno 17394 bound_to 11000
  140.2136  134.4109  155.7600 LP  0  0  0  0  0  0  0  0  0  0  0  0  # atno 17395 bound_to 11000

$$$$
