AV-unprocessed.smi:124|AV-procd|sdf|1147|dock8
  -GOLD-   2262018283D 1   1.00000     0.00000
 Structure written by MMmdl.
 52 56  0  0  0  0  0  0  0  0  1 V2000
  149.4433  138.3873  156.4126 O   0  0  0  0  0  0  0  0  0  0  0  0
  149.9861  138.8935  157.3962 C   0  0  0  0  0  0  0  0  0  0  0  0
  150.2473  138.0179  158.6367 C   0  0  0  0  0  0  0  0  0  0  0  0
  149.4706  136.7822  158.6484 N   0  0  0  0  0  0  0  0  0  0  0  0
  149.7104  135.8428  157.6145 C   0  0  0  0  0  0  0  0  0  0  0  0
  150.5437  136.0409  156.7284 O   0  0  0  0  0  0  0  0  0  0  0  0
  148.8780  134.6477  157.6795 C   0  0  0  0  0  0  0  0  0  0  0  0
  148.9885  133.7084  156.7249 F   0  0  0  0  0  0  0  0  0  0  0  0
  147.9838  134.4736  158.6763 C   0  0  0  0  0  0  0  0  0  0  0  0
  147.8027  135.3846  159.7047 N   0  0  0  0  0  0  0  0  0  0  0  0
  146.7165  135.1979  160.7441 C   0  0  2  0  0  0  0  0  0  0  0  0
  147.2120  135.3071  162.1971 C   0  0  0  0  0  0  0  0  0  0  0  0
  147.1906  133.8626  162.6584 C   0  0  0  0  0  0  0  0  0  0  0  0
  146.0464  133.2898  161.8314 C   0  0  0  0  0  0  0  0  0  0  0  0
  146.1791  133.9220  160.5652 O   0  0  0  0  0  0  0  0  0  0  0  0
  148.5095  136.6091  159.6745 C   0  0  0  0  0  0  0  0  0  0  0  0
  148.2914  137.4896  160.5101 O   0  0  0  0  0  0  0  0  0  0  0  0
  150.4261  140.2929  157.4790 C   0  0  0  0  0  0  0  0  0  0  0  0
  149.9161  141.2976  156.6784 C   0  0  0  0  0  0  0  0  0  0  0  0
  148.8810  141.3053  155.6508 C   0  0  0  0  0  0  0  0  0  0  0  0
  149.1591  140.8197  154.3552 C   0  0  0  0  0  0  0  0  0  0  0  0
  148.1636  140.8320  153.3589 C   0  0  0  0  0  0  0  0  0  0  0  0
  146.8814  141.3346  153.6506 C   0  0  0  0  0  0  0  0  0  0  0  0
  146.5968  141.8248  154.9392 C   0  0  0  0  0  0  0  0  0  0  0  0
  147.5938  141.8110  155.9338 C   0  0  0  0  0  0  0  0  0  0  0  0
  150.5574  142.4862  156.9680 N   0  0  0  0  0  0  0  0  0  0  0  0
  151.4808  142.3139  157.9721 C   0  0  0  0  0  0  0  0  0  0  0  0
  152.3536  143.2215  158.5999 C   0  0  0  0  0  0  0  0  0  0  0  0
  153.2052  142.7701  159.6217 C   0  0  0  0  0  0  0  0  0  0  0  0
  153.1736  141.4175  160.0033 C   0  0  0  0  0  0  0  0  0  0  0  0
  152.2966  140.5169  159.3660 C   0  0  0  0  0  0  0  0  0  0  0  0
  151.4202  140.9312  158.3271 C   0  0  0  0  0  0  0  0  0  0  0  0
  150.3449  143.3537  156.4967 H   0  0  0  0  0  0  0  0  0  0  0  0
  151.3002  137.7412  158.7035 H   0  0  0  0  0  0  0  0  0  0  0  0
  150.0201  138.5643  159.5529 H   0  0  0  0  0  0  0  0  0  0  0  0
  147.3847  133.5777  158.6463 H   0  0  0  0  0  0  0  0  0  0  0  0
  145.9668  135.9652  160.5457 H   0  0  0  0  0  0  0  0  0  0  0  0
  148.1771  135.8047  162.2908 H   0  0  0  0  0  0  0  0  0  0  0  0
  146.4800  135.8861  162.7616 H   0  0  0  0  0  0  0  0  0  0  0  0
  148.1245  133.3611  162.4042 H   0  0  0  0  0  0  0  0  0  0  0  0
  147.0314  133.7603  163.7320 H   0  0  0  0  0  0  0  0  0  0  0  0
  146.0909  132.2041  161.7441 H   0  0  0  0  0  0  0  0  0  0  0  0
  145.0840  133.5602  162.2683 H   0  0  0  0  0  0  0  0  0  0  0  0
  150.1403  140.4319  154.1234 H   0  0  0  0  0  0  0  0  0  0  0  0
  148.3841  140.4556  152.3708 H   0  0  0  0  0  0  0  0  0  0  0  0
  146.1175  141.3445  152.8871 H   0  0  0  0  0  0  0  0  0  0  0  0
  145.6144  142.2118  155.1656 H   0  0  0  0  0  0  0  0  0  0  0  0
  147.3682  142.1893  156.9203 H   0  0  0  0  0  0  0  0  0  0  0  0
  152.3683  144.2587  158.2998 H   0  0  0  0  0  0  0  0  0  0  0  0
  153.8788  143.4578  160.1117 H   0  0  0  0  0  0  0  0  0  0  0  0
  153.8254  141.0665  160.7899 H   0  0  0  0  0  0  0  0  0  0  0  0
  152.3096  139.4921  159.6977 H   0  0  0  0  0  0  0  0  0  0  0  0
  1  2  2  0  0  0  0
  2  3  1  0  0  0  0
  2 18  1  0  0  0  0
  3  4  1  0  0  0  0
  3 34  1  0  0  0  0
  3 35  1  0  0  0  0
  4 16  1  0  0  0  0
  4  5  1  0  0  0  0
  5  6  2  0  0  0  0
  5  7  1  0  0  0  0
  7  8  1  0  0  0  0
  7  9  2  0  0  0  0
  9 10  1  0  0  0  0
  9 36  1  0  0  0  0
 10 11  1  0  0  0  0
 10 16  1  0  0  0  0
 11 15  1  0  0  0  0
 11 12  1  0  0  0  0
 11 37  1  0  0  0  0
 12 13  1  0  0  0  0
 12 38  1  0  0  0  0
 12 39  1  0  0  0  0
 13 14  1  0  0  0  0
 13 40  1  0  0  0  0
 13 41  1  0  0  0  0
 14 15  1  0  0  0  0
 14 42  1  0  0  0  0
 14 43  1  0  0  0  0
 16 17  2  0  0  0  0
 18 32  1  0  0  0  0
 18 19  2  0  0  0  0
 19 20  1  0  0  0  0
 19 26  1  0  0  0  0
 20 25  1  0  0  0  0
 20 21  2  0  0  0  0
 21 22  1  0  0  0  0
 21 44  1  0  0  0  0
 22 23  2  0  0  0  0
 22 45  1  0  0  0  0
 23 24  1  0  0  0  0
 23 46  1  0  0  0  0
 24 25  2  0  0  0  0
 24 47  1  0  0  0  0
 25 48  1  0  0  0  0
 26 33  1  0  0  0  0
 26 27  1  0  0  0  0
 27 32  1  0  0  0  0
 27 28  2  0  0  0  0
 28 29  1  0  0  0  0
 28 49  1  0  0  0  0
 29 30  2  0  0  0  0
 29 50  1  0  0  0  0
 30 31  1  0  0  0  0
 30 51  1  0  0  0  0
 31 32  2  0  0  0  0
 31 52  1  0  0  0  0
M  END
> <s_m_source_file>
AV-unprocessed.smi

> <i_m_source_file_index>
124

> <i_lp_mmshare_version>
43012

> <i_f3d_flags>
0

> <s_epik_input>
W2NIXTFbY0hdW2NIXVtjSF1bY0hdYzEtYyhbbkhdMiljKGMoYzIzKVtjSF1bY0hdW2NIXVtjSF0zKUMoPU8pW0NIMl1uNGMoPU8pYyhGKVtjSF1uKGM0PU8pW0NAQEhdNVtDSDJdW0NIMl1bQ0gyXU81

> <s_epik_cmdline>
J2VwaWtfcHl0aG9uJywgJy1waCcsICc3LjAnLCAnLXRuJywgJzgnLCAnLW1hJywgJzIwMCcsICctbWV0YWxfYmluZGluZycsICctaW1hZScsICc8aW5maWxlLm1hZT4nLCAnLW9tYWUnLCAnPG91dGZpbGUubWFlPic=

> <r_lp_tautomer_probability>
1

> <r_epik_Ionization_Penalty>
1.43207e-08

> <r_epik_Ionization_Penalty_Charging>
5.01743e-09

> <r_epik_Ionization_Penalty_Neutral>
9.30329e-09

> <r_epik_State_Penalty>
-0

> <r_epik_Charging_Adjusted_Penalty>
5.01743e-09

> <i_epik_Tot_Q>
0

> <i_epik_Tot_abs_Q>
0

> <r_epik_Metal_State_Penalty>
-0

> <b_epik_Metal_Only>
0

> <s_epik_Chemistry_Notes>
This compound contains an acetal/aminal-like group ( X-CH(R)-Y where X, Y are N, S, or O) that may be acid/base labile, releasing an aldehyde.

> <s_lp_Force_Field>
OPLS_2005

> <r_lp_Energy>
48.315

> <b_lp_Chiralities_Consistent>
1

> <s_lp_Variant>
AV-unprocessed.smi:124-1

> <Gold.Version>
5.8.1

> <Gold.Id.Protein>
6NUR|6NUR_protein|mol2

> <Gold.PLP.Fitness>
57.6685

> <Gold.PLP.PLP>
-53.6941

> <Gold.PLP.part.hbond>
-2.8921

> <Gold.PLP.part.metal>
0.0000

> <Gold.PLP.part.buried>
-2.9250

> <Gold.PLP.part.nonpolar>
-47.9013

> <Gold.PLP.part.repulsive>
0.0148

> <Gold.PLP.ligand.clash>
0.0000

> <Gold.PLP.ligand.torsion>
1.9529

> <Gold.PLP.Chemscore.Hbond>
2.1040

> <Gold.PLP.Chemscore.CHOScore>
0.0000

> <Gold.PLP.Chemscore.Metal>
0.0000

> <Gold.Chemscore.Hbonds>
donor molecule, donor type, donor heavy atom, donor atom, acceptor molecule, acceptor atom, score
      L1  H    26    33       P1  8028  0.68
      P1  H  6931  6943       L1    17  0.61
      P1  H  6934  6947       L1    17  0.54

> <Gold.PLP.Chemscore.Internal.Correction>
1.5683

> <Gold.Rescore>
     Score         DG    S(hbond)    S(metal)    S(lipo)     H(rot)  DE(clash)    DE(int)     intcor
     17.65     -23.06       1.90        0.00     129.91       1.55       0.15       5.26       ----

> <Gold.Chemscore.Fitness>
17.6482

> <Gold.Chemscore.DG>
-23.0580

> <Gold.Chemscore.ZeroCoef>
-5.4800

> <Gold.Chemscore.Hbond>
1.9030

> <Gold.Chemscore.Metal>
0.0000

> <Gold.Chemscore.Lipo>
129.9089

> <Gold.Chemscore.Internal_Hbond>
0.0000

> <Gold.Chemscore.DEClash>
0.1540

> <Gold.Chemscore.DEInternal>
5.2557

> <Gold.Chemscore.Rot>
1.5537

> <Gold.Chemscore.Internal.Correction>
   9.000000E+99

> <Gold.Chemscore.Hbonds>
donor molecule, donor type, donor heavy atom, donor atom, acceptor molecule, acceptor atom, score
      L1  H    26    33       P1  8028  0.63
      P1  H  6931  6943       L1    17  0.62
      P1  H  6934  6947       L1    17  0.54

> <Gold.Chemscore.Hbond.Weighted>
-6.3561

> <Gold.Chemscore.Metal.Weighted>
-0.0000

> <Gold.Chemscore.Lipo.Weighted>
-15.1993

> <Gold.Chemscore.Internal_Hbond.Weighted>
0.0000

> <Gold.Chemscore.DEClash.Weighted>
0.1540

> <Gold.Chemscore.DEInternal.Weighted>
5.2557

> <Gold.Chemscore.Rot.Weighted>
3.9774

> <Gold.Chemscore.Internal.Correction.Weighted>
   9.000000E+99

> <Gold.Protein.RotatedTorsions>
[ 6907 6896 6895 6894 ] final -179.04 input  -60.11 | X-H torsion
[ 7974 7965 7964 7962 ] final  168.83 input  175.53 | X-H torsion
[ 8008 7997 7996 7995 ] final -139.69 input   59.86 | X-H torsion
[ 10167 10162 10161 10158 ] final -119.06 input  -65.29 | X-H torsion
[ 10718 10713 10712 10709 ] final  -45.84 input   66.30 | X-H torsion
[ 10763 10752 10751 10750 ] final   18.38 input  -60.55 | X-H torsion
[ 11005 11000 10999 10996 ] final -125.32 input  -57.11 | X-H torsion

> <Gold.Protein.ActiveResidues>
 VAL166  LYS551  ARG553  GLY616  TRP617  ASP618  TYR619  PRO620  LYS621  CYS622 
 ASP623  PHE694  ASN695  SER759  ASP760  ASP761  ALA762  ILE779  LEU786  VAL792 
 PHE793  MET794  SER795  GLU796  ALA797  LYS798  CYS799  TRP800  GLU811  SER814 

> <Gold.Protein.RotatedAtoms>
  151.6470  133.3323  159.3142 H   0  0  0  0  0  0  0  0  0  0  0  0  # atno 6907 bound_to 6896
  150.7979  134.7056  159.6584 H   0  0  0  0  0  0  0  0  0  0  0  0  # atno 6908 bound_to 6896
  152.4068  134.6196  160.0099 H   0  0  0  0  0  0  0  0  0  0  0  0  # atno 6909 bound_to 6896
  144.7375  139.8965  143.6406 H   0  0  0  0  0  0  0  0  0  0  0  0  # atno 7974 bound_to 7965
  155.4489  140.0537  157.3003 H   0  0  0  0  0  0  0  0  0  0  0  0  # atno 8008 bound_to 7997
  154.4785  140.2071  155.9775 H   0  0  0  0  0  0  0  0  0  0  0  0  # atno 8009 bound_to 7997
  156.1170  140.3194  155.8158 H   0  0  0  0  0  0  0  0  0  0  0  0  # atno 8010 bound_to 7997
  140.0507  143.5062  152.2083 H   0  0  0  0  0  0  0  0  0  0  0  0  # atno 10167 bound_to 10162
  156.2243  130.4168  149.8954 H   0  0  0  0  0  0  0  0  0  0  0  0  # atno 10718 bound_to 10713
  153.1254  135.6728  153.9265 H   0  0  0  0  0  0  0  0  0  0  0  0  # atno 10763 bound_to 10752
  153.8768  135.3063  155.3445 H   0  0  0  0  0  0  0  0  0  0  0  0  # atno 10764 bound_to 10752
  154.7660  135.4964  153.9636 H   0  0  0  0  0  0  0  0  0  0  0  0  # atno 10765 bound_to 10752
  140.9771  134.0724  157.3806 H   0  0  0  0  0  0  0  0  0  0  0  0  # atno 11005 bound_to 11000
  146.1103  139.4107  143.0292 LP  0  0  0  0  0  0  0  0  0  0  0  0  # atno 17320 bound_to 7965
  145.7452  140.9993  143.1279 LP  0  0  0  0  0  0  0  0  0  0  0  0  # atno 17321 bound_to 7965
  139.5955  144.7565  151.3298 LP  0  0  0  0  0  0  0  0  0  0  0  0  # atno 17342 bound_to 10162
  140.7218  143.7115  150.7766 LP  0  0  0  0  0  0  0  0  0  0  0  0  # atno 17343 bound_to 10162
  156.6590  130.8774  151.3544 LP  0  0  0  0  0  0  0  0  0  0  0  0  # atno 17370 bound_to 10713
  157.7102  130.9432  150.1065 LP  0  0  0  0  0  0  0  0  0  0  0  0  # atno 17371 bound_to 10713
  139.8935  135.0131  156.6902 LP  0  0  0  0  0  0  0  0  0  0  0  0  # atno 17394 bound_to 11000
  140.7242  133.9114  155.8167 LP  0  0  0  0  0  0  0  0  0  0  0  0  # atno 17395 bound_to 11000

$$$$
