AV-unprocessed.smi:3153|AV-procd|sdf|12019|dock5
  -GOLD-   2272017433D 1   1.00000     0.00000
 Structure written by MMmdl.
 38 39  0  0  0  0  0  0  0  0  2 V2000
  152.7196  144.3253  158.8304 O   0  0  0  0  0  0  0  0  0  0  0  0
  151.7429  143.5231  159.4719 C   0  0  0  0  0  0  0  0  0  0  0  0
  150.5053  143.4756  158.5479 C   0  0  0  0  0  0  0  0  0  0  0  0
  150.8505  143.1047  157.1589 N   0  3  0  0  0  0  0  0  0  0  0  0
  150.3964  141.7570  156.7663 C   0  0  0  0  0  0  0  0  0  0  0  0
  151.5872  140.8026  156.5896 C   0  0  0  0  0  0  0  0  0  0  0  0
  151.1862  139.5320  156.0157 N   0  0  0  0  0  0  0  0  0  0  0  0
  151.3330  138.2670  156.5455 C   0  0  0  0  0  0  0  0  0  0  0  0
  150.7943  137.3867  155.6515 C   0  0  0  0  0  0  0  0  0  0  0  0
  150.3281  138.2191  154.5959 C   0  0  0  0  0  0  0  0  0  0  0  0
  150.5597  139.5030  154.8192 N   0  0  0  0  0  0  0  0  0  0  0  0
  152.3271  142.0996  159.6376 C   0  0  0  0  0  0  0  0  0  0  0  0
  153.5029  142.0405  160.6289 C   0  0  0  0  0  0  0  0  0  0  0  0
  153.1107  142.6239  161.9929 C   0  0  0  0  0  0  0  0  0  0  0  0
  152.5870  144.0591  161.8448 C   0  0  0  0  0  0  0  0  0  0  0  0
  151.4076  144.1296  160.8579 C   0  0  0  0  0  0  0  0  0  0  0  0
  152.7488  145.1680  159.2579 H   0  0  0  0  0  0  0  0  0  0  0  0
  149.7767  142.7603  158.9330 H   0  0  0  0  0  0  0  0  0  0  0  0
  150.0139  144.4498  158.5377 H   0  0  0  0  0  0  0  0  0  0  0  0
  150.4349  143.7804  156.5338 H   0  0  0  0  0  0  0  0  0  0  0  0
  149.7164  141.3748  157.5291 H   0  0  0  0  0  0  0  0  0  0  0  0
  149.8320  141.8264  155.8354 H   0  0  0  0  0  0  0  0  0  0  0  0
  152.3390  141.2531  155.9402 H   0  0  0  0  0  0  0  0  0  0  0  0
  152.0703  140.6099  157.5487 H   0  0  0  0  0  0  0  0  0  0  0  0
  151.8045  138.0988  157.5027 H   0  0  0  0  0  0  0  0  0  0  0  0
  150.7381  136.3118  155.7398 H   0  0  0  0  0  0  0  0  0  0  0  0
  149.8301  137.9308  153.6818 H   0  0  0  0  0  0  0  0  0  0  0  0
  151.5431  141.4293  159.9928 H   0  0  0  0  0  0  0  0  0  0  0  0
  152.6440  141.7047  158.6713 H   0  0  0  0  0  0  0  0  0  0  0  0
  153.8327  141.0082  160.7494 H   0  0  0  0  0  0  0  0  0  0  0  0
  154.3556  142.5888  160.2271 H   0  0  0  0  0  0  0  0  0  0  0  0
  152.3444  141.9988  162.4534 H   0  0  0  0  0  0  0  0  0  0  0  0
  153.9692  142.6079  162.6652 H   0  0  0  0  0  0  0  0  0  0  0  0
  152.2783  144.4418  162.8181 H   0  0  0  0  0  0  0  0  0  0  0  0
  153.3940  144.7083  161.5031 H   0  0  0  0  0  0  0  0  0  0  0  0
  151.0888  145.1677  160.7572 H   0  0  0  0  0  0  0  0  0  0  0  0
  150.5607  143.5937  161.2888 H   0  0  0  0  0  0  0  0  0  0  0  0
  151.8548  143.1504  157.0596 H   0  0  0  0  0  0  0  0  0  0  0  0
  1  2  1  0  0  0  0
  1 17  1  0  0  0  0
  2 16  1  0  0  0  0
  2  3  1  0  0  0  0
  2 12  1  0  0  0  0
  3  4  1  0  0  0  0
  3 18  1  0  0  0  0
  3 19  1  0  0  0  0
  4  5  1  0  0  0  0
  4 20  1  0  0  0  0
  4 38  1  0  0  0  0
  5  6  1  0  0  0  0
  5 21  1  0  0  0  0
  5 22  1  0  0  0  0
  6  7  1  0  0  0  0
  6 23  1  0  0  0  0
  6 24  1  0  0  0  0
  7 11  1  0  0  0  0
  7  8  1  0  0  0  0
  8  9  2  0  0  0  0
  8 25  1  0  0  0  0
  9 10  1  0  0  0  0
  9 26  1  0  0  0  0
 10 11  2  0  0  0  0
 10 27  1  0  0  0  0
 12 13  1  0  0  0  0
 12 28  1  0  0  0  0
 12 29  1  0  0  0  0
 13 14  1  0  0  0  0
 13 30  1  0  0  0  0
 13 31  1  0  0  0  0
 14 15  1  0  0  0  0
 14 32  1  0  0  0  0
 14 33  1  0  0  0  0
 15 16  1  0  0  0  0
 15 34  1  0  0  0  0
 15 35  1  0  0  0  0
 16 36  1  0  0  0  0
 16 37  1  0  0  0  0
M  CHG  1   4   1
M  END
> <s_m_source_file>
AV-unprocessed.smi

> <i_m_source_file_index>
3153

> <i_lp_mmshare_version>
43012

> <i_f3d_flags>
0

> <s_epik_input>
W0NIMl0xW0NIMl1bQ0gyXVtDSDJdW0NIMl1DMShbT0hdKVtDSDJdW05IXVtDSDJdW0NIMl1uMltjSF1bY0hdW2NIXW4y

> <s_epik_cmdline>
J2VwaWtfcHl0aG9uJywgJy1waCcsICc3LjAnLCAnLXRuJywgJzgnLCAnLW1hJywgJzIwMCcsICctbWV0YWxfYmluZGluZycsICctaW1hZScsICc8aW5maWxlLm1hZT4nLCAnLW9tYWUnLCAnPG91dGZpbGUubWFlPic=

> <r_lp_tautomer_probability>
1

> <r_epik_Ionization_Penalty>
0.0240152

> <r_epik_Ionization_Penalty_Charging>
0.0240119

> <r_epik_Ionization_Penalty_Neutral>
3.38076e-06

> <r_epik_State_Penalty>
0.0194671

> <r_epik_Charging_Adjusted_Penalty>
0.043479

> <i_epik_Tot_Q>
1

> <i_epik_Tot_abs_Q>
1

> <r_epik_Metal_State_Penalty>
0.0195093

> <b_epik_Metal_Only>
0

> <s_lp_Force_Field>
OPLS_2005

> <r_lp_Energy>
15.7554

> <b_lp_Chiralities_Consistent>
1

> <s_lp_Variant>
AV-unprocessed.smi:3153-1

> <Gold.Version>
5.8.1

> <Gold.Id.Protein>
6NUR|6NUR_protein|mol2

> <Gold.PLP.Fitness>
51.4952

> <Gold.PLP.PLP>
-38.8049

> <Gold.PLP.part.hbond>
-2.0000

> <Gold.PLP.part.metal>
0.0000

> <Gold.PLP.part.buried>
-6.1581

> <Gold.PLP.part.nonpolar>
-30.8522

> <Gold.PLP.part.repulsive>
0.1476

> <Gold.PLP.ligand.clash>
0.0000

> <Gold.PLP.ligand.torsion>
0.7736

> <Gold.PLP.Chemscore.Hbond>
2.9840

> <Gold.PLP.Chemscore.CHOScore>
1.7460

> <Gold.PLP.Chemscore.Metal>
0.0000

> <Gold.Chemscore.Hbonds>
donor molecule, donor type, donor heavy atom, donor atom, acceptor molecule, acceptor atom, score
      L1  H     4    20       P1  8028  2.00
      P1  H  7989  7998       L1    11  0.62
      L1  C    10    27       P1  7948  0.82

> <Gold.PLP.Chemscore.Internal.Correction>
0.0475

> <Gold.Rescore>
     Score         DG    S(hbond)    S(metal)    S(lipo)     H(rot)  DE(clash)    DE(int)     intcor
     17.98     -18.80       1.96        0.00     107.38       2.26       0.13       0.69       ----

> <Gold.Chemscore.Fitness>
17.9768

> <Gold.Chemscore.DG>
-18.8023

> <Gold.Chemscore.ZeroCoef>
-5.4800

> <Gold.Chemscore.Hbond>
1.9594

> <Gold.Chemscore.Metal>
0.0000

> <Gold.Chemscore.Lipo>
107.3823

> <Gold.Chemscore.Internal_Hbond>
0.0000

> <Gold.Chemscore.DEClash>
0.1326

> <Gold.Chemscore.DEInternal>
0.6929

> <Gold.Chemscore.Rot>
2.2601

> <Gold.Chemscore.Internal.Correction>
   9.000000E+99

> <Gold.Chemscore.Hbonds>
donor molecule, donor type, donor heavy atom, donor atom, acceptor molecule, acceptor atom, score
      L1  H     4    20       P1  8028  0.94
      P1  H  7989  7998       L1    11  0.38

> <Gold.Chemscore.Hbond.Weighted>
-6.5444

> <Gold.Chemscore.Metal.Weighted>
-0.0000

> <Gold.Chemscore.Lipo.Weighted>
-12.5637

> <Gold.Chemscore.Internal_Hbond.Weighted>
0.0000

> <Gold.Chemscore.DEClash.Weighted>
0.1326

> <Gold.Chemscore.DEInternal.Weighted>
0.6929

> <Gold.Chemscore.Rot.Weighted>
5.7858

> <Gold.Chemscore.Internal.Correction.Weighted>
   9.000000E+99

> <Gold.Protein.RotatedTorsions>
[ 6907 6896 6895 6894 ] final  -34.96 input  -60.11 | X-H torsion
[ 7974 7965 7964 7962 ] final  161.22 input  175.53 | X-H torsion
[ 8008 7997 7996 7995 ] final   83.60 input   59.86 | X-H torsion
[ 10167 10162 10161 10158 ] final  158.86 input  -65.29 | X-H torsion
[ 10718 10713 10712 10709 ] final   13.96 input   66.30 | X-H torsion
[ 10763 10752 10751 10750 ] final  -98.02 input  -60.55 | X-H torsion
[ 11005 11000 10999 10996 ] final   56.53 input  -57.11 | X-H torsion

> <Gold.Protein.ActiveResidues>
 VAL166  LYS551  ARG553  GLY616  TRP617  ASP618  TYR619  PRO620  LYS621  CYS622 
 ASP623  PHE694  ASN695  SER759  ASP760  ASP761  ALA762  ILE779  LEU786  VAL792 
 PHE793  MET794  SER795  GLU796  ALA797  LYS798  CYS799  TRP800  GLU811  SER814 

> <Gold.Protein.RotatedAtoms>
  151.0459  134.9639  159.8185 H   0  0  0  0  0  0  0  0  0  0  0  0  # atno 6907 bound_to 6896
  152.5372  134.2599  159.8941 H   0  0  0  0  0  0  0  0  0  0  0  0  # atno 6908 bound_to 6896
  151.2613  133.4258  159.2650 H   0  0  0  0  0  0  0  0  0  0  0  0  # atno 6909 bound_to 6896
  144.7696  139.7868  143.6302 H   0  0  0  0  0  0  0  0  0  0  0  0  # atno 7974 bound_to 7965
  155.9261  140.3418  155.6211 H   0  0  0  0  0  0  0  0  0  0  0  0  # atno 8008 bound_to 7997
  155.7214  140.0784  157.2347 H   0  0  0  0  0  0  0  0  0  0  0  0  # atno 8009 bound_to 7997
  154.4077  140.1604  156.2394 H   0  0  0  0  0  0  0  0  0  0  0  0  # atno 8010 bound_to 7997
  139.4829  144.4785  151.8477 H   0  0  0  0  0  0  0  0  0  0  0  0  # atno 10167 bound_to 10162
  157.0321  130.6197  149.5737 H   0  0  0  0  0  0  0  0  0  0  0  0  # atno 10718 bound_to 10713
  154.7378  135.5025  153.9072 H   0  0  0  0  0  0  0  0  0  0  0  0  # atno 10763 bound_to 10752
  153.1013  135.6686  153.9676 H   0  0  0  0  0  0  0  0  0  0  0  0  # atno 10764 bound_to 10752
  153.9461  135.3062  155.3420 H   0  0  0  0  0  0  0  0  0  0  0  0  # atno 10765 bound_to 10752
  140.0522  134.5721  155.9250 H   0  0  0  0  0  0  0  0  0  0  0  0  # atno 11005 bound_to 11000
  146.1833  139.5036  142.9852 LP  0  0  0  0  0  0  0  0  0  0  0  0  # atno 17320 bound_to 7965
  145.6363  141.0294  143.1836 LP  0  0  0  0  0  0  0  0  0  0  0  0  # atno 17321 bound_to 7965
  140.4259  144.2181  150.5887 LP  0  0  0  0  0  0  0  0  0  0  0  0  # atno 17342 bound_to 10162
  140.4827  143.2373  151.8932 LP  0  0  0  0  0  0  0  0  0  0  0  0  # atno 17343 bound_to 10162
  156.0066  130.5153  150.7849 LP  0  0  0  0  0  0  0  0  0  0  0  0  # atno 17370 bound_to 10713
  157.5169  131.0929  151.0128 LP  0  0  0  0  0  0  0  0  0  0  0  0  # atno 17371 bound_to 10713
  141.1935  133.6579  156.5553 LP  0  0  0  0  0  0  0  0  0  0  0  0  # atno 17394 bound_to 11000
  140.3900  134.7449  157.4715 LP  0  0  0  0  0  0  0  0  0  0  0  0  # atno 17395 bound_to 11000

$$$$
