AV-unprocessed.smi:308|AV-procd|sdf|2289|dock2
  -GOLD-   2262022193D 1   1.00000     0.00000
 Structure written by MMmdl.
 50 51  0  0  0  0  0  0  0  0  4 V2000
  144.1445  135.7384  151.0716 C   0  0  0  0  0  0  0  0  0  0  0  0
  145.1541  136.5717  151.8737 C   0  0  2  0  0  0  0  0  0  0  0  0
  144.5451  137.0934  153.1863 C   0  0  0  0  0  0  0  0  0  0  0  0
  145.5532  137.9532  153.9661 C   0  0  0  0  0  0  0  0  0  0  0  0
  146.0429  139.0861  153.1347 N   0  3  1  0  0  0  0  0  0  0  0  0
  146.8914  140.0544  153.8805 C   0  0  0  0  0  0  0  0  0  0  0  0
  147.7706  140.9004  152.9349 C   0  0  0  0  0  0  0  0  0  0  0  0
  148.7103  141.7219  153.7036 N   0  5  0  0  0  0  0  0  0  0  0  0
  149.5945  141.2440  154.6203 C   0  0  0  0  0  0  0  0  0  0  0  0
  150.1565  140.1433  154.6194 O   0  0  0  0  0  0  0  0  0  0  0  0
  149.8200  142.1264  155.6100 N   0  0  0  0  0  0  0  0  0  0  0  0
  150.6614  142.0100  156.7497 C   0  0  0  0  0  0  0  0  0  0  0  0
  151.0116  140.7120  157.1737 C   0  0  0  0  0  0  0  0  0  0  0  0
  151.8295  140.5406  158.3089 C   0  0  0  0  0  0  0  0  0  0  0  0
  152.2879  141.6739  159.0244 C   0  0  0  0  0  0  0  0  0  0  0  0
  153.1094  141.5845  160.1690 N   0  0  0  0  0  0  0  0  0  0  0  0
  153.1926  142.7132  161.0890 C   0  0  0  0  0  0  0  0  0  0  0  0
  153.9663  140.4209  160.3551 C   0  0  0  0  0  0  0  0  0  0  0  0
  151.9117  142.9009  158.5877 N   0  3  0  0  0  0  0  0  0  0  0  0
  151.1310  143.1100  157.5055 C   0  0  0  0  0  0  0  0  0  0  0  0
  146.6735  138.6100  151.8770 C   0  0  0  0  0  0  0  0  0  0  0  0
  145.6914  137.7583  151.0549 C   0  0  0  0  0  0  0  0  0  0  0  0
  143.2778  136.3338  150.7825 H   0  0  0  0  0  0  0  0  0  0  0  0
  143.7854  134.8894  151.6542 H   0  0  0  0  0  0  0  0  0  0  0  0
  144.5964  135.3446  150.1608 H   0  0  0  0  0  0  0  0  0  0  0  0
  145.9948  135.9228  152.1242 H   0  0  0  0  0  0  0  0  0  0  0  0
  143.6529  137.6843  152.9734 H   0  0  0  0  0  0  0  0  0  0  0  0
  144.2206  136.2569  153.8064 H   0  0  0  0  0  0  0  0  0  0  0  0
  145.0765  138.3322  154.8706 H   0  0  0  0  0  0  0  0  0  0  0  0
  146.3990  137.3430  154.2868 H   0  0  0  0  0  0  0  0  0  0  0  0
  146.2679  140.7019  154.4984 H   0  0  0  0  0  0  0  0  0  0  0  0
  147.5443  139.5273  154.5780 H   0  0  0  0  0  0  0  0  0  0  0  0
  148.3036  140.2294  152.2613 H   0  0  0  0  0  0  0  0  0  0  0  0
  147.1274  141.5024  152.2923 H   0  0  0  0  0  0  0  0  0  0  0  0
  149.2572  142.9637  155.5715 H   0  0  0  0  0  0  0  0  0  0  0  0
  150.6607  139.8472  156.6294 H   0  0  0  0  0  0  0  0  0  0  0  0
  152.0908  139.5380  158.6116 H   0  0  0  0  0  0  0  0  0  0  0  0
  152.2097  142.9485  161.4981 H   0  0  0  0  0  0  0  0  0  0  0  0
  153.5768  143.5959  160.5772 H   0  0  0  0  0  0  0  0  0  0  0  0
  153.8570  142.4951  161.9252 H   0  0  0  0  0  0  0  0  0  0  0  0
  154.6732  140.3295  159.5297 H   0  0  0  0  0  0  0  0  0  0  0  0
  153.3697  139.5097  160.4069 H   0  0  0  0  0  0  0  0  0  0  0  0
  154.5391  140.4938  161.2797 H   0  0  0  0  0  0  0  0  0  0  0  0
  150.9077  144.1464  157.3015 H   0  0  0  0  0  0  0  0  0  0  0  0
  146.9880  139.4663  151.2784 H   0  0  0  0  0  0  0  0  0  0  0  0
  147.5714  138.0364  152.1119 H   0  0  0  0  0  0  0  0  0  0  0  0
  146.1866  137.3973  150.1529 H   0  0  0  0  0  0  0  0  0  0  0  0
  144.8619  138.3842  150.7221 H   0  0  0  0  0  0  0  0  0  0  0  0
  145.2311  139.6182  152.8524 H   0  0  0  0  0  0  0  0  0  0  0  0
  152.2344  143.7168  159.1077 H   0  0  0  0  0  0  0  0  0  0  0  0
  1  2  1  0  0  0  0
  1 23  1  0  0  0  0
  1 24  1  0  0  0  0
  1 25  1  0  0  0  0
  2 22  1  0  0  0  0
  2  3  1  0  0  0  0
  2 26  1  0  0  0  0
  3  4  1  0  0  0  0
  3 27  1  0  0  0  0
  3 28  1  0  0  0  0
  4  5  1  0  0  0  0
  4 29  1  0  0  0  0
  4 30  1  0  0  0  0
  5  6  1  0  0  0  0
  5 21  1  0  0  0  0
  5 49  1  0  0  0  0
  6  7  1  0  0  0  0
  6 31  1  0  0  0  0
  6 32  1  0  0  0  0
  7  8  1  0  0  0  0
  7 33  1  0  0  0  0
  7 34  1  0  0  0  0
  8  9  1  0  0  0  0
  9 10  2  0  0  0  0
  9 11  1  0  0  0  0
 11 12  1  0  0  0  0
 11 35  1  0  0  0  0
 12 20  1  0  0  0  0
 12 13  2  0  0  0  0
 13 14  1  0  0  0  0
 13 36  1  0  0  0  0
 14 15  2  0  0  0  0
 14 37  1  0  0  0  0
 15 16  1  0  0  0  0
 15 19  1  0  0  0  0
 16 17  1  0  0  0  0
 16 18  1  0  0  0  0
 17 38  1  0  0  0  0
 17 39  1  0  0  0  0
 17 40  1  0  0  0  0
 18 41  1  0  0  0  0
 18 42  1  0  0  0  0
 18 43  1  0  0  0  0
 19 20  2  0  0  0  0
 19 50  1  0  0  0  0
 20 44  1  0  0  0  0
 21 22  1  0  0  0  0
 21 45  1  0  0  0  0
 21 46  1  0  0  0  0
 22 47  1  0  0  0  0
 22 48  1  0  0  0  0
M  CHG  1   5   1
M  CHG  1   8  -1
M  CHG  1  19   1
M  END
> <s_m_source_file>
AV-unprocessed.smi

> <i_m_source_file_index>
308

> <i_lp_mmshare_version>
43012

> <i_f3d_flags>
0

> <s_epik_input>
W0NIM11bQ0hdMVtDSDJdW0NIMl1OKFtDSDJdW0NIMl0xKVtDSDJdW0NIMl1bTkhdQyg9TylbTkhdYzJbY0hdW2NIXWMoTihbQ0gzXSlbQ0gzXSluW2NIXTI=

> <s_epik_cmdline>
J2VwaWtfcHl0aG9uJywgJy1waCcsICc3LjAnLCAnLXRuJywgJzgnLCAnLW1hJywgJzIwMCcsICctbWV0YWxfYmluZGluZycsICctaW1hZScsICc8aW5maWxlLm1hZT4nLCAnLW9tYWUnLCAnPG91dGZpbGUubWFlPic=

> <r_lp_tautomer_probability>
0.999994

> <r_epik_Ionization_Penalty>
7.42107

> <r_epik_Ionization_Penalty_Charging>
7.42107

> <r_epik_Ionization_Penalty_Neutral>
3.68925e-06

> <r_epik_State_Penalty>
7.0982

> <r_epik_Charging_Adjusted_Penalty>
14.5193

> <i_epik_Tot_Q>
1

> <i_epik_Tot_abs_Q>
3

> <r_epik_Metal_State_Penalty>
3.28646

> <b_epik_Metal_Only>
1

> <s_lp_Force_Field>
OPLS_2005

> <r_lp_Energy>
19.707

> <b_lp_Chiralities_Consistent>
1

> <s_lp_Variant>
AV-unprocessed.smi:308-5

> <Gold.Version>
5.8.1

> <Gold.Id.Protein>
6NUR|6NUR_protein|mol2

> <Gold.PLP.Fitness>
54.3911

> <Gold.PLP.PLP>
-42.4858

> <Gold.PLP.part.hbond>
-4.0000

> <Gold.PLP.part.metal>
0.0000

> <Gold.PLP.part.buried>
2.6751

> <Gold.PLP.part.nonpolar>
-41.1970

> <Gold.PLP.part.repulsive>
0.4658

> <Gold.PLP.ligand.clash>
0.0000

> <Gold.PLP.ligand.torsion>
0.8114

> <Gold.PLP.Chemscore.Hbond>
4.4206

> <Gold.PLP.Chemscore.CHOScore>
0.0000

> <Gold.PLP.Chemscore.Metal>
0.0000

> <Gold.Chemscore.Hbonds>
donor molecule, donor type, donor heavy atom, donor atom, acceptor molecule, acceptor atom, score
      L1  H     5    49       P1 10175  2.00
      L1  H    11    35       P1  8028  1.00
      P1  H  7989  7998       L1    10  0.50
      P1  H  8011  8017       L1     8  0.61

> <Gold.PLP.Chemscore.Internal.Correction>
0.2662

> <Gold.Rescore>
     Score         DG    S(hbond)    S(metal)    S(lipo)     H(rot)  DE(clash)    DE(int)     intcor
     16.93     -21.08       2.36        0.00      97.23       1.42       2.07       2.08       ----

> <Gold.Chemscore.Fitness>
16.9309

> <Gold.Chemscore.DG>
-21.0807

> <Gold.Chemscore.ZeroCoef>
-5.4800

> <Gold.Chemscore.Hbond>
2.3564

> <Gold.Chemscore.Metal>
0.0000

> <Gold.Chemscore.Lipo>
97.2312

> <Gold.Chemscore.Internal_Hbond>
0.0000

> <Gold.Chemscore.DEClash>
2.0736

> <Gold.Chemscore.DEInternal>
2.0763

> <Gold.Chemscore.Rot>
1.4241

> <Gold.Chemscore.Internal.Correction>
   9.000000E+99

> <Gold.Chemscore.Hbonds>
donor molecule, donor type, donor heavy atom, donor atom, acceptor molecule, acceptor atom, score
      L1  H     5    49       P1 10175  1.00
      L1  H    11    35       P1  8028  0.99
      P1  H  7989  7998       L1    10  0.02
      P1  H  8011  8017       L1     8  0.09

> <Gold.Chemscore.Hbond.Weighted>
-7.8703

> <Gold.Chemscore.Metal.Weighted>
-0.0000

> <Gold.Chemscore.Lipo.Weighted>
-11.3761

> <Gold.Chemscore.Internal_Hbond.Weighted>
0.0000

> <Gold.Chemscore.DEClash.Weighted>
2.0736

> <Gold.Chemscore.DEInternal.Weighted>
2.0763

> <Gold.Chemscore.Rot.Weighted>
3.6456

> <Gold.Chemscore.Internal.Correction.Weighted>
   9.000000E+99

> <Gold.Protein.RotatedTorsions>
[ 6907 6896 6895 6894 ] final    1.48 input  -60.11 | X-H torsion
[ 7974 7965 7964 7962 ] final  -38.93 input  175.53 | X-H torsion
[ 8008 7997 7996 7995 ] final  -40.25 input   59.86 | X-H torsion
[ 10167 10162 10161 10158 ] final  146.23 input  -65.29 | X-H torsion
[ 10718 10713 10712 10709 ] final -112.34 input   66.30 | X-H torsion
[ 10763 10752 10751 10750 ] final  -62.98 input  -60.55 | X-H torsion
[ 11005 11000 10999 10996 ] final    2.71 input  -57.11 | X-H torsion

> <Gold.Protein.ActiveResidues>
 VAL166  LYS551  ARG553  GLY616  TRP617  ASP618  TYR619  PRO620  LYS621  CYS622 
 ASP623  PHE694  ASN695  SER759  ASP760  ASP761  ALA762  ILE779  LEU786  VAL792 
 PHE793  MET794  SER795  GLU796  ALA797  LYS798  CYS799  TRP800  GLU811  SER814 

> <Gold.Protein.RotatedAtoms>
  151.5933  135.1052  160.0043 H   0  0  0  0  0  0  0  0  0  0  0  0  # atno 6907 bound_to 6896
  152.4295  133.7249  159.6565 H   0  0  0  0  0  0  0  0  0  0  0  0  # atno 6908 bound_to 6896
  150.8186  133.8221  159.3171 H   0  0  0  0  0  0  0  0  0  0  0  0  # atno 6909 bound_to 6896
  146.0442  140.6568  142.9073 H   0  0  0  0  0  0  0  0  0  0  0  0  # atno 7974 bound_to 7965
  154.4014  140.1530  156.2996 H   0  0  0  0  0  0  0  0  0  0  0  0  # atno 8008 bound_to 7997
  155.8712  140.3448  155.5801 H   0  0  0  0  0  0  0  0  0  0  0  0  # atno 8009 bound_to 7997
  155.7772  140.0838  157.2068 H   0  0  0  0  0  0  0  0  0  0  0  0  # atno 8010 bound_to 7997
  139.4911  144.5845  151.6806 H   0  0  0  0  0  0  0  0  0  0  0  0  # atno 10167 bound_to 10162
  156.0700  130.5915  150.8496 H   0  0  0  0  0  0  0  0  0  0  0  0  # atno 10718 bound_to 10713
  154.3081  135.6221  153.5453 H   0  0  0  0  0  0  0  0  0  0  0  0  # atno 10763 bound_to 10752
  152.9832  135.5694  154.5208 H   0  0  0  0  0  0  0  0  0  0  0  0  # atno 10764 bound_to 10752
  154.4852  135.2865  155.1516 H   0  0  0  0  0  0  0  0  0  0  0  0  # atno 10765 bound_to 10752
  140.6012  133.9834  155.8133 H   0  0  0  0  0  0  0  0  0  0  0  0  # atno 11005 bound_to 11000
  144.7089  140.3963  143.7096 LP  0  0  0  0  0  0  0  0  0  0  0  0  # atno 17320 bound_to 7965
  145.6834  139.1623  143.2688 LP  0  0  0  0  0  0  0  0  0  0  0  0  # atno 17321 bound_to 7965
  140.5458  144.0506  150.6106 LP  0  0  0  0  0  0  0  0  0  0  0  0  # atno 17342 bound_to 10162
  140.3543  143.2944  152.0453 LP  0  0  0  0  0  0  0  0  0  0  0  0  # atno 17343 bound_to 10162
  157.5765  131.0946  150.9337 LP  0  0  0  0  0  0  0  0  0  0  0  0  # atno 17370 bound_to 10713
  156.9542  130.5431  149.5283 LP  0  0  0  0  0  0  0  0  0  0  0  0  # atno 17371 bound_to 10713
  141.0871  133.9974  157.3296 LP  0  0  0  0  0  0  0  0  0  0  0  0  # atno 17394 bound_to 11000
  139.9231  135.0201  156.8138 LP  0  0  0  0  0  0  0  0  0  0  0  0  # atno 17395 bound_to 11000

$$$$
