AV-unprocessed.smi:54|AV-procd|sdf|560|dock9
  -GOLD-   2262016463D 1   1.00000     0.00000
 Structure written by MMmdl.
 43 45  0  0  0  0  0  0  0  0  2 V2000
  145.2973  136.0968  160.0293 C   0  0  0  0  0  0  0  0  0  0  0  0
  146.6185  135.3127  160.0883 C   0  0  0  0  0  0  0  0  0  0  0  0
  146.7009  134.4520  161.3597 C   0  0  0  0  0  0  0  0  0  0  0  0
  147.8198  136.2643  159.9965 C   0  0  0  0  0  0  0  0  0  0  0  0
  148.0422  137.0421  160.9269 O   0  0  0  0  0  0  0  0  0  0  0  0
  148.5426  136.1708  158.8587 N   0  0  0  0  0  0  0  0  0  0  0  0
  149.6658  136.9057  158.4636 C   0  0  0  0  0  0  0  0  0  0  0  0
  149.4589  137.6151  157.3815 N   0  0  0  0  0  0  0  0  0  0  0  0
  150.5738  138.3299  156.9883 C   0  0  0  0  0  0  0  0  0  0  0  0
  151.8047  138.3494  157.5857 C   0  0  0  0  0  0  0  0  0  0  0  0
  152.6858  139.1836  156.9089 N   0  0  0  0  0  0  0  0  0  0  0  0
  151.9281  139.6393  155.9129 C   0  0  0  0  0  0  0  0  0  0  0  0
  150.6604  139.1827  155.8902 N   0  0  0  0  0  0  0  0  0  0  0  0
  149.6108  139.5396  154.8850 C   0  0  1  0  0  0  0  0  0  0  0  0
  148.3935  139.0165  155.3247 O   0  0  0  0  0  0  0  0  0  0  0  0
  147.3723  140.0021  155.2288 C   0  0  1  0  0  0  0  0  0  0  0  0
  146.2796  139.6978  156.2663 C   0  0  0  0  0  0  0  0  0  0  0  0
  145.3043  140.7188  156.2800 O   0  0  0  0  0  0  0  0  0  0  0  0
  148.1202  141.3194  155.4487 C   0  0  2  0  0  0  0  0  0  0  0  0
  147.4296  142.4379  154.9236 O   0  0  0  0  0  0  0  0  0  0  0  0
  149.4646  141.0658  154.7703 C   0  0  2  0  0  0  0  0  0  0  0  0
  149.4698  141.4670  153.4119 O   0  0  0  0  0  0  0  0  0  0  0  0
  151.9764  137.5130  158.7972 C   0  0  0  0  0  0  0  0  0  0  0  0
  153.0669  137.4983  159.3648 O   0  0  0  0  0  0  0  0  0  0  0  0
  150.8713  136.8095  159.1863 N   0  5  0  0  0  0  0  0  0  0  0  0
  149.9340  139.0559  153.9619 H   0  0  0  0  0  0  0  0  0  0  0  0
  146.9681  139.9584  154.2154 H   0  0  0  0  0  0  0  0  0  0  0  0
  148.2794  141.4822  156.5145 H   0  0  0  0  0  0  0  0  0  0  0  0
  150.2791  141.5786  155.2843 H   0  0  0  0  0  0  0  0  0  0  0  0
  145.2436  136.7153  159.1325 H   0  0  0  0  0  0  0  0  0  0  0  0
  145.1802  136.7518  160.8935 H   0  0  0  0  0  0  0  0  0  0  0  0
  144.4433  135.4194  160.0105 H   0  0  0  0  0  0  0  0  0  0  0  0
  146.6451  134.6403  159.2290 H   0  0  0  0  0  0  0  0  0  0  0  0
  147.6417  133.9020  161.4054 H   0  0  0  0  0  0  0  0  0  0  0  0
  145.8933  133.7202  161.3879 H   0  0  0  0  0  0  0  0  0  0  0  0
  146.6265  135.0601  162.2621 H   0  0  0  0  0  0  0  0  0  0  0  0
  148.1736  135.5251  158.1768 H   0  0  0  0  0  0  0  0  0  0  0  0
  152.3074  140.3315  155.1757 H   0  0  0  0  0  0  0  0  0  0  0  0
  145.7845  138.7583  156.0200 H   0  0  0  0  0  0  0  0  0  0  0  0
  146.7055  139.5843  157.2637 H   0  0  0  0  0  0  0  0  0  0  0  0
  145.1399  140.9638  157.1779 H   0  0  0  0  0  0  0  0  0  0  0  0
  147.9252  143.2155  155.1309 H   0  0  0  0  0  0  0  0  0  0  0  0
  149.3324  140.7018  152.8747 H   0  0  0  0  0  0  0  0  0  0  0  0
  1  2  1  0  0  0  0
  1 30  1  0  0  0  0
  1 31  1  0  0  0  0
  1 32  1  0  0  0  0
  2  3  1  0  0  0  0
  2  4  1  0  0  0  0
  2 33  1  0  0  0  0
  3 34  1  0  0  0  0
  3 35  1  0  0  0  0
  3 36  1  0  0  0  0
  4  5  2  0  0  0  0
  4  6  1  0  0  0  0
  6 37  1  0  0  0  0
  6  7  1  0  0  0  0
  7 25  1  0  0  0  0
  7  8  2  0  0  0  0
  8  9  1  0  0  0  0
  9 13  1  0  0  0  0
  9 10  2  0  0  0  0
 10 11  1  0  0  0  0
 10 23  1  0  0  0  0
 11 12  2  0  0  0  0
 12 13  1  0  0  0  0
 12 38  1  0  0  0  0
 13 14  1  0  0  0  0
 14 26  1  0  0  0  0
 14 21  1  0  0  0  0
 14 15  1  0  0  0  0
 15 16  1  0  0  0  0
 16 27  1  0  0  0  0
 16 17  1  0  0  0  0
 16 19  1  0  0  0  0
 17 18  1  0  0  0  0
 17 39  1  0  0  0  0
 17 40  1  0  0  0  0
 18 41  1  0  0  0  0
 19 28  1  0  0  0  0
 19 20  1  0  0  0  0
 19 21  1  0  0  0  0
 20 42  1  0  0  0  0
 21 29  1  0  0  0  0
 21 22  1  0  0  0  0
 22 43  1  0  0  0  0
 23 24  2  0  0  0  0
 23 25  1  0  0  0  0
M  CHG  1  25  -1
M  END
> <s_m_source_file>
AV-unprocessed.smi

> <i_m_source_file_index>
54

> <i_lp_mmshare_version>
43012

> <i_f3d_flags>
0

> <s_epik_input>
W0NIM11bQ0hdKFtDSDNdKUMoPU8pW05IXWMobjEpW25IXWMoPU8pYyhjMTIpbltjSF1uMltDQEBIXTNPW0NASF0oW0NIMl1bT0hdKVtDQEBIXShbT0hdKVtDQEhdM1tPSF0=

> <s_epik_cmdline>
J2VwaWtfcHl0aG9uJywgJy1waCcsICc3LjAnLCAnLXRuJywgJzgnLCAnLW1hJywgJzIwMCcsICctbWV0YWxfYmluZGluZycsICctaW1hZScsICc8aW5maWxlLm1hZT4nLCAnLW9tYWUnLCAnPG91dGZpbGUubWFlPic=

> <r_lp_tautomer_probability>
0.85571

> <r_epik_Ionization_Penalty>
1.75936

> <r_epik_Ionization_Penalty_Charging>
4.55893e-11

> <r_epik_Ionization_Penalty_Neutral>
1.75936

> <r_epik_State_Penalty>
1.72072

> <r_epik_Charging_Adjusted_Penalty>
1.72072

> <i_epik_Tot_Q>
-1

> <i_epik_Tot_abs_Q>
1

> <r_epik_Metal_State_Penalty>
0.400338

> <b_epik_Metal_Only>
1

> <s_epik_Chemistry_Notes>
This compound contains an acetal/aminal-like group ( X-CH(R)-Y where X, Y are N, S, or O) that may be acid/base labile, releasing an aldehyde.

> <s_lp_Force_Field>
OPLS_2005

> <r_lp_Energy>
61.5682

> <b_lp_Chiralities_Consistent>
1

> <s_lp_Variant>
AV-unprocessed.smi:54-32

> <Gold.Version>
5.8.1

> <Gold.Id.Protein>
6NUR|6NUR_protein|mol2

> <Gold.PLP.Fitness>
49.0842

> <Gold.PLP.PLP>
-28.7537

> <Gold.PLP.part.hbond>
-7.8172

> <Gold.PLP.part.metal>
0.0000

> <Gold.PLP.part.buried>
-3.3164

> <Gold.PLP.part.nonpolar>
-17.4706

> <Gold.PLP.part.repulsive>
0.1851

> <Gold.PLP.ligand.clash>
0.0000

> <Gold.PLP.ligand.torsion>
0.8075

> <Gold.PLP.Chemscore.Hbond>
7.3038

> <Gold.PLP.Chemscore.CHOScore>
0.0000

> <Gold.PLP.Chemscore.Metal>
0.0000

> <Gold.Chemscore.Hbonds>
donor molecule, donor type, donor heavy atom, donor atom, acceptor molecule, acceptor atom, score
      L1  H    20    42       P1  8028  1.00
      L1  H    22    43       P1  7957  0.83
      P1  H  6896  6908       L1    25  2.00
      P1  H  6931  6943       L1     5  0.99
      P1  H  6934  6947       L1     5  0.53
      P1  H  7997  8009       L1    11  0.90
      P1  H  8011  8017       L1    22  0.71

> <Gold.PLP.Chemscore.Internal.Correction>
0.0343

> <Gold.Rescore>
     Score         DG    S(hbond)    S(metal)    S(lipo)     H(rot)  DE(clash)    DE(int)     intcor
     13.94     -16.65       5.28        0.00      32.60       4.02       0.02       2.68       ----

> <Gold.Chemscore.Fitness>
13.9414

> <Gold.Chemscore.DG>
-16.6456

> <Gold.Chemscore.ZeroCoef>
-5.4800

> <Gold.Chemscore.Hbond>
5.2817

> <Gold.Chemscore.Metal>
0.0000

> <Gold.Chemscore.Lipo>
32.5987

> <Gold.Chemscore.Internal_Hbond>
0.0000

> <Gold.Chemscore.DEClash>
0.0210

> <Gold.Chemscore.DEInternal>
2.6832

> <Gold.Chemscore.Rot>
4.0192

> <Gold.Chemscore.Internal.Correction>
   9.000000E+99

> <Gold.Chemscore.Hbonds>
donor molecule, donor type, donor heavy atom, donor atom, acceptor molecule, acceptor atom, score
      L1  H    20    42       P1  8028  0.74
      L1  H    22    43       P1  7957  0.83
      P1  H  6896  6908       L1    25  0.56
      P1  H  6931  6943       L1     5  0.93
      P1  H  6934  6947       L1     5  0.51
      P1  H  7997  8009       L1    11  0.18
      P1  H  8011  8017       L1    22  0.13

> <Gold.Chemscore.Hbond.Weighted>
-17.6408

> <Gold.Chemscore.Metal.Weighted>
-0.0000

> <Gold.Chemscore.Lipo.Weighted>
-3.8140

> <Gold.Chemscore.Internal_Hbond.Weighted>
0.0000

> <Gold.Chemscore.DEClash.Weighted>
0.0210

> <Gold.Chemscore.DEInternal.Weighted>
2.6832

> <Gold.Chemscore.Rot.Weighted>
10.2893

> <Gold.Chemscore.Internal.Correction.Weighted>
   9.000000E+99

> <Gold.Protein.RotatedTorsions>
[ 6907 6896 6895 6894 ] final -158.04 input  -60.11 | X-H torsion
[ 7974 7965 7964 7962 ] final   -3.85 input  175.53 | X-H torsion
[ 8008 7997 7996 7995 ] final -166.17 input   59.86 | X-H torsion
[ 10167 10162 10161 10158 ] final   18.28 input  -65.29 | X-H torsion
[ 10718 10713 10712 10709 ] final -128.70 input   66.30 | X-H torsion
[ 10763 10752 10751 10750 ] final    5.75 input  -60.55 | X-H torsion
[ 11005 11000 10999 10996 ] final -116.61 input  -57.11 | X-H torsion

> <Gold.Protein.ActiveResidues>
 VAL166  LYS551  ARG553  GLY616  TRP617  ASP618  TYR619  PRO620  LYS621  CYS622 
 ASP623  PHE694  ASN695  SER759  ASP760  ASP761  ALA762  ILE779  LEU786  VAL792 
 PHE793  MET794  SER795  GLU796  ALA797  LYS798  CYS799  TRP800  GLU811  SER814 

> <Gold.Protein.RotatedAtoms>
  151.3121  133.4076  159.2647 H   0  0  0  0  0  0  0  0  0  0  0  0  # atno 6907 bound_to 6896
  151.0105  134.9394  159.8015 H   0  0  0  0  0  0  0  0  0  0  0  0  # atno 6908 bound_to 6896
  152.5299  134.3085  159.9157 H   0  0  0  0  0  0  0  0  0  0  0  0  # atno 6909 bound_to 6896
  146.2382  140.1783  142.8332 H   0  0  0  0  0  0  0  0  0  0  0  0  # atno 7974 bound_to 7965
  155.8600  140.0976  157.1619 H   0  0  0  0  0  0  0  0  0  0  0  0  # atno 8008 bound_to 7997
  154.3990  140.1367  156.4012 H   0  0  0  0  0  0  0  0  0  0  0  0  # atno 8009 bound_to 7997
  155.7867  140.3457  155.5329 H   0  0  0  0  0  0  0  0  0  0  0  0  # atno 8010 bound_to 7997
  140.5665  143.9242  150.6680 H   0  0  0  0  0  0  0  0  0  0  0  0  # atno 10167 bound_to 10162
  156.1976  130.6836  151.0500 H   0  0  0  0  0  0  0  0  0  0  0  0  # atno 10718 bound_to 10713
  153.2557  135.6918  153.7631 H   0  0  0  0  0  0  0  0  0  0  0  0  # atno 10763 bound_to 10752
  153.6709  135.3344  155.3154 H   0  0  0  0  0  0  0  0  0  0  0  0  # atno 10764 bound_to 10752
  154.8411  135.4499  154.1530 H   0  0  0  0  0  0  0  0  0  0  0  0  # atno 10765 bound_to 10752
  141.0411  133.9835  157.2993 H   0  0  0  0  0  0  0  0  0  0  0  0  # atno 11005 bound_to 11000
  144.9955  140.8585  143.5313 LP  0  0  0  0  0  0  0  0  0  0  0  0  # atno 17320 bound_to 7965
  145.1795  139.2359  143.5300 LP  0  0  0  0  0  0  0  0  0  0  0  0  # atno 17321 bound_to 7965
  140.2706  143.3459  152.1241 LP  0  0  0  0  0  0  0  0  0  0  0  0  # atno 17342 bound_to 10162
  139.5095  144.6869  151.5864 LP  0  0  0  0  0  0  0  0  0  0  0  0  # atno 17343 bound_to 10162
  157.6966  131.0791  150.6948 LP  0  0  0  0  0  0  0  0  0  0  0  0  # atno 17370 bound_to 10713
  156.7005  130.4622  149.5574 LP  0  0  0  0  0  0  0  0  0  0  0  0  # atno 17371 bound_to 10713
  139.9276  135.0201  156.8289 LP  0  0  0  0  0  0  0  0  0  0  0  0  # atno 17394 bound_to 11000
  140.6233  133.9973  155.7628 LP  0  0  0  0  0  0  0  0  0  0  0  0  # atno 17395 bound_to 11000

$$$$
