AV-unprocessed.smi:1033|AV-procd|sdf|4490|dock2
  -GOLD-   22720 2473D 1   1.00000     0.00000
 Structure written by MMmdl.
 56 58  0  0  0  0  0  0  0  0  2 V2000
  152.6006  143.1930  161.5469 C   0  0  0  0  0  0  0  0  0  0  0  0
  152.1282  142.8002  160.1581 C   0  0  0  0  0  0  0  0  0  0  0  0
  152.5624  141.5740  159.6061 C   0  0  0  0  0  0  0  0  0  0  0  0
  152.1489  141.1740  158.3167 C   0  0  0  0  0  0  0  0  0  0  0  0
  152.4510  140.0359  157.5890 N   0  0  0  0  0  0  0  0  0  0  0  0
  151.7701  140.2464  156.4668 C   0  0  0  0  0  0  0  0  0  0  0  0
  151.0638  141.3899  156.3787 N   0  0  0  0  0  0  0  0  0  0  0  0
  150.2597  141.8318  155.2530 C   0  0  0  0  0  0  0  0  0  0  0  0
  149.3542  140.7115  154.7061 C   0  0  2  0  0  0  0  0  0  0  0  0
  150.0878  139.9263  153.7857 O   0  0  0  0  0  0  0  0  0  0  0  0
  148.1109  141.2771  153.9916 C   0  0  0  0  0  0  0  0  0  0  0  0
  147.3562  142.2447  154.8283 N   0  3  0  0  0  0  0  0  0  0  0  0
  146.8522  141.6346  156.0855 C   0  0  0  0  0  0  0  0  0  0  0  0
  146.1523  142.6983  156.9560 C   0  0  0  0  0  0  0  0  0  0  0  0
  145.0535  143.3759  156.2683 N   0  0  0  0  0  0  0  0  0  0  0  0
  143.8769  142.5159  156.0937 C   0  0  0  0  0  0  0  0  0  0  0  0
  142.5471  143.2536  155.8394 C   0  0  2  0  0  0  0  0  0  0  0  0
  141.3174  142.3529  156.0254 C   0  0  0  0  0  0  0  0  0  0  0  0
  142.5550  143.7161  154.5057 O   0  0  0  0  0  0  0  0  0  0  0  0
  145.5717  143.9635  155.0302 C   0  0  0  0  0  0  0  0  0  0  0  0
  146.2560  142.9370  154.1047 C   0  0  0  0  0  0  0  0  0  0  0  0
  151.2813  142.0402  157.5889 C   0  0  0  0  0  0  0  0  0  0  0  0
  150.8402  143.2614  158.1287 C   0  0  0  0  0  0  0  0  0  0  0  0
  151.2643  143.6467  159.4179 C   0  0  0  0  0  0  0  0  0  0  0  0
  150.7854  144.9686  159.9916 C   0  0  0  0  0  0  0  0  0  0  0  0
  153.2607  142.4363  161.9719 H   0  0  0  0  0  0  0  0  0  0  0  0
  151.7512  143.3122  162.2200 H   0  0  0  0  0  0  0  0  0  0  0  0
  153.1503  144.1338  161.5118 H   0  0  0  0  0  0  0  0  0  0  0  0
  153.2202  140.9292  160.1702 H   0  0  0  0  0  0  0  0  0  0  0  0
  151.7888  139.5291  155.6592 H   0  0  0  0  0  0  0  0  0  0  0  0
  149.6535  142.6769  155.5819 H   0  0  0  0  0  0  0  0  0  0  0  0
  150.9229  142.2104  154.4738 H   0  0  0  0  0  0  0  0  0  0  0  0
  149.0567  140.0743  155.5384 H   0  0  0  0  0  0  0  0  0  0  0  0
  149.6530  139.9613  152.9464 H   0  0  0  0  0  0  0  0  0  0  0  0
  148.3931  141.7582  153.0538 H   0  0  0  0  0  0  0  0  0  0  0  0
  147.4594  140.4442  153.7220 H   0  0  0  0  0  0  0  0  0  0  0  0
  146.1752  140.8107  155.8551 H   0  0  0  0  0  0  0  0  0  0  0  0
  147.6863  141.2083  156.6444 H   0  0  0  0  0  0  0  0  0  0  0  0
  145.7884  142.2427  157.8778 H   0  0  0  0  0  0  0  0  0  0  0  0
  146.8895  143.4408  157.2646 H   0  0  0  0  0  0  0  0  0  0  0  0
  144.0485  141.8075  155.2834 H   0  0  0  0  0  0  0  0  0  0  0  0
  143.7519  141.9068  156.9901 H   0  0  0  0  0  0  0  0  0  0  0  0
  142.4618  144.1304  156.4806 H   0  0  0  0  0  0  0  0  0  0  0  0
  141.2471  141.9907  157.0514 H   0  0  0  0  0  0  0  0  0  0  0  0
  141.3570  141.4832  155.3684 H   0  0  0  0  0  0  0  0  0  0  0  0
  140.3963  142.8941  155.8072 H   0  0  0  0  0  0  0  0  0  0  0  0
  142.8684  143.0207  153.9472 H   0  0  0  0  0  0  0  0  0  0  0  0
  144.7807  144.4827  154.4907 H   0  0  0  0  0  0  0  0  0  0  0  0
  146.2975  144.7363  155.2873 H   0  0  0  0  0  0  0  0  0  0  0  0
  146.6482  143.4612  153.2344 H   0  0  0  0  0  0  0  0  0  0  0  0
  145.5358  142.2084  153.7309 H   0  0  0  0  0  0  0  0  0  0  0  0
  150.1833  143.8978  157.5545 H   0  0  0  0  0  0  0  0  0  0  0  0
  150.1334  145.4933  159.2927 H   0  0  0  0  0  0  0  0  0  0  0  0
  151.6322  145.6192  160.2114 H   0  0  0  0  0  0  0  0  0  0  0  0
  150.2255  144.8045  160.9126 H   0  0  0  0  0  0  0  0  0  0  0  0
  148.0186  142.9548  155.1074 H   0  0  0  0  0  0  0  0  0  0  0  0
  1  2  1  0  0  0  0
  1 26  1  0  0  0  0
  1 27  1  0  0  0  0
  1 28  1  0  0  0  0
  2 24  1  0  0  0  0
  2  3  2  0  0  0  0
  3  4  1  0  0  0  0
  3 29  1  0  0  0  0
  4 22  2  0  0  0  0
  4  5  1  0  0  0  0
  5  6  2  0  0  0  0
  6  7  1  0  0  0  0
  6 30  1  0  0  0  0
  7  8  1  0  0  0  0
  7 22  1  0  0  0  0
  8  9  1  0  0  0  0
  8 31  1  0  0  0  0
  8 32  1  0  0  0  0
  9 10  1  0  0  0  0
  9 11  1  0  0  0  0
  9 33  1  0  0  0  0
 10 34  1  0  0  0  0
 11 12  1  0  0  0  0
 11 35  1  0  0  0  0
 11 36  1  0  0  0  0
 12 21  1  0  0  0  0
 12 13  1  0  0  0  0
 12 56  1  0  0  0  0
 13 14  1  0  0  0  0
 13 37  1  0  0  0  0
 13 38  1  0  0  0  0
 14 15  1  0  0  0  0
 14 39  1  0  0  0  0
 14 40  1  0  0  0  0
 15 16  1  0  0  0  0
 15 20  1  0  0  0  0
 16 17  1  0  0  0  0
 16 41  1  0  0  0  0
 16 42  1  0  0  0  0
 17 18  1  0  0  0  0
 17 19  1  0  0  0  0
 17 43  1  0  0  0  0
 18 44  1  0  0  0  0
 18 45  1  0  0  0  0
 18 46  1  0  0  0  0
 19 47  1  0  0  0  0
 20 21  1  0  0  0  0
 20 48  1  0  0  0  0
 20 49  1  0  0  0  0
 21 50  1  0  0  0  0
 21 51  1  0  0  0  0
 22 23  1  0  0  0  0
 23 24  2  0  0  0  0
 23 52  1  0  0  0  0
 24 25  1  0  0  0  0
 25 53  1  0  0  0  0
 25 54  1  0  0  0  0
 25 55  1  0  0  0  0
M  CHG  1  12   1
M  END
> <s_m_source_file>
AV-unprocessed.smi

> <i_m_source_file_index>
1033

> <i_lp_mmshare_version>
43012

> <i_f3d_flags>
0

> <s_epik_input>
W0NIM11jKFtjSF0xKWMoW0NIM10pW2NIXWMoYzEyKW4oW2NIXW4yKVtDSDJdW0NASF0oW09IXSlbQ0gyXU4zW0NIMl1bQ0gyXU4oW0NIMl1bQ0gyXTMpW0NIMl1bQ0BIXShbQ0gzXSlbT0hd

> <s_epik_cmdline>
J2VwaWtfcHl0aG9uJywgJy1waCcsICc3LjAnLCAnLXRuJywgJzgnLCAnLW1hJywgJzIwMCcsICctbWV0YWxfYmluZGluZycsICctaW1hZScsICc8aW5maWxlLm1hZT4nLCAnLW9tYWUnLCAnPG91dGZpbGUubWFlPic=

> <r_epik_Ionization_Penalty>
0.131893

> <r_epik_Ionization_Penalty_Charging>
0.00208556

> <r_epik_Ionization_Penalty_Neutral>
0.129808

> <r_epik_State_Penalty>
0.452125

> <r_epik_Charging_Adjusted_Penalty>
0.454211

> <i_epik_Tot_Q>
1

> <i_epik_Tot_abs_Q>
1

> <r_epik_Metal_State_Penalty>
0.376389

> <b_epik_Metal_Only>
0

> <s_lp_Force_Field>
OPLS_2005

> <r_lp_Energy>
32.1786

> <b_lp_Chiralities_Consistent>
1

> <s_lp_Variant>
AV-unprocessed.smi:1033-1

> <Gold.Version>
5.8.1

> <Gold.Id.Protein>
6NUR|6NUR_protein|mol2

> <Gold.PLP.Fitness>
60.5234

> <Gold.PLP.PLP>
-45.2245

> <Gold.PLP.part.hbond>
-5.0000

> <Gold.PLP.part.metal>
0.0000

> <Gold.PLP.part.buried>
-6.1076

> <Gold.PLP.part.nonpolar>
-32.6451

> <Gold.PLP.part.repulsive>
0.2126

> <Gold.PLP.ligand.clash>
0.0000

> <Gold.PLP.ligand.torsion>
0.7500

> <Gold.PLP.Chemscore.Hbond>
5.5281

> <Gold.PLP.Chemscore.CHOScore>
0.0000

> <Gold.PLP.Chemscore.Metal>
0.0000

> <Gold.Chemscore.Hbonds>
donor molecule, donor type, donor heavy atom, donor atom, acceptor molecule, acceptor atom, score
      L1  H    10    34       P1  7957  1.00
      L1  H    12    56       P1  8028  2.00
      L1  H    19    47       P1 10174  0.74
      P1  H  7989  7998       L1    10  0.85
      P1  H  7997  8008       L1     5  0.71

> <Gold.PLP.Chemscore.Internal.Correction>
0.2147

> <Gold.Rescore>
     Score         DG    S(hbond)    S(metal)    S(lipo)     H(rot)  DE(clash)    DE(int)     intcor
     19.49     -21.04       2.94        0.00     116.05       3.07       0.70       0.85       ----

> <Gold.Chemscore.Fitness>
19.4854

> <Gold.Chemscore.DG>
-21.0403

> <Gold.Chemscore.ZeroCoef>
-5.4800

> <Gold.Chemscore.Hbond>
2.9429

> <Gold.Chemscore.Metal>
0.0000

> <Gold.Chemscore.Lipo>
116.0465

> <Gold.Chemscore.Internal_Hbond>
0.0000

> <Gold.Chemscore.DEClash>
0.7035

> <Gold.Chemscore.DEInternal>
0.8514

> <Gold.Chemscore.Rot>
3.0650

> <Gold.Chemscore.Internal.Correction>
   9.000000E+99

> <Gold.Chemscore.Hbonds>
donor molecule, donor type, donor heavy atom, donor atom, acceptor molecule, acceptor atom, score
      L1  H    10    34       P1  7957  0.98
      L1  H    12    56       P1  8028  0.87
      L1  H    19    47       P1 10174  0.68
      P1  H  7989  7998       L1    10  0.15
      P1  H  7997  8008       L1     5  0.17

> <Gold.Chemscore.Hbond.Weighted>
-9.8294

> <Gold.Chemscore.Metal.Weighted>
-0.0000

> <Gold.Chemscore.Lipo.Weighted>
-13.5774

> <Gold.Chemscore.Internal_Hbond.Weighted>
0.0000

> <Gold.Chemscore.DEClash.Weighted>
0.7035

> <Gold.Chemscore.DEInternal.Weighted>
0.8514

> <Gold.Chemscore.Rot.Weighted>
7.8465

> <Gold.Chemscore.Internal.Correction.Weighted>
   9.000000E+99

> <Gold.Protein.RotatedTorsions>
[ 6907 6896 6895 6894 ] final -165.47 input  -60.11 | X-H torsion
[ 7974 7965 7964 7962 ] final -174.35 input  175.53 | X-H torsion
[ 8008 7997 7996 7995 ] final  -73.54 input   59.86 | X-H torsion
[ 10167 10162 10161 10158 ] final   22.42 input  -65.29 | X-H torsion
[ 10718 10713 10712 10709 ] final  -44.03 input   66.30 | X-H torsion
[ 10763 10752 10751 10750 ] final -101.04 input  -60.55 | X-H torsion
[ 11005 11000 10999 10996 ] final   25.01 input  -57.11 | X-H torsion

> <Gold.Protein.ActiveResidues>
 VAL166  LYS551  ARG553  GLY616  TRP617  ASP618  TYR619  PRO620  LYS621  CYS622 
 ASP623  PHE694  ASN695  SER759  ASP760  ASP761  ALA762  ILE779  LEU786  VAL792 
 PHE793  MET794  SER795  GLU796  ALA797  LYS798  CYS799  TRP800  GLU811  SER814 

> <Gold.Protein.RotatedAtoms>
  151.4282  133.3678  159.2764 H   0  0  0  0  0  0  0  0  0  0  0  0  # atno 6907 bound_to 6896
  150.9244  134.8663  159.7521 H   0  0  0  0  0  0  0  0  0  0  0  0  # atno 6908 bound_to 6896
  152.4998  134.4222  159.9536 H   0  0  0  0  0  0  0  0  0  0  0  0  # atno 6909 bound_to 6896
  144.7132  140.1484  143.6386 H   0  0  0  0  0  0  0  0  0  0  0  0  # atno 7974 bound_to 7965
  154.5256  140.0777  156.8252 H   0  0  0  0  0  0  0  0  0  0  0  0  # atno 8008 bound_to 7997
  155.3483  140.3411  155.4221 H   0  0  0  0  0  0  0  0  0  0  0  0  # atno 8009 bound_to 7997
  156.1728  140.1625  156.8404 H   0  0  0  0  0  0  0  0  0  0  0  0  # atno 8010 bound_to 7997
  140.5350  143.9776  150.6486 H   0  0  0  0  0  0  0  0  0  0  0  0  # atno 10167 bound_to 10162
  156.2428  130.4181  149.8740 H   0  0  0  0  0  0  0  0  0  0  0  0  # atno 10718 bound_to 10713
  154.7626  135.4912  153.9494 H   0  0  0  0  0  0  0  0  0  0  0  0  # atno 10763 bound_to 10752
  153.1270  135.6744  153.9248 H   0  0  0  0  0  0  0  0  0  0  0  0  # atno 10764 bound_to 10752
  153.8963  135.3115  155.3427 H   0  0  0  0  0  0  0  0  0  0  0  0  # atno 10765 bound_to 10752
  140.3525  134.2214  155.7679 H   0  0  0  0  0  0  0  0  0  0  0  0  # atno 11005 bound_to 11000
  145.9138  139.2503  143.1421 LP  0  0  0  0  0  0  0  0  0  0  0  0  # atno 17320 bound_to 7965
  145.9689  140.8776  143.0172 LP  0  0  0  0  0  0  0  0  0  0  0  0  # atno 17321 bound_to 7965
  140.3161  143.3167  152.0831 LP  0  0  0  0  0  0  0  0  0  0  0  0  # atno 17342 bound_to 10162
  139.4968  144.6604  151.6477 LP  0  0  0  0  0  0  0  0  0  0  0  0  # atno 17343 bound_to 10162
  156.6315  130.8668  151.3496 LP  0  0  0  0  0  0  0  0  0  0  0  0  # atno 17370 bound_to 10713
  157.7183  130.9525  150.1337 LP  0  0  0  0  0  0  0  0  0  0  0  0  # atno 17371 bound_to 10713
  141.2008  133.7978  157.0472 LP  0  0  0  0  0  0  0  0  0  0  0  0  # atno 17394 bound_to 11000
  140.0692  134.9712  157.1438 LP  0  0  0  0  0  0  0  0  0  0  0  0  # atno 17395 bound_to 11000

$$$$
