AV-unprocessed.smi:2976|AV-procd|sdf|11363|dock1
  -GOLD-   2272016283D 1   1.00000     0.00000
 Structure written by MMmdl.
 40 41  0  0  0  0  0  0  0  0  1 V2000
  143.9054  132.4020  149.5509 C   0  0  0  0  0  0  0  0  0  0  0  0
  143.9835  132.6409  151.0729 C   0  0  2  0  0  0  0  0  0  0  0  0
  143.7160  134.1166  151.4310 C   0  0  0  0  0  0  0  0  0  0  0  0
  144.8935  135.0274  151.0522 C   0  0  0  0  0  0  0  0  0  0  0  0
  146.1964  134.5451  151.7044 C   0  0  0  0  0  0  0  0  0  0  0  0
  146.5031  133.0732  151.3657 C   0  0  1  0  0  0  0  0  0  0  0  0
  147.7081  132.6750  152.0933 N   0  0  0  0  0  0  0  0  0  0  0  0
  147.8762  132.7102  153.4246 C   0  0  0  0  0  0  0  0  0  0  0  0
  147.0140  133.1127  154.2069 O   0  0  0  0  0  0  0  0  0  0  0  0
  149.2455  132.2362  153.9336 C   0  0  0  0  0  0  0  0  0  0  0  0
  149.3973  130.7737  153.9437 N   0  0  0  0  0  0  0  0  0  0  0  0
  148.4426  130.1037  153.1987 N   0  0  0  0  0  0  0  0  0  0  0  0
  148.4831  128.8181  153.1246 C   0  0  0  0  0  0  0  0  0  0  0  0
  149.4968  128.0392  153.8003 C   0  0  0  0  0  0  0  0  0  0  0  0
  149.4996  126.3161  153.6646 Cl  0  0  0  0  0  0  0  0  0  0  0  0
  150.4263  128.7054  154.5305 C   0  0  0  0  0  0  0  0  0  0  0  0
  151.6713  127.8418  155.3664 Cl  0  0  0  0  0  0  0  0  0  0  0  0
  150.4113  130.1711  154.6379 C   0  0  0  0  0  0  0  0  0  0  0  0
  151.2348  130.8122  155.2920 O   0  0  0  0  0  0  0  0  0  0  0  0
  145.3050  132.1526  151.7256 C   0  0  2  0  0  0  0  0  0  0  0  0
  145.5768  130.6615  151.4430 C   0  0  0  0  0  0  0  0  0  0  0  0
  144.7226  132.8836  149.0149 H   0  0  0  0  0  0  0  0  0  0  0  0
  142.9724  132.7926  149.1439 H   0  0  0  0  0  0  0  0  0  0  0  0
  143.9335  131.3392  149.3111 H   0  0  0  0  0  0  0  0  0  0  0  0
  143.1707  132.0612  151.5126 H   0  0  0  0  0  0  0  0  0  0  0  0
  142.8037  134.4649  150.9457 H   0  0  0  0  0  0  0  0  0  0  0  0
  143.5350  134.1983  152.5035 H   0  0  0  0  0  0  0  0  0  0  0  0
  145.0118  135.0568  149.9688 H   0  0  0  0  0  0  0  0  0  0  0  0
  144.6833  136.0509  151.3632 H   0  0  0  0  0  0  0  0  0  0  0  0
  147.0224  135.1816  151.3840 H   0  0  0  0  0  0  0  0  0  0  0  0
  146.1179  134.6655  152.7859 H   0  0  0  0  0  0  0  0  0  0  0  0
  146.6844  133.0098  150.2915 H   0  0  0  0  0  0  0  0  0  0  0  0
  148.4782  132.3371  151.5343 H   0  0  0  0  0  0  0  0  0  0  0  0
  150.0321  132.6895  153.3272 H   0  0  0  0  0  0  0  0  0  0  0  0
  149.3868  132.6350  154.9397 H   0  0  0  0  0  0  0  0  0  0  0  0
  147.7544  128.2483  152.5482 H   0  0  0  0  0  0  0  0  0  0  0  0
  145.1582  132.2322  152.8041 H   0  0  0  0  0  0  0  0  0  0  0  0
  145.8675  130.4965  150.4053 H   0  0  0  0  0  0  0  0  0  0  0  0
  144.6927  130.0562  151.6439 H   0  0  0  0  0  0  0  0  0  0  0  0
  146.3787  130.2748  152.0717 H   0  0  0  0  0  0  0  0  0  0  0  0
  1  2  1  0  0  0  0
  1 22  1  0  0  0  0
  1 23  1  0  0  0  0
  1 24  1  0  0  0  0
  2 20  1  0  0  0  0
  2  3  1  0  0  0  0
  2 25  1  0  0  0  0
  3  4  1  0  0  0  0
  3 26  1  0  0  0  0
  3 27  1  0  0  0  0
  4  5  1  0  0  0  0
  4 28  1  0  0  0  0
  4 29  1  0  0  0  0
  5  6  1  0  0  0  0
  5 30  1  0  0  0  0
  5 31  1  0  0  0  0
  6  7  1  0  0  0  0
  6 20  1  0  0  0  0
  6 32  1  0  0  0  0
  7  8  1  0  0  0  0
  7 33  1  0  0  0  0
  8  9  2  0  0  0  0
  8 10  1  0  0  0  0
 10 11  1  0  0  0  0
 10 34  1  0  0  0  0
 10 35  1  0  0  0  0
 11 18  1  0  0  0  0
 11 12  1  0  0  0  0
 12 13  2  0  0  0  0
 13 14  1  0  0  0  0
 13 36  1  0  0  0  0
 14 15  1  0  0  0  0
 14 16  2  0  0  0  0
 16 17  1  0  0  0  0
 16 18  1  0  0  0  0
 18 19  2  0  0  0  0
 20 21  1  0  0  0  0
 20 37  1  0  0  0  0
 21 38  1  0  0  0  0
 21 39  1  0  0  0  0
 21 40  1  0  0  0  0
M  END
> <s_m_source_file>
AV-unprocessed.smi

> <i_m_source_file_index>
2976

> <i_lp_mmshare_version>
43012

> <i_f3d_flags>
0

> <s_epik_input>
W0NIM11bQ0BASF0xW0NIMl1bQ0gyXVtDSDJdW0NASF0oW0NASF0xW0NIM10pW05IXUMoPU8pW0NIMl1uMm5bY0hdYyhDbCljKENsKWMyPU8=

> <s_epik_cmdline>
J2VwaWtfcHl0aG9uJywgJy1waCcsICc3LjAnLCAnLXRuJywgJzgnLCAnLW1hJywgJzIwMCcsICctbWV0YWxfYmluZGluZycsICctaW1hZScsICc8aW5maWxlLm1hZT4nLCAnLW9tYWUnLCAnPG91dGZpbGUubWFlPic=

> <r_lp_tautomer_probability>
1

> <r_epik_Ionization_Penalty>
1.90777e-08

> <r_epik_Ionization_Penalty_Charging>
3.07942e-11

> <r_epik_Ionization_Penalty_Neutral>
1.90469e-08

> <r_epik_State_Penalty>
-0

> <r_epik_Charging_Adjusted_Penalty>
3.07942e-11

> <i_epik_Tot_Q>
0

> <i_epik_Tot_abs_Q>
0

> <r_epik_Metal_State_Penalty>
-0

> <b_epik_Metal_Only>
0

> <s_lp_Force_Field>
OPLS_2005

> <r_lp_Energy>
28.556

> <b_lp_Chiralities_Consistent>
1

> <s_lp_Variant>
AV-unprocessed.smi:2976-5

> <Gold.Version>
5.8.1

> <Gold.Id.Protein>
6NUR|6NUR_protein|mol2

> <Gold.PLP.Fitness>
41.0848

> <Gold.PLP.PLP>
-39.3387

> <Gold.PLP.part.hbond>
-1.0000

> <Gold.PLP.part.metal>
0.0000

> <Gold.PLP.part.buried>
-5.6480

> <Gold.PLP.part.nonpolar>
-33.6098

> <Gold.PLP.part.repulsive>
0.8041

> <Gold.PLP.ligand.clash>
0.0000

> <Gold.PLP.ligand.torsion>
0.4256

> <Gold.PLP.Chemscore.Hbond>
0.8640

> <Gold.PLP.Chemscore.CHOScore>
0.0000

> <Gold.PLP.Chemscore.Metal>
0.0000

> <Gold.Chemscore.Hbonds>
donor molecule, donor type, donor heavy atom, donor atom, acceptor molecule, acceptor atom, score
      L1  H     7    33       P1 10747  0.86

> <Gold.PLP.Chemscore.Internal.Correction>
0.0053

> <Gold.Rescore>
     Score         DG    S(hbond)    S(metal)    S(lipo)     H(rot)  DE(clash)    DE(int)     intcor
     12.19     -14.64       0.87        0.00      86.09       1.49       0.12       2.33       ----

> <Gold.Chemscore.Fitness>
12.1905

> <Gold.Chemscore.DG>
-14.6360

> <Gold.Chemscore.ZeroCoef>
-5.4800

> <Gold.Chemscore.Hbond>
0.8650

> <Gold.Chemscore.Metal>
0.0000

> <Gold.Chemscore.Lipo>
86.0887

> <Gold.Chemscore.Internal_Hbond>
0.0000

> <Gold.Chemscore.DEClash>
0.1159

> <Gold.Chemscore.DEInternal>
2.3296

> <Gold.Chemscore.Rot>
1.4866

> <Gold.Chemscore.Internal.Correction>
   9.000000E+99

> <Gold.Chemscore.Hbonds>
donor molecule, donor type, donor heavy atom, donor atom, acceptor molecule, acceptor atom, score
      L1  H     7    33       P1 10747  0.82

> <Gold.Chemscore.Hbond.Weighted>
-2.8893

> <Gold.Chemscore.Metal.Weighted>
-0.0000

> <Gold.Chemscore.Lipo.Weighted>
-10.0724

> <Gold.Chemscore.Internal_Hbond.Weighted>
0.0000

> <Gold.Chemscore.DEClash.Weighted>
0.1159

> <Gold.Chemscore.DEInternal.Weighted>
2.3296

> <Gold.Chemscore.Rot.Weighted>
3.8057

> <Gold.Chemscore.Internal.Correction.Weighted>
   9.000000E+99

> <Gold.Protein.RotatedTorsions>
[ 6907 6896 6895 6894 ] final -100.12 input  -60.11 | X-H torsion
[ 7974 7965 7964 7962 ] final   38.26 input  175.53 | X-H torsion
[ 8008 7997 7996 7995 ] final   53.88 input   59.86 | X-H torsion
[ 10167 10162 10161 10158 ] final   57.55 input  -65.29 | X-H torsion
[ 10718 10713 10712 10709 ] final  -30.48 input   66.30 | X-H torsion
[ 10763 10752 10751 10750 ] final  -84.30 input  -60.55 | X-H torsion
[ 11005 11000 10999 10996 ] final -121.96 input  -57.11 | X-H torsion

> <Gold.Protein.ActiveResidues>
 VAL166  LYS551  ARG553  GLY616  TRP617  ASP618  TYR619  PRO620  LYS621  CYS622 
 ASP623  PHE694  ASN695  SER759  ASP760  ASP761  ALA762  ILE779  LEU786  VAL792 
 PHE793  MET794  SER795  GLU796  ALA797  LYS798  CYS799  TRP800  GLU811  SER814 

> <Gold.Protein.RotatedAtoms>
  150.7104  134.0936  159.3940 H   0  0  0  0  0  0  0  0  0  0  0  0  # atno 6907 bound_to 6896
  151.8922  135.0410  160.0508 H   0  0  0  0  0  0  0  0  0  0  0  0  # atno 6908 bound_to 6896
  152.2482  133.5157  159.5347 H   0  0  0  0  0  0  0  0  0  0  0  0  # atno 6909 bound_to 6896
  146.1076  139.5794  142.9373 H   0  0  0  0  0  0  0  0  0  0  0  0  # atno 7974 bound_to 7965
  155.4755  140.3466  155.4332 H   0  0  0  0  0  0  0  0  0  0  0  0  # atno 8008 bound_to 7997
  156.1073  140.1451  156.9415 H   0  0  0  0  0  0  0  0  0  0  0  0  # atno 8009 bound_to 7997
  154.4733  140.0893  156.7177 H   0  0  0  0  0  0  0  0  0  0  0  0  # atno 8010 bound_to 7997
  140.1968  144.4029  150.6546 H   0  0  0  0  0  0  0  0  0  0  0  0  # atno 10167 bound_to 10162
  156.3993  130.4387  149.7335 H   0  0  0  0  0  0  0  0  0  0  0  0  # atno 10718 bound_to 10713
  154.5978  135.5525  153.7344 H   0  0  0  0  0  0  0  0  0  0  0  0  # atno 10763 bound_to 10752
  153.0142  135.6359  154.1757 H   0  0  0  0  0  0  0  0  0  0  0  0  # atno 10764 bound_to 10752
  154.1697  135.2892  155.3064 H   0  0  0  0  0  0  0  0  0  0  0  0  # atno 10765 bound_to 10752
  141.0031  134.0374  157.3512 H   0  0  0  0  0  0  0  0  0  0  0  0  # atno 11005 bound_to 11000
  145.5730  141.0392  143.2164 LP  0  0  0  0  0  0  0  0  0  0  0  0  # atno 17320 bound_to 7965
  144.7484  139.7259  143.7283 LP  0  0  0  0  0  0  0  0  0  0  0  0  # atno 17321 bound_to 7965
  140.6418  143.2205  151.6273 LP  0  0  0  0  0  0  0  0  0  0  0  0  # atno 17342 bound_to 10162
  139.5233  144.3136  152.0971 LP  0  0  0  0  0  0  0  0  0  0  0  0  # atno 17343 bound_to 10162
  156.4357  130.7837  151.2857 LP  0  0  0  0  0  0  0  0  0  0  0  0  # atno 17370 bound_to 10713
  157.7503  131.0140  150.3447 LP  0  0  0  0  0  0  0  0  0  0  0  0  # atno 17371 bound_to 10713
  139.9049  135.0176  156.7440 LP  0  0  0  0  0  0  0  0  0  0  0  0  # atno 17394 bound_to 11000
  140.6857  133.9435  155.7936 LP  0  0  0  0  0  0  0  0  0  0  0  0  # atno 17395 bound_to 11000

$$$$
