AV-unprocessed.smi:81|AV-procd|sdf|790|dock7
  -GOLD-   2262017163D 1   1.00000     0.00000
 Structure written by MMmdl.
 64 67  0  0  0  0  0  0  0  0  2 V2000
  152.1572  141.0124  159.4008 C   0  0  0  0  0  0  0  0  0  0  0  0
  151.8338  141.8287  158.1387 C   0  0  0  0  0  0  0  0  0  0  0  0
  152.1876  143.3075  158.3494 C   0  0  0  0  0  0  0  0  0  0  0  0
  150.3504  141.6841  157.7250 C   0  0  0  0  0  0  0  0  0  0  0  0
  150.0419  140.4577  156.9809 N   0  0  0  0  0  0  0  0  0  0  0  0
  150.2096  139.2980  157.6620 C   0  0  0  0  0  0  0  0  0  0  0  0
  151.4739  138.8177  157.7686 N   0  0  0  0  0  0  0  0  0  0  0  0
  151.7024  137.6618  158.3980 C   0  0  0  0  0  0  0  0  0  0  0  0
  150.8248  136.8395  158.9756 N   0  0  0  0  0  0  0  0  0  0  0  0
  149.5496  137.3082  158.8551 C   0  0  0  0  0  0  0  0  0  0  0  0
  149.1551  138.5176  158.2177 C   0  0  0  0  0  0  0  0  0  0  0  0
  147.7755  138.6612  158.2959 N   0  0  0  0  0  0  0  0  0  0  0  0
  147.3779  137.5972  158.9375 C   0  0  0  0  0  0  0  0  0  0  0  0
  148.3774  136.7249  159.3063 N   0  0  0  0  0  0  0  0  0  0  0  0
  148.2393  135.4587  160.0160 C   0  0  0  0  0  0  0  0  0  0  0  0
  147.4896  135.5755  161.3706 C   0  0  1  0  0  0  0  0  0  0  0  0
  148.1065  136.6061  162.1260 O   0  0  0  0  0  0  0  0  0  0  0  0
  146.0150  135.9075  161.2203 C   0  0  0  0  0  0  0  0  0  0  0  0
  145.4328  135.4995  162.5717 C   0  0  0  0  0  0  0  0  0  0  0  0
  146.3040  134.5003  163.0969 O   0  0  0  0  0  0  0  0  0  0  0  0
  147.4408  134.3104  162.2545 C   0  0  1  0  0  0  0  0  0  0  0  0
  147.1717  132.9859  161.5140 C   0  0  0  0  0  0  0  0  0  0  0  0
  150.3159  140.4710  155.5333 C   0  0  2  0  0  0  0  0  0  0  0  0
  149.4367  141.4257  154.6902 C   0  0  0  0  0  0  0  0  0  0  0  0
  148.1253  140.7940  154.1833 C   0  0  0  0  0  0  0  0  0  0  0  0
  148.3826  139.5132  153.4849 N   0  3  2  0  0  0  0  0  0  0  0  0
  147.1613  138.9596  152.8613 C   0  0  0  0  0  0  0  0  0  0  0  0
  149.0555  138.5337  154.3692 C   0  0  0  0  0  0  0  0  0  0  0  0
  150.4057  139.0738  154.8748 C   0  0  0  0  0  0  0  0  0  0  0  0
  151.5488  141.3341  160.2466 H   0  0  0  0  0  0  0  0  0  0  0  0
  153.2047  141.1244  159.6825 H   0  0  0  0  0  0  0  0  0  0  0  0
  151.9756  139.9489  159.2459 H   0  0  0  0  0  0  0  0  0  0  0  0
  152.4732  141.4686  157.3321 H   0  0  0  0  0  0  0  0  0  0  0  0
  151.5975  143.7464  159.1546 H   0  0  0  0  0  0  0  0  0  0  0  0
  152.0017  143.8879  157.4451 H   0  0  0  0  0  0  0  0  0  0  0  0
  153.2410  143.4272  158.6046 H   0  0  0  0  0  0  0  0  0  0  0  0
  149.7330  141.7132  158.6235 H   0  0  0  0  0  0  0  0  0  0  0  0
  150.0484  142.5491  157.1356 H   0  0  0  0  0  0  0  0  0  0  0  0
  152.7354  137.3499  158.4431 H   0  0  0  0  0  0  0  0  0  0  0  0
  146.3348  137.4282  159.1530 H   0  0  0  0  0  0  0  0  0  0  0  0
  147.6922  134.7752  159.3655 H   0  0  0  0  0  0  0  0  0  0  0  0
  149.2259  135.0127  160.1376 H   0  0  0  0  0  0  0  0  0  0  0  0
  148.2151  136.3012  163.0140 H   0  0  0  0  0  0  0  0  0  0  0  0
  145.8256  136.9530  160.9728 H   0  0  0  0  0  0  0  0  0  0  0  0
  145.5723  135.2976  160.4319 H   0  0  0  0  0  0  0  0  0  0  0  0
  145.4251  136.3467  163.2581 H   0  0  0  0  0  0  0  0  0  0  0  0
  144.4118  135.1279  162.4838 H   0  0  0  0  0  0  0  0  0  0  0  0
  148.3450  134.2042  162.8558 H   0  0  0  0  0  0  0  0  0  0  0  0
  147.9827  132.7103  160.8446 H   0  0  0  0  0  0  0  0  0  0  0  0
  146.2578  133.0335  160.9220 H   0  0  0  0  0  0  0  0  0  0  0  0
  147.0549  132.1684  162.2257 H   0  0  0  0  0  0  0  0  0  0  0  0
  151.3207  140.8921  155.4777 H   0  0  0  0  0  0  0  0  0  0  0  0
  149.2364  142.3492  155.2343 H   0  0  0  0  0  0  0  0  0  0  0  0
  150.0142  141.7261  153.8149 H   0  0  0  0  0  0  0  0  0  0  0  0
  147.4228  140.6231  154.9979 H   0  0  0  0  0  0  0  0  0  0  0  0
  147.6374  141.4885  153.4983 H   0  0  0  0  0  0  0  0  0  0  0  0
  146.4118  138.7177  153.6162 H   0  0  0  0  0  0  0  0  0  0  0  0
  147.3911  138.0509  152.3039 H   0  0  0  0  0  0  0  0  0  0  0  0
  146.7266  139.6758  152.1635 H   0  0  0  0  0  0  0  0  0  0  0  0
  148.3942  138.2829  155.1959 H   0  0  0  0  0  0  0  0  0  0  0  0
  149.2267  137.6071  153.8199 H   0  0  0  0  0  0  0  0  0  0  0  0
  151.0726  139.1512  154.0150 H   0  0  0  0  0  0  0  0  0  0  0  0
  150.8758  138.3511  155.5418 H   0  0  0  0  0  0  0  0  0  0  0  0
  149.0242  139.7153  152.7315 H   0  0  0  0  0  0  0  0  0  0  0  0
  1  2  1  0  0  0  0
  1 30  1  0  0  0  0
  1 31  1  0  0  0  0
  1 32  1  0  0  0  0
  2  3  1  0  0  0  0
  2  4  1  0  0  0  0
  2 33  1  0  0  0  0
  3 34  1  0  0  0  0
  3 35  1  0  0  0  0
  3 36  1  0  0  0  0
  4  5  1  0  0  0  0
  4 37  1  0  0  0  0
  4 38  1  0  0  0  0
  5  6  1  0  0  0  0
  5 23  1  0  0  0  0
  6 11  1  0  0  0  0
  6  7  2  0  0  0  0
  7  8  1  0  0  0  0
  8  9  2  0  0  0  0
  8 39  1  0  0  0  0
  9 10  1  0  0  0  0
 10 14  1  0  0  0  0
 10 11  2  0  0  0  0
 11 12  1  0  0  0  0
 12 13  2  0  0  0  0
 13 14  1  0  0  0  0
 13 40  1  0  0  0  0
 14 15  1  0  0  0  0
 15 16  1  0  0  0  0
 15 41  1  0  0  0  0
 15 42  1  0  0  0  0
 16 21  1  0  0  0  0
 16 17  1  0  0  0  0
 16 18  1  0  0  0  0
 17 43  1  0  0  0  0
 18 19  1  0  0  0  0
 18 44  1  0  0  0  0
 18 45  1  0  0  0  0
 19 20  1  0  0  0  0
 19 46  1  0  0  0  0
 19 47  1  0  0  0  0
 20 21  1  0  0  0  0
 21 22  1  0  0  0  0
 21 48  1  0  0  0  0
 22 49  1  0  0  0  0
 22 50  1  0  0  0  0
 22 51  1  0  0  0  0
 23 29  1  0  0  0  0
 23 24  1  0  0  0  0
 23 52  1  0  0  0  0
 24 25  1  0  0  0  0
 24 53  1  0  0  0  0
 24 54  1  0  0  0  0
 25 26  1  0  0  0  0
 25 55  1  0  0  0  0
 25 56  1  0  0  0  0
 26 27  1  0  0  0  0
 26 28  1  0  0  0  0
 26 64  1  0  0  0  0
 27 57  1  0  0  0  0
 27 58  1  0  0  0  0
 27 59  1  0  0  0  0
 28 29  1  0  0  0  0
 28 60  1  0  0  0  0
 28 61  1  0  0  0  0
 29 62  1  0  0  0  0
 29 63  1  0  0  0  0
M  CHG  1  26   1
M  END
> <s_m_source_file>
AV-unprocessed.smi

> <i_m_source_file_index>
81

> <i_lp_mmshare_version>
43012

> <i_f3d_flags>
0

> <s_epik_input>
W0NIMl0xW0NIMl1OKFtDSDNdKVtDSDJdW0NIMl1bQ0hdMU4oW0NIMl1bQ0hdKFtDSDNdKVtDSDNdKWMobltjSF1uMiljKGMyMyluW2NIXW4zW0NIMl1bQ0BAXTQoW09IXSlbQ0gyXVtDSDJdT1tDQEhdNFtDSDNd

> <s_epik_cmdline>
J2VwaWtfcHl0aG9uJywgJy1waCcsICc3LjAnLCAnLXRuJywgJzgnLCAnLW1hJywgJzIwMCcsICctbWV0YWxfYmluZGluZycsICctaW1hZScsICc8aW5maWxlLm1hZT4nLCAnLW9tYWUnLCAnPG91dGZpbGUubWFlPic=

> <r_lp_tautomer_probability>
1

> <r_epik_Ionization_Penalty>
0.00272708

> <r_epik_Ionization_Penalty_Charging>
0.00158983

> <r_epik_Ionization_Penalty_Neutral>
0.00113725

> <r_epik_State_Penalty>
-0

> <r_epik_Charging_Adjusted_Penalty>
0.00158983

> <i_epik_Tot_Q>
1

> <i_epik_Tot_abs_Q>
1

> <r_epik_Metal_State_Penalty>
-0

> <b_epik_Metal_Only>
0

> <s_lp_Force_Field>
OPLS_2005

> <r_lp_Energy>
53.2372

> <b_lp_Chiralities_Consistent>
1

> <s_lp_Variant>
AV-unprocessed.smi:81-5

> <Gold.Version>
5.8.1

> <Gold.Id.Protein>
6NUR|6NUR_protein|mol2

> <Gold.PLP.Fitness>
57.5510

> <Gold.PLP.PLP>
-51.7234

> <Gold.PLP.part.hbond>
-4.9986

> <Gold.PLP.part.metal>
0.0000

> <Gold.PLP.part.buried>
-6.3875

> <Gold.PLP.part.nonpolar>
-40.6168

> <Gold.PLP.part.repulsive>
0.0950

> <Gold.PLP.ligand.clash>
0.0000

> <Gold.PLP.ligand.torsion>
2.2622

> <Gold.PLP.Chemscore.Hbond>
3.0000

> <Gold.PLP.Chemscore.CHOScore>
0.0000

> <Gold.PLP.Chemscore.Metal>
0.0000

> <Gold.Chemscore.Hbonds>
donor molecule, donor type, donor heavy atom, donor atom, acceptor molecule, acceptor atom, score
      L1  H    26    64       P1  7957  1.00
      P1  H  6896  6908       L1     9  1.00
      P1  H  6931  6943       L1    17  1.00

> <Gold.PLP.Chemscore.Internal.Correction>
1.3520

> <Gold.Rescore>
     Score         DG    S(hbond)    S(metal)    S(lipo)     H(rot)  DE(clash)    DE(int)     intcor
     19.82     -22.53       2.75        0.00     117.87       2.32       0.25       2.45       ----

> <Gold.Chemscore.Fitness>
19.8240

> <Gold.Chemscore.DG>
-22.5263

> <Gold.Chemscore.ZeroCoef>
-5.4800

> <Gold.Chemscore.Hbond>
2.7502

> <Gold.Chemscore.Metal>
0.0000

> <Gold.Chemscore.Lipo>
117.8654

> <Gold.Chemscore.Internal_Hbond>
0.0000

> <Gold.Chemscore.DEClash>
0.2536

> <Gold.Chemscore.DEInternal>
2.4487

> <Gold.Chemscore.Rot>
2.3163

> <Gold.Chemscore.Internal.Correction>
   9.000000E+99

> <Gold.Chemscore.Hbonds>
donor molecule, donor type, donor heavy atom, donor atom, acceptor molecule, acceptor atom, score
      L1  H    26    64       P1  7957  1.00
      P1  H  6896  6908       L1     9  0.95
      P1  H  6931  6943       L1    17  0.65

> <Gold.Chemscore.Hbond.Weighted>
-9.1858

> <Gold.Chemscore.Metal.Weighted>
-0.0000

> <Gold.Chemscore.Lipo.Weighted>
-13.7903

> <Gold.Chemscore.Internal_Hbond.Weighted>
0.0000

> <Gold.Chemscore.DEClash.Weighted>
0.2536

> <Gold.Chemscore.DEInternal.Weighted>
2.4487

> <Gold.Chemscore.Rot.Weighted>
5.9297

> <Gold.Chemscore.Internal.Correction.Weighted>
   9.000000E+99

> <Gold.Protein.RotatedTorsions>
[ 6907 6896 6895 6894 ] final -143.20 input  -60.11 | X-H torsion
[ 7974 7965 7964 7962 ] final  -30.37 input  175.53 | X-H torsion
[ 8008 7997 7996 7995 ] final -131.43 input   59.86 | X-H torsion
[ 10167 10162 10161 10158 ] final  -32.75 input  -65.29 | X-H torsion
[ 10718 10713 10712 10709 ] final   19.63 input   66.30 | X-H torsion
[ 10763 10752 10751 10750 ] final -125.12 input  -60.55 | X-H torsion
[ 11005 11000 10999 10996 ] final  -62.75 input  -57.11 | X-H torsion

> <Gold.Protein.ActiveResidues>
 VAL166  LYS551  ARG553  GLY616  TRP617  ASP618  TYR619  PRO620  LYS621  CYS622 
 ASP623  PHE694  ASN695  SER759  ASP760  ASP761  ALA762  ILE779  LEU786  VAL792 
 PHE793  MET794  SER795  GLU796  ALA797  LYS798  CYS799  TRP800  GLU811  SER814 

> <Gold.Protein.RotatedAtoms>
  151.0973  133.5270  159.2611 H   0  0  0  0  0  0  0  0  0  0  0  0  # atno 6907 bound_to 6896
  151.2115  135.0482  159.8923 H   0  0  0  0  0  0  0  0  0  0  0  0  # atno 6908 bound_to 6896
  152.5440  134.0788  159.8280 H   0  0  0  0  0  0  0  0  0  0  0  0  # atno 6909 bound_to 6896
  146.1147  140.5532  142.8762 H   0  0  0  0  0  0  0  0  0  0  0  0  # atno 7974 bound_to 7965
  155.3122  140.0458  157.3035 H   0  0  0  0  0  0  0  0  0  0  0  0  # atno 8008 bound_to 7997
  154.5427  140.2293  155.8581 H   0  0  0  0  0  0  0  0  0  0  0  0  # atno 8009 bound_to 7997
  156.1895  140.3054  155.9311 H   0  0  0  0  0  0  0  0  0  0  0  0  # atno 8010 bound_to 7997
  140.7216  143.3671  151.1849 H   0  0  0  0  0  0  0  0  0  0  0  0  # atno 10167 bound_to 10162
  157.1132  130.6517  149.5903 H   0  0  0  0  0  0  0  0  0  0  0  0  # atno 10718 bound_to 10713
  154.8732  135.4040  154.3217 H   0  0  0  0  0  0  0  0  0  0  0  0  # atno 10763 bound_to 10752
  153.4044  135.7019  153.6408 H   0  0  0  0  0  0  0  0  0  0  0  0  # atno 10764 bound_to 10752
  153.5137  135.3702  155.2570 H   0  0  0  0  0  0  0  0  0  0  0  0  # atno 10765 bound_to 10752
  141.1370  133.6643  156.5575 H   0  0  0  0  0  0  0  0  0  0  0  0  # atno 11005 bound_to 11000
  144.7543  140.5268  143.6780 LP  0  0  0  0  0  0  0  0  0  0  0  0  # atno 17320 bound_to 7965
  145.5590  139.1479  143.3352 LP  0  0  0  0  0  0  0  0  0  0  0  0  # atno 17321 bound_to 7965
  139.7235  143.9185  152.2994 LP  0  0  0  0  0  0  0  0  0  0  0  0  # atno 17342 bound_to 10162
  139.8950  144.6944  150.8728 LP  0  0  0  0  0  0  0  0  0  0  0  0  # atno 17343 bound_to 10162
  155.9845  130.4871  150.6988 LP  0  0  0  0  0  0  0  0  0  0  0  0  # atno 17370 bound_to 10713
  157.4541  131.0876  151.0815 LP  0  0  0  0  0  0  0  0  0  0  0  0  # atno 17371 bound_to 10713
  140.4015  134.7352  157.4782 LP  0  0  0  0  0  0  0  0  0  0  0  0  # atno 17394 bound_to 11000
  140.0493  134.6154  155.8882 LP  0  0  0  0  0  0  0  0  0  0  0  0  # atno 17395 bound_to 11000

$$$$
