AV-unprocessed.smi:1800|AV-procd|sdf|7266|dock6
  -GOLD-   22720 8523D 1   1.00000     0.00000
 Structure written by MMmdl.
 35 36  0  0  0  0  0  0  0  0  2 V2000
  150.7723  141.1049  158.1647 C   0  0  0  0  0  0  0  0  0  0  0  0
  151.7600  141.7835  157.2056 C   0  0  1  0  0  0  0  0  0  0  0  0
  152.9254  142.4667  157.9660 C   0  0  0  0  0  0  0  0  0  0  0  0
  152.5023  143.4193  158.9894 N   0  0  0  0  0  0  0  0  0  0  0  0
  151.6385  144.4920  158.8702 C   0  0  0  0  0  0  0  0  0  0  0  0
  151.5446  145.0819  160.0979 C   0  0  0  0  0  0  0  0  0  0  0  0
  152.3867  144.2840  160.9208 C   0  0  0  0  0  0  0  0  0  0  0  0
  152.9445  143.2824  160.2615 N   0  0  0  0  0  0  0  0  0  0  0  0
  152.2813  140.7863  156.2807 N   0  5  0  0  0  0  0  0  0  0  0  0
  151.2623  139.9757  155.3133 S   0  0  0  0  0  0  0  0  0  0  0  0
  149.8565  140.1780  155.6999 O   0  0  0  0  0  0  0  0  0  0  0  0
  151.5867  140.1342  153.8857 O   0  0  0  0  0  0  0  0  0  0  0  0
  151.6919  138.2257  155.7682 C   0  0  0  0  0  0  0  0  0  0  0  0
  150.8211  137.2166  155.0078 C   0  0  0  0  0  0  0  0  0  0  0  0
  149.5729  136.9805  155.8720 C   0  0  0  0  0  0  0  0  0  0  0  0
  149.8736  137.5933  157.2478 C   0  0  0  0  0  0  0  0  0  0  0  0
  151.3664  137.9288  157.2356 C   0  0  0  0  0  0  0  0  0  0  0  0
  150.3503  141.8266  158.8642 H   0  0  0  0  0  0  0  0  0  0  0  0
  151.2568  140.3213  158.7489 H   0  0  0  0  0  0  0  0  0  0  0  0
  149.9422  140.6523  157.6207 H   0  0  0  0  0  0  0  0  0  0  0  0
  151.2057  142.5639  156.6820 H   0  0  0  0  0  0  0  0  0  0  0  0
  153.5313  141.7070  158.4611 H   0  0  0  0  0  0  0  0  0  0  0  0
  153.5904  142.9728  157.2638 H   0  0  0  0  0  0  0  0  0  0  0  0
  151.1770  144.7478  157.9279 H   0  0  0  0  0  0  0  0  0  0  0  0
  150.9652  145.9523  160.3658 H   0  0  0  0  0  0  0  0  0  0  0  0
  152.6034  144.3983  161.9725 H   0  0  0  0  0  0  0  0  0  0  0  0
  152.7547  138.0852  155.5703 H   0  0  0  0  0  0  0  0  0  0  0  0
  150.5731  137.5516  154.0003 H   0  0  0  0  0  0  0  0  0  0  0  0
  151.3678  136.2786  154.9060 H   0  0  0  0  0  0  0  0  0  0  0  0
  148.6957  137.4542  155.4295 H   0  0  0  0  0  0  0  0  0  0  0  0
  149.3600  135.9142  155.9518 H   0  0  0  0  0  0  0  0  0  0  0  0
  149.2940  138.5084  157.3754 H   0  0  0  0  0  0  0  0  0  0  0  0
  149.6100  136.9241  158.0670 H   0  0  0  0  0  0  0  0  0  0  0  0
  151.9336  137.0548  157.5580 H   0  0  0  0  0  0  0  0  0  0  0  0
  151.6189  138.7436  157.9139 H   0  0  0  0  0  0  0  0  0  0  0  0
  1  2  1  0  0  0  0
  1 18  1  0  0  0  0
  1 19  1  0  0  0  0
  1 20  1  0  0  0  0
  2  3  1  0  0  0  0
  2  9  1  0  0  0  0
  2 21  1  0  0  0  0
  3  4  1  0  0  0  0
  3 22  1  0  0  0  0
  3 23  1  0  0  0  0
  4  8  1  0  0  0  0
  4  5  1  0  0  0  0
  5  6  2  0  0  0  0
  5 24  1  0  0  0  0
  6  7  1  0  0  0  0
  6 25  1  0  0  0  0
  7  8  2  0  0  0  0
  7 26  1  0  0  0  0
  9 10  1  0  0  0  0
 10 11  2  0  0  0  0
 10 12  2  0  0  0  0
 10 13  1  0  0  0  0
 13 17  1  0  0  0  0
 13 14  1  0  0  0  0
 13 27  1  0  0  0  0
 14 15  1  0  0  0  0
 14 28  1  0  0  0  0
 14 29  1  0  0  0  0
 15 16  1  0  0  0  0
 15 30  1  0  0  0  0
 15 31  1  0  0  0  0
 16 17  1  0  0  0  0
 16 32  1  0  0  0  0
 16 33  1  0  0  0  0
 17 34  1  0  0  0  0
 17 35  1  0  0  0  0
M  CHG  1   9  -1
M  END
> <s_m_source_file>
AV-unprocessed.smi

> <i_m_source_file_index>
1800

> <i_lp_mmshare_version>
43012

> <i_f3d_flags>
0

> <s_epik_input>
bjFbY0hdW2NIXVtjSF1uMVtDSDJdW0NAQEhdKFtDSDNdKVtOSF1TKD1PKSg9TylbQ0hdMltDSDJdW0NIMl1bQ0gyXVtDSDJdMg==

> <s_epik_cmdline>
J2VwaWtfcHl0aG9uJywgJy1waCcsICc3LjAnLCAnLXRuJywgJzgnLCAnLW1hJywgJzIwMCcsICctbWV0YWxfYmluZGluZycsICctaW1hZScsICc8aW5maWxlLm1hZT4nLCAnLW9tYWUnLCAnPG91dGZpbGUubWFlPic=

> <r_lp_tautomer_probability>
1

> <r_epik_Ionization_Penalty>
6.58538

> <r_epik_Ionization_Penalty_Charging>
6.58536

> <r_epik_Ionization_Penalty_Neutral>
2.3841e-05

> <r_epik_State_Penalty>
6.58535

> <r_epik_Charging_Adjusted_Penalty>
13.1707

> <i_epik_Tot_Q>
-1

> <i_epik_Tot_abs_Q>
1

> <r_epik_Metal_State_Penalty>
2.50999

> <b_epik_Metal_Only>
1

> <s_lp_Force_Field>
OPLS_2005

> <r_lp_Energy>
15.5507

> <b_lp_Chiralities_Consistent>
1

> <s_lp_Variant>
AV-unprocessed.smi:1800-4

> <Gold.Version>
5.8.1

> <Gold.Id.Protein>
6NUR|6NUR_protein|mol2

> <Gold.PLP.Fitness>
42.1194

> <Gold.PLP.PLP>
-33.4592

> <Gold.PLP.part.hbond>
-4.5339

> <Gold.PLP.part.metal>
0.0000

> <Gold.PLP.part.buried>
-5.0547

> <Gold.PLP.part.nonpolar>
-23.4164

> <Gold.PLP.part.repulsive>
0.1488

> <Gold.PLP.ligand.clash>
0.0000

> <Gold.PLP.ligand.torsion>
0.6323

> <Gold.PLP.Chemscore.Hbond>
2.9424

> <Gold.PLP.Chemscore.CHOScore>
0.0000

> <Gold.PLP.Chemscore.Metal>
0.0000

> <Gold.Chemscore.Hbonds>
donor molecule, donor type, donor heavy atom, donor atom, acceptor molecule, acceptor atom, score
      P1  H  7997  8008       L1     9  0.31

> <Gold.PLP.Chemscore.Internal.Correction>
1.0976

> <Gold.Rescore>
     Score         DG    S(hbond)    S(metal)    S(lipo)     H(rot)  DE(clash)    DE(int)     intcor
     11.85     -15.36       1.38        0.00      78.27       1.51       0.37       3.14       ----

> <Gold.Chemscore.Fitness>
11.8504

> <Gold.Chemscore.DG>
-15.3554

> <Gold.Chemscore.ZeroCoef>
-5.4800

> <Gold.Chemscore.Hbond>
1.3758

> <Gold.Chemscore.Metal>
0.0000

> <Gold.Chemscore.Lipo>
78.2690

> <Gold.Chemscore.Internal_Hbond>
0.0000

> <Gold.Chemscore.DEClash>
0.3678

> <Gold.Chemscore.DEInternal>
3.1372

> <Gold.Chemscore.Rot>
1.5146

> <Gold.Chemscore.Internal.Correction>
   9.000000E+99

> <Gold.Chemscore.Hbonds>
donor molecule, donor type, donor heavy atom, donor atom, acceptor molecule, acceptor atom, score
      P1  H  7997  8008       L1     9  0.13

> <Gold.Chemscore.Hbond.Weighted>
-4.5953

> <Gold.Chemscore.Metal.Weighted>
-0.0000

> <Gold.Chemscore.Lipo.Weighted>
-9.1575

> <Gold.Chemscore.Internal_Hbond.Weighted>
0.0000

> <Gold.Chemscore.DEClash.Weighted>
0.3678

> <Gold.Chemscore.DEInternal.Weighted>
3.1372

> <Gold.Chemscore.Rot.Weighted>
3.8773

> <Gold.Chemscore.Internal.Correction.Weighted>
   9.000000E+99

> <Gold.Protein.RotatedTorsions>
[ 6907 6896 6895 6894 ] final   16.88 input  -60.11 | X-H torsion
[ 7974 7965 7964 7962 ] final    4.08 input  175.53 | X-H torsion
[ 8008 7997 7996 7995 ] final  -70.17 input   59.86 | X-H torsion
[ 10167 10162 10161 10158 ] final  -96.54 input  -65.29 | X-H torsion
[ 10718 10713 10712 10709 ] final  -47.69 input   66.30 | X-H torsion
[ 10763 10752 10751 10750 ] final   -0.55 input  -60.55 | X-H torsion
[ 11005 11000 10999 10996 ] final   59.45 input  -57.11 | X-H torsion

> <Gold.Protein.ActiveResidues>
 VAL166  LYS551  ARG553  GLY616  TRP617  ASP618  TYR619  PRO620  LYS621  CYS622 
 ASP623  PHE694  ASN695  SER759  ASP760  ASP761  ALA762  ILE779  LEU786  VAL792 
 PHE793  MET794  SER795  GLU796  ALA797  LYS798  CYS799  TRP800  GLU811  SER814 

> <Gold.Protein.RotatedAtoms>
  151.8409  135.0590  160.0447 H   0  0  0  0  0  0  0  0  0  0  0  0  # atno 6907 bound_to 6896
  152.2809  133.5465  159.5506 H   0  0  0  0  0  0  0  0  0  0  0  0  # atno 6908 bound_to 6896
  150.7189  134.0481  159.3831 H   0  0  0  0  0  0  0  0  0  0  0  0  # atno 6909 bound_to 6896
  146.2444  140.0588  142.8370 H   0  0  0  0  0  0  0  0  0  0  0  0  # atno 7974 bound_to 7965
  154.4992  140.0839  156.7761 H   0  0  0  0  0  0  0  0  0  0  0  0  # atno 8008 bound_to 7997
  155.4044  140.3438  155.4241 H   0  0  0  0  0  0  0  0  0  0  0  0  # atno 8009 bound_to 7997
  156.1434  140.1536  156.8873 H   0  0  0  0  0  0  0  0  0  0  0  0  # atno 8010 bound_to 7997
  140.2927  143.3211  152.0329 H   0  0  0  0  0  0  0  0  0  0  0  0  # atno 10167 bound_to 10162
  156.2059  130.4158  149.9178 H   0  0  0  0  0  0  0  0  0  0  0  0  # atno 10718 bound_to 10713
  153.3334  135.6976  153.6928 H   0  0  0  0  0  0  0  0  0  0  0  0  # atno 10763 bound_to 10752
  153.5722  135.3514  155.2843 H   0  0  0  0  0  0  0  0  0  0  0  0  # atno 10764 bound_to 10752
  154.8622  135.4275  154.2528 H   0  0  0  0  0  0  0  0  0  0  0  0  # atno 10765 bound_to 10752
  140.0303  134.6022  155.9516 H   0  0  0  0  0  0  0  0  0  0  0  0  # atno 11005 bound_to 11000
  145.0918  140.9289  143.4764 LP  0  0  0  0  0  0  0  0  0  0  0  0  # atno 17320 bound_to 7965
  145.0763  139.2993  143.5806 LP  0  0  0  0  0  0  0  0  0  0  0  0  # atno 17321 bound_to 7965
  139.4934  144.6513  151.6670 LP  0  0  0  0  0  0  0  0  0  0  0  0  # atno 17342 bound_to 10162
  140.5718  144.0096  150.6221 LP  0  0  0  0  0  0  0  0  0  0  0  0  # atno 17343 bound_to 10162
  156.6872  130.8881  151.3583 LP  0  0  0  0  0  0  0  0  0  0  0  0  # atno 17370 bound_to 10713
  157.7012  130.9335  150.0791 LP  0  0  0  0  0  0  0  0  0  0  0  0  # atno 17371 bound_to 10713
  141.1827  133.6549  156.5087 LP  0  0  0  0  0  0  0  0  0  0  0  0  # atno 17394 bound_to 11000
  140.4237  134.7164  157.4904 LP  0  0  0  0  0  0  0  0  0  0  0  0  # atno 17395 bound_to 11000

$$$$
