AV-unprocessed.smi:1668|AV-procd|sdf|6681|dock1
  -GOLD-   22720 7393D 1   1.00000     0.00000
 Structure written by MMmdl.
 44 46  0  0  0  0  0  0  0  0  1 V2000
  155.2561  141.8893  165.7555 C   0  0  0  0  0  0  0  0  0  0  0  0
  155.2929  141.2931  164.4672 O   0  0  0  0  0  0  0  0  0  0  0  0
  155.0934  139.9324  164.3765 C   0  0  0  0  0  0  0  0  0  0  0  0
  154.9823  139.0676  165.4903 C   0  0  0  0  0  0  0  0  0  0  0  0
  154.7689  137.6896  165.3042 C   0  0  0  0  0  0  0  0  0  0  0  0
  154.6616  137.1399  164.0031 C   0  0  0  0  0  0  0  0  0  0  0  0
  154.4315  135.7999  163.7679 O   0  0  0  0  0  0  0  0  0  0  0  0
  154.4600  134.9061  164.8704 C   0  0  0  0  0  0  0  0  0  0  0  0
  154.7805  138.0018  162.8847 C   0  0  0  0  0  0  0  0  0  0  0  0
  154.6290  137.4631  161.4613 C   0  0  2  0  0  0  0  0  0  0  0  0
  155.4682  136.3544  161.2068 O   0  0  0  0  0  0  0  0  0  0  0  0
  154.9117  138.5367  160.3864 C   0  0  0  0  0  0  0  0  0  0  0  0
  153.6923  138.9818  159.7104 N   0  0  0  0  0  0  0  0  0  0  0  0
  152.7838  138.1858  159.0981 C   0  0  0  0  0  0  0  0  0  0  0  0
  152.8631  136.9637  158.9735 O   0  0  0  0  0  0  0  0  0  0  0  0
  151.7574  138.9630  158.6817 N   0  0  0  0  0  0  0  0  0  0  0  0
  150.5389  138.5178  158.0170 C   0  0  0  0  0  0  0  0  0  0  0  0
  152.0068  140.2908  159.0508 C   0  0  0  0  0  0  0  0  0  0  0  0
  151.2406  141.4560  158.8763 C   0  0  0  0  0  0  0  0  0  0  0  0
  151.7729  142.6619  159.3894 C   0  0  0  0  0  0  0  0  0  0  0  0
  153.0283  142.6790  160.0507 C   0  0  0  0  0  0  0  0  0  0  0  0
  153.7789  141.4912  160.2112 C   0  0  0  0  0  0  0  0  0  0  0  0
  153.2274  140.3063  159.6924 C   0  0  0  0  0  0  0  0  0  0  0  0
  154.9915  139.3843  163.0841 C   0  0  0  0  0  0  0  0  0  0  0  0
  155.4281  142.9614  165.6608 H   0  0  0  0  0  0  0  0  0  0  0  0
  156.0355  141.4863  166.4036 H   0  0  0  0  0  0  0  0  0  0  0  0
  154.2836  141.7526  166.2307 H   0  0  0  0  0  0  0  0  0  0  0  0
  155.0537  139.4371  166.5018 H   0  0  0  0  0  0  0  0  0  0  0  0
  154.6889  137.0712  166.1848 H   0  0  0  0  0  0  0  0  0  0  0  0
  154.1516  133.9161  164.5347 H   0  0  0  0  0  0  0  0  0  0  0  0
  153.7664  135.2173  165.6531 H   0  0  0  0  0  0  0  0  0  0  0  0
  155.4636  134.8163  165.2874 H   0  0  0  0  0  0  0  0  0  0  0  0
  153.6134  137.0907  161.3260 H   0  0  0  0  0  0  0  0  0  0  0  0
  155.3526  136.0929  160.3060 H   0  0  0  0  0  0  0  0  0  0  0  0
  155.4157  139.3941  160.8334 H   0  0  0  0  0  0  0  0  0  0  0  0
  155.6033  138.1420  159.6401 H   0  0  0  0  0  0  0  0  0  0  0  0
  150.2712  139.2003  157.2099 H   0  0  0  0  0  0  0  0  0  0  0  0
  149.7142  138.4881  158.7294 H   0  0  0  0  0  0  0  0  0  0  0  0
  150.6526  137.5219  157.5864 H   0  0  0  0  0  0  0  0  0  0  0  0
  150.2838  141.4343  158.3762 H   0  0  0  0  0  0  0  0  0  0  0  0
  151.2159  143.5805  159.2783 H   0  0  0  0  0  0  0  0  0  0  0  0
  153.4148  143.6099  160.4387 H   0  0  0  0  0  0  0  0  0  0  0  0
  154.7310  141.4994  160.7204 H   0  0  0  0  0  0  0  0  0  0  0  0
  155.0626  140.0450  162.2323 H   0  0  0  0  0  0  0  0  0  0  0  0
  1  2  1  0  0  0  0
  1 25  1  0  0  0  0
  1 26  1  0  0  0  0
  1 27  1  0  0  0  0
  2  3  1  0  0  0  0
  3 24  1  0  0  0  0
  3  4  2  0  0  0  0
  4  5  1  0  0  0  0
  4 28  1  0  0  0  0
  5  6  2  0  0  0  0
  5 29  1  0  0  0  0
  6  7  1  0  0  0  0
  6  9  1  0  0  0  0
  7  8  1  0  0  0  0
  8 30  1  0  0  0  0
  8 31  1  0  0  0  0
  8 32  1  0  0  0  0
  9 10  1  0  0  0  0
  9 24  2  0  0  0  0
 10 11  1  0  0  0  0
 10 12  1  0  0  0  0
 10 33  1  0  0  0  0
 11 34  1  0  0  0  0
 12 13  1  0  0  0  0
 12 35  1  0  0  0  0
 12 36  1  0  0  0  0
 13 23  1  0  0  0  0
 13 14  1  0  0  0  0
 14 15  2  0  0  0  0
 14 16  1  0  0  0  0
 16 17  1  0  0  0  0
 16 18  1  0  0  0  0
 17 37  1  0  0  0  0
 17 38  1  0  0  0  0
 17 39  1  0  0  0  0
 18 23  2  0  0  0  0
 18 19  1  0  0  0  0
 19 20  2  0  0  0  0
 19 40  1  0  0  0  0
 20 21  1  0  0  0  0
 20 41  1  0  0  0  0
 21 22  2  0  0  0  0
 21 42  1  0  0  0  0
 22 23  1  0  0  0  0
 22 43  1  0  0  0  0
 24 44  1  0  0  0  0
M  END
> <s_m_source_file>
AV-unprocessed.smi

> <i_m_source_file_index>
1668

> <i_lp_mmshare_version>
43012

> <i_f3d_flags>
0

> <s_epik_input>
W0NIM11PYzFbY0hdW2NIXWMoT1tDSDNdKWMoW2NIXTEpW0NASF0oW09IXSlbQ0gyXW4oYyg9TyluMltDSDNdKWMoYzIzKVtjSF1bY0hdW2NIXVtjSF0z

> <s_epik_cmdline>
J2VwaWtfcHl0aG9uJywgJy1waCcsICc3LjAnLCAnLXRuJywgJzgnLCAnLW1hJywgJzIwMCcsICctbWV0YWxfYmluZGluZycsICctaW1hZScsICc8aW5maWxlLm1hZT4nLCAnLW9tYWUnLCAnPG91dGZpbGUubWFlPic=

> <r_lp_tautomer_probability>
1

> <r_epik_Ionization_Penalty>
1.34538e-06

> <r_epik_Ionization_Penalty_Charging>
1.76928e-09

> <r_epik_Ionization_Penalty_Neutral>
1.34362e-06

> <r_epik_State_Penalty>
-0

> <r_epik_Charging_Adjusted_Penalty>
1.76928e-09

> <i_epik_Tot_Q>
0

> <i_epik_Tot_abs_Q>
0

> <r_epik_Metal_State_Penalty>
-0

> <b_epik_Metal_Only>
0

> <s_lp_Force_Field>
OPLS_2005

> <r_lp_Energy>
46.5536

> <b_lp_Chiralities_Consistent>
1

> <s_lp_Variant>
AV-unprocessed.smi:1668-1

> <Gold.Version>
5.8.1

> <Gold.Id.Protein>
6NUR|6NUR_protein|mol2

> <Gold.PLP.Fitness>
43.1458

> <Gold.PLP.PLP>
-41.8593

> <Gold.PLP.part.hbond>
-2.0000

> <Gold.PLP.part.metal>
0.0000

> <Gold.PLP.part.buried>
-2.9111

> <Gold.PLP.part.nonpolar>
-37.7967

> <Gold.PLP.part.repulsive>
0.0590

> <Gold.PLP.ligand.clash>
0.0000

> <Gold.PLP.ligand.torsion>
0.9248

> <Gold.PLP.Chemscore.Hbond>
1.0000

> <Gold.PLP.Chemscore.CHOScore>
0.0000

> <Gold.PLP.Chemscore.Metal>
0.0000

> <Gold.Chemscore.Hbonds>
donor molecule, donor type, donor heavy atom, donor atom, acceptor molecule, acceptor atom, score
      P1  H  6896  6907       L1    15  0.09

> <Gold.PLP.Chemscore.Internal.Correction>
0.1362

> <Gold.Rescore>
     Score         DG    S(hbond)    S(metal)    S(lipo)     H(rot)  DE(clash)    DE(int)     intcor
     15.02     -16.23       0.74        0.00     120.02       2.24       0.29       0.92       ----

> <Gold.Chemscore.Fitness>
15.0205

> <Gold.Chemscore.DG>
-16.2343

> <Gold.Chemscore.ZeroCoef>
-5.4800

> <Gold.Chemscore.Hbond>
0.7362

> <Gold.Chemscore.Metal>
0.0000

> <Gold.Chemscore.Lipo>
120.0171

> <Gold.Chemscore.Internal_Hbond>
0.0000

> <Gold.Chemscore.DEClash>
0.2897

> <Gold.Chemscore.DEInternal>
0.9241

> <Gold.Chemscore.Rot>
2.2448

> <Gold.Chemscore.Internal.Correction>
   9.000000E+99

> <Gold.Chemscore.Hbonds>
donor molecule, donor type, donor heavy atom, donor atom, acceptor molecule, acceptor atom, score
      P1  H  6896  6907       L1    15  0.12

> <Gold.Chemscore.Hbond.Weighted>
-2.4590

> <Gold.Chemscore.Metal.Weighted>
-0.0000

> <Gold.Chemscore.Lipo.Weighted>
-14.0420

> <Gold.Chemscore.Internal_Hbond.Weighted>
0.0000

> <Gold.Chemscore.DEClash.Weighted>
0.2897

> <Gold.Chemscore.DEInternal.Weighted>
0.9241

> <Gold.Chemscore.Rot.Weighted>
5.7467

> <Gold.Chemscore.Internal.Correction.Weighted>
   9.000000E+99

> <Gold.Protein.RotatedTorsions>
[ 6907 6896 6895 6894 ] final    5.39 input  -60.11 | X-H torsion
[ 7974 7965 7964 7962 ] final  -27.62 input  175.53 | X-H torsion
[ 8008 7997 7996 7995 ] final -164.51 input   59.86 | X-H torsion
[ 10167 10162 10161 10158 ] final  -68.78 input  -65.29 | X-H torsion
[ 10718 10713 10712 10709 ] final -133.59 input   66.30 | X-H torsion
[ 10763 10752 10751 10750 ] final  -65.27 input  -60.55 | X-H torsion
[ 11005 11000 10999 10996 ] final  147.15 input  -57.11 | X-H torsion

> <Gold.Protein.ActiveResidues>
 VAL166  LYS551  ARG553  GLY616  TRP617  ASP618  TYR619  PRO620  LYS621  CYS622 
 ASP623  PHE694  ASN695  SER759  ASP760  ASP761  ALA762  ILE779  LEU786  VAL792 
 PHE793  MET794  SER795  GLU796  ALA797  LYS798  CYS799  TRP800  GLU811  SER814 

> <Gold.Protein.RotatedAtoms>
  151.6568  135.0994  160.0171 H   0  0  0  0  0  0  0  0  0  0  0  0  # atno 6907 bound_to 6896
  152.3970  133.6756  159.6292 H   0  0  0  0  0  0  0  0  0  0  0  0  # atno 6908 bound_to 6896
  150.7875  133.8774  159.3317 H   0  0  0  0  0  0  0  0  0  0  0  0  # atno 6909 bound_to 6896
  146.1345  140.5176  142.8679 H   0  0  0  0  0  0  0  0  0  0  0  0  # atno 7974 bound_to 7965
  155.8367  140.0942  157.1759 H   0  0  0  0  0  0  0  0  0  0  0  0  # atno 8008 bound_to 7997
  154.3981  140.1409  156.3740 H   0  0  0  0  0  0  0  0  0  0  0  0  # atno 8009 bound_to 7997
  155.8108  140.3450  155.5459 H   0  0  0  0  0  0  0  0  0  0  0  0  # atno 8010 bound_to 7997
  140.5481  143.2312  151.6964 H   0  0  0  0  0  0  0  0  0  0  0  0  # atno 10167 bound_to 10162
  156.2465  130.7127  151.1009 H   0  0  0  0  0  0  0  0  0  0  0  0  # atno 10718 bound_to 10713
  154.3425  135.6153  153.5603 H   0  0  0  0  0  0  0  0  0  0  0  0  # atno 10763 bound_to 10752
  152.9803  135.5773  154.4836 H   0  0  0  0  0  0  0  0  0  0  0  0  # atno 10764 bound_to 10752
  154.4543  135.2854  155.1736 H   0  0  0  0  0  0  0  0  0  0  0  0  # atno 10765 bound_to 10752
  140.0852  134.9073  157.1564 H   0  0  0  0  0  0  0  0  0  0  0  0  # atno 11005 bound_to 11000
  144.7725  140.5668  143.6660 LP  0  0  0  0  0  0  0  0  0  0  0  0  # atno 17320 bound_to 7965
  145.5187  139.1477  143.3564 LP  0  0  0  0  0  0  0  0  0  0  0  0  # atno 17321 bound_to 7965
  139.5016  144.3862  152.0326 LP  0  0  0  0  0  0  0  0  0  0  0  0  # atno 17342 bound_to 10162
  140.2977  144.3682  150.6069 LP  0  0  0  0  0  0  0  0  0  0  0  0  # atno 17343 bound_to 10162
  157.7197  131.0689  150.6186 LP  0  0  0  0  0  0  0  0  0  0  0  0  # atno 17370 bound_to 10713
  156.6263  130.4419  149.5803 LP  0  0  0  0  0  0  0  0  0  0  0  0  # atno 17371 bound_to 10713
  140.3430  134.2682  155.7209 LP  0  0  0  0  0  0  0  0  0  0  0  0  # atno 17394 bound_to 11000
  141.2060  133.7845  157.0201 LP  0  0  0  0  0  0  0  0  0  0  0  0  # atno 17395 bound_to 11000

$$$$
