AV-unprocessed.smi:886|AV-procd|sdf|4050|dock10
  -GOLD-   22720 1533D 1   1.00000     0.00000
 Structure written by MMmdl.
 35 37  0  0  0  0  0  0  0  0  1 V2000
  155.2598  140.3649  160.7311 C   0  0  0  0  0  0  0  0  0  0  0  0
  154.2661  141.3441  160.3191 N   0  0  0  0  0  0  0  0  0  0  0  0
  153.4488  141.1916  159.2659 C   0  0  0  0  0  0  0  0  0  0  0  0
  153.4726  140.2045  158.5299 O   0  0  0  0  0  0  0  0  0  0  0  0
  152.5048  142.3393  159.0130 C   0  0  0  0  0  0  0  0  0  0  0  0
  152.7885  143.6093  159.5684 C   0  0  0  0  0  0  0  0  0  0  0  0
  151.8942  144.6746  159.3617 C   0  0  0  0  0  0  0  0  0  0  0  0
  150.7344  144.4311  158.6066 C   0  0  0  0  0  0  0  0  0  0  0  0
  150.4430  143.2283  158.0723 N   0  0  0  0  0  0  0  0  0  0  0  0
  151.2993  142.1952  158.2664 C   0  0  0  0  0  0  0  0  0  0  0  0
  150.9629  140.9663  157.6699 N   0  0  0  0  0  0  0  0  0  0  0  0
  149.7714  140.8374  156.8377 C   0  0  2  0  0  0  0  0  0  0  0  0
  149.4490  139.3819  156.4745 C   0  0  0  0  0  0  0  0  0  0  0  0
  149.4360  139.4318  154.9416 C   0  0  1  0  0  0  0  0  0  0  0  0
  148.2391  140.2221  154.3955 C   0  0  0  0  0  0  0  0  0  0  0  0
  148.6377  141.6600  154.7264 C   0  0  0  0  0  0  0  0  0  0  0  0
  149.9785  141.4590  155.4462 C   0  0  2  0  0  0  0  0  0  0  0  0
  150.4859  140.3547  154.7140 O   0  0  0  0  0  0  0  0  0  0  0  0
  155.8020  140.7297  161.6033 H   0  0  0  0  0  0  0  0  0  0  0  0
  155.9807  140.1836  159.9329 H   0  0  0  0  0  0  0  0  0  0  0  0
  154.7858  139.4184  160.9947 H   0  0  0  0  0  0  0  0  0  0  0  0
  154.1960  142.1908  160.8651 H   0  0  0  0  0  0  0  0  0  0  0  0
  153.6797  143.7730  160.1569 H   0  0  0  0  0  0  0  0  0  0  0  0
  152.0902  145.6522  159.7764 H   0  0  0  0  0  0  0  0  0  0  0  0
  150.0213  145.2218  158.4271 H   0  0  0  0  0  0  0  0  0  0  0  0
  151.3050  140.1249  158.1124 H   0  0  0  0  0  0  0  0  0  0  0  0
  148.9297  141.3229  157.3336 H   0  0  0  0  0  0  0  0  0  0  0  0
  150.2259  138.6982  156.8200 H   0  0  0  0  0  0  0  0  0  0  0  0
  148.4975  139.0481  156.8890 H   0  0  0  0  0  0  0  0  0  0  0  0
  149.5807  138.4612  154.4665 H   0  0  0  0  0  0  0  0  0  0  0  0
  148.1451  140.0901  153.3171 H   0  0  0  0  0  0  0  0  0  0  0  0
  147.2994  139.9240  154.8615 H   0  0  0  0  0  0  0  0  0  0  0  0
  148.7736  142.2380  153.8116 H   0  0  0  0  0  0  0  0  0  0  0  0
  147.9025  142.1725  155.3477 H   0  0  0  0  0  0  0  0  0  0  0  0
  150.6150  142.3447  155.4356 H   0  0  0  0  0  0  0  0  0  0  0  0
  1  2  1  0  0  0  0
  1 19  1  0  0  0  0
  1 20  1  0  0  0  0
  1 21  1  0  0  0  0
  2  3  1  0  0  0  0
  2 22  1  0  0  0  0
  3  4  2  0  0  0  0
  3  5  1  0  0  0  0
  5 10  1  0  0  0  0
  5  6  2  0  0  0  0
  6  7  1  0  0  0  0
  6 23  1  0  0  0  0
  7  8  2  0  0  0  0
  7 24  1  0  0  0  0
  8  9  1  0  0  0  0
  8 25  1  0  0  0  0
  9 10  2  0  0  0  0
 10 11  1  0  0  0  0
 11 12  1  0  0  0  0
 11 26  1  0  0  0  0
 12 17  1  0  0  0  0
 12 13  1  0  0  0  0
 12 27  1  0  0  0  0
 13 14  1  0  0  0  0
 13 28  1  0  0  0  0
 13 29  1  0  0  0  0
 14 18  1  0  0  0  0
 14 15  1  0  0  0  0
 14 30  1  0  0  0  0
 15 16  1  0  0  0  0
 15 31  1  0  0  0  0
 15 32  1  0  0  0  0
 16 17  1  0  0  0  0
 16 33  1  0  0  0  0
 16 34  1  0  0  0  0
 17 18  1  0  0  0  0
 17 35  1  0  0  0  0
M  END
> <s_m_source_file>
AV-unprocessed.smi

> <i_m_source_file_index>
886

> <i_lp_mmshare_version>
43012

> <i_f3d_flags>
0

> <s_epik_input>
W0NIM11bTkhdQyg9TyljMVtjSF1bY0hdW2NIXW5jMVtOSF1bQ0BIXShbQ0gyXVtDQEhdMjMpW0NASF0oTzMpW0NIMl1bQ0gyXTI=

> <s_epik_cmdline>
J2VwaWtfcHl0aG9uJywgJy1waCcsICc3LjAnLCAnLXRuJywgJzgnLCAnLW1hJywgJzIwMCcsICctbWV0YWxfYmluZGluZycsICctaW1hZScsICc8aW5maWxlLm1hZT4nLCAnLW9tYWUnLCAnPG91dGZpbGUubWFlPic=

> <r_lp_tautomer_probability>
1

> <r_epik_Ionization_Penalty>
0.0065447

> <r_epik_Ionization_Penalty_Charging>
0

> <r_epik_Ionization_Penalty_Neutral>
0.0065447

> <r_epik_State_Penalty>
0.00484214

> <r_epik_Charging_Adjusted_Penalty>
0.00484214

> <i_epik_Tot_Q>
0

> <i_epik_Tot_abs_Q>
0

> <r_epik_Metal_State_Penalty>
-0

> <b_epik_Metal_Only>
0

> <s_lp_Force_Field>
OPLS_2005

> <r_lp_Energy>
46.3803

> <b_lp_Chiralities_Consistent>
1

> <s_lp_Variant>
AV-unprocessed.smi:886-3

> <Gold.Version>
5.8.1

> <Gold.Id.Protein>
6NUR|6NUR_protein|mol2

> <Gold.PLP.Fitness>
43.3501

> <Gold.PLP.PLP>
-35.0955

> <Gold.PLP.part.hbond>
-2.0000

> <Gold.PLP.part.metal>
0.0000

> <Gold.PLP.part.buried>
-3.6011

> <Gold.PLP.part.nonpolar>
-29.2659

> <Gold.PLP.part.repulsive>
0.3393

> <Gold.PLP.ligand.clash>
0.0000

> <Gold.PLP.ligand.torsion>
0.3488

> <Gold.PLP.Chemscore.Hbond>
1.9760

> <Gold.PLP.Chemscore.CHOScore>
1.0003

> <Gold.PLP.Chemscore.Metal>
0.0000

> <Gold.Chemscore.Hbonds>
donor molecule, donor type, donor heavy atom, donor atom, acceptor molecule, acceptor atom, score
      P1  H  7989  7998       L1    18  1.00
      P1  H  7997  8009       L1     4  0.94
      L1  C     8    25       P1  8029  1.00

> <Gold.PLP.Chemscore.Internal.Correction>
0.0234

> <Gold.Rescore>
     Score         DG    S(hbond)    S(metal)    S(lipo)     H(rot)  DE(clash)    DE(int)     intcor
     18.72     -19.15       1.78        0.00      87.89       1.00       0.14       0.29       ----

> <Gold.Chemscore.Fitness>
18.7218

> <Gold.Chemscore.DG>
-19.1487

> <Gold.Chemscore.ZeroCoef>
-5.4800

> <Gold.Chemscore.Hbond>
1.7800

> <Gold.Chemscore.Metal>
0.0000

> <Gold.Chemscore.Lipo>
87.8932

> <Gold.Chemscore.Internal_Hbond>
0.0000

> <Gold.Chemscore.DEClash>
0.1364

> <Gold.Chemscore.DEInternal>
0.2905

> <Gold.Chemscore.Rot>
1.0000

> <Gold.Chemscore.Internal.Correction>
   9.000000E+99

> <Gold.Chemscore.Hbonds>
donor molecule, donor type, donor heavy atom, donor atom, acceptor molecule, acceptor atom, score
      P1  H  7989  7998       L1    18  0.77
      P1  H  7997  8009       L1     4  0.90

> <Gold.Chemscore.Hbond.Weighted>
-5.9452

> <Gold.Chemscore.Metal.Weighted>
-0.0000

> <Gold.Chemscore.Lipo.Weighted>
-10.2835

> <Gold.Chemscore.Internal_Hbond.Weighted>
0.0000

> <Gold.Chemscore.DEClash.Weighted>
0.1364

> <Gold.Chemscore.DEInternal.Weighted>
0.2905

> <Gold.Chemscore.Rot.Weighted>
2.5600

> <Gold.Chemscore.Internal.Correction.Weighted>
   9.000000E+99

> <Gold.Protein.RotatedTorsions>
[ 6907 6896 6895 6894 ] final  -34.05 input  -60.11 | X-H torsion
[ 7974 7965 7964 7962 ] final  132.57 input  175.53 | X-H torsion
[ 8008 7997 7996 7995 ] final  149.78 input   59.86 | X-H torsion
[ 10167 10162 10161 10158 ] final -146.60 input  -65.29 | X-H torsion
[ 10718 10713 10712 10709 ] final    0.95 input   66.30 | X-H torsion
[ 10763 10752 10751 10750 ] final  -35.80 input  -60.55 | X-H torsion
[ 11005 11000 10999 10996 ] final  -86.97 input  -57.11 | X-H torsion

> <Gold.Protein.ActiveResidues>
 VAL166  LYS551  ARG553  GLY616  TRP617  ASP618  TYR619  PRO620  LYS621  CYS622 
 ASP623  PHE694  ASN695  SER759  ASP760  ASP761  ALA762  ILE779  LEU786  VAL792 
 PHE793  MET794  SER795  GLU796  ALA797  LYS798  CYS799  TRP800  GLU811  SER814 

> <Gold.Protein.RotatedAtoms>
  151.0577  134.9715  159.8243 H   0  0  0  0  0  0  0  0  0  0  0  0  # atno 6907 bound_to 6896
  152.5390  134.2457  159.8889 H   0  0  0  0  0  0  0  0  0  0  0  0  # atno 6908 bound_to 6896
  151.2476  133.4324  159.2644 H   0  0  0  0  0  0  0  0  0  0  0  0  # atno 6909 bound_to 6896
  144.9954  139.4364  143.5318 H   0  0  0  0  0  0  0  0  0  0  0  0  # atno 7974 bound_to 7965
  156.2742  140.2092  156.5912 H   0  0  0  0  0  0  0  0  0  0  0  0  # atno 8008 bound_to 7997
  154.6981  140.0523  157.0454 H   0  0  0  0  0  0  0  0  0  0  0  0  # atno 8009 bound_to 7997
  155.0773  140.3183  155.4615 H   0  0  0  0  0  0  0  0  0  0  0  0  # atno 8010 bound_to 7997
  139.7698  143.8254  152.2622 H   0  0  0  0  0  0  0  0  0  0  0  0  # atno 10167 bound_to 10162
  156.8410  130.5521  149.5677 H   0  0  0  0  0  0  0  0  0  0  0  0  # atno 10718 bound_to 10713
  153.8692  135.6832  153.4776 H   0  0  0  0  0  0  0  0  0  0  0  0  # atno 10763 bound_to 10752
  153.1297  135.4703  154.9327 H   0  0  0  0  0  0  0  0  0  0  0  0  # atno 10764 bound_to 10752
  154.7722  135.3242  154.8116 H   0  0  0  0  0  0  0  0  0  0  0  0  # atno 10765 bound_to 10752
  141.1623  133.7484  156.9239 H   0  0  0  0  0  0  0  0  0  0  0  0  # atno 11005 bound_to 11000
  146.3441  139.9311  142.8753 LP  0  0  0  0  0  0  0  0  0  0  0  0  # atno 17320 bound_to 7965
  145.2226  140.9941  143.4036 LP  0  0  0  0  0  0  0  0  0  0  0  0  # atno 17321 bound_to 7965
  139.8285  144.7264  150.9480 LP  0  0  0  0  0  0  0  0  0  0  0  0  # atno 17342 bound_to 10162
  140.7813  143.4092  151.1021 LP  0  0  0  0  0  0  0  0  0  0  0  0  # atno 17343 bound_to 10162
  156.0880  130.5874  150.9683 LP  0  0  0  0  0  0  0  0  0  0  0  0  # atno 17370 bound_to 10713
  157.6355  131.0916  150.8356 LP  0  0  0  0  0  0  0  0  0  0  0  0  # atno 17371 bound_to 10713
  140.1433  134.9279  157.2495 LP  0  0  0  0  0  0  0  0  0  0  0  0  # atno 17394 bound_to 11000
  140.2811  134.3349  155.7343 LP  0  0  0  0  0  0  0  0  0  0  0  0  # atno 17395 bound_to 11000

$$$$
