AV-unprocessed.smi:2427|AV-procd|sdf|9579|dock8
  -GOLD-   2272013213D 1   1.00000     0.00000
 Structure written by MMmdl.
 35 36  0  0  0  0  0  0  0  0  3 V2000
  151.6208  136.1962  155.9562 O   0  0  0  0  0  0  0  0  0  0  0  0
  150.9397  136.4888  154.9721 C   0  0  0  0  0  0  0  0  0  0  0  0
  151.0675  137.8632  154.2988 C   0  0  0  0  0  0  0  0  0  0  0  0
  149.9874  138.7974  154.6589 N   0  0  0  0  0  0  0  0  0  0  0  0
  148.6664  138.3241  154.5330 C   0  0  0  0  0  0  0  0  0  0  0  0
  147.5995  139.0923  154.8278 C   0  0  0  0  0  0  0  0  0  0  0  0
  146.2498  138.5914  154.6875 N   0  3  0  0  0  0  0  0  0  0  0  0
  145.3182  139.2978  155.0595 O   0  0  0  0  0  0  0  0  0  0  0  0
  146.0753  137.4773  154.2024 O   0  5  0  0  0  0  0  0  0  0  0  0
  147.8491  140.4446  155.2878 C   0  0  0  0  0  0  0  0  0  0  0  0
  149.1102  140.9049  155.4057 C   0  0  0  0  0  0  0  0  0  0  0  0
  150.2698  140.0679  155.0810 C   0  0  0  0  0  0  0  0  0  0  0  0
  151.4241  140.4841  155.1823 O   0  0  0  0  0  0  0  0  0  0  0  0
  150.0595  135.6451  154.4129 N   0  0  0  0  0  0  0  0  0  0  0  0
  149.7822  134.2907  154.8768 C   0  0  0  0  0  0  0  0  0  0  0  0
  149.1557  133.4261  153.7696 C   0  0  1  0  0  0  0  0  0  0  0  0
  148.9808  131.9580  154.1558 C   0  0  0  0  0  0  0  0  0  0  0  0
  147.8015  131.4979  153.3104 C   0  0  0  0  0  0  0  0  0  0  0  0
  147.2176  132.7945  152.7426 C   0  0  0  0  0  0  0  0  0  0  0  0
  147.8222  133.8304  153.5027 O   0  0  0  0  0  0  0  0  0  0  0  0
  152.0374  138.2855  154.5656 H   0  0  0  0  0  0  0  0  0  0  0  0
  151.1064  137.7263  153.2165 H   0  0  0  0  0  0  0  0  0  0  0  0
  148.5873  137.3071  154.1762 H   0  0  0  0  0  0  0  0  0  0  0  0
  147.0270  141.0985  155.5393 H   0  0  0  0  0  0  0  0  0  0  0  0
  149.2730  141.9164  155.7481 H   0  0  0  0  0  0  0  0  0  0  0  0
  149.5473  135.9613  153.6022 H   0  0  0  0  0  0  0  0  0  0  0  0
  150.7028  133.8305  155.2396 H   0  0  0  0  0  0  0  0  0  0  0  0
  149.1088  134.3523  155.7322 H   0  0  0  0  0  0  0  0  0  0  0  0
  149.7384  133.4935  152.8488 H   0  0  0  0  0  0  0  0  0  0  0  0
  149.8831  131.3712  153.9805 H   0  0  0  0  0  0  0  0  0  0  0  0
  148.7252  131.8710  155.2128 H   0  0  0  0  0  0  0  0  0  0  0  0
  148.1136  130.8283  152.5084 H   0  0  0  0  0  0  0  0  0  0  0  0
  147.0728  130.9684  153.9251 H   0  0  0  0  0  0  0  0  0  0  0  0
  147.4941  132.9123  151.6936 H   0  0  0  0  0  0  0  0  0  0  0  0
  146.1304  132.8332  152.8144 H   0  0  0  0  0  0  0  0  0  0  0  0
  1  2  2  0  0  0  0
  2  3  1  0  0  0  0
  2 14  1  0  0  0  0
  3  4  1  0  0  0  0
  3 21  1  0  0  0  0
  3 22  1  0  0  0  0
  4 12  1  0  0  0  0
  4  5  1  0  0  0  0
  5  6  2  0  0  0  0
  5 23  1  0  0  0  0
  6  7  1  0  0  0  0
  6 10  1  0  0  0  0
  7  8  2  0  0  0  0
  7  9  1  0  0  0  0
 10 11  2  0  0  0  0
 10 24  1  0  0  0  0
 11 12  1  0  0  0  0
 11 25  1  0  0  0  0
 12 13  2  0  0  0  0
 14 15  1  0  0  0  0
 14 26  1  0  0  0  0
 15 16  1  0  0  0  0
 15 27  1  0  0  0  0
 15 28  1  0  0  0  0
 16 20  1  0  0  0  0
 16 17  1  0  0  0  0
 16 29  1  0  0  0  0
 17 18  1  0  0  0  0
 17 30  1  0  0  0  0
 17 31  1  0  0  0  0
 18 19  1  0  0  0  0
 18 32  1  0  0  0  0
 18 33  1  0  0  0  0
 19 20  1  0  0  0  0
 19 34  1  0  0  0  0
 19 35  1  0  0  0  0
M  CHG  1   7   1
M  CHG  1   9  -1
M  END
> <s_m_source_file>
AV-unprocessed.smi

> <i_m_source_file_index>
2427

> <i_lp_mmshare_version>
43012

> <i_f3d_flags>
0

> <s_epik_input>
TzFbQ0gyXVtDSDJdW0NIMl1bQ0BIXTFbQ0gyXVtOSF1DKD1PKVtDSDJdbjJbY0hdYyhbTitdKD1PKVtPLV0pW2NIXVtjSF1jMj1P

> <s_epik_cmdline>
J2VwaWtfcHl0aG9uJywgJy1waCcsICc3LjAnLCAnLXRuJywgJzgnLCAnLW1hJywgJzIwMCcsICctbWV0YWxfYmluZGluZycsICctaW1hZScsICc8aW5maWxlLm1hZT4nLCAnLW9tYWUnLCAnPG91dGZpbGUubWFlPic=

> <r_lp_tautomer_probability>
1

> <r_epik_Ionization_Penalty>
2.69366e-08

> <r_epik_Ionization_Penalty_Charging>
7.76344e-11

> <r_epik_Ionization_Penalty_Neutral>
2.6859e-08

> <r_epik_State_Penalty>
-0

> <r_epik_Charging_Adjusted_Penalty>
7.76344e-11

> <i_epik_Tot_Q>
0

> <i_epik_Tot_abs_Q>
2

> <r_epik_Metal_State_Penalty>
-0

> <b_epik_Metal_Only>
0

> <s_lp_Force_Field>
OPLS_2005

> <r_lp_Energy>
28.9532

> <b_lp_Chiralities_Consistent>
1

> <s_lp_Variant>
AV-unprocessed.smi:2427-2

> <Gold.Version>
5.8.1

> <Gold.Id.Protein>
6NUR|6NUR_protein|mol2

> <Gold.PLP.Fitness>
38.8755

> <Gold.PLP.PLP>
-28.2370

> <Gold.PLP.part.hbond>
-3.7390

> <Gold.PLP.part.metal>
0.0000

> <Gold.PLP.part.buried>
-2.0010

> <Gold.PLP.part.nonpolar>
-24.1515

> <Gold.PLP.part.repulsive>
0.7063

> <Gold.PLP.ligand.clash>
0.0000

> <Gold.PLP.ligand.torsion>
0.5582

> <Gold.PLP.Chemscore.Hbond>
2.9120

> <Gold.PLP.Chemscore.CHOScore>
0.9934

> <Gold.PLP.Chemscore.Metal>
0.0000

> <Gold.Chemscore.Hbonds>
donor molecule, donor type, donor heavy atom, donor atom, acceptor molecule, acceptor atom, score
      L1  H    14    26       P1  7948  1.00
      P1  H  7989  7998       L1    13  0.76
      P1  H 10752 10764       L1     1  1.00
      L1  C     5    23       P1  7948  0.90

> <Gold.PLP.Chemscore.Internal.Correction>
0.0388

> <Gold.Rescore>
     Score         DG    S(hbond)    S(metal)    S(lipo)     H(rot)  DE(clash)    DE(int)     intcor
     11.33     -12.00       1.82        0.00      45.55       1.90       0.07       0.61       ----

> <Gold.Chemscore.Fitness>
11.3291

> <Gold.Chemscore.DG>
-12.0025

> <Gold.Chemscore.ZeroCoef>
-5.4800

> <Gold.Chemscore.Hbond>
1.8167

> <Gold.Chemscore.Metal>
0.0000

> <Gold.Chemscore.Lipo>
45.5550

> <Gold.Chemscore.Internal_Hbond>
0.0000

> <Gold.Chemscore.DEClash>
0.0650

> <Gold.Chemscore.DEInternal>
0.6083

> <Gold.Chemscore.Rot>
1.9044

> <Gold.Chemscore.Internal.Correction>
   9.000000E+99

> <Gold.Chemscore.Hbonds>
donor molecule, donor type, donor heavy atom, donor atom, acceptor molecule, acceptor atom, score
      L1  H    14    26       P1  7948  0.40
      P1  H  7989  7998       L1    13  0.13
      P1  H 10752 10764       L1     1  0.25

> <Gold.Chemscore.Hbond.Weighted>
-6.0678

> <Gold.Chemscore.Metal.Weighted>
-0.0000

> <Gold.Chemscore.Lipo.Weighted>
-5.3299

> <Gold.Chemscore.Internal_Hbond.Weighted>
0.0000

> <Gold.Chemscore.DEClash.Weighted>
0.0650

> <Gold.Chemscore.DEInternal.Weighted>
0.6083

> <Gold.Chemscore.Rot.Weighted>
4.8753

> <Gold.Chemscore.Internal.Correction.Weighted>
   9.000000E+99

> <Gold.Protein.RotatedTorsions>
[ 6907 6896 6895 6894 ] final   67.55 input  -60.11 | X-H torsion
[ 7974 7965 7964 7962 ] final  168.89 input  175.53 | X-H torsion
[ 8008 7997 7996 7995 ] final  -62.05 input   59.86 | X-H torsion
[ 10167 10162 10161 10158 ] final  -49.54 input  -65.29 | X-H torsion
[ 10718 10713 10712 10709 ] final  -42.34 input   66.30 | X-H torsion
[ 10763 10752 10751 10750 ] final  -25.71 input  -60.55 | X-H torsion
[ 11005 11000 10999 10996 ] final  -53.20 input  -57.11 | X-H torsion

> <Gold.Protein.ActiveResidues>
 VAL166  LYS551  ARG553  GLY616  TRP617  ASP618  TYR619  PRO620  LYS621  CYS622 
 ASP623  PHE694  ASN695  SER759  ASP760  ASP761  ALA762  ILE779  LEU786  VAL792 
 PHE793  MET794  SER795  GLU796  ALA797  LYS798  CYS799  TRP800  GLU811  SER814 

> <Gold.Protein.RotatedAtoms>
  152.4560  134.5291  159.9805 H   0  0  0  0  0  0  0  0  0  0  0  0  # atno 6907 bound_to 6896
  151.5352  133.3436  159.2933 H   0  0  0  0  0  0  0  0  0  0  0  0  # atno 6908 bound_to 6896
  150.8504  134.7858  159.7067 H   0  0  0  0  0  0  0  0  0  0  0  0  # atno 6909 bound_to 6896
  144.7373  139.8974  143.6407 H   0  0  0  0  0  0  0  0  0  0  0  0  # atno 7974 bound_to 7965
  154.4479  140.1004  156.6526 H   0  0  0  0  0  0  0  0  0  0  0  0  # atno 8008 bound_to 7997
  155.5381  140.3483  155.4422 H   0  0  0  0  0  0  0  0  0  0  0  0  # atno 8009 bound_to 7997
  156.0617  140.1328  156.9922 H   0  0  0  0  0  0  0  0  0  0  0  0  # atno 8010 bound_to 7997
  140.6680  143.2694  151.4229 H   0  0  0  0  0  0  0  0  0  0  0  0  # atno 10167 bound_to 10162
  156.2606  130.4196  149.8546 H   0  0  0  0  0  0  0  0  0  0  0  0  # atno 10718 bound_to 10713
  153.7043  135.6954  153.5054 H   0  0  0  0  0  0  0  0  0  0  0  0  # atno 10763 bound_to 10752
  153.2319  135.4334  155.0604 H   0  0  0  0  0  0  0  0  0  0  0  0  # atno 10764 bound_to 10752
  154.8335  135.3486  154.6581 H   0  0  0  0  0  0  0  0  0  0  0  0  # atno 10765 bound_to 10752
  141.0964  133.6624  156.4137 H   0  0  0  0  0  0  0  0  0  0  0  0  # atno 11005 bound_to 11000
  146.1097  139.4101  143.0295 LP  0  0  0  0  0  0  0  0  0  0  0  0  # atno 17320 bound_to 7965
  145.7461  140.9990  143.1275 LP  0  0  0  0  0  0  0  0  0  0  0  0  # atno 17321 bound_to 7965
  139.5937  144.1444  152.2118 LP  0  0  0  0  0  0  0  0  0  0  0  0  # atno 17342 bound_to 10162
  140.0806  144.5703  150.7125 LP  0  0  0  0  0  0  0  0  0  0  0  0  # atno 17343 bound_to 10162
  156.6062  130.8567  151.3443 LP  0  0  0  0  0  0  0  0  0  0  0  0  # atno 17370 bound_to 10713
  157.7249  130.9609  150.1593 LP  0  0  0  0  0  0  0  0  0  0  0  0  # atno 17371 bound_to 10713
  140.5130  134.6377  157.5291 LP  0  0  0  0  0  0  0  0  0  0  0  0  # atno 17394 bound_to 11000
  139.9802  134.7150  155.9874 LP  0  0  0  0  0  0  0  0  0  0  0  0  # atno 17395 bound_to 11000

$$$$
