AV-unprocessed.smi:2008|AV-procd|sdf|8143|dock7
  -GOLD-   2272010383D 1   1.00000     0.00000
 Structure written by MMmdl.
 46 47  0  0  0  0  0  0  0  0  2 V2000
  152.2034  141.9527  158.9941 C   0  0  0  0  0  0  0  0  0  0  0  0
  152.6645  140.8516  158.2184 O   0  0  0  0  0  0  0  0  0  0  0  0
  151.9212  140.4665  157.1215 C   0  0  0  0  0  0  0  0  0  0  0  0
  150.6040  140.9487  156.9952 C   0  0  0  0  0  0  0  0  0  0  0  0
  149.8432  140.5567  155.8780 C   0  0  0  0  0  0  0  0  0  0  0  0
  150.4148  139.6959  154.9185 C   0  0  0  0  0  0  0  0  0  0  0  0
  149.6060  139.3238  153.8080 N   0  0  0  0  0  0  0  0  0  0  0  0
  148.2885  139.0589  153.7574 C   0  0  0  0  0  0  0  0  0  0  0  0
  147.5161  139.0604  154.7149 O   0  0  0  0  0  0  0  0  0  0  0  0
  147.8995  138.7789  152.5054 N   0  0  0  0  0  0  0  0  0  0  0  0
  146.5305  138.4706  152.1076 C   0  0  0  0  0  0  0  0  0  0  0  0
  145.9235  137.3544  152.9810 C   0  0  0  0  0  0  0  0  0  0  0  0
  146.3244  135.9855  152.5556 N   0  3  2  0  0  0  0  0  0  0  0  0
  145.5276  135.5094  151.3921 C   0  0  0  0  0  0  0  0  0  0  0  0
  146.0923  134.1987  150.8220 C   0  0  0  0  0  0  0  0  0  0  0  0
  146.1738  133.1173  151.9046 C   0  0  0  0  0  0  0  0  0  0  0  0
  146.9843  133.6376  153.0996 C   0  0  0  0  0  0  0  0  0  0  0  0
  146.4271  134.9684  153.6500 C   0  0  2  0  0  0  0  0  0  0  0  0
  145.1137  134.7699  154.4367 C   0  0  0  0  0  0  0  0  0  0  0  0
  151.7477  139.2657  155.1372 C   0  0  0  0  0  0  0  0  0  0  0  0
  152.4825  139.6388  156.2065 N   0  0  0  0  0  0  0  0  0  0  0  0
  152.8973  142.1309  159.8155 H   0  0  0  0  0  0  0  0  0  0  0  0
  151.2223  141.7533  159.4275 H   0  0  0  0  0  0  0  0  0  0  0  0
  152.1533  142.8662  158.3997 H   0  0  0  0  0  0  0  0  0  0  0  0
  150.1845  141.6063  157.7424 H   0  0  0  0  0  0  0  0  0  0  0  0
  148.8302  140.9145  155.7632 H   0  0  0  0  0  0  0  0  0  0  0  0
  150.0968  139.2645  152.9279 H   0  0  0  0  0  0  0  0  0  0  0  0
  148.5958  138.7979  151.7742 H   0  0  0  0  0  0  0  0  0  0  0  0
  145.9161  139.3717  152.1517 H   0  0  0  0  0  0  0  0  0  0  0  0
  146.5687  138.1670  151.0621 H   0  0  0  0  0  0  0  0  0  0  0  0
  146.1670  137.5124  154.0319 H   0  0  0  0  0  0  0  0  0  0  0  0
  144.8368  137.4201  152.9145 H   0  0  0  0  0  0  0  0  0  0  0  0
  144.4838  135.3803  151.6803 H   0  0  0  0  0  0  0  0  0  0  0  0
  145.5393  136.2656  150.6062 H   0  0  0  0  0  0  0  0  0  0  0  0
  145.4703  133.8527  149.9957 H   0  0  0  0  0  0  0  0  0  0  0  0
  147.0852  134.3777  150.4072 H   0  0  0  0  0  0  0  0  0  0  0  0
  145.1708  132.8331  152.2241 H   0  0  0  0  0  0  0  0  0  0  0  0
  146.6369  132.2162  151.5009 H   0  0  0  0  0  0  0  0  0  0  0  0
  147.0148  132.8840  153.8875 H   0  0  0  0  0  0  0  0  0  0  0  0
  148.0188  133.7864  152.7866 H   0  0  0  0  0  0  0  0  0  0  0  0
  147.1713  135.3220  154.3624 H   0  0  0  0  0  0  0  0  0  0  0  0
  145.2387  134.0063  155.2051 H   0  0  0  0  0  0  0  0  0  0  0  0
  144.2902  134.4532  153.7973 H   0  0  0  0  0  0  0  0  0  0  0  0
  144.8066  135.6805  154.9501 H   0  0  0  0  0  0  0  0  0  0  0  0
  152.2653  138.6067  154.4602 H   0  0  0  0  0  0  0  0  0  0  0  0
  147.2646  136.0871  152.2005 H   0  0  0  0  0  0  0  0  0  0  0  0
  1  2  1  0  0  0  0
  1 22  1  0  0  0  0
  1 23  1  0  0  0  0
  1 24  1  0  0  0  0
  2  3  1  0  0  0  0
  3 21  1  0  0  0  0
  3  4  2  0  0  0  0
  4  5  1  0  0  0  0
  4 25  1  0  0  0  0
  5  6  2  0  0  0  0
  5 26  1  0  0  0  0
  6  7  1  0  0  0  0
  6 20  1  0  0  0  0
  7  8  1  0  0  0  0
  7 27  1  0  0  0  0
  8  9  2  0  0  0  0
  8 10  1  0  0  0  0
 10 11  1  0  0  0  0
 10 28  1  0  0  0  0
 11 12  1  0  0  0  0
 11 29  1  0  0  0  0
 11 30  1  0  0  0  0
 12 13  1  0  0  0  0
 12 31  1  0  0  0  0
 12 32  1  0  0  0  0
 13 18  1  0  0  0  0
 13 14  1  0  0  0  0
 13 46  1  0  0  0  0
 14 15  1  0  0  0  0
 14 33  1  0  0  0  0
 14 34  1  0  0  0  0
 15 16  1  0  0  0  0
 15 35  1  0  0  0  0
 15 36  1  0  0  0  0
 16 17  1  0  0  0  0
 16 37  1  0  0  0  0
 16 38  1  0  0  0  0
 17 18  1  0  0  0  0
 17 39  1  0  0  0  0
 17 40  1  0  0  0  0
 18 19  1  0  0  0  0
 18 41  1  0  0  0  0
 19 42  1  0  0  0  0
 19 43  1  0  0  0  0
 19 44  1  0  0  0  0
 20 21  2  0  0  0  0
 20 45  1  0  0  0  0
M  CHG  1  13   1
M  END
> <s_m_source_file>
AV-unprocessed.smi

> <i_m_source_file_index>
2008

> <i_lp_mmshare_version>
43012

> <i_f3d_flags>
0

> <s_epik_input>
W0NIM11PYzFbY0hdW2NIXWMoW2NIXW4xKVtOSF1DKD1PKVtOSF1bQ0gyXVtDSDJdTjJbQ0gyXVtDSDJdW0NIMl1bQ0gyXVtDQEhdMltDSDNd

> <s_epik_cmdline>
J2VwaWtfcHl0aG9uJywgJy1waCcsICc3LjAnLCAnLXRuJywgJzgnLCAnLW1hJywgJzIwMCcsICctbWV0YWxfYmluZGluZycsICctaW1hZScsICc8aW5maWxlLm1hZT4nLCAnLW9tYWUnLCAnPG91dGZpbGUubWFlPic=

> <r_lp_tautomer_probability>
1

> <r_epik_Ionization_Penalty>
0.00219526

> <r_epik_Ionization_Penalty_Charging>
0.00211816

> <r_epik_Ionization_Penalty_Neutral>
7.71003e-05

> <r_epik_State_Penalty>
0.00145254

> <r_epik_Charging_Adjusted_Penalty>
0.0035707

> <i_epik_Tot_Q>
1

> <i_epik_Tot_abs_Q>
1

> <r_epik_Metal_State_Penalty>
-0

> <b_epik_Metal_Only>
0

> <s_lp_Force_Field>
OPLS_2005

> <r_lp_Energy>
23.262

> <b_lp_Chiralities_Consistent>
1

> <s_lp_Variant>
AV-unprocessed.smi:2008-3

> <Gold.Version>
5.8.1

> <Gold.Id.Protein>
6NUR|6NUR_protein|mol2

> <Gold.PLP.Fitness>
46.6252

> <Gold.PLP.PLP>
-35.1872

> <Gold.PLP.part.hbond>
-5.6147

> <Gold.PLP.part.metal>
0.0000

> <Gold.PLP.part.buried>
-3.4936

> <Gold.PLP.part.nonpolar>
-26.3280

> <Gold.PLP.part.repulsive>
0.2798

> <Gold.PLP.ligand.clash>
0.0060

> <Gold.PLP.ligand.torsion>
0.8944

> <Gold.PLP.Chemscore.Hbond>
4.3920

> <Gold.PLP.Chemscore.CHOScore>
0.0000

> <Gold.PLP.Chemscore.Metal>
0.0000

> <Gold.Chemscore.Hbonds>
donor molecule, donor type, donor heavy atom, donor atom, acceptor molecule, acceptor atom, score
      L1  H     7    27       P1  7957  0.61
      L1  H    10    28       P1  7957  0.69
      L1  H    13    46       P1  7948  2.00
      P1  H  7997  8008       L1    21  1.00

> <Gold.PLP.Chemscore.Internal.Correction>
0.0568

> <Gold.Rescore>
     Score         DG    S(hbond)    S(metal)    S(lipo)     H(rot)  DE(clash)    DE(int)     intcor
     17.98     -20.97       3.50        0.00      69.96       1.71       0.06       2.93       ----

> <Gold.Chemscore.Fitness>
17.9811

> <Gold.Chemscore.DG>
-20.9714

> <Gold.Chemscore.ZeroCoef>
-5.4800

> <Gold.Chemscore.Hbond>
3.4986

> <Gold.Chemscore.Metal>
0.0000

> <Gold.Chemscore.Lipo>
69.9612

> <Gold.Chemscore.Internal_Hbond>
0.0000

> <Gold.Chemscore.DEClash>
0.0632

> <Gold.Chemscore.DEInternal>
2.9271

> <Gold.Chemscore.Rot>
1.7107

> <Gold.Chemscore.Internal.Correction>
   9.000000E+99

> <Gold.Chemscore.Hbonds>
donor molecule, donor type, donor heavy atom, donor atom, acceptor molecule, acceptor atom, score
      L1  H     7    27       P1  7957  0.54
      L1  H    10    28       P1  7957  0.44
      L1  H    13    46       P1  7948  1.00
      P1  H  7997  8008       L1    21  0.35

> <Gold.Chemscore.Hbond.Weighted>
-11.6854

> <Gold.Chemscore.Metal.Weighted>
-0.0000

> <Gold.Chemscore.Lipo.Weighted>
-8.1855

> <Gold.Chemscore.Internal_Hbond.Weighted>
0.0000

> <Gold.Chemscore.DEClash.Weighted>
0.0632

> <Gold.Chemscore.DEInternal.Weighted>
2.9271

> <Gold.Chemscore.Rot.Weighted>
4.3794

> <Gold.Chemscore.Internal.Correction.Weighted>
   9.000000E+99

> <Gold.Protein.RotatedTorsions>
[ 6907 6896 6895 6894 ] final  115.17 input  -60.11 | X-H torsion
[ 7974 7965 7964 7962 ] final  145.67 input  175.53 | X-H torsion
[ 8008 7997 7996 7995 ] final  -41.43 input   59.86 | X-H torsion
[ 10167 10162 10161 10158 ] final -137.36 input  -65.29 | X-H torsion
[ 10718 10713 10712 10709 ] final   34.64 input   66.30 | X-H torsion
[ 10763 10752 10751 10750 ] final -157.08 input  -60.55 | X-H torsion
[ 11005 11000 10999 10996 ] final   53.74 input  -57.11 | X-H torsion

> <Gold.Protein.ActiveResidues>
 VAL166  LYS551  ARG553  GLY616  TRP617  ASP618  TYR619  PRO620  LYS621  CYS622 
 ASP623  PHE694  ASN695  SER759  ASP760  ASP761  ALA762  ILE779  LEU786  VAL792 
 PHE793  MET794  SER795  GLU796  ALA797  LYS798  CYS799  TRP800  GLU811  SER814 

> <Gold.Protein.RotatedAtoms>
  152.4758  133.8135  159.7015 H   0  0  0  0  0  0  0  0  0  0  0  0  # atno 6907 bound_to 6896
  150.8774  133.7410  159.2949 H   0  0  0  0  0  0  0  0  0  0  0  0  # atno 6908 bound_to 6896
  151.4925  135.1061  159.9859 H   0  0  0  0  0  0  0  0  0  0  0  0  # atno 6909 bound_to 6896
  144.8733  139.5812  143.5877 H   0  0  0  0  0  0  0  0  0  0  0  0  # atno 7974 bound_to 7965
  154.4004  140.1499  156.3189 H   0  0  0  0  0  0  0  0  0  0  0  0  # atno 8008 bound_to 7997
  155.8548  140.3456  155.5695 H   0  0  0  0  0  0  0  0  0  0  0  0  # atno 8009 bound_to 7997
  155.7945  140.0861  157.1981 H   0  0  0  0  0  0  0  0  0  0  0  0  # atno 8010 bound_to 7997
  139.8585  143.7107  152.2652 H   0  0  0  0  0  0  0  0  0  0  0  0  # atno 10167 bound_to 10162
  157.3129  130.7408  149.6736 H   0  0  0  0  0  0  0  0  0  0  0  0  # atno 10718 bound_to 10713
  154.7663  135.3132  154.8279 H   0  0  0  0  0  0  0  0  0  0  0  0  # atno 10763 bound_to 10752
  153.9026  135.6814  153.4759 H   0  0  0  0  0  0  0  0  0  0  0  0  # atno 10764 bound_to 10752
  153.1270  135.4797  154.9221 H   0  0  0  0  0  0  0  0  0  0  0  0  # atno 10765 bound_to 10752
  140.0743  134.5426  155.9013 H   0  0  0  0  0  0  0  0  0  0  0  0  # atno 11005 bound_to 11000
  146.2945  139.7237  142.9136 LP  0  0  0  0  0  0  0  0  0  0  0  0  # atno 17320 bound_to 7965
  145.4090  141.0394  143.3028 LP  0  0  0  0  0  0  0  0  0  0  0  0  # atno 17321 bound_to 7965
  139.7396  144.7563  151.0673 LP  0  0  0  0  0  0  0  0  0  0  0  0  # atno 17342 bound_to 10162
  140.7778  143.4988  150.9797 LP  0  0  0  0  0  0  0  0  0  0  0  0  # atno 17343 bound_to 10162
  155.9679  130.4246  150.4616 LP  0  0  0  0  0  0  0  0  0  0  0  0  # atno 17370 bound_to 10713
  157.2617  131.0568  151.2316 LP  0  0  0  0  0  0  0  0  0  0  0  0  # atno 17371 bound_to 10713
  141.2023  133.6624  156.6001 LP  0  0  0  0  0  0  0  0  0  0  0  0  # atno 17394 bound_to 11000
  140.3581  134.7711  157.4514 LP  0  0  0  0  0  0  0  0  0  0  0  0  # atno 17395 bound_to 11000

$$$$
