AV-unprocessed.smi:2424|AV-procd|sdf|9565|dock1
  -GOLD-   2272013193D 1   1.00000     0.00000
 Structure written by MMmdl.
 50 51  0  0  0  0  0  0  0  0  1 V2000
  150.5217  138.9505  154.7735 C   0  0  0  0  0  0  0  0  0  0  0  0
  149.0778  138.4229  154.7257 C   0  0  0  0  0  0  0  0  0  0  0  0
  147.9904  139.4947  154.4470 C   0  0  0  0  0  0  0  0  0  0  0  0
  148.6591  140.7335  153.8082 C   0  0  0  0  0  0  0  0  0  0  0  0
  149.3172  141.7072  154.7992 C   0  0  0  0  0  0  0  0  0  0  0  0
  146.7048  139.0122  153.7226 C   0  0  1  0  0  0  0  0  0  0  0  0
  146.8800  137.8044  152.9198 N   0  0  0  0  0  0  0  0  0  0  0  0
  145.8933  136.9891  152.5250 C   0  0  0  0  0  0  0  0  0  0  0  0
  144.7117  137.1693  152.8152 O   0  0  0  0  0  0  0  0  0  0  0  0
  146.3808  135.9776  151.7840 N   0  0  0  0  0  0  0  0  0  0  0  0
  145.6996  134.9161  151.1715 C   0  0  0  0  0  0  0  0  0  0  0  0
  144.5880  135.2079  150.4745 C   0  0  0  0  0  0  0  0  0  0  0  0
  143.8445  134.2166  149.8299 N   0  0  0  0  0  0  0  0  0  0  0  0
  144.1587  132.9015  149.8431 C   0  0  0  0  0  0  0  0  0  0  0  0
  143.4537  132.0866  149.2508 O   0  0  0  0  0  0  0  0  0  0  0  0
  145.3705  132.5483  150.6005 C   0  0  0  0  0  0  0  0  0  0  0  0
  145.7748  131.0857  150.6568 C   0  0  0  0  0  0  0  0  0  0  0  0
  146.0898  133.5104  151.2243 C   0  0  0  0  0  0  0  0  0  0  0  0
  146.0623  138.7204  155.0813 C   0  0  2  0  0  0  0  0  0  0  0  0
  144.5600  138.8963  155.2658 C   0  0  0  0  0  0  0  0  0  0  0  0
  147.0389  139.7613  155.6516 C   0  0  2  0  0  0  0  0  0  0  0  0
  146.4454  141.0547  155.6533 O   0  0  0  0  0  0  0  0  0  0  0  0
  145.6153  141.2797  156.7804 C   0  0  0  0  0  0  0  0  0  0  0  0
  143.0225  134.5146  149.3247 H   0  0  0  0  0  0  0  0  0  0  0  0
  151.2032  138.1647  155.0990 H   0  0  0  0  0  0  0  0  0  0  0  0
  150.6254  139.7823  155.4700 H   0  0  0  0  0  0  0  0  0  0  0  0
  150.8655  139.2844  153.7950 H   0  0  0  0  0  0  0  0  0  0  0  0
  149.0214  137.6121  154.0004 H   0  0  0  0  0  0  0  0  0  0  0  0
  148.8855  137.9410  155.6843 H   0  0  0  0  0  0  0  0  0  0  0  0
  149.4430  140.4109  153.1226 H   0  0  0  0  0  0  0  0  0  0  0  0
  147.9551  141.2804  153.1827 H   0  0  0  0  0  0  0  0  0  0  0  0
  149.8398  142.4995  154.2633 H   0  0  0  0  0  0  0  0  0  0  0  0
  150.0499  141.2028  155.4275 H   0  0  0  0  0  0  0  0  0  0  0  0
  148.5868  142.1892  155.4479 H   0  0  0  0  0  0  0  0  0  0  0  0
  146.1887  139.8281  153.2107 H   0  0  0  0  0  0  0  0  0  0  0  0
  147.8230  137.5809  152.6380 H   0  0  0  0  0  0  0  0  0  0  0  0
  147.3801  135.9740  151.6414 H   0  0  0  0  0  0  0  0  0  0  0  0
  144.1869  136.2040  150.3552 H   0  0  0  0  0  0  0  0  0  0  0  0
  146.6869  130.9450  151.2376 H   0  0  0  0  0  0  0  0  0  0  0  0
  145.9526  130.7002  149.6524 H   0  0  0  0  0  0  0  0  0  0  0  0
  144.9867  130.4904  151.1189 H   0  0  0  0  0  0  0  0  0  0  0  0
  146.9661  133.1982  151.7677 H   0  0  0  0  0  0  0  0  0  0  0  0
  146.3644  137.7329  155.4351 H   0  0  0  0  0  0  0  0  0  0  0  0
  144.2104  139.8392  154.8446 H   0  0  0  0  0  0  0  0  0  0  0  0
  144.2888  138.8849  156.3215 H   0  0  0  0  0  0  0  0  0  0  0  0
  144.0086  138.0948  154.7738 H   0  0  0  0  0  0  0  0  0  0  0  0
  147.4252  139.4618  156.6274 H   0  0  0  0  0  0  0  0  0  0  0  0
  145.2283  142.2983  156.7524 H   0  0  0  0  0  0  0  0  0  0  0  0
  146.1615  141.1523  157.7149 H   0  0  0  0  0  0  0  0  0  0  0  0
  144.7643  140.5977  156.7797 H   0  0  0  0  0  0  0  0  0  0  0  0
  1  2  1  0  0  0  0
  1 25  1  0  0  0  0
  1 26  1  0  0  0  0
  1 27  1  0  0  0  0
  2  3  1  0  0  0  0
  2 28  1  0  0  0  0
  2 29  1  0  0  0  0
  3 21  1  0  0  0  0
  3  4  1  0  0  0  0
  3  6  1  0  0  0  0
  4  5  1  0  0  0  0
  4 30  1  0  0  0  0
  4 31  1  0  0  0  0
  5 32  1  0  0  0  0
  5 33  1  0  0  0  0
  5 34  1  0  0  0  0
  6  7  1  0  0  0  0
  6 19  1  0  0  0  0
  6 35  1  0  0  0  0
  7  8  1  0  0  0  0
  7 36  1  0  0  0  0
  8  9  2  0  0  0  0
  8 10  1  0  0  0  0
 10 11  1  0  0  0  0
 10 37  1  0  0  0  0
 11 18  1  0  0  0  0
 11 12  2  0  0  0  0
 12 13  1  0  0  0  0
 12 38  1  0  0  0  0
 13 24  1  0  0  0  0
 13 14  1  0  0  0  0
 14 15  2  0  0  0  0
 14 16  1  0  0  0  0
 16 17  1  0  0  0  0
 16 18  2  0  0  0  0
 17 39  1  0  0  0  0
 17 40  1  0  0  0  0
 17 41  1  0  0  0  0
 18 42  1  0  0  0  0
 19 20  1  0  0  0  0
 19 21  1  0  0  0  0
 19 43  1  0  0  0  0
 20 44  1  0  0  0  0
 20 45  1  0  0  0  0
 20 46  1  0  0  0  0
 21 22  1  0  0  0  0
 21 47  1  0  0  0  0
 22 23  1  0  0  0  0
 23 48  1  0  0  0  0
 23 49  1  0  0  0  0
 23 50  1  0  0  0  0
M  END
> <s_m_source_file>
AV-unprocessed.smi

> <i_m_source_file_index>
2424

> <i_lp_mmshare_version>
43012

> <i_f3d_flags>
0

> <s_epik_input>
W0NIM11PW0NAQEhdMVtDQEhdKFtDSDNdKVtDQEBIXShDMShbQ0gyXVtDSDNdKVtDSDJdW0NIM10pW05IXUMoPU8pW05IXWMyW2NIXVtuSF1jKD1PKWMoW0NIM10pW2NIXTI=

> <s_epik_cmdline>
J2VwaWtfcHl0aG9uJywgJy1waCcsICc3LjAnLCAnLXRuJywgJzgnLCAnLW1hJywgJzIwMCcsICctbWV0YWxfYmluZGluZycsICctaW1hZScsICc8aW5maWxlLm1hZT4nLCAnLW9tYWUnLCAnPG91dGZpbGUubWFlPic=

> <r_lp_tautomer_probability>
1

> <r_epik_Ionization_Penalty>
4.7326e-05

> <r_epik_Ionization_Penalty_Charging>
2.70169e-05

> <r_epik_Ionization_Penalty_Neutral>
2.0309e-05

> <r_epik_State_Penalty>
-0

> <r_epik_Charging_Adjusted_Penalty>
2.70169e-05

> <i_epik_Tot_Q>
0

> <i_epik_Tot_abs_Q>
0

> <r_epik_Metal_State_Penalty>
0.0198736

> <b_epik_Metal_Only>
0

> <s_lp_Force_Field>
OPLS_2005

> <r_lp_Energy>
37.615

> <b_lp_Chiralities_Consistent>
1

> <s_lp_Variant>
AV-unprocessed.smi:2424-7

> <Gold.Version>
5.8.1

> <Gold.Id.Protein>
6NUR|6NUR_protein|mol2

> <Gold.PLP.Fitness>
44.6923

> <Gold.PLP.PLP>
-33.2673

> <Gold.PLP.part.hbond>
-4.3496

> <Gold.PLP.part.metal>
0.0000

> <Gold.PLP.part.buried>
-3.5961

> <Gold.PLP.part.nonpolar>
-27.1427

> <Gold.PLP.part.repulsive>
0.6816

> <Gold.PLP.ligand.clash>
0.0000

> <Gold.PLP.ligand.torsion>
1.8614

> <Gold.PLP.Chemscore.Hbond>
3.6880

> <Gold.PLP.Chemscore.CHOScore>
1.0000

> <Gold.PLP.Chemscore.Metal>
0.0000

> <Gold.Chemscore.Hbonds>
donor molecule, donor type, donor heavy atom, donor atom, acceptor molecule, acceptor atom, score
      L1  H     7    36       P1  7948  0.91
      L1  H    10    37       P1  7948  1.00
      L1  H    13    24       P1 10186  0.77
      P1  H 10785 10796       L1    15  0.99
      L1  C    12    38       P1 10171  1.00

> <Gold.PLP.Chemscore.Internal.Correction>
1.0838

> <Gold.Rescore>
     Score         DG    S(hbond)    S(metal)    S(lipo)     H(rot)  DE(clash)    DE(int)     intcor
     16.41     -22.66       3.73        0.00      74.32       1.55       0.45       5.80       ----

> <Gold.Chemscore.Fitness>
16.4063

> <Gold.Chemscore.DG>
-22.6586

> <Gold.Chemscore.ZeroCoef>
-5.4800

> <Gold.Chemscore.Hbond>
3.7281

> <Gold.Chemscore.Metal>
0.0000

> <Gold.Chemscore.Lipo>
74.3181

> <Gold.Chemscore.Internal_Hbond>
0.0000

> <Gold.Chemscore.DEClash>
0.4500

> <Gold.Chemscore.DEInternal>
5.8023

> <Gold.Chemscore.Rot>
1.5502

> <Gold.Chemscore.Internal.Correction>
   9.000000E+99

> <Gold.Chemscore.Hbonds>
donor molecule, donor type, donor heavy atom, donor atom, acceptor molecule, acceptor atom, score
      L1  H     7    36       P1  7948  0.88
      L1  H    10    37       P1  7948  0.97
      L1  H    13    24       P1 10186  0.73
      P1  H 10785 10796       L1    15  0.87

> <Gold.Chemscore.Hbond.Weighted>
-12.4519

> <Gold.Chemscore.Metal.Weighted>
-0.0000

> <Gold.Chemscore.Lipo.Weighted>
-8.6952

> <Gold.Chemscore.Internal_Hbond.Weighted>
0.0000

> <Gold.Chemscore.DEClash.Weighted>
0.4500

> <Gold.Chemscore.DEInternal.Weighted>
5.8023

> <Gold.Chemscore.Rot.Weighted>
3.9685

> <Gold.Chemscore.Internal.Correction.Weighted>
   9.000000E+99

> <Gold.Protein.RotatedTorsions>
[ 6907 6896 6895 6894 ] final   -9.87 input  -60.11 | X-H torsion
[ 7974 7965 7964 7962 ] final  -25.96 input  175.53 | X-H torsion
[ 8008 7997 7996 7995 ] final  -25.29 input   59.86 | X-H torsion
[ 10167 10162 10161 10158 ] final  -58.50 input  -65.29 | X-H torsion
[ 10718 10713 10712 10709 ] final  -20.46 input   66.30 | X-H torsion
[ 10763 10752 10751 10750 ] final  -30.92 input  -60.55 | X-H torsion
[ 11005 11000 10999 10996 ] final  156.29 input  -57.11 | X-H torsion

> <Gold.Protein.ActiveResidues>
 VAL166  LYS551  ARG553  GLY616  TRP617  ASP618  TYR619  PRO620  LYS621  CYS622 
 ASP623  PHE694  ASN695  SER759  ASP760  ASP761  ALA762  ILE779  LEU786  VAL792 
 PHE793  MET794  SER795  GLU796  ALA797  LYS798  CYS799  TRP800  GLU811  SER814 

> <Gold.Protein.RotatedAtoms>
  151.4109  135.0985  159.9584 H   0  0  0  0  0  0  0  0  0  0  0  0  # atno 6907 bound_to 6896
  152.5020  133.8799  159.7351 H   0  0  0  0  0  0  0  0  0  0  0  0  # atno 6908 bound_to 6896
  150.9293  133.6729  159.2842 H   0  0  0  0  0  0  0  0  0  0  0  0  # atno 6909 bound_to 6896
  146.1457  140.4956  142.8633 H   0  0  0  0  0  0  0  0  0  0  0  0  # atno 7974 bound_to 7965
  154.4484  140.1930  156.0596 H   0  0  0  0  0  0  0  0  0  0  0  0  # atno 8008 bound_to 7997
  156.0593  140.3299  155.7415 H   0  0  0  0  0  0  0  0  0  0  0  0  # atno 8009 bound_to 7997
  155.5437  140.0588  157.2855 H   0  0  0  0  0  0  0  0  0  0  0  0  # atno 8010 bound_to 7997
  140.6193  143.2413  151.5520 H   0  0  0  0  0  0  0  0  0  0  0  0  # atno 10167 bound_to 10162
  156.5316  130.4656  149.6544 H   0  0  0  0  0  0  0  0  0  0  0  0  # atno 10718 bound_to 10713
  153.7889  135.6899  153.4875 H   0  0  0  0  0  0  0  0  0  0  0  0  # atno 10763 bound_to 10752
  153.1762  135.4523  154.9967 H   0  0  0  0  0  0  0  0  0  0  0  0  # atno 10764 bound_to 10752
  154.8052  135.3354  154.7387 H   0  0  0  0  0  0  0  0  0  0  0  0  # atno 10765 bound_to 10752
  140.1661  134.8576  157.2633 H   0  0  0  0  0  0  0  0  0  0  0  0  # atno 11005 bound_to 11000
  144.7843  140.5905  143.6584 LP  0  0  0  0  0  0  0  0  0  0  0  0  # atno 17320 bound_to 7965
  145.4944  139.1487  143.3692 LP  0  0  0  0  0  0  0  0  0  0  0  0  # atno 17321 bound_to 7965
  139.5425  144.2609  152.1378 LP  0  0  0  0  0  0  0  0  0  0  0  0  # atno 17342 bound_to 10162
  140.1826  144.4830  150.6520 LP  0  0  0  0  0  0  0  0  0  0  0  0  # atno 17343 bound_to 10162
  156.3054  130.7200  151.2081 LP  0  0  0  0  0  0  0  0  0  0  0  0  # atno 17370 bound_to 10713
  157.7421  131.0495  150.5051 LP  0  0  0  0  0  0  0  0  0  0  0  0  # atno 17371 bound_to 10713
  140.2433  134.3770  155.7472 LP  0  0  0  0  0  0  0  0  0  0  0  0  # atno 17394 bound_to 11000
  141.2213  133.7277  156.8822 LP  0  0  0  0  0  0  0  0  0  0  0  0  # atno 17395 bound_to 11000

$$$$
