AV-unprocessed.smi:2467|AV-procd|sdf|9725|dock8
  -GOLD-   2272013363D 1   1.00000     0.00000
 Structure written by MMmdl.
 46 47  0  0  0  0  0  0  0  0  1 V2000
  151.6136  138.1629  154.4298 C   0  0  0  0  0  0  0  0  0  0  0  0
  150.9706  139.3763  155.1197 C   0  0  0  0  0  0  0  0  0  0  0  0
  149.7769  140.0025  154.3555 C   0  0  0  0  0  0  0  0  0  0  0  0
  149.4108  141.3943  154.9310 C   0  0  0  0  0  0  0  0  0  0  0  0
  149.0820  141.3968  156.4318 C   0  0  0  0  0  0  0  0  0  0  0  0
  148.5586  139.0428  154.3216 C   0  0  2  0  0  0  0  0  0  0  0  0
  147.3665  139.5460  153.4732 C   0  0  0  0  0  0  0  0  0  0  0  0
  146.2096  138.5340  153.4889 C   0  0  1  0  0  0  0  0  0  0  0  0
  146.5723  137.3501  152.7144 N   0  0  0  0  0  0  0  0  0  0  0  0
  145.7641  136.3288  152.3914 C   0  0  0  0  0  0  0  0  0  0  0  0
  144.5778  136.2915  152.7137 O   0  0  0  0  0  0  0  0  0  0  0  0
  146.3302  135.3242  151.6881 N   0  0  0  0  0  0  0  0  0  0  0  0
  145.7916  134.1033  151.1809 C   0  0  0  0  0  0  0  0  0  0  0  0
  144.3813  134.0806  151.0901 C   0  0  0  0  0  0  0  0  0  0  0  0
  143.7325  132.9296  150.6025 C   0  0  0  0  0  0  0  0  0  0  0  0
  144.5116  131.8253  150.2148 C   0  0  0  0  0  0  0  0  0  0  0  0
  145.9093  131.9261  150.3353 C   0  0  0  0  0  0  0  0  0  0  0  0
  146.5317  133.0287  150.8033 N   0  0  0  0  0  0  0  0  0  0  0  0
  145.8716  138.1740  154.9472 C   0  0  0  0  0  0  0  0  0  0  0  0
  147.1301  137.7560  155.7281 C   0  0  0  0  0  0  0  0  0  0  0  0
  148.1198  138.7773  155.6524 O   0  0  0  0  0  0  0  0  0  0  0  0
  152.5273  137.8704  154.9474 H   0  0  0  0  0  0  0  0  0  0  0  0
  151.8781  138.3888  153.3966 H   0  0  0  0  0  0  0  0  0  0  0  0
  150.9566  137.2941  154.4301 H   0  0  0  0  0  0  0  0  0  0  0  0
  150.6638  139.1011  156.1295 H   0  0  0  0  0  0  0  0  0  0  0  0
  151.7566  140.1197  155.2423 H   0  0  0  0  0  0  0  0  0  0  0  0
  150.0962  140.1507  153.3228 H   0  0  0  0  0  0  0  0  0  0  0  0
  150.2378  142.0874  154.7916 H   0  0  0  0  0  0  0  0  0  0  0  0
  148.5740  141.8182  154.3747 H   0  0  0  0  0  0  0  0  0  0  0  0
  148.9365  142.4164  156.7892 H   0  0  0  0  0  0  0  0  0  0  0  0
  149.8924  140.9570  157.0136 H   0  0  0  0  0  0  0  0  0  0  0  0
  148.1685  140.8466  156.6543 H   0  0  0  0  0  0  0  0  0  0  0  0
  148.8849  138.1029  153.8792 H   0  0  0  0  0  0  0  0  0  0  0  0
  146.9930  140.4922  153.8614 H   0  0  0  0  0  0  0  0  0  0  0  0
  147.6846  139.7395  152.4478 H   0  0  0  0  0  0  0  0  0  0  0  0
  145.3383  138.9952  153.0207 H   0  0  0  0  0  0  0  0  0  0  0  0
  147.5324  137.2929  152.4045 H   0  0  0  0  0  0  0  0  0  0  0  0
  147.3057  135.4681  151.4715 H   0  0  0  0  0  0  0  0  0  0  0  0
  143.7955  134.9372  151.3911 H   0  0  0  0  0  0  0  0  0  0  0  0
  142.6556  132.8967  150.5272 H   0  0  0  0  0  0  0  0  0  0  0  0
  144.0506  130.9254  149.8351 H   0  0  0  0  0  0  0  0  0  0  0  0
  146.5448  131.1016  150.0478 H   0  0  0  0  0  0  0  0  0  0  0  0
  145.4269  139.0423  155.4349 H   0  0  0  0  0  0  0  0  0  0  0  0
  145.1203  137.3845  154.9886 H   0  0  0  0  0  0  0  0  0  0  0  0
  146.8798  137.5884  156.7757 H   0  0  0  0  0  0  0  0  0  0  0  0
  147.5328  136.8163  155.3468 H   0  0  0  0  0  0  0  0  0  0  0  0
  1  2  1  0  0  0  0
  1 22  1  0  0  0  0
  1 23  1  0  0  0  0
  1 24  1  0  0  0  0
  2  3  1  0  0  0  0
  2 25  1  0  0  0  0
  2 26  1  0  0  0  0
  3  4  1  0  0  0  0
  3  6  1  0  0  0  0
  3 27  1  0  0  0  0
  4  5  1  0  0  0  0
  4 28  1  0  0  0  0
  4 29  1  0  0  0  0
  5 30  1  0  0  0  0
  5 31  1  0  0  0  0
  5 32  1  0  0  0  0
  6 21  1  0  0  0  0
  6  7  1  0  0  0  0
  6 33  1  0  0  0  0
  7  8  1  0  0  0  0
  7 34  1  0  0  0  0
  7 35  1  0  0  0  0
  8  9  1  0  0  0  0
  8 19  1  0  0  0  0
  8 36  1  0  0  0  0
  9 10  1  0  0  0  0
  9 37  1  0  0  0  0
 10 11  2  0  0  0  0
 10 12  1  0  0  0  0
 12 13  1  0  0  0  0
 12 38  1  0  0  0  0
 13 18  1  0  0  0  0
 13 14  2  0  0  0  0
 14 15  1  0  0  0  0
 14 39  1  0  0  0  0
 15 16  2  0  0  0  0
 15 40  1  0  0  0  0
 16 17  1  0  0  0  0
 16 41  1  0  0  0  0
 17 18  2  0  0  0  0
 17 42  1  0  0  0  0
 19 20  1  0  0  0  0
 19 43  1  0  0  0  0
 19 44  1  0  0  0  0
 20 21  1  0  0  0  0
 20 45  1  0  0  0  0
 20 46  1  0  0  0  0
M  END
> <s_m_source_file>
AV-unprocessed.smi

> <i_m_source_file_index>
2467

> <i_lp_mmshare_version>
43012

> <i_f3d_flags>
0

> <s_epik_input>
W0NIM11bQ0gyXVtDSF0oW0NIMl1bQ0gzXSlbQ0BASF0xW0NIMl1bQ0BIXShbQ0gyXVtDSDJdTzEpW05IXUMoPU8pW05IXWMyW2NIXVtjSF1bY0hdW2NIXW4y

> <s_epik_cmdline>
J2VwaWtfcHl0aG9uJywgJy1waCcsICc3LjAnLCAnLXRuJywgJzgnLCAnLW1hJywgJzIwMCcsICctbWV0YWxfYmluZGluZycsICctaW1hZScsICc8aW5maWxlLm1hZT4nLCAnLW9tYWUnLCAnPG91dGZpbGUubWFlPic=

> <r_lp_tautomer_probability>
1

> <r_epik_Ionization_Penalty>
4.80427e-05

> <r_epik_Ionization_Penalty_Charging>
0

> <r_epik_Ionization_Penalty_Neutral>
4.80427e-05

> <r_epik_State_Penalty>
-0

> <r_epik_Charging_Adjusted_Penalty>
0

> <i_epik_Tot_Q>
0

> <i_epik_Tot_abs_Q>
0

> <r_epik_Metal_State_Penalty>
-0

> <b_epik_Metal_Only>
0

> <s_lp_Force_Field>
OPLS_2005

> <r_lp_Energy>
18.1019

> <b_lp_Chiralities_Consistent>
1

> <s_lp_Variant>
AV-unprocessed.smi:2467-1

> <Gold.Version>
5.8.1

> <Gold.Id.Protein>
6NUR|6NUR_protein|mol2

> <Gold.PLP.Fitness>
43.4283

> <Gold.PLP.PLP>
-34.8513

> <Gold.PLP.part.hbond>
-2.0000

> <Gold.PLP.part.metal>
0.0000

> <Gold.PLP.part.buried>
-3.4267

> <Gold.PLP.part.nonpolar>
-30.3175

> <Gold.PLP.part.repulsive>
0.4513

> <Gold.PLP.ligand.clash>
0.0000

> <Gold.PLP.ligand.torsion>
0.2164

> <Gold.PLP.Chemscore.Hbond>
1.9760

> <Gold.PLP.Chemscore.CHOScore>
0.9994

> <Gold.PLP.Chemscore.Metal>
0.0000

> <Gold.Chemscore.Hbonds>
donor molecule, donor type, donor heavy atom, donor atom, acceptor molecule, acceptor atom, score
      L1  H     9    37       P1  7948  0.98
      L1  H    12    38       P1  7948  1.00
      L1  C    17    42       P1 10747  1.00

> <Gold.PLP.Chemscore.Internal.Correction>
0.0837

> <Gold.Rescore>
     Score         DG    S(hbond)    S(metal)    S(lipo)     H(rot)  DE(clash)    DE(int)     intcor
     15.62     -18.40       1.86        0.00      89.69       1.49       0.07       2.71       ----

> <Gold.Chemscore.Fitness>
15.6212

> <Gold.Chemscore.DG>
-18.3996

> <Gold.Chemscore.ZeroCoef>
-5.4800

> <Gold.Chemscore.Hbond>
1.8649

> <Gold.Chemscore.Metal>
0.0000

> <Gold.Chemscore.Lipo>
89.6921

> <Gold.Chemscore.Internal_Hbond>
0.0000

> <Gold.Chemscore.DEClash>
0.0701

> <Gold.Chemscore.DEInternal>
2.7084

> <Gold.Chemscore.Rot>
1.4856

> <Gold.Chemscore.Internal.Correction>
   9.000000E+99

> <Gold.Chemscore.Hbonds>
donor molecule, donor type, donor heavy atom, donor atom, acceptor molecule, acceptor atom, score
      L1  H     9    37       P1  7948  0.93
      L1  H    12    38       P1  7948  0.91

> <Gold.Chemscore.Hbond.Weighted>
-6.2287

> <Gold.Chemscore.Metal.Weighted>
-0.0000

> <Gold.Chemscore.Lipo.Weighted>
-10.4940

> <Gold.Chemscore.Internal_Hbond.Weighted>
0.0000

> <Gold.Chemscore.DEClash.Weighted>
0.0701

> <Gold.Chemscore.DEInternal.Weighted>
2.7084

> <Gold.Chemscore.Rot.Weighted>
3.8031

> <Gold.Chemscore.Internal.Correction.Weighted>
   9.000000E+99

> <Gold.Protein.RotatedTorsions>
[ 6907 6896 6895 6894 ] final  177.88 input  -60.11 | X-H torsion
[ 7974 7965 7964 7962 ] final  175.66 input  175.53 | X-H torsion
[ 8008 7997 7996 7995 ] final    4.26 input   59.86 | X-H torsion
[ 10167 10162 10161 10158 ] final  -74.97 input  -65.29 | X-H torsion
[ 10718 10713 10712 10709 ] final -135.69 input   66.30 | X-H torsion
[ 10763 10752 10751 10750 ] final  -48.84 input  -60.55 | X-H torsion
[ 11005 11000 10999 10996 ] final   72.34 input  -57.11 | X-H torsion

> <Gold.Protein.ActiveResidues>
 VAL166  LYS551  ARG553  GLY616  TRP617  ASP618  TYR619  PRO620  LYS621  CYS622 
 ASP623  PHE694  ASN695  SER759  ASP760  ASP761  ALA762  ILE779  LEU786  VAL792 
 PHE793  MET794  SER795  GLU796  ALA797  LYS798  CYS799  TRP800  GLU811  SER814 

> <Gold.Protein.RotatedAtoms>
  151.6968  133.3311  159.3256 H   0  0  0  0  0  0  0  0  0  0  0  0  # atno 6907 bound_to 6896
  150.7754  134.6651  159.6370 H   0  0  0  0  0  0  0  0  0  0  0  0  # atno 6908 bound_to 6896
  152.3794  134.6617  160.0200 H   0  0  0  0  0  0  0  0  0  0  0  0  # atno 6909 bound_to 6896
  144.7198  139.9979  143.6440 H   0  0  0  0  0  0  0  0  0  0  0  0  # atno 7974 bound_to 7965
  154.7137  140.2698  155.6605 H   0  0  0  0  0  0  0  0  0  0  0  0  # atno 8008 bound_to 7997
  156.2803  140.2748  156.1711 H   0  0  0  0  0  0  0  0  0  0  0  0  # atno 8009 bound_to 7997
  155.0600  140.0371  157.2563 H   0  0  0  0  0  0  0  0  0  0  0  0  # atno 8010 bound_to 7997
  140.4982  143.2366  151.7796 H   0  0  0  0  0  0  0  0  0  0  0  0  # atno 10167 bound_to 10162
  156.2690  130.7254  151.1214 H   0  0  0  0  0  0  0  0  0  0  0  0  # atno 10718 bound_to 10713
  154.0843  135.6586  153.4842 H   0  0  0  0  0  0  0  0  0  0  0  0  # atno 10763 bound_to 10752
  153.0344  135.5187  154.7443 H   0  0  0  0  0  0  0  0  0  0  0  0  # atno 10764 bound_to 10752
  154.6548  135.3006  154.9910 H   0  0  0  0  0  0  0  0  0  0  0  0  # atno 10765 bound_to 10752
  139.9496  134.7251  156.0895 H   0  0  0  0  0  0  0  0  0  0  0  0  # atno 11005 bound_to 11000
  146.0359  139.3377  143.0727 LP  0  0  0  0  0  0  0  0  0  0  0  0  # atno 17320 bound_to 7965
  145.8395  140.9588  143.0806 LP  0  0  0  0  0  0  0  0  0  0  0  0  # atno 17321 bound_to 7965
  139.4866  144.4558  151.9600 LP  0  0  0  0  0  0  0  0  0  0  0  0  # atno 17342 bound_to 10162
  140.3646  144.2931  150.5928 LP  0  0  0  0  0  0  0  0  0  0  0  0  # atno 17343 bound_to 10162
  157.7277  131.0637  150.5853 LP  0  0  0  0  0  0  0  0  0  0  0  0  # atno 17370 bound_to 10713
  156.5947  130.4338  149.5922 LP  0  0  0  0  0  0  0  0  0  0  0  0  # atno 17371 bound_to 10713
  141.1155  133.6629  156.3084 LP  0  0  0  0  0  0  0  0  0  0  0  0  # atno 17394 bound_to 11000
  140.5752  134.5801  157.5467 LP  0  0  0  0  0  0  0  0  0  0  0  0  # atno 17395 bound_to 11000

$$$$
