AV-unprocessed.smi:2328|AV-procd|sdf|9301|dock1
  -GOLD-   2272012523D 1   1.00000     0.00000
 Structure written by MMmdl.
 40 40  0  0  0  0  0  0  0  0  1 V2000
  151.4966  139.4907  154.8338 C   0  0  0  0  0  0  0  0  0  0  0  0
  150.0644  139.9944  154.5558 C   0  0  0  0  0  0  0  0  0  0  0  0
  149.2370  140.5886  155.7513 C   0  0  2  0  0  0  0  0  0  0  0  0
  149.9226  141.7958  156.2664 N   0  0  0  0  0  0  0  0  0  0  0  0
  151.0556  141.9904  156.9739 C   0  0  0  0  0  0  0  0  0  0  0  0
  151.7389  141.0217  157.3019 O   0  0  0  0  0  0  0  0  0  0  0  0
  151.5169  143.4049  157.3686 C   0  0  0  0  0  0  0  0  0  0  0  0
  151.7513  143.5197  158.8659 C   0  0  0  0  0  0  0  0  0  0  0  0
  152.5642  142.5907  159.5482 C   0  0  0  0  0  0  0  0  0  0  0  0
  152.7491  142.7425  160.9360 C   0  0  0  0  0  0  0  0  0  0  0  0
  152.1118  143.8197  161.5835 C   0  0  0  0  0  0  0  0  0  0  0  0
  151.3309  144.7149  160.9410 N   0  0  0  0  0  0  0  0  0  0  0  0
  151.1586  144.5619  159.6106 C   0  0  0  0  0  0  0  0  0  0  0  0
  149.0411  139.5182  156.8697 C   0  0  0  0  0  0  0  0  0  0  0  0
  150.1199  138.9917  157.4618 N   0  0  0  0  0  0  0  0  0  0  0  0
  147.9148  139.1791  157.2247 O   0  0  0  0  0  0  0  0  0  0  0  0
  147.8202  141.0687  155.2627 C   0  0  0  0  0  0  0  0  0  0  0  0
  147.8608  141.8755  153.9445 C   0  0  0  0  0  0  0  0  0  0  0  0
  147.0323  141.8943  156.3085 C   0  0  0  0  0  0  0  0  0  0  0  0
  151.9364  139.0984  153.9168 H   0  0  0  0  0  0  0  0  0  0  0  0
  151.5194  138.6818  155.5625 H   0  0  0  0  0  0  0  0  0  0  0  0
  152.1596  140.2788  155.1855 H   0  0  0  0  0  0  0  0  0  0  0  0
  150.1632  140.7370  153.7669 H   0  0  0  0  0  0  0  0  0  0  0  0
  149.5053  139.1759  154.1005 H   0  0  0  0  0  0  0  0  0  0  0  0
  149.4630  142.6528  155.9947 H   0  0  0  0  0  0  0  0  0  0  0  0
  152.4443  143.6814  156.8718 H   0  0  0  0  0  0  0  0  0  0  0  0
  150.7586  144.1255  157.0607 H   0  0  0  0  0  0  0  0  0  0  0  0
  153.0397  141.7777  159.0194 H   0  0  0  0  0  0  0  0  0  0  0  0
  153.3653  142.0507  161.4908 H   0  0  0  0  0  0  0  0  0  0  0  0
  152.2322  143.9655  162.6468 H   0  0  0  0  0  0  0  0  0  0  0  0
  150.5297  145.2939  159.1251 H   0  0  0  0  0  0  0  0  0  0  0  0
  150.0075  138.2940  158.1832 H   0  0  0  0  0  0  0  0  0  0  0  0
  151.0426  139.2906  157.1806 H   0  0  0  0  0  0  0  0  0  0  0  0
  147.2115  140.1845  155.0710 H   0  0  0  0  0  0  0  0  0  0  0  0
  148.4226  142.8035  154.0536 H   0  0  0  0  0  0  0  0  0  0  0  0
  146.8540  142.1444  153.6243 H   0  0  0  0  0  0  0  0  0  0  0  0
  148.3069  141.3143  153.1248 H   0  0  0  0  0  0  0  0  0  0  0  0
  147.5617  142.8050  156.5899 H   0  0  0  0  0  0  0  0  0  0  0  0
  146.8316  141.3303  157.2192 H   0  0  0  0  0  0  0  0  0  0  0  0
  146.0616  142.1950  155.9135 H   0  0  0  0  0  0  0  0  0  0  0  0
  1  2  1  0  0  0  0
  1 20  1  0  0  0  0
  1 21  1  0  0  0  0
  1 22  1  0  0  0  0
  2  3  1  0  0  0  0
  2 23  1  0  0  0  0
  2 24  1  0  0  0  0
  3  4  1  0  0  0  0
  3 14  1  0  0  0  0
  3 17  1  0  0  0  0
  4  5  1  0  0  0  0
  4 25  1  0  0  0  0
  5  6  2  0  0  0  0
  5  7  1  0  0  0  0
  7  8  1  0  0  0  0
  7 26  1  0  0  0  0
  7 27  1  0  0  0  0
  8 13  1  0  0  0  0
  8  9  2  0  0  0  0
  9 10  1  0  0  0  0
  9 28  1  0  0  0  0
 10 11  2  0  0  0  0
 10 29  1  0  0  0  0
 11 12  1  0  0  0  0
 11 30  1  0  0  0  0
 12 13  2  0  0  0  0
 13 31  1  0  0  0  0
 14 15  1  0  0  0  0
 14 16  2  0  0  0  0
 15 32  1  0  0  0  0
 15 33  1  0  0  0  0
 17 18  1  0  0  0  0
 17 19  1  0  0  0  0
 17 34  1  0  0  0  0
 18 35  1  0  0  0  0
 18 36  1  0  0  0  0
 18 37  1  0  0  0  0
 19 38  1  0  0  0  0
 19 39  1  0  0  0  0
 19 40  1  0  0  0  0
M  END
> <s_m_source_file>
AV-unprocessed.smi

> <i_m_source_file_index>
2328

> <i_lp_mmshare_version>
43012

> <i_f3d_flags>
0

> <s_epik_input>
W0NIM11bQ0gyXVtDQEBdKEMoPU8pW05IMl0pKFtDSF0oW0NIM10pW0NIM10pW05IXUMoPU8pW0NIMl1jMVtjSF1bY0hdW2NIXW5bY0hdMQ==

> <s_epik_cmdline>
J2VwaWtfcHl0aG9uJywgJy1waCcsICc3LjAnLCAnLXRuJywgJzgnLCAnLW1hJywgJzIwMCcsICctbWV0YWxfYmluZGluZycsICctaW1hZScsICc8aW5maWxlLm1hZT4nLCAnLW9tYWUnLCAnPG91dGZpbGUubWFlPic=

> <r_epik_Ionization_Penalty>
0.00378489

> <r_epik_Ionization_Penalty_Charging>
0

> <r_epik_Ionization_Penalty_Neutral>
0.00378489

> <r_epik_State_Penalty>
0.00269972

> <r_epik_Charging_Adjusted_Penalty>
0.00269972

> <i_epik_Tot_Q>
0

> <i_epik_Tot_abs_Q>
0

> <r_epik_Metal_State_Penalty>
-0

> <b_epik_Metal_Only>
0

> <s_lp_Force_Field>
OPLS_2005

> <r_lp_Energy>
16.0565

> <b_lp_Chiralities_Consistent>
1

> <s_lp_Variant>
AV-unprocessed.smi:2328-2

> <Gold.Version>
5.8.1

> <Gold.Id.Protein>
6NUR|6NUR_protein|mol2

> <Gold.PLP.Fitness>
39.7758

> <Gold.PLP.PLP>
-37.5923

> <Gold.PLP.part.hbond>
-1.0000

> <Gold.PLP.part.metal>
0.0000

> <Gold.PLP.part.buried>
-4.0408

> <Gold.PLP.part.nonpolar>
-32.9995

> <Gold.PLP.part.repulsive>
0.3334

> <Gold.PLP.ligand.clash>
0.0000

> <Gold.PLP.ligand.torsion>
0.4815

> <Gold.PLP.Chemscore.Hbond>
1.0000

> <Gold.PLP.Chemscore.CHOScore>
0.0000

> <Gold.PLP.Chemscore.Metal>
0.0000

> <Gold.Chemscore.Hbonds>
donor molecule, donor type, donor heavy atom, donor atom, acceptor molecule, acceptor atom, score
      L1  H     4    25       P1  8028  0.65

> <Gold.PLP.Chemscore.Internal.Correction>
0.1466

> <Gold.Rescore>
     Score         DG    S(hbond)    S(metal)    S(lipo)     H(rot)  DE(clash)    DE(int)     intcor
     10.68     -14.46       0.98        0.00      98.91       2.29       0.16       3.62       ----

> <Gold.Chemscore.Fitness>
10.6835

> <Gold.Chemscore.DG>
-14.4625

> <Gold.Chemscore.ZeroCoef>
-5.4800

> <Gold.Chemscore.Hbond>
0.9813

> <Gold.Chemscore.Metal>
0.0000

> <Gold.Chemscore.Lipo>
98.9117

> <Gold.Chemscore.Internal_Hbond>
0.0000

> <Gold.Chemscore.DEClash>
0.1596

> <Gold.Chemscore.DEInternal>
3.6194

> <Gold.Chemscore.Rot>
2.2921

> <Gold.Chemscore.Internal.Correction>
   9.000000E+99

> <Gold.Chemscore.Hbonds>
donor molecule, donor type, donor heavy atom, donor atom, acceptor molecule, acceptor atom, score
      L1  H     4    25       P1  8028  0.65

> <Gold.Chemscore.Hbond.Weighted>
-3.2776

> <Gold.Chemscore.Metal.Weighted>
-0.0000

> <Gold.Chemscore.Lipo.Weighted>
-11.5727

> <Gold.Chemscore.Internal_Hbond.Weighted>
0.0000

> <Gold.Chemscore.DEClash.Weighted>
0.1596

> <Gold.Chemscore.DEInternal.Weighted>
3.6194

> <Gold.Chemscore.Rot.Weighted>
5.8677

> <Gold.Chemscore.Internal.Correction.Weighted>
   9.000000E+99

> <Gold.Protein.RotatedTorsions>
[ 6907 6896 6895 6894 ] final   43.51 input  -60.11 | X-H torsion
[ 7974 7965 7964 7962 ] final  176.73 input  175.53 | X-H torsion
[ 8008 7997 7996 7995 ] final  158.64 input   59.86 | X-H torsion
[ 10167 10162 10161 10158 ] final -139.44 input  -65.29 | X-H torsion
[ 10718 10713 10712 10709 ] final    3.04 input   66.30 | X-H torsion
[ 10763 10752 10751 10750 ] final  -16.26 input  -60.55 | X-H torsion
[ 11005 11000 10999 10996 ] final  177.11 input  -57.11 | X-H torsion

> <Gold.Protein.ActiveResidues>
 VAL166  LYS551  ARG553  GLY616  TRP617  ASP618  TYR619  PRO620  LYS621  CYS622 
 ASP623  PHE694  ASN695  SER759  ASP760  ASP761  ALA762  ILE779  LEU786  VAL792 
 PHE793  MET794  SER795  GLU796  ALA797  LYS798  CYS799  TRP800  GLU811  SER814 

> <Gold.Protein.RotatedAtoms>
  152.2211  134.8412  160.0485 H   0  0  0  0  0  0  0  0  0  0  0  0  # atno 6907 bound_to 6896
  151.9195  133.3576  159.3900 H   0  0  0  0  0  0  0  0  0  0  0  0  # atno 6908 bound_to 6896
  150.7000  134.4575  159.5409 H   0  0  0  0  0  0  0  0  0  0  0  0  # atno 6909 bound_to 6896
  144.7179  140.0141  143.6440 H   0  0  0  0  0  0  0  0  0  0  0  0  # atno 7974 bound_to 7965
  156.2290  140.1853  156.7290 H   0  0  0  0  0  0  0  0  0  0  0  0  # atno 8008 bound_to 7997
  154.5990  140.0639  156.9370 H   0  0  0  0  0  0  0  0  0  0  0  0  # atno 8009 bound_to 7997
  155.2207  140.3307  155.4318 H   0  0  0  0  0  0  0  0  0  0  0  0  # atno 8010 bound_to 7997
  139.8380  143.7360  152.2664 H   0  0  0  0  0  0  0  0  0  0  0  0  # atno 10167 bound_to 10162
  156.8719  130.5623  149.5657 H   0  0  0  0  0  0  0  0  0  0  0  0  # atno 10718 bound_to 10713
  153.5559  135.7010  153.5569 H   0  0  0  0  0  0  0  0  0  0  0  0  # atno 10763 bound_to 10752
  153.3473  135.4005  155.1618 H   0  0  0  0  0  0  0  0  0  0  0  0  # atno 10764 bound_to 10752
  154.8655  135.3757  154.5073 H   0  0  0  0  0  0  0  0  0  0  0  0  # atno 10765 bound_to 10752
  140.3805  134.6950  157.4448 H   0  0  0  0  0  0  0  0  0  0  0  0  # atno 11005 bound_to 11000
  146.0234  139.3271  143.0799 LP  0  0  0  0  0  0  0  0  0  0  0  0  # atno 17320 bound_to 7965
  145.8540  140.9512  143.0734 LP  0  0  0  0  0  0  0  0  0  0  0  0  # atno 17321 bound_to 7965
  139.7588  144.7513  151.0395 LP  0  0  0  0  0  0  0  0  0  0  0  0  # atno 17342 bound_to 10162
  140.7801  143.4775  151.0063 LP  0  0  0  0  0  0  0  0  0  0  0  0  # atno 17343 bound_to 10162
  156.0722  130.5752  150.9405 LP  0  0  0  0  0  0  0  0  0  0  0  0  # atno 17370 bound_to 10713
  157.6190  131.0931  150.8656 LP  0  0  0  0  0  0  0  0  0  0  0  0  # atno 17371 bound_to 10713
  140.0482  134.6169  155.8894 LP  0  0  0  0  0  0  0  0  0  0  0  0  # atno 17394 bound_to 11000
  141.1925  133.6575  156.5504 LP  0  0  0  0  0  0  0  0  0  0  0  0  # atno 17395 bound_to 11000

$$$$
