AV-unprocessed.smi:102|AV-procd|sdf|949|dock8
  -GOLD-   2262017473D 1   1.00000     0.00000
 Structure written by MMmdl.
 44 45  0  0  0  0  0  0  0  0  1 V2000
  148.6178  134.9119  159.6823 C   0  0  0  0  0  0  0  0  0  0  0  0
  149.2792  136.1265  160.3210 C   0  0  0  0  0  0  0  0  0  0  0  0
  148.7454  136.7342  161.2492 O   0  0  0  0  0  0  0  0  0  0  0  0
  150.4618  136.4231  159.7612 O   0  0  0  0  0  0  0  0  0  0  0  0
  151.3934  137.2205  160.4732 C   0  0  0  0  0  0  0  0  0  0  0  0
  151.7447  138.4545  159.6367 C   0  0  2  0  0  0  0  0  0  0  0  0
  150.6009  138.9084  158.9270 O   0  0  0  0  0  0  0  0  0  0  0  0
  151.0234  139.6965  157.8619 C   0  0  1  0  0  0  0  0  0  0  0  0
  151.0680  141.1432  158.3327 N   0  0  0  0  0  0  0  0  0  0  0  0
  151.6976  141.5337  159.5119 C   0  0  0  0  0  0  0  0  0  0  0  0
  151.6745  142.8037  159.9804 C   0  0  0  0  0  0  0  0  0  0  0  0
  152.3065  143.0982  161.1293 F   0  0  0  0  0  0  0  0  0  0  0  0
  150.9481  143.8482  159.2668 C   0  0  0  0  0  0  0  0  0  0  0  0
  150.8809  145.0283  159.6040 O   0  0  0  0  0  0  0  0  0  0  0  0
  150.2820  143.4041  158.1226 N   0  0  0  0  0  0  0  0  0  0  0  0
  150.2871  142.0958  157.6363 C   0  0  0  0  0  0  0  0  0  0  0  0
  149.6267  141.8177  156.6362 O   0  0  0  0  0  0  0  0  0  0  0  0
  152.3905  139.1468  157.4088 C   0  0  2  0  0  0  0  0  0  0  0  0
  152.2745  138.4488  156.1752 O   0  0  0  0  0  0  0  0  0  0  0  0
  151.6127  139.0032  155.1447 C   0  0  0  0  0  0  0  0  0  0  0  0
  151.5702  138.0945  153.9234 C   0  0  0  0  0  0  0  0  0  0  0  0
  151.0784  140.1121  155.1402 O   0  0  0  0  0  0  0  0  0  0  0  0
  152.7545  138.1616  158.5206 C   0  0  1  0  0  0  0  0  0  0  0  0
  154.0812  138.3858  158.9798 O   0  0  0  0  0  0  0  0  0  0  0  0
  154.6717  137.4984  159.8002 C   0  0  0  0  0  0  0  0  0  0  0  0
  156.0460  137.9601  160.2664 C   0  0  0  0  0  0  0  0  0  0  0  0
  154.2016  136.4186  160.1587 O   0  0  0  0  0  0  0  0  0  0  0  0
  149.7406  144.0854  157.6104 H   0  0  0  0  0  0  0  0  0  0  0  0
  149.0284  134.7238  158.6900 H   0  0  0  0  0  0  0  0  0  0  0  0
  147.5440  135.0731  159.5849 H   0  0  0  0  0  0  0  0  0  0  0  0
  148.7807  134.0272  160.2978 H   0  0  0  0  0  0  0  0  0  0  0  0
  150.9416  137.5314  161.4162 H   0  0  0  0  0  0  0  0  0  0  0  0
  152.2920  136.6491  160.7108 H   0  0  0  0  0  0  0  0  0  0  0  0
  152.1133  139.2552  160.2798 H   0  0  0  0  0  0  0  0  0  0  0  0
  150.2918  139.6670  157.0525 H   0  0  0  0  0  0  0  0  0  0  0  0
  152.2220  140.8110  160.1172 H   0  0  0  0  0  0  0  0  0  0  0  0
  153.1253  139.9454  157.3122 H   0  0  0  0  0  0  0  0  0  0  0  0
  152.5039  137.5402  153.8251 H   0  0  0  0  0  0  0  0  0  0  0  0
  151.4222  138.6818  153.0168 H   0  0  0  0  0  0  0  0  0  0  0  0
  150.7501  137.3818  154.0116 H   0  0  0  0  0  0  0  0  0  0  0  0
  152.6185  137.1345  158.1766 H   0  0  0  0  0  0  0  0  0  0  0  0
  156.0838  139.0475  160.3360 H   0  0  0  0  0  0  0  0  0  0  0  0
  156.8119  137.6308  159.5642 H   0  0  0  0  0  0  0  0  0  0  0  0
  156.2741  137.5444  161.2481 H   0  0  0  0  0  0  0  0  0  0  0  0
  1  2  1  0  0  0  0
  1 29  1  0  0  0  0
  1 30  1  0  0  0  0
  1 31  1  0  0  0  0
  2  3  2  0  0  0  0
  2  4  1  0  0  0  0
  4  5  1  0  0  0  0
  5  6  1  0  0  0  0
  5 32  1  0  0  0  0
  5 33  1  0  0  0  0
  6 23  1  0  0  0  0
  6  7  1  0  0  0  0
  6 34  1  0  0  0  0
  7  8  1  0  0  0  0
  8  9  1  0  0  0  0
  8 18  1  0  0  0  0
  8 35  1  0  0  0  0
  9 16  1  0  0  0  0
  9 10  1  0  0  0  0
 10 11  2  0  0  0  0
 10 36  1  0  0  0  0
 11 12  1  0  0  0  0
 11 13  1  0  0  0  0
 13 14  2  0  0  0  0
 13 15  1  0  0  0  0
 15 28  1  0  0  0  0
 15 16  1  0  0  0  0
 16 17  2  0  0  0  0
 18 19  1  0  0  0  0
 18 23  1  0  0  0  0
 18 37  1  0  0  0  0
 19 20  1  0  0  0  0
 20 21  1  0  0  0  0
 20 22  2  0  0  0  0
 21 38  1  0  0  0  0
 21 39  1  0  0  0  0
 21 40  1  0  0  0  0
 23 24  1  0  0  0  0
 23 41  1  0  0  0  0
 24 25  1  0  0  0  0
 25 26  1  0  0  0  0
 25 27  2  0  0  0  0
 26 42  1  0  0  0  0
 26 43  1  0  0  0  0
 26 44  1  0  0  0  0
M  END
> <s_m_source_file>
AV-unprocessed.smi

> <i_m_source_file_index>
102

> <i_lp_mmshare_version>
43012

> <i_f3d_flags>
0

> <s_epik_input>
W0NIM11DKD1PKU9bQ0gyXVtDQEBIXTFPW0NASF0oW0NAQEhdKE9DKD1PKVtDSDNdKVtDQEhdMU9DKD1PKVtDSDNdKW4yW2NIXWMoRiljKD1PKVtuSF1jMj1P

> <s_epik_cmdline>
J2VwaWtfcHl0aG9uJywgJy1waCcsICc3LjAnLCAnLXRuJywgJzgnLCAnLW1hJywgJzIwMCcsICctbWV0YWxfYmluZGluZycsICctaW1hZScsICc8aW5maWxlLm1hZT4nLCAnLW9tYWUnLCAnPG91dGZpbGUubWFlPic=

> <r_lp_tautomer_probability>
0.999537

> <r_epik_Ionization_Penalty>
0.058267

> <r_epik_Ionization_Penalty_Charging>
0.058267

> <r_epik_Ionization_Penalty_Neutral>
6.57791e-16

> <r_epik_State_Penalty>
0.0503774

> <r_epik_Charging_Adjusted_Penalty>
0.108644

> <i_epik_Tot_Q>
0

> <i_epik_Tot_abs_Q>
0

> <r_epik_Metal_State_Penalty>
2.6644

> <b_epik_Metal_Only>
0

> <s_epik_Chemistry_Notes>
This compound has an ester and may undergo hydrolysis at high or low pH. This compound contains an acetal/aminal-like group ( X-CH(R)-Y where X, Y are N, S, or O) that may be acid/base labile, releasing an aldehyde.

> <s_lp_Force_Field>
OPLS_2005

> <r_lp_Energy>
9.37948

> <b_lp_Chiralities_Consistent>
1

> <s_lp_Variant>
AV-unprocessed.smi:102-5

> <Gold.Version>
5.8.1

> <Gold.Id.Protein>
6NUR|6NUR_protein|mol2

> <Gold.PLP.Fitness>
43.8405

> <Gold.PLP.PLP>
-33.0607

> <Gold.PLP.part.hbond>
-6.0000

> <Gold.PLP.part.metal>
0.0000

> <Gold.PLP.part.buried>
-3.2180

> <Gold.PLP.part.nonpolar>
-25.8757

> <Gold.PLP.part.repulsive>
0.4937

> <Gold.PLP.ligand.clash>
0.0000

> <Gold.PLP.ligand.torsion>
1.1854

> <Gold.PLP.Chemscore.Hbond>
4.2904

> <Gold.PLP.Chemscore.CHOScore>
0.0000

> <Gold.PLP.Chemscore.Metal>
0.0000

> <Gold.Chemscore.Hbonds>
donor molecule, donor type, donor heavy atom, donor atom, acceptor molecule, acceptor atom, score
      L1  H    15    28       P1  8028  0.57
      P1  H  6931  6943       L1     3  1.00
      P1  H  7989  7998       L1    22  1.00

> <Gold.PLP.Chemscore.Internal.Correction>
0.2793

> <Gold.Rescore>
     Score         DG    S(hbond)    S(metal)    S(lipo)     H(rot)  DE(clash)    DE(int)     intcor
      9.11     -15.82       4.27        0.00      55.08       4.05       2.84       3.86       ----

> <Gold.Chemscore.Fitness>
9.1128

> <Gold.Chemscore.DG>
-15.8175

> <Gold.Chemscore.ZeroCoef>
-5.4800

> <Gold.Chemscore.Hbond>
4.2715

> <Gold.Chemscore.Metal>
0.0000

> <Gold.Chemscore.Lipo>
55.0757

> <Gold.Chemscore.Internal_Hbond>
0.0000

> <Gold.Chemscore.DEClash>
2.8443

> <Gold.Chemscore.DEInternal>
3.8604

> <Gold.Chemscore.Rot>
4.0520

> <Gold.Chemscore.Internal.Correction>
   9.000000E+99

> <Gold.Chemscore.Hbonds>
donor molecule, donor type, donor heavy atom, donor atom, acceptor molecule, acceptor atom, score
      L1  H    15    28       P1  8028  0.16
      P1  H  6896  6908       L1    27  0.02
      P1  H  6931  6943       L1     3  0.99
      P1  H  7989  7998       L1    22  0.44

> <Gold.Chemscore.Hbond.Weighted>
-14.2668

> <Gold.Chemscore.Metal.Weighted>
-0.0000

> <Gold.Chemscore.Lipo.Weighted>
-6.4439

> <Gold.Chemscore.Internal_Hbond.Weighted>
0.0000

> <Gold.Chemscore.DEClash.Weighted>
2.8443

> <Gold.Chemscore.DEInternal.Weighted>
3.8604

> <Gold.Chemscore.Rot.Weighted>
10.3732

> <Gold.Chemscore.Internal.Correction.Weighted>
   9.000000E+99

> <Gold.Protein.RotatedTorsions>
[ 6907 6896 6895 6894 ] final  -83.83 input  -60.11 | X-H torsion
[ 7974 7965 7964 7962 ] final  -54.67 input  175.53 | X-H torsion
[ 8008 7997 7996 7995 ] final  -66.93 input   59.86 | X-H torsion
[ 10167 10162 10161 10158 ] final -160.42 input  -65.29 | X-H torsion
[ 10718 10713 10712 10709 ] final  -56.00 input   66.30 | X-H torsion
[ 10763 10752 10751 10750 ] final   85.33 input  -60.55 | X-H torsion
[ 11005 11000 10999 10996 ] final   54.51 input  -57.11 | X-H torsion

> <Gold.Protein.ActiveResidues>
 VAL166  LYS551  ARG553  GLY616  TRP617  ASP618  TYR619  PRO620  LYS621  CYS622 
 ASP623  PHE694  ASN695  SER759  ASP760  ASP761  ALA762  ILE779  LEU786  VAL792 
 PHE793  MET794  SER795  GLU796  ALA797  LYS798  CYS799  TRP800  GLU811  SER814 

> <Gold.Protein.RotatedAtoms>
  150.6882  134.3452  159.4884 H   0  0  0  0  0  0  0  0  0  0  0  0  # atno 6907 bound_to 6896
  152.1300  134.9139  160.0568 H   0  0  0  0  0  0  0  0  0  0  0  0  # atno 6908 bound_to 6896
  152.0312  133.3903  159.4335 H   0  0  0  0  0  0  0  0  0  0  0  0  # atno 6909 bound_to 6896
  145.8829  140.8130  142.9830 H   0  0  0  0  0  0  0  0  0  0  0  0  # atno 7974 bound_to 7965
  154.4767  140.0903  156.7278 H   0  0  0  0  0  0  0  0  0  0  0  0  # atno 8008 bound_to 7997
  155.4579  140.3460  155.4290 H   0  0  0  0  0  0  0  0  0  0  0  0  # atno 8009 bound_to 7997
  156.1127  140.1452  156.9305 H   0  0  0  0  0  0  0  0  0  0  0  0  # atno 8010 bound_to 7997
  139.6541  144.0031  152.2182 H   0  0  0  0  0  0  0  0  0  0  0  0  # atno 10167 bound_to 10162
  156.1323  130.4159  150.0247 H   0  0  0  0  0  0  0  0  0  0  0  0  # atno 10718 bound_to 10713
  153.1465  135.4621  154.9574 H   0  0  0  0  0  0  0  0  0  0  0  0  # atno 10763 bound_to 10752
  154.7790  135.3182  154.8032 H   0  0  0  0  0  0  0  0  0  0  0  0  # atno 10764 bound_to 10752
  153.8545  135.6918  153.4843 H   0  0  0  0  0  0  0  0  0  0  0  0  # atno 10765 bound_to 10752
  140.0681  134.5508  155.9077 H   0  0  0  0  0  0  0  0  0  0  0  0  # atno 11005 bound_to 11000
  144.6728  140.1412  143.7437 LP  0  0  0  0  0  0  0  0  0  0  0  0  # atno 17320 bound_to 7965
  145.9001  139.2425  143.1498 LP  0  0  0  0  0  0  0  0  0  0  0  0  # atno 17321 bound_to 7965
  139.9753  144.6466  150.7951 LP  0  0  0  0  0  0  0  0  0  0  0  0  # atno 17342 bound_to 10162
  140.7551  143.3040  151.3009 LP  0  0  0  0  0  0  0  0  0  0  0  0  # atno 17343 bound_to 10162
  156.8155  130.9340  151.3643 LP  0  0  0  0  0  0  0  0  0  0  0  0  # atno 17370 bound_to 10713
  157.6500  130.8876  149.9613 LP  0  0  0  0  0  0  0  0  0  0  0  0  # atno 17371 bound_to 10713
  141.2001  133.6610  156.5877 LP  0  0  0  0  0  0  0  0  0  0  0  0  # atno 17394 bound_to 11000
  140.3669  134.7639  157.4572 LP  0  0  0  0  0  0  0  0  0  0  0  0  # atno 17395 bound_to 11000

$$$$
