AV-unprocessed.smi:883|AV-procd|sdf|4040|dock1
  -GOLD-   22720 1533D 1   1.00000     0.00000
 Structure written by MMmdl.
 29 31  0  0  0  0  0  0  0  0  1 V2000
  151.6001  132.1577  157.8048 N   0  0  0  0  0  0  0  0  0  0  0  0
  150.9825  132.2152  156.8283 C   0  0  0  0  0  0  0  0  0  0  0  0
  150.2073  132.2872  155.6018 C   0  0  0  0  0  0  0  0  0  0  0  0
  149.8123  133.5299  155.0687 C   0  0  0  0  0  0  0  0  0  0  0  0
  149.0571  133.5481  153.8796 C   0  0  0  0  0  0  0  0  0  0  0  0
  148.7239  132.3225  153.2650 C   0  0  0  0  0  0  0  0  0  0  0  0
  147.9708  132.3494  152.0827 N   0  0  0  0  0  0  0  0  0  0  0  0
  146.8142  133.2285  151.9388 C   0  0  2  0  0  0  0  0  0  0  0  0
  145.5976  132.7545  152.7375 C   0  0  0  0  0  0  0  0  0  0  0  0
  144.5052  132.7230  151.6593 C   0  0  2  0  0  0  0  0  0  0  0  0
  144.6727  131.5195  150.7231 C   0  0  0  0  0  0  0  0  0  0  0  0
  145.8948  131.9313  149.9047 C   0  0  0  0  0  0  0  0  0  0  0  0
  146.2370  133.3033  150.5106 C   0  0  1  0  0  0  0  0  0  0  0  0
  144.9327  133.7729  150.8077 O   0  0  0  0  0  0  0  0  0  0  0  0
  149.1080  131.1275  153.7741 N   0  0  0  0  0  0  0  0  0  0  0  0
  149.8304  131.1153  154.9152 C   0  0  0  0  0  0  0  0  0  0  0  0
  150.0787  134.4557  155.5584 H   0  0  0  0  0  0  0  0  0  0  0  0
  148.7398  134.4879  153.4516 H   0  0  0  0  0  0  0  0  0  0  0  0
  148.3316  131.8927  151.2577 H   0  0  0  0  0  0  0  0  0  0  0  0
  147.0797  134.2314  152.2765 H   0  0  0  0  0  0  0  0  0  0  0  0
  145.7318  131.7799  153.2094 H   0  0  0  0  0  0  0  0  0  0  0  0
  145.3545  133.4763  153.5180 H   0  0  0  0  0  0  0  0  0  0  0  0
  143.4941  132.8417  152.0495 H   0  0  0  0  0  0  0  0  0  0  0  0
  144.8204  130.5862  151.2672 H   0  0  0  0  0  0  0  0  0  0  0  0
  143.8016  131.4047  150.0769 H   0  0  0  0  0  0  0  0  0  0  0  0
  146.7147  131.2162  149.9723 H   0  0  0  0  0  0  0  0  0  0  0  0
  145.6270  132.0346  148.8525 H   0  0  0  0  0  0  0  0  0  0  0  0
  146.7982  133.9528  149.8384 H   0  0  0  0  0  0  0  0  0  0  0  0
  150.1116  130.1403  155.2865 H   0  0  0  0  0  0  0  0  0  0  0  0
  1  2  3  0  0  0  0
  2  3  1  0  0  0  0
  3 16  1  0  0  0  0
  3  4  2  0  0  0  0
  4  5  1  0  0  0  0
  4 17  1  0  0  0  0
  5  6  2  0  0  0  0
  5 18  1  0  0  0  0
  6  7  1  0  0  0  0
  6 15  1  0  0  0  0
  7  8  1  0  0  0  0
  7 19  1  0  0  0  0
  8 13  1  0  0  0  0
  8  9  1  0  0  0  0
  8 20  1  0  0  0  0
  9 10  1  0  0  0  0
  9 21  1  0  0  0  0
  9 22  1  0  0  0  0
 10 14  1  0  0  0  0
 10 11  1  0  0  0  0
 10 23  1  0  0  0  0
 11 12  1  0  0  0  0
 11 24  1  0  0  0  0
 11 25  1  0  0  0  0
 12 13  1  0  0  0  0
 12 26  1  0  0  0  0
 12 27  1  0  0  0  0
 13 14  1  0  0  0  0
 13 28  1  0  0  0  0
 15 16  2  0  0  0  0
 16 29  1  0  0  0  0
M  END
> <s_m_source_file>
AV-unprocessed.smi

> <i_m_source_file_index>
883

> <i_lp_mmshare_version>
43012

> <i_f3d_flags>
0

> <s_epik_input>
TiNDYzFbY0hdW2NIXWMobltjSF0xKVtOSF1bQ0BIXShbQ0gyXVtDQEBIXTIzKVtDQEBIXShPMylbQ0gyXVtDSDJdMg==

> <s_epik_cmdline>
J2VwaWtfcHl0aG9uJywgJy1waCcsICc3LjAnLCAnLXRuJywgJzgnLCAnLW1hJywgJzIwMCcsICctbWV0YWxfYmluZGluZycsICctaW1hZScsICc8aW5maWxlLm1hZT4nLCAnLW9tYWUnLCAnPG91dGZpbGUubWFlPic=

> <r_lp_tautomer_probability>
1

> <r_epik_Ionization_Penalty>
1.50983e-05

> <r_epik_Ionization_Penalty_Charging>
0

> <r_epik_Ionization_Penalty_Neutral>
1.50983e-05

> <r_epik_State_Penalty>
-0

> <r_epik_Charging_Adjusted_Penalty>
0

> <i_epik_Tot_Q>
0

> <i_epik_Tot_abs_Q>
0

> <r_epik_Metal_State_Penalty>
-0

> <b_epik_Metal_Only>
0

> <s_lp_Force_Field>
OPLS_2005

> <r_lp_Energy>
39.3985

> <b_lp_Chiralities_Consistent>
1

> <s_lp_Variant>
AV-unprocessed.smi:883-3

> <Gold.Version>
5.8.1

> <Gold.Id.Protein>
6NUR|6NUR_protein|mol2

> <Gold.PLP.Fitness>
37.7584

> <Gold.PLP.PLP>
-32.7040

> <Gold.PLP.part.hbond>
-1.9624

> <Gold.PLP.part.metal>
0.0000

> <Gold.PLP.part.buried>
-4.2352

> <Gold.PLP.part.nonpolar>
-25.8020

> <Gold.PLP.part.repulsive>
0.2358

> <Gold.PLP.ligand.clash>
0.0000

> <Gold.PLP.ligand.torsion>
0.4776

> <Gold.PLP.Chemscore.Hbond>
2.0000

> <Gold.PLP.Chemscore.CHOScore>
0.0000

> <Gold.PLP.Chemscore.Metal>
0.0000

> <Gold.Chemscore.Hbonds>
donor molecule, donor type, donor heavy atom, donor atom, acceptor molecule, acceptor atom, score
      L1  H     7    19       P1 10747  1.00
      P1  H  6896  6907       L1     1  1.00

> <Gold.PLP.Chemscore.Internal.Correction>
0.0097

> <Gold.Rescore>
     Score         DG    S(hbond)    S(metal)    S(lipo)     H(rot)  DE(clash)    DE(int)     intcor
     16.92     -17.35       1.98        0.00      66.90       1.00       0.00       0.42       ----

> <Gold.Chemscore.Fitness>
16.9242

> <Gold.Chemscore.DG>
-17.3457

> <Gold.Chemscore.ZeroCoef>
-5.4800

> <Gold.Chemscore.Hbond>
1.9757

> <Gold.Chemscore.Metal>
0.0000

> <Gold.Chemscore.Lipo>
66.8977

> <Gold.Chemscore.Internal_Hbond>
0.0000

> <Gold.Chemscore.DEClash>
0.0015

> <Gold.Chemscore.DEInternal>
0.4200

> <Gold.Chemscore.Rot>
1.0000

> <Gold.Chemscore.Internal.Correction>
   9.000000E+99

> <Gold.Chemscore.Hbonds>
donor molecule, donor type, donor heavy atom, donor atom, acceptor molecule, acceptor atom, score
      L1  H     7    19       P1 10747  0.96
      P1  H  6896  6907       L1     1  0.97

> <Gold.Chemscore.Hbond.Weighted>
-6.5987

> <Gold.Chemscore.Metal.Weighted>
-0.0000

> <Gold.Chemscore.Lipo.Weighted>
-7.8270

> <Gold.Chemscore.Internal_Hbond.Weighted>
0.0000

> <Gold.Chemscore.DEClash.Weighted>
0.0015

> <Gold.Chemscore.DEInternal.Weighted>
0.4200

> <Gold.Chemscore.Rot.Weighted>
2.5600

> <Gold.Chemscore.Internal.Correction.Weighted>
   9.000000E+99

> <Gold.Protein.RotatedTorsions>
[ 6907 6896 6895 6894 ] final  170.45 input  -60.11 | X-H torsion
[ 7974 7965 7964 7962 ] final  100.77 input  175.53 | X-H torsion
[ 8008 7997 7996 7995 ] final -132.97 input   59.86 | X-H torsion
[ 10167 10162 10161 10158 ] final -121.74 input  -65.29 | X-H torsion
[ 10718 10713 10712 10709 ] final   33.27 input   66.30 | X-H torsion
[ 10763 10752 10751 10750 ] final   96.79 input  -60.55 | X-H torsion
[ 11005 11000 10999 10996 ] final  -10.92 input  -57.11 | X-H torsion

> <Gold.Protein.ActiveResidues>
 VAL166  LYS551  ARG553  GLY616  TRP617  ASP618  TYR619  PRO620  LYS621  CYS622 
 ASP623  PHE694  ASN695  SER759  ASP760  ASP761  ALA762  ILE779  LEU786  VAL792 
 PHE793  MET794  SER795  GLU796  ALA797  LYS798  CYS799  TRP800  GLU811  SER814 

> <Gold.Protein.RotatedAtoms>
  151.8159  133.3388  159.3569 H   0  0  0  0  0  0  0  0  0  0  0  0  # atno 6907 bound_to 6896
  150.7310  134.5619  159.5856 H   0  0  0  0  0  0  0  0  0  0  0  0  # atno 6908 bound_to 6896
  152.3041  134.7577  160.0402 H   0  0  0  0  0  0  0  0  0  0  0  0  # atno 6909 bound_to 6896
  145.3812  139.2379  143.3403 H   0  0  0  0  0  0  0  0  0  0  0  0  # atno 7974 bound_to 7965
  155.3377  140.0470  157.3044 H   0  0  0  0  0  0  0  0  0  0  0  0  # atno 8008 bound_to 7997
  154.5294  140.2252  155.8797 H   0  0  0  0  0  0  0  0  0  0  0  0  # atno 8009 bound_to 7997
  156.1773  140.3082  155.9089 H   0  0  0  0  0  0  0  0  0  0  0  0  # atno 8010 bound_to 7997
  140.0218  143.5337  152.2217 H   0  0  0  0  0  0  0  0  0  0  0  0  # atno 10167 bound_to 10162
  157.2957  130.7325  149.6637 H   0  0  0  0  0  0  0  0  0  0  0  0  # atno 10718 bound_to 10713
  153.2691  135.4206  155.0970 H   0  0  0  0  0  0  0  0  0  0  0  0  # atno 10763 bound_to 10752
  154.8449  135.3468  154.6269 H   0  0  0  0  0  0  0  0  0  0  0  0  # atno 10764 bound_to 10752
  153.6689  135.7044  153.5210 H   0  0  0  0  0  0  0  0  0  0  0  0  # atno 10765 bound_to 10752
  140.7499  133.8601  155.9036 H   0  0  0  0  0  0  0  0  0  0  0  0  # atno 11005 bound_to 11000
  146.2841  140.4479  142.8765 LP  0  0  0  0  0  0  0  0  0  0  0  0  # atno 17320 bound_to 7965
  144.8507  140.6996  143.6170 LP  0  0  0  0  0  0  0  0  0  0  0  0  # atno 17321 bound_to 7965
  139.6135  144.7614  151.2899 LP  0  0  0  0  0  0  0  0  0  0  0  0  # atno 17342 bound_to 10162
  140.7339  143.6780  150.8025 LP  0  0  0  0  0  0  0  0  0  0  0  0  # atno 17343 bound_to 10162
  155.9669  130.4295  150.4835 LP  0  0  0  0  0  0  0  0  0  0  0  0  # atno 17370 bound_to 10713
  157.2807  131.0606  151.2200 LP  0  0  0  0  0  0  0  0  0  0  0  0  # atno 17371 bound_to 10713
  140.9760  134.1468  157.4535 LP  0  0  0  0  0  0  0  0  0  0  0  0  # atno 17394 bound_to 11000
  139.8789  134.9995  156.5957 LP  0  0  0  0  0  0  0  0  0  0  0  0  # atno 17395 bound_to 11000

$$$$
