AV-unprocessed.smi:3015|AV-procd|sdf|11471|dock2
  -GOLD-   2272016403D 1   1.00000     0.00000
 Structure written by MMmdl.
 24 24  0  0  0  0  0  0  0  0  2 V2000
  145.1126  135.9509  149.6030 N   0  3  0  0  0  0  0  0  0  0  0  0
  145.5843  135.7803  150.9905 C   0  0  1  0  0  0  0  0  0  0  0  0
  145.8332  137.1519  151.6413 C   0  0  0  0  0  0  0  0  0  0  0  0
  146.4856  138.0128  150.7311 O   0  0  0  0  0  0  0  0  0  0  0  0
  144.5762  134.9457  151.8038 C   0  0  0  0  0  0  0  0  0  0  0  0
  144.7135  133.4513  151.5696 C   0  0  0  0  0  0  0  0  0  0  0  0
  145.6456  132.6873  152.3024 C   0  0  0  0  0  0  0  0  0  0  0  0
  145.7402  131.3056  152.0483 C   0  0  0  0  0  0  0  0  0  0  0  0
  144.8953  130.7435  151.0706 C   0  0  0  0  0  0  0  0  0  0  0  0
  143.9985  131.4649  150.3638 N   0  0  0  0  0  0  0  0  0  0  0  0
  143.9112  132.7881  150.6161 C   0  0  0  0  0  0  0  0  0  0  0  0
  144.3155  135.3532  149.4399 H   0  0  0  0  0  0  0  0  0  0  0  0
  145.8551  135.7067  148.9634 H   0  0  0  0  0  0  0  0  0  0  0  0
  146.5301  135.2377  150.9550 H   0  0  0  0  0  0  0  0  0  0  0  0
  144.9000  137.6078  151.9745 H   0  0  0  0  0  0  0  0  0  0  0  0
  146.4715  137.0458  152.5193 H   0  0  0  0  0  0  0  0  0  0  0  0
  145.8390  138.3868  150.1512 H   0  0  0  0  0  0  0  0  0  0  0  0
  144.7150  135.1331  152.8695 H   0  0  0  0  0  0  0  0  0  0  0  0
  143.5562  135.2568  151.5733 H   0  0  0  0  0  0  0  0  0  0  0  0
  146.2793  133.1505  153.0446 H   0  0  0  0  0  0  0  0  0  0  0  0
  146.4430  130.6901  152.5903 H   0  0  0  0  0  0  0  0  0  0  0  0
  144.9416  129.6871  150.8504 H   0  0  0  0  0  0  0  0  0  0  0  0
  143.1850  133.3349  150.0327 H   0  0  0  0  0  0  0  0  0  0  0  0
  144.8459  136.9146  149.4594 H   0  0  0  0  0  0  0  0  0  0  0  0
  1  2  1  0  0  0  0
  1 12  1  0  0  0  0
  1 13  1  0  0  0  0
  1 24  1  0  0  0  0
  2  3  1  0  0  0  0
  2  5  1  0  0  0  0
  2 14  1  0  0  0  0
  3  4  1  0  0  0  0
  3 15  1  0  0  0  0
  3 16  1  0  0  0  0
  4 17  1  0  0  0  0
  5  6  1  0  0  0  0
  5 18  1  0  0  0  0
  5 19  1  0  0  0  0
  6 11  1  0  0  0  0
  6  7  2  0  0  0  0
  7  8  1  0  0  0  0
  7 20  1  0  0  0  0
  8  9  2  0  0  0  0
  8 21  1  0  0  0  0
  9 10  1  0  0  0  0
  9 22  1  0  0  0  0
 10 11  2  0  0  0  0
 11 23  1  0  0  0  0
M  CHG  1   1   1
M  END
> <s_m_source_file>
AV-unprocessed.smi

> <i_m_source_file_index>
3015

> <i_lp_mmshare_version>
43012

> <i_f3d_flags>
0

> <s_epik_input>
W09IXVtDSDJdW0NAQEhdKFtOSDJdKVtDSDJdYzFbY0hdW2NIXVtjSF1uW2NIXTE=

> <s_epik_cmdline>
J2VwaWtfcHl0aG9uJywgJy1waCcsICc3LjAnLCAnLXRuJywgJzgnLCAnLW1hJywgJzIwMCcsICctbWV0YWxfYmluZGluZycsICctaW1hZScsICc8aW5maWxlLm1hZT4nLCAnLW9tYWUnLCAnPG91dGZpbGUubWFlPic=

> <r_epik_Ionization_Penalty>
0.0193991

> <r_epik_Ionization_Penalty_Charging>
0.0188044

> <r_epik_Ionization_Penalty_Neutral>
0.000594726

> <r_epik_State_Penalty>
0.00921718

> <r_epik_Charging_Adjusted_Penalty>
0.0280216

> <i_epik_Tot_Q>
1

> <i_epik_Tot_abs_Q>
1

> <r_epik_Metal_State_Penalty>
0.00867471

> <b_epik_Metal_Only>
0

> <s_lp_Force_Field>
OPLS_2005

> <r_lp_Energy>
6.76442

> <b_lp_Chiralities_Consistent>
1

> <s_lp_Variant>
AV-unprocessed.smi:3015-2

> <Gold.Version>
5.8.1

> <Gold.Id.Protein>
6NUR|6NUR_protein|mol2

> <Gold.PLP.Fitness>
39.0146

> <Gold.PLP.PLP>
-24.0082

> <Gold.PLP.part.hbond>
-5.5367

> <Gold.PLP.part.metal>
0.0000

> <Gold.PLP.part.buried>
-3.9193

> <Gold.PLP.part.nonpolar>
-15.6742

> <Gold.PLP.part.repulsive>
0.3068

> <Gold.PLP.ligand.clash>
0.0000

> <Gold.PLP.ligand.torsion>
0.6990

> <Gold.PLP.Chemscore.Hbond>
4.4644

> <Gold.PLP.Chemscore.CHOScore>
1.0000

> <Gold.PLP.Chemscore.Metal>
0.0000

> <Gold.Chemscore.Hbonds>
donor molecule, donor type, donor heavy atom, donor atom, acceptor molecule, acceptor atom, score
      L1  H     1    13       P1  7921  0.85
      L1  H     1    24       P1 10171  1.00
      L1  H     4    17       P1 10171  0.91
      P1  H  7954  7966       L1     4  1.00
      P1  H 10785 10796       L1    10  0.34
      L1  C    11    23       P1 10186  1.00

> <Gold.PLP.Chemscore.Internal.Correction>
0.0113

> <Gold.Rescore>
     Score         DG    S(hbond)    S(metal)    S(lipo)     H(rot)  DE(clash)    DE(int)     intcor
     18.60     -19.37       3.85        0.00      55.76       2.14       0.14       0.63       ----

> <Gold.Chemscore.Fitness>
18.6037

> <Gold.Chemscore.DG>
-19.3672

> <Gold.Chemscore.ZeroCoef>
-5.4800

> <Gold.Chemscore.Hbond>
3.8453

> <Gold.Chemscore.Metal>
0.0000

> <Gold.Chemscore.Lipo>
55.7581

> <Gold.Chemscore.Internal_Hbond>
0.0000

> <Gold.Chemscore.DEClash>
0.1374

> <Gold.Chemscore.DEInternal>
0.6261

> <Gold.Chemscore.Rot>
2.1405

> <Gold.Chemscore.Internal.Correction>
   9.000000E+99

> <Gold.Chemscore.Hbonds>
donor molecule, donor type, donor heavy atom, donor atom, acceptor molecule, acceptor atom, score
      L1  H     1    13       P1  7921  0.82
      L1  H     1    24       P1 10171  0.98
      L1  H     4    17       P1 10171  0.87
      P1  H  7954  7966       L1     4  0.75
      P1  H 10785 10796       L1    10  0.20

> <Gold.Chemscore.Hbond.Weighted>
-12.8432

> <Gold.Chemscore.Metal.Weighted>
-0.0000

> <Gold.Chemscore.Lipo.Weighted>
-6.5237

> <Gold.Chemscore.Internal_Hbond.Weighted>
0.0000

> <Gold.Chemscore.DEClash.Weighted>
0.1374

> <Gold.Chemscore.DEInternal.Weighted>
0.6261

> <Gold.Chemscore.Rot.Weighted>
5.4797

> <Gold.Chemscore.Internal.Correction.Weighted>
   9.000000E+99

> <Gold.Protein.RotatedTorsions>
[ 6907 6896 6895 6894 ] final -118.86 input  -60.11 | X-H torsion
[ 7974 7965 7964 7962 ] final  168.06 input  175.53 | X-H torsion
[ 8008 7997 7996 7995 ] final  172.81 input   59.86 | X-H torsion
[ 10167 10162 10161 10158 ] final -102.40 input  -65.29 | X-H torsion
[ 10718 10713 10712 10709 ] final  145.88 input   66.30 | X-H torsion
[ 10763 10752 10751 10750 ] final  -66.89 input  -60.55 | X-H torsion
[ 11005 11000 10999 10996 ] final -178.84 input  -57.11 | X-H torsion

> <Gold.Protein.ActiveResidues>
 VAL166  LYS551  ARG553  GLY616  TRP617  ASP618  TYR619  PRO620  LYS621  CYS622 
 ASP623  PHE694  ASN695  SER759  ASP760  ASP761  ALA762  ILE779  LEU786  VAL792 
 PHE793  MET794  SER795  GLU796  ALA797  LYS798  CYS799  TRP800  GLU811  SER814 

> <Gold.Protein.RotatedAtoms>
  150.8255  133.8178  159.3120 H   0  0  0  0  0  0  0  0  0  0  0  0  # atno 6907 bound_to 6896
  151.5924  135.1051  160.0051 H   0  0  0  0  0  0  0  0  0  0  0  0  # atno 6908 bound_to 6896
  152.4341  133.7288  159.6632 H   0  0  0  0  0  0  0  0  0  0  0  0  # atno 6909 bound_to 6896
  144.7402  139.8853  143.6399 H   0  0  0  0  0  0  0  0  0  0  0  0  # atno 7974 bound_to 7965
  156.1138  140.1476  156.9301 H   0  0  0  0  0  0  0  0  0  0  0  0  # atno 8008 bound_to 7997
  154.4786  140.0886  156.7365 H   0  0  0  0  0  0  0  0  0  0  0  0  # atno 8009 bound_to 7997
  155.4550  140.3436  155.4307 H   0  0  0  0  0  0  0  0  0  0  0  0  # atno 8010 bound_to 7997
  140.2310  143.3606  152.0886 H   0  0  0  0  0  0  0  0  0  0  0  0  # atno 10167 bound_to 10162
  157.3399  131.0934  151.1091 H   0  0  0  0  0  0  0  0  0  0  0  0  # atno 10718 bound_to 10713
  154.3665  135.6104  153.5717 H   0  0  0  0  0  0  0  0  0  0  0  0  # atno 10763 bound_to 10752
  152.9791  135.5828  154.4572 H   0  0  0  0  0  0  0  0  0  0  0  0  # atno 10764 bound_to 10752
  154.4318  135.2848  155.1884 H   0  0  0  0  0  0  0  0  0  0  0  0  # atno 10765 bound_to 10752
  140.4253  134.6568  157.4685 H   0  0  0  0  0  0  0  0  0  0  0  0  # atno 11005 bound_to 11000
  146.1182  139.4196  143.0245 LP  0  0  0  0  0  0  0  0  0  0  0  0  # atno 17320 bound_to 7965
  145.7344  141.0031  143.1334 LP  0  0  0  0  0  0  0  0  0  0  0  0  # atno 17321 bound_to 7965
  139.5110  144.6893  151.5803 LP  0  0  0  0  0  0  0  0  0  0  0  0  # atno 17342 bound_to 10162
  140.6185  143.9304  150.6507 LP  0  0  0  0  0  0  0  0  0  0  0  0  # atno 17343 bound_to 10162
  157.2307  130.6523  149.5848 LP  0  0  0  0  0  0  0  0  0  0  0  0  # atno 17370 bound_to 10713
  155.9706  130.4600  150.6055 LP  0  0  0  0  0  0  0  0  0  0  0  0  # atno 17371 bound_to 10713
  140.0171  134.6602  155.9293 LP  0  0  0  0  0  0  0  0  0  0  0  0  # atno 17394 bound_to 11000
  141.1767  133.6541  156.4858 LP  0  0  0  0  0  0  0  0  0  0  0  0  # atno 17395 bound_to 11000

$$$$
