AV-unprocessed.smi:91|AV-procd|sdf|834|dock6
  -GOLD-   2262017263D 1   1.00000     0.00000
 Structure written by MMmdl.
 60 63  0  0  0  0  0  0  0  0  1 V2000
  155.5606  140.5879  159.9307 C   0  0  0  0  0  0  0  0  0  0  0  0
  154.3218  140.1967  160.5012 O   0  0  0  0  0  0  0  0  0  0  0  0
  153.4392  141.2765  160.7779 C   0  0  0  0  0  0  0  0  0  0  0  0
  152.9721  142.0019  159.5033 C   0  0  1  0  0  0  0  0  0  0  0  0
  152.0540  141.1186  158.6393 C   0  0  0  0  0  0  0  0  0  0  0  0
  151.4981  141.8961  157.5376 N   0  0  0  0  0  0  0  0  0  0  0  0
  151.0007  141.1835  156.4939 C   0  0  0  0  0  0  0  0  0  0  0  0
  151.8236  140.2637  155.9257 N   0  0  0  0  0  0  0  0  0  0  0  0
  151.4112  139.5314  154.8877 C   0  0  0  0  0  0  0  0  0  0  0  0
  150.2298  139.5525  154.2701 N   0  0  0  0  0  0  0  0  0  0  0  0
  149.3924  140.4665  154.8372 C   0  0  0  0  0  0  0  0  0  0  0  0
  149.6921  141.3212  155.9380 C   0  0  0  0  0  0  0  0  0  0  0  0
  148.5827  142.1111  156.2247 N   0  0  0  0  0  0  0  0  0  0  0  0
  147.6885  141.7509  155.3464 C   0  0  0  0  0  0  0  0  0  0  0  0
  148.0845  140.7530  154.4865 N   0  0  0  0  0  0  0  0  0  0  0  0
  147.2955  140.1656  153.4179 C   0  0  0  0  0  0  0  0  0  0  0  0
  147.1177  138.6256  153.5005 C   0  0  2  0  0  0  0  0  0  0  0  0
  146.4424  138.1611  152.1870 C   0  0  0  0  0  0  0  0  0  0  0  0
  147.1731  138.5577  151.0448 O   0  0  0  0  0  0  0  0  0  0  0  0
  146.3363  138.1654  154.7702 C   0  0  2  0  0  0  0  0  0  0  0  0
  144.9503  138.7861  154.9598 C   0  0  0  0  0  0  0  0  0  0  0  0
  144.7809  138.9404  156.4740 C   0  0  0  0  0  0  0  0  0  0  0  0
  145.9331  138.3399  157.0420 O   0  0  0  0  0  0  0  0  0  0  0  0
  146.9885  138.5057  156.1137 C   0  0  0  0  0  0  0  0  0  0  0  0
  150.8080  143.1046  157.9700 C   0  0  0  0  0  0  0  0  0  0  0  0
  151.7194  143.9764  158.8612 C   0  0  0  0  0  0  0  0  0  0  0  0
  152.8403  144.6579  158.0470 C   0  0  0  0  0  0  0  0  0  0  0  0
  150.8792  145.0550  159.5619 C   0  0  0  0  0  0  0  0  0  0  0  0
  152.2589  143.1694  159.9141 O   0  0  0  0  0  0  0  0  0  0  0  0
  156.1969  139.7109  159.8135 H   0  0  0  0  0  0  0  0  0  0  0  0
  156.0857  141.2972  160.5717 H   0  0  0  0  0  0  0  0  0  0  0  0
  155.4315  141.0340  158.9448 H   0  0  0  0  0  0  0  0  0  0  0  0
  152.5704  140.8675  161.2946 H   0  0  0  0  0  0  0  0  0  0  0  0
  153.9042  141.9769  161.4734 H   0  0  0  0  0  0  0  0  0  0  0  0
  153.8447  142.3030  158.9262 H   0  0  0  0  0  0  0  0  0  0  0  0
  152.6165  140.2576  158.2780 H   0  0  0  0  0  0  0  0  0  0  0  0
  151.2313  140.7290  159.2403 H   0  0  0  0  0  0  0  0  0  0  0  0
  152.1313  138.8279  154.4967 H   0  0  0  0  0  0  0  0  0  0  0  0
  146.7046  142.1960  155.3119 H   0  0  0  0  0  0  0  0  0  0  0  0
  146.3184  140.6504  153.4033 H   0  0  0  0  0  0  0  0  0  0  0  0
  147.7832  140.4356  152.4803 H   0  0  0  0  0  0  0  0  0  0  0  0
  148.1128  138.1795  153.5279 H   0  0  0  0  0  0  0  0  0  0  0  0
  146.3037  137.0796  152.1809 H   0  0  0  0  0  0  0  0  0  0  0  0
  145.4514  138.6040  152.0849 H   0  0  0  0  0  0  0  0  0  0  0  0
  147.7982  139.2182  151.3018 H   0  0  0  0  0  0  0  0  0  0  0  0
  146.2213  137.0807  154.7359 H   0  0  0  0  0  0  0  0  0  0  0  0
  144.8775  139.7644  154.4837 H   0  0  0  0  0  0  0  0  0  0  0  0
  144.1686  138.1513  154.5439 H   0  0  0  0  0  0  0  0  0  0  0  0
  144.7477  139.9951  156.7511 H   0  0  0  0  0  0  0  0  0  0  0  0
  143.8733  138.4629  156.8439 H   0  0  0  0  0  0  0  0  0  0  0  0
  147.8267  137.8522  156.3565 H   0  0  0  0  0  0  0  0  0  0  0  0
  147.3333  139.5409  156.1410 H   0  0  0  0  0  0  0  0  0  0  0  0
  150.4768  143.6833  157.1068 H   0  0  0  0  0  0  0  0  0  0  0  0
  149.9176  142.8116  158.5279 H   0  0  0  0  0  0  0  0  0  0  0  0
  152.4245  145.3667  157.3303 H   0  0  0  0  0  0  0  0  0  0  0  0
  153.4343  143.9455  157.4753 H   0  0  0  0  0  0  0  0  0  0  0  0
  153.5195  145.2087  158.6981 H   0  0  0  0  0  0  0  0  0  0  0  0
  150.3994  145.7160  158.8393 H   0  0  0  0  0  0  0  0  0  0  0  0
  151.4950  145.6712  160.2179 H   0  0  0  0  0  0  0  0  0  0  0  0
  150.0943  144.6089  160.1735 H   0  0  0  0  0  0  0  0  0  0  0  0
  1  2  1  0  0  0  0
  1 30  1  0  0  0  0
  1 31  1  0  0  0  0
  1 32  1  0  0  0  0
  2  3  1  0  0  0  0
  3  4  1  0  0  0  0
  3 33  1  0  0  0  0
  3 34  1  0  0  0  0
  4 29  1  0  0  0  0
  4  5  1  0  0  0  0
  4 35  1  0  0  0  0
  5  6  1  0  0  0  0
  5 36  1  0  0  0  0
  5 37  1  0  0  0  0
  6  7  1  0  0  0  0
  6 25  1  0  0  0  0
  7 12  1  0  0  0  0
  7  8  2  0  0  0  0
  8  9  1  0  0  0  0
  9 10  2  0  0  0  0
  9 38  1  0  0  0  0
 10 11  1  0  0  0  0
 11 15  1  0  0  0  0
 11 12  2  0  0  0  0
 12 13  1  0  0  0  0
 13 14  2  0  0  0  0
 14 15  1  0  0  0  0
 14 39  1  0  0  0  0
 15 16  1  0  0  0  0
 16 17  1  0  0  0  0
 16 40  1  0  0  0  0
 16 41  1  0  0  0  0
 17 18  1  0  0  0  0
 17 20  1  0  0  0  0
 17 42  1  0  0  0  0
 18 19  1  0  0  0  0
 18 43  1  0  0  0  0
 18 44  1  0  0  0  0
 19 45  1  0  0  0  0
 20 24  1  0  0  0  0
 20 21  1  0  0  0  0
 20 46  1  0  0  0  0
 21 22  1  0  0  0  0
 21 47  1  0  0  0  0
 21 48  1  0  0  0  0
 22 23  1  0  0  0  0
 22 49  1  0  0  0  0
 22 50  1  0  0  0  0
 23 24  1  0  0  0  0
 24 51  1  0  0  0  0
 24 52  1  0  0  0  0
 25 26  1  0  0  0  0
 25 53  1  0  0  0  0
 25 54  1  0  0  0  0
 26 27  1  0  0  0  0
 26 28  1  0  0  0  0
 26 29  1  0  0  0  0
 27 55  1  0  0  0  0
 27 56  1  0  0  0  0
 27 57  1  0  0  0  0
 28 58  1  0  0  0  0
 28 59  1  0  0  0  0
 28 60  1  0  0  0  0
M  END
> <s_m_source_file>
AV-unprocessed.smi

> <i_m_source_file_index>
91

> <i_lp_mmshare_version>
43012

> <i_f3d_flags>
0

> <s_epik_input>
W0NIM11PW0NIMl1bQ0BASF0oTzEpW0NIMl1OKFtDSDJdQzEoW0NIM10pW0NIM10pYyhuW2NIXW4yKWMoYzIzKW5bY0hdbjNbQ0gyXVtDQEhdKFtDSDJdW09IXSlbQ0BASF00W0NIMl1bQ0gyXU9bQ0gyXTQ=

> <s_epik_cmdline>
J2VwaWtfcHl0aG9uJywgJy1waCcsICc3LjAnLCAnLXRuJywgJzgnLCAnLW1hJywgJzIwMCcsICctbWV0YWxfYmluZGluZycsICctaW1hZScsICc8aW5maWxlLm1hZT4nLCAnLW9tYWUnLCAnPG91dGZpbGUubWFlPic=

> <r_lp_tautomer_probability>
1

> <r_epik_Ionization_Penalty>
8.63591e-05

> <r_epik_Ionization_Penalty_Charging>
0

> <r_epik_Ionization_Penalty_Neutral>
8.63591e-05

> <r_epik_State_Penalty>
-0

> <r_epik_Charging_Adjusted_Penalty>
0

> <i_epik_Tot_Q>
0

> <i_epik_Tot_abs_Q>
0

> <r_epik_Metal_State_Penalty>
-0

> <b_epik_Metal_Only>
0

> <s_lp_Force_Field>
OPLS_2005

> <r_lp_Energy>
49.706

> <b_lp_Chiralities_Consistent>
1

> <s_lp_Variant>
AV-unprocessed.smi:91-2

> <Gold.Version>
5.8.1

> <Gold.Id.Protein>
6NUR|6NUR_protein|mol2

> <Gold.PLP.Fitness>
54.2261

> <Gold.PLP.PLP>
-49.2266

> <Gold.PLP.part.hbond>
-4.2080

> <Gold.PLP.part.metal>
0.0000

> <Gold.PLP.part.buried>
-4.1527

> <Gold.PLP.part.nonpolar>
-43.5385

> <Gold.PLP.part.repulsive>
2.9172

> <Gold.PLP.ligand.clash>
0.0000

> <Gold.PLP.ligand.torsion>
0.3223

> <Gold.PLP.Chemscore.Hbond>
1.6940

> <Gold.PLP.Chemscore.CHOScore>
0.0000

> <Gold.PLP.Chemscore.Metal>
0.0000

> <Gold.Chemscore.Hbonds>
donor molecule, donor type, donor heavy atom, donor atom, acceptor molecule, acceptor atom, score
      L1  H    19    45       P1  7957  0.98
      P1  H  7954  7966       L1    19  0.70

> <Gold.PLP.Chemscore.Internal.Correction>
0.5620

> <Gold.Rescore>
     Score         DG    S(hbond)    S(metal)    S(lipo)     H(rot)  DE(clash)    DE(int)     intcor
     11.27     -14.55       1.26        0.00     107.88       3.03       1.79       1.49       ----

> <Gold.Chemscore.Fitness>
11.2697

> <Gold.Chemscore.DG>
-14.5506

> <Gold.Chemscore.ZeroCoef>
-5.4800

> <Gold.Chemscore.Hbond>
1.2580

> <Gold.Chemscore.Metal>
0.0000

> <Gold.Chemscore.Lipo>
107.8764

> <Gold.Chemscore.Internal_Hbond>
0.0000

> <Gold.Chemscore.DEClash>
1.7872

> <Gold.Chemscore.DEInternal>
1.4937

> <Gold.Chemscore.Rot>
3.0284

> <Gold.Chemscore.Internal.Correction>
   9.000000E+99

> <Gold.Chemscore.Hbonds>
donor molecule, donor type, donor heavy atom, donor atom, acceptor molecule, acceptor atom, score
      L1  H    19    45       P1  7957  0.76
      P1  H  7954  7966       L1    19  0.07

> <Gold.Chemscore.Hbond.Weighted>
-4.2019

> <Gold.Chemscore.Metal.Weighted>
-0.0000

> <Gold.Chemscore.Lipo.Weighted>
-12.6215

> <Gold.Chemscore.Internal_Hbond.Weighted>
0.0000

> <Gold.Chemscore.DEClash.Weighted>
1.7872

> <Gold.Chemscore.DEInternal.Weighted>
1.4937

> <Gold.Chemscore.Rot.Weighted>
7.7528

> <Gold.Chemscore.Internal.Correction.Weighted>
   9.000000E+99

> <Gold.Protein.RotatedTorsions>
[ 6907 6896 6895 6894 ] final   81.52 input  -60.11 | X-H torsion
[ 7974 7965 7964 7962 ] final  -88.07 input  175.53 | X-H torsion
[ 8008 7997 7996 7995 ] final   60.26 input   59.86 | X-H torsion
[ 10167 10162 10161 10158 ] final -168.44 input  -65.29 | X-H torsion
[ 10718 10713 10712 10709 ] final   -9.65 input   66.30 | X-H torsion
[ 10763 10752 10751 10750 ] final  -26.54 input  -60.55 | X-H torsion
[ 11005 11000 10999 10996 ] final -105.18 input  -57.11 | X-H torsion

> <Gold.Protein.ActiveResidues>
 VAL166  LYS551  ARG553  GLY616  TRP617  ASP618  TYR619  PRO620  LYS621  CYS622 
 ASP623  PHE694  ASN695  SER759  ASP760  ASP761  ALA762  ILE779  LEU786  VAL792 
 PHE793  MET794  SER795  GLU796  ALA797  LYS798  CYS799  TRP800  GLU811  SER814 

> <Gold.Protein.RotatedAtoms>
  152.5271  134.3191  159.9141 H   0  0  0  0  0  0  0  0  0  0  0  0  # atno 6907 bound_to 6896
  151.3140  133.4062  159.2657 H   0  0  0  0  0  0  0  0  0  0  0  0  # atno 6908 bound_to 6896
  151.0015  134.9342  159.8013 H   0  0  0  0  0  0  0  0  0  0  0  0  # atno 6909 bound_to 6896
  145.4580  140.9561  143.1985 H   0  0  0  0  0  0  0  0  0  0  0  0  # atno 7974 bound_to 7965
  155.5794  140.3491  155.4536 H   0  0  0  0  0  0  0  0  0  0  0  0  # atno 8008 bound_to 7997
  156.0384  140.1290  157.0207 H   0  0  0  0  0  0  0  0  0  0  0  0  # atno 8009 bound_to 7997
  154.4381  140.1029  156.6187 H   0  0  0  0  0  0  0  0  0  0  0  0  # atno 8010 bound_to 7997
  139.5985  144.1061  152.1716 H   0  0  0  0  0  0  0  0  0  0  0  0  # atno 10167 bound_to 10162
  156.6849  130.5048  149.5960 H   0  0  0  0  0  0  0  0  0  0  0  0  # atno 10718 bound_to 10713
  153.7176  135.6947  153.5021 H   0  0  0  0  0  0  0  0  0  0  0  0  # atno 10763 bound_to 10752
  153.2227  135.4364  155.0506 H   0  0  0  0  0  0  0  0  0  0  0  0  # atno 10764 bound_to 10752
  154.8295  135.3464  154.6711 H   0  0  0  0  0  0  0  0  0  0  0  0  # atno 10765 bound_to 10752
  141.1066  133.8786  157.1702 H   0  0  0  0  0  0  0  0  0  0  0  0  # atno 11005 bound_to 11000
  144.8020  139.6122  143.7067 LP  0  0  0  0  0  0  0  0  0  0  0  0  # atno 17320 bound_to 7965
  146.2467  139.6113  142.9455 LP  0  0  0  0  0  0  0  0  0  0  0  0  # atno 17321 bound_to 7965
  140.0652  144.5824  150.7233 LP  0  0  0  0  0  0  0  0  0  0  0  0  # atno 17342 bound_to 10162
  140.7231  143.2608  151.4212 LP  0  0  0  0  0  0  0  0  0  0  0  0  # atno 17343 bound_to 10162
  156.1840  130.6517  151.0985 LP  0  0  0  0  0  0  0  0  0  0  0  0  # atno 17370 bound_to 10713
  157.7030  131.0768  150.6759 LP  0  0  0  0  0  0  0  0  0  0  0  0  # atno 17371 bound_to 10713
  139.9938  135.0054  157.0037 LP  0  0  0  0  0  0  0  0  0  0  0  0  # atno 17394 bound_to 11000
  140.4887  134.1215  155.7229 LP  0  0  0  0  0  0  0  0  0  0  0  0  # atno 17395 bound_to 11000

$$$$
