AV-unprocessed.smi:2066|AV-procd|sdf|8419|dock8
  -GOLD-   2272011113D 1   1.00000     0.00000
 Structure written by MMmdl.
 39 40  0  0  0  0  0  0  0  0  1 V2000
  146.7476  142.1972  154.2410 C   0  0  0  0  0  0  0  0  0  0  0  0
  147.5347  140.8671  154.3243 C   0  0  0  0  0  0  0  0  0  0  0  0
  147.1190  140.0173  153.0963 C   0  0  0  0  0  0  0  0  0  0  0  0
  149.0422  141.2141  154.1382 C   0  0  0  0  0  0  0  0  0  0  0  0
  149.5489  142.1269  155.1633 N   0  0  0  0  0  0  0  0  0  0  0  0
  150.3651  141.7955  156.1738 C   0  0  0  0  0  0  0  0  0  0  0  0
  150.8121  140.6608  156.3443 O   0  0  0  0  0  0  0  0  0  0  0  0
  150.6137  142.8550  156.9632 N   0  0  0  0  0  0  0  0  0  0  0  0
  151.4037  142.9051  158.1415 C   0  0  0  0  0  0  0  0  0  0  0  0
  151.9880  141.8410  158.7044 N   0  0  0  0  0  0  0  0  0  0  0  0
  152.7013  142.1821  159.8561 C   0  0  0  0  0  0  0  0  0  0  0  0
  152.6488  143.5202  160.1577 C   0  0  0  0  0  0  0  0  0  0  0  0
  151.6969  144.4107  158.9995 S   0  0  0  0  0  0  0  0  0  0  0  0
  147.2941  140.1254  155.5941 N   0  0  0  0  0  0  0  0  0  0  0  0
  148.0962  138.9080  155.7614 C   0  0  0  0  0  0  0  0  0  0  0  0
  147.8904  138.2661  157.1441 C   0  0  0  0  0  0  0  0  0  0  0  0
  146.5100  137.9864  157.3430 O   0  0  0  0  0  0  0  0  0  0  0  0
  145.7009  139.1521  157.2457 C   0  0  0  0  0  0  0  0  0  0  0  0
  145.8886  139.7992  155.8631 C   0  0  0  0  0  0  0  0  0  0  0  0
  146.9381  142.7040  153.2941 H   0  0  0  0  0  0  0  0  0  0  0  0
  147.0294  142.8930  155.0309 H   0  0  0  0  0  0  0  0  0  0  0  0
  145.6704  142.0441  154.3021 H   0  0  0  0  0  0  0  0  0  0  0  0
  147.4648  140.4653  152.1639 H   0  0  0  0  0  0  0  0  0  0  0  0
  146.0369  139.9244  153.0050 H   0  0  0  0  0  0  0  0  0  0  0  0
  147.5317  139.0092  153.1448 H   0  0  0  0  0  0  0  0  0  0  0  0
  149.6409  140.3019  154.1110 H   0  0  0  0  0  0  0  0  0  0  0  0
  149.2172  141.6782  153.1680 H   0  0  0  0  0  0  0  0  0  0  0  0
  149.2283  143.0824  155.1095 H   0  0  0  0  0  0  0  0  0  0  0  0
  150.1764  143.7250  156.6976 H   0  0  0  0  0  0  0  0  0  0  0  0
  153.2190  141.4068  160.4017 H   0  0  0  0  0  0  0  0  0  0  0  0
  153.1107  144.0334  160.9880 H   0  0  0  0  0  0  0  0  0  0  0  0
  147.8392  138.1785  154.9934 H   0  0  0  0  0  0  0  0  0  0  0  0
  149.1576  139.1228  155.6523 H   0  0  0  0  0  0  0  0  0  0  0  0
  148.4561  137.3373  157.2183 H   0  0  0  0  0  0  0  0  0  0  0  0
  148.2530  138.9263  157.9337 H   0  0  0  0  0  0  0  0  0  0  0  0
  144.6576  138.8747  157.3961 H   0  0  0  0  0  0  0  0  0  0  0  0
  145.9632  139.8540  158.0391 H   0  0  0  0  0  0  0  0  0  0  0  0
  145.2666  140.6917  155.8279 H   0  0  0  0  0  0  0  0  0  0  0  0
  145.5076  139.1174  155.1026 H   0  0  0  0  0  0  0  0  0  0  0  0
  1  2  1  0  0  0  0
  1 20  1  0  0  0  0
  1 21  1  0  0  0  0
  1 22  1  0  0  0  0
  2  3  1  0  0  0  0
  2  4  1  0  0  0  0
  2 14  1  0  0  0  0
  3 23  1  0  0  0  0
  3 24  1  0  0  0  0
  3 25  1  0  0  0  0
  4  5  1  0  0  0  0
  4 26  1  0  0  0  0
  4 27  1  0  0  0  0
  5  6  1  0  0  0  0
  5 28  1  0  0  0  0
  6  7  2  0  0  0  0
  6  8  1  0  0  0  0
  8  9  1  0  0  0  0
  8 29  1  0  0  0  0
  9 13  1  0  0  0  0
  9 10  2  0  0  0  0
 10 11  1  0  0  0  0
 11 12  2  0  0  0  0
 11 30  1  0  0  0  0
 12 13  1  0  0  0  0
 12 31  1  0  0  0  0
 14 19  1  0  0  0  0
 14 15  1  0  0  0  0
 15 16  1  0  0  0  0
 15 32  1  0  0  0  0
 15 33  1  0  0  0  0
 16 17  1  0  0  0  0
 16 34  1  0  0  0  0
 16 35  1  0  0  0  0
 17 18  1  0  0  0  0
 18 19  1  0  0  0  0
 18 36  1  0  0  0  0
 18 37  1  0  0  0  0
 19 38  1  0  0  0  0
 19 39  1  0  0  0  0
M  END
> <s_m_source_file>
AV-unprocessed.smi

> <i_m_source_file_index>
2066

> <i_lp_mmshare_version>
43012

> <i_f3d_flags>
0

> <s_epik_input>
W0NIMl0xW0NIMl1PW0NIMl1bQ0gyXU4xQyhbQ0gzXSkoW0NIM10pW0NIMl1bTkhdQyg9TylbTkhdYzJuW2NIXVtjSF1zMg==

> <s_epik_cmdline>
J2VwaWtfcHl0aG9uJywgJy1waCcsICc3LjAnLCAnLXRuJywgJzgnLCAnLW1hJywgJzIwMCcsICctbWV0YWxfYmluZGluZycsICctaW1hZScsICc8aW5maWxlLm1hZT4nLCAnLW9tYWUnLCAnPG91dGZpbGUubWFlPic=

> <r_lp_tautomer_probability>
0.999

> <r_epik_Ionization_Penalty>
0.219202

> <r_epik_Ionization_Penalty_Charging>
0

> <r_epik_Ionization_Penalty_Neutral>
0.219202

> <r_epik_State_Penalty>
0.209349

> <r_epik_Charging_Adjusted_Penalty>
0.209349

> <i_epik_Tot_Q>
0

> <i_epik_Tot_abs_Q>
0

> <r_epik_Metal_State_Penalty>
0.2479

> <b_epik_Metal_Only>
0

> <s_lp_Force_Field>
OPLS_2005

> <r_lp_Energy>
39.7757

> <b_lp_Chiralities_Consistent>
1

> <s_lp_Variant>
AV-unprocessed.smi:2066-1

> <Gold.Version>
5.8.1

> <Gold.Id.Protein>
6NUR|6NUR_protein|mol2

> <Gold.PLP.Fitness>
38.3939

> <Gold.PLP.PLP>
-32.5567

> <Gold.PLP.part.hbond>
-2.0000

> <Gold.PLP.part.metal>
0.0000

> <Gold.PLP.part.buried>
-2.9312

> <Gold.PLP.part.nonpolar>
-27.3162

> <Gold.PLP.part.repulsive>
0.3028

> <Gold.PLP.ligand.clash>
0.0000

> <Gold.PLP.ligand.torsion>
0.1133

> <Gold.PLP.Chemscore.Hbond>
2.0000

> <Gold.PLP.Chemscore.CHOScore>
0.0000

> <Gold.PLP.Chemscore.Metal>
0.0000

> <Gold.Chemscore.Hbonds>
donor molecule, donor type, donor heavy atom, donor atom, acceptor molecule, acceptor atom, score
      L1  H     5    28       P1  8028  1.00
      L1  H     8    29       P1  8028  1.00

> <Gold.PLP.Chemscore.Internal.Correction>
0.0637

> <Gold.Rescore>
     Score         DG    S(hbond)    S(metal)    S(lipo)     H(rot)  DE(clash)    DE(int)     intcor
     14.38     -15.80       1.97        0.00      66.48       1.58       0.04       1.38       ----

> <Gold.Chemscore.Fitness>
14.3760

> <Gold.Chemscore.DG>
-15.7981

> <Gold.Chemscore.ZeroCoef>
-5.4800

> <Gold.Chemscore.Hbond>
1.9720

> <Gold.Chemscore.Metal>
0.0000

> <Gold.Chemscore.Lipo>
66.4800

> <Gold.Chemscore.Internal_Hbond>
0.0000

> <Gold.Chemscore.DEClash>
0.0405

> <Gold.Chemscore.DEInternal>
1.3815

> <Gold.Chemscore.Rot>
1.5807

> <Gold.Chemscore.Internal.Correction>
   9.000000E+99

> <Gold.Chemscore.Hbonds>
donor molecule, donor type, donor heavy atom, donor atom, acceptor molecule, acceptor atom, score
      L1  H     5    28       P1  8028  0.99
      L1  H     8    29       P1  8028  0.96

> <Gold.Chemscore.Hbond.Weighted>
-6.5865

> <Gold.Chemscore.Metal.Weighted>
-0.0000

> <Gold.Chemscore.Lipo.Weighted>
-7.7782

> <Gold.Chemscore.Internal_Hbond.Weighted>
0.0000

> <Gold.Chemscore.DEClash.Weighted>
0.0405

> <Gold.Chemscore.DEInternal.Weighted>
1.3815

> <Gold.Chemscore.Rot.Weighted>
4.0466

> <Gold.Chemscore.Internal.Correction.Weighted>
   9.000000E+99

> <Gold.Protein.RotatedTorsions>
[ 6907 6896 6895 6894 ] final   52.99 input  -60.11 | X-H torsion
[ 7974 7965 7964 7962 ] final   56.95 input  175.53 | X-H torsion
[ 8008 7997 7996 7995 ] final -157.79 input   59.86 | X-H torsion
[ 10167 10162 10161 10158 ] final -175.46 input  -65.29 | X-H torsion
[ 10718 10713 10712 10709 ] final  -93.57 input   66.30 | X-H torsion
[ 10763 10752 10751 10750 ] final -102.28 input  -60.55 | X-H torsion
[ 11005 11000 10999 10996 ] final  176.17 input  -57.11 | X-H torsion

> <Gold.Protein.ActiveResidues>
 VAL166  LYS551  ARG553  GLY616  TRP617  ASP618  TYR619  PRO620  LYS621  CYS622 
 ASP623  PHE694  ASN695  SER759  ASP760  ASP761  ALA762  ILE779  LEU786  VAL792 
 PHE793  MET794  SER795  GLU796  ALA797  LYS798  CYS799  TRP800  GLU811  SER814 

> <Gold.Protein.RotatedAtoms>
  152.3290  134.7283  160.0294 H   0  0  0  0  0  0  0  0  0  0  0  0  # atno 6907 bound_to 6896
  151.7706  133.3335  159.3451 H   0  0  0  0  0  0  0  0  0  0  0  0  # atno 6908 bound_to 6896
  150.7412  134.5954  159.6053 H   0  0  0  0  0  0  0  0  0  0  0  0  # atno 6909 bound_to 6896
  145.9343  139.3834  143.0402 H   0  0  0  0  0  0  0  0  0  0  0  0  # atno 7974 bound_to 7965
  155.7378  140.0810  157.2259 H   0  0  0  0  0  0  0  0  0  0  0  0  # atno 8008 bound_to 7997
  154.4025  140.1583  156.2637 H   0  0  0  0  0  0  0  0  0  0  0  0  # atno 8009 bound_to 7997
  155.9048  140.3407  155.6057 H   0  0  0  0  0  0  0  0  0  0  0  0  # atno 8010 bound_to 7997
  139.5579  144.1942  152.1191 H   0  0  0  0  0  0  0  0  0  0  0  0  # atno 10167 bound_to 10162
  156.0015  130.5032  150.5797 H   0  0  0  0  0  0  0  0  0  0  0  0  # atno 10718 bound_to 10713
  154.7722  135.4866  153.9671 H   0  0  0  0  0  0  0  0  0  0  0  0  # atno 10763 bound_to 10752
  153.1382  135.6767  153.9077 H   0  0  0  0  0  0  0  0  0  0  0  0  # atno 10764 bound_to 10752
  153.8759  135.3138  155.3422 H   0  0  0  0  0  0  0  0  0  0  0  0  # atno 10765 bound_to 10752
  140.3702  134.7036  157.4387 H   0  0  0  0  0  0  0  0  0  0  0  0  # atno 11005 bound_to 11000
  145.8385  140.9593  143.0812 LP  0  0  0  0  0  0  0  0  0  0  0  0  # atno 17320 bound_to 7965
  144.6769  140.0253  143.7483 LP  0  0  0  0  0  0  0  0  0  0  0  0  # atno 17321 bound_to 7965
  140.1450  144.5167  150.6721 LP  0  0  0  0  0  0  0  0  0  0  0  0  # atno 17342 bound_to 10162
  140.6855  143.2348  151.5271 LP  0  0  0  0  0  0  0  0  0  0  0  0  # atno 17343 bound_to 10162
  157.3679  131.0760  151.1582 LP  0  0  0  0  0  0  0  0  0  0  0  0  # atno 17370 bound_to 10713
  157.2346  130.6541  149.5864 LP  0  0  0  0  0  0  0  0  0  0  0  0  # atno 17371 bound_to 10713
  140.0557  134.6066  155.8808 LP  0  0  0  0  0  0  0  0  0  0  0  0  # atno 17394 bound_to 11000
  141.1957  133.6588  156.5654 LP  0  0  0  0  0  0  0  0  0  0  0  0  # atno 17395 bound_to 11000

$$$$
