AV-unprocessed.smi:481|AV-procd|sdf|2683|dock2
  -GOLD-   2262023113D 1   1.00000     0.00000
 Structure written by MMmdl.
 42 44  0  0  0  0  0  0  0  0  2 V2000
  150.2296  131.9627  155.3970 C   0  0  0  0  0  0  0  0  0  0  0  0
  149.4720  132.3973  154.2783 O   0  0  0  0  0  0  0  0  0  0  0  0
  149.4318  133.8089  154.1229 C   0  0  0  0  0  0  0  0  0  0  0  0
  148.4920  134.4726  155.1440 C   0  0  0  0  0  0  0  0  0  0  0  0
  148.3601  135.9044  154.8952 N   0  0  0  0  0  0  0  0  0  0  0  0
  147.2420  136.5815  154.5304 C   0  0  0  0  0  0  0  0  0  0  0  0
  146.0405  135.8823  154.3488 N   0  0  0  0  0  0  0  0  0  0  0  0
  144.9077  136.4886  153.9910 N   0  0  0  0  0  0  0  0  0  0  0  0
  144.1139  135.9878  153.1005 C   0  0  0  0  0  0  0  0  0  0  0  0
  144.3464  134.7963  152.2566 C   0  0  0  0  0  0  0  0  0  0  0  0
  145.5974  134.5202  151.6555 C   0  0  0  0  0  0  0  0  0  0  0  0
  145.7689  133.3717  150.8590 C   0  0  0  0  0  0  0  0  0  0  0  0
  144.6897  132.4943  150.6458 C   0  0  0  0  0  0  0  0  0  0  0  0
  143.4368  132.7701  151.2246 C   0  0  0  0  0  0  0  0  0  0  0  0
  143.2657  133.9187  152.0216 C   0  0  0  0  0  0  0  0  0  0  0  0
  147.4193  137.8987  154.3795 N   0  0  0  0  0  0  0  0  0  0  0  0
  148.7645  138.0686  154.6698 C   0  0  0  0  0  0  0  0  0  0  0  0
  149.3547  136.8823  154.9737 C   0  0  0  0  0  0  0  0  0  0  0  0
  150.7873  136.7353  155.3095 C   0  0  0  0  0  0  0  0  0  0  0  0
  151.2703  135.6322  155.5578 O   0  0  0  0  0  0  0  0  0  0  0  0
  151.4458  137.9376  155.2954 N   0  5  0  0  0  0  0  0  0  0  0  0
  150.8880  139.1635  154.9995 C   0  0  0  0  0  0  0  0  0  0  0  0
  151.5538  140.1997  155.0073 O   0  0  0  0  0  0  0  0  0  0  0  0
  149.5567  139.2487  154.6854 N   0  0  0  0  0  0  0  0  0  0  0  0
  148.9358  140.5378  154.3677 C   0  0  0  0  0  0  0  0  0  0  0  0
  150.2739  130.8738  155.4030 H   0  0  0  0  0  0  0  0  0  0  0  0
  149.7815  132.2783  156.3388 H   0  0  0  0  0  0  0  0  0  0  0  0
  151.2530  132.3376  155.3541 H   0  0  0  0  0  0  0  0  0  0  0  0
  150.4368  134.2303  154.1738 H   0  0  0  0  0  0  0  0  0  0  0  0
  149.0638  134.0150  153.1175 H   0  0  0  0  0  0  0  0  0  0  0  0
  147.5094  134.0025  155.1068 H   0  0  0  0  0  0  0  0  0  0  0  0
  148.8400  134.3289  156.1653 H   0  0  0  0  0  0  0  0  0  0  0  0
  146.1781  134.9209  154.0718 H   0  0  0  0  0  0  0  0  0  0  0  0
  143.1575  136.4914  152.9586 H   0  0  0  0  0  0  0  0  0  0  0  0
  146.4355  135.1866  151.7967 H   0  0  0  0  0  0  0  0  0  0  0  0
  146.7292  133.1657  150.4100 H   0  0  0  0  0  0  0  0  0  0  0  0
  144.8216  131.6128  150.0358 H   0  0  0  0  0  0  0  0  0  0  0  0
  142.6063  132.0997  151.0591 H   0  0  0  0  0  0  0  0  0  0  0  0
  142.2987  134.1152  152.4622 H   0  0  0  0  0  0  0  0  0  0  0  0
  149.4054  140.9803  153.4884 H   0  0  0  0  0  0  0  0  0  0  0  0
  149.0475  141.2327  155.2011 H   0  0  0  0  0  0  0  0  0  0  0  0
  147.8698  140.4507  154.1593 H   0  0  0  0  0  0  0  0  0  0  0  0
  1  2  1  0  0  0  0
  1 26  1  0  0  0  0
  1 27  1  0  0  0  0
  1 28  1  0  0  0  0
  2  3  1  0  0  0  0
  3  4  1  0  0  0  0
  3 29  1  0  0  0  0
  3 30  1  0  0  0  0
  4  5  1  0  0  0  0
  4 31  1  0  0  0  0
  4 32  1  0  0  0  0
  5 18  1  0  0  0  0
  5  6  1  0  0  0  0
  6  7  1  0  0  0  0
  6 16  2  0  0  0  0
  7  8  1  0  0  0  0
  7 33  1  0  0  0  0
  8  9  2  0  0  0  0
  9 10  1  0  0  0  0
  9 34  1  0  0  0  0
 10 15  1  0  0  0  0
 10 11  2  0  0  0  0
 11 12  1  0  0  0  0
 11 35  1  0  0  0  0
 12 13  2  0  0  0  0
 12 36  1  0  0  0  0
 13 14  1  0  0  0  0
 13 37  1  0  0  0  0
 14 15  2  0  0  0  0
 14 38  1  0  0  0  0
 15 39  1  0  0  0  0
 16 17  1  0  0  0  0
 17 24  1  0  0  0  0
 17 18  2  0  0  0  0
 18 19  1  0  0  0  0
 19 20  2  0  0  0  0
 19 21  1  0  0  0  0
 21 22  1  0  0  0  0
 22 23  2  0  0  0  0
 22 24  1  0  0  0  0
 24 25  1  0  0  0  0
 25 40  1  0  0  0  0
 25 41  1  0  0  0  0
 25 42  1  0  0  0  0
M  CHG  1  21  -1
M  END
> <s_m_source_file>
AV-unprocessed.smi

> <i_m_source_file_index>
481

> <i_lp_mmshare_version>
43012

> <i_f3d_flags>
0

> <s_epik_input>
W0NIM11uMWMoPU8pW25IXWMoPU8pYyhjMTIpbihbQ0gyXVtDSDJdT1tDSDNdKWMobjIpW05IXS9OPVtDSF0vYzNbY0hdW2NIXVtjSF1bY0hdW2NIXTM=

> <s_epik_cmdline>
J2VwaWtfcHl0aG9uJywgJy1waCcsICc3LjAnLCAnLXRuJywgJzgnLCAnLW1hJywgJzIwMCcsICctbWV0YWxfYmluZGluZycsICctaW1hZScsICc8aW5maWxlLm1hZT4nLCAnLW9tYWUnLCAnPG91dGZpbGUubWFlPic=

> <r_epik_Ionization_Penalty>
4.48471

> <r_epik_Ionization_Penalty_Charging>
4.58449e-09

> <r_epik_Ionization_Penalty_Neutral>
4.48471

> <r_epik_State_Penalty>
4.48428

> <r_epik_Charging_Adjusted_Penalty>
4.48428

> <i_epik_Tot_Q>
-1

> <i_epik_Tot_abs_Q>
1

> <r_epik_Metal_State_Penalty>
0.811551

> <b_epik_Metal_Only>
1

> <s_epik_Chemistry_Notes>
This compound has an imine and may undergo hydrolysis.

> <s_lp_Force_Field>
OPLS_2005

> <r_lp_Energy>
49.411

> <b_lp_Chiralities_Consistent>
1

> <s_lp_Variant>
AV-unprocessed.smi:481-4

> <Gold.Version>
5.8.1

> <Gold.Id.Protein>
6NUR|6NUR_protein|mol2

> <Gold.PLP.Fitness>
40.4973

> <Gold.PLP.PLP>
-34.9796

> <Gold.PLP.part.hbond>
-2.0000

> <Gold.PLP.part.metal>
0.0000

> <Gold.PLP.part.buried>
-4.8264

> <Gold.PLP.part.nonpolar>
-28.4072

> <Gold.PLP.part.repulsive>
0.4094

> <Gold.PLP.ligand.clash>
0.0000

> <Gold.PLP.ligand.torsion>
0.5743

> <Gold.PLP.Chemscore.Hbond>
1.9920

> <Gold.PLP.Chemscore.CHOScore>
0.0000

> <Gold.PLP.Chemscore.Metal>
0.0000

> <Gold.Chemscore.Hbonds>
donor molecule, donor type, donor heavy atom, donor atom, acceptor molecule, acceptor atom, score
      P1  H  7989  7998       L1    23  1.00
      P1  H 10752 10765       L1    20  1.00

> <Gold.PLP.Chemscore.Internal.Correction>
0.6904

> <Gold.Rescore>
     Score         DG    S(hbond)    S(metal)    S(lipo)     H(rot)  DE(clash)    DE(int)     intcor
     12.97     -14.60       1.57        0.00      66.57       1.52       0.01       1.62       ----

> <Gold.Chemscore.Fitness>
12.9744

> <Gold.Chemscore.DG>
-14.6042

> <Gold.Chemscore.ZeroCoef>
-5.4800

> <Gold.Chemscore.Hbond>
1.5673

> <Gold.Chemscore.Metal>
0.0000

> <Gold.Chemscore.Lipo>
66.5657

> <Gold.Chemscore.Internal_Hbond>
0.0000

> <Gold.Chemscore.DEClash>
0.0145

> <Gold.Chemscore.DEInternal>
1.6154

> <Gold.Chemscore.Rot>
1.5230

> <Gold.Chemscore.Internal.Correction>
   9.000000E+99

> <Gold.Chemscore.Hbonds>
donor molecule, donor type, donor heavy atom, donor atom, acceptor molecule, acceptor atom, score
      P1  H  7989  7998       L1    23  0.78
      P1  H 10752 10765       L1    20  0.84

> <Gold.Chemscore.Hbond.Weighted>
-5.2349

> <Gold.Chemscore.Metal.Weighted>
-0.0000

> <Gold.Chemscore.Lipo.Weighted>
-7.7882

> <Gold.Chemscore.Internal_Hbond.Weighted>
0.0000

> <Gold.Chemscore.DEClash.Weighted>
0.0145

> <Gold.Chemscore.DEInternal.Weighted>
1.6154

> <Gold.Chemscore.Rot.Weighted>
3.8989

> <Gold.Chemscore.Internal.Correction.Weighted>
   9.000000E+99

> <Gold.Protein.RotatedTorsions>
[ 6907 6896 6895 6894 ] final  112.70 input  -60.11 | X-H torsion
[ 7974 7965 7964 7962 ] final  179.72 input  175.53 | X-H torsion
[ 8008 7997 7996 7995 ] final  163.66 input   59.86 | X-H torsion
[ 10167 10162 10161 10158 ] final  174.35 input  -65.29 | X-H torsion
[ 10718 10713 10712 10709 ] final  -13.84 input   66.30 | X-H torsion
[ 10763 10752 10751 10750 ] final -150.62 input  -60.55 | X-H torsion
[ 11005 11000 10999 10996 ] final  121.37 input  -57.11 | X-H torsion

> <Gold.Protein.ActiveResidues>
 VAL166  LYS551  ARG553  GLY616  TRP617  ASP618  TYR619  PRO620  LYS621  CYS622 
 ASP623  PHE694  ASN695  SER759  ASP760  ASP761  ALA762  ILE779  LEU786  VAL792 
 PHE793  MET794  SER795  GLU796  ALA797  LYS798  CYS799  TRP800  GLU811  SER814 

> <Gold.Protein.RotatedAtoms>
  152.4902  133.8479  159.7186 H   0  0  0  0  0  0  0  0  0  0  0  0  # atno 6907 bound_to 6896
  150.9024  133.7091  159.2882 H   0  0  0  0  0  0  0  0  0  0  0  0  # atno 6908 bound_to 6896
  151.4528  135.1035  159.9755 H   0  0  0  0  0  0  0  0  0  0  0  0  # atno 6909 bound_to 6896
  144.7143  140.0591  143.6433 H   0  0  0  0  0  0  0  0  0  0  0  0  # atno 7974 bound_to 7965
  156.1940  140.1717  156.8035 H   0  0  0  0  0  0  0  0  0  0  0  0  # atno 8008 bound_to 7997
  154.5506  140.0718  156.8693 H   0  0  0  0  0  0  0  0  0  0  0  0  # atno 8009 bound_to 7997
  155.3035  140.3363  155.4249 H   0  0  0  0  0  0  0  0  0  0  0  0  # atno 8010 bound_to 7997
  139.5139  144.3156  152.0250 H   0  0  0  0  0  0  0  0  0  0  0  0  # atno 10167 bound_to 10162
  156.6245  130.4884  149.6152 H   0  0  0  0  0  0  0  0  0  0  0  0  # atno 10718 bound_to 10713
  154.8108  135.3280  154.7310 H   0  0  0  0  0  0  0  0  0  0  0  0  # atno 10763 bound_to 10752
  153.7960  135.6907  153.4868 H   0  0  0  0  0  0  0  0  0  0  0  0  # atno 10764 bound_to 10752
  153.1885  135.4559  155.0066 H   0  0  0  0  0  0  0  0  0  0  0  0  # atno 10765 bound_to 10752
  139.9223  134.9638  156.7948 H   0  0  0  0  0  0  0  0  0  0  0  0  # atno 11005 bound_to 11000
  145.9879  139.2992  143.1002 LP  0  0  0  0  0  0  0  0  0  0  0  0  # atno 17320 bound_to 7965
  145.8936  140.9288  143.0539 LP  0  0  0  0  0  0  0  0  0  0  0  0  # atno 17321 bound_to 7965
  140.2600  144.4078  150.6189 LP  0  0  0  0  0  0  0  0  0  0  0  0  # atno 17342 bound_to 10162
  140.6164  143.2172  151.6783 LP  0  0  0  0  0  0  0  0  0  0  0  0  # atno 17343 bound_to 10162
  156.2284  130.6780  151.1439 LP  0  0  0  0  0  0  0  0  0  0  0  0  # atno 17370 bound_to 10713
  157.7218  131.0676  150.6103 LP  0  0  0  0  0  0  0  0  0  0  0  0  # atno 17371 bound_to 10713
  140.6438  133.9794  155.7720 LP  0  0  0  0  0  0  0  0  0  0  0  0  # atno 17394 bound_to 11000
  141.0754  134.0143  157.3466 LP  0  0  0  0  0  0  0  0  0  0  0  0  # atno 17395 bound_to 11000

$$$$
