AV-unprocessed.smi:609|AV-procd|sdf|3051|dock5
  -GOLD-   2262023573D 1   1.00000     0.00000
 Structure written by MMmdl.
 43 45  0  0  0  0  0  0  0  0  2 V2000
  148.2168  134.6374  157.7976 C   0  0  0  0  0  0  0  0  0  0  0  0
  148.8651  135.9164  157.2955 C   0  0  0  0  0  0  0  0  0  0  0  0
  148.9708  136.1160  155.9003 C   0  0  0  0  0  0  0  0  0  0  0  0
  149.5668  137.2960  155.4717 C   0  0  0  0  0  0  0  0  0  0  0  0
  149.8142  137.7828  154.1861 N   0  3  0  0  0  0  0  0  0  0  0  0
  150.4246  138.9975  154.2702 C   0  0  0  0  0  0  0  0  0  0  0  0
  150.5712  139.2917  155.5903 N   0  0  0  0  0  0  0  0  0  0  0  0
  151.1591  140.4733  156.2344 C   0  0  0  0  0  0  0  0  0  0  0  0
  150.0975  141.4651  156.7485 C   0  0  2  0  0  0  0  0  0  0  0  0
  149.8982  142.4828  155.7860 O   0  0  0  0  0  0  0  0  0  0  0  0
  150.5080  142.1035  158.0845 C   0  0  0  0  0  0  0  0  0  0  0  0
  152.3146  142.2455  158.2443 S   0  0  0  0  0  0  0  0  0  0  0  0
  152.4314  142.8253  159.9110 C   0  0  0  0  0  0  0  0  0  0  0  0
  152.8285  142.0960  160.9513 N   0  0  0  0  0  0  0  0  0  0  0  0
  152.7621  142.9550  162.0427 C   0  0  0  0  0  0  0  0  0  0  0  0
  152.3233  144.1871  161.6240 C   0  0  0  0  0  0  0  0  0  0  0  0
  152.1158  144.0886  160.2546 N   0  0  0  0  0  0  0  0  0  0  0  0
  151.6494  145.1504  159.3843 C   0  0  0  0  0  0  0  0  0  0  0  0
  150.0509  138.2596  156.3774 C   0  0  0  0  0  0  0  0  0  0  0  0
  149.9560  138.0793  157.7550 C   0  0  0  0  0  0  0  0  0  0  0  0
  149.3518  136.8857  158.2109 C   0  0  0  0  0  0  0  0  0  0  0  0
  149.2315  136.6616  159.7088 C   0  0  0  0  0  0  0  0  0  0  0  0
  147.8576  134.0211  156.9726 H   0  0  0  0  0  0  0  0  0  0  0  0
  147.3646  134.8646  158.4382 H   0  0  0  0  0  0  0  0  0  0  0  0
  148.9323  134.0457  158.3690 H   0  0  0  0  0  0  0  0  0  0  0  0
  148.6023  135.3829  155.1975 H   0  0  0  0  0  0  0  0  0  0  0  0
  150.7326  139.6177  153.4407 H   0  0  0  0  0  0  0  0  0  0  0  0
  151.8073  140.1373  157.0447 H   0  0  0  0  0  0  0  0  0  0  0  0
  151.8056  140.9577  155.5013 H   0  0  0  0  0  0  0  0  0  0  0  0
  149.1511  140.9402  156.8828 H   0  0  0  0  0  0  0  0  0  0  0  0
  149.5874  143.2572  156.2306 H   0  0  0  0  0  0  0  0  0  0  0  0
  150.0805  143.1042  158.1578 H   0  0  0  0  0  0  0  0  0  0  0  0
  150.1128  141.5221  158.9186 H   0  0  0  0  0  0  0  0  0  0  0  0
  153.0324  142.6232  163.0344 H   0  0  0  0  0  0  0  0  0  0  0  0
  152.1461  145.1007  162.1724 H   0  0  0  0  0  0  0  0  0  0  0  0
  151.4853  146.0634  159.9575 H   0  0  0  0  0  0  0  0  0  0  0  0
  150.7110  144.8559  158.9133 H   0  0  0  0  0  0  0  0  0  0  0  0
  152.3930  145.3476  158.6116 H   0  0  0  0  0  0  0  0  0  0  0  0
  150.3254  138.8186  158.4502 H   0  0  0  0  0  0  0  0  0  0  0  0
  149.7001  137.4693  160.2718 H   0  0  0  0  0  0  0  0  0  0  0  0
  149.7178  135.7299  159.9988 H   0  0  0  0  0  0  0  0  0  0  0  0
  148.1834  136.6130  160.0042 H   0  0  0  0  0  0  0  0  0  0  0  0
  149.5823  137.3241  153.3143 H   0  0  0  0  0  0  0  0  0  0  0  0
  1  2  1  0  0  0  0
  1 23  1  0  0  0  0
  1 24  1  0  0  0  0
  1 25  1  0  0  0  0
  2 21  1  0  0  0  0
  2  3  2  0  0  0  0
  3  4  1  0  0  0  0
  3 26  1  0  0  0  0
  4 19  2  0  0  0  0
  4  5  1  0  0  0  0
  5  6  2  0  0  0  0
  5 43  1  0  0  0  0
  6  7  1  0  0  0  0
  6 27  1  0  0  0  0
  7  8  1  0  0  0  0
  7 19  1  0  0  0  0
  8  9  1  0  0  0  0
  8 28  1  0  0  0  0
  8 29  1  0  0  0  0
  9 10  1  0  0  0  0
  9 11  1  0  0  0  0
  9 30  1  0  0  0  0
 10 31  1  0  0  0  0
 11 12  1  0  0  0  0
 11 32  1  0  0  0  0
 11 33  1  0  0  0  0
 12 13  1  0  0  0  0
 13 17  1  0  0  0  0
 13 14  2  0  0  0  0
 14 15  1  0  0  0  0
 15 16  2  0  0  0  0
 15 34  1  0  0  0  0
 16 17  1  0  0  0  0
 16 35  1  0  0  0  0
 17 18  1  0  0  0  0
 18 36  1  0  0  0  0
 18 37  1  0  0  0  0
 18 38  1  0  0  0  0
 19 20  1  0  0  0  0
 20 21  2  0  0  0  0
 20 39  1  0  0  0  0
 21 22  1  0  0  0  0
 22 40  1  0  0  0  0
 22 41  1  0  0  0  0
 22 42  1  0  0  0  0
M  CHG  1   5   1
M  END
> <s_m_source_file>
AV-unprocessed.smi

> <i_m_source_file_index>
609

> <i_lp_mmshare_version>
43012

> <i_f3d_flags>
0

> <s_epik_input>
W0NIM11jKFtjSF0xKWMoW0NIM10pW2NIXWMoYzEyKW4oW2NIXW4yKVtDSDJdW0NASF0oW09IXSlbQ0gyXVNjM25bY0hdW2NIXW4zW0NIM10=

> <s_epik_cmdline>
J2VwaWtfcHl0aG9uJywgJy1waCcsICc3LjAnLCAnLXRuJywgJzgnLCAnLW1hJywgJzIwMCcsICctbWV0YWxfYmluZGluZycsICctaW1hZScsICc8aW5maWxlLm1hZT4nLCAnLW9tYWUnLCAnPG91dGZpbGUubWFlPic=

> <r_epik_Ionization_Penalty>
2.09683

> <r_epik_Ionization_Penalty_Charging>
2.09682

> <r_epik_Ionization_Penalty_Neutral>
2.49751e-06

> <r_epik_State_Penalty>
2.21514

> <r_epik_Charging_Adjusted_Penalty>
4.31197

> <i_epik_Tot_Q>
1

> <i_epik_Tot_abs_Q>
1

> <r_epik_Metal_State_Penalty>
1.52634

> <b_epik_Metal_Only>
0

> <s_lp_Force_Field>
OPLS_2005

> <r_lp_Energy>
12.8682

> <b_lp_Chiralities_Consistent>
1

> <s_lp_Variant>
AV-unprocessed.smi:609-7

> <Gold.Version>
5.8.1

> <Gold.Id.Protein>
6NUR|6NUR_protein|mol2

> <Gold.PLP.Fitness>
49.4059

> <Gold.PLP.PLP>
-41.1824

> <Gold.PLP.part.hbond>
-1.7988

> <Gold.PLP.part.metal>
0.0000

> <Gold.PLP.part.buried>
-7.9679

> <Gold.PLP.part.nonpolar>
-31.3614

> <Gold.PLP.part.repulsive>
0.0434

> <Gold.PLP.ligand.clash>
0.0000

> <Gold.PLP.ligand.torsion>
1.3256

> <Gold.PLP.Chemscore.Hbond>
2.6240

> <Gold.PLP.Chemscore.CHOScore>
0.9990

> <Gold.PLP.Chemscore.Metal>
0.0000

> <Gold.Chemscore.Hbonds>
donor molecule, donor type, donor heavy atom, donor atom, acceptor molecule, acceptor atom, score
      L1  H     5    43       P1  7948  2.00
      L1  H    10    31       P1  8028  0.66
      L1  C     6    27       P1  7957  0.92

> <Gold.PLP.Chemscore.Internal.Correction>
0.0054

> <Gold.Rescore>
     Score         DG    S(hbond)    S(metal)    S(lipo)     H(rot)  DE(clash)    DE(int)     intcor
     13.05     -14.33       1.64        0.00      83.18       2.48       0.16       1.12       ----

> <Gold.Chemscore.Fitness>
13.0467

> <Gold.Chemscore.DG>
-14.3346

> <Gold.Chemscore.ZeroCoef>
-5.4800

> <Gold.Chemscore.Hbond>
1.6373

> <Gold.Chemscore.Metal>
0.0000

> <Gold.Chemscore.Lipo>
83.1784

> <Gold.Chemscore.Internal_Hbond>
0.0000

> <Gold.Chemscore.DEClash>
0.1634

> <Gold.Chemscore.DEInternal>
1.1245

> <Gold.Chemscore.Rot>
2.4789

> <Gold.Chemscore.Internal.Correction>
   9.000000E+99

> <Gold.Chemscore.Hbonds>
donor molecule, donor type, donor heavy atom, donor atom, acceptor molecule, acceptor atom, score
      L1  H     5    43       P1  7948  0.82
      L1  H    10    31       P1  8028  0.66

> <Gold.Chemscore.Hbond.Weighted>
-5.4686

> <Gold.Chemscore.Metal.Weighted>
-0.0000

> <Gold.Chemscore.Lipo.Weighted>
-9.7319

> <Gold.Chemscore.Internal_Hbond.Weighted>
0.0000

> <Gold.Chemscore.DEClash.Weighted>
0.1634

> <Gold.Chemscore.DEInternal.Weighted>
1.1245

> <Gold.Chemscore.Rot.Weighted>
6.3459

> <Gold.Chemscore.Internal.Correction.Weighted>
   9.000000E+99

> <Gold.Protein.RotatedTorsions>
[ 6907 6896 6895 6894 ] final -106.76 input  -60.11 | X-H torsion
[ 7974 7965 7964 7962 ] final  115.92 input  175.53 | X-H torsion
[ 8008 7997 7996 7995 ] final   59.36 input   59.86 | X-H torsion
[ 10167 10162 10161 10158 ] final  -31.68 input  -65.29 | X-H torsion
[ 10718 10713 10712 10709 ] final  156.96 input   66.30 | X-H torsion
[ 10763 10752 10751 10750 ] final   68.56 input  -60.55 | X-H torsion
[ 11005 11000 10999 10996 ] final   -2.91 input  -57.11 | X-H torsion

> <Gold.Protein.ActiveResidues>
 VAL166  LYS551  ARG553  GLY616  TRP617  ASP618  TYR619  PRO620  LYS621  CYS622 
 ASP623  PHE694  ASN695  SER759  ASP760  ASP761  ALA762  ILE779  LEU786  VAL792 
 PHE793  MET794  SER795  GLU796  ALA797  LYS798  CYS799  TRP800  GLU811  SER814 

> <Gold.Protein.RotatedAtoms>
  150.7406  133.9928  159.3612 H   0  0  0  0  0  0  0  0  0  0  0  0  # atno 6907 bound_to 6896
  151.7877  135.0742  160.0392 H   0  0  0  0  0  0  0  0  0  0  0  0  # atno 6908 bound_to 6896
  152.3229  133.5837  159.5793 H   0  0  0  0  0  0  0  0  0  0  0  0  # atno 6909 bound_to 6896
  145.1860  139.3025  143.4393 H   0  0  0  0  0  0  0  0  0  0  0  0  # atno 7974 bound_to 7965
  155.5650  140.3489  155.4500 H   0  0  0  0  0  0  0  0  0  0  0  0  # atno 8008 bound_to 7997
  156.0487  140.1312  157.0101 H   0  0  0  0  0  0  0  0  0  0  0  0  # atno 8009 bound_to 7997
  154.4424  140.1009  156.6328 H   0  0  0  0  0  0  0  0  0  0  0  0  # atno 8010 bound_to 7997
  140.7233  143.3752  151.1703 H   0  0  0  0  0  0  0  0  0  0  0  0  # atno 10167 bound_to 10162
  157.1979  131.0669  151.2042 H   0  0  0  0  0  0  0  0  0  0  0  0  # atno 10718 bound_to 10713
  153.0242  135.5242  154.7154 H   0  0  0  0  0  0  0  0  0  0  0  0  # atno 10763 bound_to 10752
  154.6224  135.2890  155.0312 H   0  0  0  0  0  0  0  0  0  0  0  0  # atno 10764 bound_to 10752
  154.1294  135.6595  153.4971 H   0  0  0  0  0  0  0  0  0  0  0  0  # atno 10765 bound_to 10752
  140.6635  133.9299  155.8451 H   0  0  0  0  0  0  0  0  0  0  0  0  # atno 11005 bound_to 11000
  146.3445  140.2056  142.8589 LP  0  0  0  0  0  0  0  0  0  0  0  0  # atno 17320 bound_to 7965
  145.0088  140.8696  143.5237 LP  0  0  0  0  0  0  0  0  0  0  0  0  # atno 17321 bound_to 7965
  139.7331  143.9041  152.3026 LP  0  0  0  0  0  0  0  0  0  0  0  0  # atno 17342 bound_to 10162
  139.8837  144.7004  150.8849 LP  0  0  0  0  0  0  0  0  0  0  0  0  # atno 17343 bound_to 10162
  157.3796  130.7224  149.6621 LP  0  0  0  0  0  0  0  0  0  0  0  0  # atno 17370 bound_to 10713
  155.9704  130.4176  150.4287 LP  0  0  0  0  0  0  0  0  0  0  0  0  # atno 17371 bound_to 10713
  141.0447  134.0571  157.3859 LP  0  0  0  0  0  0  0  0  0  0  0  0  # atno 17394 bound_to 11000
  139.9005  135.0162  156.7244 LP  0  0  0  0  0  0  0  0  0  0  0  0  # atno 17395 bound_to 11000

$$$$
