AV-unprocessed.smi:281|AV-procd|sdf|2112|dock6
  -GOLD-   2262021403D 1   1.00000     0.00000
 Structure written by MMmdl.
 55 59  0  0  0  0  0  0  0  0  1 V2000
  154.6214  137.1186  158.5242 C   0  0  0  0  0  0  0  0  0  0  0  0
  153.5400  137.1119  157.4392 C   0  0  1  0  0  0  0  0  0  0  0  0
  152.6558  135.8595  157.5173 C   0  0  0  0  0  0  0  0  0  0  0  0
  151.5903  135.9363  156.5231 N   0  0  0  0  0  0  0  0  0  0  0  0
  150.8641  134.8111  156.2919 C   0  0  0  0  0  0  0  0  0  0  0  0
  151.3473  133.5999  156.6809 N   0  0  0  0  0  0  0  0  0  0  0  0
  150.6394  132.4870  156.4691 C   0  0  0  0  0  0  0  0  0  0  0  0
  149.4437  132.3566  155.8932 N   0  0  0  0  0  0  0  0  0  0  0  0
  148.9523  133.5649  155.4962 C   0  0  0  0  0  0  0  0  0  0  0  0
  149.5918  134.8280  155.6509 C   0  0  0  0  0  0  0  0  0  0  0  0
  148.7950  135.8267  155.1037 N   0  0  0  0  0  0  0  0  0  0  0  0
  147.7439  135.1935  154.6609 C   0  0  0  0  0  0  0  0  0  0  0  0
  147.7491  133.8328  154.8664 N   0  0  0  0  0  0  0  0  0  0  0  0
  146.7144  132.8869  154.4778 C   0  0  0  0  0  0  0  0  0  0  0  0
  146.9594  132.2176  153.1008 C   0  0  2  0  0  0  0  0  0  0  0  0
  148.1398  131.4385  153.1484 O   0  0  0  0  0  0  0  0  0  0  0  0
  147.0756  133.2390  151.9810 C   0  0  0  0  0  0  0  0  0  0  0  0
  145.6195  133.4816  151.5931 C   0  0  0  0  0  0  0  0  0  0  0  0
  144.9345  132.2646  151.8725 O   0  0  0  0  0  0  0  0  0  0  0  0
  145.7828  131.3736  152.5912 C   0  0  0  0  0  0  0  0  0  0  0  0
  150.7967  137.1566  156.6359 C   0  0  0  0  0  0  0  0  0  0  0  0
  151.6853  138.4284  156.6468 C   0  0  2  0  0  0  0  0  0  0  0  0
  150.8706  139.6403  157.0901 C   0  0  0  0  0  0  0  0  0  0  0  0
  151.5373  140.8002  156.3705 C   0  0  0  0  0  0  0  0  0  0  0  0
  151.8008  140.2392  155.0993 O   0  0  0  0  0  0  0  0  0  0  0  0
  152.2853  138.9145  155.2918 C   0  0  2  0  0  0  0  0  0  0  0  0
  151.9528  138.0925  154.0385 C   0  0  0  0  0  0  0  0  0  0  0  0
  152.7264  138.2709  157.6171 O   0  0  0  0  0  0  0  0  0  0  0  0
  155.2788  136.2541  158.4278 H   0  0  0  0  0  0  0  0  0  0  0  0
  154.1807  137.0948  159.5213 H   0  0  0  0  0  0  0  0  0  0  0  0
  155.2384  138.0146  158.4537 H   0  0  0  0  0  0  0  0  0  0  0  0
  154.0319  137.1444  156.4666 H   0  0  0  0  0  0  0  0  0  0  0  0
  153.2651  134.9711  157.3457 H   0  0  0  0  0  0  0  0  0  0  0  0
  152.2194  135.7702  158.5133 H   0  0  0  0  0  0  0  0  0  0  0  0
  151.0960  131.5701  156.8115 H   0  0  0  0  0  0  0  0  0  0  0  0
  146.9285  135.7066  154.1720 H   0  0  0  0  0  0  0  0  0  0  0  0
  146.6369  132.1324  155.2615 H   0  0  0  0  0  0  0  0  0  0  0  0
  145.7598  133.4150  154.4715 H   0  0  0  0  0  0  0  0  0  0  0  0
  148.4718  131.3416  152.2690 H   0  0  0  0  0  0  0  0  0  0  0  0
  147.5987  134.1506  152.2720 H   0  0  0  0  0  0  0  0  0  0  0  0
  147.6039  132.8113  151.1271 H   0  0  0  0  0  0  0  0  0  0  0  0
  145.1853  134.2734  152.2043 H   0  0  0  0  0  0  0  0  0  0  0  0
  145.5121  133.7675  150.5465 H   0  0  0  0  0  0  0  0  0  0  0  0
  146.1326  130.6226  151.8809 H   0  0  0  0  0  0  0  0  0  0  0  0
  145.2408  130.8455  153.3742 H   0  0  0  0  0  0  0  0  0  0  0  0
  150.0459  137.2286  155.8503 H   0  0  0  0  0  0  0  0  0  0  0  0
  150.2433  137.0990  157.5743 H   0  0  0  0  0  0  0  0  0  0  0  0
  149.8411  139.5544  156.7391 H   0  0  0  0  0  0  0  0  0  0  0  0
  150.8414  139.7703  158.1726 H   0  0  0  0  0  0  0  0  0  0  0  0
  150.8971  141.6797  156.2997 H   0  0  0  0  0  0  0  0  0  0  0  0
  152.4721  141.0846  156.8564 H   0  0  0  0  0  0  0  0  0  0  0  0
  153.3695  138.9968  155.3757 H   0  0  0  0  0  0  0  0  0  0  0  0
  152.3254  137.0718  154.1196 H   0  0  0  0  0  0  0  0  0  0  0  0
  152.4134  138.5362  153.1557 H   0  0  0  0  0  0  0  0  0  0  0  0
  150.8785  138.0545  153.8596 H   0  0  0  0  0  0  0  0  0  0  0  0
  1  2  1  0  0  0  0
  1 29  1  0  0  0  0
  1 30  1  0  0  0  0
  1 31  1  0  0  0  0
  2 28  1  0  0  0  0
  2  3  1  0  0  0  0
  2 32  1  0  0  0  0
  3  4  1  0  0  0  0
  3 33  1  0  0  0  0
  3 34  1  0  0  0  0
  4  5  1  0  0  0  0
  4 21  1  0  0  0  0
  5 10  1  0  0  0  0
  5  6  2  0  0  0  0
  6  7  1  0  0  0  0
  7  8  2  0  0  0  0
  7 35  1  0  0  0  0
  8  9  1  0  0  0  0
  9 13  1  0  0  0  0
  9 10  2  0  0  0  0
 10 11  1  0  0  0  0
 11 12  2  0  0  0  0
 12 13  1  0  0  0  0
 12 36  1  0  0  0  0
 13 14  1  0  0  0  0
 14 15  1  0  0  0  0
 14 37  1  0  0  0  0
 14 38  1  0  0  0  0
 15 20  1  0  0  0  0
 15 16  1  0  0  0  0
 15 17  1  0  0  0  0
 16 39  1  0  0  0  0
 17 18  1  0  0  0  0
 17 40  1  0  0  0  0
 17 41  1  0  0  0  0
 18 19  1  0  0  0  0
 18 42  1  0  0  0  0
 18 43  1  0  0  0  0
 19 20  1  0  0  0  0
 20 44  1  0  0  0  0
 20 45  1  0  0  0  0
 21 22  1  0  0  0  0
 21 46  1  0  0  0  0
 21 47  1  0  0  0  0
 22 26  1  0  0  0  0
 22 23  1  0  0  0  0
 22 28  1  0  0  0  0
 23 24  1  0  0  0  0
 23 48  1  0  0  0  0
 23 49  1  0  0  0  0
 24 25  1  0  0  0  0
 24 50  1  0  0  0  0
 24 51  1  0  0  0  0
 25 26  1  0  0  0  0
 26 27  1  0  0  0  0
 26 52  1  0  0  0  0
 27 53  1  0  0  0  0
 27 54  1  0  0  0  0
 27 55  1  0  0  0  0
M  END
> <s_m_source_file>
AV-unprocessed.smi

> <i_m_source_file_index>
281

> <i_lp_mmshare_version>
43012

> <i_f3d_flags>
0

> <s_epik_input>
W0NIM11bQ0BASF0xT1tDSDJdW0NIMl1bQ0BAXTEyW0NIMl1OKFtDSDJdW0NASF0oTzIpW0NIM10pYyhuW2NIXW4zKWMoYzM0KW5bY0hdbjRbQ0gyXVtDQEBdNShbT0hdKVtDSDJdW0NIMl1PW0NIMl01

> <s_epik_cmdline>
J2VwaWtfcHl0aG9uJywgJy1waCcsICc3LjAnLCAnLXRuJywgJzgnLCAnLW1hJywgJzIwMCcsICctbWV0YWxfYmluZGluZycsICctaW1hZScsICc8aW5maWxlLm1hZT4nLCAnLW9tYWUnLCAnPG91dGZpbGUubWFlPic=

> <r_lp_tautomer_probability>
1

> <r_epik_Ionization_Penalty>
0.00571331

> <r_epik_Ionization_Penalty_Charging>
0

> <r_epik_Ionization_Penalty_Neutral>
0.00571331

> <r_epik_State_Penalty>
0.00399586

> <r_epik_Charging_Adjusted_Penalty>
0.00399586

> <i_epik_Tot_Q>
0

> <i_epik_Tot_abs_Q>
0

> <r_epik_Metal_State_Penalty>
-0

> <b_epik_Metal_Only>
0

> <s_lp_Force_Field>
OPLS_2005

> <r_lp_Energy>
53.9998

> <b_lp_Chiralities_Consistent>
1

> <s_lp_Variant>
AV-unprocessed.smi:281-12

> <Gold.Version>
5.8.1

> <Gold.Id.Protein>
6NUR|6NUR_protein|mol2

> <Gold.PLP.Fitness>
36.1624

> <Gold.PLP.PLP>
-31.3720

> <Gold.PLP.part.hbond>
-2.9619

> <Gold.PLP.part.metal>
0.0000

> <Gold.PLP.part.buried>
-5.4962

> <Gold.PLP.part.nonpolar>
-23.8184

> <Gold.PLP.part.repulsive>
0.2743

> <Gold.PLP.ligand.clash>
0.0000

> <Gold.PLP.ligand.torsion>
0.9778

> <Gold.PLP.Chemscore.Hbond>
2.1601

> <Gold.PLP.Chemscore.CHOScore>
0.0000

> <Gold.PLP.Chemscore.Metal>
0.0000

> <Gold.Chemscore.Hbonds>
donor molecule, donor type, donor heavy atom, donor atom, acceptor molecule, acceptor atom, score
      L1  H    16    39       P1 10747  0.83
      P1  H  7989  7998       L1    25  0.86
      P1  H 10752 10763       L1     4  0.19

> <Gold.PLP.Chemscore.Internal.Correction>
0.2658

> <Gold.Rescore>
     Score         DG    S(hbond)    S(metal)    S(lipo)     H(rot)  DE(clash)    DE(int)     intcor
     12.46     -15.00       1.81        0.00      75.50       2.09       0.17       2.36       ----

> <Gold.Chemscore.Fitness>
12.4583

> <Gold.Chemscore.DG>
-14.9968

> <Gold.Chemscore.ZeroCoef>
-5.4800

> <Gold.Chemscore.Hbond>
1.8087

> <Gold.Chemscore.Metal>
0.0000

> <Gold.Chemscore.Lipo>
75.4975

> <Gold.Chemscore.Internal_Hbond>
0.0000

> <Gold.Chemscore.DEClash>
0.1736

> <Gold.Chemscore.DEInternal>
2.3648

> <Gold.Chemscore.Rot>
2.0927

> <Gold.Chemscore.Internal.Correction>
   9.000000E+99

> <Gold.Chemscore.Hbonds>
donor molecule, donor type, donor heavy atom, donor atom, acceptor molecule, acceptor atom, score
      L1  H    16    39       P1 10747  0.81
      P1  H  7989  7998       L1    25  0.83

> <Gold.Chemscore.Hbond.Weighted>
-6.0409

> <Gold.Chemscore.Metal.Weighted>
-0.0000

> <Gold.Chemscore.Lipo.Weighted>
-8.8332

> <Gold.Chemscore.Internal_Hbond.Weighted>
0.0000

> <Gold.Chemscore.DEClash.Weighted>
0.1736

> <Gold.Chemscore.DEInternal.Weighted>
2.3648

> <Gold.Chemscore.Rot.Weighted>
5.3573

> <Gold.Chemscore.Internal.Correction.Weighted>
   9.000000E+99

> <Gold.Protein.RotatedTorsions>
[ 6907 6896 6895 6894 ] final -107.99 input  -60.11 | X-H torsion
[ 7974 7965 7964 7962 ] final   63.51 input  175.53 | X-H torsion
[ 8008 7997 7996 7995 ] final  176.06 input   59.86 | X-H torsion
[ 10167 10162 10161 10158 ] final  -15.70 input  -65.29 | X-H torsion
[ 10718 10713 10712 10709 ] final    2.06 input   66.30 | X-H torsion
[ 10763 10752 10751 10750 ] final   72.02 input  -60.55 | X-H torsion
[ 11005 11000 10999 10996 ] final   83.96 input  -57.11 | X-H torsion

> <Gold.Protein.ActiveResidues>
 VAL166  LYS551  ARG553  GLY616  TRP617  ASP618  TYR619  PRO620  LYS621  CYS622 
 ASP623  PHE694  ASN695  SER759  ASP760  ASP761  ALA762  ILE779  LEU786  VAL792 
 PHE793  MET794  SER795  GLU796  ALA797  LYS798  CYS799  TRP800  GLU811  SER814 

> <Gold.Protein.RotatedAtoms>
  150.7476  133.9744  159.3555 H   0  0  0  0  0  0  0  0  0  0  0  0  # atno 6907 bound_to 6896
  151.7680  135.0791  160.0365 H   0  0  0  0  0  0  0  0  0  0  0  0  # atno 6908 bound_to 6896
  152.3358  133.5973  159.5878 H   0  0  0  0  0  0  0  0  0  0  0  0  # atno 6909 bound_to 6896
  145.8610  139.3315  143.0819 H   0  0  0  0  0  0  0  0  0  0  0  0  # atno 7974 bound_to 7965
  156.0805  140.1393  156.9718 H   0  0  0  0  0  0  0  0  0  0  0  0  # atno 8008 bound_to 7997
  154.4582  140.0953  156.6868 H   0  0  0  0  0  0  0  0  0  0  0  0  # atno 8009 bound_to 7997
  155.5083  140.3453  155.4386 H   0  0  0  0  0  0  0  0  0  0  0  0  # atno 8010 bound_to 7997
  140.7222  143.5191  150.9655 H   0  0  0  0  0  0  0  0  0  0  0  0  # atno 10167 bound_to 10162
  156.8574  130.5575  149.5665 H   0  0  0  0  0  0  0  0  0  0  0  0  # atno 10718 bound_to 10713
  153.0433  135.5115  154.7681 H   0  0  0  0  0  0  0  0  0  0  0  0  # atno 10763 bound_to 10752
  154.6601  135.2937  154.9880 H   0  0  0  0  0  0  0  0  0  0  0  0  # atno 10764 bound_to 10752
  154.0734  135.6674  153.4880 H   0  0  0  0  0  0  0  0  0  0  0  0  # atno 10765 bound_to 10752
  139.9015  134.8182  156.2381 H   0  0  0  0  0  0  0  0  0  0  0  0  # atno 11005 bound_to 11000
  145.9248  140.9090  143.0386 LP  0  0  0  0  0  0  0  0  0  0  0  0  # atno 17320 bound_to 7965
  144.6726  140.1338  143.7442 LP  0  0  0  0  0  0  0  0  0  0  0  0  # atno 17321 bound_to 7965
  139.8908  143.6956  152.3145 LP  0  0  0  0  0  0  0  0  0  0  0  0  # atno 17342 bound_to 10162
  139.7271  144.7590  151.0862 LP  0  0  0  0  0  0  0  0  0  0  0  0  # atno 17343 bound_to 10162
  156.0795  130.5809  150.9536 LP  0  0  0  0  0  0  0  0  0  0  0  0  # atno 17370 bound_to 10713
  157.6269  131.0925  150.8516 LP  0  0  0  0  0  0  0  0  0  0  0  0  # atno 17371 bound_to 10713
  141.0303  133.6992  156.1418 LP  0  0  0  0  0  0  0  0  0  0  0  0  # atno 17394 bound_to 11000
  140.7107  134.4465  157.5581 LP  0  0  0  0  0  0  0  0  0  0  0  0  # atno 17395 bound_to 11000

$$$$
