AV-unprocessed.smi:2095|AV-procd|sdf|8557|dock10
  -GOLD-   2272011283D 1   1.00000     0.00000
 Structure written by MMmdl.
 42 43  0  0  0  0  0  0  0  0  2 V2000
  146.1961  132.9752  150.3214 C   0  0  0  0  0  0  0  0  0  0  0  0
  146.7454  133.8909  151.4244 C   0  0  1  0  0  0  0  0  0  0  0  0
  145.6201  134.4083  152.3374 C   0  0  0  0  0  0  0  0  0  0  0  0
  146.1970  135.2991  153.4459 C   0  0  0  0  0  0  0  0  0  0  0  0
  147.2938  134.5625  154.2317 C   0  0  0  0  0  0  0  0  0  0  0  0
  148.3641  134.0815  153.3186 N   0  3  1  0  0  0  0  0  0  0  0  0
  149.5733  133.5795  154.0340 C   0  0  2  0  0  0  0  0  0  0  0  0
  149.3087  132.1898  154.6450 C   0  0  0  0  0  0  0  0  0  0  0  0
  150.1371  134.5885  155.0679 C   0  0  0  0  0  0  0  0  0  0  0  0
  150.3271  135.9137  154.4902 N   0  0  0  0  0  0  0  0  0  0  0  0
  151.2733  136.7871  154.8674 C   0  0  0  0  0  0  0  0  0  0  0  0
  152.1344  136.5322  155.7090 O   0  0  0  0  0  0  0  0  0  0  0  0
  151.2208  138.1690  154.2176 C   0  0  0  0  0  0  0  0  0  0  0  0
  150.1437  138.9557  154.7874 N   0  0  0  0  0  0  0  0  0  0  0  0
  149.0538  138.5887  155.4643 C   0  0  0  0  0  0  0  0  0  0  0  0
  148.3016  139.6314  155.7811 N   0  0  0  0  0  0  0  0  0  0  0  0
  149.0041  140.7002  155.2498 N   0  0  0  0  0  0  0  0  0  0  0  0
  150.0980  140.3055  154.6583 N   0  0  0  0  0  0  0  0  0  0  0  0
  147.8250  133.1792  152.2639 C   0  0  0  0  0  0  0  0  0  0  0  0
  145.7126  132.0929  150.7420 H   0  0  0  0  0  0  0  0  0  0  0  0
  146.9932  132.6341  149.6600 H   0  0  0  0  0  0  0  0  0  0  0  0
  145.4608  133.4968  149.7080 H   0  0  0  0  0  0  0  0  0  0  0  0
  147.2084  134.7503  150.9368 H   0  0  0  0  0  0  0  0  0  0  0  0
  144.8875  134.9685  151.7552 H   0  0  0  0  0  0  0  0  0  0  0  0
  145.0862  133.5681  152.7838 H   0  0  0  0  0  0  0  0  0  0  0  0
  146.6089  136.2089  153.0070 H   0  0  0  0  0  0  0  0  0  0  0  0
  145.4018  135.6148  154.1220 H   0  0  0  0  0  0  0  0  0  0  0  0
  147.7132  135.2405  154.9758 H   0  0  0  0  0  0  0  0  0  0  0  0
  146.8616  133.7219  154.7760 H   0  0  0  0  0  0  0  0  0  0  0  0
  150.3367  133.4207  153.2710 H   0  0  0  0  0  0  0  0  0  0  0  0
  150.2330  131.7291  154.9952 H   0  0  0  0  0  0  0  0  0  0  0  0
  148.8737  131.5133  153.9090 H   0  0  0  0  0  0  0  0  0  0  0  0
  148.6295  132.2403  155.4957 H   0  0  0  0  0  0  0  0  0  0  0  0
  149.4876  134.6651  155.9406 H   0  0  0  0  0  0  0  0  0  0  0  0
  151.1097  134.2593  155.4338 H   0  0  0  0  0  0  0  0  0  0  0  0
  149.6616  136.2079  153.7895 H   0  0  0  0  0  0  0  0  0  0  0  0
  152.1636  138.6945  154.3763 H   0  0  0  0  0  0  0  0  0  0  0  0
  151.0759  138.0792  153.1397 H   0  0  0  0  0  0  0  0  0  0  0  0
  148.8097  137.5665  155.7139 H   0  0  0  0  0  0  0  0  0  0  0  0
  147.4010  132.2844  152.7216 H   0  0  0  0  0  0  0  0  0  0  0  0
  148.6294  132.8503  151.6066 H   0  0  0  0  0  0  0  0  0  0  0  0
  148.6793  134.9090  152.8328 H   0  0  0  0  0  0  0  0  0  0  0  0
  1  2  1  0  0  0  0
  1 20  1  0  0  0  0
  1 21  1  0  0  0  0
  1 22  1  0  0  0  0
  2 19  1  0  0  0  0
  2  3  1  0  0  0  0
  2 23  1  0  0  0  0
  3  4  1  0  0  0  0
  3 24  1  0  0  0  0
  3 25  1  0  0  0  0
  4  5  1  0  0  0  0
  4 26  1  0  0  0  0
  4 27  1  0  0  0  0
  5  6  1  0  0  0  0
  5 28  1  0  0  0  0
  5 29  1  0  0  0  0
  6  7  1  0  0  0  0
  6 19  1  0  0  0  0
  6 42  1  0  0  0  0
  7  8  1  0  0  0  0
  7  9  1  0  0  0  0
  7 30  1  0  0  0  0
  8 31  1  0  0  0  0
  8 32  1  0  0  0  0
  8 33  1  0  0  0  0
  9 10  1  0  0  0  0
  9 34  1  0  0  0  0
  9 35  1  0  0  0  0
 10 11  1  0  0  0  0
 10 36  1  0  0  0  0
 11 12  2  0  0  0  0
 11 13  1  0  0  0  0
 13 14  1  0  0  0  0
 13 37  1  0  0  0  0
 13 38  1  0  0  0  0
 14 18  1  0  0  0  0
 14 15  1  0  0  0  0
 15 16  2  0  0  0  0
 15 39  1  0  0  0  0
 16 17  1  0  0  0  0
 17 18  2  0  0  0  0
 19 40  1  0  0  0  0
 19 41  1  0  0  0  0
M  CHG  1   6   1
M  END
> <s_m_source_file>
AV-unprocessed.smi

> <i_m_source_file_index>
2095

> <i_lp_mmshare_version>
43012

> <i_f3d_flags>
0

> <s_epik_input>
W0NIM11bQ0BASF0xW0NIMl1bQ0gyXVtDSDJdTihbQ0gyXTEpW0NASF0oW0NIM10pW0NIMl1bTkhdQyg9TylbQ0gyXW4yW2NIXW5ubjI=

> <s_epik_cmdline>
J2VwaWtfcHl0aG9uJywgJy1waCcsICc3LjAnLCAnLXRuJywgJzgnLCAnLW1hJywgJzIwMCcsICctbWV0YWxfYmluZGluZycsICctaW1hZScsICc8aW5maWxlLm1hZT4nLCAnLW9tYWUnLCAnPG91dGZpbGUubWFlPic=

> <r_lp_tautomer_probability>
1

> <r_epik_Ionization_Penalty>
0.00268321

> <r_epik_Ionization_Penalty_Charging>
0.00267875

> <r_epik_Ionization_Penalty_Neutral>
4.46125e-06

> <r_epik_State_Penalty>
0.00186642

> <r_epik_Charging_Adjusted_Penalty>
0.00454517

> <i_epik_Tot_Q>
1

> <i_epik_Tot_abs_Q>
1

> <r_epik_Metal_State_Penalty>
-0

> <b_epik_Metal_Only>
0

> <s_lp_Force_Field>
OPLS_2005

> <r_lp_Energy>
21.2581

> <b_lp_Chiralities_Consistent>
1

> <s_lp_Variant>
AV-unprocessed.smi:2095-4

> <Gold.Version>
5.8.1

> <Gold.Id.Protein>
6NUR|6NUR_protein|mol2

> <Gold.PLP.Fitness>
44.0559

> <Gold.PLP.PLP>
-30.5237

> <Gold.PLP.part.hbond>
-4.8369

> <Gold.PLP.part.metal>
0.0000

> <Gold.PLP.part.buried>
-2.3059

> <Gold.PLP.part.nonpolar>
-23.4752

> <Gold.PLP.part.repulsive>
0.3463

> <Gold.PLP.ligand.clash>
0.0000

> <Gold.PLP.ligand.torsion>
0.7552

> <Gold.PLP.Chemscore.Hbond>
4.9760

> <Gold.PLP.Chemscore.CHOScore>
0.0000

> <Gold.PLP.Chemscore.Metal>
0.0000

> <Gold.Chemscore.Hbonds>
donor molecule, donor type, donor heavy atom, donor atom, acceptor molecule, acceptor atom, score
      L1  H     6    42       P1  7948  2.00
      L1  H    10    36       P1  7948  1.00
      P1  H  7989  7998       L1    18  1.00
      P1  H 10752 10764       L1    12  0.95

> <Gold.PLP.Chemscore.Internal.Correction>
0.1147

> <Gold.Rescore>
     Score         DG    S(hbond)    S(metal)    S(lipo)     H(rot)  DE(clash)    DE(int)     intcor
     14.65     -15.66       3.21        0.00      53.38       2.64       0.10       0.91       ----

> <Gold.Chemscore.Fitness>
14.6546

> <Gold.Chemscore.DG>
-15.6632

> <Gold.Chemscore.ZeroCoef>
-5.4800

> <Gold.Chemscore.Hbond>
3.2055

> <Gold.Chemscore.Metal>
0.0000

> <Gold.Chemscore.Lipo>
53.3787

> <Gold.Chemscore.Internal_Hbond>
0.0000

> <Gold.Chemscore.DEClash>
0.0985

> <Gold.Chemscore.DEInternal>
0.9102

> <Gold.Chemscore.Rot>
2.6439

> <Gold.Chemscore.Internal.Correction>
   9.000000E+99

> <Gold.Chemscore.Hbonds>
donor molecule, donor type, donor heavy atom, donor atom, acceptor molecule, acceptor atom, score
      L1  H     6    42       P1  7948  0.25
      L1  H    10    36       P1  7948  0.40
      P1  H  7989  7998       L1    18  0.64
      P1  H 10752 10764       L1    12  0.21

> <Gold.Chemscore.Hbond.Weighted>
-10.7064

> <Gold.Chemscore.Metal.Weighted>
-0.0000

> <Gold.Chemscore.Lipo.Weighted>
-6.2453

> <Gold.Chemscore.Internal_Hbond.Weighted>
0.0000

> <Gold.Chemscore.DEClash.Weighted>
0.0985

> <Gold.Chemscore.DEInternal.Weighted>
0.9102

> <Gold.Chemscore.Rot.Weighted>
6.7685

> <Gold.Chemscore.Internal.Correction.Weighted>
   9.000000E+99

> <Gold.Protein.RotatedTorsions>
[ 6907 6896 6895 6894 ] final   94.30 input  -60.11 | X-H torsion
[ 7974 7965 7964 7962 ] final   23.43 input  175.53 | X-H torsion
[ 8008 7997 7996 7995 ] final -155.20 input   59.86 | X-H torsion
[ 10167 10162 10161 10158 ] final   29.12 input  -65.29 | X-H torsion
[ 10718 10713 10712 10709 ] final  -71.26 input   66.30 | X-H torsion
[ 10763 10752 10751 10750 ] final  -44.41 input  -60.55 | X-H torsion
[ 11005 11000 10999 10996 ] final  -75.02 input  -57.11 | X-H torsion

> <Gold.Protein.ActiveResidues>
 VAL166  LYS551  ARG553  GLY616  TRP617  ASP618  TYR619  PRO620  LYS621  CYS622 
 ASP623  PHE694  ASN695  SER759  ASP760  ASP761  ALA762  ILE779  LEU786  VAL792 
 PHE793  MET794  SER795  GLU796  ALA797  LYS798  CYS799  TRP800  GLU811  SER814 

> <Gold.Protein.RotatedAtoms>
  152.5450  134.1215  159.8400 H   0  0  0  0  0  0  0  0  0  0  0  0  # atno 6907 bound_to 6896
  151.1271  133.5056  159.2607 H   0  0  0  0  0  0  0  0  0  0  0  0  # atno 6908 bound_to 6896
  151.1716  135.0330  159.8808 H   0  0  0  0  0  0  0  0  0  0  0  0  # atno 6909 bound_to 6896
  146.1985  139.7746  142.8779 H   0  0  0  0  0  0  0  0  0  0  0  0  # atno 7974 bound_to 7965
  155.6982  140.0763  157.2421 H   0  0  0  0  0  0  0  0  0  0  0  0  # atno 8008 bound_to 7997
  154.4077  140.1652  156.2214 H   0  0  0  0  0  0  0  0  0  0  0  0  # atno 8009 bound_to 7997
  155.9391  140.3386  155.6316 H   0  0  0  0  0  0  0  0  0  0  0  0  # atno 8010 bound_to 7997
  140.4793  144.0641  150.6260 H   0  0  0  0  0  0  0  0  0  0  0  0  # atno 10167 bound_to 10162
  156.0371  130.4348  150.2417 H   0  0  0  0  0  0  0  0  0  0  0  0  # atno 10718 bound_to 10713
  154.0115  135.6681  153.4765 H   0  0  0  0  0  0  0  0  0  0  0  0  # atno 10763 bound_to 10752
  153.0618  135.5023  154.8108 H   0  0  0  0  0  0  0  0  0  0  0  0  # atno 10764 bound_to 10752
  154.6992  135.3075  154.9330 H   0  0  0  0  0  0  0  0  0  0  0  0  # atno 10765 bound_to 10752
  141.1641  133.6932  156.7454 H   0  0  0  0  0  0  0  0  0  0  0  0  # atno 11005 bound_to 11000
  145.3565  141.0317  143.3309 LP  0  0  0  0  0  0  0  0  0  0  0  0  # atno 17320 bound_to 7965
  144.8631  139.5148  143.6803 LP  0  0  0  0  0  0  0  0  0  0  0  0  # atno 17321 bound_to 7965
  140.3878  143.2768  152.0095 LP  0  0  0  0  0  0  0  0  0  0  0  0  # atno 17342 bound_to 10162
  139.4831  144.6102  151.7448 LP  0  0  0  0  0  0  0  0  0  0  0  0  # atno 17343 bound_to 10162
  157.0516  131.0064  151.3252 LP  0  0  0  0  0  0  0  0  0  0  0  0  # atno 17370 bound_to 10713
  157.5136  130.7954  149.7732 LP  0  0  0  0  0  0  0  0  0  0  0  0  # atno 17371 bound_to 10713
  140.2644  134.8442  157.3788 LP  0  0  0  0  0  0  0  0  0  0  0  0  # atno 17394 bound_to 11000
  140.1581  134.4764  155.7914 LP  0  0  0  0  0  0  0  0  0  0  0  0  # atno 17395 bound_to 11000

$$$$
