AV-unprocessed.smi:1936|AV-procd|sdf|7831|dock2
  -GOLD-   22720 9573D 1   1.00000     0.00000
 Structure written by MMmdl.
 39 40  0  0  0  0  0  0  0  0  2 V2000
  152.7189  138.0906  155.9939 C   0  0  0  0  0  0  0  0  0  0  0  0
  151.2643  138.4950  155.7181 C   0  0  2  0  0  0  0  0  0  0  0  0
  150.7412  137.8523  154.4137 C   0  0  0  0  0  0  0  0  0  0  0  0
  149.2633  137.9177  154.2845 N   0  3  0  0  0  0  0  0  0  0  0  0
  148.5527  137.3079  155.4323 C   0  0  0  0  0  0  0  0  0  0  0  0
  147.0329  137.3416  155.1958 C   0  0  0  0  0  0  0  0  0  0  0  0
  146.6115  138.6826  154.9776 O   0  0  0  0  0  0  0  0  0  0  0  0
  147.2276  139.2556  153.8305 C   0  0  0  0  0  0  0  0  0  0  0  0
  148.7524  139.2861  154.0267 C   0  0  0  0  0  0  0  0  0  0  0  0
  151.1798  139.9547  155.6652 N   0  0  0  0  0  0  0  0  0  0  0  0
  150.6707  140.7541  156.6177 C   0  0  0  0  0  0  0  0  0  0  0  0
  150.1468  140.3292  157.6469 O   0  0  0  0  0  0  0  0  0  0  0  0
  150.7396  142.2630  156.3642 C   0  0  0  0  0  0  0  0  0  0  0  0
  151.4075  142.9672  157.4460 N   0  0  0  0  0  0  0  0  0  0  0  0
  151.5979  144.3254  157.5965 C   0  0  0  0  0  0  0  0  0  0  0  0
  152.2797  144.5135  158.7644 C   0  0  0  0  0  0  0  0  0  0  0  0
  152.4615  143.1944  159.2662 C   0  0  0  0  0  0  0  0  0  0  0  0
  151.9371  142.2715  158.4760 N   0  0  0  0  0  0  0  0  0  0  0  0
  152.8143  137.0080  156.0823 H   0  0  0  0  0  0  0  0  0  0  0  0
  153.0788  138.5285  156.9256 H   0  0  0  0  0  0  0  0  0  0  0  0
  153.3832  138.4180  155.1933 H   0  0  0  0  0  0  0  0  0  0  0  0
  150.6731  138.1325  156.5601 H   0  0  0  0  0  0  0  0  0  0  0  0
  151.1977  138.3769  153.5726 H   0  0  0  0  0  0  0  0  0  0  0  0
  151.0690  136.8144  154.3356 H   0  0  0  0  0  0  0  0  0  0  0  0
  148.8786  136.2755  155.5646 H   0  0  0  0  0  0  0  0  0  0  0  0
  148.8040  137.8461  156.3479 H   0  0  0  0  0  0  0  0  0  0  0  0
  146.7574  136.7180  154.3436 H   0  0  0  0  0  0  0  0  0  0  0  0
  146.5084  136.9434  156.0644 H   0  0  0  0  0  0  0  0  0  0  0  0
  146.9611  138.6895  152.9364 H   0  0  0  0  0  0  0  0  0  0  0  0
  146.8460  140.2675  153.6927 H   0  0  0  0  0  0  0  0  0  0  0  0
  149.0072  139.9380  154.8638 H   0  0  0  0  0  0  0  0  0  0  0  0
  149.2234  139.7075  153.1391 H   0  0  0  0  0  0  0  0  0  0  0  0
  151.5851  140.3986  154.8534 H   0  0  0  0  0  0  0  0  0  0  0  0
  151.2752  142.4513  155.4330 H   0  0  0  0  0  0  0  0  0  0  0  0
  149.7348  142.6715  156.2441 H   0  0  0  0  0  0  0  0  0  0  0  0
  151.2379  145.0370  156.8677 H   0  0  0  0  0  0  0  0  0  0  0  0
  152.5998  145.4503  159.1958 H   0  0  0  0  0  0  0  0  0  0  0  0
  152.9556  142.8818  160.1746 H   0  0  0  0  0  0  0  0  0  0  0  0
  149.0249  137.3595  153.4767 H   0  0  0  0  0  0  0  0  0  0  0  0
  1  2  1  0  0  0  0
  1 19  1  0  0  0  0
  1 20  1  0  0  0  0
  1 21  1  0  0  0  0
  2  3  1  0  0  0  0
  2 10  1  0  0  0  0
  2 22  1  0  0  0  0
  3  4  1  0  0  0  0
  3 23  1  0  0  0  0
  3 24  1  0  0  0  0
  4  9  1  0  0  0  0
  4  5  1  0  0  0  0
  4 39  1  0  0  0  0
  5  6  1  0  0  0  0
  5 25  1  0  0  0  0
  5 26  1  0  0  0  0
  6  7  1  0  0  0  0
  6 27  1  0  0  0  0
  6 28  1  0  0  0  0
  7  8  1  0  0  0  0
  8  9  1  0  0  0  0
  8 29  1  0  0  0  0
  8 30  1  0  0  0  0
  9 31  1  0  0  0  0
  9 32  1  0  0  0  0
 10 11  1  0  0  0  0
 10 33  1  0  0  0  0
 11 12  2  0  0  0  0
 11 13  1  0  0  0  0
 13 14  1  0  0  0  0
 13 34  1  0  0  0  0
 13 35  1  0  0  0  0
 14 18  1  0  0  0  0
 14 15  1  0  0  0  0
 15 16  2  0  0  0  0
 15 36  1  0  0  0  0
 16 17  1  0  0  0  0
 16 37  1  0  0  0  0
 17 18  2  0  0  0  0
 17 38  1  0  0  0  0
M  CHG  1   4   1
M  END
> <s_m_source_file>
AV-unprocessed.smi

> <i_m_source_file_index>
1936

> <i_lp_mmshare_version>
43012

> <i_f3d_flags>
0

> <s_epik_input>
W0NIMl0xW0NIMl1PW0NIMl1bQ0gyXU4xW0NIMl1bQ0BASF0oW0NIM10pW05IXUMoPU8pW0NIMl1uMltjSF1bY0hdW2NIXW4y

> <s_epik_cmdline>
J2VwaWtfcHl0aG9uJywgJy1waCcsICc3LjAnLCAnLXRuJywgJzgnLCAnLW1hJywgJzIwMCcsICctbWV0YWxfYmluZGluZycsICctaW1hZScsICc8aW5maWxlLm1hZT4nLCAnLW9tYWUnLCAnPG91dGZpbGUubWFlPic=

> <r_lp_tautomer_probability>
1

> <r_epik_Ionization_Penalty>
0.748405

> <r_epik_Ionization_Penalty_Charging>
0.748396

> <r_epik_Ionization_Penalty_Neutral>
9.02181e-06

> <r_epik_State_Penalty>
0.775162

> <r_epik_Charging_Adjusted_Penalty>
1.52356

> <i_epik_Tot_Q>
1

> <i_epik_Tot_abs_Q>
1

> <r_epik_Metal_State_Penalty>
0.775167

> <b_epik_Metal_Only>
0

> <s_lp_Force_Field>
OPLS_2005

> <r_lp_Energy>
23.0503

> <b_lp_Chiralities_Consistent>
1

> <s_lp_Variant>
AV-unprocessed.smi:1936-3

> <Gold.Version>
5.8.1

> <Gold.Id.Protein>
6NUR|6NUR_protein|mol2

> <Gold.PLP.Fitness>
41.0273

> <Gold.PLP.PLP>
-32.6313

> <Gold.PLP.part.hbond>
-1.0000

> <Gold.PLP.part.metal>
0.0000

> <Gold.PLP.part.buried>
-1.9917

> <Gold.PLP.part.nonpolar>
-29.8899

> <Gold.PLP.part.repulsive>
0.7604

> <Gold.PLP.ligand.clash>
0.0000

> <Gold.PLP.ligand.torsion>
0.3187

> <Gold.PLP.Chemscore.Hbond>
2.0000

> <Gold.PLP.Chemscore.CHOScore>
0.9924

> <Gold.PLP.Chemscore.Metal>
0.0000

> <Gold.Chemscore.Hbonds>
donor molecule, donor type, donor heavy atom, donor atom, acceptor molecule, acceptor atom, score
      L1  H     4    39       P1  7948  2.00
      L1  C    15    36       P1  8028  0.67

> <Gold.PLP.Chemscore.Internal.Correction>
0.0563

> <Gold.Rescore>
     Score         DG    S(hbond)    S(metal)    S(lipo)     H(rot)  DE(clash)    DE(int)     intcor
     11.81     -13.74       1.00        0.00      84.41       1.93       0.15       1.79       ----

> <Gold.Chemscore.Fitness>
11.8075

> <Gold.Chemscore.DG>
-13.7388

> <Gold.Chemscore.ZeroCoef>
-5.4800

> <Gold.Chemscore.Hbond>
0.9981

> <Gold.Chemscore.Metal>
0.0000

> <Gold.Chemscore.Lipo>
84.4117

> <Gold.Chemscore.Internal_Hbond>
0.0000

> <Gold.Chemscore.DEClash>
0.1461

> <Gold.Chemscore.DEInternal>
1.7852

> <Gold.Chemscore.Rot>
1.9340

> <Gold.Chemscore.Internal.Correction>
   9.000000E+99

> <Gold.Chemscore.Hbonds>
donor molecule, donor type, donor heavy atom, donor atom, acceptor molecule, acceptor atom, score
      L1  H     4    39       P1  7948  0.99

> <Gold.Chemscore.Hbond.Weighted>
-3.3337

> <Gold.Chemscore.Metal.Weighted>
-0.0000

> <Gold.Chemscore.Lipo.Weighted>
-9.8762

> <Gold.Chemscore.Internal_Hbond.Weighted>
0.0000

> <Gold.Chemscore.DEClash.Weighted>
0.1461

> <Gold.Chemscore.DEInternal.Weighted>
1.7852

> <Gold.Chemscore.Rot.Weighted>
4.9510

> <Gold.Chemscore.Internal.Correction.Weighted>
   9.000000E+99

> <Gold.Protein.RotatedTorsions>
[ 6907 6896 6895 6894 ] final -130.10 input  -60.11 | X-H torsion
[ 7974 7965 7964 7962 ] final -148.47 input  175.53 | X-H torsion
[ 8008 7997 7996 7995 ] final  124.27 input   59.86 | X-H torsion
[ 10167 10162 10161 10158 ] final  -78.29 input  -65.29 | X-H torsion
[ 10718 10713 10712 10709 ] final   26.53 input   66.30 | X-H torsion
[ 10763 10752 10751 10750 ] final -166.78 input  -60.55 | X-H torsion
[ 11005 11000 10999 10996 ] final -101.86 input  -57.11 | X-H torsion

> <Gold.Protein.ActiveResidues>
 VAL166  LYS551  ARG553  GLY616  TRP617  ASP618  TYR619  PRO620  LYS621  CYS622 
 ASP623  PHE694  ASN695  SER759  ASP760  ASP761  ALA762  ILE779  LEU786  VAL792 
 PHE793  MET794  SER795  GLU796  ALA797  LYS798  CYS799  TRP800  GLU811  SER814 

> <Gold.Protein.RotatedAtoms>
  150.9360  133.6711  159.2800 H   0  0  0  0  0  0  0  0  0  0  0  0  # atno 6907 bound_to 6896
  151.4116  135.0984  159.9596 H   0  0  0  0  0  0  0  0  0  0  0  0  # atno 6908 bound_to 6896
  152.5048  133.8832  159.7411 H   0  0  0  0  0  0  0  0  0  0  0  0  # atno 6909 bound_to 6896
  144.8027  140.5192  143.5696 H   0  0  0  0  0  0  0  0  0  0  0  0  # atno 7974 bound_to 7965
  156.2795  140.2743  156.1761 H   0  0  0  0  0  0  0  0  0  0  0  0  # atno 8008 bound_to 7997
  155.0605  140.0386  157.2593 H   0  0  0  0  0  0  0  0  0  0  0  0  # atno 8009 bound_to 7997
  154.7121  140.2671  155.6625 H   0  0  0  0  0  0  0  0  0  0  0  0  # atno 8010 bound_to 7997
  140.4695  143.2430  151.8226 H   0  0  0  0  0  0  0  0  0  0  0  0  # atno 10167 bound_to 10162
  157.2080  130.6921  149.6216 H   0  0  0  0  0  0  0  0  0  0  0  0  # atno 10718 bound_to 10713
  154.6798  135.2953  154.9628 H   0  0  0  0  0  0  0  0  0  0  0  0  # atno 10763 bound_to 10752
  154.0627  135.6629  153.4818 H   0  0  0  0  0  0  0  0  0  0  0  0  # atno 10764 bound_to 10752
  153.0540  135.5156  154.7836 H   0  0  0  0  0  0  0  0  0  0  0  0  # atno 10765 bound_to 10752
  141.1213  133.8512  157.1286 H   0  0  0  0  0  0  0  0  0  0  0  0  # atno 11005 bound_to 11000
  145.5513  139.1477  143.3392 LP  0  0  0  0  0  0  0  0  0  0  0  0  # atno 17320 bound_to 7965
  146.2312  140.5651  142.8974 LP  0  0  0  0  0  0  0  0  0  0  0  0  # atno 17321 bound_to 7965
  139.4816  144.4909  151.9186 LP  0  0  0  0  0  0  0  0  0  0  0  0  # atno 17342 bound_to 10162
  140.3994  144.2512  150.5894 LP  0  0  0  0  0  0  0  0  0  0  0  0  # atno 17343 bound_to 10162
  155.9693  130.4560  150.5910 LP  0  0  0  0  0  0  0  0  0  0  0  0  # atno 17370 bound_to 10713
  157.3701  131.0764  151.1565 LP  0  0  0  0  0  0  0  0  0  0  0  0  # atno 17371 bound_to 10713
  140.0173  134.9962  157.0520 LP  0  0  0  0  0  0  0  0  0  0  0  0  # atno 17394 bound_to 11000
  140.4498  134.1594  155.7180 LP  0  0  0  0  0  0  0  0  0  0  0  0  # atno 17395 bound_to 11000

$$$$
