AV-unprocessed.smi:1952|AV-procd|sdf|7883|dock4
  -GOLD-   2272010 33D 1   1.00000     0.00000
 Structure written by MMmdl.
 39 40  0  0  0  0  0  0  0  0  1 V2000
  152.3816  143.9638  161.5446 C   0  0  0  0  0  0  0  0  0  0  0  0
  152.0039  143.4195  160.2098 C   0  0  0  0  0  0  0  0  0  0  0  0
  150.9315  143.6290  159.3890 C   0  0  0  0  0  0  0  0  0  0  0  0
  151.2119  142.7922  158.2762 C   0  0  0  0  0  0  0  0  0  0  0  0
  150.3213  142.7242  157.1747 N   0  0  0  0  0  0  0  0  0  0  0  0
  150.1977  141.7277  156.2816 C   0  0  0  0  0  0  0  0  0  0  0  0
  150.8570  140.6879  156.2861 O   0  0  0  0  0  0  0  0  0  0  0  0
  149.2506  142.0065  155.3730 N   0  0  0  0  0  0  0  0  0  0  0  0
  148.8341  141.1348  154.2755 C   0  0  2  0  0  0  0  0  0  0  0  0
  147.6325  141.7699  153.5630 C   0  0  0  0  0  0  0  0  0  0  0  0
  148.4839  139.7295  154.8113 C   0  0  0  0  0  0  0  0  0  0  0  0
  149.6234  138.8601  155.1073 N   0  0  0  0  0  0  0  0  0  0  0  0
  149.2117  137.4635  155.1943 C   0  0  0  0  0  0  0  0  0  0  0  0
  150.3954  136.5354  155.5178 C   0  0  0  0  0  0  0  0  0  0  0  0
  151.4142  136.7017  154.5372 O   0  0  0  0  0  0  0  0  0  0  0  0
  151.8752  138.0459  154.4472 C   0  0  0  0  0  0  0  0  0  0  0  0
  150.6945  138.9759  154.1197 C   0  0  0  0  0  0  0  0  0  0  0  0
  152.3517  142.1307  158.4064 N   0  0  0  0  0  0  0  0  0  0  0  0
  152.8652  142.5296  159.6461 O   0  0  0  0  0  0  0  0  0  0  0  0
  151.5949  144.6061  161.9404 H   0  0  0  0  0  0  0  0  0  0  0  0
  153.2968  144.5521  161.4770 H   0  0  0  0  0  0  0  0  0  0  0  0
  152.5496  143.1567  162.2579 H   0  0  0  0  0  0  0  0  0  0  0  0
  150.0850  144.2774  159.5598 H   0  0  0  0  0  0  0  0  0  0  0  0
  149.7119  143.5194  157.0543 H   0  0  0  0  0  0  0  0  0  0  0  0
  148.7634  142.8866  155.4560 H   0  0  0  0  0  0  0  0  0  0  0  0
  149.6290  141.0556  153.5333 H   0  0  0  0  0  0  0  0  0  0  0  0
  147.3069  141.1559  152.7229 H   0  0  0  0  0  0  0  0  0  0  0  0
  147.8844  142.7558  153.1706 H   0  0  0  0  0  0  0  0  0  0  0  0
  146.7842  141.8864  154.2383 H   0  0  0  0  0  0  0  0  0  0  0  0
  147.8955  139.8597  155.7210 H   0  0  0  0  0  0  0  0  0  0  0  0
  147.8231  139.2278  154.1029 H   0  0  0  0  0  0  0  0  0  0  0  0
  148.4465  137.3499  155.9627 H   0  0  0  0  0  0  0  0  0  0  0  0
  148.7567  137.1524  154.2526 H   0  0  0  0  0  0  0  0  0  0  0  0
  150.7963  136.7517  156.5091 H   0  0  0  0  0  0  0  0  0  0  0  0
  150.0710  135.4948  155.5222 H   0  0  0  0  0  0  0  0  0  0  0  0
  152.3478  138.3400  155.3857 H   0  0  0  0  0  0  0  0  0  0  0  0
  152.6371  138.1110  153.6702 H   0  0  0  0  0  0  0  0  0  0  0  0
  150.3105  138.7367  153.1268 H   0  0  0  0  0  0  0  0  0  0  0  0
  151.0630  139.9995  154.0727 H   0  0  0  0  0  0  0  0  0  0  0  0
  1  2  1  0  0  0  0
  1 20  1  0  0  0  0
  1 21  1  0  0  0  0
  1 22  1  0  0  0  0
  2 19  1  0  0  0  0
  2  3  2  0  0  0  0
  3  4  1  0  0  0  0
  3 23  1  0  0  0  0
  4  5  1  0  0  0  0
  4 18  2  0  0  0  0
  5  6  1  0  0  0  0
  5 24  1  0  0  0  0
  6  7  2  0  0  0  0
  6  8  1  0  0  0  0
  8  9  1  0  0  0  0
  8 25  1  0  0  0  0
  9 10  1  0  0  0  0
  9 11  1  0  0  0  0
  9 26  1  0  0  0  0
 10 27  1  0  0  0  0
 10 28  1  0  0  0  0
 10 29  1  0  0  0  0
 11 12  1  0  0  0  0
 11 30  1  0  0  0  0
 11 31  1  0  0  0  0
 12 17  1  0  0  0  0
 12 13  1  0  0  0  0
 13 14  1  0  0  0  0
 13 32  1  0  0  0  0
 13 33  1  0  0  0  0
 14 15  1  0  0  0  0
 14 34  1  0  0  0  0
 14 35  1  0  0  0  0
 15 16  1  0  0  0  0
 16 17  1  0  0  0  0
 16 36  1  0  0  0  0
 16 37  1  0  0  0  0
 17 38  1  0  0  0  0
 17 39  1  0  0  0  0
 18 19  1  0  0  0  0
M  END
> <s_m_source_file>
AV-unprocessed.smi

> <i_m_source_file_index>
1952

> <i_lp_mmshare_version>
43012

> <i_f3d_flags>
0

> <s_epik_input>
W0NIM11jMVtjSF1jKG5vMSlbTkhdQyg9TylbTkhdW0NASF0oW0NIM10pW0NIMl1OMltDSDJdW0NIMl1PW0NIMl1bQ0gyXTI=

> <s_epik_cmdline>
J2VwaWtfcHl0aG9uJywgJy1waCcsICc3LjAnLCAnLXRuJywgJzgnLCAnLW1hJywgJzIwMCcsICctbWV0YWxfYmluZGluZycsICctaW1hZScsICc8aW5maWxlLm1hZT4nLCAnLW9tYWUnLCAnPG91dGZpbGUubWFlPic=

> <r_epik_Ionization_Penalty>
0.214075

> <r_epik_Ionization_Penalty_Charging>
0

> <r_epik_Ionization_Penalty_Neutral>
0.214075

> <r_epik_State_Penalty>
0.204211

> <r_epik_Charging_Adjusted_Penalty>
0.204211

> <i_epik_Tot_Q>
0

> <i_epik_Tot_abs_Q>
0

> <r_epik_Metal_State_Penalty>
0.218782

> <b_epik_Metal_Only>
0

> <s_lp_Force_Field>
OPLS_2005

> <r_lp_Energy>
23.1599

> <b_lp_Chiralities_Consistent>
1

> <s_lp_Variant>
AV-unprocessed.smi:1952-1

> <Gold.Version>
5.8.1

> <Gold.Id.Protein>
6NUR|6NUR_protein|mol2

> <Gold.PLP.Fitness>
41.0245

> <Gold.PLP.PLP>
-33.4905

> <Gold.PLP.part.hbond>
-3.0000

> <Gold.PLP.part.metal>
0.0000

> <Gold.PLP.part.buried>
-6.7359

> <Gold.PLP.part.nonpolar>
-23.9291

> <Gold.PLP.part.repulsive>
0.4225

> <Gold.PLP.ligand.clash>
0.0000

> <Gold.PLP.ligand.torsion>
0.5037

> <Gold.PLP.Chemscore.Hbond>
2.8400

> <Gold.PLP.Chemscore.CHOScore>
0.0000

> <Gold.PLP.Chemscore.Metal>
0.0000

> <Gold.Chemscore.Hbonds>
donor molecule, donor type, donor heavy atom, donor atom, acceptor molecule, acceptor atom, score
      L1  H     5    24       P1  8028  0.88
      L1  H     8    25       P1  8028  0.96
      P1  H 10752 10763       L1    15  1.00

> <Gold.PLP.Chemscore.Internal.Correction>
0.0214

> <Gold.Rescore>
     Score         DG    S(hbond)    S(metal)    S(lipo)     H(rot)  DE(clash)    DE(int)     intcor
     13.46     -19.42       2.59        0.00      79.31       1.56       0.22       5.74       ----

> <Gold.Chemscore.Fitness>
13.4600

> <Gold.Chemscore.DG>
-19.4199

> <Gold.Chemscore.ZeroCoef>
-5.4800

> <Gold.Chemscore.Hbond>
2.5907

> <Gold.Chemscore.Metal>
0.0000

> <Gold.Chemscore.Lipo>
79.3144

> <Gold.Chemscore.Internal_Hbond>
0.0000

> <Gold.Chemscore.DEClash>
0.2196

> <Gold.Chemscore.DEInternal>
5.7403

> <Gold.Chemscore.Rot>
1.5597

> <Gold.Chemscore.Internal.Correction>
   9.000000E+99

> <Gold.Chemscore.Hbonds>
donor molecule, donor type, donor heavy atom, donor atom, acceptor molecule, acceptor atom, score
      L1  H     5    24       P1  8028  0.80
      L1  H     8    25       P1  8028  0.92
      P1  H 10752 10763       L1    15  0.54

> <Gold.Chemscore.Hbond.Weighted>
-8.6529

> <Gold.Chemscore.Metal.Weighted>
-0.0000

> <Gold.Chemscore.Lipo.Weighted>
-9.2798

> <Gold.Chemscore.Internal_Hbond.Weighted>
0.0000

> <Gold.Chemscore.DEClash.Weighted>
0.2196

> <Gold.Chemscore.DEInternal.Weighted>
5.7403

> <Gold.Chemscore.Rot.Weighted>
3.9928

> <Gold.Chemscore.Internal.Correction.Weighted>
   9.000000E+99

> <Gold.Protein.RotatedTorsions>
[ 6907 6896 6895 6894 ] final  -13.79 input  -60.11 | X-H torsion
[ 7974 7965 7964 7962 ] final  103.67 input  175.53 | X-H torsion
[ 8008 7997 7996 7995 ] final  168.60 input   59.86 | X-H torsion
[ 10167 10162 10161 10158 ] final  111.69 input  -65.29 | X-H torsion
[ 10718 10713 10712 10709 ] final   59.79 input   66.30 | X-H torsion
[ 10763 10752 10751 10750 ] final   68.28 input  -60.55 | X-H torsion
[ 11005 11000 10999 10996 ] final  120.36 input  -57.11 | X-H torsion

> <Gold.Protein.ActiveResidues>
 VAL166  LYS551  ARG553  GLY616  TRP617  ASP618  TYR619  PRO620  LYS621  CYS622 
 ASP623  PHE694  ASN695  SER759  ASP760  ASP761  ALA762  ILE779  LEU786  VAL792 
 PHE793  MET794  SER795  GLU796  ALA797  LYS798  CYS799  TRP800  GLU811  SER814 

> <Gold.Protein.RotatedAtoms>
  151.3495  135.0881  159.9397 H   0  0  0  0  0  0  0  0  0  0  0  0  # atno 6907 bound_to 6896
  152.5191  133.9367  159.7617 H   0  0  0  0  0  0  0  0  0  0  0  0  # atno 6908 bound_to 6896
  150.9739  133.6261  159.2763 H   0  0  0  0  0  0  0  0  0  0  0  0  # atno 6909 bound_to 6896
  145.3429  139.2458  143.3600 H   0  0  0  0  0  0  0  0  0  0  0  0  # atno 7974 bound_to 7965
  156.1532  140.1586  156.8736 H   0  0  0  0  0  0  0  0  0  0  0  0  # atno 8008 bound_to 7997
  154.5090  140.0805  156.7989 H   0  0  0  0  0  0  0  0  0  0  0  0  # atno 8009 bound_to 7997
  155.3855  140.3407  155.4251 H   0  0  0  0  0  0  0  0  0  0  0  0  # atno 8010 bound_to 7997
  139.6592  144.7129  151.1898 H   0  0  0  0  0  0  0  0  0  0  0  0  # atno 10167 bound_to 10162
  157.5703  130.8902  149.9256 H   0  0  0  0  0  0  0  0  0  0  0  0  # atno 10718 bound_to 10713
  153.0228  135.5253  154.7110 H   0  0  0  0  0  0  0  0  0  0  0  0  # atno 10763 bound_to 10752
  154.6193  135.2887  155.0347 H   0  0  0  0  0  0  0  0  0  0  0  0  # atno 10764 bound_to 10752
  154.1339  135.6588  153.4980 H   0  0  0  0  0  0  0  0  0  0  0  0  # atno 10765 bound_to 10752
  139.9182  134.9634  156.7796 H   0  0  0  0  0  0  0  0  0  0  0  0  # atno 11005 bound_to 11000
  146.3000  140.4030  142.8707 LP  0  0  0  0  0  0  0  0  0  0  0  0  # atno 17320 bound_to 7965
  144.8776  140.7358  143.6007 LP  0  0  0  0  0  0  0  0  0  0  0  0  # atno 17321 bound_to 7965
  140.7572  143.6022  150.8689 LP  0  0  0  0  0  0  0  0  0  0  0  0  # atno 17342 bound_to 10162
  139.9678  143.6091  152.2983 LP  0  0  0  0  0  0  0  0  0  0  0  0  # atno 17343 bound_to 10162
  156.0749  130.3680  150.0698 LP  0  0  0  0  0  0  0  0  0  0  0  0  # atno 17370 bound_to 10713
  156.8852  130.9570  151.3595 LP  0  0  0  0  0  0  0  0  0  0  0  0  # atno 17371 bound_to 10713
  140.6555  133.9692  155.7777 LP  0  0  0  0  0  0  0  0  0  0  0  0  # atno 17394 bound_to 11000
  141.0679  134.0249  157.3568 LP  0  0  0  0  0  0  0  0  0  0  0  0  # atno 17395 bound_to 11000

$$$$
