AV-unprocessed.smi:480|AV-procd|sdf|2679|dock2
  -GOLD-   2262023103D 1   1.00000     0.00000
 Structure written by MMmdl.
 47 49  0  0  0  0  0  0  0  0  2 V2000
  147.7474  141.0348  154.7733 C   0  0  0  0  0  0  0  0  0  0  0  0
  149.2395  140.6952  154.6905 C   0  0  0  0  0  0  0  0  0  0  0  0
  150.0030  141.3026  155.8223 C   0  0  0  0  0  0  0  0  0  0  0  0
  149.9738  142.6156  156.1874 N   0  3  0  0  0  0  0  0  0  0  0  0
  150.8250  142.8235  157.2733 C   0  0  0  0  0  0  0  0  0  0  0  0
  151.1247  143.9785  157.9890 C   0  0  0  0  0  0  0  0  0  0  0  0
  152.0449  143.8449  159.0495 C   0  0  0  0  0  0  0  0  0  0  0  0
  152.6285  142.6000  159.3631 C   0  0  0  0  0  0  0  0  0  0  0  0
  152.3168  141.4359  158.6300 C   0  0  0  0  0  0  0  0  0  0  0  0
  151.4059  141.5772  157.5837 C   0  0  0  0  0  0  0  0  0  0  0  0
  150.8714  140.6693  156.6633 N   0  0  0  0  0  0  0  0  0  0  0  0
  151.2881  139.2592  156.7247 C   0  0  0  0  0  0  0  0  0  0  0  0
  151.9870  138.7817  155.4356 C   0  0  1  0  0  0  0  0  0  0  0  0
  153.3832  138.7464  155.6571 O   0  0  0  0  0  0  0  0  0  0  0  0
  151.5207  137.3784  155.0179 C   0  0  0  0  0  0  0  0  0  0  0  0
  151.8458  136.4603  156.0534 O   0  0  0  0  0  0  0  0  0  0  0  0
  151.3830  135.1659  155.9489 C   0  0  0  0  0  0  0  0  0  0  0  0
  150.4139  134.7383  155.0062 C   0  0  0  0  0  0  0  0  0  0  0  0
  150.0000  133.3923  154.9692 C   0  0  0  0  0  0  0  0  0  0  0  0
  150.5448  132.4565  155.8702 C   0  0  0  0  0  0  0  0  0  0  0  0
  150.1008  131.0089  155.8284 C   0  0  0  0  0  0  0  0  0  0  0  0
  151.2229  130.0945  155.5681 C   0  0  0  0  0  0  0  0  0  0  0  0
  152.1055  129.3750  155.3636 N   0  0  0  0  0  0  0  0  0  0  0  0
  151.5075  132.8742  156.8094 C   0  0  0  0  0  0  0  0  0  0  0  0
  151.9210  134.2199  156.8455 C   0  0  0  0  0  0  0  0  0  0  0  0
  147.2006  140.5862  153.9437 H   0  0  0  0  0  0  0  0  0  0  0  0
  147.5846  142.1124  154.7345 H   0  0  0  0  0  0  0  0  0  0  0  0
  147.3099  140.6631  155.7005 H   0  0  0  0  0  0  0  0  0  0  0  0
  149.3771  139.6136  154.7077 H   0  0  0  0  0  0  0  0  0  0  0  0
  149.6532  141.0464  153.7450 H   0  0  0  0  0  0  0  0  0  0  0  0
  150.6790  144.9331  157.7506 H   0  0  0  0  0  0  0  0  0  0  0  0
  152.3086  144.7147  159.6337 H   0  0  0  0  0  0  0  0  0  0  0  0
  153.3294  142.5362  160.1830 H   0  0  0  0  0  0  0  0  0  0  0  0
  152.7682  140.4867  158.8783 H   0  0  0  0  0  0  0  0  0  0  0  0
  151.9529  139.1435  157.5814 H   0  0  0  0  0  0  0  0  0  0  0  0
  150.4080  138.6516  156.9392 H   0  0  0  0  0  0  0  0  0  0  0  0
  151.7773  139.4882  154.6320 H   0  0  0  0  0  0  0  0  0  0  0  0
  153.6906  137.8691  155.4860 H   0  0  0  0  0  0  0  0  0  0  0  0
  150.4521  137.3747  154.7938 H   0  0  0  0  0  0  0  0  0  0  0  0
  152.0529  137.0776  154.1141 H   0  0  0  0  0  0  0  0  0  0  0  0
  149.9726  135.4232  154.2982 H   0  0  0  0  0  0  0  0  0  0  0  0
  149.2625  133.0799  154.2445 H   0  0  0  0  0  0  0  0  0  0  0  0
  149.6425  130.7313  156.7780 H   0  0  0  0  0  0  0  0  0  0  0  0
  149.3520  130.8669  155.0488 H   0  0  0  0  0  0  0  0  0  0  0  0
  151.9323  132.1636  157.5032 H   0  0  0  0  0  0  0  0  0  0  0  0
  152.6607  134.5289  157.5695 H   0  0  0  0  0  0  0  0  0  0  0  0
  149.4103  143.3168  155.7242 H   0  0  0  0  0  0  0  0  0  0  0  0
  1  2  1  0  0  0  0
  1 26  1  0  0  0  0
  1 27  1  0  0  0  0
  1 28  1  0  0  0  0
  2  3  1  0  0  0  0
  2 29  1  0  0  0  0
  2 30  1  0  0  0  0
  3 11  1  0  0  0  0
  3  4  2  0  0  0  0
  4  5  1  0  0  0  0
  4 47  1  0  0  0  0
  5 10  2  0  0  0  0
  5  6  1  0  0  0  0
  6  7  2  0  0  0  0
  6 31  1  0  0  0  0
  7  8  1  0  0  0  0
  7 32  1  0  0  0  0
  8  9  2  0  0  0  0
  8 33  1  0  0  0  0
  9 10  1  0  0  0  0
  9 34  1  0  0  0  0
 10 11  1  0  0  0  0
 11 12  1  0  0  0  0
 12 13  1  0  0  0  0
 12 35  1  0  0  0  0
 12 36  1  0  0  0  0
 13 14  1  0  0  0  0
 13 15  1  0  0  0  0
 13 37  1  0  0  0  0
 14 38  1  0  0  0  0
 15 16  1  0  0  0  0
 15 39  1  0  0  0  0
 15 40  1  0  0  0  0
 16 17  1  0  0  0  0
 17 25  1  0  0  0  0
 17 18  2  0  0  0  0
 18 19  1  0  0  0  0
 18 41  1  0  0  0  0
 19 20  2  0  0  0  0
 19 42  1  0  0  0  0
 20 21  1  0  0  0  0
 20 24  1  0  0  0  0
 21 22  1  0  0  0  0
 21 43  1  0  0  0  0
 21 44  1  0  0  0  0
 22 23  3  0  0  0  0
 24 25  2  0  0  0  0
 24 45  1  0  0  0  0
 25 46  1  0  0  0  0
M  CHG  1   4   1
M  END
> <s_m_source_file>
AV-unprocessed.smi

> <i_m_source_file_index>
480

> <i_lp_mmshare_version>
43012

> <i_f3d_flags>
0

> <s_epik_input>
W2NIXTFbY0hdW2NIXVtjSF1jKGMxMiluKGMobjIpW0NIMl1bQ0gzXSlbQ0gyXVtDQEhdKFtPSF0pW0NIMl1PYzNbY0hdW2NIXWMoW0NIMl1DI04pW2NIXVtjSF0z

> <s_epik_cmdline>
J2VwaWtfcHl0aG9uJywgJy1waCcsICc3LjAnLCAnLXRuJywgJzgnLCAnLW1hJywgJzIwMCcsICctbWV0YWxfYmluZGluZycsICctaW1hZScsICc8aW5maWxlLm1hZT4nLCAnLW9tYWUnLCAnPG91dGZpbGUubWFlPic=

> <r_lp_tautomer_probability>
1

> <r_epik_Ionization_Penalty>
1.03158

> <r_epik_Ionization_Penalty_Charging>
1.03158

> <r_epik_Ionization_Penalty_Neutral>
2.3994e-06

> <r_epik_State_Penalty>
1.08278

> <r_epik_Charging_Adjusted_Penalty>
2.11436

> <i_epik_Tot_Q>
1

> <i_epik_Tot_abs_Q>
1

> <r_epik_Metal_State_Penalty>
5.07177

> <b_epik_Metal_Only>
0

> <s_lp_Force_Field>
OPLS_2005

> <r_lp_Energy>
21.7936

> <b_lp_Chiralities_Consistent>
1

> <s_lp_Variant>
AV-unprocessed.smi:480-4

> <Gold.Version>
5.8.1

> <Gold.Id.Protein>
6NUR|6NUR_protein|mol2

> <Gold.PLP.Fitness>
61.0570

> <Gold.PLP.PLP>
-53.0753

> <Gold.PLP.part.hbond>
-2.9590

> <Gold.PLP.part.metal>
0.0000

> <Gold.PLP.part.buried>
-3.3667

> <Gold.PLP.part.nonpolar>
-46.7026

> <Gold.PLP.part.repulsive>
0.2487

> <Gold.PLP.ligand.clash>
0.0000

> <Gold.PLP.ligand.torsion>
0.8066

> <Gold.PLP.Chemscore.Hbond>
3.0331

> <Gold.PLP.Chemscore.CHOScore>
0.0000

> <Gold.PLP.Chemscore.Metal>
0.0000

> <Gold.Chemscore.Hbonds>
donor molecule, donor type, donor heavy atom, donor atom, acceptor molecule, acceptor atom, score
      L1  H     4    47       P1  8028  1.85
      P1  H  7997  8008       L1    14  0.96

> <Gold.PLP.Chemscore.Internal.Correction>
0.4956

> <Gold.Rescore>
     Score         DG    S(hbond)    S(metal)    S(lipo)     H(rot)  DE(clash)    DE(int)     intcor
     18.62     -19.67       1.67        0.00     131.90       2.67       0.14       0.91       ----

> <Gold.Chemscore.Fitness>
18.6208

> <Gold.Chemscore.DG>
-19.6663

> <Gold.Chemscore.ZeroCoef>
-5.4800

> <Gold.Chemscore.Hbond>
1.6743

> <Gold.Chemscore.Metal>
0.0000

> <Gold.Chemscore.Lipo>
131.8962

> <Gold.Chemscore.Internal_Hbond>
0.0000

> <Gold.Chemscore.DEClash>
0.1378

> <Gold.Chemscore.DEInternal>
0.9078

> <Gold.Chemscore.Rot>
2.6710

> <Gold.Chemscore.Internal.Correction>
   9.000000E+99

> <Gold.Chemscore.Hbonds>
donor molecule, donor type, donor heavy atom, donor atom, acceptor molecule, acceptor atom, score
      L1  H     4    47       P1  8028  0.84
      P1  H  7997  8008       L1    14  0.92

> <Gold.Chemscore.Hbond.Weighted>
-5.5922

> <Gold.Chemscore.Metal.Weighted>
-0.0000

> <Gold.Chemscore.Lipo.Weighted>
-15.4319

> <Gold.Chemscore.Internal_Hbond.Weighted>
0.0000

> <Gold.Chemscore.DEClash.Weighted>
0.1378

> <Gold.Chemscore.DEInternal.Weighted>
0.9078

> <Gold.Chemscore.Rot.Weighted>
6.8377

> <Gold.Chemscore.Internal.Correction.Weighted>
   9.000000E+99

> <Gold.Protein.RotatedTorsions>
[ 6907 6896 6895 6894 ] final  127.18 input  -60.11 | X-H torsion
[ 7974 7965 7964 7962 ] final  -14.01 input  175.53 | X-H torsion
[ 8008 7997 7996 7995 ] final  -35.21 input   59.86 | X-H torsion
[ 10167 10162 10161 10158 ] final   64.60 input  -65.29 | X-H torsion
[ 10718 10713 10712 10709 ] final  -44.68 input   66.30 | X-H torsion
[ 10763 10752 10751 10750 ] final   99.39 input  -60.55 | X-H torsion
[ 11005 11000 10999 10996 ] final  -70.47 input  -57.11 | X-H torsion

> <Gold.Protein.ActiveResidues>
 VAL166  LYS551  ARG553  GLY616  TRP617  ASP618  TYR619  PRO620  LYS621  CYS622 
 ASP623  PHE694  ASN695  SER759  ASP760  ASP761  ALA762  ILE779  LEU786  VAL792 
 PHE793  MET794  SER795  GLU796  ALA797  LYS798  CYS799  TRP800  GLU811  SER814 

> <Gold.Protein.RotatedAtoms>
  152.3836  133.6580  159.6180 H   0  0  0  0  0  0  0  0  0  0  0  0  # atno 6907 bound_to 6896
  150.7760  133.9073  159.3368 H   0  0  0  0  0  0  0  0  0  0  0  0  # atno 6908 bound_to 6896
  151.6874  135.0953  160.0278 H   0  0  0  0  0  0  0  0  0  0  0  0  # atno 6909 bound_to 6896
  146.2091  140.3287  142.8397 H   0  0  0  0  0  0  0  0  0  0  0  0  # atno 7974 bound_to 7965
  154.4101  140.1663  156.2174 H   0  0  0  0  0  0  0  0  0  0  0  0  # atno 8008 bound_to 7997
  155.9393  140.3409  155.6290 H   0  0  0  0  0  0  0  0  0  0  0  0  # atno 8009 bound_to 7997
  155.7009  140.0745  157.2401 H   0  0  0  0  0  0  0  0  0  0  0  0  # atno 8010 bound_to 7997
  140.1204  144.4736  150.6924 H   0  0  0  0  0  0  0  0  0  0  0  0  # atno 10167 bound_to 10162
  156.2361  130.4176  149.8816 H   0  0  0  0  0  0  0  0  0  0  0  0  # atno 10718 bound_to 10713
  153.3009  135.4115  155.1251 H   0  0  0  0  0  0  0  0  0  0  0  0  # atno 10763 bound_to 10752
  154.8549  135.3541  154.5853 H   0  0  0  0  0  0  0  0  0  0  0  0  # atno 10764 bound_to 10752
  153.6279  135.7062  153.5344 H   0  0  0  0  0  0  0  0  0  0  0  0  # atno 10765 bound_to 10752
  141.1574  133.6791  156.6757 H   0  0  0  0  0  0  0  0  0  0  0  0  # atno 11005 bound_to 11000
  144.8868  140.7472  143.5952 LP  0  0  0  0  0  0  0  0  0  0  0  0  # atno 17320 bound_to 7965
  145.3208  139.1789  143.4589 LP  0  0  0  0  0  0  0  0  0  0  0  0  # atno 17321 bound_to 7965
  140.6875  143.2358  151.5221 LP  0  0  0  0  0  0  0  0  0  0  0  0  # atno 17342 bound_to 10162
  139.5571  144.2247  152.1631 LP  0  0  0  0  0  0  0  0  0  0  0  0  # atno 17343 bound_to 10162
  156.6414  130.8706  151.3514 LP  0  0  0  0  0  0  0  0  0  0  0  0  # atno 17370 bound_to 10713
  157.7155  130.9492  150.1239 LP  0  0  0  0  0  0  0  0  0  0  0  0  # atno 17371 bound_to 10713
  140.3141  134.8062  157.4199 LP  0  0  0  0  0  0  0  0  0  0  0  0  # atno 17394 bound_to 11000
  140.1153  134.5291  155.8230 LP  0  0  0  0  0  0  0  0  0  0  0  0  # atno 17395 bound_to 11000

$$$$
