AV-unprocessed.smi:3348|AV-procd|sdf|12922|dock6
  -GOLD-   2272019343D 1   1.00000     0.00000
 Structure written by MMmdl.
 47 48  0  0  0  0  0  0  0  0  2 V2000
  149.4262  139.9161  154.1256 C   0  0  0  0  0  0  0  0  0  0  0  0
  148.3697  140.9163  154.6235 C   0  0  1  0  0  0  0  0  0  0  0  0
  147.2309  140.1824  155.3617 C   0  0  0  0  0  0  0  0  0  0  0  0
  146.0199  140.9781  155.4830 N   0  0  0  0  0  0  0  0  0  0  0  0
  145.6439  142.0803  154.7439 C   0  0  0  0  0  0  0  0  0  0  0  0
  144.4420  142.5072  155.2310 C   0  0  0  0  0  0  0  0  0  0  0  0
  144.1652  141.5999  156.2913 C   0  0  0  0  0  0  0  0  0  0  0  0
  145.1136  140.6895  156.4425 N   0  0  0  0  0  0  0  0  0  0  0  0
  148.9777  141.9347  155.5100 N   0  3  0  0  0  0  0  0  0  0  0  0
  149.4063  141.4443  156.8364 C   0  0  0  0  0  0  0  0  0  0  0  0
  150.9108  141.1594  156.8513 C   0  0  0  0  0  0  0  0  0  0  0  0
  151.3834  141.3095  158.1817 O   0  0  0  0  0  0  0  0  0  0  0  0
  151.7504  142.6382  158.5331 C   0  0  1  0  0  0  0  0  0  0  0  0
  150.4797  143.4869  158.7530 C   0  0  0  0  0  0  0  0  0  0  0  0
  150.8219  144.8927  159.2677 C   0  0  0  0  0  0  0  0  0  0  0  0
  151.6583  144.8207  160.5524 C   0  0  0  0  0  0  0  0  0  0  0  0
  152.9286  143.9850  160.3359 C   0  0  0  0  0  0  0  0  0  0  0  0
  152.6014  142.5689  159.8213 C   0  0  2  0  0  0  0  0  0  0  0  0
  153.8909  141.7589  159.6090 C   0  0  0  0  0  0  0  0  0  0  0  0
  148.9719  139.1531  153.4928 H   0  0  0  0  0  0  0  0  0  0  0  0
  149.9146  139.4072  154.9573 H   0  0  0  0  0  0  0  0  0  0  0  0
  150.1995  140.4037  153.5325 H   0  0  0  0  0  0  0  0  0  0  0  0
  147.9448  141.4235  153.7561 H   0  0  0  0  0  0  0  0  0  0  0  0
  146.9739  139.2611  154.8372 H   0  0  0  0  0  0  0  0  0  0  0  0
  147.5553  139.8908  156.3619 H   0  0  0  0  0  0  0  0  0  0  0  0
  146.2550  142.4655  153.9407 H   0  0  0  0  0  0  0  0  0  0  0  0
  143.8532  143.3448  154.8874 H   0  0  0  0  0  0  0  0  0  0  0  0
  143.3115  141.5776  156.9525 H   0  0  0  0  0  0  0  0  0  0  0  0
  149.8009  142.2886  155.0433 H   0  0  0  0  0  0  0  0  0  0  0  0
  149.1587  142.1687  157.6122 H   0  0  0  0  0  0  0  0  0  0  0  0
  148.8623  140.5271  157.0653 H   0  0  0  0  0  0  0  0  0  0  0  0
  151.0903  140.1376  156.5137 H   0  0  0  0  0  0  0  0  0  0  0  0
  151.4297  141.8276  156.1637 H   0  0  0  0  0  0  0  0  0  0  0  0
  152.3574  143.0836  157.7425 H   0  0  0  0  0  0  0  0  0  0  0  0
  149.9102  143.5757  157.8284 H   0  0  0  0  0  0  0  0  0  0  0  0
  149.8269  142.9883  159.4703 H   0  0  0  0  0  0  0  0  0  0  0  0
  151.3734  145.4390  158.5013 H   0  0  0  0  0  0  0  0  0  0  0  0
  149.9062  145.4555  159.4512 H   0  0  0  0  0  0  0  0  0  0  0  0
  151.9259  145.8260  160.8790 H   0  0  0  0  0  0  0  0  0  0  0  0
  151.0629  144.3826  161.3545 H   0  0  0  0  0  0  0  0  0  0  0  0
  153.5793  144.4946  159.6239 H   0  0  0  0  0  0  0  0  0  0  0  0
  153.4854  143.9230  161.2715 H   0  0  0  0  0  0  0  0  0  0  0  0
  152.0149  142.0626  160.5896 H   0  0  0  0  0  0  0  0  0  0  0  0
  154.5111  142.1986  158.8273 H   0  0  0  0  0  0  0  0  0  0  0  0
  153.6721  140.7305  159.3207 H   0  0  0  0  0  0  0  0  0  0  0  0
  154.4851  141.7211  160.5223 H   0  0  0  0  0  0  0  0  0  0  0  0
  148.3268  142.6975  155.6320 H   0  0  0  0  0  0  0  0  0  0  0  0
  1  2  1  0  0  0  0
  1 20  1  0  0  0  0
  1 21  1  0  0  0  0
  1 22  1  0  0  0  0
  2  3  1  0  0  0  0
  2  9  1  0  0  0  0
  2 23  1  0  0  0  0
  3  4  1  0  0  0  0
  3 24  1  0  0  0  0
  3 25  1  0  0  0  0
  4  8  1  0  0  0  0
  4  5  1  0  0  0  0
  5  6  2  0  0  0  0
  5 26  1  0  0  0  0
  6  7  1  0  0  0  0
  6 27  1  0  0  0  0
  7  8  2  0  0  0  0
  7 28  1  0  0  0  0
  9 10  1  0  0  0  0
  9 29  1  0  0  0  0
  9 47  1  0  0  0  0
 10 11  1  0  0  0  0
 10 30  1  0  0  0  0
 10 31  1  0  0  0  0
 11 12  1  0  0  0  0
 11 32  1  0  0  0  0
 11 33  1  0  0  0  0
 12 13  1  0  0  0  0
 13 18  1  0  0  0  0
 13 14  1  0  0  0  0
 13 34  1  0  0  0  0
 14 15  1  0  0  0  0
 14 35  1  0  0  0  0
 14 36  1  0  0  0  0
 15 16  1  0  0  0  0
 15 37  1  0  0  0  0
 15 38  1  0  0  0  0
 16 17  1  0  0  0  0
 16 39  1  0  0  0  0
 16 40  1  0  0  0  0
 17 18  1  0  0  0  0
 17 41  1  0  0  0  0
 17 42  1  0  0  0  0
 18 19  1  0  0  0  0
 18 43  1  0  0  0  0
 19 44  1  0  0  0  0
 19 45  1  0  0  0  0
 19 46  1  0  0  0  0
M  CHG  1   9   1
M  END
> <s_m_source_file>
AV-unprocessed.smi

> <i_m_source_file_index>
3348

> <i_lp_mmshare_version>
43012

> <i_f3d_flags>
0

> <s_epik_input>
bjFbY0hdW2NIXVtjSF1uMVtDSDJdW0NAQEhdKFtDSDNdKVtOSF1bQ0gyXVtDSDJdT1tDQEBIXTJbQ0gyXVtDSDJdW0NIMl1bQ0gyXVtDQEhdMltDSDNd

> <s_epik_cmdline>
J2VwaWtfcHl0aG9uJywgJy1waCcsICc3LjAnLCAnLXRuJywgJzgnLCAnLW1hJywgJzIwMCcsICctbWV0YWxfYmluZGluZycsICctaW1hZScsICc8aW5maWxlLm1hZT4nLCAnLW9tYWUnLCAnPG91dGZpbGUubWFlPic=

> <r_lp_tautomer_probability>
1

> <r_epik_Ionization_Penalty>
0.00925088

> <r_epik_Ionization_Penalty_Charging>
0.00924645

> <r_epik_Ionization_Penalty_Neutral>
4.42413e-06

> <r_epik_State_Penalty>
0.0070118

> <r_epik_Charging_Adjusted_Penalty>
0.0162583

> <i_epik_Tot_Q>
1

> <i_epik_Tot_abs_Q>
1

> <r_epik_Metal_State_Penalty>
0.00701222

> <b_epik_Metal_Only>
0

> <s_lp_Force_Field>
OPLS_2005

> <r_lp_Energy>
15.644

> <b_lp_Chiralities_Consistent>
1

> <s_lp_Variant>
AV-unprocessed.smi:3348-8

> <Gold.Version>
5.8.1

> <Gold.Id.Protein>
6NUR|6NUR_protein|mol2

> <Gold.PLP.Fitness>
47.1253

> <Gold.PLP.PLP>
-43.3307

> <Gold.PLP.part.hbond>
-1.0000

> <Gold.PLP.part.metal>
0.0000

> <Gold.PLP.part.buried>
-6.7661

> <Gold.PLP.part.nonpolar>
-35.7780

> <Gold.PLP.part.repulsive>
0.3280

> <Gold.PLP.ligand.clash>
0.0113

> <Gold.PLP.ligand.torsion>
1.1713

> <Gold.PLP.Chemscore.Hbond>
2.0000

> <Gold.PLP.Chemscore.CHOScore>
0.0000

> <Gold.PLP.Chemscore.Metal>
0.0000

> <Gold.Chemscore.Hbonds>
donor molecule, donor type, donor heavy atom, donor atom, acceptor molecule, acceptor atom, score
      L1  H     9    47       P1  8028  0.85

> <Gold.PLP.Chemscore.Internal.Correction>
0.1485

> <Gold.Rescore>
     Score         DG    S(hbond)    S(metal)    S(lipo)     H(rot)  DE(clash)    DE(int)     intcor
     16.44     -17.81       0.99        0.00     117.04       1.82       0.05       1.33       ----

> <Gold.Chemscore.Fitness>
16.4389

> <Gold.Chemscore.DG>
-17.8143

> <Gold.Chemscore.ZeroCoef>
-5.4800

> <Gold.Chemscore.Hbond>
0.9850

> <Gold.Chemscore.Metal>
0.0000

> <Gold.Chemscore.Lipo>
117.0428

> <Gold.Chemscore.Internal_Hbond>
0.0000

> <Gold.Chemscore.DEClash>
0.0494

> <Gold.Chemscore.DEInternal>
1.3260

> <Gold.Chemscore.Rot>
1.8163

> <Gold.Chemscore.Internal.Correction>
   9.000000E+99

> <Gold.Chemscore.Hbonds>
donor molecule, donor type, donor heavy atom, donor atom, acceptor molecule, acceptor atom, score
      L1  H     9    47       P1  8028  0.41

> <Gold.Chemscore.Hbond.Weighted>
-3.2901

> <Gold.Chemscore.Metal.Weighted>
-0.0000

> <Gold.Chemscore.Lipo.Weighted>
-13.6940

> <Gold.Chemscore.Internal_Hbond.Weighted>
0.0000

> <Gold.Chemscore.DEClash.Weighted>
0.0494

> <Gold.Chemscore.DEInternal.Weighted>
1.3260

> <Gold.Chemscore.Rot.Weighted>
4.6497

> <Gold.Chemscore.Internal.Correction.Weighted>
   9.000000E+99

> <Gold.Protein.RotatedTorsions>
[ 6907 6896 6895 6894 ] final -104.48 input  -60.11 | X-H torsion
[ 7974 7965 7964 7962 ] final   41.82 input  175.53 | X-H torsion
[ 8008 7997 7996 7995 ] final   14.05 input   59.86 | X-H torsion
[ 10167 10162 10161 10158 ] final  -57.52 input  -65.29 | X-H torsion
[ 10718 10713 10712 10709 ] final  -94.33 input   66.30 | X-H torsion
[ 10763 10752 10751 10750 ] final  -92.98 input  -60.55 | X-H torsion
[ 11005 11000 10999 10996 ] final -169.31 input  -57.11 | X-H torsion

> <Gold.Protein.ActiveResidues>
 VAL166  LYS551  ARG553  GLY616  TRP617  ASP618  TYR619  PRO620  LYS621  CYS622 
 ASP623  PHE694  ASN695  SER759  ASP760  ASP761  ALA762  ILE779  LEU786  VAL792 
 PHE793  MET794  SER795  GLU796  ALA797  LYS798  CYS799  TRP800  GLU811  SER814 

> <Gold.Protein.RotatedAtoms>
  150.7289  134.0271  159.3720 H   0  0  0  0  0  0  0  0  0  0  0  0  # atno 6907 bound_to 6896
  151.8239  135.0641  160.0438 H   0  0  0  0  0  0  0  0  0  0  0  0  # atno 6908 bound_to 6896
  152.2983  133.5594  159.5638 H   0  0  0  0  0  0  0  0  0  0  0  0  # atno 6909 bound_to 6896
  146.0791  139.5371  142.9548 H   0  0  0  0  0  0  0  0  0  0  0  0  # atno 7974 bound_to 7965
  154.8430  140.2917  155.5647 H   0  0  0  0  0  0  0  0  0  0  0  0  # atno 8008 bound_to 7997
  156.3013  140.2510  156.3307 H   0  0  0  0  0  0  0  0  0  0  0  0  # atno 8009 bound_to 7997
  154.9105  140.0388  157.1932 H   0  0  0  0  0  0  0  0  0  0  0  0  # atno 8010 bound_to 7997
  140.6253  143.2436  151.5379 H   0  0  0  0  0  0  0  0  0  0  0  0  # atno 10167 bound_to 10162
  156.0025  130.5063  150.5910 H   0  0  0  0  0  0  0  0  0  0  0  0  # atno 10718 bound_to 10713
  154.6914  135.5211  153.8398 H   0  0  0  0  0  0  0  0  0  0  0  0  # atno 10763 bound_to 10752
  153.0635  135.6576  154.0417 H   0  0  0  0  0  0  0  0  0  0  0  0  # atno 10764 bound_to 10752
  154.0291  135.2987  155.3350 H   0  0  0  0  0  0  0  0  0  0  0  0  # atno 10765 bound_to 10752
  140.5322  134.5605  157.5078 H   0  0  0  0  0  0  0  0  0  0  0  0  # atno 11005 bound_to 11000
  145.6250  141.0315  143.1894 LP  0  0  0  0  0  0  0  0  0  0  0  0  # atno 17320 bound_to 7965
  144.7281  139.7810  143.7357 LP  0  0  0  0  0  0  0  0  0  0  0  0  # atno 17321 bound_to 7965
  139.5474  144.2484  152.1468 LP  0  0  0  0  0  0  0  0  0  0  0  0  # atno 17342 bound_to 10162
  140.1714  144.4932  150.6577 LP  0  0  0  0  0  0  0  0  0  0  0  0  # atno 17343 bound_to 10162
  157.3775  131.0775  151.1506 LP  0  0  0  0  0  0  0  0  0  0  0  0  # atno 17370 bound_to 10713
  157.2239  130.6494  149.5822 LP  0  0  0  0  0  0  0  0  0  0  0  0  # atno 17371 bound_to 10713
  139.9548  134.7554  156.0366 LP  0  0  0  0  0  0  0  0  0  0  0  0  # atno 17394 bound_to 11000
  141.1275  133.6595  156.3375 LP  0  0  0  0  0  0  0  0  0  0  0  0  # atno 17395 bound_to 11000

$$$$
