AV-unprocessed.smi:1867|AV-procd|sdf|7575|dock3
  -GOLD-   22720 9283D 1   1.00000     0.00000
 Structure written by MMmdl.
 53 56  0  0  0  0  0  0  0  0  3 V2000
  146.7060  139.7711  153.5884 O   0  0  0  0  0  0  0  0  0  0  0  0
  147.6288  139.0673  153.1872 C   0  0  0  0  0  0  0  0  0  0  0  0
  148.9052  139.1471  153.6149 N   0  0  0  0  0  0  0  0  0  0  0  0
  149.4882  140.0406  154.5561 C   0  0  0  0  0  0  0  0  0  0  0  0
  150.5525  139.5494  155.3434 C   0  0  0  0  0  0  0  0  0  0  0  0
  151.1711  140.3887  156.2924 C   0  0  0  0  0  0  0  0  0  0  0  0
  150.7132  141.7176  156.4451 C   0  0  0  0  0  0  0  0  0  0  0  0
  151.2605  142.6338  157.3542 N   0  0  0  0  0  0  0  0  0  0  0  0
  152.2094  142.0706  158.3003 C   0  0  0  0  0  0  0  0  0  0  0  0
  152.3432  143.1107  159.4155 C   0  0  0  0  0  0  0  0  0  0  0  0
  151.0690  143.9582  159.3188 C   0  0  0  0  0  0  0  0  0  0  0  0
  150.2833  143.3572  158.1501 C   0  0  0  0  0  0  0  0  0  0  0  0
  149.6864  142.1486  155.6814 N   0  3  0  0  0  0  0  0  0  0  0  0
  149.0661  141.3778  154.7616 C   0  0  0  0  0  0  0  0  0  0  0  0
  147.4189  138.1225  152.2536 N   0  0  0  0  0  0  0  0  0  0  0  0
  146.1656  137.7743  151.5837 C   0  0  1  0  0  0  0  0  0  0  0  0
  146.3109  136.6767  150.5114 C   0  0  0  0  0  0  0  0  0  0  0  0
  145.0512  135.7979  150.6519 C   0  0  0  0  0  0  0  0  0  0  0  0
  144.2232  136.4632  151.6759 N   0  3  1  0  0  0  0  0  0  0  0  0
  143.2551  135.6233  152.4146 C   0  0  0  0  0  0  0  0  0  0  0  0
  142.4397  136.5134  153.3748 C   0  0  0  0  0  0  0  0  0  0  0  0
  143.3515  137.3559  154.2910 C   0  0  0  0  0  0  0  0  0  0  0  0
  144.3990  138.1339  153.4713 C   0  0  0  0  0  0  0  0  0  0  0  0
  145.1666  137.1597  152.5631 C   0  0  2  0  0  0  0  0  0  0  0  0
  149.5505  138.5054  153.1786 H   0  0  0  0  0  0  0  0  0  0  0  0
  150.8996  138.5335  155.2214 H   0  0  0  0  0  0  0  0  0  0  0  0
  151.9864  140.0117  156.8928 H   0  0  0  0  0  0  0  0  0  0  0  0
  151.8369  141.1305  158.7089 H   0  0  0  0  0  0  0  0  0  0  0  0
  153.1688  141.8716  157.8216 H   0  0  0  0  0  0  0  0  0  0  0  0
  152.4558  142.6393  160.3924 H   0  0  0  0  0  0  0  0  0  0  0  0
  153.2193  143.7377  159.2464 H   0  0  0  0  0  0  0  0  0  0  0  0
  150.4887  143.9428  160.2419 H   0  0  0  0  0  0  0  0  0  0  0  0
  151.3295  144.9961  159.1076 H   0  0  0  0  0  0  0  0  0  0  0  0
  149.7911  144.1302  157.5593 H   0  0  0  0  0  0  0  0  0  0  0  0
  149.5151  142.6786  158.5233 H   0  0  0  0  0  0  0  0  0  0  0  0
  148.2612  141.8712  154.2399 H   0  0  0  0  0  0  0  0  0  0  0  0
  148.2219  137.5658  151.9968 H   0  0  0  0  0  0  0  0  0  0  0  0
  145.7104  138.6609  151.1372 H   0  0  0  0  0  0  0  0  0  0  0  0
  146.3937  137.1103  149.5141 H   0  0  0  0  0  0  0  0  0  0  0  0
  147.2029  136.0710  150.6796 H   0  0  0  0  0  0  0  0  0  0  0  0
  144.5029  135.7013  149.7143 H   0  0  0  0  0  0  0  0  0  0  0  0
  145.3290  134.7973  150.9871 H   0  0  0  0  0  0  0  0  0  0  0  0
  142.5909  135.1229  151.7092 H   0  0  0  0  0  0  0  0  0  0  0  0
  143.7832  134.8462  152.9694 H   0  0  0  0  0  0  0  0  0  0  0  0
  141.8023  137.1805  152.7928 H   0  0  0  0  0  0  0  0  0  0  0  0
  141.7709  135.8981  153.9774 H   0  0  0  0  0  0  0  0  0  0  0  0
  142.7521  138.0457  154.8858 H   0  0  0  0  0  0  0  0  0  0  0  0
  143.8594  136.6991  154.9986 H   0  0  0  0  0  0  0  0  0  0  0  0
  143.9058  138.9000  152.8713 H   0  0  0  0  0  0  0  0  0  0  0  0
  145.0881  138.6528  154.1385 H   0  0  0  0  0  0  0  0  0  0  0  0
  145.6776  136.4147  153.1779 H   0  0  0  0  0  0  0  0  0  0  0  0
  143.6964  137.1804  151.1984 H   0  0  0  0  0  0  0  0  0  0  0  0
  149.3617  143.1078  155.8046 H   0  0  0  0  0  0  0  0  0  0  0  0
  1  2  2  0  0  0  0
  2  3  1  0  0  0  0
  2 15  1  0  0  0  0
  3  4  1  0  0  0  0
  3 25  1  0  0  0  0
  4 14  1  0  0  0  0
  4  5  2  0  0  0  0
  5  6  1  0  0  0  0
  5 26  1  0  0  0  0
  6  7  2  0  0  0  0
  6 27  1  0  0  0  0
  7  8  1  0  0  0  0
  7 13  1  0  0  0  0
  8 12  1  0  0  0  0
  8  9  1  0  0  0  0
  9 10  1  0  0  0  0
  9 28  1  0  0  0  0
  9 29  1  0  0  0  0
 10 11  1  0  0  0  0
 10 30  1  0  0  0  0
 10 31  1  0  0  0  0
 11 12  1  0  0  0  0
 11 32  1  0  0  0  0
 11 33  1  0  0  0  0
 12 34  1  0  0  0  0
 12 35  1  0  0  0  0
 13 14  2  0  0  0  0
 13 53  1  0  0  0  0
 14 36  1  0  0  0  0
 15 16  1  0  0  0  0
 15 37  1  0  0  0  0
 16 24  1  0  0  0  0
 16 17  1  0  0  0  0
 16 38  1  0  0  0  0
 17 18  1  0  0  0  0
 17 39  1  0  0  0  0
 17 40  1  0  0  0  0
 18 19  1  0  0  0  0
 18 41  1  0  0  0  0
 18 42  1  0  0  0  0
 19 24  1  0  0  0  0
 19 20  1  0  0  0  0
 19 52  1  0  0  0  0
 20 21  1  0  0  0  0
 20 43  1  0  0  0  0
 20 44  1  0  0  0  0
 21 22  1  0  0  0  0
 21 45  1  0  0  0  0
 21 46  1  0  0  0  0
 22 23  1  0  0  0  0
 22 47  1  0  0  0  0
 22 48  1  0  0  0  0
 23 24  1  0  0  0  0
 23 49  1  0  0  0  0
 23 50  1  0  0  0  0
 24 51  1  0  0  0  0
M  CHG  1  13   1
M  CHG  1  19   1
M  END
> <s_m_source_file>
AV-unprocessed.smi

> <i_m_source_file_index>
1867

> <i_lp_mmshare_version>
43012

> <i_f3d_flags>
0

> <s_epik_input>
W0NIMl0xW0NIMl1bQ0gyXVtDSDJdW0NASF0oTjEyKVtDQEBIXShbQ0gyXVtDSDJdMilbTkhdQyg9TylbTkhdYzNbY0hdW2NIXWMobltjSF0zKU40W0NIMl1bQ0gyXVtDSDJdW0NIMl00

> <s_epik_cmdline>
J2VwaWtfcHl0aG9uJywgJy1waCcsICc3LjAnLCAnLXRuJywgJzgnLCAnLW1hJywgJzIwMCcsICctbWV0YWxfYmluZGluZycsICctaW1hZScsICc8aW5maWxlLm1hZT4nLCAnLW9tYWUnLCAnPG91dGZpbGUubWFlPic=

> <r_lp_tautomer_probability>
0.999994

> <r_epik_Ionization_Penalty>
1.27347

> <r_epik_Ionization_Penalty_Charging>
1.27345

> <r_epik_Ionization_Penalty_Neutral>
1.96458e-05

> <r_epik_State_Penalty>
1.34393

> <r_epik_Charging_Adjusted_Penalty>
2.61738

> <i_epik_Tot_Q>
2

> <i_epik_Tot_abs_Q>
2

> <r_epik_Metal_State_Penalty>
1.41094

> <b_epik_Metal_Only>
0

> <s_lp_Force_Field>
OPLS_2005

> <r_lp_Energy>
83.8069

> <b_lp_Chiralities_Consistent>
1

> <s_lp_Variant>
AV-unprocessed.smi:1867-16

> <Gold.Version>
5.8.1

> <Gold.Id.Protein>
6NUR|6NUR_protein|mol2

> <Gold.PLP.Fitness>
47.0614

> <Gold.PLP.PLP>
-36.6394

> <Gold.PLP.part.hbond>
-4.7238

> <Gold.PLP.part.metal>
0.0000

> <Gold.PLP.part.buried>
5.0136

> <Gold.PLP.part.nonpolar>
-37.4944

> <Gold.PLP.part.repulsive>
0.6061

> <Gold.PLP.ligand.clash>
0.0000

> <Gold.PLP.ligand.torsion>
0.4762

> <Gold.PLP.Chemscore.Hbond>
3.7840

> <Gold.PLP.Chemscore.CHOScore>
0.0000

> <Gold.PLP.Chemscore.Metal>
0.0000

> <Gold.Chemscore.Hbonds>
donor molecule, donor type, donor heavy atom, donor atom, acceptor molecule, acceptor atom, score
      L1  H    13    53       P1  8028  2.00
      L1  H    15    37       P1  7948  0.93
      L1  H    19    52       P1 10171  0.86

> <Gold.PLP.Chemscore.Internal.Correction>
0.0224

> <Gold.Rescore>
     Score         DG    S(hbond)    S(metal)    S(lipo)     H(rot)  DE(clash)    DE(int)     intcor
     18.99     -24.54       2.71        0.00     111.72       1.20       3.92       1.63       ----

> <Gold.Chemscore.Fitness>
18.9883

> <Gold.Chemscore.DG>
-24.5369

> <Gold.Chemscore.ZeroCoef>
-5.4800

> <Gold.Chemscore.Hbond>
2.7081

> <Gold.Chemscore.Metal>
0.0000

> <Gold.Chemscore.Lipo>
111.7186

> <Gold.Chemscore.Internal_Hbond>
0.0000

> <Gold.Chemscore.DEClash>
3.9161

> <Gold.Chemscore.DEInternal>
1.6325

> <Gold.Chemscore.Rot>
1.1950

> <Gold.Chemscore.Internal.Correction>
   9.000000E+99

> <Gold.Chemscore.Hbonds>
donor molecule, donor type, donor heavy atom, donor atom, acceptor molecule, acceptor atom, score
      L1  H    13    53       P1  8028  1.00
      L1  H    15    37       P1  7948  0.86
      L1  H    19    52       P1 10171  0.83

> <Gold.Chemscore.Hbond.Weighted>
-9.0451

> <Gold.Chemscore.Metal.Weighted>
-0.0000

> <Gold.Chemscore.Lipo.Weighted>
-13.0711

> <Gold.Chemscore.Internal_Hbond.Weighted>
0.0000

> <Gold.Chemscore.DEClash.Weighted>
3.9161

> <Gold.Chemscore.DEInternal.Weighted>
1.6325

> <Gold.Chemscore.Rot.Weighted>
3.0593

> <Gold.Chemscore.Internal.Correction.Weighted>
   9.000000E+99

> <Gold.Protein.RotatedTorsions>
[ 6907 6896 6895 6894 ] final  -27.41 input  -60.11 | X-H torsion
[ 7974 7965 7964 7962 ] final  -16.41 input  175.53 | X-H torsion
[ 8008 7997 7996 7995 ] final  105.93 input   59.86 | X-H torsion
[ 10167 10162 10161 10158 ] final  -76.52 input  -65.29 | X-H torsion
[ 10718 10713 10712 10709 ] final  -22.32 input   66.30 | X-H torsion
[ 10763 10752 10751 10750 ] final   15.34 input  -60.55 | X-H torsion
[ 11005 11000 10999 10996 ] final   99.30 input  -57.11 | X-H torsion

> <Gold.Protein.ActiveResidues>
 VAL166  LYS551  ARG553  GLY616  TRP617  ASP618  TYR619  PRO620  LYS621  CYS622 
 ASP623  PHE694  ASN695  SER759  ASP760  ASP761  ALA762  ILE779  LEU786  VAL792 
 PHE793  MET794  SER795  GLU796  ALA797  LYS798  CYS799  TRP800  GLU811  SER814 

> <Gold.Protein.RotatedAtoms>
  151.1472  135.0209  159.8651 H   0  0  0  0  0  0  0  0  0  0  0  0  # atno 6907 bound_to 6896
  152.5453  134.1430  159.8497 H   0  0  0  0  0  0  0  0  0  0  0  0  # atno 6908 bound_to 6896
  151.1512  133.4861  159.2628 H   0  0  0  0  0  0  0  0  0  0  0  0  # atno 6909 bound_to 6896
  146.1988  140.3633  142.8431 H   0  0  0  0  0  0  0  0  0  0  0  0  # atno 7974 bound_to 7965
  156.1700  140.3122  155.8957 H   0  0  0  0  0  0  0  0  0  0  0  0  # atno 8008 bound_to 7997
  155.3606  140.0476  157.3063 H   0  0  0  0  0  0  0  0  0  0  0  0  # atno 8009 bound_to 7997
  154.5231  140.2205  155.8949 H   0  0  0  0  0  0  0  0  0  0  0  0  # atno 8010 bound_to 7997
  140.4850  143.2393  151.7998 H   0  0  0  0  0  0  0  0  0  0  0  0  # atno 10167 bound_to 10162
  156.5062  130.4599  149.6673 H   0  0  0  0  0  0  0  0  0  0  0  0  # atno 10718 bound_to 10713
  153.1535  135.6783  153.8847 H   0  0  0  0  0  0  0  0  0  0  0  0  # atno 10763 bound_to 10752
  153.8266  135.3123  155.3416 H   0  0  0  0  0  0  0  0  0  0  0  0  # atno 10764 bound_to 10752
  154.7880  135.4851  154.0075 H   0  0  0  0  0  0  0  0  0  0  0  0  # atno 10765 bound_to 10752
  139.8771  134.9089  156.4584 H   0  0  0  0  0  0  0  0  0  0  0  0  # atno 11005 bound_to 11000
  144.8639  140.7178  143.6090 LP  0  0  0  0  0  0  0  0  0  0  0  0  # atno 17320 bound_to 7965
  145.3552  139.1696  143.4413 LP  0  0  0  0  0  0  0  0  0  0  0  0  # atno 17321 bound_to 7965
  139.4840  144.4724  151.9409 LP  0  0  0  0  0  0  0  0  0  0  0  0  # atno 17342 bound_to 10162
  140.3809  144.2737  150.5909 LP  0  0  0  0  0  0  0  0  0  0  0  0  # atno 17343 bound_to 10162
  156.3285  130.7319  151.2244 LP  0  0  0  0  0  0  0  0  0  0  0  0  # atno 17370 bound_to 10713
  157.7456  131.0436  150.4753 LP  0  0  0  0  0  0  0  0  0  0  0  0  # atno 17371 bound_to 10713
  140.8881  133.7868  155.9541 LP  0  0  0  0  0  0  0  0  0  0  0  0  # atno 17394 bound_to 11000
  140.8783  134.2643  157.5157 LP  0  0  0  0  0  0  0  0  0  0  0  0  # atno 17395 bound_to 11000

$$$$
