AV-unprocessed.smi:894|AV-procd|sdf|4072|dock4
  -GOLD-   22720 1553D 1   1.00000     0.00000
 Structure written by MMmdl.
 30 31  0  0  0  0  0  0  0  0  1 V2000
  147.2960  138.9293  153.1515 C   0  0  0  0  0  0  0  0  0  0  0  0
  148.1965  140.0033  153.5410 N   0  0  0  0  0  0  0  0  0  0  0  0
  148.3499  140.4407  154.7999 C   0  0  0  0  0  0  0  0  0  0  0  0
  147.7429  139.9648  155.7592 O   0  0  0  0  0  0  0  0  0  0  0  0
  149.3440  141.5840  155.0135 C   0  0  0  0  0  0  0  0  0  0  0  0
  150.5283  141.1185  155.7993 C   0  0  0  0  0  0  0  0  0  0  0  0
  151.3609  140.2036  155.3151 N   0  0  0  0  0  0  0  0  0  0  0  0
  152.3025  140.0458  156.3419 O   0  0  0  0  0  0  0  0  0  0  0  0
  151.9260  140.9001  157.3233 C   0  0  0  0  0  0  0  0  0  0  0  0
  152.7100  140.9291  158.5930 C   0  0  0  0  0  0  0  0  0  0  0  0
  152.1600  141.9386  159.5954 C   0  0  0  0  0  0  0  0  0  0  0  0
  152.1397  143.4344  159.2403 C   0  0  0  0  0  0  0  0  0  0  0  0
  152.4270  143.7412  160.7119 C   0  0  0  0  0  0  0  0  0  0  0  0
  152.9990  142.3256  160.8230 C   0  0  0  0  0  0  0  0  0  0  0  0
  150.8154  141.5798  157.0485 N   0  0  0  0  0  0  0  0  0  0  0  0
  147.3412  138.7784  152.0731 H   0  0  0  0  0  0  0  0  0  0  0  0
  146.2662  139.1698  153.4191 H   0  0  0  0  0  0  0  0  0  0  0  0
  147.5735  137.9940  153.6397 H   0  0  0  0  0  0  0  0  0  0  0  0
  148.7309  140.4478  152.8082 H   0  0  0  0  0  0  0  0  0  0  0  0
  149.6760  141.9687  154.0483 H   0  0  0  0  0  0  0  0  0  0  0  0
  148.8551  142.4103  155.5317 H   0  0  0  0  0  0  0  0  0  0  0  0
  152.7092  139.9277  159.0243 H   0  0  0  0  0  0  0  0  0  0  0  0
  153.7487  141.1574  158.3514 H   0  0  0  0  0  0  0  0  0  0  0  0
  151.1613  141.6472  159.9286 H   0  0  0  0  0  0  0  0  0  0  0  0
  152.9597  143.7258  158.5816 H   0  0  0  0  0  0  0  0  0  0  0  0
  151.1811  143.8032  158.8741 H   0  0  0  0  0  0  0  0  0  0  0  0
  153.1480  144.5413  160.8812 H   0  0  0  0  0  0  0  0  0  0  0  0
  151.5185  143.8794  161.3005 H   0  0  0  0  0  0  0  0  0  0  0  0
  152.7362  141.7976  161.7401 H   0  0  0  0  0  0  0  0  0  0  0  0
  154.0731  142.2902  160.6327 H   0  0  0  0  0  0  0  0  0  0  0  0
  1  2  1  0  0  0  0
  1 16  1  0  0  0  0
  1 17  1  0  0  0  0
  1 18  1  0  0  0  0
  2  3  1  0  0  0  0
  2 19  1  0  0  0  0
  3  4  2  0  0  0  0
  3  5  1  0  0  0  0
  5  6  1  0  0  0  0
  5 20  1  0  0  0  0
  5 21  1  0  0  0  0
  6 15  1  0  0  0  0
  6  7  2  0  0  0  0
  7  8  1  0  0  0  0
  8  9  1  0  0  0  0
  9 10  1  0  0  0  0
  9 15  2  0  0  0  0
 10 11  1  0  0  0  0
 10 22  1  0  0  0  0
 10 23  1  0  0  0  0
 11 14  1  0  0  0  0
 11 12  1  0  0  0  0
 11 24  1  0  0  0  0
 12 13  1  0  0  0  0
 12 25  1  0  0  0  0
 12 26  1  0  0  0  0
 13 14  1  0  0  0  0
 13 27  1  0  0  0  0
 13 28  1  0  0  0  0
 14 29  1  0  0  0  0
 14 30  1  0  0  0  0
M  END
> <s_m_source_file>
AV-unprocessed.smi

> <i_m_source_file_index>
894

> <i_lp_mmshare_version>
43012

> <i_f3d_flags>
0

> <s_epik_input>
W0NIM11bTkhdQyg9TylbQ0gyXWMxbm9jKG4xKVtDSDJdW0NIXTJbQ0gyXVtDSDJdW0NIMl0y

> <s_epik_cmdline>
J2VwaWtfcHl0aG9uJywgJy1waCcsICc3LjAnLCAnLXRuJywgJzgnLCAnLW1hJywgJzIwMCcsICctbWV0YWxfYmluZGluZycsICctaW1hZScsICc8aW5maWxlLm1hZT4nLCAnLW9tYWUnLCAnPG91dGZpbGUubWFlPic=

> <r_lp_tautomer_probability>
1

> <r_epik_Ionization_Penalty>
1.02915e-07

> <r_epik_Ionization_Penalty_Charging>
0

> <r_epik_Ionization_Penalty_Neutral>
1.02915e-07

> <r_epik_State_Penalty>
-0

> <r_epik_Charging_Adjusted_Penalty>
0

> <i_epik_Tot_Q>
0

> <i_epik_Tot_abs_Q>
0

> <r_epik_Metal_State_Penalty>
-0

> <b_epik_Metal_Only>
0

> <s_lp_Force_Field>
OPLS_2005

> <r_lp_Energy>
11.0858

> <b_lp_Chiralities_Consistent>
1

> <s_lp_Variant>
AV-unprocessed.smi:894-1

> <Gold.Version>
5.8.1

> <Gold.Id.Protein>
6NUR|6NUR_protein|mol2

> <Gold.PLP.Fitness>
38.5805

> <Gold.PLP.PLP>
-30.4172

> <Gold.PLP.part.hbond>
-3.0000

> <Gold.PLP.part.metal>
0.0000

> <Gold.PLP.part.buried>
-3.2804

> <Gold.PLP.part.nonpolar>
-23.5384

> <Gold.PLP.part.repulsive>
0.1860

> <Gold.PLP.ligand.clash>
0.0000

> <Gold.PLP.ligand.torsion>
0.1288

> <Gold.PLP.Chemscore.Hbond>
2.7820

> <Gold.PLP.Chemscore.CHOScore>
0.0000

> <Gold.PLP.Chemscore.Metal>
0.0000

> <Gold.Chemscore.Hbonds>
donor molecule, donor type, donor heavy atom, donor atom, acceptor molecule, acceptor atom, score
      L1  H     2    19       P1  7957  0.82
      P1  H  7989  7998       L1     7  1.00
      P1  H  7997  8009       L1     8  0.99

> <Gold.PLP.Chemscore.Internal.Correction>
0.0748

> <Gold.Rescore>
     Score         DG    S(hbond)    S(metal)    S(lipo)     H(rot)  DE(clash)    DE(int)     intcor
     14.99     -15.23       1.96        0.00      68.87       1.90       0.06       0.18       ----

> <Gold.Chemscore.Fitness>
14.9947

> <Gold.Chemscore.DG>
-15.2316

> <Gold.Chemscore.ZeroCoef>
-5.4800

> <Gold.Chemscore.Hbond>
1.9605

> <Gold.Chemscore.Metal>
0.0000

> <Gold.Chemscore.Lipo>
68.8732

> <Gold.Chemscore.Internal_Hbond>
0.0000

> <Gold.Chemscore.DEClash>
0.0585

> <Gold.Chemscore.DEInternal>
0.1784

> <Gold.Chemscore.Rot>
1.8963

> <Gold.Chemscore.Internal.Correction>
   9.000000E+99

> <Gold.Chemscore.Hbonds>
donor molecule, donor type, donor heavy atom, donor atom, acceptor molecule, acceptor atom, score
      L1  H     2    19       P1  7957  0.81
      P1  H  7989  7998       L1     7  0.28
      P1  H  7997  8009       L1     8  0.46

> <Gold.Chemscore.Hbond.Weighted>
-6.5480

> <Gold.Chemscore.Metal.Weighted>
-0.0000

> <Gold.Chemscore.Lipo.Weighted>
-8.0582

> <Gold.Chemscore.Internal_Hbond.Weighted>
0.0000

> <Gold.Chemscore.DEClash.Weighted>
0.0585

> <Gold.Chemscore.DEInternal.Weighted>
0.1784

> <Gold.Chemscore.Rot.Weighted>
4.8546

> <Gold.Chemscore.Internal.Correction.Weighted>
   9.000000E+99

> <Gold.Protein.RotatedTorsions>
[ 6907 6896 6895 6894 ] final   22.24 input  -60.11 | X-H torsion
[ 7974 7965 7964 7962 ] final -103.49 input  175.53 | X-H torsion
[ 8008 7997 7996 7995 ] final -159.41 input   59.86 | X-H torsion
[ 10167 10162 10161 10158 ] final -176.77 input  -65.29 | X-H torsion
[ 10718 10713 10712 10709 ] final  127.59 input   66.30 | X-H torsion
[ 10763 10752 10751 10750 ] final    0.53 input  -60.55 | X-H torsion
[ 11005 11000 10999 10996 ] final -117.88 input  -57.11 | X-H torsion

> <Gold.Protein.ActiveResidues>
 VAL166  LYS551  ARG553  GLY616  TRP617  ASP618  TYR619  PRO620  LYS621  CYS622 
 ASP623  PHE694  ASN695  SER759  ASP760  ASP761  ALA762  ILE779  LEU786  VAL792 
 PHE793  MET794  SER795  GLU796  ALA797  LYS798  CYS799  TRP800  GLU811  SER814 

> <Gold.Protein.RotatedAtoms>
  151.9240  135.0286  160.0523 H   0  0  0  0  0  0  0  0  0  0  0  0  # atno 6907 bound_to 6896
  152.2175  133.4953  159.5152 H   0  0  0  0  0  0  0  0  0  0  0  0  # atno 6908 bound_to 6896
  150.6991  134.1303  159.4110 H   0  0  0  0  0  0  0  0  0  0  0  0  # atno 6909 bound_to 6896
  145.2552  140.9251  143.3072 H   0  0  0  0  0  0  0  0  0  0  0  0  # atno 7974 bound_to 7965
  155.7621  140.0840  157.2150 H   0  0  0  0  0  0  0  0  0  0  0  0  # atno 8008 bound_to 7997
  154.4003  140.1541  156.2901 H   0  0  0  0  0  0  0  0  0  0  0  0  # atno 8009 bound_to 7997
  155.8829  140.3419  155.5903 H   0  0  0  0  0  0  0  0  0  0  0  0  # atno 8010 bound_to 7997
  139.5513  144.2102  152.1082 H   0  0  0  0  0  0  0  0  0  0  0  0  # atno 10167 bound_to 10162
  157.5319  131.1098  150.8995 H   0  0  0  0  0  0  0  0  0  0  0  0  # atno 10718 bound_to 10713
  153.3195  135.6968  153.7043 H   0  0  0  0  0  0  0  0  0  0  0  0  # atno 10763 bound_to 10752
  153.5888  135.3484  155.2904 H   0  0  0  0  0  0  0  0  0  0  0  0  # atno 10764 bound_to 10752
  154.8594  135.4313  154.2355 H   0  0  0  0  0  0  0  0  0  0  0  0  # atno 10765 bound_to 10752
  141.0324  133.9960  157.3122 H   0  0  0  0  0  0  0  0  0  0  0  0  # atno 11005 bound_to 11000
  144.9467  139.4128  143.6422 LP  0  0  0  0  0  0  0  0  0  0  0  0  # atno 17320 bound_to 7965
  146.3291  139.8454  142.8883 LP  0  0  0  0  0  0  0  0  0  0  0  0  # atno 17321 bound_to 7965
  140.1598  144.5037  150.6639 LP  0  0  0  0  0  0  0  0  0  0  0  0  # atno 17342 bound_to 10162
  140.6776  143.2312  151.5467 LP  0  0  0  0  0  0  0  0  0  0  0  0  # atno 17343 bound_to 10162
  156.9574  130.5442  149.5284 LP  0  0  0  0  0  0  0  0  0  0  0  0  # atno 17370 bound_to 10713
  156.0429  130.5509  150.8813 LP  0  0  0  0  0  0  0  0  0  0  0  0  # atno 17371 bound_to 10713
  139.9217  135.0200  156.8089 LP  0  0  0  0  0  0  0  0  0  0  0  0  # atno 17394 bound_to 11000
  140.6382  133.9842  155.7695 LP  0  0  0  0  0  0  0  0  0  0  0  0  # atno 17395 bound_to 11000

$$$$
