AV-unprocessed.smi:2971|AV-procd|sdf|11334|dock6
  -GOLD-   2272016243D 1   1.00000     0.00000
 Structure written by MMmdl.
 37 39  0  0  0  0  0  0  0  0  2 V2000
  152.4971  139.7458  155.8616 O   0  0  0  0  0  0  0  0  0  0  0  0
  151.7131  140.6598  156.6032 C   0  0  2  0  0  0  0  0  0  0  0  0
  152.3868  140.8834  157.9663 C   0  0  0  0  0  0  0  0  0  0  0  0
  151.8359  142.0486  158.5660 O   0  0  0  0  0  0  0  0  0  0  0  0
  152.2817  142.4134  159.8191 C   0  0  0  0  0  0  0  0  0  0  0  0
  153.1098  141.6020  160.6364 C   0  0  0  0  0  0  0  0  0  0  0  0
  153.5201  142.0518  161.9065 C   0  0  0  0  0  0  0  0  0  0  0  0
  153.1102  143.3129  162.3761 C   0  0  0  0  0  0  0  0  0  0  0  0
  152.2882  144.1248  161.5731 C   0  0  0  0  0  0  0  0  0  0  0  0
  151.8778  143.6765  160.3025 C   0  0  0  0  0  0  0  0  0  0  0  0
  151.0868  144.4686  159.5398 F   0  0  0  0  0  0  0  0  0  0  0  0
  150.2854  140.0982  156.7562 C   0  0  0  0  0  0  0  0  0  0  0  0
  149.6732  139.7297  155.4712 N   0  0  0  0  0  0  0  0  0  0  0  0
  149.9227  138.6604  154.6676 C   0  0  0  0  0  0  0  0  0  0  0  0
  149.1064  138.7610  153.5823 N   0  3  0  0  0  0  0  0  0  0  0  0
  148.3211  139.9102  153.6942 C   0  0  0  0  0  0  0  0  0  0  0  0
  147.3493  140.4346  152.8477 C   0  0  0  0  0  0  0  0  0  0  0  0
  146.7282  141.6312  153.2616 C   0  0  0  0  0  0  0  0  0  0  0  0
  147.0792  142.2595  154.4742 C   0  0  0  0  0  0  0  0  0  0  0  0
  148.0674  141.7199  155.3237 C   0  0  0  0  0  0  0  0  0  0  0  0
  148.6782  140.5372  154.9071 C   0  0  0  0  0  0  0  0  0  0  0  0
  151.9300  139.0639  155.5343 H   0  0  0  0  0  0  0  0  0  0  0  0
  151.6638  141.6047  156.0602 H   0  0  0  0  0  0  0  0  0  0  0  0
  152.1756  140.0313  158.6146 H   0  0  0  0  0  0  0  0  0  0  0  0
  153.4702  140.9589  157.8566 H   0  0  0  0  0  0  0  0  0  0  0  0
  153.4444  140.6284  160.3128 H   0  0  0  0  0  0  0  0  0  0  0  0
  154.1507  141.4267  162.5214 H   0  0  0  0  0  0  0  0  0  0  0  0
  153.4252  143.6568  163.3504 H   0  0  0  0  0  0  0  0  0  0  0  0
  151.9714  145.0932  161.9316 H   0  0  0  0  0  0  0  0  0  0  0  0
  150.2659  139.2386  157.4268 H   0  0  0  0  0  0  0  0  0  0  0  0
  149.6391  140.8510  157.2089 H   0  0  0  0  0  0  0  0  0  0  0  0
  150.6402  137.8749  154.8561 H   0  0  0  0  0  0  0  0  0  0  0  0
  147.0773  139.9545  151.9190 H   0  0  0  0  0  0  0  0  0  0  0  0
  145.9662  142.0755  152.6376 H   0  0  0  0  0  0  0  0  0  0  0  0
  146.5794  143.1735  154.7604 H   0  0  0  0  0  0  0  0  0  0  0  0
  148.3232  142.2064  156.2533 H   0  0  0  0  0  0  0  0  0  0  0  0
  149.0886  138.0926  152.8228 H   0  0  0  0  0  0  0  0  0  0  0  0
  1  2  1  0  0  0  0
  1 22  1  0  0  0  0
  2  3  1  0  0  0  0
  2 12  1  0  0  0  0
  2 23  1  0  0  0  0
  3  4  1  0  0  0  0
  3 24  1  0  0  0  0
  3 25  1  0  0  0  0
  4  5  1  0  0  0  0
  5 10  1  0  0  0  0
  5  6  2  0  0  0  0
  6  7  1  0  0  0  0
  6 26  1  0  0  0  0
  7  8  2  0  0  0  0
  7 27  1  0  0  0  0
  8  9  1  0  0  0  0
  8 28  1  0  0  0  0
  9 10  2  0  0  0  0
  9 29  1  0  0  0  0
 10 11  1  0  0  0  0
 12 13  1  0  0  0  0
 12 30  1  0  0  0  0
 12 31  1  0  0  0  0
 13 21  1  0  0  0  0
 13 14  1  0  0  0  0
 14 15  2  0  0  0  0
 14 32  1  0  0  0  0
 15 16  1  0  0  0  0
 15 37  1  0  0  0  0
 16 21  2  0  0  0  0
 16 17  1  0  0  0  0
 17 18  2  0  0  0  0
 17 33  1  0  0  0  0
 18 19  1  0  0  0  0
 18 34  1  0  0  0  0
 19 20  2  0  0  0  0
 19 35  1  0  0  0  0
 20 21  1  0  0  0  0
 20 36  1  0  0  0  0
M  CHG  1  15   1
M  END
> <s_m_source_file>
AV-unprocessed.smi

> <i_m_source_file_index>
2971

> <i_lp_mmshare_version>
43012

> <i_f3d_flags>
0

> <s_epik_input>
W2NIXTFbY0hdW2NIXVtjSF1jKGMxMiluKFtjSF1uMilbQ0gyXVtDQEhdKFtPSF0pW0NIMl1PYzNbY0hdW2NIXVtjSF1bY0hdYzNG

> <s_epik_cmdline>
J2VwaWtfcHl0aG9uJywgJy1waCcsICc3LjAnLCAnLXRuJywgJzgnLCAnLW1hJywgJzIwMCcsICctbWV0YWxfYmluZGluZycsICctaW1hZScsICc8aW5maWxlLm1hZT4nLCAnLW9tYWUnLCAnPG91dGZpbGUubWFlPic=

> <r_lp_tautomer_probability>
1

> <r_epik_Ionization_Penalty>
1.38569

> <r_epik_Ionization_Penalty_Charging>
1.38568

> <r_epik_Ionization_Penalty_Neutral>
2.3993e-06

> <r_epik_State_Penalty>
1.46659

> <r_epik_Charging_Adjusted_Penalty>
2.85227

> <i_epik_Tot_Q>
1

> <i_epik_Tot_abs_Q>
1

> <r_epik_Metal_State_Penalty>
5.50731

> <b_epik_Metal_Only>
0

> <s_lp_Force_Field>
OPLS_2005

> <r_lp_Energy>
22.099

> <b_lp_Chiralities_Consistent>
1

> <s_lp_Variant>
AV-unprocessed.smi:2971-3

> <Gold.Version>
5.8.1

> <Gold.Id.Protein>
6NUR|6NUR_protein|mol2

> <Gold.PLP.Fitness>
54.0608

> <Gold.PLP.PLP>
-45.8515

> <Gold.PLP.part.hbond>
-3.0000

> <Gold.PLP.part.metal>
0.0000

> <Gold.PLP.part.buried>
-1.0297

> <Gold.PLP.part.nonpolar>
-41.4987

> <Gold.PLP.part.repulsive>
0.0688

> <Gold.PLP.ligand.clash>
0.0000

> <Gold.PLP.ligand.torsion>
0.4056

> <Gold.PLP.Chemscore.Hbond>
3.0000

> <Gold.PLP.Chemscore.CHOScore>
0.0000

> <Gold.PLP.Chemscore.Metal>
0.0000

> <Gold.Chemscore.Hbonds>
donor molecule, donor type, donor heavy atom, donor atom, acceptor molecule, acceptor atom, score
      L1  H    15    37       P1  7948  1.82
      P1  H  7997  8009       L1     1  1.00

> <Gold.PLP.Chemscore.Internal.Correction>
0.0206

> <Gold.Rescore>
     Score         DG    S(hbond)    S(metal)    S(lipo)     H(rot)  DE(clash)    DE(int)     intcor
     18.07     -19.62       1.82        0.00     122.77       2.46       1.09       0.46       ----

> <Gold.Chemscore.Fitness>
18.0725

> <Gold.Chemscore.DG>
-19.6218

> <Gold.Chemscore.ZeroCoef>
-5.4800

> <Gold.Chemscore.Hbond>
1.8177

> <Gold.Chemscore.Metal>
0.0000

> <Gold.Chemscore.Lipo>
122.7719

> <Gold.Chemscore.Internal_Hbond>
0.0000

> <Gold.Chemscore.DEClash>
1.0883

> <Gold.Chemscore.DEInternal>
0.4610

> <Gold.Chemscore.Rot>
2.4584

> <Gold.Chemscore.Internal.Correction>
   9.000000E+99

> <Gold.Chemscore.Hbonds>
donor molecule, donor type, donor heavy atom, donor atom, acceptor molecule, acceptor atom, score
      L1  H    15    37       P1  7948  0.86
      P1  H  7997  8009       L1     1  0.70

> <Gold.Chemscore.Hbond.Weighted>
-6.0710

> <Gold.Chemscore.Metal.Weighted>
-0.0000

> <Gold.Chemscore.Lipo.Weighted>
-14.3643

> <Gold.Chemscore.Internal_Hbond.Weighted>
0.0000

> <Gold.Chemscore.DEClash.Weighted>
1.0883

> <Gold.Chemscore.DEInternal.Weighted>
0.4610

> <Gold.Chemscore.Rot.Weighted>
6.2936

> <Gold.Chemscore.Internal.Correction.Weighted>
   9.000000E+99

> <Gold.Protein.RotatedTorsions>
[ 6907 6896 6895 6894 ] final  104.17 input  -60.11 | X-H torsion
[ 7974 7965 7964 7962 ] final  151.68 input  175.53 | X-H torsion
[ 8008 7997 7996 7995 ] final -148.71 input   59.86 | X-H torsion
[ 10167 10162 10161 10158 ] final -141.37 input  -65.29 | X-H torsion
[ 10718 10713 10712 10709 ] final  120.87 input   66.30 | X-H torsion
[ 10763 10752 10751 10750 ] final  137.69 input  -60.55 | X-H torsion
[ 11005 11000 10999 10996 ] final -131.28 input  -57.11 | X-H torsion

> <Gold.Protein.ActiveResidues>
 VAL166  LYS551  ARG553  GLY616  TRP617  ASP618  TYR619  PRO620  LYS621  CYS622 
 ASP623  PHE694  ASN695  SER759  ASP760  ASP761  ALA762  ILE779  LEU786  VAL792 
 PHE793  MET794  SER795  GLU796  ALA797  LYS798  CYS799  TRP800  GLU811  SER814 

> <Gold.Protein.RotatedAtoms>
  152.5273  133.9716  159.7764 H   0  0  0  0  0  0  0  0  0  0  0  0  # atno 6907 bound_to 6896
  150.9987  133.6069  159.2705 H   0  0  0  0  0  0  0  0  0  0  0  0  # atno 6908 bound_to 6896
  151.3186  135.0819  159.9351 H   0  0  0  0  0  0  0  0  0  0  0  0  # atno 6909 bound_to 6896
  144.8275  139.6570  143.6073 H   0  0  0  0  0  0  0  0  0  0  0  0  # atno 7974 bound_to 7965
  155.5960  140.0657  157.2746 H   0  0  0  0  0  0  0  0  0  0  0  0  # atno 8008 bound_to 7997
  154.4292  140.1827  156.1171 H   0  0  0  0  0  0  0  0  0  0  0  0  # atno 8009 bound_to 7997
  156.0196  140.3318  155.7028 H   0  0  0  0  0  0  0  0  0  0  0  0  # atno 8010 bound_to 7997
  139.8191  143.7598  152.2665 H   0  0  0  0  0  0  0  0  0  0  0  0  # atno 10167 bound_to 10162
  157.5859  131.1070  150.8095 H   0  0  0  0  0  0  0  0  0  0  0  0  # atno 10718 bound_to 10713
  153.8773  135.3048  155.3444 H   0  0  0  0  0  0  0  0  0  0  0  0  # atno 10763 bound_to 10752
  154.7778  135.4852  153.9783 H   0  0  0  0  0  0  0  0  0  0  0  0  # atno 10764 bound_to 10752
  153.1372  135.6816  153.9181 H   0  0  0  0  0  0  0  0  0  0  0  0  # atno 10765 bound_to 10752
  140.9273  134.1366  157.4265 H   0  0  0  0  0  0  0  0  0  0  0  0  # atno 11005 bound_to 11000
  146.2580  139.6345  142.9382 LP  0  0  0  0  0  0  0  0  0  0  0  0  # atno 17320 bound_to 7965
  145.4968  141.0438  143.2562 LP  0  0  0  0  0  0  0  0  0  0  0  0  # atno 17321 bound_to 7965
  139.7771  144.7457  151.0141 LP  0  0  0  0  0  0  0  0  0  0  0  0  # atno 17342 bound_to 10162
  140.7814  143.4582  151.0315 LP  0  0  0  0  0  0  0  0  0  0  0  0  # atno 17343 bound_to 10162
  156.8529  130.5087  149.5310 LP  0  0  0  0  0  0  0  0  0  0  0  0  # atno 17370 bound_to 10713
  156.0908  130.5894  150.9730 LP  0  0  0  0  0  0  0  0  0  0  0  0  # atno 17371 bound_to 10713
  139.8788  134.9992  156.5945 LP  0  0  0  0  0  0  0  0  0  0  0  0  # atno 17394 bound_to 11000
  140.7909  133.8583  155.8645 LP  0  0  0  0  0  0  0  0  0  0  0  0  # atno 17395 bound_to 11000

$$$$
