AV-unprocessed.smi:16|AV-procd|sdf|92|dock8
  -GOLD-   2262015233D 1   1.00000     0.00000
 Structure written by MMmdl.
 60 64  0  0  0  0  0  0  0  0  2 V2000
  151.6482  145.5873  160.0941 C   0  0  0  0  0  0  0  0  0  0  0  0
  151.3561  144.7315  158.8526 C   0  0  0  0  0  0  0  0  0  0  0  0
  151.5983  143.2849  159.0857 N   0  3  2  0  0  0  0  0  0  0  0  0
  152.9189  143.0360  159.7216 C   0  0  0  0  0  0  0  0  0  0  0  0
  153.1081  141.5480  160.0597 C   0  0  0  0  0  0  0  0  0  0  0  0
  152.9321  140.6876  158.8040 C   0  0  1  0  0  0  0  0  0  0  0  0
  153.0542  139.3111  159.1415 O   0  0  0  0  0  0  0  0  0  0  0  0
  152.9700  138.4799  157.9885 C   0  0  0  0  0  0  0  0  0  0  0  0
  151.6021  138.6728  157.3133 C   0  0  0  0  0  0  0  0  0  0  0  0
  151.3662  140.0829  157.0178 N   0  0  0  0  0  0  0  0  0  0  0  0
  150.2196  140.2382  156.3170 C   0  0  0  0  0  0  0  0  0  0  0  0
  150.2477  140.7695  155.0658 N   0  0  0  0  0  0  0  0  0  0  0  0
  149.1098  140.9210  154.3809 C   0  0  0  0  0  0  0  0  0  0  0  0
  147.8645  140.6150  154.7525 N   0  0  0  0  0  0  0  0  0  0  0  0
  147.8364  140.0900  156.0113 C   0  0  0  0  0  0  0  0  0  0  0  0
  148.9600  139.8680  156.8544 C   0  0  0  0  0  0  0  0  0  0  0  0
  148.5541  139.3027  158.0557 N   0  0  0  0  0  0  0  0  0  0  0  0
  147.2596  139.1906  157.9281 C   0  0  0  0  0  0  0  0  0  0  0  0
  146.7420  139.6628  156.7419 N   0  0  0  0  0  0  0  0  0  0  0  0
  145.3717  139.6275  156.3239 C   0  0  0  0  0  0  0  0  0  0  0  0
  144.5828  140.9196  156.1019 C   0  0  0  0  0  0  0  0  0  0  0  0
  143.2933  140.2016  156.5615 C   0  0  0  0  0  0  0  0  0  0  0  0
  142.3692  141.0190  157.4789 C   0  0  0  0  0  0  0  0  0  0  0  0
  141.7045  142.0368  156.7584 O   0  0  0  0  0  0  0  0  0  0  0  0
  142.4558  139.5681  155.4322 C   0  0  0  0  0  0  0  0  0  0  0  0
  141.8195  140.5540  154.6444 O   0  0  0  0  0  0  0  0  0  0  0  0
  144.2520  139.2347  157.2906 C   0  0  0  0  0  0  0  0  0  0  0  0
  151.5416  140.9465  158.1893 C   0  0  2  0  0  0  0  0  0  0  0  0
  151.4060  142.4541  157.8658 C   0  0  0  0  0  0  0  0  0  0  0  0
  153.7140  140.9493  158.0877 H   0  0  0  0  0  0  0  0  0  0  0  0
  150.7833  140.6772  158.9269 H   0  0  0  0  0  0  0  0  0  0  0  0
  151.5559  146.6475  159.8571 H   0  0  0  0  0  0  0  0  0  0  0  0
  152.6618  145.4188  160.4591 H   0  0  0  0  0  0  0  0  0  0  0  0
  150.9569  145.3799  160.9102 H   0  0  0  0  0  0  0  0  0  0  0  0
  150.3340  144.8903  158.5059 H   0  0  0  0  0  0  0  0  0  0  0  0
  152.0102  145.0795  158.0522 H   0  0  0  0  0  0  0  0  0  0  0  0
  153.7130  143.3733  159.0534 H   0  0  0  0  0  0  0  0  0  0  0  0
  153.0041  143.6226  160.6372 H   0  0  0  0  0  0  0  0  0  0  0  0
  154.0980  141.3861  160.4874 H   0  0  0  0  0  0  0  0  0  0  0  0
  152.3868  141.2469  160.8208 H   0  0  0  0  0  0  0  0  0  0  0  0
  153.7815  138.7117  157.2968 H   0  0  0  0  0  0  0  0  0  0  0  0
  153.0964  137.4400  158.2902 H   0  0  0  0  0  0  0  0  0  0  0  0
  151.5594  138.0855  156.3947 H   0  0  0  0  0  0  0  0  0  0  0  0
  150.8127  138.3011  157.9686 H   0  0  0  0  0  0  0  0  0  0  0  0
  149.2104  141.3495  153.3945 H   0  0  0  0  0  0  0  0  0  0  0  0
  146.6435  138.7604  158.7046 H   0  0  0  0  0  0  0  0  0  0  0  0
  145.3466  139.0026  155.4297 H   0  0  0  0  0  0  0  0  0  0  0  0
  144.8938  141.7170  156.7795 H   0  0  0  0  0  0  0  0  0  0  0  0
  144.5766  141.2689  155.0690 H   0  0  0  0  0  0  0  0  0  0  0  0
  141.6087  140.3808  157.9297 H   0  0  0  0  0  0  0  0  0  0  0  0
  142.9182  141.4692  158.3062 H   0  0  0  0  0  0  0  0  0  0  0  0
  141.1167  142.4861  157.3462 H   0  0  0  0  0  0  0  0  0  0  0  0
  143.0782  138.9654  154.7705 H   0  0  0  0  0  0  0  0  0  0  0  0
  141.6971  138.8928  155.8282 H   0  0  0  0  0  0  0  0  0  0  0  0
  142.1460  140.4882  153.7600 H   0  0  0  0  0  0  0  0  0  0  0  0
  143.9646  138.1838  157.2460 H   0  0  0  0  0  0  0  0  0  0  0  0
  144.4588  139.5399  158.3182 H   0  0  0  0  0  0  0  0  0  0  0  0
  150.4209  142.6565  157.4488 H   0  0  0  0  0  0  0  0  0  0  0  0
  152.1338  142.7441  157.1060 H   0  0  0  0  0  0  0  0  0  0  0  0
  150.9048  142.9848  159.7561 H   0  0  0  0  0  0  0  0  0  0  0  0
  1  2  1  0  0  0  0
  1 32  1  0  0  0  0
  1 33  1  0  0  0  0
  1 34  1  0  0  0  0
  2  3  1  0  0  0  0
  2 35  1  0  0  0  0
  2 36  1  0  0  0  0
  3 29  1  0  0  0  0
  3  4  1  0  0  0  0
  3 60  1  0  0  0  0
  4  5  1  0  0  0  0
  4 37  1  0  0  0  0
  4 38  1  0  0  0  0
  5  6  1  0  0  0  0
  5 39  1  0  0  0  0
  5 40  1  0  0  0  0
  6 30  1  0  0  0  0
  6 28  1  0  0  0  0
  6  7  1  0  0  0  0
  7  8  1  0  0  0  0
  8  9  1  0  0  0  0
  8 41  1  0  0  0  0
  8 42  1  0  0  0  0
  9 10  1  0  0  0  0
  9 43  1  0  0  0  0
  9 44  1  0  0  0  0
 10 11  1  0  0  0  0
 10 28  1  0  0  0  0
 11 16  1  0  0  0  0
 11 12  2  0  0  0  0
 12 13  1  0  0  0  0
 13 14  2  0  0  0  0
 13 45  1  0  0  0  0
 14 15  1  0  0  0  0
 15 19  1  0  0  0  0
 15 16  2  0  0  0  0
 16 17  1  0  0  0  0
 17 18  2  0  0  0  0
 18 19  1  0  0  0  0
 18 46  1  0  0  0  0
 19 20  1  0  0  0  0
 20 27  1  0  0  0  0
 20 21  1  0  0  0  0
 20 47  1  0  0  0  0
 21 22  1  0  0  0  0
 21 48  1  0  0  0  0
 21 49  1  0  0  0  0
 22 23  1  0  0  0  0
 22 25  1  0  0  0  0
 22 27  1  0  0  0  0
 23 24  1  0  0  0  0
 23 50  1  0  0  0  0
 23 51  1  0  0  0  0
 24 52  1  0  0  0  0
 25 26  1  0  0  0  0
 25 53  1  0  0  0  0
 25 54  1  0  0  0  0
 26 55  1  0  0  0  0
 27 56  1  0  0  0  0
 27 57  1  0  0  0  0
 28 31  1  0  0  0  0
 28 29  1  0  0  0  0
 29 58  1  0  0  0  0
 29 59  1  0  0  0  0
M  CHG  1   3   1
M  END
> <s_m_source_file>
AV-unprocessed.smi

> <i_m_source_file_index>
16

> <i_lp_mmshare_version>
43012

> <i_f3d_flags>
0

> <s_epik_input>
W0NIM11bQ0gyXU4oW0NIMl1bQ0gyXTEpW0NIMl1bQ0BASF0oW0NAQEhdMTIpTihbQ0gyXVtDSDJdTzIpYyhuW2NIXW4zKWMoYzM0KW5bY0hdbjRbQ0hdKFtDSDJdNSlbQ0gyXUM1KFtDSDJdW09IXSlbQ0gyXVtPSF0=

> <s_epik_cmdline>
J2VwaWtfcHl0aG9uJywgJy1waCcsICc3LjAnLCAnLXRuJywgJzgnLCAnLW1hJywgJzIwMCcsICctbWV0YWxfYmluZGluZycsICctaW1hZScsICc8aW5maWxlLm1hZT4nLCAnLW9tYWUnLCAnPG91dGZpbGUubWFlPic=

> <r_lp_tautomer_probability>
1

> <r_epik_Ionization_Penalty>
0.0135603

> <r_epik_Ionization_Penalty_Charging>
0.0131385

> <r_epik_Ionization_Penalty_Neutral>
0.000421734

> <r_epik_State_Penalty>
0.0102091

> <r_epik_Charging_Adjusted_Penalty>
0.0233476

> <i_epik_Tot_Q>
1

> <i_epik_Tot_abs_Q>
1

> <r_epik_Metal_State_Penalty>
0.0103746

> <b_epik_Metal_Only>
0

> <s_lp_Force_Field>
OPLS_2005

> <r_lp_Energy>
53.4104

> <b_lp_Chiralities_Consistent>
1

> <s_lp_Variant>
AV-unprocessed.smi:16-6

> <Gold.Version>
5.8.1

> <Gold.Id.Protein>
6NUR|6NUR_protein|mol2

> <Gold.PLP.Fitness>
42.2828

> <Gold.PLP.PLP>
-34.1506

> <Gold.PLP.part.hbond>
-2.5657

> <Gold.PLP.part.metal>
0.0000

> <Gold.PLP.part.buried>
-5.0596

> <Gold.PLP.part.nonpolar>
-27.3235

> <Gold.PLP.part.repulsive>
0.2249

> <Gold.PLP.ligand.clash>
0.0000

> <Gold.PLP.ligand.torsion>
0.3566

> <Gold.PLP.Chemscore.Hbond>
1.7480

> <Gold.PLP.Chemscore.CHOScore>
0.9929

> <Gold.PLP.Chemscore.Metal>
0.0000

> <Gold.Chemscore.Hbonds>
donor molecule, donor type, donor heavy atom, donor atom, acceptor molecule, acceptor atom, score
      L1  H    26    55       P1 10175  1.00
      P1  H  7989  7998       L1    12  0.72
      L1  C    13    45       P1  7957  0.76

> <Gold.PLP.Chemscore.Internal.Correction>
0.6226

> <Gold.Rescore>
     Score         DG    S(hbond)    S(metal)    S(lipo)     H(rot)  DE(clash)    DE(int)     intcor
      9.74     -10.35       1.03        0.00      84.85       3.33       0.24       0.36       ----

> <Gold.Chemscore.Fitness>
9.7437

> <Gold.Chemscore.DG>
-10.3475

> <Gold.Chemscore.ZeroCoef>
-5.4800

> <Gold.Chemscore.Hbond>
1.0336

> <Gold.Chemscore.Metal>
0.0000

> <Gold.Chemscore.Lipo>
84.8502

> <Gold.Chemscore.Internal_Hbond>
0.0000

> <Gold.Chemscore.DEClash>
0.2402

> <Gold.Chemscore.DEInternal>
0.3636

> <Gold.Chemscore.Rot>
3.3251

> <Gold.Chemscore.Internal.Correction>
   9.000000E+99

> <Gold.Chemscore.Hbonds>
donor molecule, donor type, donor heavy atom, donor atom, acceptor molecule, acceptor atom, score
      L1  H    26    55       P1 10175  0.33
      P1  H  7989  7998       L1    12  0.18

> <Gold.Chemscore.Hbond.Weighted>
-3.4522

> <Gold.Chemscore.Metal.Weighted>
-0.0000

> <Gold.Chemscore.Lipo.Weighted>
-9.9275

> <Gold.Chemscore.Internal_Hbond.Weighted>
0.0000

> <Gold.Chemscore.DEClash.Weighted>
0.2402

> <Gold.Chemscore.DEInternal.Weighted>
0.3636

> <Gold.Chemscore.Rot.Weighted>
8.5122

> <Gold.Chemscore.Internal.Correction.Weighted>
   9.000000E+99

> <Gold.Protein.RotatedTorsions>
[ 6907 6896 6895 6894 ] final  128.39 input  -60.11 | X-H torsion
[ 7974 7965 7964 7962 ] final -145.90 input  175.53 | X-H torsion
[ 8008 7997 7996 7995 ] final  107.79 input   59.86 | X-H torsion
[ 10167 10162 10161 10158 ] final   30.37 input  -65.29 | X-H torsion
[ 10718 10713 10712 10709 ] final   29.81 input   66.30 | X-H torsion
[ 10763 10752 10751 10750 ] final  175.45 input  -60.55 | X-H torsion
[ 11005 11000 10999 10996 ] final   18.43 input  -57.11 | X-H torsion

> <Gold.Protein.ActiveResidues>
 VAL166  LYS551  ARG553  GLY616  TRP617  ASP618  TYR619  PRO620  LYS621  CYS622 
 ASP623  PHE694  ASN695  SER759  ASP760  ASP761  ALA762  ILE779  LEU786  VAL792 
 PHE793  MET794  SER795  GLU796  ALA797  LYS798  CYS799  TRP800  GLU811  SER814 

> <Gold.Protein.RotatedAtoms>
  152.3724  133.6436  159.6097 H   0  0  0  0  0  0  0  0  0  0  0  0  # atno 6907 bound_to 6896
  150.7678  133.9248  159.3418 H   0  0  0  0  0  0  0  0  0  0  0  0  # atno 6908 bound_to 6896
  151.7069  135.0921  160.0312 H   0  0  0  0  0  0  0  0  0  0  0  0  # atno 6909 bound_to 6896
  144.8196  140.5525  143.5587 H   0  0  0  0  0  0  0  0  0  0  0  0  # atno 7974 bound_to 7965
  156.1852  140.3088  155.9225 H   0  0  0  0  0  0  0  0  0  0  0  0  # atno 8008 bound_to 7997
  155.3296  140.0460  157.3059 H   0  0  0  0  0  0  0  0  0  0  0  0  # atno 8009 bound_to 7997
  154.5388  140.2255  155.8686 H   0  0  0  0  0  0  0  0  0  0  0  0  # atno 8010 bound_to 7997
  140.4684  144.0801  150.6230 H   0  0  0  0  0  0  0  0  0  0  0  0  # atno 10167 bound_to 10162
  157.2514  130.7117  149.6407 H   0  0  0  0  0  0  0  0  0  0  0  0  # atno 10718 bound_to 10713
  154.4677  135.2770  155.1666 H   0  0  0  0  0  0  0  0  0  0  0  0  # atno 10763 bound_to 10752
  154.3428  135.6166  153.5608 H   0  0  0  0  0  0  0  0  0  0  0  0  # atno 10764 bound_to 10752
  152.9861  135.5792  154.5052 H   0  0  0  0  0  0  0  0  0  0  0  0  # atno 10765 bound_to 10752
  140.4249  134.1480  155.7675 H   0  0  0  0  0  0  0  0  0  0  0  0  # atno 11005 bound_to 11000
  145.5135  139.1478  143.3591 LP  0  0  0  0  0  0  0  0  0  0  0  0  # atno 17320 bound_to 7965
  146.2501  140.5276  142.8897 LP  0  0  0  0  0  0  0  0  0  0  0  0  # atno 17321 bound_to 7965
  140.4008  143.2705  151.9950 LP  0  0  0  0  0  0  0  0  0  0  0  0  # atno 17342 bound_to 10162
  139.4815  144.5999  151.7624 LP  0  0  0  0  0  0  0  0  0  0  0  0  # atno 17343 bound_to 10162
  155.9666  130.4426  150.5389 LP  0  0  0  0  0  0  0  0  0  0  0  0  # atno 17370 bound_to 10713
  157.3274  131.0693  151.1887 LP  0  0  0  0  0  0  0  0  0  0  0  0  # atno 17371 bound_to 10713
  141.1769  133.8495  157.1391 LP  0  0  0  0  0  0  0  0  0  0  0  0  # atno 17394 bound_to 11000
  140.0174  134.9961  157.0522 LP  0  0  0  0  0  0  0  0  0  0  0  0  # atno 17395 bound_to 11000

$$$$
