AV-unprocessed.smi:1041|AV-procd|sdf|4534|dock2
  -GOLD-   22720 2563D 1   1.00000     0.00000
 Structure written by MMmdl.
 52 53  0  0  0  0  0  0  0  0  3 V2000
  144.1593  132.5322  149.6562 C   0  0  0  0  0  0  0  0  0  0  0  0
  144.5554  133.5598  150.5477 O   0  0  0  0  0  0  0  0  0  0  0  0
  145.8749  133.3779  151.0337 C   0  0  0  0  0  0  0  0  0  0  0  0
  145.9193  132.1029  151.8910 C   0  0  0  0  0  0  0  0  0  0  0  0
  147.2633  131.8519  152.4710 N   0  3  2  0  0  0  0  0  0  0  0  0
  147.3249  130.6314  153.3190 C   0  0  0  0  0  0  0  0  0  0  0  0
  148.7631  130.3520  153.7939 C   0  0  0  0  0  0  0  0  0  0  0  0
  149.3798  131.5550  154.5300 C   0  0  2  0  0  0  0  0  0  0  0  0
  148.7994  131.7301  155.9541 C   0  0  0  0  0  0  0  0  0  0  0  0
  148.7908  133.1239  156.3783 N   0  0  0  0  0  0  0  0  0  0  0  0
  149.4343  133.6214  157.4464 C   0  0  0  0  0  0  0  0  0  0  0  0
  150.0472  132.9177  158.2485 O   0  0  0  0  0  0  0  0  0  0  0  0
  149.4162  135.1432  157.6335 C   0  0  0  0  0  0  0  0  0  0  0  0
  148.8543  135.6714  158.9556 C   0  0  0  0  0  0  0  0  0  0  0  0
  147.5980  135.3878  159.4032 C   0  0  0  0  0  0  0  0  0  0  0  0
  146.6295  134.5032  158.6384 C   0  0  0  0  0  0  0  0  0  0  0  0
  147.1227  135.9155  160.6156 N   0  0  0  0  0  0  0  0  0  0  0  0
  147.8760  136.6836  161.3064 C   0  0  0  0  0  0  0  0  0  0  0  0
  147.3561  137.2465  162.6119 C   0  0  0  0  0  0  0  0  0  0  0  0
  149.1514  137.0463  160.9344 N   0  5  0  0  0  0  0  0  0  0  0  0
  149.6885  136.5668  159.7770 C   0  0  0  0  0  0  0  0  0  0  0  0
  150.8203  136.8736  159.4043 O   0  0  0  0  0  0  0  0  0  0  0  0
  149.2477  132.8068  153.6368 C   0  0  0  0  0  0  0  0  0  0  0  0
  147.7978  133.0413  153.1822 C   0  0  0  0  0  0  0  0  0  0  0  0
  143.1389  132.7121  149.3184 H   0  0  0  0  0  0  0  0  0  0  0  0
  144.1862  131.5559  150.1416 H   0  0  0  0  0  0  0  0  0  0  0  0
  144.8048  132.5047  148.7772 H   0  0  0  0  0  0  0  0  0  0  0  0
  146.5583  133.2692  150.1901 H   0  0  0  0  0  0  0  0  0  0  0  0
  146.2039  134.2519  151.5959 H   0  0  0  0  0  0  0  0  0  0  0  0
  145.1878  132.2122  152.6930 H   0  0  0  0  0  0  0  0  0  0  0  0
  145.6052  131.2375  151.3057 H   0  0  0  0  0  0  0  0  0  0  0  0
  146.6542  130.7429  154.1718 H   0  0  0  0  0  0  0  0  0  0  0  0
  146.9735  129.7649  152.7611 H   0  0  0  0  0  0  0  0  0  0  0  0
  148.7823  129.4682  154.4325 H   0  0  0  0  0  0  0  0  0  0  0  0
  149.3797  130.1103  152.9271 H   0  0  0  0  0  0  0  0  0  0  0  0
  150.4448  131.3499  154.6457 H   0  0  0  0  0  0  0  0  0  0  0  0
  147.7726  131.3693  156.0017 H   0  0  0  0  0  0  0  0  0  0  0  0
  149.3647  131.1327  156.6714 H   0  0  0  0  0  0  0  0  0  0  0  0
  148.3073  133.7783  155.7795 H   0  0  0  0  0  0  0  0  0  0  0  0
  150.4386  135.5005  157.5126 H   0  0  0  0  0  0  0  0  0  0  0  0
  148.8708  135.5848  156.7990 H   0  0  0  0  0  0  0  0  0  0  0  0
  146.9987  133.4780  158.6009 H   0  0  0  0  0  0  0  0  0  0  0  0
  146.5020  134.8651  157.6179 H   0  0  0  0  0  0  0  0  0  0  0  0
  145.6477  134.4897  159.1134 H   0  0  0  0  0  0  0  0  0  0  0  0
  148.1375  137.2388  163.3728 H   0  0  0  0  0  0  0  0  0  0  0  0
  146.5166  136.6577  162.9842 H   0  0  0  0  0  0  0  0  0  0  0  0
  147.0203  138.2740  162.4703 H   0  0  0  0  0  0  0  0  0  0  0  0
  149.6294  133.6940  154.1426 H   0  0  0  0  0  0  0  0  0  0  0  0
  149.8763  132.6802  152.7543 H   0  0  0  0  0  0  0  0  0  0  0  0
  147.7731  133.9069  152.5190 H   0  0  0  0  0  0  0  0  0  0  0  0
  147.1612  133.2813  154.0351 H   0  0  0  0  0  0  0  0  0  0  0  0
  147.8825  131.6971  151.6880 H   0  0  0  0  0  0  0  0  0  0  0  0
  1  2  1  0  0  0  0
  1 25  1  0  0  0  0
  1 26  1  0  0  0  0
  1 27  1  0  0  0  0
  2  3  1  0  0  0  0
  3  4  1  0  0  0  0
  3 28  1  0  0  0  0
  3 29  1  0  0  0  0
  4  5  1  0  0  0  0
  4 30  1  0  0  0  0
  4 31  1  0  0  0  0
  5 24  1  0  0  0  0
  5  6  1  0  0  0  0
  5 52  1  0  0  0  0
  6  7  1  0  0  0  0
  6 32  1  0  0  0  0
  6 33  1  0  0  0  0
  7  8  1  0  0  0  0
  7 34  1  0  0  0  0
  7 35  1  0  0  0  0
  8  9  1  0  0  0  0
  8 23  1  0  0  0  0
  8 36  1  0  0  0  0
  9 10  1  0  0  0  0
  9 37  1  0  0  0  0
  9 38  1  0  0  0  0
 10 11  1  0  0  0  0
 10 39  1  0  0  0  0
 11 12  2  0  0  0  0
 11 13  1  0  0  0  0
 13 14  1  0  0  0  0
 13 40  1  0  0  0  0
 13 41  1  0  0  0  0
 14 21  1  0  0  0  0
 14 15  2  0  0  0  0
 15 16  1  0  0  0  0
 15 17  1  0  0  0  0
 16 42  1  0  0  0  0
 16 43  1  0  0  0  0
 16 44  1  0  0  0  0
 17 18  2  0  0  0  0
 18 19  1  0  0  0  0
 18 20  1  0  0  0  0
 19 45  1  0  0  0  0
 19 46  1  0  0  0  0
 19 47  1  0  0  0  0
 20 21  1  0  0  0  0
 21 22  2  0  0  0  0
 23 24  1  0  0  0  0
 23 48  1  0  0  0  0
 23 49  1  0  0  0  0
 24 50  1  0  0  0  0
 24 51  1  0  0  0  0
M  CHG  1   5   1
M  CHG  1  20  -1
M  END
> <s_m_source_file>
AV-unprocessed.smi

> <i_m_source_file_index>
1041

> <i_lp_mmshare_version>
43012

> <i_f3d_flags>
0

> <s_epik_input>
W0NIM11PW0NIMl1bQ0gyXU4xW0NIMl1bQ0gyXVtDSF0oW0NIMl1bQ0gyXTEpW0NIMl1bTkhdQyg9TylbQ0gyXWMyYyhbQ0gzXSluYyhbQ0gzXSlbbkhdYzI9Tw==

> <s_epik_cmdline>
J2VwaWtfcHl0aG9uJywgJy1waCcsICc3LjAnLCAnLXRuJywgJzgnLCAnLW1hJywgJzIwMCcsICctbWV0YWxfYmluZGluZycsICctaW1hZScsICc8aW5maWxlLm1hZT4nLCAnLW9tYWUnLCAnPG91dGZpbGUubWFlPic=

> <r_lp_tautomer_probability>
0.839158

> <r_epik_Ionization_Penalty>
6.54961

> <r_epik_Ionization_Penalty_Charging>
0.00968647

> <r_epik_Ionization_Penalty_Neutral>
6.53992

> <r_epik_State_Penalty>
4.43892

> <r_epik_Charging_Adjusted_Penalty>
4.44861

> <i_epik_Tot_Q>
0

> <i_epik_Tot_abs_Q>
2

> <r_epik_Metal_State_Penalty>
0.818645

> <b_epik_Metal_Only>
1

> <s_lp_Force_Field>
OPLS_2005

> <r_lp_Energy>
22.1122

> <b_lp_Chiralities_Consistent>
1

> <s_lp_Variant>
AV-unprocessed.smi:1041-7

> <Gold.Version>
5.8.1

> <Gold.Id.Protein>
6NUR|6NUR_protein|mol2

> <Gold.PLP.Fitness>
49.4654

> <Gold.PLP.PLP>
-35.3038

> <Gold.PLP.part.hbond>
-4.5514

> <Gold.PLP.part.metal>
0.0000

> <Gold.PLP.part.buried>
-5.9971

> <Gold.PLP.part.nonpolar>
-26.9185

> <Gold.PLP.part.repulsive>
0.1621

> <Gold.PLP.ligand.clash>
0.0000

> <Gold.PLP.ligand.torsion>
0.4674

> <Gold.PLP.Chemscore.Hbond>
5.0000

> <Gold.PLP.Chemscore.CHOScore>
0.0000

> <Gold.PLP.Chemscore.Metal>
0.0000

> <Gold.Chemscore.Hbonds>
donor molecule, donor type, donor heavy atom, donor atom, acceptor molecule, acceptor atom, score
      L1  H     5    52       P1 10747  1.00
      P1  H  6896  6907       L1    22  0.20
      P1  H  6896  6909       L1    12  0.93
      P1  H  6931  6943       L1    20  0.80

> <Gold.PLP.Chemscore.Internal.Correction>
0.0964

> <Gold.Rescore>
     Score         DG    S(hbond)    S(metal)    S(lipo)     H(rot)  DE(clash)    DE(int)     intcor
     19.42     -20.23       3.77        0.00      69.92       2.35       0.01       0.80       ----

> <Gold.Chemscore.Fitness>
19.4216

> <Gold.Chemscore.DG>
-20.2302

> <Gold.Chemscore.ZeroCoef>
-5.4800

> <Gold.Chemscore.Hbond>
3.7697

> <Gold.Chemscore.Metal>
0.0000

> <Gold.Chemscore.Lipo>
69.9177

> <Gold.Chemscore.Internal_Hbond>
0.0000

> <Gold.Chemscore.DEClash>
0.0089

> <Gold.Chemscore.DEInternal>
0.7998

> <Gold.Chemscore.Rot>
2.3520

> <Gold.Chemscore.Internal.Correction>
   9.000000E+99

> <Gold.Chemscore.Hbonds>
donor molecule, donor type, donor heavy atom, donor atom, acceptor molecule, acceptor atom, score
      L1  H     5    52       P1 10747  0.98
      P1  H  6896  6909       L1    12  0.87
      P1  H  6931  6943       L1    20  0.02

> <Gold.Chemscore.Hbond.Weighted>
-12.5909

> <Gold.Chemscore.Metal.Weighted>
-0.0000

> <Gold.Chemscore.Lipo.Weighted>
-8.1804

> <Gold.Chemscore.Internal_Hbond.Weighted>
0.0000

> <Gold.Chemscore.DEClash.Weighted>
0.0089

> <Gold.Chemscore.DEInternal.Weighted>
0.7998

> <Gold.Chemscore.Rot.Weighted>
6.0211

> <Gold.Chemscore.Internal.Correction.Weighted>
   9.000000E+99

> <Gold.Protein.RotatedTorsions>
[ 6907 6896 6895 6894 ] final  -20.71 input  -60.11 | X-H torsion
[ 7974 7965 7964 7962 ] final -106.53 input  175.53 | X-H torsion
[ 8008 7997 7996 7995 ] final -169.89 input   59.86 | X-H torsion
[ 10167 10162 10161 10158 ] final  103.81 input  -65.29 | X-H torsion
[ 10718 10713 10712 10709 ] final  115.29 input   66.30 | X-H torsion
[ 10763 10752 10751 10750 ] final   93.46 input  -60.55 | X-H torsion
[ 11005 11000 10999 10996 ] final  144.36 input  -57.11 | X-H torsion

> <Gold.Protein.ActiveResidues>
 VAL166  LYS551  ARG553  GLY616  TRP617  ASP618  TYR619  PRO620  LYS621  CYS622 
 ASP623  PHE694  ASN695  SER759  ASP760  ASP761  ALA762  ILE779  LEU786  VAL792 
 PHE793  MET794  SER795  GLU796  ALA797  LYS798  CYS799  TRP800  GLU811  SER814 

> <Gold.Protein.RotatedAtoms>
  151.2441  135.0599  159.9036 H   0  0  0  0  0  0  0  0  0  0  0  0  # atno 6907 bound_to 6896
  152.5389  134.0402  159.8074 H   0  0  0  0  0  0  0  0  0  0  0  0  # atno 6908 bound_to 6896
  151.0601  133.5502  159.2666 H   0  0  0  0  0  0  0  0  0  0  0  0  # atno 6909 bound_to 6896
  145.2167  140.9118  143.3283 H   0  0  0  0  0  0  0  0  0  0  0  0  # atno 7974 bound_to 7965
  155.9110  140.1057  157.1279 H   0  0  0  0  0  0  0  0  0  0  0  0  # atno 8008 bound_to 7997
  154.4039  140.1274  156.4622 H   0  0  0  0  0  0  0  0  0  0  0  0  # atno 8009 bound_to 7997
  155.7310  140.3468  155.5061 H   0  0  0  0  0  0  0  0  0  0  0  0  # atno 8010 bound_to 7997
  139.7231  144.7054  151.0841 H   0  0  0  0  0  0  0  0  0  0  0  0  # atno 10167 bound_to 10162
  157.6230  131.1010  150.7309 H   0  0  0  0  0  0  0  0  0  0  0  0  # atno 10718 bound_to 10713
  153.2305  135.4325  155.0590 H   0  0  0  0  0  0  0  0  0  0  0  0  # atno 10763 bound_to 10752
  154.8294  135.3378  154.6794 H   0  0  0  0  0  0  0  0  0  0  0  0  # atno 10764 bound_to 10752
  153.7222  135.7016  153.5066 H   0  0  0  0  0  0  0  0  0  0  0  0  # atno 10765 bound_to 10752
  140.0626  134.9196  157.1210 H   0  0  0  0  0  0  0  0  0  0  0  0  # atno 11005 bound_to 11000
  144.9804  139.3789  143.6265 LP  0  0  0  0  0  0  0  0  0  0  0  0  # atno 17320 bound_to 7965
  146.3385  139.8942  142.8804 LP  0  0  0  0  0  0  0  0  0  0  0  0  # atno 17321 bound_to 7965
  140.7757  143.5140  150.9617 LP  0  0  0  0  0  0  0  0  0  0  0  0  # atno 17342 bound_to 10162
  139.8828  143.7051  152.3155 LP  0  0  0  0  0  0  0  0  0  0  0  0  # atno 17343 bound_to 10162
  156.7662  130.4814  149.5427 LP  0  0  0  0  0  0  0  0  0  0  0  0  # atno 17370 bound_to 10713
  156.1387  130.6229  151.0436 LP  0  0  0  0  0  0  0  0  0  0  0  0  # atno 17371 bound_to 10713
  140.3747  134.2352  155.7175 LP  0  0  0  0  0  0  0  0  0  0  0  0  # atno 17394 bound_to 11000
  141.1979  133.8047  157.0604 LP  0  0  0  0  0  0  0  0  0  0  0  0  # atno 17395 bound_to 11000

$$$$
