AV-unprocessed.smi:484|AV-procd|sdf|2687|dock5
  -GOLD-   2262023113D 1   1.00000     0.00000
 Structure written by MMmdl.
 46 48  0  0  0  0  0  0  0  0  1 V2000
  152.7475  143.6848  159.5318 C   0  0  0  0  0  0  0  0  0  0  0  0
  151.9519  143.7902  158.2262 C   0  0  0  0  0  0  0  0  0  0  0  0
  151.6564  142.4299  157.6235 C   0  0  0  0  0  0  0  0  0  0  0  0
  150.9019  142.3285  156.4379 C   0  0  0  0  0  0  0  0  0  0  0  0
  150.6232  141.0646  155.8837 C   0  0  0  0  0  0  0  0  0  0  0  0
  151.0916  139.8861  156.4994 C   0  0  0  0  0  0  0  0  0  0  0  0
  150.7729  138.6931  155.8879 O   0  0  0  0  0  0  0  0  0  0  0  0
  151.4536  137.5170  156.3077 C   0  0  0  0  0  0  0  0  0  0  0  0
  150.8825  136.2920  155.5761 C   0  0  2  0  0  0  0  0  0  0  0  0
  151.2870  136.3302  154.2222 O   0  0  0  0  0  0  0  0  0  0  0  0
  149.3524  136.1491  155.7108 C   0  0  0  0  0  0  0  0  0  0  0  0
  148.8415  134.9540  155.0534 N   0  0  0  0  0  0  0  0  0  0  0  0
  147.7105  134.8219  154.3158 C   0  0  0  0  0  0  0  0  0  0  0  0
  146.7857  135.9719  154.0575 C   0  0  0  0  0  0  0  0  0  0  0  0
  146.5522  136.1842  152.6818 O   0  0  0  0  0  0  0  0  0  0  0  0
  147.4747  133.6039  153.8271 N   0  0  0  0  0  0  0  0  0  0  0  0
  148.5564  132.8780  154.2865 C   0  0  0  0  0  0  0  0  0  0  0  0
  148.8916  131.5168  154.1066 C   0  0  0  0  0  0  0  0  0  0  0  0
  150.0679  130.9897  154.6789 C   0  0  0  0  0  0  0  0  0  0  0  0
  150.9241  131.8141  155.4374 C   0  0  0  0  0  0  0  0  0  0  0  0
  150.6087  133.1729  155.6290 C   0  0  0  0  0  0  0  0  0  0  0  0
  149.4330  133.6944  155.0560 C   0  0  0  0  0  0  0  0  0  0  0  0
  151.8501  139.9944  157.6925 C   0  0  0  0  0  0  0  0  0  0  0  0
  152.1285  141.2583  158.2483 C   0  0  0  0  0  0  0  0  0  0  0  0
  152.9485  144.6732  159.9453 H   0  0  0  0  0  0  0  0  0  0  0  0
  153.7058  143.1902  159.3698 H   0  0  0  0  0  0  0  0  0  0  0  0
  152.1986  143.1151  160.2825 H   0  0  0  0  0  0  0  0  0  0  0  0
  151.0125  144.3141  158.4058 H   0  0  0  0  0  0  0  0  0  0  0  0
  152.5051  144.3923  157.5043 H   0  0  0  0  0  0  0  0  0  0  0  0
  150.5327  143.2194  155.9510 H   0  0  0  0  0  0  0  0  0  0  0  0
  150.0429  140.9990  154.9751 H   0  0  0  0  0  0  0  0  0  0  0  0
  152.5271  137.5990  156.1281 H   0  0  0  0  0  0  0  0  0  0  0  0
  151.3055  137.3836  157.3806 H   0  0  0  0  0  0  0  0  0  0  0  0
  151.3558  135.4073  156.0021 H   0  0  0  0  0  0  0  0  0  0  0  0
  150.5142  136.3028  153.6789 H   0  0  0  0  0  0  0  0  0  0  0  0
  149.0665  136.1251  156.7623 H   0  0  0  0  0  0  0  0  0  0  0  0
  148.8480  137.0163  155.2836 H   0  0  0  0  0  0  0  0  0  0  0  0
  145.8296  135.7828  154.5471 H   0  0  0  0  0  0  0  0  0  0  0  0
  147.1896  136.8814  154.5012 H   0  0  0  0  0  0  0  0  0  0  0  0
  147.3710  136.0876  152.2205 H   0  0  0  0  0  0  0  0  0  0  0  0
  148.2420  130.8775  153.5274 H   0  0  0  0  0  0  0  0  0  0  0  0
  150.3143  129.9477  154.5351 H   0  0  0  0  0  0  0  0  0  0  0  0
  151.8231  131.4026  155.8722 H   0  0  0  0  0  0  0  0  0  0  0  0
  151.2613  133.8063  156.2109 H   0  0  0  0  0  0  0  0  0  0  0  0
  152.2296  139.1223  158.2027 H   0  0  0  0  0  0  0  0  0  0  0  0
  152.7061  141.3249  159.1588 H   0  0  0  0  0  0  0  0  0  0  0  0
  1  2  1  0  0  0  0
  1 25  1  0  0  0  0
  1 26  1  0  0  0  0
  1 27  1  0  0  0  0
  2  3  1  0  0  0  0
  2 28  1  0  0  0  0
  2 29  1  0  0  0  0
  3 24  1  0  0  0  0
  3  4  2  0  0  0  0
  4  5  1  0  0  0  0
  4 30  1  0  0  0  0
  5  6  2  0  0  0  0
  5 31  1  0  0  0  0
  6  7  1  0  0  0  0
  6 23  1  0  0  0  0
  7  8  1  0  0  0  0
  8  9  1  0  0  0  0
  8 32  1  0  0  0  0
  8 33  1  0  0  0  0
  9 10  1  0  0  0  0
  9 11  1  0  0  0  0
  9 34  1  0  0  0  0
 10 35  1  0  0  0  0
 11 12  1  0  0  0  0
 11 36  1  0  0  0  0
 11 37  1  0  0  0  0
 12 22  1  0  0  0  0
 12 13  1  0  0  0  0
 13 14  1  0  0  0  0
 13 16  2  0  0  0  0
 14 15  1  0  0  0  0
 14 38  1  0  0  0  0
 14 39  1  0  0  0  0
 15 40  1  0  0  0  0
 16 17  1  0  0  0  0
 17 22  2  0  0  0  0
 17 18  1  0  0  0  0
 18 19  2  0  0  0  0
 18 41  1  0  0  0  0
 19 20  1  0  0  0  0
 19 42  1  0  0  0  0
 20 21  2  0  0  0  0
 20 43  1  0  0  0  0
 21 22  1  0  0  0  0
 21 44  1  0  0  0  0
 23 24  2  0  0  0  0
 23 45  1  0  0  0  0
 24 46  1  0  0  0  0
M  END
> <s_m_source_file>
AV-unprocessed.smi

> <i_m_source_file_index>
484

> <i_lp_mmshare_version>
43012

> <i_f3d_flags>
0

> <s_epik_input>
W0NIM11bQ0gyXWMxW2NIXVtjSF1jKFtjSF1bY0hdMSlPW0NIMl1bQ0BIXShbT0hdKVtDSDJdbihjKG4yKVtDSDJdW09IXSljKGMyMylbY0hdW2NIXVtjSF1bY0hdMw==

> <s_epik_cmdline>
J2VwaWtfcHl0aG9uJywgJy1waCcsICc3LjAnLCAnLXRuJywgJzgnLCAnLW1hJywgJzIwMCcsICctbWV0YWxfYmluZGluZycsICctaW1hZScsICc8aW5maWxlLm1hZT4nLCAnLW9tYWUnLCAnPG91dGZpbGUubWFlPic=

> <r_lp_tautomer_probability>
1

> <r_epik_Ionization_Penalty>
0.0555463

> <r_epik_Ionization_Penalty_Charging>
0

> <r_epik_Ionization_Penalty_Neutral>
0.0555463

> <r_epik_State_Penalty>
0.0477854

> <r_epik_Charging_Adjusted_Penalty>
0.0477854

> <i_epik_Tot_Q>
0

> <i_epik_Tot_abs_Q>
0

> <r_epik_Metal_State_Penalty>
4.97632e-05

> <b_epik_Metal_Only>
0

> <s_lp_Force_Field>
OPLS_2005

> <r_lp_Energy>
15.7427

> <b_lp_Chiralities_Consistent>
1

> <s_lp_Variant>
AV-unprocessed.smi:484-1

> <Gold.Version>
5.8.1

> <Gold.Id.Protein>
6NUR|6NUR_protein|mol2

> <Gold.PLP.Fitness>
45.6548

> <Gold.PLP.PLP>
-40.3679

> <Gold.PLP.part.hbond>
-3.1713

> <Gold.PLP.part.metal>
0.0000

> <Gold.PLP.part.buried>
-3.2706

> <Gold.PLP.part.nonpolar>
-33.3292

> <Gold.PLP.part.repulsive>
0.0835

> <Gold.PLP.ligand.clash>
0.0000

> <Gold.PLP.ligand.torsion>
0.5015

> <Gold.PLP.Chemscore.Hbond>
2.0488

> <Gold.PLP.Chemscore.CHOScore>
0.0000

> <Gold.PLP.Chemscore.Metal>
0.0000

> <Gold.Chemscore.Hbonds>
donor molecule, donor type, donor heavy atom, donor atom, acceptor molecule, acceptor atom, score
      L1  H    10    35       P1  7948  0.07
      L1  H    15    40       P1  7948  1.00
      P1  H 10752 10763       L1    10  1.00

> <Gold.PLP.Chemscore.Internal.Correction>
0.1437

> <Gold.Rescore>
     Score         DG    S(hbond)    S(metal)    S(lipo)     H(rot)  DE(clash)    DE(int)     intcor
     16.80     -17.43       1.96        0.00     113.57       3.08       0.09       0.54       ----

> <Gold.Chemscore.Fitness>
16.8020

> <Gold.Chemscore.DG>
-17.4313

> <Gold.Chemscore.ZeroCoef>
-5.4800

> <Gold.Chemscore.Hbond>
1.9594

> <Gold.Chemscore.Metal>
0.0000

> <Gold.Chemscore.Lipo>
113.5673

> <Gold.Chemscore.Internal_Hbond>
0.0000

> <Gold.Chemscore.DEClash>
0.0906

> <Gold.Chemscore.DEInternal>
0.5386

> <Gold.Chemscore.Rot>
3.0783

> <Gold.Chemscore.Internal.Correction>
   9.000000E+99

> <Gold.Chemscore.Hbonds>
donor molecule, donor type, donor heavy atom, donor atom, acceptor molecule, acceptor atom, score
      L1  H    15    40       P1  7948  0.99
      P1  H 10752 10763       L1    10  0.26

> <Gold.Chemscore.Hbond.Weighted>
-6.5444

> <Gold.Chemscore.Metal.Weighted>
-0.0000

> <Gold.Chemscore.Lipo.Weighted>
-13.2874

> <Gold.Chemscore.Internal_Hbond.Weighted>
0.0000

> <Gold.Chemscore.DEClash.Weighted>
0.0906

> <Gold.Chemscore.DEInternal.Weighted>
0.5386

> <Gold.Chemscore.Rot.Weighted>
7.8805

> <Gold.Chemscore.Internal.Correction.Weighted>
   9.000000E+99

> <Gold.Protein.RotatedTorsions>
[ 6907 6896 6895 6894 ] final  173.74 input  -60.11 | X-H torsion
[ 7974 7965 7964 7962 ] final   25.68 input  175.53 | X-H torsion
[ 8008 7997 7996 7995 ] final  175.74 input   59.86 | X-H torsion
[ 10167 10162 10161 10158 ] final   13.06 input  -65.29 | X-H torsion
[ 10718 10713 10712 10709 ] final  119.72 input   66.30 | X-H torsion
[ 10763 10752 10751 10750 ] final   46.96 input  -60.55 | X-H torsion
[ 11005 11000 10999 10996 ] final   -0.81 input  -57.11 | X-H torsion

> <Gold.Protein.ActiveResidues>
 VAL166  LYS551  ARG553  GLY616  TRP617  ASP618  TYR619  PRO620  LYS621  CYS622 
 ASP623  PHE694  ASN695  SER759  ASP760  ASP761  ALA762  ILE779  LEU786  VAL792 
 PHE793  MET794  SER795  GLU796  ALA797  LYS798  CYS799  TRP800  GLU811  SER814 

> <Gold.Protein.RotatedAtoms>
  151.7634  133.3335  159.3423 H   0  0  0  0  0  0  0  0  0  0  0  0  # atno 6907 bound_to 6896
  150.7489  134.6084  159.6083 H   0  0  0  0  0  0  0  0  0  0  0  0  # atno 6908 bound_to 6896
  152.3390  134.7162  160.0320 H   0  0  0  0  0  0  0  0  0  0  0  0  # atno 6909 bound_to 6896
  146.1876  139.7432  142.8855 H   0  0  0  0  0  0  0  0  0  0  0  0  # atno 7974 bound_to 7965
  156.0838  140.1401  156.9678 H   0  0  0  0  0  0  0  0  0  0  0  0  # atno 8008 bound_to 7997
  154.4601  140.0946  156.6917 H   0  0  0  0  0  0  0  0  0  0  0  0  # atno 8009 bound_to 7997
  155.5031  140.3451  155.4377 H   0  0  0  0  0  0  0  0  0  0  0  0  # atno 8010 bound_to 7997
  140.6027  143.8571  150.6982 H   0  0  0  0  0  0  0  0  0  0  0  0  # atno 10167 bound_to 10162
  157.5941  131.1060  150.7936 H   0  0  0  0  0  0  0  0  0  0  0  0  # atno 10718 bound_to 10713
  152.9805  135.5991  154.3685 H   0  0  0  0  0  0  0  0  0  0  0  0  # atno 10763 bound_to 10752
  154.3360  135.2768  155.2449 H   0  0  0  0  0  0  0  0  0  0  0  0  # atno 10764 bound_to 10752
  154.4551  135.5980  153.6273 H   0  0  0  0  0  0  0  0  0  0  0  0  # atno 10765 bound_to 10752
  140.6404  133.9495  155.8323 H   0  0  0  0  0  0  0  0  0  0  0  0  # atno 11005 bound_to 11000
  145.3891  141.0370  143.3134 LP  0  0  0  0  0  0  0  0  0  0  0  0  # atno 17320 bound_to 7965
  144.8426  139.5447  143.6893 LP  0  0  0  0  0  0  0  0  0  0  0  0  # atno 17321 bound_to 7965
  140.2121  143.3875  152.1710 LP  0  0  0  0  0  0  0  0  0  0  0  0  # atno 17342 bound_to 10162
  139.5302  144.7150  151.5082 LP  0  0  0  0  0  0  0  0  0  0  0  0  # atno 17343 bound_to 10162
  156.8351  130.5029  149.5327 LP  0  0  0  0  0  0  0  0  0  0  0  0  # atno 17370 bound_to 10713
  156.1001  130.5962  150.9879 LP  0  0  0  0  0  0  0  0  0  0  0  0  # atno 17371 bound_to 10713
  141.0611  134.0345  157.3657 LP  0  0  0  0  0  0  0  0  0  0  0  0  # atno 17394 bound_to 11000
  139.9082  135.0184  156.7580 LP  0  0  0  0  0  0  0  0  0  0  0  0  # atno 17395 bound_to 11000

$$$$
