AV-unprocessed.smi:1352|AV-procd|sdf|5529|dock4
  -GOLD-   22720 5113D 1   1.00000     0.00000
 Structure written by MMmdl.
 47 48  0  0  0  0  0  0  0  0  2 V2000
  152.0282  139.6544  155.3185 C   0  0  0  0  0  0  0  0  0  0  0  0
  150.5189  139.4415  155.1346 C   0  0  1  0  0  0  0  0  0  0  0  0
  149.8169  140.7457  154.7166 C   0  0  0  0  0  0  0  0  0  0  0  0
  148.3133  140.5149  154.4856 C   0  0  1  0  0  0  0  0  0  0  0  0
  147.6109  141.8058  154.0423 C   0  0  0  0  0  0  0  0  0  0  0  0
  148.1048  139.3807  153.4604 C   0  0  0  0  0  0  0  0  0  0  0  0
  148.7747  138.1202  153.8758 N   0  3  2  0  0  0  0  0  0  0  0  0
  148.0604  137.3990  154.9629 C   0  0  0  0  0  0  0  0  0  0  0  0
  146.6015  137.0730  154.5902 C   0  0  0  0  0  0  0  0  0  0  0  0
  146.5007  136.5301  153.2405 N   0  0  0  0  0  0  0  0  0  0  0  0
  145.3868  136.0126  152.7011 C   0  0  0  0  0  0  0  0  0  0  0  0
  144.3227  135.9233  153.3152 O   0  0  0  0  0  0  0  0  0  0  0  0
  145.5114  135.5039  151.2575 C   0  0  0  0  0  0  0  0  0  0  0  0
  145.3371  134.0470  151.1334 N   0  0  0  0  0  0  0  0  0  0  0  0
  144.1990  133.5935  150.4368 C   0  0  0  0  0  0  0  0  0  0  0  0
  143.9452  132.2865  150.2660 C   0  0  0  0  0  0  0  0  0  0  0  0
  144.8767  131.3322  150.8194 C   0  0  0  0  0  0  0  0  0  0  0  0
  145.9703  131.7551  151.4842 C   0  0  0  0  0  0  0  0  0  0  0  0
  146.2533  133.1830  151.6706 C   0  0  0  0  0  0  0  0  0  0  0  0
  147.2525  133.5788  152.2718 O   0  0  0  0  0  0  0  0  0  0  0  0
  150.2312  138.3228  154.1087 C   0  0  0  0  0  0  0  0  0  0  0  0
  152.5026  139.9636  154.3865 H   0  0  0  0  0  0  0  0  0  0  0  0
  152.5163  138.7384  155.6525 H   0  0  0  0  0  0  0  0  0  0  0  0
  152.2280  140.4240  156.0647 H   0  0  0  0  0  0  0  0  0  0  0  0
  150.1210  139.1392  156.1036 H   0  0  0  0  0  0  0  0  0  0  0  0
  149.9626  141.5076  155.4835 H   0  0  0  0  0  0  0  0  0  0  0  0
  150.2732  141.1338  153.8046 H   0  0  0  0  0  0  0  0  0  0  0  0
  147.8652  140.2126  155.4331 H   0  0  0  0  0  0  0  0  0  0  0  0
  148.0098  142.1704  153.0951 H   0  0  0  0  0  0  0  0  0  0  0  0
  147.7382  142.5962  154.7828 H   0  0  0  0  0  0  0  0  0  0  0  0
  146.5399  141.6461  153.9132 H   0  0  0  0  0  0  0  0  0  0  0  0
  147.0418  139.2020  153.2926 H   0  0  0  0  0  0  0  0  0  0  0  0
  148.5139  139.6816  152.4949 H   0  0  0  0  0  0  0  0  0  0  0  0
  148.5953  136.4924  155.2447 H   0  0  0  0  0  0  0  0  0  0  0  0
  148.0519  138.0309  155.8517 H   0  0  0  0  0  0  0  0  0  0  0  0
  146.1711  136.3709  155.3063 H   0  0  0  0  0  0  0  0  0  0  0  0
  145.9824  137.9686  154.6230 H   0  0  0  0  0  0  0  0  0  0  0  0
  147.3329  136.5640  152.6690 H   0  0  0  0  0  0  0  0  0  0  0  0
  144.7856  136.0213  150.6272 H   0  0  0  0  0  0  0  0  0  0  0  0
  146.4873  135.8059  150.8752 H   0  0  0  0  0  0  0  0  0  0  0  0
  143.5557  134.3698  150.0489 H   0  0  0  0  0  0  0  0  0  0  0  0
  143.0693  131.9574  149.7262 H   0  0  0  0  0  0  0  0  0  0  0  0
  144.6967  130.2742  150.6989 H   0  0  0  0  0  0  0  0  0  0  0  0
  146.6565  131.0266  151.8906 H   0  0  0  0  0  0  0  0  0  0  0  0
  150.6879  138.5843  153.1531 H   0  0  0  0  0  0  0  0  0  0  0  0
  150.7047  137.3917  154.4175 H   0  0  0  0  0  0  0  0  0  0  0  0
  148.7031  137.5087  153.0749 H   0  0  0  0  0  0  0  0  0  0  0  0
  1  2  1  0  0  0  0
  1 22  1  0  0  0  0
  1 23  1  0  0  0  0
  1 24  1  0  0  0  0
  2 21  1  0  0  0  0
  2  3  1  0  0  0  0
  2 25  1  0  0  0  0
  3  4  1  0  0  0  0
  3 26  1  0  0  0  0
  3 27  1  0  0  0  0
  4  5  1  0  0  0  0
  4  6  1  0  0  0  0
  4 28  1  0  0  0  0
  5 29  1  0  0  0  0
  5 30  1  0  0  0  0
  5 31  1  0  0  0  0
  6  7  1  0  0  0  0
  6 32  1  0  0  0  0
  6 33  1  0  0  0  0
  7  8  1  0  0  0  0
  7 21  1  0  0  0  0
  7 47  1  0  0  0  0
  8  9  1  0  0  0  0
  8 34  1  0  0  0  0
  8 35  1  0  0  0  0
  9 10  1  0  0  0  0
  9 36  1  0  0  0  0
  9 37  1  0  0  0  0
 10 11  1  0  0  0  0
 10 38  1  0  0  0  0
 11 12  2  0  0  0  0
 11 13  1  0  0  0  0
 13 14  1  0  0  0  0
 13 39  1  0  0  0  0
 13 40  1  0  0  0  0
 14 19  1  0  0  0  0
 14 15  1  0  0  0  0
 15 16  2  0  0  0  0
 15 41  1  0  0  0  0
 16 17  1  0  0  0  0
 16 42  1  0  0  0  0
 17 18  2  0  0  0  0
 17 43  1  0  0  0  0
 18 19  1  0  0  0  0
 18 44  1  0  0  0  0
 19 20  2  0  0  0  0
 21 45  1  0  0  0  0
 21 46  1  0  0  0  0
M  CHG  1   7   1
M  END
> <s_m_source_file>
AV-unprocessed.smi

> <i_m_source_file_index>
1352

> <i_lp_mmshare_version>
43012

> <i_f3d_flags>
0

> <s_epik_input>
W0NIM11bQ0BASF0xW0NIMl1bQ0BASF0oW0NIM10pW0NIMl1OKFtDSDJdMSlbQ0gyXVtDSDJdW05IXUMoPU8pW0NIMl1uMltjSF1bY0hdW2NIXVtjSF1jMj1P

> <s_epik_cmdline>
J2VwaWtfcHl0aG9uJywgJy1waCcsICc3LjAnLCAnLXRuJywgJzgnLCAnLW1hJywgJzIwMCcsICctbWV0YWxfYmluZGluZycsICctaW1hZScsICc8aW5maWxlLm1hZT4nLCAnLW9tYWUnLCAnPG91dGZpbGUubWFlPic=

> <r_lp_tautomer_probability>
1

> <r_epik_Ionization_Penalty>
0.00156146

> <r_epik_Ionization_Penalty_Charging>
0.00156138

> <r_epik_Ionization_Penalty_Neutral>
8.12891e-08

> <r_epik_State_Penalty>
0.00104868

> <r_epik_Charging_Adjusted_Penalty>
0.00261006

> <i_epik_Tot_Q>
1

> <i_epik_Tot_abs_Q>
1

> <r_epik_Metal_State_Penalty>
-0

> <b_epik_Metal_Only>
0

> <s_lp_Force_Field>
OPLS_2005

> <r_lp_Energy>
27.4422

> <b_lp_Chiralities_Consistent>
1

> <s_lp_Variant>
AV-unprocessed.smi:1352-2

> <Gold.Version>
5.8.1

> <Gold.Id.Protein>
6NUR|6NUR_protein|mol2

> <Gold.PLP.Fitness>
50.0792

> <Gold.PLP.PLP>
-38.3706

> <Gold.PLP.part.hbond>
-2.0000

> <Gold.PLP.part.metal>
0.0000

> <Gold.PLP.part.buried>
-1.6785

> <Gold.PLP.part.nonpolar>
-35.5812

> <Gold.PLP.part.repulsive>
0.2654

> <Gold.PLP.ligand.clash>
0.0000

> <Gold.PLP.ligand.torsion>
0.1729

> <Gold.PLP.Chemscore.Hbond>
3.0000

> <Gold.PLP.Chemscore.CHOScore>
1.0000

> <Gold.PLP.Chemscore.Metal>
0.0000

> <Gold.Chemscore.Hbonds>
donor molecule, donor type, donor heavy atom, donor atom, acceptor molecule, acceptor atom, score
      L1  H     7    47       P1  7948  2.00
      L1  H    10    38       P1  7948  1.00
      L1  C    15    41       P1 10186  0.85

> <Gold.PLP.Chemscore.Internal.Correction>
0.0544

> <Gold.Rescore>
     Score         DG    S(hbond)    S(metal)    S(lipo)     H(rot)  DE(clash)    DE(int)     intcor
     17.37     -17.74       1.99        0.00      87.99       1.83       0.10       0.27       ----

> <Gold.Chemscore.Fitness>
17.3729

> <Gold.Chemscore.DG>
-17.7432

> <Gold.Chemscore.ZeroCoef>
-5.4800

> <Gold.Chemscore.Hbond>
1.9944

> <Gold.Chemscore.Metal>
0.0000

> <Gold.Chemscore.Lipo>
87.9850

> <Gold.Chemscore.Internal_Hbond>
0.0000

> <Gold.Chemscore.DEClash>
0.0985

> <Gold.Chemscore.DEInternal>
0.2718

> <Gold.Chemscore.Rot>
1.8329

> <Gold.Chemscore.Internal.Correction>
   9.000000E+99

> <Gold.Chemscore.Hbonds>
donor molecule, donor type, donor heavy atom, donor atom, acceptor molecule, acceptor atom, score
      L1  H     7    47       P1  7948  1.00
      L1  H    10    38       P1  7948  1.00

> <Gold.Chemscore.Hbond.Weighted>
-6.6612

> <Gold.Chemscore.Metal.Weighted>
-0.0000

> <Gold.Chemscore.Lipo.Weighted>
-10.2942

> <Gold.Chemscore.Internal_Hbond.Weighted>
0.0000

> <Gold.Chemscore.DEClash.Weighted>
0.0985

> <Gold.Chemscore.DEInternal.Weighted>
0.2718

> <Gold.Chemscore.Rot.Weighted>
4.6922

> <Gold.Chemscore.Internal.Correction.Weighted>
   9.000000E+99

> <Gold.Protein.RotatedTorsions>
[ 6907 6896 6895 6894 ] final  119.99 input  -60.11 | X-H torsion
[ 7974 7965 7964 7962 ] final  167.31 input  175.53 | X-H torsion
[ 8008 7997 7996 7995 ] final -168.06 input   59.86 | X-H torsion
[ 10167 10162 10161 10158 ] final  157.58 input  -65.29 | X-H torsion
[ 10718 10713 10712 10709 ] final   18.57 input   66.30 | X-H torsion
[ 10763 10752 10751 10750 ] final  -15.06 input  -60.55 | X-H torsion
[ 11005 11000 10999 10996 ] final   91.12 input  -57.11 | X-H torsion

> <Gold.Protein.ActiveResidues>
 VAL166  LYS551  ARG553  GLY616  TRP617  ASP618  TYR619  PRO620  LYS621  CYS622 
 ASP623  PHE694  ASN695  SER759  ASP760  ASP761  ALA762  ILE779  LEU786  VAL792 
 PHE793  MET794  SER795  GLU796  ALA797  LYS798  CYS799  TRP800  GLU811  SER814 

> <Gold.Protein.RotatedAtoms>
  152.4431  133.7485  159.6680 H   0  0  0  0  0  0  0  0  0  0  0  0  # atno 6907 bound_to 6896
  150.8325  133.8056  159.3099 H   0  0  0  0  0  0  0  0  0  0  0  0  # atno 6908 bound_to 6896
  151.5706  135.1065  160.0046 H   0  0  0  0  0  0  0  0  0  0  0  0  # atno 6909 bound_to 6896
  144.7429  139.8742  143.6391 H   0  0  0  0  0  0  0  0  0  0  0  0  # atno 7974 bound_to 7965
  155.8863  140.1017  157.1450 H   0  0  0  0  0  0  0  0  0  0  0  0  # atno 8008 bound_to 7997
  154.4010  140.1319  156.4323 H   0  0  0  0  0  0  0  0  0  0  0  0  # atno 8009 bound_to 7997
  155.7585  140.3463  155.5188 H   0  0  0  0  0  0  0  0  0  0  0  0  # atno 8010 bound_to 7997
  139.4823  144.4904  151.8316 H   0  0  0  0  0  0  0  0  0  0  0  0  # atno 10167 bound_to 10162
  157.0982  130.6456  149.5865 H   0  0  0  0  0  0  0  0  0  0  0  0  # atno 10718 bound_to 10713
  153.5377  135.7014  153.5652 H   0  0  0  0  0  0  0  0  0  0  0  0  # atno 10763 bound_to 10752
  153.3632  135.3964  155.1733 H   0  0  0  0  0  0  0  0  0  0  0  0  # atno 10764 bound_to 10752
  154.8677  135.3793  154.4878 H   0  0  0  0  0  0  0  0  0  0  0  0  # atno 10765 bound_to 10752
  139.8844  134.8655  156.3382 H   0  0  0  0  0  0  0  0  0  0  0  0  # atno 11005 bound_to 11000
  146.1258  139.4284  143.0200 LP  0  0  0  0  0  0  0  0  0  0  0  0  # atno 17320 bound_to 7965
  145.7237  141.0066  143.1389 LP  0  0  0  0  0  0  0  0  0  0  0  0  # atno 17321 bound_to 7965
  140.4388  144.2015  150.5890 LP  0  0  0  0  0  0  0  0  0  0  0  0  # atno 17342 bound_to 10162
  140.4704  143.2415  151.9096 LP  0  0  0  0  0  0  0  0  0  0  0  0  # atno 17343 bound_to 10162
  155.9880  130.4922  150.7152 LP  0  0  0  0  0  0  0  0  0  0  0  0  # atno 17370 bound_to 10713
  157.4663  131.0888  151.0691 LP  0  0  0  0  0  0  0  0  0  0  0  0  # atno 17371 bound_to 10713
  140.9677  133.7348  156.0489 LP  0  0  0  0  0  0  0  0  0  0  0  0  # atno 17394 bound_to 11000
  140.7911  134.3617  157.5464 LP  0  0  0  0  0  0  0  0  0  0  0  0  # atno 17395 bound_to 11000

$$$$
