AV-unprocessed.smi:1282|AV-procd|sdf|5360|dock9
  -GOLD-   22720 4503D 1   1.00000     0.00000
 Structure written by MMmdl.
 36 37  0  0  0  0  0  0  0  0  1 V2000
  145.4685  135.9332  151.3219 C   0  0  0  0  0  0  0  0  0  0  0  0
  145.6765  136.9551  152.2810 O   0  0  0  0  0  0  0  0  0  0  0  0
  146.4039  138.0522  151.7548 C   0  0  0  0  0  0  0  0  0  0  0  0
  146.6758  139.0591  152.8759 C   0  0  0  0  0  0  0  0  0  0  0  0
  147.9131  138.7232  153.4960 O   0  0  0  0  0  0  0  0  0  0  0  0
  148.5766  139.6959  154.2153 C   0  0  0  0  0  0  0  0  0  0  0  0
  149.7995  139.3612  154.8295 C   0  0  0  0  0  0  0  0  0  0  0  0
  150.4834  140.3459  155.5679 C   0  0  0  0  0  0  0  0  0  0  0  0
  149.9148  141.6375  155.6768 C   0  0  0  0  0  0  0  0  0  0  0  0
  150.5127  142.7205  156.3763 N   0  0  0  0  0  0  0  0  0  0  0  0
  151.4065  142.6831  157.3813 C   0  0  0  0  0  0  0  0  0  0  0  0
  151.8414  141.6505  157.8913 O   0  0  0  0  0  0  0  0  0  0  0  0
  151.8590  144.0527  157.9061 C   0  0  0  0  0  0  0  0  0  0  0  0
  152.7842  143.9936  159.1346 C   0  0  0  0  0  0  0  0  0  0  0  0
  151.9730  145.1391  159.7474 C   0  0  0  0  0  0  0  0  0  0  0  0
  150.8302  144.7753  158.7945 C   0  0  0  0  0  0  0  0  0  0  0  0
  148.6936  141.8741  155.0118 C   0  0  0  0  0  0  0  0  0  0  0  0
  148.0332  140.9350  154.3019 N   0  0  0  0  0  0  0  0  0  0  0  0
  144.9009  135.1183  151.7711 H   0  0  0  0  0  0  0  0  0  0  0  0
  146.4167  135.5269  150.9673 H   0  0  0  0  0  0  0  0  0  0  0  0
  144.9044  136.3040  150.4652 H   0  0  0  0  0  0  0  0  0  0  0  0
  147.3473  137.7071  151.3290 H   0  0  0  0  0  0  0  0  0  0  0  0
  145.8345  138.5288  150.9553 H   0  0  0  0  0  0  0  0  0  0  0  0
  146.7218  140.0683  152.4626 H   0  0  0  0  0  0  0  0  0  0  0  0
  145.8623  139.0269  153.6026 H   0  0  0  0  0  0  0  0  0  0  0  0
  150.2089  138.3665  154.7324 H   0  0  0  0  0  0  0  0  0  0  0  0
  151.4298  140.0940  156.0197 H   0  0  0  0  0  0  0  0  0  0  0  0
  150.1804  143.6381  156.1172 H   0  0  0  0  0  0  0  0  0  0  0  0
  152.2566  144.7084  157.1288 H   0  0  0  0  0  0  0  0  0  0  0  0
  152.7089  143.0692  159.7106 H   0  0  0  0  0  0  0  0  0  0  0  0
  153.8239  144.2485  158.9275 H   0  0  0  0  0  0  0  0  0  0  0  0
  151.7402  145.0181  160.8057 H   0  0  0  0  0  0  0  0  0  0  0  0
  152.4025  146.1195  159.5358 H   0  0  0  0  0  0  0  0  0  0  0  0
  150.3553  145.6362  158.3234 H   0  0  0  0  0  0  0  0  0  0  0  0
  150.0912  144.1178  159.2562 H   0  0  0  0  0  0  0  0  0  0  0  0
  148.2268  142.8475  155.0533 H   0  0  0  0  0  0  0  0  0  0  0  0
  1  2  1  0  0  0  0
  1 19  1  0  0  0  0
  1 20  1  0  0  0  0
  1 21  1  0  0  0  0
  2  3  1  0  0  0  0
  3  4  1  0  0  0  0
  3 22  1  0  0  0  0
  3 23  1  0  0  0  0
  4  5  1  0  0  0  0
  4 24  1  0  0  0  0
  4 25  1  0  0  0  0
  5  6  1  0  0  0  0
  6 18  1  0  0  0  0
  6  7  2  0  0  0  0
  7  8  1  0  0  0  0
  7 26  1  0  0  0  0
  8  9  2  0  0  0  0
  8 27  1  0  0  0  0
  9 10  1  0  0  0  0
  9 17  1  0  0  0  0
 10 11  1  0  0  0  0
 10 28  1  0  0  0  0
 11 12  2  0  0  0  0
 11 13  1  0  0  0  0
 13 16  1  0  0  0  0
 13 14  1  0  0  0  0
 13 29  1  0  0  0  0
 14 15  1  0  0  0  0
 14 30  1  0  0  0  0
 14 31  1  0  0  0  0
 15 16  1  0  0  0  0
 15 32  1  0  0  0  0
 15 33  1  0  0  0  0
 16 34  1  0  0  0  0
 16 35  1  0  0  0  0
 17 18  2  0  0  0  0
 17 36  1  0  0  0  0
M  END
> <s_m_source_file>
AV-unprocessed.smi

> <i_m_source_file_index>
1282

> <i_lp_mmshare_version>
43012

> <i_f3d_flags>
0

> <s_epik_input>
W0NIM11PW0NIMl1bQ0gyXU9jMVtjSF1bY0hdYyhbY0hdbjEpW05IXUMoPU8pW0NIXTJbQ0gyXVtDSDJdW0NIMl0y

> <s_epik_cmdline>
J2VwaWtfcHl0aG9uJywgJy1waCcsICc3LjAnLCAnLXRuJywgJzgnLCAnLW1hJywgJzIwMCcsICctbWV0YWxfYmluZGluZycsICctaW1hZScsICc8aW5maWxlLm1hZT4nLCAnLW9tYWUnLCAnPG91dGZpbGUubWFlPic=

> <r_lp_tautomer_probability>
1

> <r_epik_Ionization_Penalty>
2.67646e-05

> <r_epik_Ionization_Penalty_Charging>
0

> <r_epik_Ionization_Penalty_Neutral>
2.67646e-05

> <r_epik_State_Penalty>
-0

> <r_epik_Charging_Adjusted_Penalty>
0

> <i_epik_Tot_Q>
0

> <i_epik_Tot_abs_Q>
0

> <r_epik_Metal_State_Penalty>
-0

> <b_epik_Metal_Only>
0

> <s_lp_Force_Field>
OPLS_2005

> <r_lp_Energy>
17.3297

> <b_lp_Chiralities_Consistent>
1

> <s_lp_Variant>
AV-unprocessed.smi:1282-1

> <Gold.Version>
5.8.1

> <Gold.Id.Protein>
6NUR|6NUR_protein|mol2

> <Gold.PLP.Fitness>
43.7651

> <Gold.PLP.PLP>
-38.6653

> <Gold.PLP.part.hbond>
-1.0000

> <Gold.PLP.part.metal>
0.0000

> <Gold.PLP.part.buried>
-1.2075

> <Gold.PLP.part.nonpolar>
-38.9523

> <Gold.PLP.part.repulsive>
1.6166

> <Gold.PLP.ligand.clash>
0.0000

> <Gold.PLP.ligand.torsion>
0.6372

> <Gold.PLP.Chemscore.Hbond>
0.9920

> <Gold.PLP.Chemscore.CHOScore>
0.9930

> <Gold.PLP.Chemscore.Metal>
0.0000

> <Gold.Chemscore.Hbonds>
donor molecule, donor type, donor heavy atom, donor atom, acceptor molecule, acceptor atom, score
      L1  H    10    28       P1  8028  1.00
      L1  C    17    36       P1  8028  1.00

> <Gold.PLP.Chemscore.Internal.Correction>
0.4191

> <Gold.Rescore>
     Score         DG    S(hbond)    S(metal)    S(lipo)     H(rot)  DE(clash)    DE(int)     intcor
     13.27     -15.78       0.98        0.00      98.76       1.76       0.87       1.63       ----

> <Gold.Chemscore.Fitness>
13.2738

> <Gold.Chemscore.DG>
-15.7784

> <Gold.Chemscore.ZeroCoef>
-5.4800

> <Gold.Chemscore.Hbond>
0.9755

> <Gold.Chemscore.Metal>
0.0000

> <Gold.Chemscore.Lipo>
98.7567

> <Gold.Chemscore.Internal_Hbond>
0.0000

> <Gold.Chemscore.DEClash>
0.8715

> <Gold.Chemscore.DEInternal>
1.6332

> <Gold.Chemscore.Rot>
1.7634

> <Gold.Chemscore.Internal.Correction>
   9.000000E+99

> <Gold.Chemscore.Hbonds>
donor molecule, donor type, donor heavy atom, donor atom, acceptor molecule, acceptor atom, score
      L1  H    10    28       P1  8028  0.96

> <Gold.Chemscore.Hbond.Weighted>
-3.2581

> <Gold.Chemscore.Metal.Weighted>
-0.0000

> <Gold.Chemscore.Lipo.Weighted>
-11.5545

> <Gold.Chemscore.Internal_Hbond.Weighted>
0.0000

> <Gold.Chemscore.DEClash.Weighted>
0.8715

> <Gold.Chemscore.DEInternal.Weighted>
1.6332

> <Gold.Chemscore.Rot.Weighted>
4.5142

> <Gold.Chemscore.Internal.Correction.Weighted>
   9.000000E+99

> <Gold.Protein.RotatedTorsions>
[ 6907 6896 6895 6894 ] final  171.71 input  -60.11 | X-H torsion
[ 7974 7965 7964 7962 ] final  -88.35 input  175.53 | X-H torsion
[ 8008 7997 7996 7995 ] final  160.32 input   59.86 | X-H torsion
[ 10167 10162 10161 10158 ] final   99.24 input  -65.29 | X-H torsion
[ 10718 10713 10712 10709 ] final  -90.78 input   66.30 | X-H torsion
[ 10763 10752 10751 10750 ] final -107.92 input  -60.55 | X-H torsion
[ 11005 11000 10999 10996 ] final  -75.81 input  -57.11 | X-H torsion

> <Gold.Protein.ActiveResidues>
 VAL166  LYS551  ARG553  GLY616  TRP617  ASP618  TYR619  PRO620  LYS621  CYS622 
 ASP623  PHE694  ASN695  SER759  ASP760  ASP761  ALA762  ILE779  LEU786  VAL792 
 PHE793  MET794  SER795  GLU796  ALA797  LYS798  CYS799  TRP800  GLU811  SER814 

> <Gold.Protein.RotatedAtoms>
  151.7959  133.3364  159.3512 H   0  0  0  0  0  0  0  0  0  0  0  0  # atno 6907 bound_to 6896
  150.7375  134.5799  159.5942 H   0  0  0  0  0  0  0  0  0  0  0  0  # atno 6908 bound_to 6896
  152.3177  134.7420  160.0372 H   0  0  0  0  0  0  0  0  0  0  0  0  # atno 6909 bound_to 6896
  145.4543  140.9561  143.2005 H   0  0  0  0  0  0  0  0  0  0  0  0  # atno 7974 bound_to 7965
  156.2180  140.1807  156.7544 H   0  0  0  0  0  0  0  0  0  0  0  0  # atno 8008 bound_to 7997
  154.5821  140.0664  156.9148 H   0  0  0  0  0  0  0  0  0  0  0  0  # atno 8009 bound_to 7997
  155.2484  140.3327  155.4287 H   0  0  0  0  0  0  0  0  0  0  0  0  # atno 8010 bound_to 7997
  139.7635  144.6946  151.0258 H   0  0  0  0  0  0  0  0  0  0  0  0  # atno 10167 bound_to 10162
  155.9989  130.4923  150.5375 H   0  0  0  0  0  0  0  0  0  0  0  0  # atno 10718 bound_to 10713
  154.8104  135.4657  154.0503 H   0  0  0  0  0  0  0  0  0  0  0  0  # atno 10763 bound_to 10752
  153.1938  135.6859  153.8325 H   0  0  0  0  0  0  0  0  0  0  0  0  # atno 10764 bound_to 10752
  153.7834  135.3253  155.3346 H   0  0  0  0  0  0  0  0  0  0  0  0  # atno 10765 bound_to 10752
  141.1648  133.6960  156.7573 H   0  0  0  0  0  0  0  0  0  0  0  0  # atno 11005 bound_to 11000
  144.8042  139.6083  143.7058 LP  0  0  0  0  0  0  0  0  0  0  0  0  # atno 17320 bound_to 7965
  146.2487  139.6153  142.9442 LP  0  0  0  0  0  0  0  0  0  0  0  0  # atno 17321 bound_to 7965
  140.7809  143.4670  151.0199 LP  0  0  0  0  0  0  0  0  0  0  0  0  # atno 17342 bound_to 10162
  139.8355  143.7633  152.3180 LP  0  0  0  0  0  0  0  0  0  0  0  0  # atno 17343 bound_to 10162
  157.3316  131.0700  151.1857 LP  0  0  0  0  0  0  0  0  0  0  0  0  # atno 17370 bound_to 10713
  157.2735  130.6716  149.6031 LP  0  0  0  0  0  0  0  0  0  0  0  0  # atno 17371 bound_to 10713
  140.2560  134.8504  157.3713 LP  0  0  0  0  0  0  0  0  0  0  0  0  # atno 17394 bound_to 11000
  140.1657  134.4672  155.7865 LP  0  0  0  0  0  0  0  0  0  0  0  0  # atno 17395 bound_to 11000

$$$$
