AV-unprocessed.smi:2496|AV-procd|sdf|9828|dock7
  -GOLD-   2272013453D 1   1.00000     0.00000
 Structure written by MMmdl.
 40 40  0  0  0  0  0  0  0  0  1 V2000
  153.4538  138.6909  155.3950 C   0  0  0  0  0  0  0  0  0  0  0  0
  152.0385  138.5523  154.9071 C   0  0  0  0  0  0  0  0  0  0  0  0
  151.6880  137.4285  154.2996 N   0  0  0  0  0  0  0  0  0  0  0  0
  150.3949  137.6148  153.9890 N   0  0  0  0  0  0  0  0  0  0  0  0
  149.9157  138.8382  154.3913 C   0  0  0  0  0  0  0  0  0  0  0  0
  148.5051  139.2567  154.1437 C   0  0  0  0  0  0  0  0  0  0  0  0
  150.9567  139.4878  154.9992 C   0  0  0  0  0  0  0  0  0  0  0  0
  150.9384  140.8761  155.6059 C   0  0  1  0  0  0  0  0  0  0  0  0
  149.6095  141.6095  155.3441 C   0  0  0  0  0  0  0  0  0  0  0  0
  151.3000  140.7907  157.0969 C   0  0  0  0  0  0  0  0  0  0  0  0
  151.4853  139.7012  157.6404 O   0  0  0  0  0  0  0  0  0  0  0  0
  151.3895  141.9639  157.7451 N   0  0  0  0  0  0  0  0  0  0  0  0
  151.7476  142.1531  159.1505 C   0  0  1  0  0  0  0  0  0  0  0  0
  153.1593  141.5770  159.3559 C   0  0  0  0  0  0  0  0  0  0  0  0
  151.6284  143.6489  159.5495 C   0  0  0  0  0  0  0  0  0  0  0  0
  152.3389  144.5776  158.5483 C   0  0  0  0  0  0  0  0  0  0  0  0
  152.1629  143.9237  160.9687 C   0  0  0  0  0  0  0  0  0  0  0  0
  149.8584  136.9071  153.5078 H   0  0  0  0  0  0  0  0  0  0  0  0
  153.8438  139.6901  155.2056 H   0  0  0  0  0  0  0  0  0  0  0  0
  154.1208  137.9843  154.8998 H   0  0  0  0  0  0  0  0  0  0  0  0
  153.5165  138.5060  156.4672 H   0  0  0  0  0  0  0  0  0  0  0  0
  148.4729  140.1471  153.5158 H   0  0  0  0  0  0  0  0  0  0  0  0
  148.0009  139.4866  155.0825 H   0  0  0  0  0  0  0  0  0  0  0  0
  147.9396  138.4709  153.6419 H   0  0  0  0  0  0  0  0  0  0  0  0
  151.7171  141.4866  155.1465 H   0  0  0  0  0  0  0  0  0  0  0  0
  148.7590  141.0934  155.7889 H   0  0  0  0  0  0  0  0  0  0  0  0
  149.4204  141.6962  154.2738 H   0  0  0  0  0  0  0  0  0  0  0  0
  149.6312  142.6203  155.7530 H   0  0  0  0  0  0  0  0  0  0  0  0
  151.2167  142.8026  157.2103 H   0  0  0  0  0  0  0  0  0  0  0  0
  151.0679  141.5804  159.7840 H   0  0  0  0  0  0  0  0  0  0  0  0
  153.4474  141.5728  160.4065 H   0  0  0  0  0  0  0  0  0  0  0  0
  153.9065  142.1489  158.8044 H   0  0  0  0  0  0  0  0  0  0  0  0
  153.2128  140.5440  159.0096 H   0  0  0  0  0  0  0  0  0  0  0  0
  150.5707  143.9164  159.5475 H   0  0  0  0  0  0  0  0  0  0  0  0
  153.3939  144.3206  158.4501 H   0  0  0  0  0  0  0  0  0  0  0  0
  152.2815  145.6182  158.8693 H   0  0  0  0  0  0  0  0  0  0  0  0
  151.8878  144.5293  157.5580 H   0  0  0  0  0  0  0  0  0  0  0  0
  153.2062  143.6206  161.0627 H   0  0  0  0  0  0  0  0  0  0  0  0
  151.5914  143.3912  161.7291 H   0  0  0  0  0  0  0  0  0  0  0  0
  152.1026  144.9844  161.2136 H   0  0  0  0  0  0  0  0  0  0  0  0
  1  2  1  0  0  0  0
  1 19  1  0  0  0  0
  1 20  1  0  0  0  0
  1 21  1  0  0  0  0
  2  7  1  0  0  0  0
  2  3  2  0  0  0  0
  3  4  1  0  0  0  0
  4 18  1  0  0  0  0
  4  5  1  0  0  0  0
  5  6  1  0  0  0  0
  5  7  2  0  0  0  0
  6 22  1  0  0  0  0
  6 23  1  0  0  0  0
  6 24  1  0  0  0  0
  7  8  1  0  0  0  0
  8  9  1  0  0  0  0
  8 10  1  0  0  0  0
  8 25  1  0  0  0  0
  9 26  1  0  0  0  0
  9 27  1  0  0  0  0
  9 28  1  0  0  0  0
 10 11  2  0  0  0  0
 10 12  1  0  0  0  0
 12 13  1  0  0  0  0
 12 29  1  0  0  0  0
 13 14  1  0  0  0  0
 13 15  1  0  0  0  0
 13 30  1  0  0  0  0
 14 31  1  0  0  0  0
 14 32  1  0  0  0  0
 14 33  1  0  0  0  0
 15 16  1  0  0  0  0
 15 17  1  0  0  0  0
 15 34  1  0  0  0  0
 16 35  1  0  0  0  0
 16 36  1  0  0  0  0
 16 37  1  0  0  0  0
 17 38  1  0  0  0  0
 17 39  1  0  0  0  0
 17 40  1  0  0  0  0
M  END
> <s_m_source_file>
AV-unprocessed.smi

> <i_m_source_file_index>
2496

> <i_lp_mmshare_version>
43012

> <i_f3d_flags>
0

> <s_epik_input>
W0NIM11jMW5bbkhdYyhbQ0gzXSljMVtDQEhdKFtDSDNdKUMoPU8pW05IXVtDQEhdKFtDSDNdKVtDSF0oW0NIM10pW0NIM10=

> <s_epik_cmdline>
J2VwaWtfcHl0aG9uJywgJy1waCcsICc3LjAnLCAnLXRuJywgJzgnLCAnLW1hJywgJzIwMCcsICctbWV0YWxfYmluZGluZycsICctaW1hZScsICc8aW5maWxlLm1hZT4nLCAnLW9tYWUnLCAnPG91dGZpbGUubWFlPic=

> <r_lp_tautomer_probability>
1

> <r_epik_Ionization_Penalty>
0.000456212

> <r_epik_Ionization_Penalty_Charging>
0

> <r_epik_Ionization_Penalty_Neutral>
0.000456212

> <r_epik_State_Penalty>
-0

> <r_epik_Charging_Adjusted_Penalty>
0

> <i_epik_Tot_Q>
0

> <i_epik_Tot_abs_Q>
0

> <r_epik_Metal_State_Penalty>
-0

> <b_epik_Metal_Only>
0

> <s_lp_Force_Field>
OPLS_2005

> <r_lp_Energy>
2.25398

> <b_lp_Chiralities_Consistent>
1

> <s_lp_Variant>
AV-unprocessed.smi:2496-4

> <Gold.Version>
5.8.1

> <Gold.Id.Protein>
6NUR|6NUR_protein|mol2

> <Gold.PLP.Fitness>
39.5724

> <Gold.PLP.PLP>
-38.4264

> <Gold.PLP.part.hbond>
-2.8349

> <Gold.PLP.part.metal>
0.0000

> <Gold.PLP.part.buried>
-0.1662

> <Gold.PLP.part.nonpolar>
-35.5812

> <Gold.PLP.part.repulsive>
0.2860

> <Gold.PLP.ligand.clash>
4.4644

> <Gold.PLP.ligand.torsion>
0.1661

> <Gold.PLP.Chemscore.Hbond>
1.9440

> <Gold.PLP.Chemscore.CHOScore>
0.0000

> <Gold.PLP.Chemscore.Metal>
0.0000

> <Gold.Chemscore.Hbonds>
donor molecule, donor type, donor heavy atom, donor atom, acceptor molecule, acceptor atom, score
      L1  H     4    18       P1  7948  0.99
      P1  H 10752 10763       L1     3  0.67

> <Gold.PLP.Chemscore.Internal.Correction>
0.1107

> <Gold.Rescore>
     Score         DG    S(hbond)    S(metal)    S(lipo)     H(rot)  DE(clash)    DE(int)     intcor
     15.92     -18.70       1.37        0.00     106.06       1.47       0.34       2.44       ----

> <Gold.Chemscore.Fitness>
15.9247

> <Gold.Chemscore.DG>
-18.7050

> <Gold.Chemscore.ZeroCoef>
-5.4800

> <Gold.Chemscore.Hbond>
1.3682

> <Gold.Chemscore.Metal>
0.0000

> <Gold.Chemscore.Lipo>
106.0554

> <Gold.Chemscore.Internal_Hbond>
0.0000

> <Gold.Chemscore.DEClash>
0.3367

> <Gold.Chemscore.DEInternal>
2.4436

> <Gold.Chemscore.Rot>
1.4662

> <Gold.Chemscore.Internal.Correction>
   9.000000E+99

> <Gold.Chemscore.Hbonds>
donor molecule, donor type, donor heavy atom, donor atom, acceptor molecule, acceptor atom, score
      L1  H     4    18       P1  7948  0.37
      P1  H 10752 10763       L1     3  0.63

> <Gold.Chemscore.Hbond.Weighted>
-4.5699

> <Gold.Chemscore.Metal.Weighted>
-0.0000

> <Gold.Chemscore.Lipo.Weighted>
-12.4085

> <Gold.Chemscore.Internal_Hbond.Weighted>
0.0000

> <Gold.Chemscore.DEClash.Weighted>
0.3367

> <Gold.Chemscore.DEInternal.Weighted>
2.4436

> <Gold.Chemscore.Rot.Weighted>
3.7534

> <Gold.Chemscore.Internal.Correction.Weighted>
   9.000000E+99

> <Gold.Protein.RotatedTorsions>
[ 6907 6896 6895 6894 ] final  -44.24 input  -60.11 | X-H torsion
[ 7974 7965 7964 7962 ] final  172.94 input  175.53 | X-H torsion
[ 8008 7997 7996 7995 ] final   84.48 input   59.86 | X-H torsion
[ 10167 10162 10161 10158 ] final  -46.92 input  -65.29 | X-H torsion
[ 10718 10713 10712 10709 ] final -143.50 input   66.30 | X-H torsion
[ 10763 10752 10751 10750 ] final   44.72 input  -60.55 | X-H torsion
[ 11005 11000 10999 10996 ] final   -4.84 input  -57.11 | X-H torsion

> <Gold.Protein.ActiveResidues>
 VAL166  LYS551  ARG553  GLY616  TRP617  ASP618  TYR619  PRO620  LYS621  CYS622 
 ASP623  PHE694  ASN695  SER759  ASP760  ASP761  ALA762  ILE779  LEU786  VAL792 
 PHE793  MET794  SER795  GLU796  ALA797  LYS798  CYS799  TRP800  GLU811  SER814 

> <Gold.Protein.RotatedAtoms>
  150.9350  134.8763  159.7575 H   0  0  0  0  0  0  0  0  0  0  0  0  # atno 6907 bound_to 6896
  152.5055  134.4024  159.9431 H   0  0  0  0  0  0  0  0  0  0  0  0  # atno 6908 bound_to 6896
  151.4049  133.3706  159.2771 H   0  0  0  0  0  0  0  0  0  0  0  0  # atno 6909 bound_to 6896
  144.7255  139.9574  143.6434 H   0  0  0  0  0  0  0  0  0  0  0  0  # atno 7974 bound_to 7965
  155.9377  140.3410  155.6301 H   0  0  0  0  0  0  0  0  0  0  0  0  # atno 8008 bound_to 7997
  155.7079  140.0768  157.2402 H   0  0  0  0  0  0  0  0  0  0  0  0  # atno 8009 bound_to 7997
  154.4096  140.1628  156.2251 H   0  0  0  0  0  0  0  0  0  0  0  0  # atno 8010 bound_to 7997
  140.6797  143.2808  151.3852 H   0  0  0  0  0  0  0  0  0  0  0  0  # atno 10167 bound_to 10162
  156.3586  130.7726  151.1890 H   0  0  0  0  0  0  0  0  0  0  0  0  # atno 10718 bound_to 10713
  152.9836  135.6062  154.3320 H   0  0  0  0  0  0  0  0  0  0  0  0  # atno 10763 bound_to 10752
  154.3023  135.2772  155.2607 H   0  0  0  0  0  0  0  0  0  0  0  0  # atno 10764 bound_to 10752
  154.4854  135.5906  153.6476 H   0  0  0  0  0  0  0  0  0  0  0  0  # atno 10765 bound_to 10752
  140.6846  133.9124  155.8577 H   0  0  0  0  0  0  0  0  0  0  0  0  # atno 11005 bound_to 11000
  146.0664  139.3655  143.0550 LP  0  0  0  0  0  0  0  0  0  0  0  0  # atno 17320 bound_to 7965
  145.8025  140.9764  143.0991 LP  0  0  0  0  0  0  0  0  0  0  0  0  # atno 17321 bound_to 7965
  139.6112  144.1095  152.2300 LP  0  0  0  0  0  0  0  0  0  0  0  0  # atno 17342 bound_to 10162
  140.0510  144.5932  150.7336 LP  0  0  0  0  0  0  0  0  0  0  0  0  # atno 17343 bound_to 10162
  157.7470  131.0406  150.4608 LP  0  0  0  0  0  0  0  0  0  0  0  0  # atno 17370 bound_to 10713
  156.4815  130.4075  149.6459 LP  0  0  0  0  0  0  0  0  0  0  0  0  # atno 17371 bound_to 10713
  141.0290  134.0782  157.4035 LP  0  0  0  0  0  0  0  0  0  0  0  0  # atno 17394 bound_to 11000
  139.8941  135.0134  156.6935 LP  0  0  0  0  0  0  0  0  0  0  0  0  # atno 17395 bound_to 11000

$$$$
