AV-unprocessed.smi:281|AV-procd|sdf|2107|dock5
  -GOLD-   2262021403D 1   1.00000     0.00000
 Structure written by MMmdl.
 55 59  0  0  0  0  0  0  0  0  1 V2000
  147.4100  142.1025  153.8531 C   0  0  0  0  0  0  0  0  0  0  0  0
  148.0915  140.7910  154.2553 C   0  0  2  0  0  0  0  0  0  0  0  0
  147.0737  139.6647  154.5027 C   0  0  0  0  0  0  0  0  0  0  0  0
  147.7622  138.4736  154.9813 N   0  0  0  0  0  0  0  0  0  0  0  0
  147.0636  137.3137  154.9044 C   0  0  0  0  0  0  0  0  0  0  0  0
  147.0216  136.4753  155.9744 N   0  0  0  0  0  0  0  0  0  0  0  0
  146.3406  135.3279  155.9062 C   0  0  0  0  0  0  0  0  0  0  0  0
  145.6462  134.8294  154.8818 N   0  0  0  0  0  0  0  0  0  0  0  0
  145.6876  135.6629  153.8032 C   0  0  0  0  0  0  0  0  0  0  0  0
  146.3674  136.9117  153.7296 C   0  0  0  0  0  0  0  0  0  0  0  0
  146.2031  137.4644  152.4648 N   0  0  0  0  0  0  0  0  0  0  0  0
  145.4639  136.5962  151.8304 C   0  0  0  0  0  0  0  0  0  0  0  0
  145.1015  135.4871  152.5613 N   0  0  0  0  0  0  0  0  0  0  0  0
  144.2957  134.3644  152.1052 C   0  0  0  0  0  0  0  0  0  0  0  0
  145.1131  133.2519  151.4066 C   0  0  2  0  0  0  0  0  0  0  0  0
  145.6552  133.7596  150.1998 O   0  0  0  0  0  0  0  0  0  0  0  0
  144.2708  132.0262  151.0745 C   0  0  0  0  0  0  0  0  0  0  0  0
  145.2856  130.8928  151.1296 C   0  0  0  0  0  0  0  0  0  0  0  0
  146.0939  131.2484  152.2379 O   0  0  0  0  0  0  0  0  0  0  0  0
  146.2630  132.6629  152.2507 C   0  0  0  0  0  0  0  0  0  0  0  0
  148.5884  138.7123  156.1612 C   0  0  0  0  0  0  0  0  0  0  0  0
  149.5666  139.8930  155.9275 C   0  0  1  0  0  0  0  0  0  0  0  0
  150.2124  140.3137  157.2413 C   0  0  0  0  0  0  0  0  0  0  0  0
  151.4643  139.4540  157.2950 C   0  0  0  0  0  0  0  0  0  0  0  0
  151.9310  139.4753  155.9574 O   0  0  0  0  0  0  0  0  0  0  0  0
  150.8260  139.5907  155.0627 C   0  0  1  0  0  0  0  0  0  0  0  0
  150.7910  138.3516  154.1512 C   0  0  0  0  0  0  0  0  0  0  0  0
  148.8342  141.0257  155.4505 O   0  0  0  0  0  0  0  0  0  0  0  0
  146.8352  141.9798  152.9349 H   0  0  0  0  0  0  0  0  0  0  0  0
  148.1473  142.8871  153.6814 H   0  0  0  0  0  0  0  0  0  0  0  0
  146.7294  142.4488  154.6315 H   0  0  0  0  0  0  0  0  0  0  0  0
  148.7714  140.5001  153.4539 H   0  0  0  0  0  0  0  0  0  0  0  0
  146.3450  139.9737  155.2533 H   0  0  0  0  0  0  0  0  0  0  0  0
  146.5184  139.4661  153.5867 H   0  0  0  0  0  0  0  0  0  0  0  0
  146.3561  134.7217  156.7999 H   0  0  0  0  0  0  0  0  0  0  0  0
  145.1656  136.7420  150.8025 H   0  0  0  0  0  0  0  0  0  0  0  0
  143.7658  133.9563  152.9668 H   0  0  0  0  0  0  0  0  0  0  0  0
  143.5289  134.7462  151.4297 H   0  0  0  0  0  0  0  0  0  0  0  0
  146.0041  134.6218  150.3669 H   0  0  0  0  0  0  0  0  0  0  0  0
  143.5175  131.8641  151.8463 H   0  0  0  0  0  0  0  0  0  0  0  0
  143.7539  132.0941  150.1163 H   0  0  0  0  0  0  0  0  0  0  0  0
  144.8220  129.9156  151.2661 H   0  0  0  0  0  0  0  0  0  0  0  0
  145.8937  130.8650  150.2240 H   0  0  0  0  0  0  0  0  0  0  0  0
  147.2446  132.9264  151.8538 H   0  0  0  0  0  0  0  0  0  0  0  0
  146.2298  132.9954  153.2878 H   0  0  0  0  0  0  0  0  0  0  0  0
  147.9235  138.9453  156.9945 H   0  0  0  0  0  0  0  0  0  0  0  0
  149.1365  137.8109  156.4377 H   0  0  0  0  0  0  0  0  0  0  0  0
  150.5047  141.3643  157.1993 H   0  0  0  0  0  0  0  0  0  0  0  0
  149.5678  140.1848  158.1115 H   0  0  0  0  0  0  0  0  0  0  0  0
  152.2133  139.8379  157.9876 H   0  0  0  0  0  0  0  0  0  0  0  0
  151.2236  138.4291  157.5806 H   0  0  0  0  0  0  0  0  0  0  0  0
  151.0415  140.4618  154.4426 H   0  0  0  0  0  0  0  0  0  0  0  0
  149.9941  138.4176  153.4112 H   0  0  0  0  0  0  0  0  0  0  0  0
  150.6512  137.4337  154.7217 H   0  0  0  0  0  0  0  0  0  0  0  0
  151.7296  138.2534  153.6055 H   0  0  0  0  0  0  0  0  0  0  0  0
  1  2  1  0  0  0  0
  1 29  1  0  0  0  0
  1 30  1  0  0  0  0
  1 31  1  0  0  0  0
  2 28  1  0  0  0  0
  2  3  1  0  0  0  0
  2 32  1  0  0  0  0
  3  4  1  0  0  0  0
  3 33  1  0  0  0  0
  3 34  1  0  0  0  0
  4  5  1  0  0  0  0
  4 21  1  0  0  0  0
  5 10  1  0  0  0  0
  5  6  2  0  0  0  0
  6  7  1  0  0  0  0
  7  8  2  0  0  0  0
  7 35  1  0  0  0  0
  8  9  1  0  0  0  0
  9 13  1  0  0  0  0
  9 10  2  0  0  0  0
 10 11  1  0  0  0  0
 11 12  2  0  0  0  0
 12 13  1  0  0  0  0
 12 36  1  0  0  0  0
 13 14  1  0  0  0  0
 14 15  1  0  0  0  0
 14 37  1  0  0  0  0
 14 38  1  0  0  0  0
 15 20  1  0  0  0  0
 15 16  1  0  0  0  0
 15 17  1  0  0  0  0
 16 39  1  0  0  0  0
 17 18  1  0  0  0  0
 17 40  1  0  0  0  0
 17 41  1  0  0  0  0
 18 19  1  0  0  0  0
 18 42  1  0  0  0  0
 18 43  1  0  0  0  0
 19 20  1  0  0  0  0
 20 44  1  0  0  0  0
 20 45  1  0  0  0  0
 21 22  1  0  0  0  0
 21 46  1  0  0  0  0
 21 47  1  0  0  0  0
 22 26  1  0  0  0  0
 22 23  1  0  0  0  0
 22 28  1  0  0  0  0
 23 24  1  0  0  0  0
 23 48  1  0  0  0  0
 23 49  1  0  0  0  0
 24 25  1  0  0  0  0
 24 50  1  0  0  0  0
 24 51  1  0  0  0  0
 25 26  1  0  0  0  0
 26 27  1  0  0  0  0
 26 52  1  0  0  0  0
 27 53  1  0  0  0  0
 27 54  1  0  0  0  0
 27 55  1  0  0  0  0
M  END
> <s_m_source_file>
AV-unprocessed.smi

> <i_m_source_file_index>
281

> <i_lp_mmshare_version>
43012

> <i_f3d_flags>
0

> <s_epik_input>
W0NIM11bQ0BASF0xT1tDSDJdW0NIMl1bQ0BAXTEyW0NIMl1OKFtDSDJdW0NASF0oTzIpW0NIM10pYyhuW2NIXW4zKWMoYzM0KW5bY0hdbjRbQ0gyXVtDQEBdNShbT0hdKVtDSDJdW0NIMl1PW0NIMl01

> <s_epik_cmdline>
J2VwaWtfcHl0aG9uJywgJy1waCcsICc3LjAnLCAnLXRuJywgJzgnLCAnLW1hJywgJzIwMCcsICctbWV0YWxfYmluZGluZycsICctaW1hZScsICc8aW5maWxlLm1hZT4nLCAnLW9tYWUnLCAnPG91dGZpbGUubWFlPic=

> <r_lp_tautomer_probability>
1

> <r_epik_Ionization_Penalty>
0.00571331

> <r_epik_Ionization_Penalty_Charging>
0

> <r_epik_Ionization_Penalty_Neutral>
0.00571331

> <r_epik_State_Penalty>
0.00399586

> <r_epik_Charging_Adjusted_Penalty>
0.00399586

> <i_epik_Tot_Q>
0

> <i_epik_Tot_abs_Q>
0

> <r_epik_Metal_State_Penalty>
-0

> <b_epik_Metal_Only>
0

> <s_lp_Force_Field>
OPLS_2005

> <r_lp_Energy>
55.2886

> <b_lp_Chiralities_Consistent>
1

> <s_lp_Variant>
AV-unprocessed.smi:281-7

> <Gold.Version>
5.8.1

> <Gold.Id.Protein>
6NUR|6NUR_protein|mol2

> <Gold.PLP.Fitness>
34.1017

> <Gold.PLP.PLP>
-31.8826

> <Gold.PLP.part.hbond>
-1.0000

> <Gold.PLP.part.metal>
0.0000

> <Gold.PLP.part.buried>
-7.0353

> <Gold.PLP.part.nonpolar>
-24.4416

> <Gold.PLP.part.repulsive>
1.0537

> <Gold.PLP.ligand.clash>
0.0000

> <Gold.PLP.ligand.torsion>
0.5868

> <Gold.PLP.Chemscore.Hbond>
0.0000

> <Gold.PLP.Chemscore.CHOScore>
1.0000

> <Gold.PLP.Chemscore.Metal>
0.0000

> <Gold.Chemscore.Hbonds>
donor molecule, donor type, donor heavy atom, donor atom, acceptor molecule, acceptor atom, score
      L1  C    12    36       P1 10171  0.99

> <Gold.PLP.Chemscore.Internal.Correction>
0.3928

> <Gold.Rescore>
     Score         DG    S(hbond)    S(metal)    S(lipo)     H(rot)  DE(clash)    DE(int)     intcor
      9.37     -10.12       0.01        0.00      85.24       2.09       0.18       0.56       ----

> <Gold.Chemscore.Fitness>
9.3699

> <Gold.Chemscore.DG>
-10.1150

> <Gold.Chemscore.ZeroCoef>
-5.4800

> <Gold.Chemscore.Hbond>
0.0056

> <Gold.Chemscore.Metal>
0.0000

> <Gold.Chemscore.Lipo>
85.2441

> <Gold.Chemscore.Internal_Hbond>
0.0000

> <Gold.Chemscore.DEClash>
0.1805

> <Gold.Chemscore.DEInternal>
0.5647

> <Gold.Chemscore.Rot>
2.0927

> <Gold.Chemscore.Internal.Correction>
   9.000000E+99

> <Gold.Chemscore.Hbond.Weighted>
-0.0188

> <Gold.Chemscore.Metal.Weighted>
-0.0000

> <Gold.Chemscore.Lipo.Weighted>
-9.9736

> <Gold.Chemscore.Internal_Hbond.Weighted>
0.0000

> <Gold.Chemscore.DEClash.Weighted>
0.1805

> <Gold.Chemscore.DEInternal.Weighted>
0.5647

> <Gold.Chemscore.Rot.Weighted>
5.3573

> <Gold.Chemscore.Internal.Correction.Weighted>
   9.000000E+99

> <Gold.Protein.RotatedTorsions>
[ 6907 6896 6895 6894 ] final   89.75 input  -60.11 | X-H torsion
[ 7974 7965 7964 7962 ] final   -1.98 input  175.53 | X-H torsion
[ 8008 7997 7996 7995 ] final -158.80 input   59.86 | X-H torsion
[ 10167 10162 10161 10158 ] final  173.90 input  -65.29 | X-H torsion
[ 10718 10713 10712 10709 ] final -132.23 input   66.30 | X-H torsion
[ 10763 10752 10751 10750 ] final  159.78 input  -60.55 | X-H torsion
[ 11005 11000 10999 10996 ] final -136.36 input  -57.11 | X-H torsion

> <Gold.Protein.ActiveResidues>
 VAL166  LYS551  ARG553  GLY616  TRP617  ASP618  TYR619  PRO620  LYS621  CYS622 
 ASP623  PHE694  ASN695  SER759  ASP760  ASP761  ALA762  ILE779  LEU786  VAL792 
 PHE793  MET794  SER795  GLU796  ALA797  LYS798  CYS799  TRP800  GLU811  SER814 

> <Gold.Protein.RotatedAtoms>
  152.5439  134.1917  159.8676 H   0  0  0  0  0  0  0  0  0  0  0  0  # atno 6907 bound_to 6896
  151.1912  133.4659  159.2602 H   0  0  0  0  0  0  0  0  0  0  0  0  # atno 6908 bound_to 6896
  151.1081  135.0023  159.8536 H   0  0  0  0  0  0  0  0  0  0  0  0  # atno 6909 bound_to 6896
  146.2410  140.1502  142.8334 H   0  0  0  0  0  0  0  0  0  0  0  0  # atno 7974 bound_to 7965
  155.7531  140.0829  157.2192 H   0  0  0  0  0  0  0  0  0  0  0  0  # atno 8008 bound_to 7997
  154.4010  140.1557  156.2802 H   0  0  0  0  0  0  0  0  0  0  0  0  # atno 8009 bound_to 7997
  155.8912  140.3415  155.5960 H   0  0  0  0  0  0  0  0  0  0  0  0  # atno 8010 bound_to 7997
  139.5123  144.3208  152.0204 H   0  0  0  0  0  0  0  0  0  0  0  0  # atno 10167 bound_to 10162
  156.2324  130.7046  151.0872 H   0  0  0  0  0  0  0  0  0  0  0  0  # atno 10718 bound_to 10713
  154.2371  135.2776  155.2868 H   0  0  0  0  0  0  0  0  0  0  0  0  # atno 10763 bound_to 10752
  154.5576  135.5656  153.6981 H   0  0  0  0  0  0  0  0  0  0  0  0  # atno 10764 bound_to 10752
  153.0007  135.6290  154.2514 H   0  0  0  0  0  0  0  0  0  0  0  0  # atno 10765 bound_to 10752
  140.8812  134.1929  157.4589 H   0  0  0  0  0  0  0  0  0  0  0  0  # atno 11005 bound_to 11000
  145.0174  140.8765  143.5187 LP  0  0  0  0  0  0  0  0  0  0  0  0  # atno 17320 bound_to 7965
  145.1545  139.2494  143.5423 LP  0  0  0  0  0  0  0  0  0  0  0  0  # atno 17321 bound_to 7965
  140.2650  144.4026  150.6172 LP  0  0  0  0  0  0  0  0  0  0  0  0  # atno 17342 bound_to 10162
  140.6130  143.2170  151.6849 LP  0  0  0  0  0  0  0  0  0  0  0  0  # atno 17343 bound_to 10162
  157.7139  131.0720  150.6400 LP  0  0  0  0  0  0  0  0  0  0  0  0  # atno 17370 bound_to 10713
  156.6468  130.4474  149.5733 LP  0  0  0  0  0  0  0  0  0  0  0  0  # atno 17371 bound_to 10713
  139.8720  134.9818  156.5131 LP  0  0  0  0  0  0  0  0  0  0  0  0  # atno 17394 bound_to 11000
  140.8458  133.8170  155.9120 LP  0  0  0  0  0  0  0  0  0  0  0  0  # atno 17395 bound_to 11000

$$$$
