AV-unprocessed.smi:2153|AV-procd|sdf|8767|dock1
  -GOLD-   2272011543D 1   1.00000     0.00000
 Structure written by MMmdl.
 48 49  0  0  0  0  0  0  0  0  1 V2000
  153.2022  141.3126  160.0177 C   0  0  0  0  0  0  0  0  0  0  0  0
  152.4038  142.6005  159.7606 C   0  0  1  0  0  0  0  0  0  0  0  0
  153.2948  143.7189  159.1795 C   0  0  0  0  0  0  0  0  0  0  0  0
  152.5004  145.0168  158.9608 C   0  0  0  0  0  0  0  0  0  0  0  0
  151.2612  144.7777  158.0847 C   0  0  0  0  0  0  0  0  0  0  0  0
  150.3780  143.6635  158.6665 C   0  0  0  0  0  0  0  0  0  0  0  0
  151.1724  142.3528  158.8599 C   0  0  1  0  0  0  0  0  0  0  0  0
  151.6525  141.8282  157.6276 O   0  0  0  0  0  0  0  0  0  0  0  0
  150.7651  141.8958  156.5224 C   0  0  0  0  0  0  0  0  0  0  0  0
  149.6285  140.8851  156.7384 C   0  0  0  0  0  0  0  0  0  0  0  0
  148.6199  140.9750  155.6864 N   0  0  0  0  0  0  0  0  0  0  0  0
  148.7461  140.4555  154.4550 C   0  0  0  0  0  0  0  0  0  0  0  0
  149.7283  139.8055  154.0939 O   0  0  0  0  0  0  0  0  0  0  0  0
  147.5751  140.6891  153.4920 C   0  0  0  0  0  0  0  0  0  0  0  0
  146.8053  139.4632  153.2440 N   0  0  0  0  0  0  0  0  0  0  0  0
  146.7184  138.9588  151.9591 C   0  0  0  0  0  0  0  0  0  0  0  0
  146.0001  137.8611  151.6365 C   0  0  0  0  0  0  0  0  0  0  0  0
  145.2593  137.1281  152.6552 C   0  0  0  0  0  0  0  0  0  0  0  0
  144.5745  136.1339  152.4096 O   0  0  0  0  0  0  0  0  0  0  0  0
  145.3773  137.6539  153.9623 N   0  0  0  0  0  0  0  0  0  0  0  0
  144.6459  136.9709  155.0090 C   0  0  0  0  0  0  0  0  0  0  0  0
  146.1211  138.8107  154.2925 C   0  0  0  0  0  0  0  0  0  0  0  0
  146.1769  139.2526  155.4419 O   0  0  0  0  0  0  0  0  0  0  0  0
  153.6314  140.9177  159.0963 H   0  0  0  0  0  0  0  0  0  0  0  0
  152.5687  140.5372  160.4487 H   0  0  0  0  0  0  0  0  0  0  0  0
  154.0224  141.4929  160.7125 H   0  0  0  0  0  0  0  0  0  0  0  0
  152.0369  142.9437  160.7292 H   0  0  0  0  0  0  0  0  0  0  0  0
  154.1330  143.9149  159.8488 H   0  0  0  0  0  0  0  0  0  0  0  0
  153.7296  143.3937  158.2332 H   0  0  0  0  0  0  0  0  0  0  0  0
  152.1916  145.4206  159.9257 H   0  0  0  0  0  0  0  0  0  0  0  0
  153.1380  145.7717  158.5019 H   0  0  0  0  0  0  0  0  0  0  0  0
  150.6873  145.7000  157.9942 H   0  0  0  0  0  0  0  0  0  0  0  0
  151.5688  144.5057  157.0749 H   0  0  0  0  0  0  0  0  0  0  0  0
  149.9869  143.9880  159.6316 H   0  0  0  0  0  0  0  0  0  0  0  0
  149.5038  143.5070  158.0356 H   0  0  0  0  0  0  0  0  0  0  0  0
  150.5306  141.6081  159.3338 H   0  0  0  0  0  0  0  0  0  0  0  0
  150.3493  142.9004  156.4360 H   0  0  0  0  0  0  0  0  0  0  0  0
  151.2869  141.6718  155.5922 H   0  0  0  0  0  0  0  0  0  0  0  0
  150.0281  139.8718  156.8067 H   0  0  0  0  0  0  0  0  0  0  0  0
  149.1393  141.0860  157.6915 H   0  0  0  0  0  0  0  0  0  0  0  0
  147.7783  141.4896  155.9017 H   0  0  0  0  0  0  0  0  0  0  0  0
  146.9266  141.4517  153.9250 H   0  0  0  0  0  0  0  0  0  0  0  0
  147.9377  141.1103  152.5524 H   0  0  0  0  0  0  0  0  0  0  0  0
  147.2441  139.4732  151.1676 H   0  0  0  0  0  0  0  0  0  0  0  0
  145.9692  137.5242  150.6108 H   0  0  0  0  0  0  0  0  0  0  0  0
  145.0145  137.2614  155.9928 H   0  0  0  0  0  0  0  0  0  0  0  0
  144.7993  135.8970  154.8885 H   0  0  0  0  0  0  0  0  0  0  0  0
  143.5954  137.2405  154.8888 H   0  0  0  0  0  0  0  0  0  0  0  0
  1  2  1  0  0  0  0
  1 24  1  0  0  0  0
  1 25  1  0  0  0  0
  1 26  1  0  0  0  0
  2  7  1  0  0  0  0
  2  3  1  0  0  0  0
  2 27  1  0  0  0  0
  3  4  1  0  0  0  0
  3 28  1  0  0  0  0
  3 29  1  0  0  0  0
  4  5  1  0  0  0  0
  4 30  1  0  0  0  0
  4 31  1  0  0  0  0
  5  6  1  0  0  0  0
  5 32  1  0  0  0  0
  5 33  1  0  0  0  0
  6  7  1  0  0  0  0
  6 34  1  0  0  0  0
  6 35  1  0  0  0  0
  7  8  1  0  0  0  0
  7 36  1  0  0  0  0
  8  9  1  0  0  0  0
  9 10  1  0  0  0  0
  9 37  1  0  0  0  0
  9 38  1  0  0  0  0
 10 11  1  0  0  0  0
 10 39  1  0  0  0  0
 10 40  1  0  0  0  0
 11 12  1  0  0  0  0
 11 41  1  0  0  0  0
 12 13  2  0  0  0  0
 12 14  1  0  0  0  0
 14 15  1  0  0  0  0
 14 42  1  0  0  0  0
 14 43  1  0  0  0  0
 15 22  1  0  0  0  0
 15 16  1  0  0  0  0
 16 17  2  0  0  0  0
 16 44  1  0  0  0  0
 17 18  1  0  0  0  0
 17 45  1  0  0  0  0
 18 19  2  0  0  0  0
 18 20  1  0  0  0  0
 20 21  1  0  0  0  0
 20 22  1  0  0  0  0
 21 46  1  0  0  0  0
 21 47  1  0  0  0  0
 21 48  1  0  0  0  0
 22 23  2  0  0  0  0
M  END
> <s_m_source_file>
AV-unprocessed.smi

> <i_m_source_file_index>
2153

> <i_lp_mmshare_version>
43012

> <i_f3d_flags>
0

> <s_epik_input>
W0NIM11bQ0BASF0xW0NIMl1bQ0gyXVtDSDJdW0NIMl1bQ0BIXTFPW0NIMl1bQ0gyXVtOSF1DKD1PKVtDSDJdbjJbY0hdW2NIXWMoPU8pbihbQ0gzXSljMj1P

> <s_epik_cmdline>
J2VwaWtfcHl0aG9uJywgJy1waCcsICc3LjAnLCAnLXRuJywgJzgnLCAnLW1hJywgJzIwMCcsICctbWV0YWxfYmluZGluZycsICctaW1hZScsICc8aW5maWxlLm1hZT4nLCAnLW9tYWUnLCAnPG91dGZpbGUubWFlPic=

> <r_lp_tautomer_probability>
1

> <r_epik_Ionization_Penalty>
4.02205e-08

> <r_epik_Ionization_Penalty_Charging>
1.23606e-08

> <r_epik_Ionization_Penalty_Neutral>
2.78599e-08

> <r_epik_State_Penalty>
-0

> <r_epik_Charging_Adjusted_Penalty>
1.23606e-08

> <i_epik_Tot_Q>
0

> <i_epik_Tot_abs_Q>
0

> <r_epik_Metal_State_Penalty>
-0

> <b_epik_Metal_Only>
0

> <s_lp_Force_Field>
OPLS_2005

> <r_lp_Energy>
16.8304

> <b_lp_Chiralities_Consistent>
1

> <s_lp_Variant>
AV-unprocessed.smi:2153-2

> <Gold.Version>
5.8.1

> <Gold.Id.Protein>
6NUR|6NUR_protein|mol2

> <Gold.PLP.Fitness>
46.3583

> <Gold.PLP.PLP>
-42.0301

> <Gold.PLP.part.hbond>
-1.0000

> <Gold.PLP.part.metal>
0.0000

> <Gold.PLP.part.buried>
-0.6425

> <Gold.PLP.part.nonpolar>
-42.9067

> <Gold.PLP.part.repulsive>
2.3828

> <Gold.PLP.ligand.clash>
0.0000

> <Gold.PLP.ligand.torsion>
0.4472

> <Gold.PLP.Chemscore.Hbond>
0.8406

> <Gold.PLP.Chemscore.CHOScore>
0.8026

> <Gold.PLP.Chemscore.Metal>
0.0000

> <Gold.Chemscore.Hbonds>
donor molecule, donor type, donor heavy atom, donor atom, acceptor molecule, acceptor atom, score
      P1  H  7989  7998       L1    13  0.42
      L1  C    16    44       P1  7957  0.95

> <Gold.PLP.Chemscore.Internal.Correction>
0.2931

> <Gold.Rescore>
     Score         DG    S(hbond)    S(metal)    S(lipo)     H(rot)  DE(clash)    DE(int)     intcor
     12.70     -15.21       0.60        0.00     114.14       2.20       1.13       1.38       ----

> <Gold.Chemscore.Fitness>
12.7002

> <Gold.Chemscore.DG>
-15.2142

> <Gold.Chemscore.ZeroCoef>
-5.4800

> <Gold.Chemscore.Hbond>
0.6000

> <Gold.Chemscore.Metal>
0.0000

> <Gold.Chemscore.Lipo>
114.1355

> <Gold.Chemscore.Internal_Hbond>
0.0000

> <Gold.Chemscore.DEClash>
1.1307

> <Gold.Chemscore.DEInternal>
1.3833

> <Gold.Chemscore.Rot>
2.1968

> <Gold.Chemscore.Internal.Correction>
   9.000000E+99

> <Gold.Chemscore.Hbonds>
donor molecule, donor type, donor heavy atom, donor atom, acceptor molecule, acceptor atom, score
      P1  H  7989  7998       L1    13  0.40

> <Gold.Chemscore.Hbond.Weighted>
-2.0041

> <Gold.Chemscore.Metal.Weighted>
-0.0000

> <Gold.Chemscore.Lipo.Weighted>
-13.3539

> <Gold.Chemscore.Internal_Hbond.Weighted>
0.0000

> <Gold.Chemscore.DEClash.Weighted>
1.1307

> <Gold.Chemscore.DEInternal.Weighted>
1.3833

> <Gold.Chemscore.Rot.Weighted>
5.6238

> <Gold.Chemscore.Internal.Correction.Weighted>
   9.000000E+99

> <Gold.Protein.RotatedTorsions>
[ 6907 6896 6895 6894 ] final  155.29 input  -60.11 | X-H torsion
[ 7974 7965 7964 7962 ] final  -36.09 input  175.53 | X-H torsion
[ 8008 7997 7996 7995 ] final -144.14 input   59.86 | X-H torsion
[ 10167 10162 10161 10158 ] final  115.43 input  -65.29 | X-H torsion
[ 10718 10713 10712 10709 ] final  169.49 input   66.30 | X-H torsion
[ 10763 10752 10751 10750 ] final   48.61 input  -60.55 | X-H torsion
[ 11005 11000 10999 10996 ] final  -28.98 input  -57.11 | X-H torsion

> <Gold.Protein.ActiveResidues>
 VAL166  LYS551  ARG553  GLY616  TRP617  ASP618  TYR619  PRO620  LYS621  CYS622 
 ASP623  PHE694  ASN695  SER759  ASP760  ASP761  ALA762  ILE779  LEU786  VAL792 
 PHE793  MET794  SER795  GLU796  ALA797  LYS798  CYS799  TRP800  GLU811  SER814 

> <Gold.Protein.RotatedAtoms>
  152.0462  133.3999  159.4357 H   0  0  0  0  0  0  0  0  0  0  0  0  # atno 6907 bound_to 6896
  150.6872  134.3359  159.4856 H   0  0  0  0  0  0  0  0  0  0  0  0  # atno 6908 bound_to 6896
  152.1163  134.9237  160.0615 H   0  0  0  0  0  0  0  0  0  0  0  0  # atno 6909 bound_to 6896
  146.0691  140.6237  142.8961 H   0  0  0  0  0  0  0  0  0  0  0  0  # atno 7974 bound_to 7965
  155.5221  140.0592  157.2905 H   0  0  0  0  0  0  0  0  0  0  0  0  # atno 8008 bound_to 7997
  154.4514  140.1951  156.0454 H   0  0  0  0  0  0  0  0  0  0  0  0  # atno 8009 bound_to 7997
  156.0712  140.3260  155.7582 H   0  0  0  0  0  0  0  0  0  0  0  0  # atno 8010 bound_to 7997
  139.6318  144.7115  151.2417 H   0  0  0  0  0  0  0  0  0  0  0  0  # atno 10167 bound_to 10162
  157.0218  131.0234  151.2772 H   0  0  0  0  0  0  0  0  0  0  0  0  # atno 10718 bound_to 10713
  152.9791  135.5938  154.3954 H   0  0  0  0  0  0  0  0  0  0  0  0  # atno 10763 bound_to 10752
  154.3605  135.2767  155.2324 H   0  0  0  0  0  0  0  0  0  0  0  0  # atno 10764 bound_to 10752
  154.4324  135.6033  153.6132 H   0  0  0  0  0  0  0  0  0  0  0  0  # atno 10765 bound_to 10752
  140.9256  133.7371  156.0863 H   0  0  0  0  0  0  0  0  0  0  0  0  # atno 11005 bound_to 11000
  144.7221  140.4406  143.7000 LP  0  0  0  0  0  0  0  0  0  0  0  0  # atno 17320 bound_to 7965
  145.6423  139.1552  143.2908 LP  0  0  0  0  0  0  0  0  0  0  0  0  # atno 17321 bound_to 7965
  140.7443  143.6467  150.8285 LP  0  0  0  0  0  0  0  0  0  0  0  0  # atno 17342 bound_to 10162
  140.0093  143.5660  152.2845 LP  0  0  0  0  0  0  0  0  0  0  0  0  # atno 17343 bound_to 10162
  157.5244  130.8018  149.7845 LP  0  0  0  0  0  0  0  0  0  0  0  0  # atno 17370 bound_to 10713
  156.0099  130.3838  150.2299 LP  0  0  0  0  0  0  0  0  0  0  0  0  # atno 17371 bound_to 10713
  140.7930  134.3595  157.5459 LP  0  0  0  0  0  0  0  0  0  0  0  0  # atno 17394 bound_to 11000
  139.8785  134.9152  156.3125 LP  0  0  0  0  0  0  0  0  0  0  0  0  # atno 17395 bound_to 11000

$$$$
