AV-unprocessed.smi:899|AV-procd|sdf|4088|dock8
  -GOLD-   22720 1573D 1   1.00000     0.00000
 Structure written by MMmdl.
 32 33  0  0  0  0  0  0  0  0  2 V2000
  152.5793  140.2719  157.4596 N   0  0  0  0  0  0  0  0  0  0  0  0
  152.3032  141.3104  157.8891 C   0  0  0  0  0  0  0  0  0  0  0  0
  151.9523  142.6301  158.4356 C   0  0  0  0  0  0  0  0  0  0  0  0
  152.3062  142.7508  159.9035 C   0  0  0  0  0  0  0  0  0  0  0  0
  152.0426  143.9481  160.5969 C   0  0  0  0  0  0  0  0  0  0  0  0
  152.3692  144.0600  161.9618 C   0  0  0  0  0  0  0  0  0  0  0  0
  152.9601  142.9832  162.6542 C   0  0  0  0  0  0  0  0  0  0  0  0
  153.2421  143.1778  163.9894 O   0  0  0  0  0  0  0  0  0  0  0  0
  153.5472  144.4946  164.4277 C   0  0  0  0  0  0  0  0  0  0  0  0
  154.9217  144.4773  165.1121 C   0  0  0  0  0  0  0  0  0  0  0  0
  155.0956  143.2734  165.9352 N   0  0  0  0  0  0  0  0  0  0  0  0
  155.0207  143.4224  167.3305 C   0  0  0  0  0  0  0  0  0  0  0  0
  155.1725  142.3798  168.1700 C   0  0  0  0  0  0  0  0  0  0  0  0
  155.0759  142.5929  169.8818 Cl  0  0  0  0  0  0  0  0  0  0  0  0
  155.4248  141.0625  167.5890 C   0  0  0  0  0  0  0  0  0  0  0  0
  155.5647  140.0881  168.3269 O   0  0  0  0  0  0  0  0  0  0  0  0
  155.4965  140.9728  166.2285 N   0  5  0  0  0  0  0  0  0  0  0  0
  155.3421  142.0447  165.3914 C   0  0  0  0  0  0  0  0  0  0  0  0
  155.4201  141.9404  164.1670 O   0  0  0  0  0  0  0  0  0  0  0  0
  153.2248  141.7815  161.9494 C   0  0  0  0  0  0  0  0  0  0  0  0
  152.8992  141.6689  160.5836 C   0  0  0  0  0  0  0  0  0  0  0  0
  152.4820  143.3928  157.8643 H   0  0  0  0  0  0  0  0  0  0  0  0
  150.8840  142.7911  158.2872 H   0  0  0  0  0  0  0  0  0  0  0  0
  151.5896  144.7835  160.0834 H   0  0  0  0  0  0  0  0  0  0  0  0
  152.1627  144.9825  162.4845 H   0  0  0  0  0  0  0  0  0  0  0  0
  153.5635  145.1800  163.5786 H   0  0  0  0  0  0  0  0  0  0  0  0
  152.7882  144.8405  165.1314 H   0  0  0  0  0  0  0  0  0  0  0  0
  155.7055  144.5301  164.3552 H   0  0  0  0  0  0  0  0  0  0  0  0
  155.0498  145.3762  165.7175 H   0  0  0  0  0  0  0  0  0  0  0  0
  154.8374  144.4302  167.6736 H   0  0  0  0  0  0  0  0  0  0  0  0
  153.6770  140.9298  162.4346 H   0  0  0  0  0  0  0  0  0  0  0  0
  153.1059  140.7471  160.0597 H   0  0  0  0  0  0  0  0  0  0  0  0
  1  2  3  0  0  0  0
  2  3  1  0  0  0  0
  3  4  1  0  0  0  0
  3 22  1  0  0  0  0
  3 23  1  0  0  0  0
  4 21  1  0  0  0  0
  4  5  2  0  0  0  0
  5  6  1  0  0  0  0
  5 24  1  0  0  0  0
  6  7  2  0  0  0  0
  6 25  1  0  0  0  0
  7  8  1  0  0  0  0
  7 20  1  0  0  0  0
  8  9  1  0  0  0  0
  9 10  1  0  0  0  0
  9 26  1  0  0  0  0
  9 27  1  0  0  0  0
 10 11  1  0  0  0  0
 10 28  1  0  0  0  0
 10 29  1  0  0  0  0
 11 18  1  0  0  0  0
 11 12  1  0  0  0  0
 12 13  2  0  0  0  0
 12 30  1  0  0  0  0
 13 14  1  0  0  0  0
 13 15  1  0  0  0  0
 15 16  2  0  0  0  0
 15 17  1  0  0  0  0
 17 18  1  0  0  0  0
 18 19  2  0  0  0  0
 20 21  2  0  0  0  0
 20 31  1  0  0  0  0
 21 32  1  0  0  0  0
M  CHG  1  17  -1
M  END
> <s_m_source_file>
AV-unprocessed.smi

> <i_m_source_file_index>
899

> <i_lp_mmshare_version>
43012

> <i_f3d_flags>
0

> <s_epik_input>
TiNDW0NIMl1jMVtjSF1bY0hdYyhbY0hdW2NIXTEpT1tDSDJdW0NIMl1uMltjSF1jKENsKWMoPU8pW25IXWMyPU8=

> <s_epik_cmdline>
J2VwaWtfcHl0aG9uJywgJy1waCcsICc3LjAnLCAnLXRuJywgJzgnLCAnLW1hJywgJzIwMCcsICctbWV0YWxfYmluZGluZycsICctaW1hZScsICc8aW5maWxlLm1hZT4nLCAnLW9tYWUnLCAnPG91dGZpbGUubWFlPic=

> <r_lp_tautomer_probability>
1

> <r_epik_Ionization_Penalty>
1.54028

> <r_epik_Ionization_Penalty_Charging>
7.31917e-09

> <r_epik_Ionization_Penalty_Neutral>
1.54028

> <r_epik_State_Penalty>
1.63364

> <r_epik_Charging_Adjusted_Penalty>
1.63364

> <i_epik_Tot_Q>
-1

> <i_epik_Tot_abs_Q>
1

> <r_epik_Metal_State_Penalty>
0.00867927

> <b_epik_Metal_Only>
0

> <s_lp_Force_Field>
OPLS_2005

> <r_lp_Energy>
21.9466

> <b_lp_Chiralities_Consistent>
1

> <s_lp_Variant>
AV-unprocessed.smi:899-2

> <Gold.Version>
5.8.1

> <Gold.Id.Protein>
6NUR|6NUR_protein|mol2

> <Gold.PLP.Fitness>
50.8383

> <Gold.PLP.PLP>
-49.9422

> <Gold.PLP.part.hbond>
-3.3608

> <Gold.PLP.part.metal>
0.0000

> <Gold.PLP.part.buried>
-7.9756

> <Gold.PLP.part.nonpolar>
-35.0427

> <Gold.PLP.part.repulsive>
0.2363

> <Gold.PLP.ligand.clash>
0.0000

> <Gold.PLP.ligand.torsion>
1.0232

> <Gold.PLP.Chemscore.Hbond>
0.9760

> <Gold.PLP.Chemscore.CHOScore>
0.0000

> <Gold.PLP.Chemscore.Metal>
0.0000

> <Gold.Chemscore.Hbonds>
donor molecule, donor type, donor heavy atom, donor atom, acceptor molecule, acceptor atom, score
      P1  H  7997  8010       L1     1  0.98

> <Gold.PLP.Chemscore.Internal.Correction>
0.0144

> <Gold.Rescore>
     Score         DG    S(hbond)    S(metal)    S(lipo)     H(rot)  DE(clash)    DE(int)     intcor
     13.51     -16.60       0.93        0.00     117.63       2.25       2.15       0.94       ----

> <Gold.Chemscore.Fitness>
13.5065

> <Gold.Chemscore.DG>
-16.5963

> <Gold.Chemscore.ZeroCoef>
-5.4800

> <Gold.Chemscore.Hbond>
0.9315

> <Gold.Chemscore.Metal>
0.0000

> <Gold.Chemscore.Lipo>
117.6300

> <Gold.Chemscore.Internal_Hbond>
0.0000

> <Gold.Chemscore.DEClash>
2.1544

> <Gold.Chemscore.DEInternal>
0.9353

> <Gold.Chemscore.Rot>
2.2491

> <Gold.Chemscore.Internal.Correction>
   9.000000E+99

> <Gold.Chemscore.Hbonds>
donor molecule, donor type, donor heavy atom, donor atom, acceptor molecule, acceptor atom, score
      P1  H  7997  8010       L1     1  0.84

> <Gold.Chemscore.Hbond.Weighted>
-3.1111

> <Gold.Chemscore.Metal.Weighted>
-0.0000

> <Gold.Chemscore.Lipo.Weighted>
-13.7627

> <Gold.Chemscore.Internal_Hbond.Weighted>
0.0000

> <Gold.Chemscore.DEClash.Weighted>
2.1544

> <Gold.Chemscore.DEInternal.Weighted>
0.9353

> <Gold.Chemscore.Rot.Weighted>
5.7576

> <Gold.Chemscore.Internal.Correction.Weighted>
   9.000000E+99

> <Gold.Protein.RotatedTorsions>
[ 6907 6896 6895 6894 ] final  178.85 input  -60.11 | X-H torsion
[ 7974 7965 7964 7962 ] final  153.45 input  175.53 | X-H torsion
[ 8008 7997 7996 7995 ] final   60.27 input   59.86 | X-H torsion
[ 10167 10162 10161 10158 ] final    5.72 input  -65.29 | X-H torsion
[ 10718 10713 10712 10709 ] final  -90.00 input   66.30 | X-H torsion
[ 10763 10752 10751 10750 ] final   57.94 input  -60.55 | X-H torsion
[ 11005 11000 10999 10996 ] final  162.00 input  -57.11 | X-H torsion

> <Gold.Protein.ActiveResidues>
 VAL166  LYS551  ARG553  GLY616  TRP617  ASP618  TYR619  PRO620  LYS621  CYS622 
 ASP623  PHE694  ASN695  SER759  ASP760  ASP761  ALA762  ILE779  LEU786  VAL792 
 PHE793  MET794  SER795  GLU796  ALA797  LYS798  CYS799  TRP800  GLU811  SER814 

> <Gold.Protein.RotatedAtoms>
  151.6811  133.3312  159.3219 H   0  0  0  0  0  0  0  0  0  0  0  0  # atno 6907 bound_to 6896
  150.7822  134.6779  159.6437 H   0  0  0  0  0  0  0  0  0  0  0  0  # atno 6908 bound_to 6896
  152.3883  134.6486  160.0169 H   0  0  0  0  0  0  0  0  0  0  0  0  # atno 6909 bound_to 6896
  144.8153  139.6803  143.6124 H   0  0  0  0  0  0  0  0  0  0  0  0  # atno 7974 bound_to 7965
  155.5796  140.3491  155.4537 H   0  0  0  0  0  0  0  0  0  0  0  0  # atno 8008 bound_to 7997
  156.0383  140.1290  157.0209 H   0  0  0  0  0  0  0  0  0  0  0  0  # atno 8009 bound_to 7997
  154.4381  140.1029  156.6185 H   0  0  0  0  0  0  0  0  0  0  0  0  # atno 8010 bound_to 7997
  140.6467  143.7645  150.7510 H   0  0  0  0  0  0  0  0  0  0  0  0  # atno 10167 bound_to 10162
  155.9986  130.4893  150.5256 H   0  0  0  0  0  0  0  0  0  0  0  0  # atno 10718 bound_to 10713
  152.9860  135.5624  154.5473 H   0  0  0  0  0  0  0  0  0  0  0  0  # atno 10763 bound_to 10752
  154.4916  135.2793  155.1494 H   0  0  0  0  0  0  0  0  0  0  0  0  # atno 10764 bound_to 10752
  154.2961  135.6316  153.5458 H   0  0  0  0  0  0  0  0  0  0  0  0  # atno 10765 bound_to 10752
  140.2214  134.8193  157.3224 H   0  0  0  0  0  0  0  0  0  0  0  0  # atno 11005 bound_to 11000
  146.2456  139.6091  142.9462 LP  0  0  0  0  0  0  0  0  0  0  0  0  # atno 17320 bound_to 7965
  145.5228  141.0431  143.2426 LP  0  0  0  0  0  0  0  0  0  0  0  0  # atno 17321 bound_to 7965
  140.1287  143.4545  152.2267 LP  0  0  0  0  0  0  0  0  0  0  0  0  # atno 17342 bound_to 10162
  139.5678  144.7445  151.3974 LP  0  0  0  0  0  0  0  0  0  0  0  0  # atno 17343 bound_to 10162
  157.3212  131.0682  151.1930 LP  0  0  0  0  0  0  0  0  0  0  0  0  # atno 17370 bound_to 10713
  157.2843  130.6765  149.6082 LP  0  0  0  0  0  0  0  0  0  0  0  0  # atno 17371 bound_to 10713
  140.1845  134.4448  155.7752 LP  0  0  0  0  0  0  0  0  0  0  0  0  # atno 17394 bound_to 11000
  141.2223  133.6999  156.7925 LP  0  0  0  0  0  0  0  0  0  0  0  0  # atno 17395 bound_to 11000

$$$$
