AV-unprocessed.smi:1802|AV-procd|sdf|7277|dock8
  -GOLD-   22720 8533D 1   1.00000     0.00000
 Structure written by MMmdl.
 40 41  0  0  0  0  0  0  0  0  3 V2000
  152.7529  142.3223  160.7589 C   0  0  0  0  0  0  0  0  0  0  0  0
  152.6694  142.9663  159.3637 C   0  0  2  0  0  0  0  0  0  0  0  0
  152.1177  144.4037  159.4001 C   0  0  0  0  0  0  0  0  0  0  0  0
  150.6030  144.4139  159.6498 C   0  0  0  0  0  0  0  0  0  0  0  0
  149.8700  143.5147  158.6415 C   0  0  0  0  0  0  0  0  0  0  0  0
  150.4066  142.1298  158.6693 N   0  3  1  0  0  0  0  0  0  0  0  0
  149.6195  141.2042  157.8165 C   0  0  0  0  0  0  0  0  0  0  0  0
  150.3975  139.9236  157.4713 C   0  0  0  0  0  0  0  0  0  0  0  0
  149.4983  138.6812  157.4767 C   0  0  0  0  0  0  0  0  0  0  0  0
  149.0277  138.3974  158.8252 N   0  0  0  0  0  0  0  0  0  0  0  0
  148.3496  137.3016  159.1902 C   0  0  0  0  0  0  0  0  0  0  0  0
  148.0743  136.4418  158.3501 O   0  0  0  0  0  0  0  0  0  0  0  0
  148.0333  137.2712  160.5044 N   0  5  0  0  0  0  0  0  0  0  0  0
  147.4617  136.1763  161.0326 C   0  0  0  0  0  0  0  0  0  0  0  0
  146.8591  135.2459  160.2752 N   0  0  0  0  0  0  0  0  0  0  0  0
  146.3374  134.1934  161.0151 N   0  0  0  0  0  0  0  0  0  0  0  0
  146.5690  134.3538  162.3177 C   0  0  0  0  0  0  0  0  0  0  0  0
  147.4482  135.8023  162.7586 S   0  0  0  0  0  0  0  0  0  0  0  0
  151.8645  142.1026  158.3706 C   0  0  0  0  0  0  0  0  0  0  0  0
  151.7692  142.2010  161.2125 H   0  0  0  0  0  0  0  0  0  0  0  0
  153.3572  142.9280  161.4344 H   0  0  0  0  0  0  0  0  0  0  0  0
  153.2135  141.3355  160.7057 H   0  0  0  0  0  0  0  0  0  0  0  0
  153.6934  143.0226  158.9914 H   0  0  0  0  0  0  0  0  0  0  0  0
  152.6316  144.9934  160.1601 H   0  0  0  0  0  0  0  0  0  0  0  0
  152.3234  144.8908  158.4461 H   0  0  0  0  0  0  0  0  0  0  0  0
  150.3897  144.0790  160.6654 H   0  0  0  0  0  0  0  0  0  0  0  0
  150.2238  145.4339  159.5794 H   0  0  0  0  0  0  0  0  0  0  0  0
  148.8065  143.5050  158.8837 H   0  0  0  0  0  0  0  0  0  0  0  0
  149.9623  143.9218  157.6333 H   0  0  0  0  0  0  0  0  0  0  0  0
  148.7128  140.9093  158.3468 H   0  0  0  0  0  0  0  0  0  0  0  0
  149.2922  141.7182  156.9115 H   0  0  0  0  0  0  0  0  0  0  0  0
  150.8648  140.0132  156.4908 H   0  0  0  0  0  0  0  0  0  0  0  0
  151.2079  139.7874  158.1889 H   0  0  0  0  0  0  0  0  0  0  0  0
  148.6383  138.8318  156.8227 H   0  0  0  0  0  0  0  0  0  0  0  0
  150.0505  137.8211  157.0941 H   0  0  0  0  0  0  0  0  0  0  0  0
  149.2327  139.0789  159.5411 H   0  0  0  0  0  0  0  0  0  0  0  0
  146.2231  133.6129  163.0228 H   0  0  0  0  0  0  0  0  0  0  0  0
  152.0245  142.4658  157.3539 H   0  0  0  0  0  0  0  0  0  0  0  0
  152.2439  141.0815  158.3941 H   0  0  0  0  0  0  0  0  0  0  0  0
  150.2940  141.8054  159.6191 H   0  0  0  0  0  0  0  0  0  0  0  0
  1  2  1  0  0  0  0
  1 20  1  0  0  0  0
  1 21  1  0  0  0  0
  1 22  1  0  0  0  0
  2 19  1  0  0  0  0
  2  3  1  0  0  0  0
  2 23  1  0  0  0  0
  3  4  1  0  0  0  0
  3 24  1  0  0  0  0
  3 25  1  0  0  0  0
  4  5  1  0  0  0  0
  4 26  1  0  0  0  0
  4 27  1  0  0  0  0
  5  6  1  0  0  0  0
  5 28  1  0  0  0  0
  5 29  1  0  0  0  0
  6  7  1  0  0  0  0
  6 19  1  0  0  0  0
  6 40  1  0  0  0  0
  7  8  1  0  0  0  0
  7 30  1  0  0  0  0
  7 31  1  0  0  0  0
  8  9  1  0  0  0  0
  8 32  1  0  0  0  0
  8 33  1  0  0  0  0
  9 10  1  0  0  0  0
  9 34  1  0  0  0  0
  9 35  1  0  0  0  0
 10 11  1  0  0  0  0
 10 36  1  0  0  0  0
 11 12  2  0  0  0  0
 11 13  1  0  0  0  0
 13 14  1  0  0  0  0
 14 18  1  0  0  0  0
 14 15  2  0  0  0  0
 15 16  1  0  0  0  0
 16 17  2  0  0  0  0
 17 18  1  0  0  0  0
 17 37  1  0  0  0  0
 19 38  1  0  0  0  0
 19 39  1  0  0  0  0
M  CHG  1   6   1
M  CHG  1  13  -1
M  END
> <s_m_source_file>
AV-unprocessed.smi

> <i_m_source_file_index>
1802

> <i_lp_mmshare_version>
43012

> <i_f3d_flags>
0

> <s_epik_input>
W0NIM11bQ0BASF0xW0NIMl1bQ0gyXVtDSDJdTihbQ0gyXTEpW0NIMl1bQ0gyXVtDSDJdW05IXUMoPU8pW05IXWMybm5bY0hdczI=

> <s_epik_cmdline>
J2VwaWtfcHl0aG9uJywgJy1waCcsICc3LjAnLCAnLXRuJywgJzgnLCAnLW1hJywgJzIwMCcsICctbWV0YWxfYmluZGluZycsICctaW1hZScsICc8aW5maWxlLm1hZT4nLCAnLW9tYWUnLCAnPG91dGZpbGUubWFlPic=

> <r_lp_tautomer_probability>
1

> <r_epik_Ionization_Penalty>
3.29702

> <r_epik_Ionization_Penalty_Charging>
3.26059

> <r_epik_Ionization_Penalty_Neutral>
0.0364294

> <r_epik_State_Penalty>
3.25788

> <r_epik_Charging_Adjusted_Penalty>
6.51847

> <i_epik_Tot_Q>
0

> <i_epik_Tot_abs_Q>
2

> <r_epik_Metal_State_Penalty>
0.477639

> <b_epik_Metal_Only>
1

> <s_lp_Force_Field>
OPLS_2005

> <r_lp_Energy>
14.2366

> <b_lp_Chiralities_Consistent>
1

> <s_lp_Variant>
AV-unprocessed.smi:1802-7

> <Gold.Version>
5.8.1

> <Gold.Id.Protein>
6NUR|6NUR_protein|mol2

> <Gold.PLP.Fitness>
47.2259

> <Gold.PLP.PLP>
-40.0360

> <Gold.PLP.part.hbond>
-2.1918

> <Gold.PLP.part.metal>
0.0000

> <Gold.PLP.part.buried>
-6.7712

> <Gold.PLP.part.nonpolar>
-32.7664

> <Gold.PLP.part.repulsive>
0.3608

> <Gold.PLP.ligand.clash>
0.0000

> <Gold.PLP.ligand.torsion>
0.6273

> <Gold.PLP.Chemscore.Hbond>
2.7920

> <Gold.PLP.Chemscore.CHOScore>
0.0000

> <Gold.PLP.Chemscore.Metal>
0.0000

> <Gold.Chemscore.Hbonds>
donor molecule, donor type, donor heavy atom, donor atom, acceptor molecule, acceptor atom, score
      P1  H  6931  6943       L1    13  1.44
      P1  H  6934  6947       L1    13  1.44

> <Gold.PLP.Chemscore.Internal.Correction>
0.0685

> <Gold.Rescore>
     Score         DG    S(hbond)    S(metal)    S(lipo)     H(rot)  DE(clash)    DE(int)     intcor
     15.54     -17.85       1.79        0.00      96.91       1.94       0.01       2.30       ----

> <Gold.Chemscore.Fitness>
15.5370

> <Gold.Chemscore.DG>
-17.8472

> <Gold.Chemscore.ZeroCoef>
-5.4800

> <Gold.Chemscore.Hbond>
1.7937

> <Gold.Chemscore.Metal>
0.0000

> <Gold.Chemscore.Lipo>
96.9097

> <Gold.Chemscore.Internal_Hbond>
0.0000

> <Gold.Chemscore.DEClash>
0.0141

> <Gold.Chemscore.DEInternal>
2.2961

> <Gold.Chemscore.Rot>
1.9383

> <Gold.Chemscore.Internal.Correction>
   9.000000E+99

> <Gold.Chemscore.Hbonds>
donor molecule, donor type, donor heavy atom, donor atom, acceptor molecule, acceptor atom, score
      P1  H  6931  6943       L1    13  0.55
      P1  H  6934  6947       L1    13  0.37

> <Gold.Chemscore.Hbond.Weighted>
-5.9908

> <Gold.Chemscore.Metal.Weighted>
-0.0000

> <Gold.Chemscore.Lipo.Weighted>
-11.3384

> <Gold.Chemscore.Internal_Hbond.Weighted>
0.0000

> <Gold.Chemscore.DEClash.Weighted>
0.0141

> <Gold.Chemscore.DEInternal.Weighted>
2.2961

> <Gold.Chemscore.Rot.Weighted>
4.9620

> <Gold.Chemscore.Internal.Correction.Weighted>
   9.000000E+99

> <Gold.Protein.RotatedTorsions>
[ 6907 6896 6895 6894 ] final  -79.47 input  -60.11 | X-H torsion
[ 7974 7965 7964 7962 ] final   58.20 input  175.53 | X-H torsion
[ 8008 7997 7996 7995 ] final  132.33 input   59.86 | X-H torsion
[ 10167 10162 10161 10158 ] final   89.75 input  -65.29 | X-H torsion
[ 10718 10713 10712 10709 ] final  -83.94 input   66.30 | X-H torsion
[ 10763 10752 10751 10750 ] final -165.74 input  -60.55 | X-H torsion
[ 11005 11000 10999 10996 ] final  149.55 input  -57.11 | X-H torsion

> <Gold.Protein.ActiveResidues>
 VAL166  LYS551  ARG553  GLY616  TRP617  ASP618  TYR619  PRO620  LYS621  CYS622 
 ASP623  PHE694  ASN695  SER759  ASP760  ASP761  ALA762  ILE779  LEU786  VAL792 
 PHE793  MET794  SER795  GLU796  ALA797  LYS798  CYS799  TRP800  GLU811  SER814 

> <Gold.Protein.RotatedAtoms>
  150.6949  134.4116  159.5163 H   0  0  0  0  0  0  0  0  0  0  0  0  # atno 6907 bound_to 6896
  152.1873  134.8699  160.0530 H   0  0  0  0  0  0  0  0  0  0  0  0  # atno 6908 bound_to 6896
  151.9668  133.3678  159.4093 H   0  0  0  0  0  0  0  0  0  0  0  0  # atno 6909 bound_to 6896
  145.9208  139.3728  143.0479 H   0  0  0  0  0  0  0  0  0  0  0  0  # atno 7974 bound_to 7965
  156.2981  140.2549  156.3071 H   0  0  0  0  0  0  0  0  0  0  0  0  # atno 8008 bound_to 7997
  154.9362  140.0397  157.2092 H   0  0  0  0  0  0  0  0  0  0  0  0  # atno 8009 bound_to 7997
  154.8171  140.2854  155.5817 H   0  0  0  0  0  0  0  0  0  0  0  0  # atno 8010 bound_to 7997
  139.8542  144.6578  150.9134 H   0  0  0  0  0  0  0  0  0  0  0  0  # atno 10167 bound_to 10162
  156.0012  130.4682  150.4334 H   0  0  0  0  0  0  0  0  0  0  0  0  # atno 10718 bound_to 10713
  154.6902  135.2969  154.9490 H   0  0  0  0  0  0  0  0  0  0  0  0  # atno 10763 bound_to 10752
  154.0456  135.6651  153.4798 H   0  0  0  0  0  0  0  0  0  0  0  0  # atno 10764 bound_to 10752
  153.0607  135.5117  154.7990 H   0  0  0  0  0  0  0  0  0  0  0  0  # atno 10765 bound_to 10752
  140.1054  134.8957  157.1859 H   0  0  0  0  0  0  0  0  0  0  0  0  # atno 11005 bound_to 11000
  145.8552  140.9506  143.0728 LP  0  0  0  0  0  0  0  0  0  0  0  0  # atno 17320 bound_to 7965
  144.6753  140.0459  143.7480 LP  0  0  0  0  0  0  0  0  0  0  0  0  # atno 17321 bound_to 7965
  140.7784  143.3801  151.1493 LP  0  0  0  0  0  0  0  0  0  0  0  0  # atno 17342 bound_to 10162
  139.7436  143.8886  152.3057 LP  0  0  0  0  0  0  0  0  0  0  0  0  # atno 17343 bound_to 10162
  157.2381  131.0519  151.2453 LP  0  0  0  0  0  0  0  0  0  0  0  0  # atno 17370 bound_to 10713
  157.3647  130.7149  149.6524 LP  0  0  0  0  0  0  0  0  0  0  0  0  # atno 17371 bound_to 10713
  140.3162  134.2967  155.7256 LP  0  0  0  0  0  0  0  0  0  0  0  0  # atno 17394 bound_to 11000
  141.2117  133.7681  156.9847 LP  0  0  0  0  0  0  0  0  0  0  0  0  # atno 17395 bound_to 11000

$$$$
