AV-unprocessed.smi:2312|AV-procd|sdf|9263|dock8
  -GOLD-   2272012483D 1   1.00000     0.00000
 Structure written by MMmdl.
 34 35  0  0  0  0  0  0  0  0  1 V2000
  148.8589  140.7294  154.6205 C   0  0  0  0  0  0  0  0  0  0  0  0
  150.2285  140.4013  154.4262 O   0  0  0  0  0  0  0  0  0  0  0  0
  150.7133  139.2785  155.1637 C   0  0  0  0  0  0  0  0  0  0  0  0
  150.4243  139.4125  156.6653 C   0  0  0  0  0  0  0  0  0  0  0  0
  151.1752  140.5224  157.2361 N   0  0  0  0  0  0  0  0  0  0  0  0
  150.6232  141.5700  157.8605 C   0  0  0  0  0  0  0  0  0  0  0  0
  149.4085  141.7114  158.0039 O   0  0  0  0  0  0  0  0  0  0  0  0
  151.5626  142.4218  158.3049 N   0  0  0  0  0  0  0  0  0  0  0  0
  151.3695  143.6440  159.0027 C   0  0  0  0  0  0  0  0  0  0  0  0
  150.7158  143.7959  160.1503 N   0  0  0  0  0  0  0  0  0  0  0  0
  150.8538  145.1449  160.3142 C   0  0  0  0  0  0  0  0  0  0  0  0
  151.5305  145.7837  159.3594 N   0  0  0  0  0  0  0  0  0  0  0  0
  151.8617  144.7840  158.5091 N   0  0  0  0  0  0  0  0  0  0  0  0
  152.6223  145.0526  157.3038 C   0  0  0  0  0  0  0  0  0  0  0  0
  150.2303  137.9992  154.4545 C   0  0  0  0  0  0  0  0  0  0  0  0
  151.6459  137.4354  154.5905 C   0  0  0  0  0  0  0  0  0  0  0  0
  152.1327  138.8800  154.7125 C   0  0  0  0  0  0  0  0  0  0  0  0
  148.6344  141.6531  154.0878 H   0  0  0  0  0  0  0  0  0  0  0  0
  148.6219  140.8888  155.6726 H   0  0  0  0  0  0  0  0  0  0  0  0
  148.1977  139.9591  154.2245 H   0  0  0  0  0  0  0  0  0  0  0  0
  149.3594  139.5842  156.8296 H   0  0  0  0  0  0  0  0  0  0  0  0
  150.6662  138.4934  157.1997 H   0  0  0  0  0  0  0  0  0  0  0  0
  152.1810  140.4779  157.1611 H   0  0  0  0  0  0  0  0  0  0  0  0
  152.5231  142.1667  158.1294 H   0  0  0  0  0  0  0  0  0  0  0  0
  150.4418  145.6726  161.1618 H   0  0  0  0  0  0  0  0  0  0  0  0
  151.9689  144.9761  156.4345 H   0  0  0  0  0  0  0  0  0  0  0  0
  153.4306  144.3272  157.2083 H   0  0  0  0  0  0  0  0  0  0  0  0
  153.0524  146.0542  157.3389 H   0  0  0  0  0  0  0  0  0  0  0  0
  149.4674  137.4348  154.9914 H   0  0  0  0  0  0  0  0  0  0  0  0
  149.9449  138.1642  153.4138 H   0  0  0  0  0  0  0  0  0  0  0  0
  151.7885  136.8601  155.5067 H   0  0  0  0  0  0  0  0  0  0  0  0
  152.0124  136.9016  153.7131 H   0  0  0  0  0  0  0  0  0  0  0  0
  152.4160  139.3038  153.7474 H   0  0  0  0  0  0  0  0  0  0  0  0
  152.9109  139.0327  155.4609 H   0  0  0  0  0  0  0  0  0  0  0  0
  1  2  1  0  0  0  0
  1 18  1  0  0  0  0
  1 19  1  0  0  0  0
  1 20  1  0  0  0  0
  2  3  1  0  0  0  0
  3 17  1  0  0  0  0
  3  4  1  0  0  0  0
  3 15  1  0  0  0  0
  4  5  1  0  0  0  0
  4 21  1  0  0  0  0
  4 22  1  0  0  0  0
  5  6  1  0  0  0  0
  5 23  1  0  0  0  0
  6  7  2  0  0  0  0
  6  8  1  0  0  0  0
  8  9  1  0  0  0  0
  8 24  1  0  0  0  0
  9 13  1  0  0  0  0
  9 10  2  0  0  0  0
 10 11  1  0  0  0  0
 11 12  2  0  0  0  0
 11 25  1  0  0  0  0
 12 13  1  0  0  0  0
 13 14  1  0  0  0  0
 14 26  1  0  0  0  0
 14 27  1  0  0  0  0
 14 28  1  0  0  0  0
 15 16  1  0  0  0  0
 15 29  1  0  0  0  0
 15 30  1  0  0  0  0
 16 17  1  0  0  0  0
 16 31  1  0  0  0  0
 16 32  1  0  0  0  0
 17 33  1  0  0  0  0
 17 34  1  0  0  0  0
M  END
> <s_m_source_file>
AV-unprocessed.smi

> <i_m_source_file_index>
2312

> <i_lp_mmshare_version>
43012

> <i_f3d_flags>
0

> <s_epik_input>
W0NIMl0xW0NIMl1bQ0gyXUMxKE9bQ0gzXSlbQ0gyXVtOSF1DKD1PKVtOSF1jMm5bY0hdbm4yW0NIM10=

> <s_epik_cmdline>
J2VwaWtfcHl0aG9uJywgJy1waCcsICc3LjAnLCAnLXRuJywgJzgnLCAnLW1hJywgJzIwMCcsICctbWV0YWxfYmluZGluZycsICctaW1hZScsICc8aW5maWxlLm1hZT4nLCAnLW9tYWUnLCAnPG91dGZpbGUubWFlPic=

> <r_lp_tautomer_probability>
1

> <r_epik_Ionization_Penalty>
2.1066e-05

> <r_epik_Ionization_Penalty_Charging>
0

> <r_epik_Ionization_Penalty_Neutral>
2.1066e-05

> <r_epik_State_Penalty>
-0

> <r_epik_Charging_Adjusted_Penalty>
0

> <i_epik_Tot_Q>
0

> <i_epik_Tot_abs_Q>
0

> <r_epik_Metal_State_Penalty>
-0

> <b_epik_Metal_Only>
0

> <s_lp_Force_Field>
OPLS_2005

> <r_lp_Energy>
16.1455

> <b_lp_Chiralities_Consistent>
1

> <s_lp_Variant>
AV-unprocessed.smi:2312-1

> <Gold.Version>
5.8.1

> <Gold.Id.Protein>
6NUR|6NUR_protein|mol2

> <Gold.PLP.Fitness>
35.0681

> <Gold.PLP.PLP>
-33.4008

> <Gold.PLP.part.hbond>
-1.9312

> <Gold.PLP.part.metal>
0.0000

> <Gold.PLP.part.buried>
-6.2021

> <Gold.PLP.part.nonpolar>
-27.2318

> <Gold.PLP.part.repulsive>
0.6012

> <Gold.PLP.ligand.clash>
0.0000

> <Gold.PLP.ligand.torsion>
0.6907

> <Gold.PLP.Chemscore.Hbond>
0.9280

> <Gold.PLP.Chemscore.CHOScore>
0.0000

> <Gold.PLP.Chemscore.Metal>
0.0000

> <Gold.Chemscore.Hbonds>
donor molecule, donor type, donor heavy atom, donor atom, acceptor molecule, acceptor atom, score
      P1  H  7989  7998       L1     2  0.96

> <Gold.PLP.Chemscore.Internal.Correction>
0.2647

> <Gold.Rescore>
     Score         DG    S(hbond)    S(metal)    S(lipo)     H(rot)  DE(clash)    DE(int)     intcor
      9.21     -10.32       0.74        0.00      57.46       1.71       0.20       0.92       ----

> <Gold.Chemscore.Fitness>
9.2068

> <Gold.Chemscore.DG>
-10.3227

> <Gold.Chemscore.ZeroCoef>
-5.4800

> <Gold.Chemscore.Hbond>
0.7447

> <Gold.Chemscore.Metal>
0.0000

> <Gold.Chemscore.Lipo>
57.4563

> <Gold.Chemscore.Internal_Hbond>
0.0000

> <Gold.Chemscore.DEClash>
0.2003

> <Gold.Chemscore.DEInternal>
0.9155

> <Gold.Chemscore.Rot>
1.7059

> <Gold.Chemscore.Internal.Correction>
   9.000000E+99

> <Gold.Chemscore.Hbonds>
donor molecule, donor type, donor heavy atom, donor atom, acceptor molecule, acceptor atom, score
      P1  H  7989  7998       L1     2  0.37

> <Gold.Chemscore.Hbond.Weighted>
-2.4873

> <Gold.Chemscore.Metal.Weighted>
-0.0000

> <Gold.Chemscore.Lipo.Weighted>
-6.7224

> <Gold.Chemscore.Internal_Hbond.Weighted>
0.0000

> <Gold.Chemscore.DEClash.Weighted>
0.2003

> <Gold.Chemscore.DEInternal.Weighted>
0.9155

> <Gold.Chemscore.Rot.Weighted>
4.3670

> <Gold.Chemscore.Internal.Correction.Weighted>
   9.000000E+99

> <Gold.Protein.RotatedTorsions>
[ 6907 6896 6895 6894 ] final    3.12 input  -60.11 | X-H torsion
[ 7974 7965 7964 7962 ] final   62.22 input  175.53 | X-H torsion
[ 8008 7997 7996 7995 ] final  -17.72 input   59.86 | X-H torsion
[ 10167 10162 10161 10158 ] final    1.16 input  -65.29 | X-H torsion
[ 10718 10713 10712 10709 ] final   33.24 input   66.30 | X-H torsion
[ 10763 10752 10751 10750 ] final    5.87 input  -60.55 | X-H torsion
[ 11005 11000 10999 10996 ] final  165.93 input  -57.11 | X-H torsion

> <Gold.Protein.ActiveResidues>
 VAL166  LYS551  ARG553  GLY616  TRP617  ASP618  TYR619  PRO620  LYS621  CYS622 
 ASP623  PHE694  ASN695  SER759  ASP760  ASP761  ALA762  ILE779  LEU786  VAL792 
 PHE793  MET794  SER795  GLU796  ALA797  LYS798  CYS799  TRP800  GLU811  SER814 

> <Gold.Protein.RotatedAtoms>
  151.6199  135.1033  160.0099 H   0  0  0  0  0  0  0  0  0  0  0  0  # atno 6907 bound_to 6896
  152.4163  133.7040  159.6451 H   0  0  0  0  0  0  0  0  0  0  0  0  # atno 6908 bound_to 6896
  150.8052  133.8450  159.3230 H   0  0  0  0  0  0  0  0  0  0  0  0  # atno 6909 bound_to 6896
  145.8759  139.3409  143.0735 H   0  0  0  0  0  0  0  0  0  0  0  0  # atno 7974 bound_to 7965
  154.4957  140.2135  155.9451 H   0  0  0  0  0  0  0  0  0  0  0  0  # atno 8008 bound_to 7997
  156.1367  140.3187  155.8400 H   0  0  0  0  0  0  0  0  0  0  0  0  # atno 8009 bound_to 7997
  155.4196  140.0496  157.3017 H   0  0  0  0  0  0  0  0  0  0  0  0  # atno 8010 bound_to 7997
  140.6695  143.7086  150.7895 H   0  0  0  0  0  0  0  0  0  0  0  0  # atno 10167 bound_to 10162
  157.2954  130.7324  149.6635 H   0  0  0  0  0  0  0  0  0  0  0  0  # atno 10718 bound_to 10713
  153.2543  135.6917  153.7645 H   0  0  0  0  0  0  0  0  0  0  0  0  # atno 10763 bound_to 10752
  153.6728  135.3341  155.3158 H   0  0  0  0  0  0  0  0  0  0  0  0  # atno 10764 bound_to 10752
  154.8406  135.4504  154.1511 H   0  0  0  0  0  0  0  0  0  0  0  0  # atno 10765 bound_to 10752
  140.2612  134.7900  157.3592 H   0  0  0  0  0  0  0  0  0  0  0  0  # atno 11005 bound_to 11000
  145.9082  140.9198  143.0468 LP  0  0  0  0  0  0  0  0  0  0  0  0  # atno 17320 bound_to 7965
  144.6726  140.1124  143.7454 LP  0  0  0  0  0  0  0  0  0  0  0  0  # atno 17321 bound_to 7965
  140.0769  143.5006  152.2550 LP  0  0  0  0  0  0  0  0  0  0  0  0  # atno 17342 bound_to 10162
  139.5958  144.7566  151.3290 LP  0  0  0  0  0  0  0  0  0  0  0  0  # atno 17343 bound_to 10162
  155.9669  130.4296  150.4840 LP  0  0  0  0  0  0  0  0  0  0  0  0  # atno 17370 bound_to 10713
  157.2810  131.0607  151.2197 LP  0  0  0  0  0  0  0  0  0  0  0  0  # atno 17371 bound_to 10713
  140.1462  134.4908  155.7994 LP  0  0  0  0  0  0  0  0  0  0  0  0  # atno 17394 bound_to 11000
  141.2190  133.6844  156.7299 LP  0  0  0  0  0  0  0  0  0  0  0  0  # atno 17395 bound_to 11000

$$$$
