AV-unprocessed.smi:746|AV-procd|sdf|3578|dock8
  -GOLD-   22720 0573D 1   1.00000     0.00000
 Structure written by MMmdl.
 48 50  0  0  0  0  0  0  0  0  1 V2000
  145.0625  135.2856  151.6921 C   0  0  0  0  0  0  0  0  0  0  0  0
  146.2361  135.6694  150.9972 O   0  0  0  0  0  0  0  0  0  0  0  0
  146.3599  137.0768  150.8782 C   0  0  0  0  0  0  0  0  0  0  0  0
  146.7164  137.6705  152.2440 C   0  0  0  0  0  0  0  0  0  0  0  0
  146.8307  139.0849  152.1161 O   0  0  0  0  0  0  0  0  0  0  0  0
  147.5062  139.7820  153.0966 C   0  0  0  0  0  0  0  0  0  0  0  0
  148.4063  139.0807  153.9231 C   0  0  0  0  0  0  0  0  0  0  0  0
  149.1085  139.7895  154.9157 C   0  0  0  0  0  0  0  0  0  0  0  0
  148.8993  141.1769  155.0473 C   0  0  0  0  0  0  0  0  0  0  0  0
  149.6120  141.8676  156.0635 N   0  0  0  0  0  0  0  0  0  0  0  0
  150.7059  141.4679  156.7442 C   0  0  0  0  0  0  0  0  0  0  0  0
  151.2207  140.3601  156.5834 O   0  0  0  0  0  0  0  0  0  0  0  0
  151.1477  142.3558  157.6793 N   0  0  0  0  0  0  0  0  0  0  0  0
  150.4552  143.6352  157.9705 C   0  0  0  0  0  0  0  0  0  0  0  0
  151.3816  144.7569  158.4549 C   0  0  0  0  0  0  0  0  0  0  0  0
  152.2267  144.2905  159.6311 C   0  0  0  0  0  0  0  0  0  0  0  0
  153.1083  143.1230  159.1829 C   0  0  1  0  0  0  0  0  0  0  0  0
  153.8341  142.4568  160.3675 C   0  0  0  0  0  0  0  0  0  0  0  0
  153.1547  141.0975  160.6033 C   0  0  0  0  0  0  0  0  0  0  0  0
  151.9239  141.0728  159.6953 C   0  0  0  0  0  0  0  0  0  0  0  0
  152.3089  141.9821  158.5256 C   0  0  1  0  0  0  0  0  0  0  0  0
  147.9586  141.7873  154.1827 C   0  0  0  0  0  0  0  0  0  0  0  0
  147.2810  141.1125  153.2297 N   0  0  0  0  0  0  0  0  0  0  0  0
  145.0149  134.1988  151.7584 H   0  0  0  0  0  0  0  0  0  0  0  0
  144.1672  135.6302  151.1731 H   0  0  0  0  0  0  0  0  0  0  0  0
  145.0552  135.6857  152.7068 H   0  0  0  0  0  0  0  0  0  0  0  0
  147.1160  137.3429  150.1378 H   0  0  0  0  0  0  0  0  0  0  0  0
  145.4096  137.4919  150.5394 H   0  0  0  0  0  0  0  0  0  0  0  0
  145.9206  137.4322  152.9515 H   0  0  0  0  0  0  0  0  0  0  0  0
  147.6424  137.2309  152.6188 H   0  0  0  0  0  0  0  0  0  0  0  0
  148.5574  138.0189  153.7957 H   0  0  0  0  0  0  0  0  0  0  0  0
  149.8048  139.2731  155.5603 H   0  0  0  0  0  0  0  0  0  0  0  0
  149.2079  142.7446  156.3583 H   0  0  0  0  0  0  0  0  0  0  0  0
  149.9309  144.0281  157.0982 H   0  0  0  0  0  0  0  0  0  0  0  0
  149.6940  143.4388  158.7269 H   0  0  0  0  0  0  0  0  0  0  0  0
  152.0285  145.0833  157.6395 H   0  0  0  0  0  0  0  0  0  0  0  0
  150.7881  145.6242  158.7458 H   0  0  0  0  0  0  0  0  0  0  0  0
  152.8456  145.1097  159.9985 H   0  0  0  0  0  0  0  0  0  0  0  0
  151.5785  143.9900  160.4551 H   0  0  0  0  0  0  0  0  0  0  0  0
  153.8403  143.5068  158.4706 H   0  0  0  0  0  0  0  0  0  0  0  0
  154.8894  142.3086  160.1355 H   0  0  0  0  0  0  0  0  0  0  0  0
  153.7929  143.0772  161.2640 H   0  0  0  0  0  0  0  0  0  0  0  0
  153.8364  140.2955  160.3172 H   0  0  0  0  0  0  0  0  0  0  0  0
  152.8905  140.9432  161.6498 H   0  0  0  0  0  0  0  0  0  0  0  0
  151.6656  140.0621  159.3774 H   0  0  0  0  0  0  0  0  0  0  0  0
  151.0640  141.4850  160.2254 H   0  0  0  0  0  0  0  0  0  0  0  0
  153.0363  141.4411  157.9157 H   0  0  0  0  0  0  0  0  0  0  0  0
  147.7160  142.8361  154.2529 H   0  0  0  0  0  0  0  0  0  0  0  0
  1  2  1  0  0  0  0
  1 24  1  0  0  0  0
  1 25  1  0  0  0  0
  1 26  1  0  0  0  0
  2  3  1  0  0  0  0
  3  4  1  0  0  0  0
  3 27  1  0  0  0  0
  3 28  1  0  0  0  0
  4  5  1  0  0  0  0
  4 29  1  0  0  0  0
  4 30  1  0  0  0  0
  5  6  1  0  0  0  0
  6 23  1  0  0  0  0
  6  7  2  0  0  0  0
  7  8  1  0  0  0  0
  7 31  1  0  0  0  0
  8  9  2  0  0  0  0
  8 32  1  0  0  0  0
  9 10  1  0  0  0  0
  9 22  1  0  0  0  0
 10 11  1  0  0  0  0
 10 33  1  0  0  0  0
 11 12  2  0  0  0  0
 11 13  1  0  0  0  0
 13 21  1  0  0  0  0
 13 14  1  0  0  0  0
 14 15  1  0  0  0  0
 14 34  1  0  0  0  0
 14 35  1  0  0  0  0
 15 16  1  0  0  0  0
 15 36  1  0  0  0  0
 15 37  1  0  0  0  0
 16 17  1  0  0  0  0
 16 38  1  0  0  0  0
 16 39  1  0  0  0  0
 17 21  1  0  0  0  0
 17 18  1  0  0  0  0
 17 40  1  0  0  0  0
 18 19  1  0  0  0  0
 18 41  1  0  0  0  0
 18 42  1  0  0  0  0
 19 20  1  0  0  0  0
 19 43  1  0  0  0  0
 19 44  1  0  0  0  0
 20 21  1  0  0  0  0
 20 45  1  0  0  0  0
 20 46  1  0  0  0  0
 21 47  1  0  0  0  0
 22 23  2  0  0  0  0
 22 48  1  0  0  0  0
M  END
> <s_m_source_file>
AV-unprocessed.smi

> <i_m_source_file_index>
746

> <i_lp_mmshare_version>
43012

> <i_f3d_flags>
0

> <s_epik_input>
W0NIM11PW0NIMl1bQ0gyXU9jMVtjSF1bY0hdYyhbY0hdbjEpW05IXUMoPU8pTihbQ0gyXVtDSDJdW0NIMl0yKVtDQEhdKFtDQEBIXTIzKVtDSDJdW0NIMl1bQ0gyXTM=

> <s_epik_cmdline>
J2VwaWtfcHl0aG9uJywgJy1waCcsICc3LjAnLCAnLXRuJywgJzgnLCAnLW1hJywgJzIwMCcsICctbWV0YWxfYmluZGluZycsICctaW1hZScsICc8aW5maWxlLm1hZT4nLCAnLW9tYWUnLCAnPG91dGZpbGUubWFlPic=

> <r_lp_tautomer_probability>
1

> <r_epik_Ionization_Penalty>
8.29966e-05

> <r_epik_Ionization_Penalty_Charging>
0

> <r_epik_Ionization_Penalty_Neutral>
8.29966e-05

> <r_epik_State_Penalty>
-0

> <r_epik_Charging_Adjusted_Penalty>
0

> <i_epik_Tot_Q>
0

> <i_epik_Tot_abs_Q>
0

> <r_epik_Metal_State_Penalty>
-0

> <b_epik_Metal_Only>
0

> <s_lp_Force_Field>
OPLS_2005

> <r_lp_Energy>
59.487

> <b_lp_Chiralities_Consistent>
1

> <s_lp_Variant>
AV-unprocessed.smi:746-3

> <Gold.Version>
5.8.1

> <Gold.Id.Protein>
6NUR|6NUR_protein|mol2

> <Gold.PLP.Fitness>
45.9537

> <Gold.PLP.PLP>
-41.9713

> <Gold.PLP.part.hbond>
-1.0000

> <Gold.PLP.part.metal>
0.0000

> <Gold.PLP.part.buried>
3.5936

> <Gold.PLP.part.nonpolar>
-45.3634

> <Gold.PLP.part.repulsive>
1.1309

> <Gold.PLP.ligand.clash>
0.5976

> <Gold.PLP.ligand.torsion>
0.4709

> <Gold.PLP.Chemscore.Hbond>
0.7722

> <Gold.PLP.Chemscore.CHOScore>
1.0000

> <Gold.PLP.Chemscore.Metal>
0.0000

> <Gold.Chemscore.Hbonds>
donor molecule, donor type, donor heavy atom, donor atom, acceptor molecule, acceptor atom, score
      L1  H    10    33       P1  8028  0.64
      L1  C    22    48       P1  8028  0.87

> <Gold.PLP.Chemscore.Internal.Correction>
0.2052

> <Gold.Rescore>
     Score         DG    S(hbond)    S(metal)    S(lipo)     H(rot)  DE(clash)    DE(int)     intcor
     14.12     -18.71       0.65        0.00     127.69       1.52       2.80       1.79       ----

> <Gold.Chemscore.Fitness>
14.1233

> <Gold.Chemscore.DG>
-18.7133

> <Gold.Chemscore.ZeroCoef>
-5.4800

> <Gold.Chemscore.Hbond>
0.6520

> <Gold.Chemscore.Metal>
0.0000

> <Gold.Chemscore.Lipo>
127.6906

> <Gold.Chemscore.Internal_Hbond>
0.0000

> <Gold.Chemscore.DEClash>
2.7988

> <Gold.Chemscore.DEInternal>
1.7911

> <Gold.Chemscore.Rot>
1.5172

> <Gold.Chemscore.Internal.Correction>
   9.000000E+99

> <Gold.Chemscore.Hbonds>
donor molecule, donor type, donor heavy atom, donor atom, acceptor molecule, acceptor atom, score
      L1  H    10    33       P1  8028  0.62

> <Gold.Chemscore.Hbond.Weighted>
-2.1776

> <Gold.Chemscore.Metal.Weighted>
-0.0000

> <Gold.Chemscore.Lipo.Weighted>
-14.9398

> <Gold.Chemscore.Internal_Hbond.Weighted>
0.0000

> <Gold.Chemscore.DEClash.Weighted>
2.7988

> <Gold.Chemscore.DEInternal.Weighted>
1.7911

> <Gold.Chemscore.Rot.Weighted>
3.8841

> <Gold.Chemscore.Internal.Correction.Weighted>
   9.000000E+99

> <Gold.Protein.RotatedTorsions>
[ 6907 6896 6895 6894 ] final   42.20 input  -60.11 | X-H torsion
[ 7974 7965 7964 7962 ] final  -81.32 input  175.53 | X-H torsion
[ 8008 7997 7996 7995 ] final -159.33 input   59.86 | X-H torsion
[ 10167 10162 10161 10158 ] final  167.32 input  -65.29 | X-H torsion
[ 10718 10713 10712 10709 ] final   97.42 input   66.30 | X-H torsion
[ 10763 10752 10751 10750 ] final  -44.75 input  -60.55 | X-H torsion
[ 11005 11000 10999 10996 ] final  163.03 input  -57.11 | X-H torsion

> <Gold.Protein.ActiveResidues>
 VAL166  LYS551  ARG553  GLY616  TRP617  ASP618  TYR619  PRO620  LYS621  CYS622 
 ASP623  PHE694  ASN695  SER759  ASP760  ASP761  ALA762  ILE779  LEU786  VAL792 
 PHE793  MET794  SER795  GLU796  ALA797  LYS798  CYS799  TRP800  GLU811  SER814 

> <Gold.Protein.RotatedAtoms>
  152.2049  134.8554  160.0503 H   0  0  0  0  0  0  0  0  0  0  0  0  # atno 6907 bound_to 6896
  151.9394  133.3628  159.3968 H   0  0  0  0  0  0  0  0  0  0  0  0  # atno 6908 bound_to 6896
  150.6963  134.4379  159.5322 H   0  0  0  0  0  0  0  0  0  0  0  0  # atno 6909 bound_to 6896
  145.5483  140.9500  143.1513 H   0  0  0  0  0  0  0  0  0  0  0  0  # atno 7974 bound_to 7965
  155.7610  140.0839  157.2155 H   0  0  0  0  0  0  0  0  0  0  0  0  # atno 8008 bound_to 7997
  154.4003  140.1543  156.2889 H   0  0  0  0  0  0  0  0  0  0  0  0  # atno 8009 bound_to 7997
  155.8839  140.3419  155.5910 H   0  0  0  0  0  0  0  0  0  0  0  0  # atno 8010 bound_to 7997
  139.4943  144.3934  151.9491 H   0  0  0  0  0  0  0  0  0  0  0  0  # atno 10167 bound_to 10162
  157.6913  131.0609  150.4641 H   0  0  0  0  0  0  0  0  0  0  0  0  # atno 10718 bound_to 10713
  154.0173  135.6674  153.4770 H   0  0  0  0  0  0  0  0  0  0  0  0  # atno 10763 bound_to 10752
  153.0595  135.5036  154.8056 H   0  0  0  0  0  0  0  0  0  0  0  0  # atno 10764 bound_to 10752
  154.6959  135.3070  154.9376 H   0  0  0  0  0  0  0  0  0  0  0  0  # atno 10765 bound_to 10752
  140.2317  134.8119  157.3323 H   0  0  0  0  0  0  0  0  0  0  0  0  # atno 11005 bound_to 11000
  144.7542  139.7116  143.7261 LP  0  0  0  0  0  0  0  0  0  0  0  0  # atno 17320 bound_to 7965
  146.1934  139.5187  142.9790 LP  0  0  0  0  0  0  0  0  0  0  0  0  # atno 17321 bound_to 7965
  140.3372  144.3247  150.5975 LP  0  0  0  0  0  0  0  0  0  0  0  0  # atno 17342 bound_to 10162
  140.5596  143.2194  151.7788 LP  0  0  0  0  0  0  0  0  0  0  0  0  # atno 17343 bound_to 10162
  156.4983  130.4111  149.6367 LP  0  0  0  0  0  0  0  0  0  0  0  0  # atno 17370 bound_to 10713
  156.3352  130.7352  151.2289 LP  0  0  0  0  0  0  0  0  0  0  0  0  # atno 17371 bound_to 10713
  140.1744  134.4568  155.7811 LP  0  0  0  0  0  0  0  0  0  0  0  0  # atno 17394 bound_to 11000
  141.2217  133.6956  156.7762 LP  0  0  0  0  0  0  0  0  0  0  0  0  # atno 17395 bound_to 11000

$$$$
