AV-unprocessed.smi:2732|AV-procd|sdf|10535|dock6
  -GOLD-   2272014583D 1   1.00000     0.00000
 Structure written by MMmdl.
 35 36  0  0  0  0  0  0  0  0  2 V2000
  151.5160  142.4360  157.5065 C   0  0  0  0  0  0  0  0  0  0  0  0
  151.9322  140.9851  157.2203 C   0  0  1  0  0  0  0  0  0  0  0  0
  151.6198  140.2134  158.3771 O   0  0  0  0  0  0  0  0  0  0  0  0
  152.6417  140.1499  159.3640 C   0  0  0  0  0  0  0  0  0  0  0  0
  152.6487  141.4485  160.1406 C   0  0  0  0  0  0  0  0  0  0  0  0
  153.5528  142.5852  159.7208 C   0  0  0  0  0  0  0  0  0  0  0  0
  153.8376  141.8295  160.9936 C   0  0  0  0  0  0  0  0  0  0  0  0
  151.2022  140.4218  155.9897 C   0  0  0  0  0  0  0  0  0  0  0  0
  151.8424  139.8458  155.1102 O   0  0  0  0  0  0  0  0  0  0  0  0
  149.8739  140.6365  155.9482 N   0  0  0  0  0  0  0  0  0  0  0  0
  148.9463  140.2492  154.9443 C   0  0  0  0  0  0  0  0  0  0  0  0
  147.7506  140.9916  154.8300 C   0  0  0  0  0  0  0  0  0  0  0  0
  146.7956  140.6352  153.8553 C   0  0  0  0  0  0  0  0  0  0  0  0
  147.0497  139.5314  153.0158 C   0  0  0  0  0  0  0  0  0  0  0  0
  146.1497  139.1257  152.0324 N   0  0  0  0  0  0  0  0  0  0  0  0
  148.1960  138.8329  153.1614 N   0  3  0  0  0  0  0  0  0  0  0  0
  149.1372  139.1423  154.0803 C   0  0  0  0  0  0  0  0  0  0  0  0
  151.6999  143.0798  156.6457 H   0  0  0  0  0  0  0  0  0  0  0  0
  152.0818  142.8407  158.3460 H   0  0  0  0  0  0  0  0  0  0  0  0
  150.4575  142.5079  157.7600 H   0  0  0  0  0  0  0  0  0  0  0  0
  153.0109  140.9674  157.0522 H   0  0  0  0  0  0  0  0  0  0  0  0
  152.4875  139.3177  160.0519 H   0  0  0  0  0  0  0  0  0  0  0  0
  153.6154  140.0171  158.8907 H   0  0  0  0  0  0  0  0  0  0  0  0
  151.6707  141.7400  160.5188 H   0  0  0  0  0  0  0  0  0  0  0  0
  154.2221  142.4189  158.8790 H   0  0  0  0  0  0  0  0  0  0  0  0
  153.1629  143.5967  159.8138 H   0  0  0  0  0  0  0  0  0  0  0  0
  153.6362  142.3351  161.9357 H   0  0  0  0  0  0  0  0  0  0  0  0
  154.6942  141.1584  160.9987 H   0  0  0  0  0  0  0  0  0  0  0  0
  149.4965  141.1986  156.6975 H   0  0  0  0  0  0  0  0  0  0  0  0
  147.5657  141.8348  155.4797 H   0  0  0  0  0  0  0  0  0  0  0  0
  145.8820  141.2037  153.7583 H   0  0  0  0  0  0  0  0  0  0  0  0
  145.2759  139.6100  151.8830 H   0  0  0  0  0  0  0  0  0  0  0  0
  146.3451  138.3411  151.4272 H   0  0  0  0  0  0  0  0  0  0  0  0
  149.9937  138.4851  154.0912 H   0  0  0  0  0  0  0  0  0  0  0  0
  148.3615  138.0318  152.5515 H   0  0  0  0  0  0  0  0  0  0  0  0
  1  2  1  0  0  0  0
  1 18  1  0  0  0  0
  1 19  1  0  0  0  0
  1 20  1  0  0  0  0
  2  3  1  0  0  0  0
  2  8  1  0  0  0  0
  2 21  1  0  0  0  0
  3  4  1  0  0  0  0
  4  5  1  0  0  0  0
  4 22  1  0  0  0  0
  4 23  1  0  0  0  0
  5  7  1  0  0  0  0
  5  6  1  0  0  0  0
  5 24  1  0  0  0  0
  6  7  1  0  0  0  0
  6 25  1  0  0  0  0
  6 26  1  0  0  0  0
  7 27  1  0  0  0  0
  7 28  1  0  0  0  0
  8  9  2  0  0  0  0
  8 10  1  0  0  0  0
 10 11  1  0  0  0  0
 10 29  1  0  0  0  0
 11 17  1  0  0  0  0
 11 12  2  0  0  0  0
 12 13  1  0  0  0  0
 12 30  1  0  0  0  0
 13 14  2  0  0  0  0
 13 31  1  0  0  0  0
 14 15  1  0  0  0  0
 14 16  1  0  0  0  0
 15 32  1  0  0  0  0
 15 33  1  0  0  0  0
 16 17  2  0  0  0  0
 16 35  1  0  0  0  0
 17 34  1  0  0  0  0
M  CHG  1  16   1
M  END
> <s_m_source_file>
AV-unprocessed.smi

> <i_m_source_file_index>
2732

> <i_lp_mmshare_version>
43012

> <i_f3d_flags>
0

> <s_epik_input>
W0NIMl0xW0NIMl1bQ0hdMVtDSDJdT1tDQEBIXShbQ0gzXSlDKD1PKVtOSF1jMltjSF1bY0hdYyhbTkgyXSluW2NIXTI=

> <s_epik_cmdline>
J2VwaWtfcHl0aG9uJywgJy1waCcsICc3LjAnLCAnLXRuJywgJzgnLCAnLW1hJywgJzIwMCcsICctbWV0YWxfYmluZGluZycsICctaW1hZScsICc8aW5maWxlLm1hZT4nLCAnLW9tYWUnLCAnPG91dGZpbGUubWFlPic=

> <r_lp_tautomer_probability>
0.999994

> <r_epik_Ionization_Penalty>
1.25173

> <r_epik_Ionization_Penalty_Charging>
1.25172

> <r_epik_Ionization_Penalty_Neutral>
2.35798e-06

> <r_epik_State_Penalty>
1.32157

> <r_epik_Charging_Adjusted_Penalty>
2.5733

> <i_epik_Tot_Q>
1

> <i_epik_Tot_abs_Q>
1

> <r_epik_Metal_State_Penalty>
1.39188

> <b_epik_Metal_Only>
0

> <s_lp_Force_Field>
OPLS_2005

> <r_lp_Energy>
25.671

> <b_lp_Chiralities_Consistent>
1

> <s_lp_Variant>
AV-unprocessed.smi:2732-4

> <Gold.Version>
5.8.1

> <Gold.Id.Protein>
6NUR|6NUR_protein|mol2

> <Gold.PLP.Fitness>
48.1374

> <Gold.PLP.PLP>
-35.0047

> <Gold.PLP.part.hbond>
-4.6537

> <Gold.PLP.part.metal>
0.0000

> <Gold.PLP.part.buried>
-4.9082

> <Gold.PLP.part.nonpolar>
-25.7111

> <Gold.PLP.part.repulsive>
0.2148

> <Gold.PLP.ligand.clash>
0.0000

> <Gold.PLP.ligand.torsion>
1.1067

> <Gold.PLP.Chemscore.Hbond>
4.9280

> <Gold.PLP.Chemscore.CHOScore>
0.0000

> <Gold.PLP.Chemscore.Metal>
0.0000

> <Gold.Chemscore.Hbonds>
donor molecule, donor type, donor heavy atom, donor atom, acceptor molecule, acceptor atom, score
      L1  H    15    32       P1 10175  2.00
      L1  H    16    35       P1  7948  2.00
      P1  H  7989  7998       L1     9  0.96

> <Gold.PLP.Chemscore.Internal.Correction>
0.5622

> <Gold.Rescore>
     Score         DG    S(hbond)    S(metal)    S(lipo)     H(rot)  DE(clash)    DE(int)     intcor
     16.93     -19.42       2.78        0.00      78.20       1.76       0.07       2.43       ----

> <Gold.Chemscore.Fitness>
16.9280

> <Gold.Chemscore.DG>
-19.4223

> <Gold.Chemscore.ZeroCoef>
-5.4800

> <Gold.Chemscore.Hbond>
2.7842

> <Gold.Chemscore.Metal>
0.0000

> <Gold.Chemscore.Lipo>
78.2016

> <Gold.Chemscore.Internal_Hbond>
0.0000

> <Gold.Chemscore.DEClash>
0.0654

> <Gold.Chemscore.DEInternal>
2.4290

> <Gold.Chemscore.Rot>
1.7604

> <Gold.Chemscore.Internal.Correction>
   9.000000E+99

> <Gold.Chemscore.Hbonds>
donor molecule, donor type, donor heavy atom, donor atom, acceptor molecule, acceptor atom, score
      L1  H    15    32       P1 10175  0.84
      L1  H    16    35       P1  7948  0.97
      P1  H  7989  7998       L1     9  0.60

> <Gold.Chemscore.Hbond.Weighted>
-9.2992

> <Gold.Chemscore.Metal.Weighted>
-0.0000

> <Gold.Chemscore.Lipo.Weighted>
-9.1496

> <Gold.Chemscore.Internal_Hbond.Weighted>
0.0000

> <Gold.Chemscore.DEClash.Weighted>
0.0654

> <Gold.Chemscore.DEInternal.Weighted>
2.4290

> <Gold.Chemscore.Rot.Weighted>
4.5065

> <Gold.Chemscore.Internal.Correction.Weighted>
   9.000000E+99

> <Gold.Protein.RotatedTorsions>
[ 6907 6896 6895 6894 ] final  -27.19 input  -60.11 | X-H torsion
[ 7974 7965 7964 7962 ] final   -0.86 input  175.53 | X-H torsion
[ 8008 7997 7996 7995 ] final  -94.46 input   59.86 | X-H torsion
[ 10167 10162 10161 10158 ] final   46.45 input  -65.29 | X-H torsion
[ 10718 10713 10712 10709 ] final -100.90 input   66.30 | X-H torsion
[ 10763 10752 10751 10750 ] final   68.85 input  -60.55 | X-H torsion
[ 11005 11000 10999 10996 ] final  -30.00 input  -57.11 | X-H torsion

> <Gold.Protein.ActiveResidues>
 VAL166  LYS551  ARG553  GLY616  TRP617  ASP618  TYR619  PRO620  LYS621  CYS622 
 ASP623  PHE694  ASN695  SER759  ASP760  ASP761  ALA762  ILE779  LEU786  VAL792 
 PHE793  MET794  SER795  GLU796  ALA797  LYS798  CYS799  TRP800  GLU811  SER814 

> <Gold.Protein.RotatedAtoms>
  151.1503  135.0224  159.8665 H   0  0  0  0  0  0  0  0  0  0  0  0  # atno 6907 bound_to 6896
  152.5453  134.1396  159.8483 H   0  0  0  0  0  0  0  0  0  0  0  0  # atno 6908 bound_to 6896
  151.1481  133.4880  159.2628 H   0  0  0  0  0  0  0  0  0  0  0  0  # atno 6909 bound_to 6896
  146.2423  140.1333  142.8337 H   0  0  0  0  0  0  0  0  0  0  0  0  # atno 7974 bound_to 7965
  154.7487  140.0489  157.0875 H   0  0  0  0  0  0  0  0  0  0  0  0  # atno 8008 bound_to 7997
  155.0084  140.3133  155.4820 H   0  0  0  0  0  0  0  0  0  0  0  0  # atno 8009 bound_to 7997
  156.2880  140.2188  156.5198 H   0  0  0  0  0  0  0  0  0  0  0  0  # atno 8010 bound_to 7997
  140.3138  144.2788  150.6195 H   0  0  0  0  0  0  0  0  0  0  0  0  # atno 10167 bound_to 10162
  156.0177  130.5349  150.6884 H   0  0  0  0  0  0  0  0  0  0  0  0  # atno 10718 bound_to 10713
  153.0256  135.5232  154.7197 H   0  0  0  0  0  0  0  0  0  0  0  0  # atno 10763 bound_to 10752
  154.6256  135.2894  155.0278 H   0  0  0  0  0  0  0  0  0  0  0  0  # atno 10764 bound_to 10752
  154.1249  135.6602  153.4963 H   0  0  0  0  0  0  0  0  0  0  0  0  # atno 10765 bound_to 10752
  140.9345  133.7317  156.0984 H   0  0  0  0  0  0  0  0  0  0  0  0  # atno 11005 bound_to 11000
  145.0308  140.8869  143.5111 LP  0  0  0  0  0  0  0  0  0  0  0  0  # atno 17320 bound_to 7965
  145.1397  139.2580  143.5497 LP  0  0  0  0  0  0  0  0  0  0  0  0  # atno 17321 bound_to 7965
  140.5544  143.2201  151.7872 LP  0  0  0  0  0  0  0  0  0  0  0  0  # atno 17342 bound_to 10162
  139.4888  144.4433  151.9739 LP  0  0  0  0  0  0  0  0  0  0  0  0  # atno 17343 bound_to 10162
  157.4571  131.0879  151.0785 LP  0  0  0  0  0  0  0  0  0  0  0  0  # atno 17370 bound_to 10713
  157.1283  130.6091  149.5523 LP  0  0  0  0  0  0  0  0  0  0  0  0  # atno 17371 bound_to 10713
  140.7818  134.3717  157.5485 LP  0  0  0  0  0  0  0  0  0  0  0  0  # atno 17394 bound_to 11000
  139.8804  134.9086  156.2972 LP  0  0  0  0  0  0  0  0  0  0  0  0  # atno 17395 bound_to 11000

$$$$
