AV-unprocessed.smi:3145|AV-procd|sdf|11981|dock8
  -GOLD-   2272017383D 1   1.00000     0.00000
 Structure written by MMmdl.
 34 34  0  0  0  0  0  0  0  0  1 V2000
  151.3932  141.1506  157.0230 C   0  0  0  0  0  0  0  0  0  0  0  0
  151.2355  141.0901  158.5487 C   0  0  2  0  0  0  0  0  0  0  0  0
  152.4180  141.7892  159.2571 C   0  0  0  0  0  0  0  0  0  0  0  0
  152.2336  143.2230  159.4031 N   0  0  0  0  0  0  0  0  0  0  0  0
  152.2500  144.1916  158.4220 C   0  0  0  0  0  0  0  0  0  0  0  0
  152.0187  145.3914  159.0316 C   0  0  0  0  0  0  0  0  0  0  0  0
  151.8759  145.0509  160.4057 C   0  0  0  0  0  0  0  0  0  0  0  0
  152.0075  143.7530  160.6258 N   0  0  0  0  0  0  0  0  0  0  0  0
  151.1815  139.6821  158.9295 N   0  0  0  0  0  0  0  0  0  0  0  0
  152.4651  138.9987  158.7276 C   0  0  0  0  0  0  0  0  0  0  0  0
  152.6863  137.9120  159.7754 C   0  0  0  0  0  0  0  0  0  0  0  0
  151.8927  136.9774  159.8789 O   0  0  0  0  0  0  0  0  0  0  0  0
  153.7708  138.0545  160.5506 N   0  0  0  0  0  0  0  0  0  0  0  0
  154.1571  137.1383  161.6125 C   0  0  0  0  0  0  0  0  0  0  0  0
  153.0702  137.0849  162.6911 C   0  0  0  0  0  0  0  0  0  0  0  0
  153.3195  136.0390  163.6942 C   0  0  0  0  0  0  0  0  0  0  0  0
  153.5154  135.2161  164.4836 N   0  0  0  0  0  0  0  0  0  0  0  0
  151.4245  142.1836  156.6750 H   0  0  0  0  0  0  0  0  0  0  0  0
  150.5580  140.6623  156.5194 H   0  0  0  0  0  0  0  0  0  0  0  0
  152.3121  140.6632  156.6949 H   0  0  0  0  0  0  0  0  0  0  0  0
  150.3017  141.5963  158.8020 H   0  0  0  0  0  0  0  0  0  0  0  0
  152.5914  141.3491  160.2409 H   0  0  0  0  0  0  0  0  0  0  0  0
  153.3344  141.6325  158.6869 H   0  0  0  0  0  0  0  0  0  0  0  0
  152.4178  143.9476  157.3831 H   0  0  0  0  0  0  0  0  0  0  0  0
  151.9603  146.3642  158.5667 H   0  0  0  0  0  0  0  0  0  0  0  0
  151.6814  145.7035  161.2440 H   0  0  0  0  0  0  0  0  0  0  0  0
  150.8755  139.6008  159.8886 H   0  0  0  0  0  0  0  0  0  0  0  0
  152.5029  138.5302  157.7440 H   0  0  0  0  0  0  0  0  0  0  0  0
  153.2765  139.7268  158.7649 H   0  0  0  0  0  0  0  0  0  0  0  0
  154.3691  138.8519  160.3862 H   0  0  0  0  0  0  0  0  0  0  0  0
  154.3173  136.1436  161.1936 H   0  0  0  0  0  0  0  0  0  0  0  0
  155.1028  137.4633  162.0494 H   0  0  0  0  0  0  0  0  0  0  0  0
  153.0028  138.0397  163.2134 H   0  0  0  0  0  0  0  0  0  0  0  0
  152.0957  136.8907  162.2421 H   0  0  0  0  0  0  0  0  0  0  0  0
  1  2  1  0  0  0  0
  1 18  1  0  0  0  0
  1 19  1  0  0  0  0
  1 20  1  0  0  0  0
  2  3  1  0  0  0  0
  2  9  1  0  0  0  0
  2 21  1  0  0  0  0
  3  4  1  0  0  0  0
  3 22  1  0  0  0  0
  3 23  1  0  0  0  0
  4  8  1  0  0  0  0
  4  5  1  0  0  0  0
  5  6  2  0  0  0  0
  5 24  1  0  0  0  0
  6  7  1  0  0  0  0
  6 25  1  0  0  0  0
  7  8  2  0  0  0  0
  7 26  1  0  0  0  0
  9 10  1  0  0  0  0
  9 27  1  0  0  0  0
 10 11  1  0  0  0  0
 10 28  1  0  0  0  0
 10 29  1  0  0  0  0
 11 12  2  0  0  0  0
 11 13  1  0  0  0  0
 13 14  1  0  0  0  0
 13 30  1  0  0  0  0
 14 15  1  0  0  0  0
 14 31  1  0  0  0  0
 14 32  1  0  0  0  0
 15 16  1  0  0  0  0
 15 33  1  0  0  0  0
 15 34  1  0  0  0  0
 16 17  3  0  0  0  0
M  END
> <s_m_source_file>
AV-unprocessed.smi

> <i_m_source_file_index>
3145

> <i_lp_mmshare_version>
43012

> <i_f3d_flags>
0

> <s_epik_input>
bjFbY0hdW2NIXVtjSF1uMVtDSDJdW0NAQEhdKFtDSDNdKVtOSF1bQ0gyXUMoPU8pW05IXVtDSDJdW0NIMl1DI04=

> <s_epik_cmdline>
J2VwaWtfcHl0aG9uJywgJy1waCcsICc3LjAnLCAnLXRuJywgJzgnLCAnLW1hJywgJzIwMCcsICctbWV0YWxfYmluZGluZycsICctaW1hZScsICc8aW5maWxlLm1hZT4nLCAnLW9tYWUnLCAnPG91dGZpbGUubWFlPic=

> <r_lp_tautomer_probability>
1

> <r_epik_Ionization_Penalty>
0.765991

> <r_epik_Ionization_Penalty_Charging>
0

> <r_epik_Ionization_Penalty_Neutral>
0.765991

> <r_epik_State_Penalty>
0.794192

> <r_epik_Charging_Adjusted_Penalty>
0.794192

> <i_epik_Tot_Q>
0

> <i_epik_Tot_abs_Q>
0

> <r_epik_Metal_State_Penalty>
0.806127

> <b_epik_Metal_Only>
0

> <s_lp_Force_Field>
OPLS_2005

> <r_lp_Energy>
5.26669

> <b_lp_Chiralities_Consistent>
1

> <s_lp_Variant>
AV-unprocessed.smi:3145-3

> <Gold.Version>
5.8.1

> <Gold.Id.Protein>
6NUR|6NUR_protein|mol2

> <Gold.PLP.Fitness>
40.1327

> <Gold.PLP.PLP>
-38.3490

> <Gold.PLP.part.hbond>
-1.0000

> <Gold.PLP.part.metal>
0.0000

> <Gold.PLP.part.buried>
-6.0377

> <Gold.PLP.part.nonpolar>
-32.0436

> <Gold.PLP.part.repulsive>
0.1875

> <Gold.PLP.ligand.clash>
0.0000

> <Gold.PLP.ligand.torsion>
0.6441

> <Gold.PLP.Chemscore.Hbond>
1.0000

> <Gold.PLP.Chemscore.CHOScore>
0.0000

> <Gold.PLP.Chemscore.Metal>
0.0000

> <Gold.Chemscore.Hbonds>
donor molecule, donor type, donor heavy atom, donor atom, acceptor molecule, acceptor atom, score
      P1  H  6896  6908       L1    12  1.00

> <Gold.PLP.Chemscore.Internal.Correction>
0.0720

> <Gold.Rescore>
     Score         DG    S(hbond)    S(metal)    S(lipo)     H(rot)  DE(clash)    DE(int)     intcor
     10.80     -11.26       1.00        0.00      82.26       2.80       0.06       0.40       ----

> <Gold.Chemscore.Fitness>
10.8027

> <Gold.Chemscore.DG>
-11.2630

> <Gold.Chemscore.ZeroCoef>
-5.4800

> <Gold.Chemscore.Hbond>
0.9966

> <Gold.Chemscore.Metal>
0.0000

> <Gold.Chemscore.Lipo>
82.2575

> <Gold.Chemscore.Internal_Hbond>
0.0000

> <Gold.Chemscore.DEClash>
0.0611

> <Gold.Chemscore.DEInternal>
0.3992

> <Gold.Chemscore.Rot>
2.8006

> <Gold.Chemscore.Internal.Correction>
   9.000000E+99

> <Gold.Chemscore.Hbonds>
donor molecule, donor type, donor heavy atom, donor atom, acceptor molecule, acceptor atom, score
      P1  H  6896  6908       L1    12  1.00

> <Gold.Chemscore.Hbond.Weighted>
-3.3285

> <Gold.Chemscore.Metal.Weighted>
-0.0000

> <Gold.Chemscore.Lipo.Weighted>
-9.6241

> <Gold.Chemscore.Internal_Hbond.Weighted>
0.0000

> <Gold.Chemscore.DEClash.Weighted>
0.0611

> <Gold.Chemscore.DEInternal.Weighted>
0.3992

> <Gold.Chemscore.Rot.Weighted>
7.1696

> <Gold.Chemscore.Internal.Correction.Weighted>
   9.000000E+99

> <Gold.Protein.RotatedTorsions>
[ 6907 6896 6895 6894 ] final -120.15 input  -60.11 | X-H torsion
[ 7974 7965 7964 7962 ] final  -57.26 input  175.53 | X-H torsion
[ 8008 7997 7996 7995 ] final -155.10 input   59.86 | X-H torsion
[ 10167 10162 10161 10158 ] final   50.38 input  -65.29 | X-H torsion
[ 10718 10713 10712 10709 ] final -162.71 input   66.30 | X-H torsion
[ 10763 10752 10751 10750 ] final  -47.77 input  -60.55 | X-H torsion
[ 11005 11000 10999 10996 ] final   -1.87 input  -57.11 | X-H torsion

> <Gold.Protein.ActiveResidues>
 VAL166  LYS551  ARG553  GLY616  TRP617  ASP618  TYR619  PRO620  LYS621  CYS622 
 ASP623  PHE694  ASN695  SER759  ASP760  ASP761  ALA762  ILE779  LEU786  VAL792 
 PHE793  MET794  SER795  GLU796  ALA797  LYS798  CYS799  TRP800  GLU811  SER814 

> <Gold.Protein.RotatedAtoms>
  150.8367  133.8001  159.3076 H   0  0  0  0  0  0  0  0  0  0  0  0  # atno 6907 bound_to 6896
  151.5715  135.1060  160.0006 H   0  0  0  0  0  0  0  0  0  0  0  0  # atno 6908 bound_to 6896
  152.4438  133.7456  159.6722 H   0  0  0  0  0  0  0  0  0  0  0  0  # atno 6909 bound_to 6896
  145.8531  140.8338  142.9975 H   0  0  0  0  0  0  0  0  0  0  0  0  # atno 7974 bound_to 7965
  155.6966  140.0762  157.2427 H   0  0  0  0  0  0  0  0  0  0  0  0  # atno 8008 bound_to 7997
  154.4080  140.1655  156.2198 H   0  0  0  0  0  0  0  0  0  0  0  0  # atno 8009 bound_to 7997
  155.9405  140.3385  155.6326 H   0  0  0  0  0  0  0  0  0  0  0  0  # atno 8010 bound_to 7997
  140.2730  144.3244  150.6285 H   0  0  0  0  0  0  0  0  0  0  0  0  # atno 10167 bound_to 10162
  156.6143  130.8863  151.2943 H   0  0  0  0  0  0  0  0  0  0  0  0  # atno 10718 bound_to 10713
  154.0669  135.6610  153.4819 H   0  0  0  0  0  0  0  0  0  0  0  0  # atno 10763 bound_to 10752
  153.0405  135.5148  154.7605 H   0  0  0  0  0  0  0  0  0  0  0  0  # atno 10764 bound_to 10752
  154.6658  135.3022  154.9774 H   0  0  0  0  0  0  0  0  0  0  0  0  # atno 10765 bound_to 10752
  140.6521  133.9395  155.8386 H   0  0  0  0  0  0  0  0  0  0  0  0  # atno 11005 bound_to 11000
  144.6728  140.0983  143.7462 LP  0  0  0  0  0  0  0  0  0  0  0  0  # atno 17320 bound_to 7965
  145.9335  139.2621  143.1311 LP  0  0  0  0  0  0  0  0  0  0  0  0  # atno 17321 bound_to 7965
  140.5874  143.2169  151.7316 LP  0  0  0  0  0  0  0  0  0  0  0  0  # atno 17342 bound_to 10162
  139.4983  144.3990  152.0201 LP  0  0  0  0  0  0  0  0  0  0  0  0  # atno 17343 bound_to 10162
  157.7245  130.9604  150.1578 LP  0  0  0  0  0  0  0  0  0  0  0  0  # atno 17370 bound_to 10713
  156.2364  130.3687  149.8386 LP  0  0  0  0  0  0  0  0  0  0  0  0  # atno 17371 bound_to 10713
  141.0529  134.0459  157.3761 LP  0  0  0  0  0  0  0  0  0  0  0  0  # atno 17394 bound_to 11000
  139.9042  135.0174  156.7410 LP  0  0  0  0  0  0  0  0  0  0  0  0  # atno 17395 bound_to 11000

$$$$
