AV-unprocessed.smi:1897|AV-procd|sdf|7686|dock6
  -GOLD-   22720 9423D 1   1.00000     0.00000
 Structure written by MMmdl.
 39 41  0  0  0  0  0  0  0  0  2 V2000
  153.3037  137.6607  157.2371 C   0  0  0  0  0  0  0  0  0  0  0  0
  152.2547  136.7702  156.6640 C   0  0  0  0  0  0  0  0  0  0  0  0
  151.8175  135.6723  157.2919 N   0  0  0  0  0  0  0  0  0  0  0  0
  150.8412  135.0055  156.5662 N   0  0  0  0  0  0  0  0  0  0  0  0
  150.5623  135.6235  155.4091 C   0  0  0  0  0  0  0  0  0  0  0  0
  149.6083  135.1649  154.4535 N   0  0  0  0  0  0  0  0  0  0  0  0
  148.6594  134.2064  154.5188 C   0  0  0  0  0  0  0  0  0  0  0  0
  148.4985  133.5431  155.5416 O   0  0  0  0  0  0  0  0  0  0  0  0
  147.9153  134.0260  153.4154 N   0  0  0  0  0  0  0  0  0  0  0  0
  146.8317  133.0600  153.2680 C   0  0  2  0  0  0  0  0  0  0  0  0
  147.3245  131.6022  153.2972 C   0  0  0  0  0  0  0  0  0  0  0  0
  146.4621  130.8580  152.2586 C   0  0  0  0  0  0  0  0  0  0  0  0
  145.4853  131.8529  151.7761 N   0  3  2  0  0  0  0  0  0  0  0  0
  144.9018  131.6300  150.4352 C   0  0  0  0  0  0  0  0  0  0  0  0
  143.8498  132.7207  150.1505 C   0  0  0  0  0  0  0  0  0  0  0  0
  144.4287  134.1371  150.3440 C   0  0  0  0  0  0  0  0  0  0  0  0
  145.1047  134.2795  151.7214 C   0  0  0  0  0  0  0  0  0  0  0  0
  146.1452  133.1612  151.9035 C   0  0  1  0  0  0  0  0  0  0  0  0
  151.4910  137.0835  155.1104 S   0  0  0  0  0  0  0  0  0  0  0  0
  154.0710  137.0694  157.7377 H   0  0  0  0  0  0  0  0  0  0  0  0
  152.8583  138.3435  157.9606 H   0  0  0  0  0  0  0  0  0  0  0  0
  153.7764  138.2457  156.4478 H   0  0  0  0  0  0  0  0  0  0  0  0
  149.6692  135.6261  153.5571 H   0  0  0  0  0  0  0  0  0  0  0  0
  148.1153  134.6121  152.6170 H   0  0  0  0  0  0  0  0  0  0  0  0
  146.0910  133.1881  154.0604 H   0  0  0  0  0  0  0  0  0  0  0  0
  148.3774  131.5316  153.0188 H   0  0  0  0  0  0  0  0  0  0  0  0
  147.2207  131.1725  154.2942 H   0  0  0  0  0  0  0  0  0  0  0  0
  147.0868  130.5131  151.4330 H   0  0  0  0  0  0  0  0  0  0  0  0
  145.9540  129.9922  152.6838 H   0  0  0  0  0  0  0  0  0  0  0  0
  145.6879  131.6506  149.6788 H   0  0  0  0  0  0  0  0  0  0  0  0
  144.4402  130.6427  150.3960 H   0  0  0  0  0  0  0  0  0  0  0  0
  143.4616  132.6110  149.1373 H   0  0  0  0  0  0  0  0  0  0  0  0
  143.0001  132.5857  150.8213 H   0  0  0  0  0  0  0  0  0  0  0  0
  145.1592  134.3396  149.5595 H   0  0  0  0  0  0  0  0  0  0  0  0
  143.6415  134.8834  150.2327 H   0  0  0  0  0  0  0  0  0  0  0  0
  145.5790  135.2577  151.8012 H   0  0  0  0  0  0  0  0  0  0  0  0
  144.3545  134.2285  152.5116 H   0  0  0  0  0  0  0  0  0  0  0  0
  146.9071  133.2437  151.1243 H   0  0  0  0  0  0  0  0  0  0  0  0
  144.7239  131.8529  152.4398 H   0  0  0  0  0  0  0  0  0  0  0  0
  1  2  1  0  0  0  0
  1 20  1  0  0  0  0
  1 21  1  0  0  0  0
  1 22  1  0  0  0  0
  2 19  1  0  0  0  0
  2  3  2  0  0  0  0
  3  4  1  0  0  0  0
  4  5  2  0  0  0  0
  5  6  1  0  0  0  0
  5 19  1  0  0  0  0
  6  7  1  0  0  0  0
  6 23  1  0  0  0  0
  7  8  2  0  0  0  0
  7  9  1  0  0  0  0
  9 10  1  0  0  0  0
  9 24  1  0  0  0  0
 10 18  1  0  0  0  0
 10 11  1  0  0  0  0
 10 25  1  0  0  0  0
 11 12  1  0  0  0  0
 11 26  1  0  0  0  0
 11 27  1  0  0  0  0
 12 13  1  0  0  0  0
 12 28  1  0  0  0  0
 12 29  1  0  0  0  0
 13 18  1  0  0  0  0
 13 14  1  0  0  0  0
 13 39  1  0  0  0  0
 14 15  1  0  0  0  0
 14 30  1  0  0  0  0
 14 31  1  0  0  0  0
 15 16  1  0  0  0  0
 15 32  1  0  0  0  0
 15 33  1  0  0  0  0
 16 17  1  0  0  0  0
 16 34  1  0  0  0  0
 16 35  1  0  0  0  0
 17 18  1  0  0  0  0
 17 36  1  0  0  0  0
 17 37  1  0  0  0  0
 18 38  1  0  0  0  0
M  CHG  1  13   1
M  END
> <s_m_source_file>
AV-unprocessed.smi

> <i_m_source_file_index>
1897

> <i_lp_mmshare_version>
43012

> <i_f3d_flags>
0

> <s_epik_input>
W0NIM11jMW5uYyhzMSlbTkhdQyg9TylbTkhdW0NASF0oW0NIMl1bQ0gyXTIpW0NAQEhdKE4yMylbQ0gyXVtDSDJdW0NIMl1bQ0gyXTM=

> <s_epik_cmdline>
J2VwaWtfcHl0aG9uJywgJy1waCcsICc3LjAnLCAnLXRuJywgJzgnLCAnLW1hJywgJzIwMCcsICctbWV0YWxfYmluZGluZycsICctaW1hZScsICc8aW5maWxlLm1hZT4nLCAnLW9tYWUnLCAnPG91dGZpbGUubWFlPic=

> <r_lp_tautomer_probability>
1

> <r_epik_Ionization_Penalty>
0.00228891

> <r_epik_Ionization_Penalty_Charging>
0.00107044

> <r_epik_Ionization_Penalty_Neutral>
0.00121847

> <r_epik_State_Penalty>
-0

> <r_epik_Charging_Adjusted_Penalty>
0.00107044

> <i_epik_Tot_Q>
1

> <i_epik_Tot_abs_Q>
1

> <r_epik_Metal_State_Penalty>
0.304057

> <b_epik_Metal_Only>
0

> <s_lp_Force_Field>
OPLS_2005

> <r_lp_Energy>
35.6377

> <b_lp_Chiralities_Consistent>
1

> <s_lp_Variant>
AV-unprocessed.smi:1897-3

> <Gold.Version>
5.8.1

> <Gold.Id.Protein>
6NUR|6NUR_protein|mol2

> <Gold.PLP.Fitness>
33.7951

> <Gold.PLP.PLP>
-27.8959

> <Gold.PLP.part.hbond>
-2.7510

> <Gold.PLP.part.metal>
0.0000

> <Gold.PLP.part.buried>
-4.9751

> <Gold.PLP.part.nonpolar>
-20.8132

> <Gold.PLP.part.repulsive>
0.0661

> <Gold.PLP.ligand.clash>
0.0000

> <Gold.PLP.ligand.torsion>
0.0553

> <Gold.PLP.Chemscore.Hbond>
2.0000

> <Gold.PLP.Chemscore.CHOScore>
0.0000

> <Gold.PLP.Chemscore.Metal>
0.0000

> <Gold.Chemscore.Hbonds>
donor molecule, donor type, donor heavy atom, donor atom, acceptor molecule, acceptor atom, score
      L1  H     6    23       P1  7948  0.75
      L1  H     9    24       P1  7948  1.00

> <Gold.PLP.Chemscore.Internal.Correction>
0.0097

> <Gold.Rescore>
     Score         DG    S(hbond)    S(metal)    S(lipo)     H(rot)  DE(clash)    DE(int)     intcor
     15.27     -16.52       1.65        0.00      69.18       1.00       0.01       1.24       ----

> <Gold.Chemscore.Fitness>
15.2705

> <Gold.Chemscore.DG>
-16.5215

> <Gold.Chemscore.ZeroCoef>
-5.4800

> <Gold.Chemscore.Hbond>
1.6488

> <Gold.Chemscore.Metal>
0.0000

> <Gold.Chemscore.Lipo>
69.1831

> <Gold.Chemscore.Internal_Hbond>
0.0000

> <Gold.Chemscore.DEClash>
0.0126

> <Gold.Chemscore.DEInternal>
1.2383

> <Gold.Chemscore.Rot>
1.0000

> <Gold.Chemscore.Internal.Correction>
   9.000000E+99

> <Gold.Chemscore.Hbonds>
donor molecule, donor type, donor heavy atom, donor atom, acceptor molecule, acceptor atom, score
      L1  H     6    23       P1  7948  0.09
      L1  H     9    24       P1  7948  0.47

> <Gold.Chemscore.Hbond.Weighted>
-5.5070

> <Gold.Chemscore.Metal.Weighted>
-0.0000

> <Gold.Chemscore.Lipo.Weighted>
-8.0944

> <Gold.Chemscore.Internal_Hbond.Weighted>
0.0000

> <Gold.Chemscore.DEClash.Weighted>
0.0126

> <Gold.Chemscore.DEInternal.Weighted>
1.2383

> <Gold.Chemscore.Rot.Weighted>
2.5600

> <Gold.Chemscore.Internal.Correction.Weighted>
   9.000000E+99

> <Gold.Protein.RotatedTorsions>
[ 6907 6896 6895 6894 ] final -124.73 input  -60.11 | X-H torsion
[ 7974 7965 7964 7962 ] final  -63.05 input  175.53 | X-H torsion
[ 8008 7997 7996 7995 ] final -153.65 input   59.86 | X-H torsion
[ 10167 10162 10161 10158 ] final   14.63 input  -65.29 | X-H torsion
[ 10718 10713 10712 10709 ] final   76.26 input   66.30 | X-H torsion
[ 10763 10752 10751 10750 ] final  158.23 input  -60.55 | X-H torsion
[ 11005 11000 10999 10996 ] final   56.90 input  -57.11 | X-H torsion

> <Gold.Protein.ActiveResidues>
 VAL166  LYS551  ARG553  GLY616  TRP617  ASP618  TYR619  PRO620  LYS621  CYS622 
 ASP623  PHE694  ASN695  SER759  ASP760  ASP761  ALA762  ILE779  LEU786  VAL792 
 PHE793  MET794  SER795  GLU796  ALA797  LYS798  CYS799  TRP800  GLU811  SER814 

> <Gold.Protein.RotatedAtoms>
  150.8797  133.7390  159.2935 H   0  0  0  0  0  0  0  0  0  0  0  0  # atno 6907 bound_to 6896
  151.4975  135.1059  159.9829 H   0  0  0  0  0  0  0  0  0  0  0  0  # atno 6908 bound_to 6896
  152.4751  133.8074  159.7041 H   0  0  0  0  0  0  0  0  0  0  0  0  # atno 6909 bound_to 6896
  145.7838  140.8747  143.0316 H   0  0  0  0  0  0  0  0  0  0  0  0  # atno 7974 bound_to 7965
  155.6740  140.0736  157.2509 H   0  0  0  0  0  0  0  0  0  0  0  0  # atno 8008 bound_to 7997
  154.4118  140.1694  156.1962 H   0  0  0  0  0  0  0  0  0  0  0  0  # atno 8009 bound_to 7997
  155.9592  140.3371  155.6478 H   0  0  0  0  0  0  0  0  0  0  0  0  # atno 8010 bound_to 7997
  140.5922  143.8772  150.6884 H   0  0  0  0  0  0  0  0  0  0  0  0  # atno 10167 bound_to 10162
  157.6667  130.9766  150.1472 H   0  0  0  0  0  0  0  0  0  0  0  0  # atno 10718 bound_to 10713
  154.2127  135.2785  155.2952 H   0  0  0  0  0  0  0  0  0  0  0  0  # atno 10763 bound_to 10752
  154.5765  135.5602  153.7148 H   0  0  0  0  0  0  0  0  0  0  0  0  # atno 10764 bound_to 10752
  153.0060  135.6334  154.2266 H   0  0  0  0  0  0  0  0  0  0  0  0  # atno 10765 bound_to 10752
  140.0493  134.5760  155.9283 H   0  0  0  0  0  0  0  0  0  0  0  0  # atno 11005 bound_to 11000
  144.6792  140.0027  143.7484 LP  0  0  0  0  0  0  0  0  0  0  0  0  # atno 17320 bound_to 7965
  146.0047  139.3120  143.0906 LP  0  0  0  0  0  0  0  0  0  0  0  0  # atno 17321 bound_to 7965
  140.2298  143.3744  152.1575 LP  0  0  0  0  0  0  0  0  0  0  0  0  # atno 17342 bound_to 10162
  139.5235  144.7072  151.5318 LP  0  0  0  0  0  0  0  0  0  0  0  0  # atno 17343 bound_to 10162
  156.2280  130.3679  149.8478 LP  0  0  0  0  0  0  0  0  0  0  0  0  # atno 17370 bound_to 10713
  156.6313  130.8667  151.3496 LP  0  0  0  0  0  0  0  0  0  0  0  0  # atno 17371 bound_to 10713
  141.1922  133.6574  156.5493 LP  0  0  0  0  0  0  0  0  0  0  0  0  # atno 17394 bound_to 11000
  140.3943  134.7413  157.4741 LP  0  0  0  0  0  0  0  0  0  0  0  0  # atno 17395 bound_to 11000

$$$$
