AV-unprocessed.smi:949|AV-procd|sdf|4249|dock4
  -GOLD-   22720 2153D 1   1.00000     0.00000
 Structure written by MMmdl.
 32 33  0  0  0  0  0  0  0  0  1 V2000
  149.3613  142.1040  157.6037 C   0  0  0  0  0  0  0  0  0  0  0  0
  150.7912  141.5322  157.6244 C   0  0  1  0  0  0  0  0  0  0  0  0
  151.1555  141.0360  156.3024 N   0  0  0  0  0  0  0  0  0  0  0  0
  151.4087  139.6784  156.0369 C   0  0  0  0  0  0  0  0  0  0  0  0
  152.2078  138.8684  156.8788 C   0  0  0  0  0  0  0  0  0  0  0  0
  152.4101  137.5179  156.5332 C   0  0  0  0  0  0  0  0  0  0  0  0
  151.8811  136.9443  155.4334 N   0  0  0  0  0  0  0  0  0  0  0  0
  151.1195  137.7148  154.6300 C   0  0  0  0  0  0  0  0  0  0  0  0
  150.8515  139.0772  154.8811 C   0  0  0  0  0  0  0  0  0  0  0  0
  150.0493  139.7955  153.9906 N   0  0  0  0  0  0  0  0  0  0  0  0
  151.8175  142.5884  158.0784 C   0  0  1  0  0  0  0  0  0  0  0  0
  151.6966  143.9447  157.3809 C   0  0  0  0  0  0  0  0  0  0  0  0
  152.2987  144.9194  158.3808 C   0  0  0  0  0  0  0  0  0  0  0  0
  152.3265  144.1343  159.6945 C   0  0  0  0  0  0  0  0  0  0  0  0
  151.5902  142.9479  159.4331 O   0  0  0  0  0  0  0  0  0  0  0  0
  149.0472  142.4261  158.5964 H   0  0  0  0  0  0  0  0  0  0  0  0
  148.6356  141.3654  157.2638 H   0  0  0  0  0  0  0  0  0  0  0  0
  149.2904  142.9645  156.9374 H   0  0  0  0  0  0  0  0  0  0  0  0
  150.8343  140.7075  158.3362 H   0  0  0  0  0  0  0  0  0  0  0  0
  151.3440  141.7144  155.5789 H   0  0  0  0  0  0  0  0  0  0  0  0
  152.6656  139.2511  157.7776 H   0  0  0  0  0  0  0  0  0  0  0  0
  153.0153  136.8799  157.1601 H   0  0  0  0  0  0  0  0  0  0  0  0
  150.7104  137.2263  153.7575 H   0  0  0  0  0  0  0  0  0  0  0  0
  149.8386  140.7718  154.1414 H   0  0  0  0  0  0  0  0  0  0  0  0
  149.6032  139.3471  153.2036 H   0  0  0  0  0  0  0  0  0  0  0  0
  152.8359  142.2073  157.9760 H   0  0  0  0  0  0  0  0  0  0  0  0
  152.2002  143.9689  156.4141 H   0  0  0  0  0  0  0  0  0  0  0  0
  150.6464  144.1920  157.2196 H   0  0  0  0  0  0  0  0  0  0  0  0
  153.3073  145.2157  158.0905 H   0  0  0  0  0  0  0  0  0  0  0  0
  151.6925  145.8225  158.4602 H   0  0  0  0  0  0  0  0  0  0  0  0
  153.3506  143.8702  159.9619 H   0  0  0  0  0  0  0  0  0  0  0  0
  151.8904  144.6900  160.5246 H   0  0  0  0  0  0  0  0  0  0  0  0
  1  2  1  0  0  0  0
  1 16  1  0  0  0  0
  1 17  1  0  0  0  0
  1 18  1  0  0  0  0
  2  3  1  0  0  0  0
  2 11  1  0  0  0  0
  2 19  1  0  0  0  0
  3  4  1  0  0  0  0
  3 20  1  0  0  0  0
  4  9  1  0  0  0  0
  4  5  2  0  0  0  0
  5  6  1  0  0  0  0
  5 21  1  0  0  0  0
  6  7  2  0  0  0  0
  6 22  1  0  0  0  0
  7  8  1  0  0  0  0
  8  9  2  0  0  0  0
  8 23  1  0  0  0  0
  9 10  1  0  0  0  0
 10 24  1  0  0  0  0
 10 25  1  0  0  0  0
 11 15  1  0  0  0  0
 11 12  1  0  0  0  0
 11 26  1  0  0  0  0
 12 13  1  0  0  0  0
 12 27  1  0  0  0  0
 12 28  1  0  0  0  0
 13 14  1  0  0  0  0
 13 29  1  0  0  0  0
 13 30  1  0  0  0  0
 14 15  1  0  0  0  0
 14 31  1  0  0  0  0
 14 32  1  0  0  0  0
M  END
> <s_m_source_file>
AV-unprocessed.smi

> <i_m_source_file_index>
949

> <i_lp_mmshare_version>
43012

> <i_f3d_flags>
0

> <s_epik_input>
TzFbQ0gyXVtDSDJdW0NIMl1bQ0BIXTFbQ0BIXShbQ0gzXSlbTkhdYzJbY0hdW2NIXW5bY0hdYzJbTkgyXQ==

> <s_epik_cmdline>
J2VwaWtfcHl0aG9uJywgJy1waCcsICc3LjAnLCAnLXRuJywgJzgnLCAnLW1hJywgJzIwMCcsICctbWV0YWxfYmluZGluZycsICctaW1hZScsICc8aW5maWxlLm1hZT4nLCAnLW9tYWUnLCAnPG91dGZpbGUubWFlPic=

> <r_epik_Ionization_Penalty>
3.88091

> <r_epik_Ionization_Penalty_Charging>
0

> <r_epik_Ionization_Penalty_Neutral>
3.88091

> <r_epik_State_Penalty>
3.88049

> <r_epik_Charging_Adjusted_Penalty>
3.88049

> <i_epik_Tot_Q>
0

> <i_epik_Tot_abs_Q>
0

> <r_epik_Metal_State_Penalty>
0.313783

> <b_epik_Metal_Only>
1

> <s_lp_Force_Field>
OPLS_2005

> <r_lp_Energy>
24.4145

> <b_lp_Chiralities_Consistent>
1

> <s_lp_Variant>
AV-unprocessed.smi:949-8

> <Gold.Version>
5.8.1

> <Gold.Id.Protein>
6NUR|6NUR_protein|mol2

> <Gold.PLP.Fitness>
39.5291

> <Gold.PLP.PLP>
-32.5716

> <Gold.PLP.part.hbond>
-2.0000

> <Gold.PLP.part.metal>
0.0000

> <Gold.PLP.part.buried>
-4.5887

> <Gold.PLP.part.nonpolar>
-27.9644

> <Gold.PLP.part.repulsive>
2.0559

> <Gold.PLP.ligand.clash>
0.0000

> <Gold.PLP.ligand.torsion>
0.4959

> <Gold.PLP.Chemscore.Hbond>
1.5151

> <Gold.PLP.Chemscore.CHOScore>
1.1256

> <Gold.PLP.Chemscore.Metal>
0.0000

> <Gold.Chemscore.Hbonds>
donor molecule, donor type, donor heavy atom, donor atom, acceptor molecule, acceptor atom, score
      L1  H    10    25       P1  7957  0.37
      P1  H 10752 10764       L1     7  0.83
      L1  C     8    23       P1  7948  0.30
      L1  C     8    23       P1  7949  0.60

> <Gold.PLP.Chemscore.Internal.Correction>
0.0271

> <Gold.Rescore>
     Score         DG    S(hbond)    S(metal)    S(lipo)     H(rot)  DE(clash)    DE(int)     intcor
     14.45     -15.14       0.64        0.00      90.83       1.22       0.04       0.65       ----

> <Gold.Chemscore.Fitness>
14.4510

> <Gold.Chemscore.DG>
-15.1419

> <Gold.Chemscore.ZeroCoef>
-5.4800

> <Gold.Chemscore.Hbond>
0.6436

> <Gold.Chemscore.Metal>
0.0000

> <Gold.Chemscore.Lipo>
90.8328

> <Gold.Chemscore.Internal_Hbond>
0.0000

> <Gold.Chemscore.DEClash>
0.0442

> <Gold.Chemscore.DEInternal>
0.6467

> <Gold.Chemscore.Rot>
1.2169

> <Gold.Chemscore.Internal.Correction>
   9.000000E+99

> <Gold.Chemscore.Hbonds>
donor molecule, donor type, donor heavy atom, donor atom, acceptor molecule, acceptor atom, score
      L1  H    10    25       P1  7957  0.37
      P1  H 10752 10764       L1     7  0.66

> <Gold.Chemscore.Hbond.Weighted>
-2.1497

> <Gold.Chemscore.Metal.Weighted>
-0.0000

> <Gold.Chemscore.Lipo.Weighted>
-10.6274

> <Gold.Chemscore.Internal_Hbond.Weighted>
0.0000

> <Gold.Chemscore.DEClash.Weighted>
0.0442

> <Gold.Chemscore.DEInternal.Weighted>
0.6467

> <Gold.Chemscore.Rot.Weighted>
3.1152

> <Gold.Chemscore.Internal.Correction.Weighted>
   9.000000E+99

> <Gold.Protein.RotatedTorsions>
[ 6907 6896 6895 6894 ] final   70.82 input  -60.11 | X-H torsion
[ 7974 7965 7964 7962 ] final  -78.85 input  175.53 | X-H torsion
[ 8008 7997 7996 7995 ] final  103.22 input   59.86 | X-H torsion
[ 10167 10162 10161 10158 ] final -136.08 input  -65.29 | X-H torsion
[ 10718 10713 10712 10709 ] final  139.24 input   66.30 | X-H torsion
[ 10763 10752 10751 10750 ] final  -72.05 input  -60.55 | X-H torsion
[ 11005 11000 10999 10996 ] final  -53.37 input  -57.11 | X-H torsion

> <Gold.Protein.ActiveResidues>
 VAL166  LYS551  ARG553  GLY616  TRP617  ASP618  TYR619  PRO620  LYS621  CYS622 
 ASP623  PHE694  ASN695  SER759  ASP760  ASP761  ALA762  ILE779  LEU786  VAL792 
 PHE793  MET794  SER795  GLU796  ALA797  LYS798  CYS799  TRP800  GLU811  SER814 

> <Gold.Protein.RotatedAtoms>
  152.4772  134.4812  159.9665 H   0  0  0  0  0  0  0  0  0  0  0  0  # atno 6907 bound_to 6896
  151.4826  133.3537  159.2848 H   0  0  0  0  0  0  0  0  0  0  0  0  # atno 6908 bound_to 6896
  150.8820  134.8238  159.7293 H   0  0  0  0  0  0  0  0  0  0  0  0  # atno 6909 bound_to 6896
  145.5810  140.9448  143.1344 H   0  0  0  0  0  0  0  0  0  0  0  0  # atno 7974 bound_to 7965
  156.1464  140.3168  155.8578 H   0  0  0  0  0  0  0  0  0  0  0  0  # atno 8008 bound_to 7997
  155.4055  140.0502  157.3051 H   0  0  0  0  0  0  0  0  0  0  0  0  # atno 8009 bound_to 7997
  154.5020  140.2133  155.9339 H   0  0  0  0  0  0  0  0  0  0  0  0  # atno 8010 bound_to 7997
  139.8714  143.6953  152.2639 H   0  0  0  0  0  0  0  0  0  0  0  0  # atno 10167 bound_to 10162
  157.4165  131.1034  151.0399 H   0  0  0  0  0  0  0  0  0  0  0  0  # atno 10718 bound_to 10713
  154.4402  135.5942  153.6124 H   0  0  0  0  0  0  0  0  0  0  0  0  # atno 10763 bound_to 10752
  152.9805  135.5996  154.3731 H   0  0  0  0  0  0  0  0  0  0  0  0  # atno 10764 bound_to 10752
  154.3580  135.2841  155.2314 H   0  0  0  0  0  0  0  0  0  0  0  0  # atno 10765 bound_to 10752
  141.0972  133.6623  156.4162 H   0  0  0  0  0  0  0  0  0  0  0  0  # atno 11005 bound_to 11000
  144.7394  139.7493  143.7317 LP  0  0  0  0  0  0  0  0  0  0  0  0  # atno 17320 bound_to 7965
  146.1716  139.4869  142.9924 LP  0  0  0  0  0  0  0  0  0  0  0  0  # atno 17321 bound_to 7965
  139.7281  144.7588  151.0847 LP  0  0  0  0  0  0  0  0  0  0  0  0  # atno 17342 bound_to 10162
  140.7760  143.5123  150.9637 LP  0  0  0  0  0  0  0  0  0  0  0  0  # atno 17343 bound_to 10162
  157.1345  130.6116  149.5538 LP  0  0  0  0  0  0  0  0  0  0  0  0  # atno 17370 bound_to 10713
  155.9867  130.4902  150.7090 LP  0  0  0  0  0  0  0  0  0  0  0  0  # atno 17371 bound_to 10713
  140.5110  134.6395  157.5284 LP  0  0  0  0  0  0  0  0  0  0  0  0  # atno 17394 bound_to 11000
  139.9813  134.7133  155.9855 LP  0  0  0  0  0  0  0  0  0  0  0  0  # atno 17395 bound_to 11000

$$$$
