AV-unprocessed.smi:439|AV-procd|sdf|2579|dock5
  -GOLD-   2262022563D 1   1.00000     0.00000
 Structure written by MMmdl.
 46 47  0  0  0  0  0  0  0  0  1 V2000
  152.0465  144.1346  158.8912 C   0  0  0  0  0  0  0  0  0  0  0  0
  151.5391  143.5300  157.5753 C   0  0  0  0  0  0  0  0  0  0  0  0
  151.5524  141.9935  157.5563 C   0  0  0  0  0  0  0  0  0  0  0  0
  151.0423  141.3931  156.2336 C   0  0  0  0  0  0  0  0  0  0  0  0
  151.0262  139.9438  156.2510 N   0  0  0  0  0  0  0  0  0  0  0  0
  150.1455  139.1898  157.0328 C   0  0  0  0  0  0  0  0  0  0  0  0
  149.2462  139.8733  157.8359 N   0  0  0  0  0  0  0  0  0  0  0  0
  150.1473  137.8230  157.0038 C   0  0  0  0  0  0  0  0  0  0  0  0
  149.2762  137.0565  157.8101 N   0  0  0  0  0  0  0  0  0  0  0  0
  147.9967  136.6742  157.1844 C   0  0  0  0  0  0  0  0  0  0  0  0
  147.1933  137.8716  156.6441 C   0  0  0  0  0  0  0  0  0  0  0  0
  149.4764  136.8401  159.1453 C   0  0  0  0  0  0  0  0  0  0  0  0
  150.5855  137.0082  159.6570 O   0  0  0  0  0  0  0  0  0  0  0  0
  148.3103  136.4327  159.9363 C   0  0  0  0  0  0  0  0  0  0  0  0
  148.1929  135.1347  160.2997 C   0  0  0  0  0  0  0  0  0  0  0  0
  147.1775  134.6483  161.0846 O   0  0  0  0  0  0  0  0  0  0  0  0
  146.3800  135.6450  161.7122 C   0  0  0  0  0  0  0  0  0  0  0  0
  146.1210  136.8103  160.7477 C   0  0  0  0  0  0  0  0  0  0  0  0
  147.3569  137.3558  160.3039 O   0  0  0  0  0  0  0  0  0  0  0  0
  151.1215  137.0985  156.1728 C   0  0  0  0  0  0  0  0  0  0  0  0
  151.2267  135.8756  156.0886 O   0  0  0  0  0  0  0  0  0  0  0  0
  151.9870  137.9072  155.4416 N   0  0  0  0  0  0  0  0  0  0  0  0
  151.9928  139.2969  155.4449 C   0  0  0  0  0  0  0  0  0  0  0  0
  152.8246  139.8978  154.7640 O   0  0  0  0  0  0  0  0  0  0  0  0
  152.6752  137.4442  154.8657 H   0  0  0  0  0  0  0  0  0  0  0  0
  152.0743  145.2227  158.8303 H   0  0  0  0  0  0  0  0  0  0  0  0
  153.0550  143.7896  159.1202 H   0  0  0  0  0  0  0  0  0  0  0  0
  151.4020  143.8716  159.7297 H   0  0  0  0  0  0  0  0  0  0  0  0
  150.5327  143.8938  157.3656 H   0  0  0  0  0  0  0  0  0  0  0  0
  152.1680  143.8945  156.7623 H   0  0  0  0  0  0  0  0  0  0  0  0
  152.5743  141.6544  157.7304 H   0  0  0  0  0  0  0  0  0  0  0  0
  150.9627  141.6128  158.3909 H   0  0  0  0  0  0  0  0  0  0  0  0
  150.0269  141.7134  156.0052 H   0  0  0  0  0  0  0  0  0  0  0  0
  151.6360  141.7199  155.3783 H   0  0  0  0  0  0  0  0  0  0  0  0
  149.2192  140.8826  157.8633 H   0  0  0  0  0  0  0  0  0  0  0  0
  148.5927  139.3907  158.4358 H   0  0  0  0  0  0  0  0  0  0  0  0
  148.1843  135.9627  156.3786 H   0  0  0  0  0  0  0  0  0  0  0  0
  147.3768  136.1361  157.9037 H   0  0  0  0  0  0  0  0  0  0  0  0
  146.2467  137.5339  156.2219 H   0  0  0  0  0  0  0  0  0  0  0  0
  147.7280  138.4005  155.8553 H   0  0  0  0  0  0  0  0  0  0  0  0
  146.9605  138.5910  157.4275 H   0  0  0  0  0  0  0  0  0  0  0  0
  148.8979  134.3577  160.0402 H   0  0  0  0  0  0  0  0  0  0  0  0
  145.4389  135.1988  162.0336 H   0  0  0  0  0  0  0  0  0  0  0  0
  146.8908  136.0000  162.6081 H   0  0  0  0  0  0  0  0  0  0  0  0
  145.5448  136.4750  159.8840 H   0  0  0  0  0  0  0  0  0  0  0  0
  145.5410  137.5923  161.2379 H   0  0  0  0  0  0  0  0  0  0  0  0
  1  2  1  0  0  0  0
  1 26  1  0  0  0  0
  1 27  1  0  0  0  0
  1 28  1  0  0  0  0
  2  3  1  0  0  0  0
  2 29  1  0  0  0  0
  2 30  1  0  0  0  0
  3  4  1  0  0  0  0
  3 31  1  0  0  0  0
  3 32  1  0  0  0  0
  4  5  1  0  0  0  0
  4 33  1  0  0  0  0
  4 34  1  0  0  0  0
  5 23  1  0  0  0  0
  5  6  1  0  0  0  0
  6  7  1  0  0  0  0
  6  8  2  0  0  0  0
  7 35  1  0  0  0  0
  7 36  1  0  0  0  0
  8  9  1  0  0  0  0
  8 20  1  0  0  0  0
  9 10  1  0  0  0  0
  9 12  1  0  0  0  0
 10 11  1  0  0  0  0
 10 37  1  0  0  0  0
 10 38  1  0  0  0  0
 11 39  1  0  0  0  0
 11 40  1  0  0  0  0
 11 41  1  0  0  0  0
 12 13  2  0  0  0  0
 12 14  1  0  0  0  0
 14 19  1  0  0  0  0
 14 15  2  0  0  0  0
 15 16  1  0  0  0  0
 15 42  1  0  0  0  0
 16 17  1  0  0  0  0
 17 18  1  0  0  0  0
 17 43  1  0  0  0  0
 17 44  1  0  0  0  0
 18 19  1  0  0  0  0
 18 45  1  0  0  0  0
 18 46  1  0  0  0  0
 20 21  2  0  0  0  0
 20 22  1  0  0  0  0
 22 25  1  0  0  0  0
 22 23  1  0  0  0  0
 23 24  2  0  0  0  0
M  END
> <s_m_source_file>
AV-unprocessed.smi

> <i_m_source_file_index>
439

> <i_lp_mmshare_version>
43012

> <i_f3d_flags>
0

> <s_epik_input>
W0NIM11bQ0gyXVtDSDJdW0NIMl1uMWMoW05IMl0pYyhjKD1PKVtuSF1jMT1PKU4oW0NIMl1bQ0gzXSlDKD1PKUMyPVtDSF1PW0NIMl1bQ0gyXU8y

> <s_epik_cmdline>
J2VwaWtfcHl0aG9uJywgJy1waCcsICc3LjAnLCAnLXRuJywgJzgnLCAnLW1hJywgJzIwMCcsICctbWV0YWxfYmluZGluZycsICctaW1hZScsICc8aW5maWxlLm1hZT4nLCAnLW9tYWUnLCAnPG91dGZpbGUubWFlPic=

> <r_lp_tautomer_probability>
1

> <r_epik_Ionization_Penalty>
3.16361e-05

> <r_epik_Ionization_Penalty_Charging>
2.29435e-05

> <r_epik_Ionization_Penalty_Neutral>
8.69256e-06

> <r_epik_State_Penalty>
-0

> <r_epik_Charging_Adjusted_Penalty>
2.29435e-05

> <i_epik_Tot_Q>
0

> <i_epik_Tot_abs_Q>
0

> <r_epik_Metal_State_Penalty>
0.0222995

> <b_epik_Metal_Only>
0

> <s_epik_Chemistry_Notes>
This compound has an imine and may undergo hydrolysis.

> <s_lp_Force_Field>
OPLS_2005

> <r_lp_Energy>
28.4658

> <b_lp_Chiralities_Consistent>
1

> <s_lp_Variant>
AV-unprocessed.smi:439-1

> <Gold.Version>
5.8.1

> <Gold.Id.Protein>
6NUR|6NUR_protein|mol2

> <Gold.PLP.Fitness>
41.6750

> <Gold.PLP.PLP>
-32.2794

> <Gold.PLP.part.hbond>
-5.0115

> <Gold.PLP.part.metal>
0.0000

> <Gold.PLP.part.buried>
-4.0954

> <Gold.PLP.part.nonpolar>
-23.1690

> <Gold.PLP.part.repulsive>
0.3503

> <Gold.PLP.ligand.clash>
0.0000

> <Gold.PLP.ligand.torsion>
3.1181

> <Gold.PLP.Chemscore.Hbond>
4.0892

> <Gold.PLP.Chemscore.CHOScore>
0.0000

> <Gold.PLP.Chemscore.Metal>
0.0000

> <Gold.Chemscore.Hbonds>
donor molecule, donor type, donor heavy atom, donor atom, acceptor molecule, acceptor atom, score
      P1  H  6896  6907       L1    13  1.00
      P1  H  6934  6947       L1    19  1.00
      P1  H  7989  7998       L1    24  0.40
      P1  H  7997  8009       L1    24  1.00
      P1  H 10752 10763       L1    21  0.55

> <Gold.PLP.Chemscore.Internal.Correction>
3.3642

> <Gold.Rescore>
     Score         DG    S(hbond)    S(metal)    S(lipo)     H(rot)  DE(clash)    DE(int)     intcor
     14.45     -17.59       2.88        0.00      57.67       1.66       0.01       3.13       ----

> <Gold.Chemscore.Fitness>
14.4511

> <Gold.Chemscore.DG>
-17.5899

> <Gold.Chemscore.ZeroCoef>
-5.4800

> <Gold.Chemscore.Hbond>
2.8750

> <Gold.Chemscore.Metal>
0.0000

> <Gold.Chemscore.Lipo>
57.6679

> <Gold.Chemscore.Internal_Hbond>
0.0000

> <Gold.Chemscore.DEClash>
0.0126

> <Gold.Chemscore.DEInternal>
3.1262

> <Gold.Chemscore.Rot>
1.6562

> <Gold.Chemscore.Internal.Correction>
   9.000000E+99

> <Gold.Chemscore.Hbonds>
donor molecule, donor type, donor heavy atom, donor atom, acceptor molecule, acceptor atom, score
      P1  H  6896  6907       L1    13  0.38
      P1  H  6934  6947       L1    19  0.25
      P1  H  7989  7998       L1    24  0.14
      P1  H  7997  8009       L1    24  0.84
      P1  H 10752 10763       L1    21  0.34

> <Gold.Chemscore.Hbond.Weighted>
-9.6026

> <Gold.Chemscore.Metal.Weighted>
-0.0000

> <Gold.Chemscore.Lipo.Weighted>
-6.7471

> <Gold.Chemscore.Internal_Hbond.Weighted>
0.0000

> <Gold.Chemscore.DEClash.Weighted>
0.0126

> <Gold.Chemscore.DEInternal.Weighted>
3.1262

> <Gold.Chemscore.Rot.Weighted>
4.2398

> <Gold.Chemscore.Internal.Correction.Weighted>
   9.000000E+99

> <Gold.Protein.RotatedTorsions>
[ 6907 6896 6895 6894 ] final  -18.46 input  -60.11 | X-H torsion
[ 7974 7965 7964 7962 ] final   -4.74 input  175.53 | X-H torsion
[ 8008 7997 7996 7995 ] final -122.60 input   59.86 | X-H torsion
[ 10167 10162 10161 10158 ] final  -34.87 input  -65.29 | X-H torsion
[ 10718 10713 10712 10709 ] final   71.35 input   66.30 | X-H torsion
[ 10763 10752 10751 10750 ] final   89.22 input  -60.55 | X-H torsion
[ 11005 11000 10999 10996 ] final  -22.52 input  -57.11 | X-H torsion

> <Gold.Protein.ActiveResidues>
 VAL166  LYS551  ARG553  GLY616  TRP617  ASP618  TYR619  PRO620  LYS621  CYS622 
 ASP623  PHE694  ASN695  SER759  ASP760  ASP761  ALA762  ILE779  LEU786  VAL792 
 PHE793  MET794  SER795  GLU796  ALA797  LYS798  CYS799  TRP800  GLU811  SER814 

> <Gold.Protein.RotatedAtoms>
  151.2779  135.0705  159.9158 H   0  0  0  0  0  0  0  0  0  0  0  0  # atno 6907 bound_to 6896
  152.5339  134.0062  159.7927 H   0  0  0  0  0  0  0  0  0  0  0  0  # atno 6908 bound_to 6896
  151.0311  133.5739  159.2691 H   0  0  0  0  0  0  0  0  0  0  0  0  # atno 6909 bound_to 6896
  146.2366  140.1917  142.8332 H   0  0  0  0  0  0  0  0  0  0  0  0  # atno 7974 bound_to 7965
  155.1669  140.0407  157.2854 H   0  0  0  0  0  0  0  0  0  0  0  0  # atno 8008 bound_to 7997
  154.6297  140.2521  155.7422 H   0  0  0  0  0  0  0  0  0  0  0  0  # atno 8009 bound_to 7997
  156.2478  140.2878  156.0643 H   0  0  0  0  0  0  0  0  0  0  0  0  # atno 8010 bound_to 7997
  140.7177  143.3517  151.2142 H   0  0  0  0  0  0  0  0  0  0  0  0  # atno 10167 bound_to 10162
  157.6447  130.9524  150.0777 H   0  0  0  0  0  0  0  0  0  0  0  0  # atno 10718 bound_to 10713
  153.1849  135.4478  155.0075 H   0  0  0  0  0  0  0  0  0  0  0  0  # atno 10763 bound_to 10752
  154.8053  135.3272  154.7448 H   0  0  0  0  0  0  0  0  0  0  0  0  # atno 10764 bound_to 10752
  153.7908  135.6970  153.4927 H   0  0  0  0  0  0  0  0  0  0  0  0  # atno 10765 bound_to 10752
  140.8665  133.7751  156.0135 H   0  0  0  0  0  0  0  0  0  0  0  0  # atno 11005 bound_to 11000
  144.9852  140.8497  143.5373 LP  0  0  0  0  0  0  0  0  0  0  0  0  # atno 17320 bound_to 7965
  145.1916  139.2298  143.5240 LP  0  0  0  0  0  0  0  0  0  0  0  0  # atno 17321 bound_to 7965
  139.7050  143.9471  152.2922 LP  0  0  0  0  0  0  0  0  0  0  0  0  # atno 17342 bound_to 10162
  139.9176  144.6819  150.8495 LP  0  0  0  0  0  0  0  0  0  0  0  0  # atno 17343 bound_to 10162
  156.1763  130.3648  149.9096 LP  0  0  0  0  0  0  0  0  0  0  0  0  # atno 17370 bound_to 10713
  156.7060  130.8951  151.3604 LP  0  0  0  0  0  0  0  0  0  0  0  0  # atno 17371 bound_to 10713
  140.8623  134.2826  157.5229 LP  0  0  0  0  0  0  0  0  0  0  0  0  # atno 17394 bound_to 11000
  139.8709  134.9524  156.4115 LP  0  0  0  0  0  0  0  0  0  0  0  0  # atno 17395 bound_to 11000

$$$$
