AV-unprocessed.smi:1376|AV-procd|sdf|5590|dock4
  -GOLD-   22720 5193D 1   1.00000     0.00000
 Structure written by MMmdl.
 42 43  0  0  0  0  0  0  0  0  1 V2000
  149.9066  142.8579  158.7343 O   0  0  0  0  0  0  0  0  0  0  0  0
  150.9836  142.6846  158.1621 C   0  0  0  0  0  0  0  0  0  0  0  0
  152.2514  143.4084  158.6371 C   0  0  0  0  0  0  0  0  0  0  0  0
  152.5781  143.1441  160.0484 N   0  0  0  0  0  0  0  0  0  0  0  0
  152.1841  144.1144  160.9915 C   0  0  0  0  0  0  0  0  0  0  0  0
  152.4314  143.9714  162.3030 C   0  0  0  0  0  0  0  0  0  0  0  0
  153.1218  142.7819  162.7417 C   0  0  0  0  0  0  0  0  0  0  0  0
  153.5074  141.8498  161.8476 C   0  0  0  0  0  0  0  0  0  0  0  0
  153.2431  142.0041  160.4122 C   0  0  0  0  0  0  0  0  0  0  0  0
  153.5963  141.1600  159.5881 O   0  0  0  0  0  0  0  0  0  0  0  0
  151.1376  141.8532  157.1204 N   0  0  0  0  0  0  0  0  0  0  0  0
  150.0765  141.0580  156.5091 C   0  0  2  0  0  0  0  0  0  0  0  0
  150.3687  139.5524  156.6690 C   0  0  0  0  0  0  0  0  0  0  0  0
  149.3047  138.6978  155.9636 C   0  0  0  0  0  0  0  0  0  0  0  0
  149.1704  139.0805  154.4801 C   0  0  0  0  0  0  0  0  0  0  0  0
  148.8764  140.5807  154.3003 C   0  0  1  0  0  0  0  0  0  0  0  0
  147.5715  140.8296  154.8117 O   0  0  0  0  0  0  0  0  0  0  0  0
  146.9644  142.0272  154.3465 C   0  0  0  0  0  0  0  0  0  0  0  0
  145.9520  142.5175  155.3887 C   0  0  0  0  0  0  0  0  0  0  0  0
  145.3971  143.6519  154.9637 F   0  0  0  0  0  0  0  0  0  0  0  0
  144.9913  141.6099  155.5605 F   0  0  0  0  0  0  0  0  0  0  0  0
  146.5627  142.7489  156.5505 F   0  0  0  0  0  0  0  0  0  0  0  0
  149.9435  141.4333  155.0208 C   0  0  0  0  0  0  0  0  0  0  0  0
  153.0763  143.1044  157.9915 H   0  0  0  0  0  0  0  0  0  0  0  0
  152.1420  144.4820  158.4722 H   0  0  0  0  0  0  0  0  0  0  0  0
  151.6802  144.9774  160.5807 H   0  0  0  0  0  0  0  0  0  0  0  0
  152.1258  144.7278  163.0108 H   0  0  0  0  0  0  0  0  0  0  0  0
  153.3311  142.6391  163.7916 H   0  0  0  0  0  0  0  0  0  0  0  0
  154.0234  140.9663  162.1939 H   0  0  0  0  0  0  0  0  0  0  0  0
  152.0594  141.7667  156.7175 H   0  0  0  0  0  0  0  0  0  0  0  0
  149.1300  141.2893  157.0024 H   0  0  0  0  0  0  0  0  0  0  0  0
  151.3508  139.3201  156.2545 H   0  0  0  0  0  0  0  0  0  0  0  0
  150.4087  139.2855  157.7259 H   0  0  0  0  0  0  0  0  0  0  0  0
  149.5586  137.6413  156.0525 H   0  0  0  0  0  0  0  0  0  0  0  0
  148.3442  138.8267  156.4645 H   0  0  0  0  0  0  0  0  0  0  0  0
  150.0950  138.8285  153.9592 H   0  0  0  0  0  0  0  0  0  0  0  0
  148.3840  138.4875  154.0120 H   0  0  0  0  0  0  0  0  0  0  0  0
  148.8924  140.8018  153.2318 H   0  0  0  0  0  0  0  0  0  0  0  0
  147.7135  142.7998  154.1738 H   0  0  0  0  0  0  0  0  0  0  0  0
  146.4567  141.8454  153.3981 H   0  0  0  0  0  0  0  0  0  0  0  0
  149.7245  142.4959  154.9198 H   0  0  0  0  0  0  0  0  0  0  0  0
  150.9039  141.2812  154.5257 H   0  0  0  0  0  0  0  0  0  0  0  0
  1  2  2  0  0  0  0
  2  3  1  0  0  0  0
  2 11  1  0  0  0  0
  3  4  1  0  0  0  0
  3 24  1  0  0  0  0
  3 25  1  0  0  0  0
  4  9  1  0  0  0  0
  4  5  1  0  0  0  0
  5  6  2  0  0  0  0
  5 26  1  0  0  0  0
  6  7  1  0  0  0  0
  6 27  1  0  0  0  0
  7  8  2  0  0  0  0
  7 28  1  0  0  0  0
  8  9  1  0  0  0  0
  8 29  1  0  0  0  0
  9 10  2  0  0  0  0
 11 12  1  0  0  0  0
 11 30  1  0  0  0  0
 12 23  1  0  0  0  0
 12 13  1  0  0  0  0
 12 31  1  0  0  0  0
 13 14  1  0  0  0  0
 13 32  1  0  0  0  0
 13 33  1  0  0  0  0
 14 15  1  0  0  0  0
 14 34  1  0  0  0  0
 14 35  1  0  0  0  0
 15 16  1  0  0  0  0
 15 36  1  0  0  0  0
 15 37  1  0  0  0  0
 16 17  1  0  0  0  0
 16 23  1  0  0  0  0
 16 38  1  0  0  0  0
 17 18  1  0  0  0  0
 18 19  1  0  0  0  0
 18 39  1  0  0  0  0
 18 40  1  0  0  0  0
 19 20  1  0  0  0  0
 19 21  1  0  0  0  0
 19 22  1  0  0  0  0
 23 41  1  0  0  0  0
 23 42  1  0  0  0  0
M  END
> <s_m_source_file>
AV-unprocessed.smi

> <i_m_source_file_index>
1376

> <i_lp_mmshare_version>
43012

> <i_f3d_flags>
0

> <s_epik_input>
Tz1jMVtjSF1bY0hdW2NIXVtjSF1uMVtDSDJdQyg9TylbTkhdW0NAQEhdMltDSDJdW0NIMl1bQ0gyXVtDQEhdKFtDSDJdMilPW0NIMl1DKEYpKEYpRg==

> <s_epik_cmdline>
J2VwaWtfcHl0aG9uJywgJy1waCcsICc3LjAnLCAnLXRuJywgJzgnLCAnLW1hJywgJzIwMCcsICctbWV0YWxfYmluZGluZycsICctaW1hZScsICc8aW5maWxlLm1hZT4nLCAnLW9tYWUnLCAnPG91dGZpbGUubWFlPic=

> <r_lp_tautomer_probability>
1

> <r_epik_Ionization_Penalty>
4.08567e-07

> <r_epik_Ionization_Penalty_Charging>
3.90028e-07

> <r_epik_Ionization_Penalty_Neutral>
1.85393e-08

> <r_epik_State_Penalty>
-0

> <r_epik_Charging_Adjusted_Penalty>
3.90028e-07

> <i_epik_Tot_Q>
0

> <i_epik_Tot_abs_Q>
0

> <r_epik_Metal_State_Penalty>
-0

> <b_epik_Metal_Only>
0

> <s_lp_Force_Field>
OPLS_2005

> <r_lp_Energy>
21.1399

> <b_lp_Chiralities_Consistent>
1

> <s_lp_Variant>
AV-unprocessed.smi:1376-1

> <Gold.Version>
5.8.1

> <Gold.Id.Protein>
6NUR|6NUR_protein|mol2

> <Gold.PLP.Fitness>
47.4311

> <Gold.PLP.PLP>
-48.6565

> <Gold.PLP.part.hbond>
-0.2649

> <Gold.PLP.part.metal>
0.0000

> <Gold.PLP.part.buried>
-4.9711

> <Gold.PLP.part.nonpolar>
-43.5440

> <Gold.PLP.part.repulsive>
0.2678

> <Gold.PLP.ligand.clash>
0.0000

> <Gold.PLP.ligand.torsion>
0.6409

> <Gold.PLP.Chemscore.Hbond>
0.0000

> <Gold.PLP.Chemscore.CHOScore>
0.0000

> <Gold.PLP.Chemscore.Metal>
0.0000

> <Gold.PLP.Chemscore.Internal.Correction>
0.0564

> <Gold.Rescore>
     Score         DG    S(hbond)    S(metal)    S(lipo)     H(rot)  DE(clash)    DE(int)     intcor
     11.15     -12.04       0.00        0.00     103.73       2.18       0.19       0.70       ----

> <Gold.Chemscore.Fitness>
11.1477

> <Gold.Chemscore.DG>
-12.0358

> <Gold.Chemscore.ZeroCoef>
-5.4800

> <Gold.Chemscore.Hbond>
0.0000

> <Gold.Chemscore.Metal>
0.0000

> <Gold.Chemscore.Lipo>
103.7263

> <Gold.Chemscore.Internal_Hbond>
0.0000

> <Gold.Chemscore.DEClash>
0.1901

> <Gold.Chemscore.DEInternal>
0.6981

> <Gold.Chemscore.Rot>
2.1797

> <Gold.Chemscore.Internal.Correction>
   9.000000E+99

> <Gold.Chemscore.Hbond.Weighted>
-0.0000

> <Gold.Chemscore.Metal.Weighted>
-0.0000

> <Gold.Chemscore.Lipo.Weighted>
-12.1360

> <Gold.Chemscore.Internal_Hbond.Weighted>
0.0000

> <Gold.Chemscore.DEClash.Weighted>
0.1901

> <Gold.Chemscore.DEInternal.Weighted>
0.6981

> <Gold.Chemscore.Rot.Weighted>
5.5802

> <Gold.Chemscore.Internal.Correction.Weighted>
   9.000000E+99

> <Gold.Protein.RotatedTorsions>
[ 6907 6896 6895 6894 ] final  -56.45 input  -60.11 | X-H torsion
[ 7974 7965 7964 7962 ] final    3.38 input  175.53 | X-H torsion
[ 8008 7997 7996 7995 ] final -117.52 input   59.86 | X-H torsion
[ 10167 10162 10161 10158 ] final   -7.11 input  -65.29 | X-H torsion
[ 10718 10713 10712 10709 ] final  -51.12 input   66.30 | X-H torsion
[ 10763 10752 10751 10750 ] final  162.88 input  -60.55 | X-H torsion
[ 11005 11000 10999 10996 ] final   67.37 input  -57.11 | X-H torsion

> <Gold.Protein.ActiveResidues>
 VAL166  LYS551  ARG553  GLY616  TRP617  ASP618  TYR619  PRO620  LYS621  CYS622 
 ASP623  PHE694  ASN695  SER759  ASP760  ASP761  ALA762  ILE779  LEU786  VAL792 
 PHE793  MET794  SER795  GLU796  ALA797  LYS798  CYS799  TRP800  GLU811  SER814 

> <Gold.Protein.RotatedAtoms>
  150.8166  134.7352  159.6735 H   0  0  0  0  0  0  0  0  0  0  0  0  # atno 6907 bound_to 6896
  152.4285  134.5820  159.9960 H   0  0  0  0  0  0  0  0  0  0  0  0  # atno 6908 bound_to 6896
  151.6015  133.3318  159.3084 H   0  0  0  0  0  0  0  0  0  0  0  0  # atno 6909 bound_to 6896
  146.2445  140.0694  142.8363 H   0  0  0  0  0  0  0  0  0  0  0  0  # atno 7974 bound_to 7965
  155.0850  140.0394  157.2651 H   0  0  0  0  0  0  0  0  0  0  0  0  # atno 8008 bound_to 7997
  154.6876  140.2646  155.6820 H   0  0  0  0  0  0  0  0  0  0  0  0  # atno 8009 bound_to 7997
  156.2717  140.2766  156.1443 H   0  0  0  0  0  0  0  0  0  0  0  0  # atno 8010 bound_to 7997
  140.7018  143.6118  150.8697 H   0  0  0  0  0  0  0  0  0  0  0  0  # atno 10167 bound_to 10162
  156.1739  130.4149  149.9606 H   0  0  0  0  0  0  0  0  0  0  0  0  # atno 10718 bound_to 10713
  154.2851  135.2762  155.2680 H   0  0  0  0  0  0  0  0  0  0  0  0  # atno 10763 bound_to 10752
  154.5183  135.5763  153.6664 H   0  0  0  0  0  0  0  0  0  0  0  0  # atno 10764 bound_to 10752
  152.9923  135.6198  154.3013 H   0  0  0  0  0  0  0  0  0  0  0  0  # atno 10765 bound_to 10752
  139.9775  134.6799  156.0326 H   0  0  0  0  0  0  0  0  0  0  0  0  # atno 11005 bound_to 11000
  145.0830  140.9233  143.4814 LP  0  0  0  0  0  0  0  0  0  0  0  0  # atno 17320 bound_to 7965
  145.0851  139.2931  143.5764 LP  0  0  0  0  0  0  0  0  0  0  0  0  # atno 17321 bound_to 7965
  139.9841  143.5919  152.2933 LP  0  0  0  0  0  0  0  0  0  0  0  0  # atno 17342 bound_to 10162
  139.6550  144.7662  151.2072 LP  0  0  0  0  0  0  0  0  0  0  0  0  # atno 17343 bound_to 10162
  156.7398  130.9075  151.3631 LP  0  0  0  0  0  0  0  0  0  0  0  0  # atno 17370 bound_to 10713
  157.6822  130.9151  150.0295 LP  0  0  0  0  0  0  0  0  0  0  0  0  # atno 17371 bound_to 10713
  141.1450  133.6557  156.3842 LP  0  0  0  0  0  0  0  0  0  0  0  0  # atno 17394 bound_to 11000
  140.5165  134.6345  157.5303 LP  0  0  0  0  0  0  0  0  0  0  0  0  # atno 17395 bound_to 11000

$$$$
