AV-unprocessed.smi:2807|AV-procd|sdf|10820|dock10
  -GOLD-   2272015253D 1   1.00000     0.00000
 Structure written by MMmdl.
 31 32  0  0  0  0  0  0  0  0  2 V2000
  151.4845  140.0931  155.1508 O   0  0  0  0  0  0  0  0  0  0  0  0
  150.8051  140.6053  156.0484 C   0  0  0  0  0  0  0  0  0  0  0  0
  149.5800  141.2016  155.9822 N   0  5  0  0  0  0  0  0  0  0  0  0
  148.8512  141.4372  154.7365 C   0  0  2  0  0  0  0  0  0  0  0  0
  147.5558  142.2247  154.9740 C   0  0  0  0  0  0  0  0  0  0  0  0
  146.6141  141.8304  153.8235 C   0  0  0  0  0  0  0  0  0  0  0  0
  147.2020  140.5568  153.1933 C   0  0  0  0  0  0  0  0  0  0  0  0
  148.3418  140.1272  154.1262 C   0  0  1  0  0  0  0  0  0  0  0  0
  149.3607  139.4358  153.4349 O   0  0  0  0  0  0  0  0  0  0  0  0
  151.3842  140.6327  157.4788 C   0  0  0  0  0  0  0  0  0  0  0  0
  150.5324  140.0507  158.3304 F   0  0  0  0  0  0  0  0  0  0  0  0
  152.5141  139.9212  157.4982 F   0  0  0  0  0  0  0  0  0  0  0  0
  151.6945  142.0677  157.9022 C   0  0  0  0  0  0  0  0  0  0  0  0
  152.3705  142.3289  159.1162 C   0  0  0  0  0  0  0  0  0  0  0  0
  152.6568  143.6644  159.4575 C   0  0  0  0  0  0  0  0  0  0  0  0
  152.2592  144.6896  158.5786 C   0  0  0  0  0  0  0  0  0  0  0  0
  151.5904  144.3306  157.3918 C   0  0  0  0  0  0  0  0  0  0  0  0
  151.3101  143.0538  157.0562 N   0  0  0  0  0  0  0  0  0  0  0  0
  149.4488  141.9647  153.9901 H   0  0  0  0  0  0  0  0  0  0  0  0
  147.1010  141.9308  155.9218 H   0  0  0  0  0  0  0  0  0  0  0  0
  147.7298  143.3003  155.0169 H   0  0  0  0  0  0  0  0  0  0  0  0
  145.6046  141.6570  154.1977 H   0  0  0  0  0  0  0  0  0  0  0  0
  146.5493  142.6256  153.0791 H   0  0  0  0  0  0  0  0  0  0  0  0
  146.4554  139.7702  153.0792 H   0  0  0  0  0  0  0  0  0  0  0  0
  147.5792  140.7873  152.1942 H   0  0  0  0  0  0  0  0  0  0  0  0
  147.9397  139.4803  154.9082 H   0  0  0  0  0  0  0  0  0  0  0  0
  149.1877  139.5230  152.5094 H   0  0  0  0  0  0  0  0  0  0  0  0
  152.6723  141.5208  159.7661 H   0  0  0  0  0  0  0  0  0  0  0  0
  153.1751  143.8976  160.3757 H   0  0  0  0  0  0  0  0  0  0  0  0
  152.4637  145.7251  158.8067 H   0  0  0  0  0  0  0  0  0  0  0  0
  151.2715  145.0901  156.6934 H   0  0  0  0  0  0  0  0  0  0  0  0
  1  2  2  0  0  0  0
  2  3  1  0  0  0  0
  2 10  1  0  0  0  0
  3  4  1  0  0  0  0
  4  8  1  0  0  0  0
  4  5  1  0  0  0  0
  4 19  1  0  0  0  0
  5  6  1  0  0  0  0
  5 20  1  0  0  0  0
  5 21  1  0  0  0  0
  6  7  1  0  0  0  0
  6 22  1  0  0  0  0
  6 23  1  0  0  0  0
  7  8  1  0  0  0  0
  7 24  1  0  0  0  0
  7 25  1  0  0  0  0
  8  9  1  0  0  0  0
  8 26  1  0  0  0  0
  9 27  1  0  0  0  0
 10 11  1  0  0  0  0
 10 12  1  0  0  0  0
 10 13  1  0  0  0  0
 13 18  1  0  0  0  0
 13 14  2  0  0  0  0
 14 15  1  0  0  0  0
 14 28  1  0  0  0  0
 15 16  2  0  0  0  0
 15 29  1  0  0  0  0
 16 17  1  0  0  0  0
 16 30  1  0  0  0  0
 17 18  2  0  0  0  0
 17 31  1  0  0  0  0
M  CHG  1   3  -1
M  END
> <s_m_source_file>
AV-unprocessed.smi

> <i_m_source_file_index>
2807

> <i_lp_mmshare_version>
43012

> <i_f3d_flags>
0

> <s_epik_input>
bjFbY0hdW2NIXVtjSF1bY0hdYzFDKEYpKEYpQyg9TylbTkhdW0NAQEhdMltDSDJdW0NIMl1bQ0gyXVtDQEhdMltPSF0=

> <s_epik_cmdline>
J2VwaWtfcHl0aG9uJywgJy1waCcsICc3LjAnLCAnLXRuJywgJzgnLCAnLW1hJywgJzIwMCcsICctbWV0YWxfYmluZGluZycsICctaW1hZScsICc8aW5maWxlLm1hZT4nLCAnLW9tYWUnLCAnPG91dGZpbGUubWFlPic=

> <r_lp_tautomer_probability>
1

> <r_epik_Ionization_Penalty>
5.72231

> <r_epik_Ionization_Penalty_Charging>
5.72231

> <r_epik_Ionization_Penalty_Neutral>
5.49816e-06

> <r_epik_State_Penalty>
5.72227

> <r_epik_Charging_Adjusted_Penalty>
11.4446

> <i_epik_Tot_Q>
-1

> <i_epik_Tot_abs_Q>
1

> <r_epik_Metal_State_Penalty>
1.70075

> <b_epik_Metal_Only>
1

> <s_lp_Force_Field>
OPLS_2005

> <r_lp_Energy>
34.3832

> <b_lp_Chiralities_Consistent>
1

> <s_lp_Variant>
AV-unprocessed.smi:2807-5

> <Gold.Version>
5.8.1

> <Gold.Id.Protein>
6NUR|6NUR_protein|mol2

> <Gold.PLP.Fitness>
46.2022

> <Gold.PLP.PLP>
-38.5918

> <Gold.PLP.part.hbond>
-1.5990

> <Gold.PLP.part.metal>
0.0000

> <Gold.PLP.part.buried>
-1.1292

> <Gold.PLP.part.nonpolar>
-35.9923

> <Gold.PLP.part.repulsive>
0.2286

> <Gold.PLP.ligand.clash>
0.0000

> <Gold.PLP.ligand.torsion>
0.2700

> <Gold.PLP.Chemscore.Hbond>
2.0000

> <Gold.PLP.Chemscore.CHOScore>
0.6999

> <Gold.PLP.Chemscore.Metal>
0.0000

> <Gold.Chemscore.Hbonds>
donor molecule, donor type, donor heavy atom, donor atom, acceptor molecule, acceptor atom, score
      L1  H     9    27       P1  7957  0.92
      P1  H  7989  7998       L1     1  1.00
      L1  C    17    31       P1  8028  0.64

> <Gold.PLP.Chemscore.Internal.Correction>
0.0508

> <Gold.Rescore>
     Score         DG    S(hbond)    S(metal)    S(lipo)     H(rot)  DE(clash)    DE(int)     intcor
     16.07     -18.08       1.91        0.00      96.92       2.00       0.18       1.83       ----

> <Gold.Chemscore.Fitness>
16.0654

> <Gold.Chemscore.DG>
-18.0752

> <Gold.Chemscore.ZeroCoef>
-5.4800

> <Gold.Chemscore.Hbond>
1.9061

> <Gold.Chemscore.Metal>
0.0000

> <Gold.Chemscore.Lipo>
96.9193

> <Gold.Chemscore.Internal_Hbond>
0.0000

> <Gold.Chemscore.DEClash>
0.1827

> <Gold.Chemscore.DEInternal>
1.8271

> <Gold.Chemscore.Rot>
1.9964

> <Gold.Chemscore.Internal.Correction>
   9.000000E+99

> <Gold.Chemscore.Hbonds>
donor molecule, donor type, donor heavy atom, donor atom, acceptor molecule, acceptor atom, score
      L1  H     9    27       P1  7957  0.84
      P1  H  7989  7998       L1     1  0.96

> <Gold.Chemscore.Hbond.Weighted>
-6.3665

> <Gold.Chemscore.Metal.Weighted>
-0.0000

> <Gold.Chemscore.Lipo.Weighted>
-11.3396

> <Gold.Chemscore.Internal_Hbond.Weighted>
0.0000

> <Gold.Chemscore.DEClash.Weighted>
0.1827

> <Gold.Chemscore.DEInternal.Weighted>
1.8271

> <Gold.Chemscore.Rot.Weighted>
5.1108

> <Gold.Chemscore.Internal.Correction.Weighted>
   9.000000E+99

> <Gold.Protein.RotatedTorsions>
[ 6907 6896 6895 6894 ] final -165.66 input  -60.11 | X-H torsion
[ 7974 7965 7964 7962 ] final -128.66 input  175.53 | X-H torsion
[ 8008 7997 7996 7995 ] final  -39.88 input   59.86 | X-H torsion
[ 10167 10162 10161 10158 ] final   26.02 input  -65.29 | X-H torsion
[ 10718 10713 10712 10709 ] final -133.85 input   66.30 | X-H torsion
[ 10763 10752 10751 10750 ] final   17.19 input  -60.55 | X-H torsion
[ 11005 11000 10999 10996 ] final -159.02 input  -57.11 | X-H torsion

> <Gold.Protein.ActiveResidues>
 VAL166  LYS551  ARG553  GLY616  TRP617  ASP618  TYR619  PRO620  LYS621  CYS622 
 ASP623  PHE694  ASN695  SER759  ASP760  ASP761  ALA762  ILE779  LEU786  VAL792 
 PHE793  MET794  SER795  GLU796  ALA797  LYS798  CYS799  TRP800  GLU811  SER814 

> <Gold.Protein.RotatedAtoms>
  151.4312  133.3670  159.2768 H   0  0  0  0  0  0  0  0  0  0  0  0  # atno 6907 bound_to 6896
  150.9224  134.8643  159.7508 H   0  0  0  0  0  0  0  0  0  0  0  0  # atno 6908 bound_to 6896
  152.4988  134.4250  159.9545 H   0  0  0  0  0  0  0  0  0  0  0  0  # atno 6909 bound_to 6896
  144.9649  140.7485  143.4706 H   0  0  0  0  0  0  0  0  0  0  0  0  # atno 7974 bound_to 7965
  154.4018  140.1540  156.2936 H   0  0  0  0  0  0  0  0  0  0  0  0  # atno 8008 bound_to 7997
  155.8763  140.3446  155.5835 H   0  0  0  0  0  0  0  0  0  0  0  0  # atno 8009 bound_to 7997
  155.7717  140.0831  157.2095 H   0  0  0  0  0  0  0  0  0  0  0  0  # atno 8010 bound_to 7997
  140.5057  144.0242  150.6351 H   0  0  0  0  0  0  0  0  0  0  0  0  # atno 10167 bound_to 10162
  156.2492  130.7143  151.1035 H   0  0  0  0  0  0  0  0  0  0  0  0  # atno 10718 bound_to 10713
  153.1361  135.6750  153.9100 H   0  0  0  0  0  0  0  0  0  0  0  0  # atno 10763 bound_to 10752
  153.8571  135.3086  155.3437 H   0  0  0  0  0  0  0  0  0  0  0  0  # atno 10764 bound_to 10752
  154.7749  135.4920  153.9806 H   0  0  0  0  0  0  0  0  0  0  0  0  # atno 10765 bound_to 10752
  140.6472  134.4489  157.5234 H   0  0  0  0  0  0  0  0  0  0  0  0  # atno 11005 bound_to 11000
  145.2645  139.1979  143.4874 LP  0  0  0  0  0  0  0  0  0  0  0  0  # atno 17320 bound_to 7965
  146.3364  140.2580  142.8601 LP  0  0  0  0  0  0  0  0  0  0  0  0  # atno 17321 bound_to 7965
  140.3551  143.2940  152.0445 LP  0  0  0  0  0  0  0  0  0  0  0  0  # atno 17342 bound_to 10162
  139.4883  144.6345  151.7003 LP  0  0  0  0  0  0  0  0  0  0  0  0  # atno 17343 bound_to 10162
  157.7207  131.0683  150.6145 LP  0  0  0  0  0  0  0  0  0  0  0  0  # atno 17370 bound_to 10713
  156.6224  130.4409  149.5817 LP  0  0  0  0  0  0  0  0  0  0  0  0  # atno 17371 bound_to 10713
  139.9059  134.8451  156.1710 LP  0  0  0  0  0  0  0  0  0  0  0  0  # atno 17394 bound_to 11000
  141.0563  133.6863  156.1867 LP  0  0  0  0  0  0  0  0  0  0  0  0  # atno 17395 bound_to 11000

$$$$
