AV-unprocessed.smi:1672|AV-procd|sdf|6706|dock4
  -GOLD-   22720 7443D 1   1.00000     0.00000
 Structure written by MMmdl.
 49 51  0  0  0  0  0  0  0  0  3 V2000
  156.4415  139.0163  163.9874 C   0  0  0  0  0  0  0  0  0  0  0  0
  155.1839  138.9608  163.1085 C   0  0  2  0  0  0  0  0  0  0  0  0
  154.9094  137.5367  162.5967 C   0  0  0  0  0  0  0  0  0  0  0  0
  153.6684  137.4978  161.6889 C   0  0  0  0  0  0  0  0  0  0  0  0
  153.8091  138.4388  160.5483 N   0  3  1  0  0  0  0  0  0  0  0  0
  152.6940  138.3171  159.5738 C   0  0  0  0  0  0  0  0  0  0  0  0
  152.7134  139.4310  158.5082 C   0  0  1  0  0  0  0  0  0  0  0  0
  153.4780  138.9859  157.4057 O   0  0  0  0  0  0  0  0  0  0  0  0
  151.2915  139.7872  158.0299 C   0  0  0  0  0  0  0  0  0  0  0  0
  151.1626  141.1883  157.5953 N   0  0  0  0  0  0  0  0  0  0  0  0
  150.6142  141.7265  156.4655 C   0  0  0  0  0  0  0  0  0  0  0  0
  149.9831  140.9955  155.3259 C   0  0  0  0  0  0  0  0  0  0  0  0
  150.8802  140.1094  154.6946 O   0  0  0  0  0  0  0  0  0  0  0  0
  150.7555  143.0793  156.5542 N   0  3  0  0  0  0  0  0  0  0  0  0
  151.3895  143.4124  157.7513 C   0  0  0  0  0  0  0  0  0  0  0  0
  151.7442  144.6490  158.2814 C   0  0  0  0  0  0  0  0  0  0  0  0
  152.3819  144.6386  159.5393 C   0  0  0  0  0  0  0  0  0  0  0  0
  152.6441  143.4316  160.2197 C   0  0  0  0  0  0  0  0  0  0  0  0
  152.2807  142.1838  159.6713 C   0  0  0  0  0  0  0  0  0  0  0  0
  151.6509  142.2030  158.4270 C   0  0  0  0  0  0  0  0  0  0  0  0
  154.0339  139.8320  161.0176 C   0  0  0  0  0  0  0  0  0  0  0  0
  155.2835  139.9197  161.9098 C   0  0  0  0  0  0  0  0  0  0  0  0
  157.3300  138.7156  163.4310 H   0  0  0  0  0  0  0  0  0  0  0  0
  156.3482  138.3530  164.8478 H   0  0  0  0  0  0  0  0  0  0  0  0
  156.6124  140.0246  164.3663 H   0  0  0  0  0  0  0  0  0  0  0  0
  154.3365  139.2706  163.7220 H   0  0  0  0  0  0  0  0  0  0  0  0
  155.7751  137.1675  162.0446 H   0  0  0  0  0  0  0  0  0  0  0  0
  154.7685  136.8578  163.4386 H   0  0  0  0  0  0  0  0  0  0  0  0
  153.5344  136.4818  161.3154 H   0  0  0  0  0  0  0  0  0  0  0  0
  152.7729  137.7467  162.2608 H   0  0  0  0  0  0  0  0  0  0  0  0
  152.7535  137.3543  159.0634 H   0  0  0  0  0  0  0  0  0  0  0  0
  151.7447  138.3163  160.1116 H   0  0  0  0  0  0  0  0  0  0  0  0
  153.1847  140.3291  158.9050 H   0  0  0  0  0  0  0  0  0  0  0  0
  153.8292  138.1311  157.6063 H   0  0  0  0  0  0  0  0  0  0  0  0
  151.0006  139.1470  157.1969 H   0  0  0  0  0  0  0  0  0  0  0  0
  150.5608  139.6070  158.8192 H   0  0  0  0  0  0  0  0  0  0  0  0
  149.1132  140.4407  155.6763 H   0  0  0  0  0  0  0  0  0  0  0  0
  149.6240  141.7160  154.5905 H   0  0  0  0  0  0  0  0  0  0  0  0
  151.3777  139.6592  155.3608 H   0  0  0  0  0  0  0  0  0  0  0  0
  151.5433  145.5751  157.7629 H   0  0  0  0  0  0  0  0  0  0  0  0
  152.6743  145.5752  159.9917 H   0  0  0  0  0  0  0  0  0  0  0  0
  153.1340  143.4639  161.1824 H   0  0  0  0  0  0  0  0  0  0  0  0
  152.4855  141.2660  160.2020 H   0  0  0  0  0  0  0  0  0  0  0  0
  154.1596  140.5048  160.1704 H   0  0  0  0  0  0  0  0  0  0  0  0
  153.1569  140.1787  161.5664 H   0  0  0  0  0  0  0  0  0  0  0  0
  155.4114  140.9442  162.2612 H   0  0  0  0  0  0  0  0  0  0  0  0
  156.1694  139.6838  161.3181 H   0  0  0  0  0  0  0  0  0  0  0  0
  154.6432  138.1537  160.0540 H   0  0  0  0  0  0  0  0  0  0  0  0
  150.4388  143.7264  155.8432 H   0  0  0  0  0  0  0  0  0  0  0  0
  1  2  1  0  0  0  0
  1 23  1  0  0  0  0
  1 24  1  0  0  0  0
  1 25  1  0  0  0  0
  2 22  1  0  0  0  0
  2  3  1  0  0  0  0
  2 26  1  0  0  0  0
  3  4  1  0  0  0  0
  3 27  1  0  0  0  0
  3 28  1  0  0  0  0
  4  5  1  0  0  0  0
  4 29  1  0  0  0  0
  4 30  1  0  0  0  0
  5  6  1  0  0  0  0
  5 21  1  0  0  0  0
  5 48  1  0  0  0  0
  6  7  1  0  0  0  0
  6 31  1  0  0  0  0
  6 32  1  0  0  0  0
  7  8  1  0  0  0  0
  7  9  1  0  0  0  0
  7 33  1  0  0  0  0
  8 34  1  0  0  0  0
  9 10  1  0  0  0  0
  9 35  1  0  0  0  0
  9 36  1  0  0  0  0
 10 20  1  0  0  0  0
 10 11  1  0  0  0  0
 11 12  1  0  0  0  0
 11 14  2  0  0  0  0
 12 13  1  0  0  0  0
 12 37  1  0  0  0  0
 12 38  1  0  0  0  0
 13 39  1  0  0  0  0
 14 15  1  0  0  0  0
 14 49  1  0  0  0  0
 15 20  2  0  0  0  0
 15 16  1  0  0  0  0
 16 17  2  0  0  0  0
 16 40  1  0  0  0  0
 17 18  1  0  0  0  0
 17 41  1  0  0  0  0
 18 19  2  0  0  0  0
 18 42  1  0  0  0  0
 19 20  1  0  0  0  0
 19 43  1  0  0  0  0
 21 22  1  0  0  0  0
 21 44  1  0  0  0  0
 21 45  1  0  0  0  0
 22 46  1  0  0  0  0
 22 47  1  0  0  0  0
M  CHG  1   5   1
M  CHG  1  14   1
M  END
> <s_m_source_file>
AV-unprocessed.smi

> <i_m_source_file_index>
1672

> <i_lp_mmshare_version>
43012

> <i_f3d_flags>
0

> <s_epik_input>
W0NIM11bQ0hdMVtDSDJdW0NIMl1OKFtDSDJdW0NIMl0xKVtDSDJdW0NASF0oW09IXSlbQ0gyXW4oYyhuMilbQ0gyXVtPSF0pYyhjMjMpW2NIXVtjSF1bY0hdW2NIXTM=

> <s_epik_cmdline>
J2VwaWtfcHl0aG9uJywgJy1waCcsICc3LjAnLCAnLXRuJywgJzgnLCAnLW1hJywgJzIwMCcsICctbWV0YWxfYmluZGluZycsICctaW1hZScsICc8aW5maWxlLm1hZT4nLCAnLW9tYWUnLCAnPG91dGZpbGUubWFlPic=

> <r_epik_Ionization_Penalty>
1.51642

> <r_epik_Ionization_Penalty_Charging>
1.51557

> <r_epik_Ionization_Penalty_Neutral>
0.000856474

> <r_epik_State_Penalty>
1.6048

> <r_epik_Charging_Adjusted_Penalty>
3.12037

> <i_epik_Tot_Q>
2

> <i_epik_Tot_abs_Q>
2

> <r_epik_Metal_State_Penalty>
5.65673

> <b_epik_Metal_Only>
0

> <s_lp_Force_Field>
OPLS_2005

> <r_lp_Energy>
28.534

> <b_lp_Chiralities_Consistent>
1

> <s_lp_Variant>
AV-unprocessed.smi:1672-6

> <Gold.Version>
5.8.1

> <Gold.Id.Protein>
6NUR|6NUR_protein|mol2

> <Gold.PLP.Fitness>
55.7444

> <Gold.PLP.PLP>
-46.8191

> <Gold.PLP.part.hbond>
-3.0000

> <Gold.PLP.part.metal>
0.0000

> <Gold.PLP.part.buried>
-7.2249

> <Gold.PLP.part.nonpolar>
-38.2765

> <Gold.PLP.part.repulsive>
0.0768

> <Gold.PLP.ligand.clash>
0.0000

> <Gold.PLP.ligand.torsion>
0.9542

> <Gold.PLP.Chemscore.Hbond>
3.6000

> <Gold.PLP.Chemscore.CHOScore>
0.0000

> <Gold.PLP.Chemscore.Metal>
0.0000

> <Gold.Chemscore.Hbonds>
donor molecule, donor type, donor heavy atom, donor atom, acceptor molecule, acceptor atom, score
      L1  H    14    49       P1  8028  1.34
      P1  H  7989  7998       L1    13  1.00
      P1  H  7997  8008       L1     8  1.00

> <Gold.PLP.Chemscore.Internal.Correction>
0.0336

> <Gold.Rescore>
     Score         DG    S(hbond)    S(metal)    S(lipo)     H(rot)  DE(clash)    DE(int)     intcor
     19.87     -21.73       2.81        0.00     123.43       2.96       0.00       1.86       ----

> <Gold.Chemscore.Fitness>
19.8717

> <Gold.Chemscore.DG>
-21.7339

> <Gold.Chemscore.ZeroCoef>
-5.4800

> <Gold.Chemscore.Hbond>
2.8081

> <Gold.Chemscore.Metal>
0.0000

> <Gold.Chemscore.Lipo>
123.4269

> <Gold.Chemscore.Internal_Hbond>
0.0000

> <Gold.Chemscore.DEClash>
0.0000

> <Gold.Chemscore.DEInternal>
1.8622

> <Gold.Chemscore.Rot>
2.9555

> <Gold.Chemscore.Internal.Correction>
   9.000000E+99

> <Gold.Chemscore.Hbonds>
donor molecule, donor type, donor heavy atom, donor atom, acceptor molecule, acceptor atom, score
      L1  H    14    49       P1  8028  0.66
      P1  H  7989  7998       L1    13  0.67
      P1  H  7997  8008       L1     8  0.76

> <Gold.Chemscore.Hbond.Weighted>
-9.3789

> <Gold.Chemscore.Metal.Weighted>
-0.0000

> <Gold.Chemscore.Lipo.Weighted>
-14.4410

> <Gold.Chemscore.Internal_Hbond.Weighted>
0.0000

> <Gold.Chemscore.DEClash.Weighted>
0.0000

> <Gold.Chemscore.DEInternal.Weighted>
1.8622

> <Gold.Chemscore.Rot.Weighted>
7.5660

> <Gold.Chemscore.Internal.Correction.Weighted>
   9.000000E+99

> <Gold.Protein.RotatedTorsions>
[ 6907 6896 6895 6894 ] final  156.63 input  -60.11 | X-H torsion
[ 7974 7965 7964 7962 ] final -162.70 input  175.53 | X-H torsion
[ 8008 7997 7996 7995 ] final  -78.39 input   59.86 | X-H torsion
[ 10167 10162 10161 10158 ] final   22.55 input  -65.29 | X-H torsion
[ 10718 10713 10712 10709 ] final    2.15 input   66.30 | X-H torsion
[ 10763 10752 10751 10750 ] final   21.76 input  -60.55 | X-H torsion
[ 11005 11000 10999 10996 ] final  178.74 input  -57.11 | X-H torsion

> <Gold.Protein.ActiveResidues>
 VAL166  LYS551  ARG553  GLY616  TRP617  ASP618  TYR619  PRO620  LYS621  CYS622 
 ASP623  PHE694  ASN695  SER759  ASP760  ASP761  ALA762  ILE779  LEU786  VAL792 
 PHE793  MET794  SER795  GLU796  ALA797  LYS798  CYS799  TRP800  GLU811  SER814 

> <Gold.Protein.RotatedAtoms>
  152.0268  133.3921  159.4280 H   0  0  0  0  0  0  0  0  0  0  0  0  # atno 6907 bound_to 6896
  150.6885  134.3565  159.4941 H   0  0  0  0  0  0  0  0  0  0  0  0  # atno 6908 bound_to 6896
  152.1346  134.9109  160.0607 H   0  0  0  0  0  0  0  0  0  0  0  0  # atno 6909 bound_to 6896
  144.7349  140.3215  143.6170 H   0  0  0  0  0  0  0  0  0  0  0  0  # atno 7974 bound_to 7965
  154.5685  140.0695  156.8928 H   0  0  0  0  0  0  0  0  0  0  0  0  # atno 8008 bound_to 7997
  155.2679  140.3363  155.4249 H   0  0  0  0  0  0  0  0  0  0  0  0  # atno 8009 bound_to 7997
  156.2099  140.1755  156.7703 H   0  0  0  0  0  0  0  0  0  0  0  0  # atno 8010 bound_to 7997
  140.5339  143.9793  150.6481 H   0  0  0  0  0  0  0  0  0  0  0  0  # atno 10167 bound_to 10162
  156.8587  130.5579  149.5664 H   0  0  0  0  0  0  0  0  0  0  0  0  # atno 10718 bound_to 10713
  153.0969  135.6662  153.9746 H   0  0  0  0  0  0  0  0  0  0  0  0  # atno 10763 bound_to 10752
  153.9327  135.3002  155.3446 H   0  0  0  0  0  0  0  0  0  0  0  0  # atno 10764 bound_to 10752
  154.7388  135.5089  153.9162 H   0  0  0  0  0  0  0  0  0  0  0  0  # atno 10765 bound_to 10752
  140.3984  134.6799  157.4548 H   0  0  0  0  0  0  0  0  0  0  0  0  # atno 11005 bound_to 11000
  145.7564  139.1810  143.2292 LP  0  0  0  0  0  0  0  0  0  0  0  0  # atno 17320 bound_to 7965
  146.1021  140.7532  142.9544 LP  0  0  0  0  0  0  0  0  0  0  0  0  # atno 17321 bound_to 7965
  140.3176  143.3158  152.0817 LP  0  0  0  0  0  0  0  0  0  0  0  0  # atno 17342 bound_to 10162
  139.4964  144.6595  151.6496 LP  0  0  0  0  0  0  0  0  0  0  0  0  # atno 17343 bound_to 10162
  156.0788  130.5804  150.9524 LP  0  0  0  0  0  0  0  0  0  0  0  0  # atno 17370 bound_to 10713
  157.6262  131.0925  150.8529 LP  0  0  0  0  0  0  0  0  0  0  0  0  # atno 17371 bound_to 10713
  140.0354  134.6344  155.9050 LP  0  0  0  0  0  0  0  0  0  0  0  0  # atno 17394 bound_to 11000
  141.1865  133.6557  156.5244 LP  0  0  0  0  0  0  0  0  0  0  0  0  # atno 17395 bound_to 11000

$$$$
