AV-unprocessed.smi:199|AV-procd|sdf|1570|dock1
  -GOLD-   2262019453D 1   1.00000     0.00000
 Structure written by MMmdl.
 51 55  0  0  0  0  0  0  0  0  1 V2000
  149.5875  141.0486  154.3661 C   0  0  0  0  0  0  0  0  0  0  0  0
  150.1740  139.9043  155.2091 C   0  0  2  0  0  0  0  0  0  0  0  0
  151.6004  139.9427  155.1842 O   0  0  0  0  0  0  0  0  0  0  0  0
  152.1124  138.7183  154.6786 C   0  0  0  0  0  0  0  0  0  0  0  0
  151.0471  137.6918  155.0385 C   0  0  0  0  0  0  0  0  0  0  0  0
  149.7555  138.4669  154.8166 C   0  0  2  0  0  0  0  0  0  0  0  0
  149.4251  138.3941  153.4387 O   0  0  0  0  0  0  0  0  0  0  0  0
  148.5534  137.9390  155.6357 C   0  0  0  0  0  0  0  0  0  0  0  0
  147.6254  137.1379  154.8521 N   0  0  0  0  0  0  0  0  0  0  0  0
  146.4578  137.5708  154.2677 C   0  0  0  0  0  0  0  0  0  0  0  0
  145.7932  136.6583  153.6145 N   0  0  0  0  0  0  0  0  0  0  0  0
  146.5641  135.5081  153.7423 C   0  0  0  0  0  0  0  0  0  0  0  0
  146.4424  134.1638  153.2805 C   0  0  0  0  0  0  0  0  0  0  0  0
  145.4104  133.7026  152.5196 N   0  0  0  0  0  0  0  0  0  0  0  0
  144.2174  134.5107  152.3088 C   0  0  1  0  0  0  0  0  0  0  0  0
  144.6781  135.6046  151.3257 C   0  0  0  0  0  0  0  0  0  0  0  0
  145.6877  134.8275  150.4675 C   0  0  0  0  0  0  0  0  0  0  0  0
  145.6076  133.4197  151.1031 C   0  0  2  0  0  0  0  0  0  0  0  0
  144.2819  132.7079  150.7487 C   0  0  2  0  0  0  0  0  0  0  0  0
  143.9306  132.5608  149.2561 C   0  0  0  0  0  0  0  0  0  0  0  0
  142.7152  131.8591  149.1045 O   0  0  0  0  0  0  0  0  0  0  0  0
  143.2796  133.5400  151.5677 C   0  0  0  0  0  0  0  0  0  0  0  0
  147.4163  133.2909  153.6536 N   0  0  0  0  0  0  0  0  0  0  0  0
  148.4499  133.6989  154.3942 C   0  0  0  0  0  0  0  0  0  0  0  0
  148.7012  134.9170  154.8740 N   0  0  0  0  0  0  0  0  0  0  0  0
  147.7197  135.7963  154.5257 C   0  0  0  0  0  0  0  0  0  0  0  0
  148.4977  141.0177  154.3661 H   0  0  0  0  0  0  0  0  0  0  0  0
  149.9282  141.0016  153.3314 H   0  0  0  0  0  0  0  0  0  0  0  0
  149.8920  142.0159  154.7658 H   0  0  0  0  0  0  0  0  0  0  0  0
  149.9001  140.0795  156.2502 H   0  0  0  0  0  0  0  0  0  0  0  0
  152.2232  138.7964  153.5962 H   0  0  0  0  0  0  0  0  0  0  0  0
  153.0871  138.4833  155.1061 H   0  0  0  0  0  0  0  0  0  0  0  0
  151.1187  136.7753  154.4508 H   0  0  0  0  0  0  0  0  0  0  0  0
  151.1499  137.4242  156.0911 H   0  0  0  0  0  0  0  0  0  0  0  0
  149.3352  137.4846  153.1981 H   0  0  0  0  0  0  0  0  0  0  0  0
  148.9059  137.3217  156.4630 H   0  0  0  0  0  0  0  0  0  0  0  0
  148.0056  138.7676  156.0871 H   0  0  0  0  0  0  0  0  0  0  0  0
  146.1087  138.5903  154.3459 H   0  0  0  0  0  0  0  0  0  0  0  0
  143.7486  134.9101  153.2059 H   0  0  0  0  0  0  0  0  0  0  0  0
  143.8565  136.0210  150.7419 H   0  0  0  0  0  0  0  0  0  0  0  0
  145.1694  136.4241  151.8519 H   0  0  0  0  0  0  0  0  0  0  0  0
  145.4576  134.8476  149.4036 H   0  0  0  0  0  0  0  0  0  0  0  0
  146.6865  135.2491  150.5875 H   0  0  0  0  0  0  0  0  0  0  0  0
  146.4762  132.7981  150.8817 H   0  0  0  0  0  0  0  0  0  0  0  0
  144.3186  131.7059  151.1809 H   0  0  0  0  0  0  0  0  0  0  0  0
  143.8144  133.5475  148.8068 H   0  0  0  0  0  0  0  0  0  0  0  0
  144.7176  132.0576  148.6959 H   0  0  0  0  0  0  0  0  0  0  0  0
  142.0017  132.4748  149.1754 H   0  0  0  0  0  0  0  0  0  0  0  0
  142.7394  132.9036  152.2698 H   0  0  0  0  0  0  0  0  0  0  0  0
  142.5441  134.0614  150.9535 H   0  0  0  0  0  0  0  0  0  0  0  0
  149.1794  132.9403  154.6370 H   0  0  0  0  0  0  0  0  0  0  0  0
  1  2  1  0  0  0  0
  1 27  1  0  0  0  0
  1 28  1  0  0  0  0
  1 29  1  0  0  0  0
  2  6  1  0  0  0  0
  2  3  1  0  0  0  0
  2 30  1  0  0  0  0
  3  4  1  0  0  0  0
  4  5  1  0  0  0  0
  4 31  1  0  0  0  0
  4 32  1  0  0  0  0
  5  6  1  0  0  0  0
  5 33  1  0  0  0  0
  5 34  1  0  0  0  0
  6  7  1  0  0  0  0
  6  8  1  0  0  0  0
  7 35  1  0  0  0  0
  8  9  1  0  0  0  0
  8 36  1  0  0  0  0
  8 37  1  0  0  0  0
  9 26  1  0  0  0  0
  9 10  1  0  0  0  0
 10 11  2  0  0  0  0
 10 38  1  0  0  0  0
 11 12  1  0  0  0  0
 12 26  2  0  0  0  0
 12 13  1  0  0  0  0
 13 14  1  0  0  0  0
 13 23  2  0  0  0  0
 14 18  1  0  0  0  0
 14 15  1  0  0  0  0
 15 22  1  0  0  0  0
 15 16  1  0  0  0  0
 15 39  1  0  0  0  0
 16 17  1  0  0  0  0
 16 40  1  0  0  0  0
 16 41  1  0  0  0  0
 17 18  1  0  0  0  0
 17 42  1  0  0  0  0
 17 43  1  0  0  0  0
 18 19  1  0  0  0  0
 18 44  1  0  0  0  0
 19 20  1  0  0  0  0
 19 22  1  0  0  0  0
 19 45  1  0  0  0  0
 20 21  1  0  0  0  0
 20 46  1  0  0  0  0
 20 47  1  0  0  0  0
 21 48  1  0  0  0  0
 22 49  1  0  0  0  0
 22 50  1  0  0  0  0
 23 24  1  0  0  0  0
 24 25  2  0  0  0  0
 24 51  1  0  0  0  0
 25 26  1  0  0  0  0
M  END
> <s_m_source_file>
AV-unprocessed.smi

> <i_m_source_file_index>
199

> <i_lp_mmshare_version>
43012

> <i_f3d_flags>
0

> <s_epik_input>
W0NIMl0xW0NIMl1PW0NAQEhdKFtDSDNdKVtDQEBdMShbT0hdKVtDSDJdbihbY0hdbjIpYyhjMjMpbltjSF1uYzNOKFtDQEBIXTQ1KVtDQEhdKFtDSDJdW0NIMl00KVtDQEhdKFtDSDJdNSlbQ0gyXVtPSF0=

> <s_epik_cmdline>
J2VwaWtfcHl0aG9uJywgJy1waCcsICc3LjAnLCAnLXRuJywgJzgnLCAnLW1hJywgJzIwMCcsICctbWV0YWxfYmluZGluZycsICctaW1hZScsICc8aW5maWxlLm1hZT4nLCAnLW9tYWUnLCAnPG91dGZpbGUubWFlPic=

> <r_lp_tautomer_probability>
1

> <r_epik_Ionization_Penalty>
0.00583903

> <r_epik_Ionization_Penalty_Charging>
0

> <r_epik_Ionization_Penalty_Neutral>
0.00583903

> <r_epik_State_Penalty>
-0

> <r_epik_Charging_Adjusted_Penalty>
0

> <i_epik_Tot_Q>
0

> <i_epik_Tot_abs_Q>
0

> <r_epik_Metal_State_Penalty>
-0

> <b_epik_Metal_Only>
0

> <s_lp_Force_Field>
OPLS_2005

> <r_lp_Energy>
84.2729

> <b_lp_Chiralities_Consistent>
1

> <s_lp_Variant>
AV-unprocessed.smi:199-11

> <Gold.Version>
5.8.1

> <Gold.Id.Protein>
6NUR|6NUR_protein|mol2

> <Gold.PLP.Fitness>
47.4342

> <Gold.PLP.PLP>
-39.9999

> <Gold.PLP.part.hbond>
-5.9029

> <Gold.PLP.part.metal>
0.0000

> <Gold.PLP.part.buried>
-2.0336

> <Gold.PLP.part.nonpolar>
-32.5567

> <Gold.PLP.part.repulsive>
0.4481

> <Gold.PLP.ligand.clash>
0.0000

> <Gold.PLP.ligand.torsion>
1.4805

> <Gold.PLP.Chemscore.Hbond>
3.4400

> <Gold.PLP.Chemscore.CHOScore>
0.0000

> <Gold.PLP.Chemscore.Metal>
0.0000

> <Gold.Chemscore.Hbonds>
donor molecule, donor type, donor heavy atom, donor atom, acceptor molecule, acceptor atom, score
      L1  H     7    35       P1  7948  0.94
      L1  H    21    48       P1 10186  0.57
      P1  H  7989  7998       L1     3  0.49
      P1  H 10785 10796       L1    21  1.00

> <Gold.PLP.Chemscore.Internal.Correction>
0.0752

> <Gold.Rescore>
     Score         DG    S(hbond)    S(metal)    S(lipo)     H(rot)  DE(clash)    DE(int)     intcor
      9.78     -15.85       2.45        0.00      85.78       3.07       2.32       3.74       ----

> <Gold.Chemscore.Fitness>
9.7827

> <Gold.Chemscore.DG>
-15.8481

> <Gold.Chemscore.ZeroCoef>
-5.4800

> <Gold.Chemscore.Hbond>
2.4545

> <Gold.Chemscore.Metal>
0.0000

> <Gold.Chemscore.Lipo>
85.7831

> <Gold.Chemscore.Internal_Hbond>
0.0000

> <Gold.Chemscore.DEClash>
2.3218

> <Gold.Chemscore.DEInternal>
3.7436

> <Gold.Chemscore.Rot>
3.0729

> <Gold.Chemscore.Internal.Correction>
   9.000000E+99

> <Gold.Chemscore.Hbonds>
donor molecule, donor type, donor heavy atom, donor atom, acceptor molecule, acceptor atom, score
      L1  H     7    35       P1  7948  0.88
      L1  H    21    48       P1 10186  0.58
      P1  H  7989  7998       L1     3  0.01
      P1  H 10785 10796       L1    21  0.55

> <Gold.Chemscore.Hbond.Weighted>
-8.1982

> <Gold.Chemscore.Metal.Weighted>
-0.0000

> <Gold.Chemscore.Lipo.Weighted>
-10.0366

> <Gold.Chemscore.Internal_Hbond.Weighted>
0.0000

> <Gold.Chemscore.DEClash.Weighted>
2.3218

> <Gold.Chemscore.DEInternal.Weighted>
3.7436

> <Gold.Chemscore.Rot.Weighted>
7.8667

> <Gold.Chemscore.Internal.Correction.Weighted>
   9.000000E+99

> <Gold.Protein.RotatedTorsions>
[ 6907 6896 6895 6894 ] final -124.62 input  -60.11 | X-H torsion
[ 7974 7965 7964 7962 ] final  -50.84 input  175.53 | X-H torsion
[ 8008 7997 7996 7995 ] final  114.58 input   59.86 | X-H torsion
[ 10167 10162 10161 10158 ] final   44.53 input  -65.29 | X-H torsion
[ 10718 10713 10712 10709 ] final   47.18 input   66.30 | X-H torsion
[ 10763 10752 10751 10750 ] final  109.58 input  -60.55 | X-H torsion
[ 11005 11000 10999 10996 ] final -163.06 input  -57.11 | X-H torsion

> <Gold.Protein.ActiveResidues>
 VAL166  LYS551  ARG553  GLY616  TRP617  ASP618  TYR619  PRO620  LYS621  CYS622 
 ASP623  PHE694  ASN695  SER759  ASP760  ASP761  ALA762  ILE779  LEU786  VAL792 
 PHE793  MET794  SER795  GLU796  ALA797  LYS798  CYS799  TRP800  GLU811  SER814 

> <Gold.Protein.RotatedAtoms>
  150.8786  133.7404  159.2938 H   0  0  0  0  0  0  0  0  0  0  0  0  # atno 6907 bound_to 6896
  151.4993  135.1059  159.9834 H   0  0  0  0  0  0  0  0  0  0  0  0  # atno 6908 bound_to 6896
  152.4744  133.8059  159.7033 H   0  0  0  0  0  0  0  0  0  0  0  0  # atno 6909 bound_to 6896
  145.9255  140.7796  142.9626 H   0  0  0  0  0  0  0  0  0  0  0  0  # atno 7974 bound_to 7965
  156.2330  140.2956  156.0238 H   0  0  0  0  0  0  0  0  0  0  0  0  # atno 8008 bound_to 7997
  155.2171  140.0414  157.2960 H   0  0  0  0  0  0  0  0  0  0  0  0  # atno 8009 bound_to 7997
  154.6029  140.2431  155.7777 H   0  0  0  0  0  0  0  0  0  0  0  0  # atno 8010 bound_to 7997
  140.3333  144.2561  150.6165 H   0  0  0  0  0  0  0  0  0  0  0  0  # atno 10167 bound_to 10162
  157.4559  130.8166  149.7835 H   0  0  0  0  0  0  0  0  0  0  0  0  # atno 10718 bound_to 10713
  153.4368  135.3775  155.2204 H   0  0  0  0  0  0  0  0  0  0  0  0  # atno 10763 bound_to 10752
  154.8752  135.3853  154.4201 H   0  0  0  0  0  0  0  0  0  0  0  0  # atno 10764 bound_to 10752
  153.4741  135.7087  153.6039 H   0  0  0  0  0  0  0  0  0  0  0  0  # atno 10765 bound_to 10752
  140.6023  134.4934  157.5206 H   0  0  0  0  0  0  0  0  0  0  0  0  # atno 11005 bound_to 11000
  144.6758  140.2044  143.7383 LP  0  0  0  0  0  0  0  0  0  0  0  0  # atno 17320 bound_to 7965
  145.8494  139.2168  143.1781 LP  0  0  0  0  0  0  0  0  0  0  0  0  # atno 17321 bound_to 7965
  140.5377  143.2230  151.8136 LP  0  0  0  0  0  0  0  0  0  0  0  0  # atno 17342 bound_to 10162
  139.4852  144.4640  151.9506 LP  0  0  0  0  0  0  0  0  0  0  0  0  # atno 17343 bound_to 10162
  156.0007  130.3882  150.2618 LP  0  0  0  0  0  0  0  0  0  0  0  0  # atno 17370 bound_to 10713
  157.0792  131.0139  151.3162 LP  0  0  0  0  0  0  0  0  0  0  0  0  # atno 17371 bound_to 10713
  139.9227  134.8117  156.1162 LP  0  0  0  0  0  0  0  0  0  0  0  0  # atno 17394 bound_to 11000
  141.0864  133.6732  156.2444 LP  0  0  0  0  0  0  0  0  0  0  0  0  # atno 17395 bound_to 11000

$$$$
