AV-unprocessed.smi:1897|AV-procd|sdf|7688|dock10
  -GOLD-   22720 9423D 1   1.00000     0.00000
 Structure written by MMmdl.
 39 41  0  0  0  0  0  0  0  0  2 V2000
  151.7315  140.3989  155.8713 C   0  0  0  0  0  0  0  0  0  0  0  0
  151.4835  138.9621  155.5624 C   0  0  0  0  0  0  0  0  0  0  0  0
  152.2926  137.9813  155.9806 N   0  0  0  0  0  0  0  0  0  0  0  0
  151.8612  136.7311  155.5631 N   0  0  0  0  0  0  0  0  0  0  0  0
  150.7274  136.8015  154.8501 C   0  0  0  0  0  0  0  0  0  0  0  0
  150.0697  135.6768  154.2722 N   0  0  0  0  0  0  0  0  0  0  0  0
  149.6718  134.5072  154.8155 C   0  0  0  0  0  0  0  0  0  0  0  0
  149.8574  134.2623  156.0060 O   0  0  0  0  0  0  0  0  0  0  0  0
  149.0693  133.6442  153.9803 N   0  0  0  0  0  0  0  0  0  0  0  0
  148.5006  132.3498  154.3480 C   0  0  2  0  0  0  0  0  0  0  0  0
  149.4895  131.1858  154.1407 C   0  0  0  0  0  0  0  0  0  0  0  0
  148.6554  130.0719  153.4992 C   0  0  0  0  0  0  0  0  0  0  0  0
  147.6696  130.8141  152.7052 N   0  3  1  0  0  0  0  0  0  0  0  0
  146.5260  130.0746  152.1334 C   0  0  0  0  0  0  0  0  0  0  0  0
  145.7409  131.0277  151.2072 C   0  0  0  0  0  0  0  0  0  0  0  0
  145.3571  132.3471  151.9147 C   0  0  0  0  0  0  0  0  0  0  0  0
  146.5749  133.0050  152.5987 C   0  0  0  0  0  0  0  0  0  0  0  0
  147.2530  131.9711  153.5163 C   0  0  2  0  0  0  0  0  0  0  0  0
  150.1071  138.4258  154.6066 S   0  0  0  0  0  0  0  0  0  0  0  0
  152.3002  140.4984  156.7964 H   0  0  0  0  0  0  0  0  0  0  0  0
  150.7852  140.9276  155.9867 H   0  0  0  0  0  0  0  0  0  0  0  0
  152.2955  140.8610  155.0608 H   0  0  0  0  0  0  0  0  0  0  0  0
  149.9588  135.7322  153.2700 H   0  0  0  0  0  0  0  0  0  0  0  0
  148.9674  133.9266  153.0157 H   0  0  0  0  0  0  0  0  0  0  0  0
  148.2180  132.3671  155.4027 H   0  0  0  0  0  0  0  0  0  0  0  0
  150.2834  131.4808  153.4523 H   0  0  0  0  0  0  0  0  0  0  0  0
  149.9634  130.8674  155.0698 H   0  0  0  0  0  0  0  0  0  0  0  0
  149.2528  129.3983  152.8839 H   0  0  0  0  0  0  0  0  0  0  0  0
  148.1452  129.4836  154.2638 H   0  0  0  0  0  0  0  0  0  0  0  0
  146.8887  129.2147  151.5689 H   0  0  0  0  0  0  0  0  0  0  0  0
  145.8879  129.6937  152.9321 H   0  0  0  0  0  0  0  0  0  0  0  0
  146.3514  131.2586  150.3330 H   0  0  0  0  0  0  0  0  0  0  0  0
  144.8457  130.5308  150.8317 H   0  0  0  0  0  0  0  0  0  0  0  0
  144.9091  133.0387  151.2007 H   0  0  0  0  0  0  0  0  0  0  0  0
  144.5914  132.1420  152.6641 H   0  0  0  0  0  0  0  0  0  0  0  0
  147.2765  133.3647  151.8446 H   0  0  0  0  0  0  0  0  0  0  0  0
  146.2516  133.8734  153.1734 H   0  0  0  0  0  0  0  0  0  0  0  0
  146.5055  131.6177  154.2302 H   0  0  0  0  0  0  0  0  0  0  0  0
  148.1851  131.1939  151.9241 H   0  0  0  0  0  0  0  0  0  0  0  0
  1  2  1  0  0  0  0
  1 20  1  0  0  0  0
  1 21  1  0  0  0  0
  1 22  1  0  0  0  0
  2 19  1  0  0  0  0
  2  3  2  0  0  0  0
  3  4  1  0  0  0  0
  4  5  2  0  0  0  0
  5  6  1  0  0  0  0
  5 19  1  0  0  0  0
  6  7  1  0  0  0  0
  6 23  1  0  0  0  0
  7  8  2  0  0  0  0
  7  9  1  0  0  0  0
  9 10  1  0  0  0  0
  9 24  1  0  0  0  0
 10 18  1  0  0  0  0
 10 11  1  0  0  0  0
 10 25  1  0  0  0  0
 11 12  1  0  0  0  0
 11 26  1  0  0  0  0
 11 27  1  0  0  0  0
 12 13  1  0  0  0  0
 12 28  1  0  0  0  0
 12 29  1  0  0  0  0
 13 18  1  0  0  0  0
 13 14  1  0  0  0  0
 13 39  1  0  0  0  0
 14 15  1  0  0  0  0
 14 30  1  0  0  0  0
 14 31  1  0  0  0  0
 15 16  1  0  0  0  0
 15 32  1  0  0  0  0
 15 33  1  0  0  0  0
 16 17  1  0  0  0  0
 16 34  1  0  0  0  0
 16 35  1  0  0  0  0
 17 18  1  0  0  0  0
 17 36  1  0  0  0  0
 17 37  1  0  0  0  0
 18 38  1  0  0  0  0
M  CHG  1  13   1
M  END
> <s_m_source_file>
AV-unprocessed.smi

> <i_m_source_file_index>
1897

> <i_lp_mmshare_version>
43012

> <i_f3d_flags>
0

> <s_epik_input>
W0NIM11jMW5uYyhzMSlbTkhdQyg9TylbTkhdW0NASF0oW0NIMl1bQ0gyXTIpW0NAQEhdKE4yMylbQ0gyXVtDSDJdW0NIMl1bQ0gyXTM=

> <s_epik_cmdline>
J2VwaWtfcHl0aG9uJywgJy1waCcsICc3LjAnLCAnLXRuJywgJzgnLCAnLW1hJywgJzIwMCcsICctbWV0YWxfYmluZGluZycsICctaW1hZScsICc8aW5maWxlLm1hZT4nLCAnLW9tYWUnLCAnPG91dGZpbGUubWFlPic=

> <r_lp_tautomer_probability>
1

> <r_epik_Ionization_Penalty>
0.00228891

> <r_epik_Ionization_Penalty_Charging>
0.00107044

> <r_epik_Ionization_Penalty_Neutral>
0.00121847

> <r_epik_State_Penalty>
-0

> <r_epik_Charging_Adjusted_Penalty>
0.00107044

> <i_epik_Tot_Q>
1

> <i_epik_Tot_abs_Q>
1

> <r_epik_Metal_State_Penalty>
0.304057

> <b_epik_Metal_Only>
0

> <s_lp_Force_Field>
OPLS_2005

> <r_lp_Energy>
42.5593

> <b_lp_Chiralities_Consistent>
1

> <s_lp_Variant>
AV-unprocessed.smi:1897-5

> <Gold.Version>
5.8.1

> <Gold.Id.Protein>
6NUR|6NUR_protein|mol2

> <Gold.PLP.Fitness>
36.3988

> <Gold.PLP.PLP>
-31.3451

> <Gold.PLP.part.hbond>
-4.1360

> <Gold.PLP.part.metal>
0.0000

> <Gold.PLP.part.buried>
-2.7613

> <Gold.PLP.part.nonpolar>
-24.9986

> <Gold.PLP.part.repulsive>
0.1392

> <Gold.PLP.ligand.clash>
0.0000

> <Gold.PLP.ligand.torsion>
0.8157

> <Gold.PLP.Chemscore.Hbond>
2.2280

> <Gold.PLP.Chemscore.CHOScore>
0.0000

> <Gold.PLP.Chemscore.Metal>
0.0000

> <Gold.Chemscore.Hbonds>
donor molecule, donor type, donor heavy atom, donor atom, acceptor molecule, acceptor atom, score
      L1  H     6    23       P1  7948  0.25
      L1  H    13    39       P1 10747  0.93
      P1  H 10752 10763       L1     4  1.00

> <Gold.PLP.Chemscore.Internal.Correction>
0.0011

> <Gold.Rescore>
     Score         DG    S(hbond)    S(metal)    S(lipo)     H(rot)  DE(clash)    DE(int)     intcor
     15.90     -16.77       1.75        0.00      68.27       1.00       0.02       0.85       ----

> <Gold.Chemscore.Fitness>
15.9022

> <Gold.Chemscore.DG>
-16.7686

> <Gold.Chemscore.ZeroCoef>
-5.4800

> <Gold.Chemscore.Hbond>
1.7548

> <Gold.Chemscore.Metal>
0.0000

> <Gold.Chemscore.Lipo>
68.2690

> <Gold.Chemscore.Internal_Hbond>
0.0000

> <Gold.Chemscore.DEClash>
0.0189

> <Gold.Chemscore.DEInternal>
0.8475

> <Gold.Chemscore.Rot>
1.0000

> <Gold.Chemscore.Internal.Correction>
   9.000000E+99

> <Gold.Chemscore.Hbonds>
donor molecule, donor type, donor heavy atom, donor atom, acceptor molecule, acceptor atom, score
      L1  H    13    39       P1 10747  0.90
      P1  H 10752 10763       L1     4  0.54

> <Gold.Chemscore.Hbond.Weighted>
-5.8611

> <Gold.Chemscore.Metal.Weighted>
-0.0000

> <Gold.Chemscore.Lipo.Weighted>
-7.9875

> <Gold.Chemscore.Internal_Hbond.Weighted>
0.0000

> <Gold.Chemscore.DEClash.Weighted>
0.0189

> <Gold.Chemscore.DEInternal.Weighted>
0.8475

> <Gold.Chemscore.Rot.Weighted>
2.5600

> <Gold.Chemscore.Internal.Correction.Weighted>
   9.000000E+99

> <Gold.Protein.RotatedTorsions>
[ 6907 6896 6895 6894 ] final  -18.22 input  -60.11 | X-H torsion
[ 7974 7965 7964 7962 ] final   20.02 input  175.53 | X-H torsion
[ 8008 7997 7996 7995 ] final -108.30 input   59.86 | X-H torsion
[ 10167 10162 10161 10158 ] final   47.32 input  -65.29 | X-H torsion
[ 10718 10713 10712 10709 ] final  -93.88 input   66.30 | X-H torsion
[ 10763 10752 10751 10750 ] final   62.56 input  -60.55 | X-H torsion
[ 11005 11000 10999 10996 ] final   84.70 input  -57.11 | X-H torsion

> <Gold.Protein.ActiveResidues>
 VAL166  LYS551  ARG553  GLY616  TRP617  ASP618  TYR619  PRO620  LYS621  CYS622 
 ASP623  PHE694  ASN695  SER759  ASP760  ASP761  ALA762  ILE779  LEU786  VAL792 
 PHE793  MET794  SER795  GLU796  ALA797  LYS798  CYS799  TRP800  GLU811  SER814 

> <Gold.Protein.RotatedAtoms>
  151.2815  135.0715  159.9170 H   0  0  0  0  0  0  0  0  0  0  0  0  # atno 6907 bound_to 6896
  152.5333  134.0026  159.7912 H   0  0  0  0  0  0  0  0  0  0  0  0  # atno 6908 bound_to 6896
  151.0281  133.5765  159.2694 H   0  0  0  0  0  0  0  0  0  0  0  0  # atno 6909 bound_to 6896
  146.2127  139.8229  142.8676 H   0  0  0  0  0  0  0  0  0  0  0  0  # atno 7974 bound_to 7965
  154.9422  140.0402  157.2102 H   0  0  0  0  0  0  0  0  0  0  0  0  # atno 8008 bound_to 7997
  154.8058  140.2859  155.5866 H   0  0  0  0  0  0  0  0  0  0  0  0  # atno 8009 bound_to 7997
  156.2966  140.2546  156.2936 H   0  0  0  0  0  0  0  0  0  0  0  0  # atno 8010 bound_to 7997
  140.3048  144.2891  150.6211 H   0  0  0  0  0  0  0  0  0  0  0  0  # atno 10167 bound_to 10162
  156.0019  130.5045  150.5843 H   0  0  0  0  0  0  0  0  0  0  0  0  # atno 10718 bound_to 10713
  152.9987  135.5460  154.6213 H   0  0  0  0  0  0  0  0  0  0  0  0  # atno 10763 bound_to 10752
  154.5512  135.2827  155.1009 H   0  0  0  0  0  0  0  0  0  0  0  0  # atno 10764 bound_to 10752
  154.2248  135.6444  153.5209 H   0  0  0  0  0  0  0  0  0  0  0  0  # atno 10765 bound_to 10752
  139.8992  134.8235  156.2481 H   0  0  0  0  0  0  0  0  0  0  0  0  # atno 11005 bound_to 11000
  145.3078  141.0211  143.3572 LP  0  0  0  0  0  0  0  0  0  0  0  0  # atno 17320 bound_to 7965
  144.8958  139.4714  143.6656 LP  0  0  0  0  0  0  0  0  0  0  0  0  # atno 17321 bound_to 7965
  140.5620  143.2191  151.7749 LP  0  0  0  0  0  0  0  0  0  0  0  0  # atno 17342 bound_to 10162
  139.4907  144.4336  151.9844 LP  0  0  0  0  0  0  0  0  0  0  0  0  # atno 17343 bound_to 10162
  157.3718  131.0767  151.1551 LP  0  0  0  0  0  0  0  0  0  0  0  0  # atno 17370 bound_to 10713
  157.2302  130.6521  149.5846 LP  0  0  0  0  0  0  0  0  0  0  0  0  # atno 17371 bound_to 10713
  141.0241  133.7024  156.1318 LP  0  0  0  0  0  0  0  0  0  0  0  0  # atno 17394 bound_to 11000
  140.7191  134.4378  157.5576 LP  0  0  0  0  0  0  0  0  0  0  0  0  # atno 17395 bound_to 11000

$$$$
