AV-unprocessed.smi:915|AV-procd|sdf|4156|dock4
  -GOLD-   22720 2 63D 1   1.00000     0.00000
 Structure written by MMmdl.
 33 34  0  0  0  0  0  0  0  0  2 V2000
  148.4362  141.3864  155.4867 C   0  0  0  0  0  0  0  0  0  0  0  0
  148.7029  140.3949  154.3484 C   0  0  0  0  0  0  0  0  0  0  0  0
  150.0089  139.6783  154.5108 C   0  0  0  0  0  0  0  0  0  0  0  0
  150.5294  138.7165  153.6844 C   0  0  0  0  0  0  0  0  0  0  0  0
  152.0727  138.1469  154.2525 S   0  0  0  0  0  0  0  0  0  0  0  0
  151.9683  139.2602  155.6182 C   0  0  0  0  0  0  0  0  0  0  0  0
  152.8974  139.3870  156.5795 N   0  5  0  0  0  0  0  0  0  0  0  0
  152.5285  139.7398  157.8319 C   0  0  0  0  0  0  0  0  0  0  0  0
  152.6491  139.0538  158.8496 O   0  0  0  0  0  0  0  0  0  0  0  0
  151.9809  140.9609  157.9101 N   0  0  0  0  0  0  0  0  0  0  0  0
  151.4752  141.5934  159.1246 C   0  0  0  0  0  0  0  0  0  0  0  0
  152.2487  142.8775  159.4786 C   0  0  2  0  0  0  0  0  0  0  0  0
  151.7689  143.5596  160.7681 C   0  0  0  0  0  0  0  0  0  0  0  0
  152.2362  145.0136  160.6973 C   0  0  0  0  0  0  0  0  0  0  0  0
  151.9025  145.5072  159.2886 C   0  0  0  0  0  0  0  0  0  0  0  0
  152.1409  144.1142  158.1552 S   0  0  0  0  0  0  0  0  0  0  0  0
  150.8328  139.9671  155.6020 N   0  0  0  0  0  0  0  0  0  0  0  0
  147.4802  141.8911  155.3467 H   0  0  0  0  0  0  0  0  0  0  0  0
  149.2129  142.1506  155.5335 H   0  0  0  0  0  0  0  0  0  0  0  0
  148.4077  140.8780  156.4509 H   0  0  0  0  0  0  0  0  0  0  0  0
  147.8853  139.6749  154.3014 H   0  0  0  0  0  0  0  0  0  0  0  0
  148.6867  140.9273  153.3966 H   0  0  0  0  0  0  0  0  0  0  0  0
  150.1012  138.3089  152.7814 H   0  0  0  0  0  0  0  0  0  0  0  0
  151.9043  141.4893  157.0536 H   0  0  0  0  0  0  0  0  0  0  0  0
  150.4117  141.8092  159.0123 H   0  0  0  0  0  0  0  0  0  0  0  0
  151.5577  140.8728  159.9386 H   0  0  0  0  0  0  0  0  0  0  0  0
  153.3087  142.6453  159.5900 H   0  0  0  0  0  0  0  0  0  0  0  0
  150.6795  143.5331  160.8220 H   0  0  0  0  0  0  0  0  0  0  0  0
  152.1494  143.0558  161.6573 H   0  0  0  0  0  0  0  0  0  0  0  0
  151.7689  145.6309  161.4649 H   0  0  0  0  0  0  0  0  0  0  0  0
  153.3145  145.0567  160.8562 H   0  0  0  0  0  0  0  0  0  0  0  0
  150.8570  145.8122  159.2369 H   0  0  0  0  0  0  0  0  0  0  0  0
  152.5142  146.3608  158.9955 H   0  0  0  0  0  0  0  0  0  0  0  0
  1  2  1  0  0  0  0
  1 18  1  0  0  0  0
  1 19  1  0  0  0  0
  1 20  1  0  0  0  0
  2  3  1  0  0  0  0
  2 21  1  0  0  0  0
  2 22  1  0  0  0  0
  3 17  1  0  0  0  0
  3  4  2  0  0  0  0
  4  5  1  0  0  0  0
  4 23  1  0  0  0  0
  5  6  1  0  0  0  0
  6  7  1  0  0  0  0
  6 17  2  0  0  0  0
  7  8  1  0  0  0  0
  8  9  2  0  0  0  0
  8 10  1  0  0  0  0
 10 11  1  0  0  0  0
 10 24  1  0  0  0  0
 11 12  1  0  0  0  0
 11 25  1  0  0  0  0
 11 26  1  0  0  0  0
 12 16  1  0  0  0  0
 12 13  1  0  0  0  0
 12 27  1  0  0  0  0
 13 14  1  0  0  0  0
 13 28  1  0  0  0  0
 13 29  1  0  0  0  0
 14 15  1  0  0  0  0
 14 30  1  0  0  0  0
 14 31  1  0  0  0  0
 15 16  1  0  0  0  0
 15 32  1  0  0  0  0
 15 33  1  0  0  0  0
M  CHG  1   7  -1
M  END
> <s_m_source_file>
AV-unprocessed.smi

> <i_m_source_file_index>
915

> <i_lp_mmshare_version>
43012

> <i_f3d_flags>
0

> <s_epik_input>
W0NIM11bQ0gyXWMxW2NIXXNjKG4xKVtOSF1DKD1PKVtOSF1bQ0gyXVtDQEBIXTJbQ0gyXVtDSDJdW0NIMl1TMg==

> <s_epik_cmdline>
J2VwaWtfcHl0aG9uJywgJy1waCcsICc3LjAnLCAnLXRuJywgJzgnLCAnLW1hJywgJzIwMCcsICctbWV0YWxfYmluZGluZycsICctaW1hZScsICc8aW5maWxlLm1hZT4nLCAnLW9tYWUnLCAnPG91dGZpbGUubWFlPic=

> <r_lp_tautomer_probability>
0.999

> <r_epik_Ionization_Penalty>
8.73043

> <r_epik_Ionization_Penalty_Charging>
6.79141

> <r_epik_Ionization_Penalty_Neutral>
1.93902

> <r_epik_State_Penalty>
6.79158

> <r_epik_Charging_Adjusted_Penalty>
13.583

> <i_epik_Tot_Q>
-1

> <i_epik_Tot_abs_Q>
1

> <r_epik_Metal_State_Penalty>
2.71141

> <b_epik_Metal_Only>
1

> <s_lp_Force_Field>
OPLS_2005

> <r_lp_Energy>
4.53782

> <b_lp_Chiralities_Consistent>
1

> <s_lp_Variant>
AV-unprocessed.smi:915-3

> <Gold.Version>
5.8.1

> <Gold.Id.Protein>
6NUR|6NUR_protein|mol2

> <Gold.PLP.Fitness>
47.1125

> <Gold.PLP.PLP>
-37.6158

> <Gold.PLP.part.hbond>
-1.0000

> <Gold.PLP.part.metal>
0.0000

> <Gold.PLP.part.buried>
-2.8569

> <Gold.PLP.part.nonpolar>
-33.2964

> <Gold.PLP.part.repulsive>
0.0949

> <Gold.PLP.ligand.clash>
0.0000

> <Gold.PLP.ligand.torsion>
0.7941

> <Gold.PLP.Chemscore.Hbond>
2.0000

> <Gold.PLP.Chemscore.CHOScore>
1.6721

> <Gold.PLP.Chemscore.Metal>
0.0000

> <Gold.Chemscore.Hbonds>
donor molecule, donor type, donor heavy atom, donor atom, acceptor molecule, acceptor atom, score
      P1  H  7997  8010       L1     7  1.90
      L1  C     4    23       P1  7948  0.96
      L1  C     4    23       P1  7949  0.02
      L1  C     4    23       P1  7957  0.63

> <Gold.PLP.Chemscore.Internal.Correction>
0.0685

> <Gold.Rescore>
     Score         DG    S(hbond)    S(metal)    S(lipo)     H(rot)  DE(clash)    DE(int)     intcor
     14.18     -16.69       0.77        0.00     103.02       1.33       0.09       2.42       ----

> <Gold.Chemscore.Fitness>
14.1794

> <Gold.Chemscore.DG>
-16.6882

> <Gold.Chemscore.ZeroCoef>
-5.4800

> <Gold.Chemscore.Hbond>
0.7668

> <Gold.Chemscore.Metal>
0.0000

> <Gold.Chemscore.Lipo>
103.0183

> <Gold.Chemscore.Internal_Hbond>
0.0000

> <Gold.Chemscore.DEClash>
0.0885

> <Gold.Chemscore.DEInternal>
2.4204

> <Gold.Chemscore.Rot>
1.3305

> <Gold.Chemscore.Internal.Correction>
   9.000000E+99

> <Gold.Chemscore.Hbonds>
donor molecule, donor type, donor heavy atom, donor atom, acceptor molecule, acceptor atom, score
      P1  H  7997  8010       L1     7  0.21

> <Gold.Chemscore.Hbond.Weighted>
-2.5611

> <Gold.Chemscore.Metal.Weighted>
-0.0000

> <Gold.Chemscore.Lipo.Weighted>
-12.0531

> <Gold.Chemscore.Internal_Hbond.Weighted>
0.0000

> <Gold.Chemscore.DEClash.Weighted>
0.0885

> <Gold.Chemscore.DEInternal.Weighted>
2.4204

> <Gold.Chemscore.Rot.Weighted>
3.4060

> <Gold.Chemscore.Internal.Correction.Weighted>
   9.000000E+99

> <Gold.Protein.RotatedTorsions>
[ 6907 6896 6895 6894 ] final  160.63 input  -60.11 | X-H torsion
[ 7974 7965 7964 7962 ] final  176.22 input  175.53 | X-H torsion
[ 8008 7997 7996 7995 ] final   64.52 input   59.86 | X-H torsion
[ 10167 10162 10161 10158 ] final  -43.15 input  -65.29 | X-H torsion
[ 10718 10713 10712 10709 ] final  -48.78 input   66.30 | X-H torsion
[ 10763 10752 10751 10750 ] final   95.70 input  -60.55 | X-H torsion
[ 11005 11000 10999 10996 ] final -116.80 input  -57.11 | X-H torsion

> <Gold.Protein.ActiveResidues>
 VAL166  LYS551  ARG553  GLY616  TRP617  ASP618  TYR619  PRO620  LYS621  CYS622 
 ASP623  PHE694  ASN695  SER759  ASP760  ASP761  ALA762  ILE779  LEU786  VAL792 
 PHE793  MET794  SER795  GLU796  ALA797  LYS798  CYS799  TRP800  GLU811  SER814 

> <Gold.Protein.RotatedAtoms>
  151.9678  133.3716  159.4059 H   0  0  0  0  0  0  0  0  0  0  0  0  # atno 6907 bound_to 6896
  150.6954  134.4173  159.5198 H   0  0  0  0  0  0  0  0  0  0  0  0  # atno 6908 bound_to 6896
  152.1872  134.8703  160.0572 H   0  0  0  0  0  0  0  0  0  0  0  0  # atno 6909 bound_to 6896
  144.7188  140.0065  143.6440 H   0  0  0  0  0  0  0  0  0  0  0  0  # atno 7974 bound_to 7965
  155.6474  140.3497  155.4736 H   0  0  0  0  0  0  0  0  0  0  0  0  # atno 8008 bound_to 7997
  155.9876  140.1187  157.0692 H   0  0  0  0  0  0  0  0  0  0  0  0  # atno 8009 bound_to 7997
  154.4209  140.1126  156.5507 H   0  0  0  0  0  0  0  0  0  0  0  0  # atno 8010 bound_to 7997
  140.6944  143.2998  151.3311 H   0  0  0  0  0  0  0  0  0  0  0  0  # atno 10167 bound_to 10162
  156.1955  130.4154  149.9312 H   0  0  0  0  0  0  0  0  0  0  0  0  # atno 10718 bound_to 10713
  153.2562  135.4245  155.0848 H   0  0  0  0  0  0  0  0  0  0  0  0  # atno 10763 bound_to 10752
  154.8402  135.3438  154.6442 H   0  0  0  0  0  0  0  0  0  0  0  0  # atno 10764 bound_to 10752
  153.6863  135.7036  153.5160 H   0  0  0  0  0  0  0  0  0  0  0  0  # atno 10765 bound_to 10752
  141.0398  133.9854  157.3013 H   0  0  0  0  0  0  0  0  0  0  0  0  # atno 11005 bound_to 11000
  146.0293  139.3321  143.0765 LP  0  0  0  0  0  0  0  0  0  0  0  0  # atno 17320 bound_to 7965
  145.8472  140.9549  143.0768 LP  0  0  0  0  0  0  0  0  0  0  0  0  # atno 17321 bound_to 7965
  139.6382  144.0590  152.2533 LP  0  0  0  0  0  0  0  0  0  0  0  0  # atno 17342 bound_to 10162
  140.0086  144.6240  150.7666 LP  0  0  0  0  0  0  0  0  0  0  0  0  # atno 17343 bound_to 10162
  156.7039  130.8944  151.3602 LP  0  0  0  0  0  0  0  0  0  0  0  0  # atno 17370 bound_to 10713
  157.6955  130.9277  150.0632 LP  0  0  0  0  0  0  0  0  0  0  0  0  # atno 17371 bound_to 10713
  139.9267  135.0201  156.8259 LP  0  0  0  0  0  0  0  0  0  0  0  0  # atno 17394 bound_to 11000
  140.6256  133.9953  155.7638 LP  0  0  0  0  0  0  0  0  0  0  0  0  # atno 17395 bound_to 11000

$$$$
