AV-unprocessed.smi:2468|AV-procd|sdf|9731|dock10
  -GOLD-   2272013373D 1   1.00000     0.00000
 Structure written by MMmdl.
 32 33  0  0  0  0  0  0  0  0  1 V2000
  151.9563  144.5407  161.1801 C   0  0  0  0  0  0  0  0  0  0  0  0
  152.3960  143.2292  160.5562 C   0  0  0  0  0  0  0  0  0  0  0  0
  153.3619  142.5600  161.2227 N   0  0  0  0  0  0  0  0  0  0  0  0
  153.7827  141.3828  160.7166 C   0  0  0  0  0  0  0  0  0  0  0  0
  153.2721  140.8224  159.5304 C   0  0  0  0  0  0  0  0  0  0  0  0
  152.2716  141.5285  158.8198 C   0  0  0  0  0  0  0  0  0  0  0  0
  151.6733  141.0509  157.6204 N   0  0  0  0  0  0  0  0  0  0  0  0
  152.0559  140.0337  156.8269 C   0  0  0  0  0  0  0  0  0  0  0  0
  153.0234  139.3033  157.0415 O   0  0  0  0  0  0  0  0  0  0  0  0
  151.1903  139.8107  155.5751 C   0  0  2  0  0  0  0  0  0  0  0  0
  149.9570  139.2295  156.0031 O   0  0  0  0  0  0  0  0  0  0  0  0
  149.7693  137.9451  155.4146 C   0  0  0  0  0  0  0  0  0  0  0  0
  151.1555  137.4982  154.9662 C   0  0  0  0  0  0  0  0  0  0  0  0
  151.7619  138.8189  154.5376 C   0  0  2  0  0  0  0  0  0  0  0  0
  153.2901  138.7911  154.3515 C   0  0  0  0  0  0  0  0  0  0  0  0
  151.8151  142.7557  159.3561 C   0  0  0  0  0  0  0  0  0  0  0  0
  150.5745  143.6639  158.5581 Cl  0  0  0  0  0  0  0  0  0  0  0  0
  152.0713  145.3587  160.4685 H   0  0  0  0  0  0  0  0  0  0  0  0
  152.5455  144.7814  162.0660 H   0  0  0  0  0  0  0  0  0  0  0  0
  150.9086  144.4857  161.4767 H   0  0  0  0  0  0  0  0  0  0  0  0
  154.5467  140.8667  161.2790 H   0  0  0  0  0  0  0  0  0  0  0  0
  153.6472  139.8657  159.2021 H   0  0  0  0  0  0  0  0  0  0  0  0
  150.8990  141.6026  157.2799 H   0  0  0  0  0  0  0  0  0  0  0  0
  150.9857  140.7699  155.0965 H   0  0  0  0  0  0  0  0  0  0  0  0
  149.3093  137.2478  156.1151 H   0  0  0  0  0  0  0  0  0  0  0  0
  149.1069  138.0484  154.5542 H   0  0  0  0  0  0  0  0  0  0  0  0
  151.7069  137.0695  155.8039 H   0  0  0  0  0  0  0  0  0  0  0  0
  151.1233  136.7606  154.1638 H   0  0  0  0  0  0  0  0  0  0  0  0
  151.3268  139.0823  153.5719 H   0  0  0  0  0  0  0  0  0  0  0  0
  153.8075  138.4484  155.2477 H   0  0  0  0  0  0  0  0  0  0  0  0
  153.6710  139.7814  154.1006 H   0  0  0  0  0  0  0  0  0  0  0  0
  153.5664  138.1162  153.5412 H   0  0  0  0  0  0  0  0  0  0  0  0
  1  2  1  0  0  0  0
  1 18  1  0  0  0  0
  1 19  1  0  0  0  0
  1 20  1  0  0  0  0
  2 16  1  0  0  0  0
  2  3  2  0  0  0  0
  3  4  1  0  0  0  0
  4  5  2  0  0  0  0
  4 21  1  0  0  0  0
  5  6  1  0  0  0  0
  5 22  1  0  0  0  0
  6  7  1  0  0  0  0
  6 16  2  0  0  0  0
  7  8  1  0  0  0  0
  7 23  1  0  0  0  0
  8  9  2  0  0  0  0
  8 10  1  0  0  0  0
 10 14  1  0  0  0  0
 10 11  1  0  0  0  0
 10 24  1  0  0  0  0
 11 12  1  0  0  0  0
 12 13  1  0  0  0  0
 12 25  1  0  0  0  0
 12 26  1  0  0  0  0
 13 14  1  0  0  0  0
 13 27  1  0  0  0  0
 13 28  1  0  0  0  0
 14 15  1  0  0  0  0
 14 29  1  0  0  0  0
 15 30  1  0  0  0  0
 15 31  1  0  0  0  0
 15 32  1  0  0  0  0
 16 17  1  0  0  0  0
M  END
> <s_m_source_file>
AV-unprocessed.smi

> <i_m_source_file_index>
2468

> <i_lp_mmshare_version>
43012

> <i_f3d_flags>
0

> <s_epik_input>
W0NIM11jMW5bY0hdW2NIXWMoYzFDbClbTkhdQyg9TylbQ0BASF0yT1tDSDJdW0NIMl1bQ0BIXTJbQ0gzXQ==

> <s_epik_cmdline>
J2VwaWtfcHl0aG9uJywgJy1waCcsICc3LjAnLCAnLXRuJywgJzgnLCAnLW1hJywgJzIwMCcsICctbWV0YWxfYmluZGluZycsICctaW1hZScsICc8aW5maWxlLm1hZT4nLCAnLW9tYWUnLCAnPG91dGZpbGUubWFlPic=

> <r_epik_Ionization_Penalty>
0.000361027

> <r_epik_Ionization_Penalty_Charging>
0

> <r_epik_Ionization_Penalty_Neutral>
0.000361027

> <r_epik_State_Penalty>
0.000217849

> <r_epik_Charging_Adjusted_Penalty>
0.000217849

> <i_epik_Tot_Q>
0

> <i_epik_Tot_abs_Q>
0

> <r_epik_Metal_State_Penalty>
-0

> <b_epik_Metal_Only>
0

> <s_lp_Force_Field>
OPLS_2005

> <r_lp_Energy>
25.639

> <b_lp_Chiralities_Consistent>
1

> <s_lp_Variant>
AV-unprocessed.smi:2468-3

> <Gold.Version>
5.8.1

> <Gold.Id.Protein>
6NUR|6NUR_protein|mol2

> <Gold.PLP.Fitness>
37.6561

> <Gold.PLP.PLP>
-35.2295

> <Gold.PLP.part.hbond>
-1.0000

> <Gold.PLP.part.metal>
0.0000

> <Gold.PLP.part.buried>
-3.5790

> <Gold.PLP.part.nonpolar>
-30.4285

> <Gold.PLP.part.repulsive>
0.1075

> <Gold.PLP.ligand.clash>
0.0000

> <Gold.PLP.ligand.torsion>
0.2922

> <Gold.PLP.Chemscore.Hbond>
1.0000

> <Gold.PLP.Chemscore.CHOScore>
0.0000

> <Gold.PLP.Chemscore.Metal>
0.0000

> <Gold.Chemscore.Hbonds>
donor molecule, donor type, donor heavy atom, donor atom, acceptor molecule, acceptor atom, score
      P1  H  7997  8008       L1     9  1.00

> <Gold.PLP.Chemscore.Internal.Correction>
0.0109

> <Gold.Rescore>
     Score         DG    S(hbond)    S(metal)    S(lipo)     H(rot)  DE(clash)    DE(int)     intcor
     15.35     -18.21       0.91        0.00     104.60       1.00       0.02       2.84       ----

> <Gold.Chemscore.Fitness>
15.3503

> <Gold.Chemscore.DG>
-18.2074

> <Gold.Chemscore.ZeroCoef>
-5.4800

> <Gold.Chemscore.Hbond>
0.9128

> <Gold.Chemscore.Metal>
0.0000

> <Gold.Chemscore.Lipo>
104.6050

> <Gold.Chemscore.Internal_Hbond>
0.0000

> <Gold.Chemscore.DEClash>
0.0208

> <Gold.Chemscore.DEInternal>
2.8362

> <Gold.Chemscore.Rot>
1.0000

> <Gold.Chemscore.Internal.Correction>
   9.000000E+99

> <Gold.Chemscore.Hbonds>
donor molecule, donor type, donor heavy atom, donor atom, acceptor molecule, acceptor atom, score
      P1  H  7997  8008       L1     9  0.81

> <Gold.Chemscore.Hbond.Weighted>
-3.0486

> <Gold.Chemscore.Metal.Weighted>
-0.0000

> <Gold.Chemscore.Lipo.Weighted>
-12.2388

> <Gold.Chemscore.Internal_Hbond.Weighted>
0.0000

> <Gold.Chemscore.DEClash.Weighted>
0.0208

> <Gold.Chemscore.DEInternal.Weighted>
2.8362

> <Gold.Chemscore.Rot.Weighted>
2.5600

> <Gold.Chemscore.Internal.Correction.Weighted>
   9.000000E+99

> <Gold.Protein.RotatedTorsions>
[ 6907 6896 6895 6894 ] final  151.48 input  -60.11 | X-H torsion
[ 7974 7965 7964 7962 ] final  -22.04 input  175.53 | X-H torsion
[ 8008 7997 7996 7995 ] final  -66.49 input   59.86 | X-H torsion
[ 10167 10162 10161 10158 ] final  172.25 input  -65.29 | X-H torsion
[ 10718 10713 10712 10709 ] final -176.35 input   66.30 | X-H torsion
[ 10763 10752 10751 10750 ] final  -99.64 input  -60.55 | X-H torsion
[ 11005 11000 10999 10996 ] final -150.40 input  -57.11 | X-H torsion

> <Gold.Protein.ActiveResidues>
 VAL166  LYS551  ARG553  GLY616  TRP617  ASP618  TYR619  PRO620  LYS621  CYS622 
 ASP623  PHE694  ASN695  SER759  ASP760  ASP761  ALA762  ILE779  LEU786  VAL792 
 PHE793  MET794  SER795  GLU796  ALA797  LYS798  CYS799  TRP800  GLU811  SER814 

> <Gold.Protein.RotatedAtoms>
  152.1001  133.4245  159.4582 H   0  0  0  0  0  0  0  0  0  0  0  0  # atno 6907 bound_to 6896
  150.6864  134.2770  159.4621 H   0  0  0  0  0  0  0  0  0  0  0  0  # atno 6908 bound_to 6896
  152.0630  134.9582  160.0625 H   0  0  0  0  0  0  0  0  0  0  0  0  # atno 6909 bound_to 6896
  146.1698  140.4425  142.8537 H   0  0  0  0  0  0  0  0  0  0  0  0  # atno 7974 bound_to 7965
  154.4738  140.0912  156.7210 H   0  0  0  0  0  0  0  0  0  0  0  0  # atno 8008 bound_to 7997
  155.4653  140.3462  155.4300 H   0  0  0  0  0  0  0  0  0  0  0  0  # atno 8009 bound_to 7997
  156.1082  140.1440  156.9363 H   0  0  0  0  0  0  0  0  0  0  0  0  # atno 8010 bound_to 7997
  139.5071  144.3395  152.0032 H   0  0  0  0  0  0  0  0  0  0  0  0  # atno 10167 bound_to 10162
  156.8133  130.9594  151.3115 H   0  0  0  0  0  0  0  0  0  0  0  0  # atno 10718 bound_to 10713
  154.7514  135.4965  153.9296 H   0  0  0  0  0  0  0  0  0  0  0  0  # atno 10763 bound_to 10752
  153.1148  135.6718  153.9446 H   0  0  0  0  0  0  0  0  0  0  0  0  # atno 10764 bound_to 10752
  153.9195  135.3090  155.3427 H   0  0  0  0  0  0  0  0  0  0  0  0  # atno 10765 bound_to 10752
  140.7406  134.3518  157.5148 H   0  0  0  0  0  0  0  0  0  0  0  0  # atno 11005 bound_to 11000
  144.8146  140.6446  143.6392 LP  0  0  0  0  0  0  0  0  0  0  0  0  # atno 17320 bound_to 7965
  145.4370  139.1541  143.3991 LP  0  0  0  0  0  0  0  0  0  0  0  0  # atno 17321 bound_to 7965
  140.2833  144.3835  150.6112 LP  0  0  0  0  0  0  0  0  0  0  0  0  # atno 17342 bound_to 10162
  140.6002  143.2167  151.7087 LP  0  0  0  0  0  0  0  0  0  0  0  0  # atno 17343 bound_to 10162
  157.6494  130.8872  149.9603 LP  0  0  0  0  0  0  0  0  0  0  0  0  # atno 17370 bound_to 10713
  156.1031  130.3654  150.0182 LP  0  0  0  0  0  0  0  0  0  0  0  0  # atno 17371 bound_to 10713
  139.8807  134.9078  156.2954 LP  0  0  0  0  0  0  0  0  0  0  0  0  # atno 17394 bound_to 11000
  140.9840  133.7250  156.0714 LP  0  0  0  0  0  0  0  0  0  0  0  0  # atno 17395 bound_to 11000

$$$$
