AV-unprocessed.smi:46|AV-procd|sdf|420|dock7
  -GOLD-   2262016303D 1   1.00000     0.00000
 Structure written by MMmdl.
 35 36  0  0  0  0  0  0  0  0  2 V2000
  150.5833  143.8173  158.3745 C   0  0  0  0  0  0  0  0  0  0  0  0
  151.0414  142.4203  158.8190 C   0  0  0  0  0  0  0  0  0  0  0  0
  152.4622  142.4366  159.4035 C   0  0  0  0  0  0  0  0  0  0  0  0
  150.9413  141.4725  157.7193 N   0  0  0  0  0  0  0  0  0  0  0  0
  150.4730  141.6815  156.4386 C   0  0  0  0  0  0  0  0  0  0  0  0
  150.5542  140.4935  155.7642 C   0  0  0  0  0  0  0  0  0  0  0  0
  150.1791  140.1558  154.3359 C   0  0  1  0  0  0  0  0  0  0  0  0
  150.4935  138.7037  153.9538 C   0  0  0  0  0  0  0  0  0  0  0  0
  149.3140  137.9080  154.3399 N   0  3  0  0  0  0  0  0  0  0  0  0
  148.1665  138.8257  154.4825 C   0  0  0  0  0  0  0  0  0  0  0  0
  148.6634  140.2240  154.0775 C   0  0  1  0  0  0  0  0  0  0  0  0
  147.9066  141.3784  154.7639 C   0  0  0  0  0  0  0  0  0  0  0  0
  148.2783  142.6101  154.1836 O   0  0  0  0  0  0  0  0  0  0  0  0
  151.0879  139.6046  156.7410 C   0  0  0  0  0  0  0  0  0  0  0  0
  151.3170  140.1898  157.9039 N   0  0  0  0  0  0  0  0  0  0  0  0
  150.6994  140.8317  153.6557 H   0  0  0  0  0  0  0  0  0  0  0  0
  148.5308  140.3168  152.9975 H   0  0  0  0  0  0  0  0  0  0  0  0
  150.6003  144.5184  159.2094 H   0  0  0  0  0  0  0  0  0  0  0  0
  149.5636  143.7907  157.9886 H   0  0  0  0  0  0  0  0  0  0  0  0
  151.2258  144.2190  157.5904 H   0  0  0  0  0  0  0  0  0  0  0  0
  150.3660  142.0879  159.6096 H   0  0  0  0  0  0  0  0  0  0  0  0
  152.5221  143.1034  160.2642 H   0  0  0  0  0  0  0  0  0  0  0  0
  153.1948  142.7763  158.6708 H   0  0  0  0  0  0  0  0  0  0  0  0
  152.7599  141.4418  159.7369 H   0  0  0  0  0  0  0  0  0  0  0  0
  150.1239  142.6520  156.1189 H   0  0  0  0  0  0  0  0  0  0  0  0
  150.5947  138.6268  152.8704 H   0  0  0  0  0  0  0  0  0  0  0  0
  151.4155  138.3250  154.3962 H   0  0  0  0  0  0  0  0  0  0  0  0
  149.1254  137.2052  153.6393 H   0  0  0  0  0  0  0  0  0  0  0  0
  147.3238  138.4999  153.8720 H   0  0  0  0  0  0  0  0  0  0  0  0
  147.8479  138.8114  155.5254 H   0  0  0  0  0  0  0  0  0  0  0  0
  146.8260  141.2591  154.6789 H   0  0  0  0  0  0  0  0  0  0  0  0
  148.1484  141.4101  155.8268 H   0  0  0  0  0  0  0  0  0  0  0  0
  148.4597  143.2273  154.8766 H   0  0  0  0  0  0  0  0  0  0  0  0
  151.3174  138.5542  156.6368 H   0  0  0  0  0  0  0  0  0  0  0  0
  149.4848  137.4630  155.2303 H   0  0  0  0  0  0  0  0  0  0  0  0
  1  2  1  0  0  0  0
  1 18  1  0  0  0  0
  1 19  1  0  0  0  0
  1 20  1  0  0  0  0
  2  3  1  0  0  0  0
  2  4  1  0  0  0  0
  2 21  1  0  0  0  0
  3 22  1  0  0  0  0
  3 23  1  0  0  0  0
  3 24  1  0  0  0  0
  4 15  1  0  0  0  0
  4  5  1  0  0  0  0
  5  6  2  0  0  0  0
  5 25  1  0  0  0  0
  6  7  1  0  0  0  0
  6 14  1  0  0  0  0
  7 16  1  0  0  0  0
  7 11  1  0  0  0  0
  7  8  1  0  0  0  0
  8  9  1  0  0  0  0
  8 26  1  0  0  0  0
  8 27  1  0  0  0  0
  9 10  1  0  0  0  0
  9 28  1  0  0  0  0
  9 35  1  0  0  0  0
 10 11  1  0  0  0  0
 10 29  1  0  0  0  0
 10 30  1  0  0  0  0
 11 17  1  0  0  0  0
 11 12  1  0  0  0  0
 12 13  1  0  0  0  0
 12 31  1  0  0  0  0
 12 32  1  0  0  0  0
 13 33  1  0  0  0  0
 14 15  2  0  0  0  0
 14 34  1  0  0  0  0
M  CHG  1   9   1
M  END
> <s_m_source_file>
AV-unprocessed.smi

> <i_m_source_file_index>
46

> <i_lp_mmshare_version>
43012

> <i_f3d_flags>
0

> <s_epik_input>
W0NIM11bQ0hdKFtDSDNdKW4xW2NIXWMoW2NIXW4xKVtDQEBIXTJbQ0gyXVtOSF1bQ0gyXVtDQEhdMltDSDJdW09IXQ==

> <s_epik_cmdline>
J2VwaWtfcHl0aG9uJywgJy1waCcsICc3LjAnLCAnLXRuJywgJzgnLCAnLW1hJywgJzIwMCcsICctbWV0YWxfYmluZGluZycsICctaW1hZScsICc8aW5maWxlLm1hZT4nLCAnLW9tYWUnLCAnPG91dGZpbGUubWFlPic=

> <r_lp_tautomer_probability>
1

> <r_epik_Ionization_Penalty>
0.000236226

> <r_epik_Ionization_Penalty_Charging>
0.00021985

> <r_epik_Ionization_Penalty_Neutral>
1.63752e-05

> <r_epik_State_Penalty>
-0

> <r_epik_Charging_Adjusted_Penalty>
0.00021985

> <i_epik_Tot_Q>
1

> <i_epik_Tot_abs_Q>
1

> <r_epik_Metal_State_Penalty>
-0

> <b_epik_Metal_Only>
0

> <s_lp_Force_Field>
OPLS_2005

> <r_lp_Energy>
33.3547

> <b_lp_Chiralities_Consistent>
1

> <s_lp_Variant>
AV-unprocessed.smi:46-2

> <Gold.Version>
5.8.1

> <Gold.Id.Protein>
6NUR|6NUR_protein|mol2

> <Gold.PLP.Fitness>
39.8538

> <Gold.PLP.PLP>
-28.0542

> <Gold.PLP.part.hbond>
-3.7250

> <Gold.PLP.part.metal>
0.0000

> <Gold.PLP.part.buried>
1.3179

> <Gold.PLP.part.nonpolar>
-25.7807

> <Gold.PLP.part.repulsive>
0.0071

> <Gold.PLP.ligand.clash>
0.0000

> <Gold.PLP.ligand.torsion>
0.1537

> <Gold.PLP.Chemscore.Hbond>
3.0228

> <Gold.PLP.Chemscore.CHOScore>
0.9944

> <Gold.PLP.Chemscore.Metal>
0.0000

> <Gold.Chemscore.Hbonds>
donor molecule, donor type, donor heavy atom, donor atom, acceptor molecule, acceptor atom, score
      L1  H     9    28       P1  7948  2.00
      L1  H    13    33       P1  8028  1.00
      P1  H  8011  8017       L1    13  0.01
      L1  C     5    25       P1  8028  1.00

> <Gold.PLP.Chemscore.Internal.Correction>
0.0553

> <Gold.Rescore>
     Score         DG    S(hbond)    S(metal)    S(lipo)     H(rot)  DE(clash)    DE(int)     intcor
     15.39     -16.62       1.98        0.00      80.09       1.90       0.96       0.27       ----

> <Gold.Chemscore.Fitness>
15.3905

> <Gold.Chemscore.DG>
-16.6182

> <Gold.Chemscore.ZeroCoef>
-5.4800

> <Gold.Chemscore.Hbond>
1.9836

> <Gold.Chemscore.Metal>
0.0000

> <Gold.Chemscore.Lipo>
80.0926

> <Gold.Chemscore.Internal_Hbond>
0.0000

> <Gold.Chemscore.DEClash>
0.9616

> <Gold.Chemscore.DEInternal>
0.2662

> <Gold.Chemscore.Rot>
1.8976

> <Gold.Chemscore.Internal.Correction>
   9.000000E+99

> <Gold.Chemscore.Hbonds>
donor molecule, donor type, donor heavy atom, donor atom, acceptor molecule, acceptor atom, score
      L1  H     9    28       P1  7948  0.94
      L1  H    13    33       P1  8028  0.99
      P1  H  8011  8017       L1    13  0.02

> <Gold.Chemscore.Hbond.Weighted>
-6.6252

> <Gold.Chemscore.Metal.Weighted>
-0.0000

> <Gold.Chemscore.Lipo.Weighted>
-9.3708

> <Gold.Chemscore.Internal_Hbond.Weighted>
0.0000

> <Gold.Chemscore.DEClash.Weighted>
0.9616

> <Gold.Chemscore.DEInternal.Weighted>
0.2662

> <Gold.Chemscore.Rot.Weighted>
4.8579

> <Gold.Chemscore.Internal.Correction.Weighted>
   9.000000E+99

> <Gold.Protein.RotatedTorsions>
[ 6907 6896 6895 6894 ] final  -85.82 input  -60.11 | X-H torsion
[ 7974 7965 7964 7962 ] final  157.74 input  175.53 | X-H torsion
[ 8008 7997 7996 7995 ] final  123.02 input   59.86 | X-H torsion
[ 10167 10162 10161 10158 ] final  179.83 input  -65.29 | X-H torsion
[ 10718 10713 10712 10709 ] final -106.45 input   66.30 | X-H torsion
[ 10763 10752 10751 10750 ] final  -31.53 input  -60.55 | X-H torsion
[ 11005 11000 10999 10996 ] final -109.05 input  -57.11 | X-H torsion

> <Gold.Protein.ActiveResidues>
 VAL166  LYS551  ARG553  GLY616  TRP617  ASP618  TYR619  PRO620  LYS621  CYS622 
 ASP623  PHE694  ASN695  SER759  ASP760  ASP761  ALA762  ILE779  LEU786  VAL792 
 PHE793  MET794  SER795  GLU796  ALA797  LYS798  CYS799  TRP800  GLU811  SER814 

> <Gold.Protein.RotatedAtoms>
  150.6869  134.3145  159.4760 H   0  0  0  0  0  0  0  0  0  0  0  0  # atno 6907 bound_to 6896
  152.1028  134.9327  160.0578 H   0  0  0  0  0  0  0  0  0  0  0  0  # atno 6908 bound_to 6896
  152.0600  133.4023  159.4450 H   0  0  0  0  0  0  0  0  0  0  0  0  # atno 6909 bound_to 6896
  144.7885  139.7383  143.6231 H   0  0  0  0  0  0  0  0  0  0  0  0  # atno 7974 bound_to 7965
  156.2750  140.2772  156.1560 H   0  0  0  0  0  0  0  0  0  0  0  0  # atno 8008 bound_to 7997
  155.0803  140.0387  157.2655 H   0  0  0  0  0  0  0  0  0  0  0  0  # atno 8009 bound_to 7997
  154.6969  140.2641  155.6763 H   0  0  0  0  0  0  0  0  0  0  0  0  # atno 8010 bound_to 7997
  139.5353  144.2514  152.0781 H   0  0  0  0  0  0  0  0  0  0  0  0  # atno 10167 bound_to 10162
  156.0390  130.5613  150.7682 H   0  0  0  0  0  0  0  0  0  0  0  0  # atno 10718 bound_to 10713
  153.7989  135.6892  153.4859 H   0  0  0  0  0  0  0  0  0  0  0  0  # atno 10763 bound_to 10752
  153.1701  135.4546  154.9889 H   0  0  0  0  0  0  0  0  0  0  0  0  # atno 10764 bound_to 10752
  154.8014  135.3339  154.7479 H   0  0  0  0  0  0  0  0  0  0  0  0  # atno 10765 bound_to 10752
  141.0869  133.9124  157.2166 H   0  0  0  0  0  0  0  0  0  0  0  0  # atno 11005 bound_to 11000
  146.2128  139.5496  142.9670 LP  0  0  0  0  0  0  0  0  0  0  0  0  # atno 17320 bound_to 7965
  145.5856  141.0376  143.2098 LP  0  0  0  0  0  0  0  0  0  0  0  0  # atno 17321 bound_to 7965
  140.1984  144.4683  150.6444 LP  0  0  0  0  0  0  0  0  0  0  0  0  # atno 17342 bound_to 10162
  140.6556  143.2237  151.5975 LP  0  0  0  0  0  0  0  0  0  0  0  0  # atno 17343 bound_to 10162
  157.5183  131.0930  151.0111 LP  0  0  0  0  0  0  0  0  0  0  0  0  # atno 17370 bound_to 10713
  157.0448  130.5763  149.5361 LP  0  0  0  0  0  0  0  0  0  0  0  0  # atno 17371 bound_to 10713
  139.9688  135.0134  156.9458 LP  0  0  0  0  0  0  0  0  0  0  0  0  # atno 17394 bound_to 11000
  140.5343  134.0782  155.7324 LP  0  0  0  0  0  0  0  0  0  0  0  0  # atno 17395 bound_to 11000

$$$$
