AV-unprocessed.smi:1447|AV-procd|sdf|5891|dock7
  -GOLD-   22720 5573D 1   1.00000     0.00000
 Structure written by MMmdl.
 48 50  0  0  0  0  0  0  0  0  2 V2000
  156.2801  136.9756  157.0838 C   0  0  0  0  0  0  0  0  0  0  0  0
  155.1553  136.1199  157.1781 O   0  0  0  0  0  0  0  0  0  0  0  0
  153.9819  136.8041  157.5855 C   0  0  0  0  0  0  0  0  0  0  0  0
  153.7211  137.9976  156.6518 C   0  0  0  0  0  0  0  0  0  0  0  0
  152.4645  137.8462  155.9092 N   0  0  0  0  0  0  0  0  0  0  0  0
  151.8998  136.5858  156.0142 N   0  0  0  0  0  0  0  0  0  0  0  0
  150.7837  136.3206  155.4157 C   0  0  0  0  0  0  0  0  0  0  0  0
  150.1462  134.9777  155.5042 C   0  0  0  0  0  0  0  0  0  0  0  0
  150.3932  134.1985  156.4261 O   0  0  0  0  0  0  0  0  0  0  0  0
  149.2858  134.6823  154.5127 N   0  0  0  0  0  0  0  0  0  0  0  0
  148.5467  133.4309  154.3823 C   0  0  2  0  0  0  0  0  0  0  0  0
  149.5303  132.2531  154.2843 C   0  0  0  0  0  0  0  0  0  0  0  0
  148.7881  130.9261  154.0531 C   0  0  0  0  0  0  0  0  0  0  0  0
  147.9319  130.9968  152.8431 N   0  3  1  0  0  0  0  0  0  0  0  0
  147.2951  129.6976  152.5358 C   0  0  0  0  0  0  0  0  0  0  0  0
  146.9689  128.8771  153.7620 C   0  0  0  0  0  0  0  0  0  0  0  0
  148.1474  128.5016  152.8913 C   0  0  0  0  0  0  0  0  0  0  0  0
  146.9419  132.0985  152.9342 C   0  0  0  0  0  0  0  0  0  0  0  0
  147.6406  133.4532  153.1365 C   0  0  0  0  0  0  0  0  0  0  0  0
  150.1039  137.3329  154.6262 C   0  0  0  0  0  0  0  0  0  0  0  0
  150.6662  138.5579  154.5331 C   0  0  0  0  0  0  0  0  0  0  0  0
  151.9277  138.8848  155.1999 C   0  0  0  0  0  0  0  0  0  0  0  0
  152.4565  139.9935  155.1287 O   0  0  0  0  0  0  0  0  0  0  0  0
  157.1527  136.4005  156.7745 H   0  0  0  0  0  0  0  0  0  0  0  0
  156.5060  137.4387  158.0451 H   0  0  0  0  0  0  0  0  0  0  0  0
  156.1157  137.7615  156.3455 H   0  0  0  0  0  0  0  0  0  0  0  0
  153.1334  136.1194  157.5416 H   0  0  0  0  0  0  0  0  0  0  0  0
  154.0728  137.1405  158.6199 H   0  0  0  0  0  0  0  0  0  0  0  0
  153.7449  138.9314  157.2156 H   0  0  0  0  0  0  0  0  0  0  0  0
  154.5443  138.0750  155.9393 H   0  0  0  0  0  0  0  0  0  0  0  0
  149.1406  135.3780  153.7949 H   0  0  0  0  0  0  0  0  0  0  0  0
  147.9293  133.2891  155.2715 H   0  0  0  0  0  0  0  0  0  0  0  0
  150.2324  132.4214  153.4661 H   0  0  0  0  0  0  0  0  0  0  0  0
  150.1267  132.1872  155.1952 H   0  0  0  0  0  0  0  0  0  0  0  0
  149.5129  130.1190  153.9410 H   0  0  0  0  0  0  0  0  0  0  0  0
  148.1741  130.6816  154.9215 H   0  0  0  0  0  0  0  0  0  0  0  0
  146.6433  129.6720  151.6641 H   0  0  0  0  0  0  0  0  0  0  0  0
  147.1846  129.3022  154.7407 H   0  0  0  0  0  0  0  0  0  0  0  0
  146.0912  128.2354  153.7174 H   0  0  0  0  0  0  0  0  0  0  0  0
  148.0464  127.6122  152.2727 H   0  0  0  0  0  0  0  0  0  0  0  0
  149.1434  128.6771  153.2939 H   0  0  0  0  0  0  0  0  0  0  0  0
  146.3444  132.1306  152.0224 H   0  0  0  0  0  0  0  0  0  0  0  0
  146.2527  131.9044  153.7577 H   0  0  0  0  0  0  0  0  0  0  0  0
  146.8903  134.2395  153.2273 H   0  0  0  0  0  0  0  0  0  0  0  0
  148.2315  133.6919  152.2509 H   0  0  0  0  0  0  0  0  0  0  0  0
  149.1723  137.1198  154.1222 H   0  0  0  0  0  0  0  0  0  0  0  0
  150.1715  139.3202  153.9494 H   0  0  0  0  0  0  0  0  0  0  0  0
  148.5394  131.2131  152.0658 H   0  0  0  0  0  0  0  0  0  0  0  0
  1  2  1  0  0  0  0
  1 24  1  0  0  0  0
  1 25  1  0  0  0  0
  1 26  1  0  0  0  0
  2  3  1  0  0  0  0
  3  4  1  0  0  0  0
  3 27  1  0  0  0  0
  3 28  1  0  0  0  0
  4  5  1  0  0  0  0
  4 29  1  0  0  0  0
  4 30  1  0  0  0  0
  5 22  1  0  0  0  0
  5  6  1  0  0  0  0
  6  7  2  0  0  0  0
  7  8  1  0  0  0  0
  7 20  1  0  0  0  0
  8  9  2  0  0  0  0
  8 10  1  0  0  0  0
 10 11  1  0  0  0  0
 10 31  1  0  0  0  0
 11 19  1  0  0  0  0
 11 12  1  0  0  0  0
 11 32  1  0  0  0  0
 12 13  1  0  0  0  0
 12 33  1  0  0  0  0
 12 34  1  0  0  0  0
 13 14  1  0  0  0  0
 13 35  1  0  0  0  0
 13 36  1  0  0  0  0
 14 15  1  0  0  0  0
 14 18  1  0  0  0  0
 14 48  1  0  0  0  0
 15 17  1  0  0  0  0
 15 16  1  0  0  0  0
 15 37  1  0  0  0  0
 16 17  1  0  0  0  0
 16 38  1  0  0  0  0
 16 39  1  0  0  0  0
 17 40  1  0  0  0  0
 17 41  1  0  0  0  0
 18 19  1  0  0  0  0
 18 42  1  0  0  0  0
 18 43  1  0  0  0  0
 19 44  1  0  0  0  0
 19 45  1  0  0  0  0
 20 21  2  0  0  0  0
 20 46  1  0  0  0  0
 21 22  1  0  0  0  0
 21 47  1  0  0  0  0
 22 23  2  0  0  0  0
M  CHG  1  14   1
M  END
> <s_m_source_file>
AV-unprocessed.smi

> <i_m_source_file_index>
1447

> <i_lp_mmshare_version>
43012

> <i_f3d_flags>
0

> <s_epik_input>
W0NIM11PW0NIMl1bQ0gyXW4xbmMoW2NIXVtjSF1jMT1PKUMoPU8pW05IXVtDSF0yW0NIMl1bQ0gyXU4oW0NIMl1bQ0gyXTIpW0NIXTNbQ0gyXVtDSDJdMw==

> <s_epik_cmdline>
J2VwaWtfcHl0aG9uJywgJy1waCcsICc3LjAnLCAnLXRuJywgJzgnLCAnLW1hJywgJzIwMCcsICctbWV0YWxfYmluZGluZycsICctaW1hZScsICc8aW5maWxlLm1hZT4nLCAnLW9tYWUnLCAnPG91dGZpbGUubWFlPic=

> <r_lp_tautomer_probability>
1

> <r_epik_Ionization_Penalty>
0.168623

> <r_epik_Ionization_Penalty_Charging>
0.16862

> <r_epik_Ionization_Penalty_Neutral>
2.93027e-06

> <r_epik_State_Penalty>
0.157986

> <r_epik_Charging_Adjusted_Penalty>
0.326605

> <i_epik_Tot_Q>
1

> <i_epik_Tot_abs_Q>
1

> <r_epik_Metal_State_Penalty>
0.157986

> <b_epik_Metal_Only>
0

> <s_lp_Force_Field>
OPLS_2005

> <r_lp_Energy>
46.6346

> <b_lp_Chiralities_Consistent>
1

> <s_lp_Variant>
AV-unprocessed.smi:1447-1

> <Gold.Version>
5.8.1

> <Gold.Id.Protein>
6NUR|6NUR_protein|mol2

> <Gold.PLP.Fitness>
48.6299

> <Gold.PLP.PLP>
-33.8640

> <Gold.PLP.part.hbond>
-5.8501

> <Gold.PLP.part.metal>
0.0000

> <Gold.PLP.part.buried>
0.3518

> <Gold.PLP.part.nonpolar>
-28.1229

> <Gold.PLP.part.repulsive>
0.0571

> <Gold.PLP.ligand.clash>
0.0000

> <Gold.PLP.ligand.torsion>
1.3346

> <Gold.PLP.Chemscore.Hbond>
5.3762

> <Gold.PLP.Chemscore.CHOScore>
0.0000

> <Gold.PLP.Chemscore.Metal>
0.0000

> <Gold.Chemscore.Hbonds>
donor molecule, donor type, donor heavy atom, donor atom, acceptor molecule, acceptor atom, score
      L1  H    10    31       P1  7948  0.84
      L1  H    14    48       P1 10747  0.94
      P1  H  7989  7998       L1    23  0.61
      P1  H  7997  8010       L1    23  0.73
      P1  H 10752 10763       L1     6  0.70
      P1  H 10752 10764       L1     2  0.33

> <Gold.PLP.Chemscore.Internal.Correction>
1.3064

> <Gold.Rescore>
     Score         DG    S(hbond)    S(metal)    S(lipo)     H(rot)  DE(clash)    DE(int)     intcor
     17.64     -20.57       3.24        0.00      75.12       1.76       0.35       2.57       ----

> <Gold.Chemscore.Fitness>
17.6434

> <Gold.Chemscore.DG>
-20.5679

> <Gold.Chemscore.ZeroCoef>
-5.4800

> <Gold.Chemscore.Hbond>
3.2353

> <Gold.Chemscore.Metal>
0.0000

> <Gold.Chemscore.Lipo>
75.1242

> <Gold.Chemscore.Internal_Hbond>
0.0000

> <Gold.Chemscore.DEClash>
0.3504

> <Gold.Chemscore.DEInternal>
2.5741

> <Gold.Chemscore.Rot>
1.7608

> <Gold.Chemscore.Internal.Correction>
   9.000000E+99

> <Gold.Chemscore.Hbonds>
donor molecule, donor type, donor heavy atom, donor atom, acceptor molecule, acceptor atom, score
      L1  H    10    31       P1  7948  0.45
      L1  H    14    48       P1 10747  0.89
      P1  H  7989  7998       L1    23  0.32
      P1  H  7997  8010       L1    23  0.70
      P1  H 10752 10763       L1     6  0.02
      P1  H 10752 10764       L1     2  0.11

> <Gold.Chemscore.Hbond.Weighted>
-10.8060

> <Gold.Chemscore.Metal.Weighted>
-0.0000

> <Gold.Chemscore.Lipo.Weighted>
-8.7895

> <Gold.Chemscore.Internal_Hbond.Weighted>
0.0000

> <Gold.Chemscore.DEClash.Weighted>
0.3504

> <Gold.Chemscore.DEInternal.Weighted>
2.5741

> <Gold.Chemscore.Rot.Weighted>
4.5077

> <Gold.Chemscore.Internal.Correction.Weighted>
   9.000000E+99

> <Gold.Protein.RotatedTorsions>
[ 6907 6896 6895 6894 ] final   92.90 input  -60.11 | X-H torsion
[ 7974 7965 7964 7962 ] final -125.71 input  175.53 | X-H torsion
[ 8008 7997 7996 7995 ] final  103.42 input   59.86 | X-H torsion
[ 10167 10162 10161 10158 ] final   82.10 input  -65.29 | X-H torsion
[ 10718 10713 10712 10709 ] final   32.75 input   66.30 | X-H torsion
[ 10763 10752 10751 10750 ] final   67.66 input  -60.55 | X-H torsion
[ 11005 11000 10999 10996 ] final  -84.69 input  -57.11 | X-H torsion

> <Gold.Protein.ActiveResidues>
 VAL166  LYS551  ARG553  GLY616  TRP617  ASP618  TYR619  PRO620  LYS621  CYS622 
 ASP623  PHE694  ASN695  SER759  ASP760  ASP761  ALA762  ILE779  LEU786  VAL792 
 PHE793  MET794  SER795  GLU796  ALA797  LYS798  CYS799  TRP800  GLU811  SER814 

> <Gold.Protein.RotatedAtoms>
  152.5453  134.1431  159.8486 H   0  0  0  0  0  0  0  0  0  0  0  0  # atno 6907 bound_to 6896
  151.1465  133.4929  159.2603 H   0  0  0  0  0  0  0  0  0  0  0  0  # atno 6908 bound_to 6896
  151.1518  135.0241  159.8726 H   0  0  0  0  0  0  0  0  0  0  0  0  # atno 6909 bound_to 6896
  144.9948  140.7765  143.4532 H   0  0  0  0  0  0  0  0  0  0  0  0  # atno 7974 bound_to 7965
  156.1482  140.3165  155.8604 H   0  0  0  0  0  0  0  0  0  0  0  0  # atno 8008 bound_to 7997
  155.4023  140.0500  157.3053 H   0  0  0  0  0  0  0  0  0  0  0  0  # atno 8009 bound_to 7997
  154.5035  140.2138  155.9310 H   0  0  0  0  0  0  0  0  0  0  0  0  # atno 8010 bound_to 7997
  139.9323  144.6144  150.8332 H   0  0  0  0  0  0  0  0  0  0  0  0  # atno 10167 bound_to 10162
  157.2891  130.7294  149.6600 H   0  0  0  0  0  0  0  0  0  0  0  0  # atno 10718 bound_to 10713
  153.0197  135.5275  154.7015 H   0  0  0  0  0  0  0  0  0  0  0  0  # atno 10763 bound_to 10752
  154.6122  135.2879  155.0422 H   0  0  0  0  0  0  0  0  0  0  0  0  # atno 10764 bound_to 10752
  154.1439  135.6573  153.5001 H   0  0  0  0  0  0  0  0  0  0  0  0  # atno 10765 bound_to 10752
  141.1648  133.7359  156.8904 H   0  0  0  0  0  0  0  0  0  0  0  0  # atno 11005 bound_to 11000
  145.2235  139.2148  143.5080 LP  0  0  0  0  0  0  0  0  0  0  0  0  # atno 17320 bound_to 7965
  146.3439  140.2098  142.8590 LP  0  0  0  0  0  0  0  0  0  0  0  0  # atno 17321 bound_to 7965
  140.7634  143.3222  151.2597 LP  0  0  0  0  0  0  0  0  0  0  0  0  # atno 17342 bound_to 10162
  139.6772  143.9917  152.2788 LP  0  0  0  0  0  0  0  0  0  0  0  0  # atno 17343 bound_to 10162
  155.9666  130.4314  150.4919 LP  0  0  0  0  0  0  0  0  0  0  0  0  # atno 17370 bound_to 10713
  157.2878  131.0620  151.2154 LP  0  0  0  0  0  0  0  0  0  0  0  0  # atno 17371 bound_to 10713
  140.1652  134.9138  157.2765 LP  0  0  0  0  0  0  0  0  0  0  0  0  # atno 17394 bound_to 11000
  140.2565  134.3622  155.7422 LP  0  0  0  0  0  0  0  0  0  0  0  0  # atno 17395 bound_to 11000

$$$$
