AV-unprocessed.smi:1945|AV-procd|sdf|7859|dock7
  -GOLD-   2272010 03D 1   1.00000     0.00000
 Structure written by MMmdl.
 47 48  0  0  0  0  0  0  0  0  1 V2000
  146.2155  129.6944  151.8841 C   0  0  0  0  0  0  0  0  0  0  0  0
  146.1403  131.1913  151.9448 C   0  0  0  0  0  0  0  0  0  0  0  0
  147.0053  132.0864  152.6381 C   0  0  0  0  0  0  0  0  0  0  0  0
  146.4683  133.3108  152.3472 C   0  0  0  0  0  0  0  0  0  0  0  0
  146.8900  134.5401  152.7455 N   0  0  0  0  0  0  0  0  0  0  0  0
  146.2046  135.4796  153.4191 C   0  0  0  0  0  0  0  0  0  0  0  0
  145.0850  135.3314  153.9093 O   0  0  0  0  0  0  0  0  0  0  0  0
  146.8880  136.6323  153.4704 N   0  0  0  0  0  0  0  0  0  0  0  0
  146.3543  137.8969  153.9661 C   0  0  0  0  0  0  0  0  0  0  0  0
  147.2834  139.0637  153.5987 C   0  0  0  0  0  0  0  0  0  0  0  0
  148.4265  139.0239  154.4394 O   0  0  0  0  0  0  0  0  0  0  0  0
  149.4805  139.9032  154.0678 C   0  0  2  0  0  0  0  0  0  0  0  0
  150.7911  139.3089  154.6161 C   0  0  0  0  0  0  0  0  0  0  0  0
  150.8175  139.2982  156.1543 C   0  0  0  0  0  0  0  0  0  0  0  0
  150.5656  140.7010  156.7272 C   0  0  0  0  0  0  0  0  0  0  0  0
  149.2530  141.2952  156.1928 C   0  0  0  0  0  0  0  0  0  0  0  0
  149.2289  141.3160  154.6509 C   0  0  2  0  0  0  0  0  0  0  0  0
  147.9462  141.9684  154.1130 C   0  0  0  0  0  0  0  0  0  0  0  0
  145.3690  133.1328  151.5346 N   0  0  0  0  0  0  0  0  0  0  0  0
  144.4635  134.1071  150.9558 C   0  0  0  0  0  0  0  0  0  0  0  0
  145.1704  131.8197  151.2905 N   0  0  0  0  0  0  0  0  0  0  0  0
  147.0404  129.3165  152.4883 H   0  0  0  0  0  0  0  0  0  0  0  0
  146.3695  129.3505  150.8610 H   0  0  0  0  0  0  0  0  0  0  0  0
  145.2972  129.2395  152.2558 H   0  0  0  0  0  0  0  0  0  0  0  0
  147.8691  131.8490  153.2408 H   0  0  0  0  0  0  0  0  0  0  0  0
  147.8006  134.8126  152.4067 H   0  0  0  0  0  0  0  0  0  0  0  0
  147.8080  136.6598  153.0560 H   0  0  0  0  0  0  0  0  0  0  0  0
  145.3448  138.0730  153.5910 H   0  0  0  0  0  0  0  0  0  0  0  0
  146.2736  137.8233  155.0507 H   0  0  0  0  0  0  0  0  0  0  0  0
  147.6010  138.9830  152.5584 H   0  0  0  0  0  0  0  0  0  0  0  0
  146.7495  140.0093  153.7026 H   0  0  0  0  0  0  0  0  0  0  0  0
  149.5671  139.9653  152.9812 H   0  0  0  0  0  0  0  0  0  0  0  0
  150.9289  138.2966  154.2350 H   0  0  0  0  0  0  0  0  0  0  0  0
  151.6348  139.8924  154.2459 H   0  0  0  0  0  0  0  0  0  0  0  0
  150.0596  138.6096  156.5304 H   0  0  0  0  0  0  0  0  0  0  0  0
  151.7777  138.9205  156.5062 H   0  0  0  0  0  0  0  0  0  0  0  0
  150.5374  140.6579  157.8165 H   0  0  0  0  0  0  0  0  0  0  0  0
  151.3967  141.3571  156.4654 H   0  0  0  0  0  0  0  0  0  0  0  0
  148.4096  140.7169  156.5714 H   0  0  0  0  0  0  0  0  0  0  0  0
  149.1279  142.3063  156.5818 H   0  0  0  0  0  0  0  0  0  0  0  0
  150.0569  141.9473  154.3247 H   0  0  0  0  0  0  0  0  0  0  0  0
  147.0566  141.4264  154.4320 H   0  0  0  0  0  0  0  0  0  0  0  0
  147.9481  141.9991  153.0232 H   0  0  0  0  0  0  0  0  0  0  0  0
  147.8504  142.9936  154.4709 H   0  0  0  0  0  0  0  0  0  0  0  0
  144.6838  135.1078  151.3272 H   0  0  0  0  0  0  0  0  0  0  0  0
  143.4355  133.8555  151.2187 H   0  0  0  0  0  0  0  0  0  0  0  0
  144.5655  134.1021  149.8705 H   0  0  0  0  0  0  0  0  0  0  0  0
  1  2  1  0  0  0  0
  1 22  1  0  0  0  0
  1 23  1  0  0  0  0
  1 24  1  0  0  0  0
  2 21  2  0  0  0  0
  2  3  1  0  0  0  0
  3  4  2  0  0  0  0
  3 25  1  0  0  0  0
  4  5  1  0  0  0  0
  4 19  1  0  0  0  0
  5  6  1  0  0  0  0
  5 26  1  0  0  0  0
  6  7  2  0  0  0  0
  6  8  1  0  0  0  0
  8  9  1  0  0  0  0
  8 27  1  0  0  0  0
  9 10  1  0  0  0  0
  9 28  1  0  0  0  0
  9 29  1  0  0  0  0
 10 11  1  0  0  0  0
 10 30  1  0  0  0  0
 10 31  1  0  0  0  0
 11 12  1  0  0  0  0
 12 17  1  0  0  0  0
 12 13  1  0  0  0  0
 12 32  1  0  0  0  0
 13 14  1  0  0  0  0
 13 33  1  0  0  0  0
 13 34  1  0  0  0  0
 14 15  1  0  0  0  0
 14 35  1  0  0  0  0
 14 36  1  0  0  0  0
 15 16  1  0  0  0  0
 15 37  1  0  0  0  0
 15 38  1  0  0  0  0
 16 17  1  0  0  0  0
 16 39  1  0  0  0  0
 16 40  1  0  0  0  0
 17 18  1  0  0  0  0
 17 41  1  0  0  0  0
 18 42  1  0  0  0  0
 18 43  1  0  0  0  0
 18 44  1  0  0  0  0
 19 20  1  0  0  0  0
 19 21  1  0  0  0  0
 20 45  1  0  0  0  0
 20 46  1  0  0  0  0
 20 47  1  0  0  0  0
M  END
> <s_m_source_file>
AV-unprocessed.smi

> <i_m_source_file_index>
1945

> <i_lp_mmshare_version>
43012

> <i_f3d_flags>
0

> <s_epik_input>
W0NIM11jMVtjSF1jKG4objEpW0NIM10pW05IXUMoPU8pW05IXVtDSDJdW0NIMl1PW0NAQEhdMltDSDJdW0NIMl1bQ0gyXVtDSDJdW0NASF0yW0NIM10=

> <s_epik_cmdline>
J2VwaWtfcHl0aG9uJywgJy1waCcsICc3LjAnLCAnLXRuJywgJzgnLCAnLW1hJywgJzIwMCcsICctbWV0YWxfYmluZGluZycsICctaW1hZScsICc8aW5maWxlLm1hZT4nLCAnLW9tYWUnLCAnPG91dGZpbGUubWFlPic=

> <r_lp_tautomer_probability>
1

> <r_epik_Ionization_Penalty>
9.47735e-05

> <r_epik_Ionization_Penalty_Charging>
0

> <r_epik_Ionization_Penalty_Neutral>
9.47735e-05

> <r_epik_State_Penalty>
-0

> <r_epik_Charging_Adjusted_Penalty>
0

> <i_epik_Tot_Q>
0

> <i_epik_Tot_abs_Q>
0

> <r_epik_Metal_State_Penalty>
-0

> <b_epik_Metal_Only>
0

> <s_lp_Force_Field>
OPLS_2005

> <r_lp_Energy>
12.3815

> <b_lp_Chiralities_Consistent>
1

> <s_lp_Variant>
AV-unprocessed.smi:1945-3

> <Gold.Version>
5.8.1

> <Gold.Id.Protein>
6NUR|6NUR_protein|mol2

> <Gold.PLP.Fitness>
37.5007

> <Gold.PLP.PLP>
-33.4848

> <Gold.PLP.part.hbond>
-2.0000

> <Gold.PLP.part.metal>
0.0000

> <Gold.PLP.part.buried>
-0.4775

> <Gold.PLP.part.nonpolar>
-30.0622

> <Gold.PLP.part.repulsive>
0.3021

> <Gold.PLP.ligand.clash>
0.0000

> <Gold.PLP.ligand.torsion>
0.9618

> <Gold.PLP.Chemscore.Hbond>
1.9760

> <Gold.PLP.Chemscore.CHOScore>
0.0000

> <Gold.PLP.Chemscore.Metal>
0.0000

> <Gold.Chemscore.Hbonds>
donor molecule, donor type, donor heavy atom, donor atom, acceptor molecule, acceptor atom, score
      L1  H     5    26       P1  7948  0.98
      L1  H     8    27       P1  7948  1.00

> <Gold.PLP.Chemscore.Internal.Correction>
0.0115

> <Gold.Rescore>
     Score         DG    S(hbond)    S(metal)    S(lipo)     H(rot)  DE(clash)    DE(int)     intcor
     15.64     -16.92       1.77        0.00      82.97       1.63       0.30       0.99       ----

> <Gold.Chemscore.Fitness>
15.6368

> <Gold.Chemscore.DG>
-16.9236

> <Gold.Chemscore.ZeroCoef>
-5.4800

> <Gold.Chemscore.Hbond>
1.7703

> <Gold.Chemscore.Metal>
0.0000

> <Gold.Chemscore.Lipo>
82.9708

> <Gold.Chemscore.Internal_Hbond>
0.0000

> <Gold.Chemscore.DEClash>
0.3002

> <Gold.Chemscore.DEInternal>
0.9866

> <Gold.Chemscore.Rot>
1.6316

> <Gold.Chemscore.Internal.Correction>
   9.000000E+99

> <Gold.Chemscore.Hbonds>
donor molecule, donor type, donor heavy atom, donor atom, acceptor molecule, acceptor atom, score
      L1  H     5    26       P1  7948  0.77
      L1  H     8    27       P1  7948  0.97

> <Gold.Chemscore.Hbond.Weighted>
-5.9128

> <Gold.Chemscore.Metal.Weighted>
-0.0000

> <Gold.Chemscore.Lipo.Weighted>
-9.7076

> <Gold.Chemscore.Internal_Hbond.Weighted>
0.0000

> <Gold.Chemscore.DEClash.Weighted>
0.3002

> <Gold.Chemscore.DEInternal.Weighted>
0.9866

> <Gold.Chemscore.Rot.Weighted>
4.1768

> <Gold.Chemscore.Internal.Correction.Weighted>
   9.000000E+99

> <Gold.Protein.RotatedTorsions>
[ 6907 6896 6895 6894 ] final  152.17 input  -60.11 | X-H torsion
[ 7974 7965 7964 7962 ] final   95.92 input  175.53 | X-H torsion
[ 8008 7997 7996 7995 ] final  -66.13 input   59.86 | X-H torsion
[ 10167 10162 10161 10158 ] final  -39.52 input  -65.29 | X-H torsion
[ 10718 10713 10712 10709 ] final   73.45 input   66.30 | X-H torsion
[ 10763 10752 10751 10750 ] final  -14.06 input  -60.55 | X-H torsion
[ 11005 11000 10999 10996 ] final  -40.35 input  -57.11 | X-H torsion

> <Gold.Protein.ActiveResidues>
 VAL166  LYS551  ARG553  GLY616  TRP617  ASP618  TYR619  PRO620  LYS621  CYS622 
 ASP623  PHE694  ASN695  SER759  ASP760  ASP761  ALA762  ILE779  LEU786  VAL792 
 PHE793  MET794  SER795  GLU796  ALA797  LYS798  CYS799  TRP800  GLU811  SER814 

> <Gold.Protein.RotatedAtoms>
  152.0904  133.4197  159.4540 H   0  0  0  0  0  0  0  0  0  0  0  0  # atno 6907 bound_to 6896
  150.6862  134.2878  159.4663 H   0  0  0  0  0  0  0  0  0  0  0  0  # atno 6908 bound_to 6896
  152.0729  134.9521  160.0625 H   0  0  0  0  0  0  0  0  0  0  0  0  # atno 6909 bound_to 6896
  145.4457  139.2297  143.3067 H   0  0  0  0  0  0  0  0  0  0  0  0  # atno 7974 bound_to 7965
  154.4715  140.0919  156.7157 H   0  0  0  0  0  0  0  0  0  0  0  0  # atno 8008 bound_to 7997
  155.4711  140.3464  155.4307 H   0  0  0  0  0  0  0  0  0  0  0  0  # atno 8009 bound_to 7997
  156.1047  140.1431  156.9409 H   0  0  0  0  0  0  0  0  0  0  0  0  # atno 8010 bound_to 7997
  140.7061  143.3209  151.2795 H   0  0  0  0  0  0  0  0  0  0  0  0  # atno 10167 bound_to 10162
  157.6548  130.9629  150.1071 H   0  0  0  0  0  0  0  0  0  0  0  0  # atno 10718 bound_to 10713
  153.5226  135.7015  153.5723 H   0  0  0  0  0  0  0  0  0  0  0  0  # atno 10763 bound_to 10752
  153.3765  135.3931  155.1826 H   0  0  0  0  0  0  0  0  0  0  0  0  # atno 10764 bound_to 10752
  154.8693  135.3825  154.4716 H   0  0  0  0  0  0  0  0  0  0  0  0  # atno 10765 bound_to 10752
  141.0168  133.6881  156.2310 H   0  0  0  0  0  0  0  0  0  0  0  0  # atno 11005 bound_to 11000
  146.2532  140.5210  142.8884 LP  0  0  0  0  0  0  0  0  0  0  0  0  # atno 17320 bound_to 7965
  144.8093  140.6357  143.6426 LP  0  0  0  0  0  0  0  0  0  0  0  0  # atno 17321 bound_to 7965
  139.6662  144.0100  152.2725 LP  0  0  0  0  0  0  0  0  0  0  0  0  # atno 17342 bound_to 10162
  139.9684  144.6510  150.8013 LP  0  0  0  0  0  0  0  0  0  0  0  0  # atno 17343 bound_to 10162
  156.1978  130.3658  149.8827 LP  0  0  0  0  0  0  0  0  0  0  0  0  # atno 17370 bound_to 10713
  156.6739  130.8831  151.3566 LP  0  0  0  0  0  0  0  0  0  0  0  0  # atno 17371 bound_to 10713
  140.6641  134.4937  157.5584 LP  0  0  0  0  0  0  0  0  0  0  0  0  # atno 17394 bound_to 11000
  139.9122  134.8321  156.1489 LP  0  0  0  0  0  0  0  0  0  0  0  0  # atno 17395 bound_to 11000

$$$$
