AV-unprocessed.smi:1193|AV-procd|sdf|4989|dock4
  -GOLD-   22720 3583D 1   1.00000     0.00000
 Structure written by MMmdl.
 38 39  0  0  0  0  0  0  0  0  1 V2000
  152.1862  138.5266  154.6462 C   0  0  0  0  0  0  0  0  0  0  0  0
  150.8268  138.2977  154.2914 O   0  0  0  0  0  0  0  0  0  0  0  0
  149.9274  139.3399  154.4148 C   0  0  0  0  0  0  0  0  0  0  0  0
  150.3947  140.5514  154.8080 N   0  0  0  0  0  0  0  0  0  0  0  0
  149.5183  141.5691  154.9314 C   0  0  0  0  0  0  0  0  0  0  0  0
  148.1411  141.4345  154.6782 C   0  0  0  0  0  0  0  0  0  0  0  0
  147.6538  140.1788  154.2705 C   0  0  0  0  0  0  0  0  0  0  0  0
  148.5637  139.1038  154.1223 C   0  0  0  0  0  0  0  0  0  0  0  0
  148.1793  137.7907  153.7335 N   0  0  0  0  0  0  0  0  0  0  0  0
  147.0916  137.0900  154.0960 C   0  0  0  0  0  0  0  0  0  0  0  0
  146.2105  137.4828  154.8604 O   0  0  0  0  0  0  0  0  0  0  0  0
  147.0710  135.8891  153.4998 N   0  0  0  0  0  0  0  0  0  0  0  0
  146.0346  134.8750  153.6837 C   0  0  0  0  0  0  0  0  0  0  0  0
  146.3792  133.5247  153.0292 C   0  0  0  0  0  0  0  0  0  0  0  0
  147.2735  132.8214  153.5035 O   0  0  0  0  0  0  0  0  0  0  0  0
  145.6883  133.1571  151.9303 N   0  0  0  0  0  0  0  0  0  0  0  0
  144.6300  133.9343  151.2860 C   0  0  0  0  0  0  0  0  0  0  0  0
  144.3539  133.2322  149.9561 C   0  0  0  0  0  0  0  0  0  0  0  0
  144.7774  131.7906  150.2012 C   0  0  0  0  0  0  0  0  0  0  0  0
  145.9174  131.9039  151.2139 C   0  0  0  0  0  0  0  0  0  0  0  0
  152.7585  137.6128  154.4862 H   0  0  0  0  0  0  0  0  0  0  0  0
  152.2839  138.7979  155.6984 H   0  0  0  0  0  0  0  0  0  0  0  0
  152.6335  139.3087  154.0309 H   0  0  0  0  0  0  0  0  0  0  0  0
  149.9264  142.5177  155.2471 H   0  0  0  0  0  0  0  0  0  0  0  0
  147.4725  142.2740  154.7988 H   0  0  0  0  0  0  0  0  0  0  0  0
  146.5954  140.0648  154.0952 H   0  0  0  0  0  0  0  0  0  0  0  0
  148.7721  137.3590  153.0396 H   0  0  0  0  0  0  0  0  0  0  0  0
  147.8367  135.6489  152.8876 H   0  0  0  0  0  0  0  0  0  0  0  0
  145.8394  134.7377  154.7485 H   0  0  0  0  0  0  0  0  0  0  0  0
  145.1138  135.2530  153.2392 H   0  0  0  0  0  0  0  0  0  0  0  0
  143.7402  133.9152  151.9173 H   0  0  0  0  0  0  0  0  0  0  0  0
  144.9144  134.9752  151.1273 H   0  0  0  0  0  0  0  0  0  0  0  0
  143.3145  133.3207  149.6388 H   0  0  0  0  0  0  0  0  0  0  0  0
  144.9793  133.6681  149.1756 H   0  0  0  0  0  0  0  0  0  0  0  0
  143.9474  131.2383  150.6440 H   0  0  0  0  0  0  0  0  0  0  0  0
  145.0732  131.2741  149.2876 H   0  0  0  0  0  0  0  0  0  0  0  0
  146.8798  131.9589  150.7033 H   0  0  0  0  0  0  0  0  0  0  0  0
  145.9382  131.0443  151.8857 H   0  0  0  0  0  0  0  0  0  0  0  0
  1  2  1  0  0  0  0
  1 21  1  0  0  0  0
  1 22  1  0  0  0  0
  1 23  1  0  0  0  0
  2  3  1  0  0  0  0
  3  8  1  0  0  0  0
  3  4  2  0  0  0  0
  4  5  1  0  0  0  0
  5  6  2  0  0  0  0
  5 24  1  0  0  0  0
  6  7  1  0  0  0  0
  6 25  1  0  0  0  0
  7  8  2  0  0  0  0
  7 26  1  0  0  0  0
  8  9  1  0  0  0  0
  9 10  1  0  0  0  0
  9 27  1  0  0  0  0
 10 11  2  0  0  0  0
 10 12  1  0  0  0  0
 12 13  1  0  0  0  0
 12 28  1  0  0  0  0
 13 14  1  0  0  0  0
 13 29  1  0  0  0  0
 13 30  1  0  0  0  0
 14 15  2  0  0  0  0
 14 16  1  0  0  0  0
 16 20  1  0  0  0  0
 16 17  1  0  0  0  0
 17 18  1  0  0  0  0
 17 31  1  0  0  0  0
 17 32  1  0  0  0  0
 18 19  1  0  0  0  0
 18 33  1  0  0  0  0
 18 34  1  0  0  0  0
 19 20  1  0  0  0  0
 19 35  1  0  0  0  0
 19 36  1  0  0  0  0
 20 37  1  0  0  0  0
 20 38  1  0  0  0  0
M  END
> <s_m_source_file>
AV-unprocessed.smi

> <i_m_source_file_index>
1193

> <i_lp_mmshare_version>
43012

> <i_f3d_flags>
0

> <s_epik_input>
W0NIM11PYzFuW2NIXVtjSF1bY0hdYzFbTkhdQyg9TylbTkhdW0NIMl1DKD1PKU4yW0NIMl1bQ0gyXVtDSDJdW0NIMl0y

> <s_epik_cmdline>
J2VwaWtfcHl0aG9uJywgJy1waCcsICc3LjAnLCAnLXRuJywgJzgnLCAnLW1hJywgJzIwMCcsICctbWV0YWxfYmluZGluZycsICctaW1hZScsICc8aW5maWxlLm1hZT4nLCAnLW9tYWUnLCAnPG91dGZpbGUubWFlPic=

> <r_lp_tautomer_probability>
1

> <r_epik_Ionization_Penalty>
0.000141665

> <r_epik_Ionization_Penalty_Charging>
0

> <r_epik_Ionization_Penalty_Neutral>
0.000141665

> <r_epik_State_Penalty>
-0

> <r_epik_Charging_Adjusted_Penalty>
0

> <i_epik_Tot_Q>
0

> <i_epik_Tot_abs_Q>
0

> <r_epik_Metal_State_Penalty>
-0

> <b_epik_Metal_Only>
0

> <s_lp_Force_Field>
OPLS_2005

> <r_lp_Energy>
26.7485

> <b_lp_Chiralities_Consistent>
1

> <s_lp_Variant>
AV-unprocessed.smi:1193-1

> <Gold.Version>
5.8.1

> <Gold.Id.Protein>
6NUR|6NUR_protein|mol2

> <Gold.PLP.Fitness>
43.4838

> <Gold.PLP.PLP>
-32.6829

> <Gold.PLP.part.hbond>
-3.0000

> <Gold.PLP.part.metal>
0.0000

> <Gold.PLP.part.buried>
-5.2024

> <Gold.PLP.part.nonpolar>
-26.1104

> <Gold.PLP.part.repulsive>
0.4567

> <Gold.PLP.ligand.clash>
0.0000

> <Gold.PLP.ligand.torsion>
0.4608

> <Gold.PLP.Chemscore.Hbond>
2.9040

> <Gold.PLP.Chemscore.CHOScore>
1.0000

> <Gold.PLP.Chemscore.Metal>
0.0000

> <Gold.Chemscore.Hbonds>
donor molecule, donor type, donor heavy atom, donor atom, acceptor molecule, acceptor atom, score
      L1  H     9    27       P1  7948  0.99
      L1  H    12    28       P1  7948  0.93
      P1  H  7989  7998       L1     4  0.96
      L1  C     5    24       P1  8028  1.00

> <Gold.PLP.Chemscore.Internal.Correction>
0.0104

> <Gold.Rescore>
     Score         DG    S(hbond)    S(metal)    S(lipo)     H(rot)  DE(clash)    DE(int)     intcor
     16.70     -17.28       2.33        0.00      68.98       1.58       0.08       0.49       ----

> <Gold.Chemscore.Fitness>
16.7046

> <Gold.Chemscore.DG>
-17.2779

> <Gold.Chemscore.ZeroCoef>
-5.4800

> <Gold.Chemscore.Hbond>
2.3272

> <Gold.Chemscore.Metal>
0.0000

> <Gold.Chemscore.Lipo>
68.9823

> <Gold.Chemscore.Internal_Hbond>
0.0000

> <Gold.Chemscore.DEClash>
0.0825

> <Gold.Chemscore.DEInternal>
0.4909

> <Gold.Chemscore.Rot>
1.5804

> <Gold.Chemscore.Internal.Correction>
   9.000000E+99

> <Gold.Chemscore.Hbonds>
donor molecule, donor type, donor heavy atom, donor atom, acceptor molecule, acceptor atom, score
      L1  H     9    27       P1  7948  0.94
      L1  H    12    28       P1  7948  0.89
      P1  H  7989  7998       L1     4  0.22

> <Gold.Chemscore.Hbond.Weighted>
-7.7729

> <Gold.Chemscore.Metal.Weighted>
-0.0000

> <Gold.Chemscore.Lipo.Weighted>
-8.0709

> <Gold.Chemscore.Internal_Hbond.Weighted>
0.0000

> <Gold.Chemscore.DEClash.Weighted>
0.0825

> <Gold.Chemscore.DEInternal.Weighted>
0.4909

> <Gold.Chemscore.Rot.Weighted>
4.0459

> <Gold.Chemscore.Internal.Correction.Weighted>
   9.000000E+99

> <Gold.Protein.RotatedTorsions>
[ 6907 6896 6895 6894 ] final   -0.67 input  -60.11 | X-H torsion
[ 7974 7965 7964 7962 ] final  162.89 input  175.53 | X-H torsion
[ 8008 7997 7996 7995 ] final  -55.29 input   59.86 | X-H torsion
[ 10167 10162 10161 10158 ] final  -99.30 input  -65.29 | X-H torsion
[ 10718 10713 10712 10709 ] final  -99.00 input   66.30 | X-H torsion
[ 10763 10752 10751 10750 ] final   74.09 input  -60.55 | X-H torsion
[ 11005 11000 10999 10996 ] final  103.14 input  -57.11 | X-H torsion

> <Gold.Protein.ActiveResidues>
 VAL166  LYS551  ARG553  GLY616  TRP617  ASP618  TYR619  PRO620  LYS621  CYS622 
 ASP623  PHE694  ASN695  SER759  ASP760  ASP761  ALA762  ILE779  LEU786  VAL792 
 PHE793  MET794  SER795  GLU796  ALA797  LYS798  CYS799  TRP800  GLU811  SER814 

> <Gold.Protein.RotatedAtoms>
  151.5585  135.1066  159.9966 H   0  0  0  0  0  0  0  0  0  0  0  0  # atno 6907 bound_to 6896
  152.4458  133.7529  159.6715 H   0  0  0  0  0  0  0  0  0  0  0  0  # atno 6908 bound_to 6896
  150.8373  133.7925  159.3098 H   0  0  0  0  0  0  0  0  0  0  0  0  # atno 6909 bound_to 6896
  144.7615  139.8104  143.6331 H   0  0  0  0  0  0  0  0  0  0  0  0  # atno 7974 bound_to 7965
  154.4190  140.1156  156.5453 H   0  0  0  0  0  0  0  0  0  0  0  0  # atno 8008 bound_to 7997
  155.6466  140.3496  155.4714 H   0  0  0  0  0  0  0  0  0  0  0  0  # atno 8009 bound_to 7997
  155.9827  140.1163  157.0701 H   0  0  0  0  0  0  0  0  0  0  0  0  # atno 8010 bound_to 7997
  140.2639  143.3389  152.0600 H   0  0  0  0  0  0  0  0  0  0  0  0  # atno 10167 bound_to 10162
  156.0122  130.5263  150.6605 H   0  0  0  0  0  0  0  0  0  0  0  0  # atno 10718 bound_to 10713
  153.0564  135.5039  154.7990 H   0  0  0  0  0  0  0  0  0  0  0  0  # atno 10763 bound_to 10752
  154.6813  135.2969  154.9611 H   0  0  0  0  0  0  0  0  0  0  0  0  # atno 10764 bound_to 10752
  154.0396  135.6718  153.4841 H   0  0  0  0  0  0  0  0  0  0  0  0  # atno 10765 bound_to 10752
  139.8782  134.9251  156.5165 H   0  0  0  0  0  0  0  0  0  0  0  0  # atno 11005 bound_to 11000
  146.1683  139.4823  142.9944 LP  0  0  0  0  0  0  0  0  0  0  0  0  # atno 17320 bound_to 7965
  145.6604  141.0242  143.1712 LP  0  0  0  0  0  0  0  0  0  0  0  0  # atno 17321 bound_to 7965
  139.5008  144.6701  151.6263 LP  0  0  0  0  0  0  0  0  0  0  0  0  # atno 17342 bound_to 10162
  140.5944  143.9722  150.6345 LP  0  0  0  0  0  0  0  0  0  0  0  0  # atno 17343 bound_to 10162
  157.4348  131.0854  151.1002 LP  0  0  0  0  0  0  0  0  0  0  0  0  # atno 17370 bound_to 10713
  157.1564  130.6206  149.5597 LP  0  0  0  0  0  0  0  0  0  0  0  0  # atno 17371 bound_to 10713
  140.8482  133.8152  155.9142 LP  0  0  0  0  0  0  0  0  0  0  0  0  # atno 17394 bound_to 11000
  140.9170  134.2189  157.4950 LP  0  0  0  0  0  0  0  0  0  0  0  0  # atno 17395 bound_to 11000

$$$$
