AV-unprocessed.smi:1213|AV-procd|sdf|5090|dock10
  -GOLD-   22720 4143D 1   1.00000     0.00000
 Structure written by MMmdl.
 36 37  0  0  0  0  0  0  0  0  3 V2000
  143.8640  134.7284  149.4955 N   0  0  0  0  0  0  0  0  0  0  0  0
  144.3188  134.8926  150.7397 C   0  0  0  0  0  0  0  0  0  0  0  0
  143.5632  135.0223  151.7012 O   0  0  0  0  0  0  0  0  0  0  0  0
  145.8401  134.8920  150.9246 C   0  0  0  0  0  0  0  0  0  0  0  0
  146.3386  136.0788  151.6666 N   0  3  2  0  0  0  0  0  0  0  0  0
  145.8787  136.1200  153.0810 C   0  0  0  0  0  0  0  0  0  0  0  0
  146.5292  137.2875  153.8408 C   0  0  0  0  0  0  0  0  0  0  0  0
  146.2450  138.6271  153.1435 C   0  0  1  0  0  0  0  0  0  0  0  0
  146.9396  139.7052  153.8403 N   0  0  0  0  0  0  0  0  0  0  0  0
  148.2491  139.7421  154.1250 C   0  0  0  0  0  0  0  0  0  0  0  0
  148.9779  138.8046  153.7918 O   0  0  0  0  0  0  0  0  0  0  0  0
  148.6298  140.8610  154.7808 N   0  5  0  0  0  0  0  0  0  0  0  0
  149.7720  140.8696  155.4870 C   0  0  0  0  0  0  0  0  0  0  0  0
  150.8680  140.2022  155.1087 N   0  0  0  0  0  0  0  0  0  0  0  0
  151.9426  140.3567  155.9866 C   0  0  0  0  0  0  0  0  0  0  0  0
  151.6605  141.1672  157.0540 C   0  0  0  0  0  0  0  0  0  0  0  0
  150.0270  141.7645  156.9879 S   0  0  0  0  0  0  0  0  0  0  0  0
  146.6936  138.5469  151.6731 C   0  0  0  0  0  0  0  0  0  0  0  0
  146.0439  137.3510  150.9594 C   0  0  0  0  0  0  0  0  0  0  0  0
  142.8683  134.7177  149.3244 H   0  0  0  0  0  0  0  0  0  0  0  0
  144.5100  134.6112  148.7280 H   0  0  0  0  0  0  0  0  0  0  0  0
  146.0850  133.9842  151.4778 H   0  0  0  0  0  0  0  0  0  0  0  0
  146.3436  134.8155  149.9594 H   0  0  0  0  0  0  0  0  0  0  0  0
  144.7920  136.2147  153.1098 H   0  0  0  0  0  0  0  0  0  0  0  0
  146.1257  135.1855  153.5853 H   0  0  0  0  0  0  0  0  0  0  0  0
  146.1575  137.3130  154.8659 H   0  0  0  0  0  0  0  0  0  0  0  0
  147.6058  137.1221  153.9059 H   0  0  0  0  0  0  0  0  0  0  0  0
  145.1696  138.8115  153.1814 H   0  0  0  0  0  0  0  0  0  0  0  0
  146.3836  140.4961  154.1317 H   0  0  0  0  0  0  0  0  0  0  0  0
  152.8735  139.8532  155.7719 H   0  0  0  0  0  0  0  0  0  0  0  0
  152.3092  141.4490  157.8694 H   0  0  0  0  0  0  0  0  0  0  0  0
  146.4379  139.4680  151.1481 H   0  0  0  0  0  0  0  0  0  0  0  0
  147.7797  138.4546  151.6214 H   0  0  0  0  0  0  0  0  0  0  0  0
  146.4196  137.3008  149.9368 H   0  0  0  0  0  0  0  0  0  0  0  0
  144.9637  137.4918  150.8948 H   0  0  0  0  0  0  0  0  0  0  0  0
  147.3453  135.9944  151.6882 H   0  0  0  0  0  0  0  0  0  0  0  0
  1  2  1  0  0  0  0
  1 20  1  0  0  0  0
  1 21  1  0  0  0  0
  2  3  2  0  0  0  0
  2  4  1  0  0  0  0
  4  5  1  0  0  0  0
  4 22  1  0  0  0  0
  4 23  1  0  0  0  0
  5 19  1  0  0  0  0
  5  6  1  0  0  0  0
  5 36  1  0  0  0  0
  6  7  1  0  0  0  0
  6 24  1  0  0  0  0
  6 25  1  0  0  0  0
  7  8  1  0  0  0  0
  7 26  1  0  0  0  0
  7 27  1  0  0  0  0
  8  9  1  0  0  0  0
  8 18  1  0  0  0  0
  8 28  1  0  0  0  0
  9 10  1  0  0  0  0
  9 29  1  0  0  0  0
 10 11  2  0  0  0  0
 10 12  1  0  0  0  0
 12 13  1  0  0  0  0
 13 17  1  0  0  0  0
 13 14  2  0  0  0  0
 14 15  1  0  0  0  0
 15 16  2  0  0  0  0
 15 30  1  0  0  0  0
 16 17  1  0  0  0  0
 16 31  1  0  0  0  0
 18 19  1  0  0  0  0
 18 32  1  0  0  0  0
 18 33  1  0  0  0  0
 19 34  1  0  0  0  0
 19 35  1  0  0  0  0
M  CHG  1   5   1
M  CHG  1  12  -1
M  END
> <s_m_source_file>
AV-unprocessed.smi

> <i_m_source_file_index>
1213

> <i_lp_mmshare_version>
43012

> <i_f3d_flags>
0

> <s_epik_input>
W05IMl1DKD1PKVtDSDJdTjFbQ0gyXVtDSDJdW0NIXShbQ0gyXVtDSDJdMSlbTkhdQyg9TylbTkhdYzJuW2NIXVtjSF1zMg==

> <s_epik_cmdline>
J2VwaWtfcHl0aG9uJywgJy1waCcsICc3LjAnLCAnLXRuJywgJzgnLCAnLW1hJywgJzIwMCcsICctbWV0YWxfYmluZGluZycsICctaW1hZScsICc8aW5maWxlLm1hZT4nLCAnLW9tYWUnLCAnPG91dGZpbGUubWFlPic=

> <r_lp_tautomer_probability>
0.999

> <r_epik_Ionization_Penalty>
7.1168

> <r_epik_Ionization_Penalty_Charging>
6.25003

> <r_epik_Ionization_Penalty_Neutral>
0.866763

> <r_epik_State_Penalty>
6.33484

> <r_epik_Charging_Adjusted_Penalty>
12.5849

> <i_epik_Tot_Q>
0

> <i_epik_Tot_abs_Q>
2

> <r_epik_Metal_State_Penalty>
2.3501

> <b_epik_Metal_Only>
1

> <s_lp_Force_Field>
OPLS_2005

> <r_lp_Energy>
2.02951

> <b_lp_Chiralities_Consistent>
1

> <s_lp_Variant>
AV-unprocessed.smi:1213-7

> <Gold.Version>
5.8.1

> <Gold.Id.Protein>
6NUR|6NUR_protein|mol2

> <Gold.PLP.Fitness>
41.0897

> <Gold.PLP.PLP>
-26.9362

> <Gold.PLP.part.hbond>
-4.0000

> <Gold.PLP.part.metal>
0.0000

> <Gold.PLP.part.buried>
1.7060

> <Gold.PLP.part.nonpolar>
-24.9925

> <Gold.PLP.part.repulsive>
1.7956

> <Gold.PLP.ligand.clash>
0.0000

> <Gold.PLP.ligand.torsion>
0.4465

> <Gold.PLP.Chemscore.Hbond>
5.0000

> <Gold.PLP.Chemscore.CHOScore>
0.0000

> <Gold.PLP.Chemscore.Metal>
0.0000

> <Gold.Chemscore.Hbonds>
donor molecule, donor type, donor heavy atom, donor atom, acceptor molecule, acceptor atom, score
      L1  H     1    20       P1 10186  1.00
      L1  H     1    21       P1  7921  1.00
      L1  H     5    36       P1  7948  2.00
      P1  H  7989  7998       L1    14  1.00

> <Gold.PLP.Chemscore.Internal.Correction>
0.0466

> <Gold.Rescore>
     Score         DG    S(hbond)    S(metal)    S(lipo)     H(rot)  DE(clash)    DE(int)     intcor
     11.77     -17.91       3.36        0.00      54.80       2.04       1.57       4.57       ----

> <Gold.Chemscore.Fitness>
11.7674

> <Gold.Chemscore.DG>
-17.9062

> <Gold.Chemscore.ZeroCoef>
-5.4800

> <Gold.Chemscore.Hbond>
3.3624

> <Gold.Chemscore.Metal>
0.0000

> <Gold.Chemscore.Lipo>
54.7956

> <Gold.Chemscore.Internal_Hbond>
0.0000

> <Gold.Chemscore.DEClash>
1.5713

> <Gold.Chemscore.DEInternal>
4.5676

> <Gold.Chemscore.Rot>
2.0373

> <Gold.Chemscore.Internal.Correction>
   9.000000E+99

> <Gold.Chemscore.Hbonds>
donor molecule, donor type, donor heavy atom, donor atom, acceptor molecule, acceptor atom, score
      L1  H     1    20       P1 10186  0.95
      L1  H     1    21       P1  7921  0.98
      L1  H     5    36       P1  7948  0.99
      P1  H  7989  7998       L1    14  0.22

> <Gold.Chemscore.Hbond.Weighted>
-11.2305

> <Gold.Chemscore.Metal.Weighted>
-0.0000

> <Gold.Chemscore.Lipo.Weighted>
-6.4111

> <Gold.Chemscore.Internal_Hbond.Weighted>
0.0000

> <Gold.Chemscore.DEClash.Weighted>
1.5713

> <Gold.Chemscore.DEInternal.Weighted>
4.5676

> <Gold.Chemscore.Rot.Weighted>
5.2154

> <Gold.Chemscore.Internal.Correction.Weighted>
   9.000000E+99

> <Gold.Protein.RotatedTorsions>
[ 6907 6896 6895 6894 ] final  -26.46 input  -60.11 | X-H torsion
[ 7974 7965 7964 7962 ] final  122.48 input  175.53 | X-H torsion
[ 8008 7997 7996 7995 ] final -142.56 input   59.86 | X-H torsion
[ 10167 10162 10161 10158 ] final  136.37 input  -65.29 | X-H torsion
[ 10718 10713 10712 10709 ] final -102.75 input   66.30 | X-H torsion
[ 10763 10752 10751 10750 ] final   17.41 input  -60.55 | X-H torsion
[ 11005 11000 10999 10996 ] final   -8.03 input  -57.11 | X-H torsion

> <Gold.Protein.ActiveResidues>
 VAL166  LYS551  ARG553  GLY616  TRP617  ASP618  TYR619  PRO620  LYS621  CYS622 
 ASP623  PHE694  ASN695  SER759  ASP760  ASP761  ALA762  ILE779  LEU786  VAL792 
 PHE793  MET794  SER795  GLU796  ALA797  LYS798  CYS799  TRP800  GLU811  SER814 

> <Gold.Protein.RotatedAtoms>
  151.1606  135.0271  159.8708 H   0  0  0  0  0  0  0  0  0  0  0  0  # atno 6907 bound_to 6896
  152.5451  134.1284  159.8438 H   0  0  0  0  0  0  0  0  0  0  0  0  # atno 6908 bound_to 6896
  151.1378  133.4946  159.2630 H   0  0  0  0  0  0  0  0  0  0  0  0  # atno 6909 bound_to 6896
  145.1071  139.3478  143.4782 H   0  0  0  0  0  0  0  0  0  0  0  0  # atno 7974 bound_to 7965
  155.4963  140.0572  157.2946 H   0  0  0  0  0  0  0  0  0  0  0  0  # atno 8008 bound_to 7997
  154.4604  140.1993  156.0211 H   0  0  0  0  0  0  0  0  0  0  0  0  # atno 8009 bound_to 7997
  156.0879  140.3237  155.7781 H   0  0  0  0  0  0  0  0  0  0  0  0  # atno 8010 bound_to 7997
  139.5182  144.6468  151.5417 H   0  0  0  0  0  0  0  0  0  0  0  0  # atno 10167 bound_to 10162
  156.0240  130.5435  150.7154 H   0  0  0  0  0  0  0  0  0  0  0  0  # atno 10718 bound_to 10713
  153.1341  135.6746  153.9131 H   0  0  0  0  0  0  0  0  0  0  0  0  # atno 10763 bound_to 10752
  153.8608  135.3081  155.3439 H   0  0  0  0  0  0  0  0  0  0  0  0  # atno 10764 bound_to 10752
  154.7732  135.4928  153.9774 H   0  0  0  0  0  0  0  0  0  0  0  0  # atno 10765 bound_to 10752
  140.7192  133.8843  155.8807 H   0  0  0  0  0  0  0  0  0  0  0  0  # atno 11005 bound_to 11000
  146.3528  140.0973  142.8609 LP  0  0  0  0  0  0  0  0  0  0  0  0  # atno 17320 bound_to 7965
  145.0890  140.9271  143.4780 LP  0  0  0  0  0  0  0  0  0  0  0  0  # atno 17321 bound_to 7965
  140.6256  143.9175  150.6562 LP  0  0  0  0  0  0  0  0  0  0  0  0  # atno 17342 bound_to 10162
  140.2463  143.3626  152.1444 LP  0  0  0  0  0  0  0  0  0  0  0  0  # atno 17343 bound_to 10162
  157.4782  131.0900  151.0566 LP  0  0  0  0  0  0  0  0  0  0  0  0  # atno 17370 bound_to 10713
  157.1007  130.5980  149.5459 LP  0  0  0  0  0  0  0  0  0  0  0  0  # atno 17371 bound_to 10713
  141.0018  134.1139  157.4309 LP  0  0  0  0  0  0  0  0  0  0  0  0  # atno 17394 bound_to 11000
  139.8852  135.0070  156.6421 LP  0  0  0  0  0  0  0  0  0  0  0  0  # atno 17395 bound_to 11000

$$$$
