AV-unprocessed.smi:1434|AV-procd|sdf|5852|dock3
  -GOLD-   22720 5523D 1   1.00000     0.00000
 Structure written by MMmdl.
 45 46  0  0  0  0  0  0  0  0  2 V2000
  151.8397  141.0605  159.3099 C   0  0  0  0  0  0  0  0  0  0  0  0
  152.8926  139.6321  158.8332 S   0  0  0  0  0  0  0  0  0  0  0  0
  154.2874  139.9200  159.1996 O   0  0  0  0  0  0  0  0  0  0  0  0
  152.2443  138.3981  159.3027 O   0  0  0  0  0  0  0  0  0  0  0  0
  152.7945  139.6565  157.1115 N   0  0  0  0  0  0  0  0  0  0  0  0
  151.6117  139.0788  156.4719 C   0  0  1  0  0  0  0  0  0  0  0  0
  150.7066  140.1949  155.9082 C   0  0  0  0  0  0  0  0  0  0  0  0
  149.5566  139.6204  155.0586 C   0  0  0  0  0  0  0  0  0  0  0  0
  150.0858  138.6194  154.0149 C   0  0  0  0  0  0  0  0  0  0  0  0
  150.8415  137.5644  154.7126 N   0  0  0  0  0  0  0  0  0  0  0  0
  150.3997  136.3093  154.9779 C   0  0  0  0  0  0  0  0  0  0  0  0
  151.1018  135.4409  155.4975 O   0  0  0  0  0  0  0  0  0  0  0  0
  149.1400  136.0619  154.5836 N   0  0  0  0  0  0  0  0  0  0  0  0
  148.4613  134.7835  154.7434 C   0  0  0  0  0  0  0  0  0  0  0  0
  149.0258  133.7429  153.7672 C   0  0  0  0  0  0  0  0  0  0  0  0
  147.9622  133.2027  152.8313 C   0  0  0  0  0  0  0  0  0  0  0  0
  147.5395  131.8562  152.8721 C   0  0  0  0  0  0  0  0  0  0  0  0
  146.5369  131.4215  151.9802 C   0  0  0  0  0  0  0  0  0  0  0  0
  145.9785  132.3410  151.0681 C   0  0  0  0  0  0  0  0  0  0  0  0
  146.4369  133.6741  151.0715 C   0  0  0  0  0  0  0  0  0  0  0  0
  147.3989  134.0523  151.9418 N   0  3  0  0  0  0  0  0  0  0  0  0
  152.0438  138.1101  155.3542 C   0  0  0  0  0  0  0  0  0  0  0  0
  151.8092  141.1402  160.3965 H   0  0  0  0  0  0  0  0  0  0  0  0
  150.8294  140.9109  158.9300 H   0  0  0  0  0  0  0  0  0  0  0  0
  152.2544  141.9769  158.8911 H   0  0  0  0  0  0  0  0  0  0  0  0
  153.6499  139.2934  156.6916 H   0  0  0  0  0  0  0  0  0  0  0  0
  151.0554  138.5109  157.2196 H   0  0  0  0  0  0  0  0  0  0  0  0
  150.3037  140.8064  156.7159 H   0  0  0  0  0  0  0  0  0  0  0  0
  151.3030  140.8630  155.2851 H   0  0  0  0  0  0  0  0  0  0  0  0
  148.8372  139.1209  155.7089 H   0  0  0  0  0  0  0  0  0  0  0  0
  149.0179  140.4299  154.5651 H   0  0  0  0  0  0  0  0  0  0  0  0
  149.2597  138.2457  153.4101 H   0  0  0  0  0  0  0  0  0  0  0  0
  150.7476  139.1301  153.3139 H   0  0  0  0  0  0  0  0  0  0  0  0
  148.6224  136.8112  154.1476 H   0  0  0  0  0  0  0  0  0  0  0  0
  148.5805  134.4311  155.7696 H   0  0  0  0  0  0  0  0  0  0  0  0
  147.3931  134.9249  154.5718 H   0  0  0  0  0  0  0  0  0  0  0  0
  149.8302  134.1809  153.1742 H   0  0  0  0  0  0  0  0  0  0  0  0
  149.4677  132.9131  154.3209 H   0  0  0  0  0  0  0  0  0  0  0  0
  147.9741  131.1642  153.5789 H   0  0  0  0  0  0  0  0  0  0  0  0
  146.1994  130.3955  151.9966 H   0  0  0  0  0  0  0  0  0  0  0  0
  145.2089  132.0280  150.3775 H   0  0  0  0  0  0  0  0  0  0  0  0
  146.0658  134.4437  150.4107 H   0  0  0  0  0  0  0  0  0  0  0  0
  152.6442  138.6331  154.6080 H   0  0  0  0  0  0  0  0  0  0  0  0
  152.6908  137.3289  155.7570 H   0  0  0  0  0  0  0  0  0  0  0  0
  147.7137  135.0227  151.9279 H   0  0  0  0  0  0  0  0  0  0  0  0
  1  2  1  0  0  0  0
  1 23  1  0  0  0  0
  1 24  1  0  0  0  0
  1 25  1  0  0  0  0
  2  3  2  0  0  0  0
  2  4  2  0  0  0  0
  2  5  1  0  0  0  0
  5  6  1  0  0  0  0
  5 26  1  0  0  0  0
  6 22  1  0  0  0  0
  6  7  1  0  0  0  0
  6 27  1  0  0  0  0
  7  8  1  0  0  0  0
  7 28  1  0  0  0  0
  7 29  1  0  0  0  0
  8  9  1  0  0  0  0
  8 30  1  0  0  0  0
  8 31  1  0  0  0  0
  9 10  1  0  0  0  0
  9 32  1  0  0  0  0
  9 33  1  0  0  0  0
 10 11  1  0  0  0  0
 10 22  1  0  0  0  0
 11 12  2  0  0  0  0
 11 13  1  0  0  0  0
 13 14  1  0  0  0  0
 13 34  1  0  0  0  0
 14 15  1  0  0  0  0
 14 35  1  0  0  0  0
 14 36  1  0  0  0  0
 15 16  1  0  0  0  0
 15 37  1  0  0  0  0
 15 38  1  0  0  0  0
 16 21  1  0  0  0  0
 16 17  2  0  0  0  0
 17 18  1  0  0  0  0
 17 39  1  0  0  0  0
 18 19  2  0  0  0  0
 18 40  1  0  0  0  0
 19 20  1  0  0  0  0
 19 41  1  0  0  0  0
 20 21  2  0  0  0  0
 20 42  1  0  0  0  0
 21 45  1  0  0  0  0
 22 43  1  0  0  0  0
 22 44  1  0  0  0  0
M  CHG  1  21   1
M  END
> <s_m_source_file>
AV-unprocessed.smi

> <i_m_source_file_index>
1434

> <i_lp_mmshare_version>
43012

> <i_f3d_flags>
0

> <s_epik_input>
W0NIM11TKD1PKSg9TylbTkhdW0NAQEhdMVtDSDJdW0NIMl1bQ0gyXU4oW0NIMl0xKUMoPU8pW05IXVtDSDJdW0NIMl1jMltjSF1bY0hdW2NIXVtjSF1uMg==

> <s_epik_cmdline>
J2VwaWtfcHl0aG9uJywgJy1waCcsICc3LjAnLCAnLXRuJywgJzgnLCAnLW1hJywgJzIwMCcsICctbWV0YWxfYmluZGluZycsICctaW1hZScsICc8aW5maWxlLm1hZT4nLCAnLW9tYWUnLCAnPG91dGZpbGUubWFlPic=

> <r_epik_Ionization_Penalty>
1.55113

> <r_epik_Ionization_Penalty_Charging>
1.55107

> <r_epik_Ionization_Penalty_Neutral>
6.01346e-05

> <r_epik_State_Penalty>
1.64529

> <r_epik_Charging_Adjusted_Penalty>
3.19637

> <i_epik_Tot_Q>
1

> <i_epik_Tot_abs_Q>
1

> <r_epik_Metal_State_Penalty>
1.69621

> <b_epik_Metal_Only>
0

> <s_lp_Force_Field>
OPLS_2005

> <r_lp_Energy>
28.1725

> <b_lp_Chiralities_Consistent>
1

> <s_lp_Variant>
AV-unprocessed.smi:1434-4

> <Gold.Version>
5.8.1

> <Gold.Id.Protein>
6NUR|6NUR_protein|mol2

> <Gold.PLP.Fitness>
46.8901

> <Gold.PLP.PLP>
-37.9392

> <Gold.PLP.part.hbond>
-5.0000

> <Gold.PLP.part.metal>
0.0000

> <Gold.PLP.part.buried>
-2.9347

> <Gold.PLP.part.nonpolar>
-30.8827

> <Gold.PLP.part.repulsive>
0.1180

> <Gold.PLP.ligand.clash>
0.0000

> <Gold.PLP.ligand.torsion>
1.6354

> <Gold.PLP.Chemscore.Hbond>
4.0052

> <Gold.PLP.Chemscore.CHOScore>
0.0000

> <Gold.PLP.Chemscore.Metal>
0.0000

> <Gold.Chemscore.Hbonds>
donor molecule, donor type, donor heavy atom, donor atom, acceptor molecule, acceptor atom, score
      L1  H    21    45       P1  7948  2.00
      P1  H  7997  8009       L1     3  0.87
      P1  H 10752 10763       L1    12  1.00

> <Gold.PLP.Chemscore.Internal.Correction>
0.2062

> <Gold.Rescore>
     Score         DG    S(hbond)    S(metal)    S(lipo)     H(rot)  DE(clash)    DE(int)     intcor
     15.28     -17.07       2.24        0.00      81.87       2.13       0.15       1.64       ----

> <Gold.Chemscore.Fitness>
15.2765

> <Gold.Chemscore.DG>
-17.0676

> <Gold.Chemscore.ZeroCoef>
-5.4800

> <Gold.Chemscore.Hbond>
2.2360

> <Gold.Chemscore.Metal>
0.0000

> <Gold.Chemscore.Lipo>
81.8721

> <Gold.Chemscore.Internal_Hbond>
0.0000

> <Gold.Chemscore.DEClash>
0.1469

> <Gold.Chemscore.DEInternal>
1.6442

> <Gold.Chemscore.Rot>
2.1326

> <Gold.Chemscore.Internal.Correction>
   9.000000E+99

> <Gold.Chemscore.Hbonds>
donor molecule, donor type, donor heavy atom, donor atom, acceptor molecule, acceptor atom, score
      L1  H    13    34       P1  7948  0.01
      L1  H    21    45       P1  7948  0.75
      P1  H  7997  8009       L1     3  0.32
      P1  H 10752 10763       L1    12  0.77

> <Gold.Chemscore.Hbond.Weighted>
-7.4681

> <Gold.Chemscore.Metal.Weighted>
-0.0000

> <Gold.Chemscore.Lipo.Weighted>
-9.5790

> <Gold.Chemscore.Internal_Hbond.Weighted>
0.0000

> <Gold.Chemscore.DEClash.Weighted>
0.1469

> <Gold.Chemscore.DEInternal.Weighted>
1.6442

> <Gold.Chemscore.Rot.Weighted>
5.4595

> <Gold.Chemscore.Internal.Correction.Weighted>
   9.000000E+99

> <Gold.Protein.RotatedTorsions>
[ 6907 6896 6895 6894 ] final  -28.22 input  -60.11 | X-H torsion
[ 7974 7965 7964 7962 ] final -147.24 input  175.53 | X-H torsion
[ 8008 7997 7996 7995 ] final  112.68 input   59.86 | X-H torsion
[ 10167 10162 10161 10158 ] final  166.29 input  -65.29 | X-H torsion
[ 10718 10713 10712 10709 ] final   72.46 input   66.30 | X-H torsion
[ 10763 10752 10751 10750 ] final   74.07 input  -60.55 | X-H torsion
[ 11005 11000 10999 10996 ] final -154.75 input  -57.11 | X-H torsion

> <Gold.Protein.ActiveResidues>
 VAL166  LYS551  ARG553  GLY616  TRP617  ASP618  TYR619  PRO620  LYS621  CYS622 
 ASP623  PHE694  ASN695  SER759  ASP760  ASP761  ALA762  ILE779  LEU786  VAL792 
 PHE793  MET794  SER795  GLU796  ALA797  LYS798  CYS799  TRP800  GLU811  SER814 

> <Gold.Protein.RotatedAtoms>
  151.1360  135.0155  159.8603 H   0  0  0  0  0  0  0  0  0  0  0  0  # atno 6907 bound_to 6896
  152.5452  134.1555  159.8546 H   0  0  0  0  0  0  0  0  0  0  0  0  # atno 6908 bound_to 6896
  151.1626  133.4790  159.2627 H   0  0  0  0  0  0  0  0  0  0  0  0  # atno 6909 bound_to 6896
  144.8106  140.5352  143.5645 H   0  0  0  0  0  0  0  0  0  0  0  0  # atno 7974 bound_to 7965
  156.2208  140.2994  155.9949 H   0  0  0  0  0  0  0  0  0  0  0  0  # atno 8008 bound_to 7997
  155.2485  140.0425  157.3001 H   0  0  0  0  0  0  0  0  0  0  0  0  # atno 8009 bound_to 7997
  154.5838  140.2382  155.8024 H   0  0  0  0  0  0  0  0  0  0  0  0  # atno 8010 bound_to 7997
  139.4922  144.4043  151.9373 H   0  0  0  0  0  0  0  0  0  0  0  0  # atno 10167 bound_to 10162
  157.6502  130.9580  150.0932 H   0  0  0  0  0  0  0  0  0  0  0  0  # atno 10718 bound_to 10713
  153.0562  135.5039  154.7987 H   0  0  0  0  0  0  0  0  0  0  0  0  # atno 10763 bound_to 10752
  154.6811  135.2968  154.9614 H   0  0  0  0  0  0  0  0  0  0  0  0  # atno 10764 bound_to 10752
  154.0400  135.6718  153.4842 H   0  0  0  0  0  0  0  0  0  0  0  0  # atno 10765 bound_to 10752
  140.6939  134.4011  157.5216 H   0  0  0  0  0  0  0  0  0  0  0  0  # atno 11005 bound_to 11000
  145.5332  139.1475  143.3488 LP  0  0  0  0  0  0  0  0  0  0  0  0  # atno 17320 bound_to 7965
  146.2404  140.5473  142.8936 LP  0  0  0  0  0  0  0  0  0  0  0  0  # atno 17321 bound_to 7965
  140.3483  144.3120  150.5954 LP  0  0  0  0  0  0  0  0  0  0  0  0  # atno 17342 bound_to 10162
  140.5507  143.2207  151.7932 LP  0  0  0  0  0  0  0  0  0  0  0  0  # atno 17343 bound_to 10162
  156.1875  130.3653  149.8953 LP  0  0  0  0  0  0  0  0  0  0  0  0  # atno 17370 bound_to 10713
  156.6890  130.8888  151.3586 LP  0  0  0  0  0  0  0  0  0  0  0  0  # atno 17371 bound_to 10713
  139.8915  134.8777  156.2314 LP  0  0  0  0  0  0  0  0  0  0  0  0  # atno 17394 bound_to 11000
  141.0219  133.7037  156.1282 LP  0  0  0  0  0  0  0  0  0  0  0  0  # atno 17395 bound_to 11000

$$$$
