AV-unprocessed.smi:34|AV-procd|sdf|233|dock7
  -GOLD-   2262015573D 1   1.00000     0.00000
 Structure written by MMmdl.
 54 58  0  0  0  0  0  0  0  0  2 V2000
  152.5213  140.5221  157.4164 O   0  0  0  0  0  0  0  0  0  0  0  0
  151.7188  141.4549  157.3411 C   0  0  0  0  0  0  0  0  0  0  0  0
  150.6748  141.5890  156.4843 N   0  5  0  0  0  0  0  0  0  0  0  0
  150.1991  140.5169  155.8327 C   0  0  0  0  0  0  0  0  0  0  0  0
  150.9332  139.9278  154.8549 N   0  0  0  0  0  0  0  0  0  0  0  0
  150.4527  138.8677  154.1955 C   0  0  0  0  0  0  0  0  0  0  0  0
  149.2778  138.2495  154.3448 N   0  0  0  0  0  0  0  0  0  0  0  0
  148.5254  138.8330  155.3214 C   0  0  0  0  0  0  0  0  0  0  0  0
  148.9168  139.9621  156.0992 C   0  0  0  0  0  0  0  0  0  0  0  0
  147.9221  140.3072  157.0017 N   0  0  0  0  0  0  0  0  0  0  0  0
  146.9932  139.3911  156.7400 C   0  0  0  0  0  0  0  0  0  0  0  0
  147.2580  138.4927  155.7708 N   0  0  0  0  0  0  0  0  0  0  0  0
  146.3559  137.3947  155.3053 C   0  0  2  0  0  0  0  0  0  0  0  0
  146.0296  136.5812  156.3942 O   0  0  0  0  0  0  0  0  0  0  0  0
  146.1103  135.1964  156.0377 C   0  0  2  0  0  0  0  0  0  0  0  0
  147.2799  134.5324  156.7777 C   0  0  0  0  0  0  0  0  0  0  0  0
  147.1440  134.7470  158.1731 O   0  0  0  0  0  0  0  0  0  0  0  0
  148.2157  135.1107  158.9048 C   0  0  0  0  0  0  0  0  0  0  0  0
  149.3342  135.3086  158.4254 O   0  0  0  0  0  0  0  0  0  0  0  0
  147.9080  135.2507  160.3569 C   0  0  0  0  0  0  0  0  0  0  0  0
  147.3296  134.1616  161.0498 C   0  0  0  0  0  0  0  0  0  0  0  0
  147.0290  134.2623  162.4220 C   0  0  0  0  0  0  0  0  0  0  0  0
  147.3035  135.4536  163.1184 C   0  0  0  0  0  0  0  0  0  0  0  0
  147.8797  136.5439  162.4408 C   0  0  0  0  0  0  0  0  0  0  0  0
  148.1815  136.4451  161.0684 C   0  0  0  0  0  0  0  0  0  0  0  0
  146.3181  135.1944  154.5214 C   0  0  1  0  0  0  0  0  0  0  0  0
  145.1128  135.2193  153.9450 F   0  0  0  0  0  0  0  0  0  0  0  0
  147.0594  136.5007  154.2889 C   0  0  1  0  0  0  0  0  0  0  0  0
  146.9079  136.9275  152.9500 O   0  0  0  0  0  0  0  0  0  0  0  0
  151.9053  142.6470  158.2416 C   0  0  0  0  0  0  0  0  0  0  0  0
  152.3172  142.4558  159.5803 C   0  0  0  0  0  0  0  0  0  0  0  0
  152.4726  143.5559  160.4463 C   0  0  0  0  0  0  0  0  0  0  0  0
  152.2093  144.8592  159.9851 C   0  0  0  0  0  0  0  0  0  0  0  0
  151.7857  145.0612  158.6583 C   0  0  0  0  0  0  0  0  0  0  0  0
  151.6292  143.9616  157.7919 C   0  0  0  0  0  0  0  0  0  0  0  0
  151.1015  138.4564  153.4365 H   0  0  0  0  0  0  0  0  0  0  0  0
  146.0591  139.3759  157.2820 H   0  0  0  0  0  0  0  0  0  0  0  0
  145.4598  137.8847  154.9204 H   0  0  0  0  0  0  0  0  0  0  0  0
  145.1815  134.6888  156.3020 H   0  0  0  0  0  0  0  0  0  0  0  0
  147.2781  133.4584  156.5881 H   0  0  0  0  0  0  0  0  0  0  0  0
  148.2312  134.9190  156.4126 H   0  0  0  0  0  0  0  0  0  0  0  0
  147.1106  133.2362  160.5366 H   0  0  0  0  0  0  0  0  0  0  0  0
  146.5883  133.4233  162.9405 H   0  0  0  0  0  0  0  0  0  0  0  0
  147.0739  135.5301  164.1709 H   0  0  0  0  0  0  0  0  0  0  0  0
  148.0916  137.4588  162.9745 H   0  0  0  0  0  0  0  0  0  0  0  0
  148.6256  137.2997  160.5792 H   0  0  0  0  0  0  0  0  0  0  0  0
  146.8455  134.3165  154.1467 H   0  0  0  0  0  0  0  0  0  0  0  0
  148.1140  136.3965  154.5493 H   0  0  0  0  0  0  0  0  0  0  0  0
  147.6476  136.6158  152.4508 H   0  0  0  0  0  0  0  0  0  0  0  0
  152.5219  141.4617  159.9506 H   0  0  0  0  0  0  0  0  0  0  0  0
  152.7929  143.3984  161.4655 H   0  0  0  0  0  0  0  0  0  0  0  0
  152.3277  145.7025  160.6492 H   0  0  0  0  0  0  0  0  0  0  0  0
  151.5769  146.0598  158.3043 H   0  0  0  0  0  0  0  0  0  0  0  0
  151.2920  144.1379  156.7806 H   0  0  0  0  0  0  0  0  0  0  0  0
  1  2  2  0  0  0  0
  2  3  1  0  0  0  0
  2 30  1  0  0  0  0
  3  4  1  0  0  0  0
  4  9  1  0  0  0  0
  4  5  2  0  0  0  0
  5  6  1  0  0  0  0
  6  7  2  0  0  0  0
  6 36  1  0  0  0  0
  7  8  1  0  0  0  0
  8 12  1  0  0  0  0
  8  9  2  0  0  0  0
  9 10  1  0  0  0  0
 10 11  2  0  0  0  0
 11 12  1  0  0  0  0
 11 37  1  0  0  0  0
 12 13  1  0  0  0  0
 13 28  1  0  0  0  0
 13 14  1  0  0  0  0
 13 38  1  0  0  0  0
 14 15  1  0  0  0  0
 15 16  1  0  0  0  0
 15 26  1  0  0  0  0
 15 39  1  0  0  0  0
 16 17  1  0  0  0  0
 16 40  1  0  0  0  0
 16 41  1  0  0  0  0
 17 18  1  0  0  0  0
 18 19  2  0  0  0  0
 18 20  1  0  0  0  0
 20 25  1  0  0  0  0
 20 21  2  0  0  0  0
 21 22  1  0  0  0  0
 21 42  1  0  0  0  0
 22 23  2  0  0  0  0
 22 43  1  0  0  0  0
 23 24  1  0  0  0  0
 23 44  1  0  0  0  0
 24 25  2  0  0  0  0
 24 45  1  0  0  0  0
 25 46  1  0  0  0  0
 26 27  1  0  0  0  0
 26 28  1  0  0  0  0
 26 47  1  0  0  0  0
 28 29  1  0  0  0  0
 28 48  1  0  0  0  0
 29 49  1  0  0  0  0
 30 35  1  0  0  0  0
 30 31  2  0  0  0  0
 31 32  1  0  0  0  0
 31 50  1  0  0  0  0
 32 33  2  0  0  0  0
 32 51  1  0  0  0  0
 33 34  1  0  0  0  0
 33 52  1  0  0  0  0
 34 35  2  0  0  0  0
 34 53  1  0  0  0  0
 35 54  1  0  0  0  0
M  CHG  1   3  -1
M  END
> <s_m_source_file>
AV-unprocessed.smi

> <i_m_source_file_index>
34

> <i_lp_mmshare_version>
43012

> <i_f3d_flags>
0

> <s_epik_input>
W2NIXTFbY0hdW2NIXVtjSF1bY0hdYzFDKD1PKVtOSF1jKG5bY0hdbjIpYyhjMjMpbltjSF1uM1tDQEBIXTRPW0NASF0oW0NAQEhdKEYpW0NASF00W09IXSlbQ0gyXU9DKD1PKWM1W2NIXVtjSF1bY0hdW2NIXVtjSF01

> <s_epik_cmdline>
J2VwaWtfcHl0aG9uJywgJy1waCcsICc3LjAnLCAnLXRuJywgJzgnLCAnLW1hJywgJzIwMCcsICctbWV0YWxfYmluZGluZycsICctaW1hZScsICc8aW5maWxlLm1hZT4nLCAnLW9tYWUnLCAnPG91dGZpbGUubWFlPic=

> <r_lp_tautomer_probability>
1

> <r_epik_Ionization_Penalty>
4.33227

> <r_epik_Ionization_Penalty_Charging>
3.41027

> <r_epik_Ionization_Penalty_Neutral>
0.922001

> <r_epik_State_Penalty>
3.41358

> <r_epik_Charging_Adjusted_Penalty>
6.82385

> <i_epik_Tot_Q>
-1

> <i_epik_Tot_abs_Q>
1

> <r_epik_Metal_State_Penalty>
0.496292

> <b_epik_Metal_Only>
1

> <s_epik_Chemistry_Notes>
This compound has an ester and may undergo hydrolysis at high or low pH. This compound contains an acetal/aminal-like group ( X-CH(R)-Y where X, Y are N, S, or O) that may be acid/base labile, releasing an aldehyde.

> <s_lp_Force_Field>
OPLS_2005

> <r_lp_Energy>
46.7296

> <b_lp_Chiralities_Consistent>
1

> <s_lp_Variant>
AV-unprocessed.smi:34-19

> <Gold.Version>
5.8.1

> <Gold.Id.Protein>
6NUR|6NUR_protein|mol2

> <Gold.PLP.Fitness>
59.5652

> <Gold.PLP.PLP>
-53.6345

> <Gold.PLP.part.hbond>
-3.8263

> <Gold.PLP.part.metal>
0.0000

> <Gold.PLP.part.buried>
-6.0129

> <Gold.PLP.part.nonpolar>
-42.8721

> <Gold.PLP.part.repulsive>
0.3361

> <Gold.PLP.ligand.clash>
0.0000

> <Gold.PLP.ligand.torsion>
2.6556

> <Gold.PLP.Chemscore.Hbond>
3.6619

> <Gold.PLP.Chemscore.CHOScore>
0.0000

> <Gold.PLP.Chemscore.Metal>
0.0000

> <Gold.Chemscore.Hbonds>
donor molecule, donor type, donor heavy atom, donor atom, acceptor molecule, acceptor atom, score
      L1  H    29    49       P1  7948  0.86
      P1  H  6896  6909       L1    19  0.70
      P1  H  7989  7998       L1     5  1.00
      P1  H  7997  8009       L1     1  0.76

> <Gold.PLP.Chemscore.Internal.Correction>
0.2562

> <Gold.Rescore>
     Score         DG    S(hbond)    S(metal)    S(lipo)     H(rot)  DE(clash)    DE(int)     intcor
     16.86     -21.68       2.50        0.00     126.04       2.69       0.11       4.70       ----

> <Gold.Chemscore.Fitness>
16.8649

> <Gold.Chemscore.DG>
-21.6769

> <Gold.Chemscore.ZeroCoef>
-5.4800

> <Gold.Chemscore.Hbond>
2.4993

> <Gold.Chemscore.Metal>
0.0000

> <Gold.Chemscore.Lipo>
126.0404

> <Gold.Chemscore.Internal_Hbond>
0.0000

> <Gold.Chemscore.DEClash>
0.1111

> <Gold.Chemscore.DEInternal>
4.7009

> <Gold.Chemscore.Rot>
2.6944

> <Gold.Chemscore.Internal.Correction>
   9.000000E+99

> <Gold.Chemscore.Hbonds>
donor molecule, donor type, donor heavy atom, donor atom, acceptor molecule, acceptor atom, score
      L1  H    29    49       P1  7948  0.84
      P1  H  6896  6909       L1    19  0.47
      P1  H  7989  7998       L1     5  0.30
      P1  H  7997  8009       L1     1  0.72

> <Gold.Chemscore.Hbond.Weighted>
-8.3477

> <Gold.Chemscore.Metal.Weighted>
-0.0000

> <Gold.Chemscore.Lipo.Weighted>
-14.7467

> <Gold.Chemscore.Internal_Hbond.Weighted>
0.0000

> <Gold.Chemscore.DEClash.Weighted>
0.1111

> <Gold.Chemscore.DEInternal.Weighted>
4.7009

> <Gold.Chemscore.Rot.Weighted>
6.8975

> <Gold.Chemscore.Internal.Correction.Weighted>
   9.000000E+99

> <Gold.Protein.RotatedTorsions>
[ 6907 6896 6895 6894 ] final   14.45 input  -60.11 | X-H torsion
[ 7974 7965 7964 7962 ] final  -10.77 input  175.53 | X-H torsion
[ 8008 7997 7996 7995 ] final  168.26 input   59.86 | X-H torsion
[ 10167 10162 10161 10158 ] final  -25.89 input  -65.29 | X-H torsion
[ 10718 10713 10712 10709 ] final   58.53 input   66.30 | X-H torsion
[ 10763 10752 10751 10750 ] final  -75.61 input  -60.55 | X-H torsion
[ 11005 11000 10999 10996 ] final  -92.01 input  -57.11 | X-H torsion

> <Gold.Protein.ActiveResidues>
 VAL166  LYS551  ARG553  GLY616  TRP617  ASP618  TYR619  PRO620  LYS621  CYS622 
 ASP623  PHE694  ASN695  SER759  ASP760  ASP761  ALA762  ILE779  LEU786  VAL792 
 PHE793  MET794  SER795  GLU796  ALA797  LYS798  CYS799  TRP800  GLU811  SER814 

> <Gold.Protein.RotatedAtoms>
  151.8024  135.0705  160.0401 H   0  0  0  0  0  0  0  0  0  0  0  0  # atno 6907 bound_to 6896
  152.3079  133.5718  159.5670 H   0  0  0  0  0  0  0  0  0  0  0  0  # atno 6908 bound_to 6896
  150.7305  134.0111  159.3712 H   0  0  0  0  0  0  0  0  0  0  0  0  # atno 6909 bound_to 6896
  146.2210  140.2813  142.8362 H   0  0  0  0  0  0  0  0  0  0  0  0  # atno 7974 bound_to 7965
  156.1562  140.1595  156.8688 H   0  0  0  0  0  0  0  0  0  0  0  0  # atno 8008 bound_to 7997
  154.5117  140.0799  156.8039 H   0  0  0  0  0  0  0  0  0  0  0  0  # atno 8009 bound_to 7997
  155.3798  140.3404  155.4248 H   0  0  0  0  0  0  0  0  0  0  0  0  # atno 8010 bound_to 7997
  140.7285  143.4225  151.0928 H   0  0  0  0  0  0  0  0  0  0  0  0  # atno 10167 bound_to 10162
  157.5604  130.8831  149.9101 H   0  0  0  0  0  0  0  0  0  0  0  0  # atno 10718 bound_to 10713
  154.4888  135.5825  153.6444 H   0  0  0  0  0  0  0  0  0  0  0  0  # atno 10763 bound_to 10752
  152.9859  135.6108  154.3151 H   0  0  0  0  0  0  0  0  0  0  0  0  # atno 10764 bound_to 10752
  154.3049  135.2846  155.2573 H   0  0  0  0  0  0  0  0  0  0  0  0  # atno 10765 bound_to 10752
  141.1532  133.7793  156.9960 H   0  0  0  0  0  0  0  0  0  0  0  0  # atno 11005 bound_to 11000
  144.9195  140.7851  143.5757 LP  0  0  0  0  0  0  0  0  0  0  0  0  # atno 17320 bound_to 7965
  145.2749  139.1940  143.4822 LP  0  0  0  0  0  0  0  0  0  0  0  0  # atno 17321 bound_to 7965
  139.7873  143.8269  152.3146 LP  0  0  0  0  0  0  0  0  0  0  0  0  # atno 17342 bound_to 10162
  139.8241  144.7283  150.9534 LP  0  0  0  0  0  0  0  0  0  0  0  0  # atno 17343 bound_to 10162
  156.0657  130.3692  150.0884 LP  0  0  0  0  0  0  0  0  0  0  0  0  # atno 17370 bound_to 10713
  156.9048  130.9632  151.3571 LP  0  0  0  0  0  0  0  0  0  0  0  0  # atno 17371 bound_to 10713
  140.0971  134.9558  157.1866 LP  0  0  0  0  0  0  0  0  0  0  0  0  # atno 17394 bound_to 11000
  140.3368  134.2749  155.7218 LP  0  0  0  0  0  0  0  0  0  0  0  0  # atno 17395 bound_to 11000

$$$$
