AV-unprocessed.smi:158|AV-procd|sdf|1329|dock10
  -GOLD-   2262019 23D 1   1.00000     0.00000
 Structure written by MMmdl.
 31 33  0  0  0  0  0  0  0  0  1 V2000
  149.2315  128.2242  154.1078 N   0  0  0  0  0  0  0  0  0  0  0  0
  148.3354  129.2188  154.0367 C   0  0  0  0  0  0  0  0  0  0  0  0
  148.2152  130.0536  155.0951 N   0  0  0  0  0  0  0  0  0  0  0  0
  147.3335  131.0606  155.0647 C   0  0  0  0  0  0  0  0  0  0  0  0
  147.2652  132.0628  156.4662 Cl  0  0  0  0  0  0  0  0  0  0  0  0
  146.5001  131.3787  154.0689 N   0  0  0  0  0  0  0  0  0  0  0  0
  146.6181  130.5394  152.9990 C   0  0  0  0  0  0  0  0  0  0  0  0
  147.5099  129.4374  152.9067 C   0  0  0  0  0  0  0  0  0  0  0  0
  147.3584  128.8063  151.6793 N   0  0  0  0  0  0  0  0  0  0  0  0
  146.4271  129.5013  151.0823 C   0  0  0  0  0  0  0  0  0  0  0  0
  145.9259  130.5623  151.8042 N   0  0  0  0  0  0  0  0  0  0  0  0
  144.8649  131.5303  151.3857 C   0  0  2  0  0  0  0  0  0  0  0  0
  144.6136  131.3818  150.0187 O   0  0  0  0  0  0  0  0  0  0  0  0
  144.6330  132.6557  149.3719 C   0  0  1  0  0  0  0  0  0  0  0  0
  143.5202  132.7046  148.3136 C   0  0  0  0  0  0  0  0  0  0  0  0
  143.3381  134.0233  147.8434 O   0  0  0  0  0  0  0  0  0  0  0  0
  144.4771  133.6608  150.5196 C   0  0  2  0  0  0  0  0  0  0  0  0
  144.9741  134.9510  150.2243 O   0  0  0  0  0  0  0  0  0  0  0  0
  145.2734  132.9883  151.6202 C   0  0  2  0  0  0  0  0  0  0  0  0
  146.5876  133.1328  151.4225 F   0  0  0  0  0  0  0  0  0  0  0  0
  143.9764  131.2414  151.9488 H   0  0  0  0  0  0  0  0  0  0  0  0
  145.6119  132.7669  148.9015 H   0  0  0  0  0  0  0  0  0  0  0  0
  143.4299  133.7356  150.8167 H   0  0  0  0  0  0  0  0  0  0  0  0
  145.0293  133.3218  152.6290 H   0  0  0  0  0  0  0  0  0  0  0  0
  149.3399  127.5888  153.3303 H   0  0  0  0  0  0  0  0  0  0  0  0
  149.7973  128.1133  154.9366 H   0  0  0  0  0  0  0  0  0  0  0  0
  146.0771  129.2570  150.0901 H   0  0  0  0  0  0  0  0  0  0  0  0
  143.7867  132.0743  147.4648 H   0  0  0  0  0  0  0  0  0  0  0  0
  142.5801  132.3243  148.7143 H   0  0  0  0  0  0  0  0  0  0  0  0
  142.5120  134.3468  148.1692 H   0  0  0  0  0  0  0  0  0  0  0  0
  145.3788  134.9269  149.3702 H   0  0  0  0  0  0  0  0  0  0  0  0
  1  2  1  0  0  0  0
  1 25  1  0  0  0  0
  1 26  1  0  0  0  0
  2  8  1  0  0  0  0
  2  3  2  0  0  0  0
  3  4  1  0  0  0  0
  4  5  1  0  0  0  0
  4  6  2  0  0  0  0
  6  7  1  0  0  0  0
  7 11  1  0  0  0  0
  7  8  2  0  0  0  0
  8  9  1  0  0  0  0
  9 10  2  0  0  0  0
 10 11  1  0  0  0  0
 10 27  1  0  0  0  0
 11 12  1  0  0  0  0
 12 21  1  0  0  0  0
 12 19  1  0  0  0  0
 12 13  1  0  0  0  0
 13 14  1  0  0  0  0
 14 22  1  0  0  0  0
 14 15  1  0  0  0  0
 14 17  1  0  0  0  0
 15 16  1  0  0  0  0
 15 28  1  0  0  0  0
 15 29  1  0  0  0  0
 16 30  1  0  0  0  0
 17 23  1  0  0  0  0
 17 18  1  0  0  0  0
 17 19  1  0  0  0  0
 18 31  1  0  0  0  0
 19 24  1  0  0  0  0
 19 20  1  0  0  0  0
M  END
> <s_m_source_file>
AV-unprocessed.smi

> <i_m_source_file_index>
158

> <i_lp_mmshare_version>
43012

> <i_f3d_flags>
0

> <s_epik_input>
Q2xjKG4xKW5jKFtOSDJdKWMoYzEyKW5bY0hdbjJbQ0BASF0zT1tDQEhdKFtDSDJdW09IXSlbQ0BASF0oW09IXSlbQ0BASF0zRg==

> <s_epik_cmdline>
J2VwaWtfcHl0aG9uJywgJy1waCcsICc3LjAnLCAnLXRuJywgJzgnLCAnLW1hJywgJzIwMCcsICctbWV0YWxfYmluZGluZycsICctaW1hZScsICc8aW5maWxlLm1hZT4nLCAnLW9tYWUnLCAnPG91dGZpbGUubWFlPic=

> <r_lp_tautomer_probability>
1

> <r_epik_Ionization_Penalty>
6.51543e-05

> <r_epik_Ionization_Penalty_Charging>
0

> <r_epik_Ionization_Penalty_Neutral>
6.51543e-05

> <r_epik_State_Penalty>
-0

> <r_epik_Charging_Adjusted_Penalty>
0

> <i_epik_Tot_Q>
0

> <i_epik_Tot_abs_Q>
0

> <r_epik_Metal_State_Penalty>
-0

> <b_epik_Metal_Only>
0

> <s_epik_Chemistry_Notes>
This compound contains an acetal/aminal-like group ( X-CH(R)-Y where X, Y are N, S, or O) that may be acid/base labile, releasing an aldehyde.

> <s_lp_Force_Field>
OPLS_2005

> <r_lp_Energy>
35.9636

> <b_lp_Chiralities_Consistent>
1

> <s_lp_Variant>
AV-unprocessed.smi:158-7

> <Gold.Version>
5.8.1

> <Gold.Id.Protein>
6NUR|6NUR_protein|mol2

> <Gold.PLP.Fitness>
38.8823

> <Gold.PLP.PLP>
-32.8960

> <Gold.PLP.part.hbond>
-6.0000

> <Gold.PLP.part.metal>
0.0000

> <Gold.PLP.part.buried>
-4.3800

> <Gold.PLP.part.nonpolar>
-22.9487

> <Gold.PLP.part.repulsive>
0.3495

> <Gold.PLP.ligand.clash>
0.0000

> <Gold.PLP.ligand.torsion>
0.2929

> <Gold.PLP.Chemscore.Hbond>
2.1893

> <Gold.PLP.Chemscore.CHOScore>
0.0000

> <Gold.PLP.Chemscore.Metal>
0.0000

> <Gold.Chemscore.Hbonds>
donor molecule, donor type, donor heavy atom, donor atom, acceptor molecule, acceptor atom, score
      L1  H    16    30       P1 10186  1.00
      L1  H    18    31       P1  7921  1.00
      P1  H 10785 10796       L1    13  0.18

> <Gold.PLP.Chemscore.Internal.Correction>
0.0044

> <Gold.Rescore>
     Score         DG    S(hbond)    S(metal)    S(lipo)     H(rot)  DE(clash)    DE(int)     intcor
      9.20      -9.46       1.99        0.00      45.54       3.12       0.11       0.15       ----

> <Gold.Chemscore.Fitness>
9.2014

> <Gold.Chemscore.DG>
-9.4602

> <Gold.Chemscore.ZeroCoef>
-5.4800

> <Gold.Chemscore.Hbond>
1.9902

> <Gold.Chemscore.Metal>
0.0000

> <Gold.Chemscore.Lipo>
45.5383

> <Gold.Chemscore.Internal_Hbond>
0.0000

> <Gold.Chemscore.DEClash>
0.1105

> <Gold.Chemscore.DEInternal>
0.1483

> <Gold.Chemscore.Rot>
3.1230

> <Gold.Chemscore.Internal.Correction>
   9.000000E+99

> <Gold.Chemscore.Hbonds>
donor molecule, donor type, donor heavy atom, donor atom, acceptor molecule, acceptor atom, score
      L1  H    16    30       P1 10186  0.93
      L1  H    18    31       P1  7921  1.00
      P1  H 10785 10796       L1    13  0.09

> <Gold.Chemscore.Hbond.Weighted>
-6.6471

> <Gold.Chemscore.Metal.Weighted>
-0.0000

> <Gold.Chemscore.Lipo.Weighted>
-5.3280

> <Gold.Chemscore.Internal_Hbond.Weighted>
0.0000

> <Gold.Chemscore.DEClash.Weighted>
0.1105

> <Gold.Chemscore.DEInternal.Weighted>
0.1483

> <Gold.Chemscore.Rot.Weighted>
7.9950

> <Gold.Chemscore.Internal.Correction.Weighted>
   9.000000E+99

> <Gold.Protein.RotatedTorsions>
[ 6907 6896 6895 6894 ] final  -52.46 input  -60.11 | X-H torsion
[ 7974 7965 7964 7962 ] final   45.20 input  175.53 | X-H torsion
[ 8008 7997 7996 7995 ] final    5.06 input   59.86 | X-H torsion
[ 10167 10162 10161 10158 ] final   84.39 input  -65.29 | X-H torsion
[ 10718 10713 10712 10709 ] final  168.00 input   66.30 | X-H torsion
[ 10763 10752 10751 10750 ] final  145.84 input  -60.55 | X-H torsion
[ 11005 11000 10999 10996 ] final   -6.64 input  -57.11 | X-H torsion

> <Gold.Protein.ActiveResidues>
 VAL166  LYS551  ARG553  GLY616  TRP617  ASP618  TYR619  PRO620  LYS621  CYS622 
 ASP623  PHE694  ASN695  SER759  ASP760  ASP761  ALA762  ILE779  LEU786  VAL792 
 PHE793  MET794  SER795  GLU796  ALA797  LYS798  CYS799  TRP800  GLU811  SER814 

> <Gold.Protein.RotatedAtoms>
  150.8516  134.7843  159.7012 H   0  0  0  0  0  0  0  0  0  0  0  0  # atno 6907 bound_to 6896
  152.4579  134.5247  159.9803 H   0  0  0  0  0  0  0  0  0  0  0  0  # atno 6908 bound_to 6896
  151.5366  133.3402  159.2963 H   0  0  0  0  0  0  0  0  0  0  0  0  # atno 6909 bound_to 6896
  146.0501  139.4990  142.9724 H   0  0  0  0  0  0  0  0  0  0  0  0  # atno 7974 bound_to 7965
  154.7236  140.2716  155.6519 H   0  0  0  0  0  0  0  0  0  0  0  0  # atno 8008 bound_to 7997
  156.2830  140.2729  156.1840 H   0  0  0  0  0  0  0  0  0  0  0  0  # atno 8009 bound_to 7997
  155.0474  140.0371  157.2521 H   0  0  0  0  0  0  0  0  0  0  0  0  # atno 8010 bound_to 7997
  139.9086  144.6286  150.8561 H   0  0  0  0  0  0  0  0  0  0  0  0  # atno 10167 bound_to 10162
  157.0434  131.0293  151.2705 H   0  0  0  0  0  0  0  0  0  0  0  0  # atno 10718 bound_to 10713
  154.0121  135.2913  155.3391 H   0  0  0  0  0  0  0  0  0  0  0  0  # atno 10763 bound_to 10752
  154.7097  135.5154  153.8651 H   0  0  0  0  0  0  0  0  0  0  0  0  # atno 10764 bound_to 10752
  153.0718  135.6650  154.0351 H   0  0  0  0  0  0  0  0  0  0  0  0  # atno 10765 bound_to 10752
  140.7041  133.8964  155.8704 H   0  0  0  0  0  0  0  0  0  0  0  0  # atno 11005 bound_to 11000
  145.6739  141.0209  143.1642 LP  0  0  0  0  0  0  0  0  0  0  0  0  # atno 17320 bound_to 7965
  144.7118  139.8343  143.7412 LP  0  0  0  0  0  0  0  0  0  0  0  0  # atno 17321 bound_to 7965
  140.7691  143.3383  151.2262 LP  0  0  0  0  0  0  0  0  0  0  0  0  # atno 17342 bound_to 10162
  139.6963  143.9608  152.2884 LP  0  0  0  0  0  0  0  0  0  0  0  0  # atno 17343 bound_to 10162
  157.5087  130.7925  149.7681 LP  0  0  0  0  0  0  0  0  0  0  0  0  # atno 17370 bound_to 10713
  156.0031  130.3870  150.2532 LP  0  0  0  0  0  0  0  0  0  0  0  0  # atno 17371 bound_to 10713
  141.0139  134.0982  157.4192 LP  0  0  0  0  0  0  0  0  0  0  0  0  # atno 17394 bound_to 11000
  139.8889  135.0101  156.6646 LP  0  0  0  0  0  0  0  0  0  0  0  0  # atno 17395 bound_to 11000

$$$$
