AV-unprocessed.smi:370|AV-procd|sdf|2437|dock5
  -GOLD-   2262022373D 1   1.00000     0.00000
 Structure written by MMmdl.
 43 44  0  0  0  0  0  0  0  0  2 V2000
  144.8128  133.6858  150.2040 C   0  0  0  0  0  0  0  0  0  0  0  0
  144.5687  134.8153  151.1447 C   0  0  0  0  0  0  0  0  0  0  0  0
  145.2243  135.9916  151.3771 C   0  0  0  0  0  0  0  0  0  0  0  0
  144.4504  136.5906  152.4062 C   0  0  0  0  0  0  0  0  0  0  0  0
  144.8029  137.8571  152.9387 N   0  0  0  0  0  0  0  0  0  0  0  0
  145.7187  138.1193  153.8865 C   0  0  0  0  0  0  0  0  0  0  0  0
  146.4349  137.2800  154.4330 O   0  0  0  0  0  0  0  0  0  0  0  0
  145.7593  139.4282  154.1772 N   0  0  0  0  0  0  0  0  0  0  0  0
  146.6457  140.0548  155.1589 C   0  0  0  0  0  0  0  0  0  0  0  0
  147.1089  141.4962  154.7801 C   0  0  0  0  0  0  0  0  0  0  0  0
  147.5659  141.4686  153.2973 C   0  0  0  0  0  0  0  0  0  0  0  0
  145.9375  142.5031  154.8930 C   0  0  0  0  0  0  0  0  0  0  0  0
  148.2469  141.8855  155.6935 N   0  3  0  0  0  0  0  0  0  0  0  0
  148.0154  141.7015  157.1556 C   0  0  0  0  0  0  0  0  0  0  0  0
  149.1886  142.2707  157.9736 C   0  0  0  0  0  0  0  0  0  0  0  0
  150.4087  141.6698  157.5663 O   0  0  0  0  0  0  0  0  0  0  0  0
  150.6871  141.9315  156.1990 C   0  0  0  0  0  0  0  0  0  0  0  0
  149.5780  141.3179  155.3309 C   0  0  0  0  0  0  0  0  0  0  0  0
  143.4157  135.8482  152.7686 N   0  0  0  0  0  0  0  0  0  0  0  0
  143.4863  134.7063  151.9619 O   0  0  0  0  0  0  0  0  0  0  0  0
  145.7296  133.8436  149.6358 H   0  0  0  0  0  0  0  0  0  0  0  0
  143.9889  133.5871  149.4973 H   0  0  0  0  0  0  0  0  0  0  0  0
  144.9085  132.7453  150.7467 H   0  0  0  0  0  0  0  0  0  0  0  0
  146.1138  136.3603  150.8880 H   0  0  0  0  0  0  0  0  0  0  0  0
  144.2952  138.6451  152.5648 H   0  0  0  0  0  0  0  0  0  0  0  0
  145.1325  140.0421  153.6774 H   0  0  0  0  0  0  0  0  0  0  0  0
  146.1553  140.0287  156.1307 H   0  0  0  0  0  0  0  0  0  0  0  0
  147.5189  139.4091  155.2585 H   0  0  0  0  0  0  0  0  0  0  0  0
  146.7881  141.0888  152.6349 H   0  0  0  0  0  0  0  0  0  0  0  0
  148.4435  140.8355  153.1606 H   0  0  0  0  0  0  0  0  0  0  0  0
  147.8034  142.4641  152.9211 H   0  0  0  0  0  0  0  0  0  0  0  0
  145.1723  142.3121  154.1402 H   0  0  0  0  0  0  0  0  0  0  0  0
  146.2715  143.5301  154.7457 H   0  0  0  0  0  0  0  0  0  0  0  0
  145.4423  142.4492  155.8629 H   0  0  0  0  0  0  0  0  0  0  0  0
  147.1202  142.2228  157.4900 H   0  0  0  0  0  0  0  0  0  0  0  0
  147.8805  140.6433  157.3822 H   0  0  0  0  0  0  0  0  0  0  0  0
  149.2499  143.3545  157.8604 H   0  0  0  0  0  0  0  0  0  0  0  0
  149.0360  142.0717  159.0344 H   0  0  0  0  0  0  0  0  0  0  0  0
  150.7744  143.0053  156.0251 H   0  0  0  0  0  0  0  0  0  0  0  0
  151.6504  141.4882  155.9462 H   0  0  0  0  0  0  0  0  0  0  0  0
  149.5785  140.2370  155.4760 H   0  0  0  0  0  0  0  0  0  0  0  0
  149.8232  141.4968  154.2864 H   0  0  0  0  0  0  0  0  0  0  0  0
  148.3370  142.8845  155.5740 H   0  0  0  0  0  0  0  0  0  0  0  0
  1  2  1  0  0  0  0
  1 21  1  0  0  0  0
  1 22  1  0  0  0  0
  1 23  1  0  0  0  0
  2 20  1  0  0  0  0
  2  3  2  0  0  0  0
  3  4  1  0  0  0  0
  3 24  1  0  0  0  0
  4  5  1  0  0  0  0
  4 19  2  0  0  0  0
  5  6  1  0  0  0  0
  5 25  1  0  0  0  0
  6  7  2  0  0  0  0
  6  8  1  0  0  0  0
  8  9  1  0  0  0  0
  8 26  1  0  0  0  0
  9 10  1  0  0  0  0
  9 27  1  0  0  0  0
  9 28  1  0  0  0  0
 10 11  1  0  0  0  0
 10 12  1  0  0  0  0
 10 13  1  0  0  0  0
 11 29  1  0  0  0  0
 11 30  1  0  0  0  0
 11 31  1  0  0  0  0
 12 32  1  0  0  0  0
 12 33  1  0  0  0  0
 12 34  1  0  0  0  0
 13 18  1  0  0  0  0
 13 14  1  0  0  0  0
 13 43  1  0  0  0  0
 14 15  1  0  0  0  0
 14 35  1  0  0  0  0
 14 36  1  0  0  0  0
 15 16  1  0  0  0  0
 15 37  1  0  0  0  0
 15 38  1  0  0  0  0
 16 17  1  0  0  0  0
 17 18  1  0  0  0  0
 17 39  1  0  0  0  0
 17 40  1  0  0  0  0
 18 41  1  0  0  0  0
 18 42  1  0  0  0  0
 19 20  1  0  0  0  0
M  CHG  1  13   1
M  END
> <s_m_source_file>
AV-unprocessed.smi

> <i_m_source_file_index>
370

> <i_lp_mmshare_version>
43012

> <i_f3d_flags>
0

> <s_epik_input>
W0NIM11jMVtjSF1jKG5vMSlbTkhdQyg9TylbTkhdW0NIMl1DKFtDSDNdKShbQ0gzXSlOMltDSDJdW0NIMl1PW0NIMl1bQ0gyXTI=

> <s_epik_cmdline>
J2VwaWtfcHl0aG9uJywgJy1waCcsICc3LjAnLCAnLXRuJywgJzgnLCAnLW1hJywgJzIwMCcsICctbWV0YWxfYmluZGluZycsICctaW1hZScsICc8aW5maWxlLm1hZT4nLCAnLW9tYWUnLCAnPG91dGZpbGUubWFlPic=

> <r_epik_Ionization_Penalty>
0.707076

> <r_epik_Ionization_Penalty_Charging>
0.707039

> <r_epik_Ionization_Penalty_Neutral>
3.67886e-05

> <r_epik_State_Penalty>
0.730276

> <r_epik_Charging_Adjusted_Penalty>
1.43732

> <i_epik_Tot_Q>
1

> <i_epik_Tot_abs_Q>
1

> <r_epik_Metal_State_Penalty>
0.743216

> <b_epik_Metal_Only>
0

> <s_lp_Force_Field>
OPLS_2005

> <r_lp_Energy>
23.7539

> <b_lp_Chiralities_Consistent>
1

> <s_lp_Variant>
AV-unprocessed.smi:370-2

> <Gold.Version>
5.8.1

> <Gold.Id.Protein>
6NUR|6NUR_protein|mol2

> <Gold.PLP.Fitness>
37.9780

> <Gold.PLP.PLP>
-28.7063

> <Gold.PLP.part.hbond>
-3.0955

> <Gold.PLP.part.metal>
0.0000

> <Gold.PLP.part.buried>
-5.1973

> <Gold.PLP.part.nonpolar>
-20.9632

> <Gold.PLP.part.repulsive>
0.5516

> <Gold.PLP.ligand.clash>
0.0000

> <Gold.PLP.ligand.torsion>
1.4099

> <Gold.PLP.Chemscore.Hbond>
4.0000

> <Gold.PLP.Chemscore.CHOScore>
0.0000

> <Gold.PLP.Chemscore.Metal>
0.0000

> <Gold.Chemscore.Hbonds>
donor molecule, donor type, donor heavy atom, donor atom, acceptor molecule, acceptor atom, score
      L1  H     5    25       P1 10175  1.00
      L1  H     8    26       P1 10175  1.00
      L1  H    13    43       P1  8028  2.00

> <Gold.PLP.Chemscore.Internal.Correction>
0.0917

> <Gold.Rescore>
     Score         DG    S(hbond)    S(metal)    S(lipo)     H(rot)  DE(clash)    DE(int)     intcor
     15.99     -18.30       2.94        0.00      60.70       1.60       0.73       1.58       ----

> <Gold.Chemscore.Fitness>
15.9884

> <Gold.Chemscore.DG>
-18.3012

> <Gold.Chemscore.ZeroCoef>
-5.4800

> <Gold.Chemscore.Hbond>
2.9369

> <Gold.Chemscore.Metal>
0.0000

> <Gold.Chemscore.Lipo>
60.7050

> <Gold.Chemscore.Internal_Hbond>
0.0000

> <Gold.Chemscore.DEClash>
0.7344

> <Gold.Chemscore.DEInternal>
1.5783

> <Gold.Chemscore.Rot>
1.5979

> <Gold.Chemscore.Internal.Correction>
   9.000000E+99

> <Gold.Chemscore.Hbonds>
donor molecule, donor type, donor heavy atom, donor atom, acceptor molecule, acceptor atom, score
      L1  H     5    25       P1 10175  0.99
      L1  H     8    26       P1 10175  0.98
      L1  H    13    43       P1  8028  0.98

> <Gold.Chemscore.Hbond.Weighted>
-9.8093

> <Gold.Chemscore.Metal.Weighted>
-0.0000

> <Gold.Chemscore.Lipo.Weighted>
-7.1025

> <Gold.Chemscore.Internal_Hbond.Weighted>
0.0000

> <Gold.Chemscore.DEClash.Weighted>
0.7344

> <Gold.Chemscore.DEInternal.Weighted>
1.5783

> <Gold.Chemscore.Rot.Weighted>
4.0906

> <Gold.Chemscore.Internal.Correction.Weighted>
   9.000000E+99

> <Gold.Protein.RotatedTorsions>
[ 6907 6896 6895 6894 ] final  111.47 input  -60.11 | X-H torsion
[ 7974 7965 7964 7962 ] final   53.67 input  175.53 | X-H torsion
[ 8008 7997 7996 7995 ] final  -29.15 input   59.86 | X-H torsion
[ 10167 10162 10161 10158 ] final  157.16 input  -65.29 | X-H torsion
[ 10718 10713 10712 10709 ] final -127.68 input   66.30 | X-H torsion
[ 10763 10752 10751 10750 ] final -178.48 input  -60.55 | X-H torsion
[ 11005 11000 10999 10996 ] final -122.23 input  -57.11 | X-H torsion

> <Gold.Protein.ActiveResidues>
 VAL166  LYS551  ARG553  GLY616  TRP617  ASP618  TYR619  PRO620  LYS621  CYS622 
 ASP623  PHE694  ASN695  SER759  ASP760  ASP761  ALA762  ILE779  LEU786  VAL792 
 PHE793  MET794  SER795  GLU796  ALA797  LYS798  CYS799  TRP800  GLU811  SER814 

> <Gold.Protein.RotatedAtoms>
  152.4968  133.8653  159.7270 H   0  0  0  0  0  0  0  0  0  0  0  0  # atno 6907 bound_to 6896
  150.9154  133.6937  159.2851 H   0  0  0  0  0  0  0  0  0  0  0  0  # atno 6908 bound_to 6896
  151.4332  135.1016  159.9701 H   0  0  0  0  0  0  0  0  0  0  0  0  # atno 6909 bound_to 6896
  145.9687  139.4128  143.0203 H   0  0  0  0  0  0  0  0  0  0  0  0  # atno 7974 bound_to 7965
  154.4302  140.1826  156.1202 H   0  0  0  0  0  0  0  0  0  0  0  0  # atno 8008 bound_to 7997
  156.0149  140.3347  155.6953 H   0  0  0  0  0  0  0  0  0  0  0  0  # atno 8009 bound_to 7997
  155.6058  140.0645  157.2711 H   0  0  0  0  0  0  0  0  0  0  0  0  # atno 8010 bound_to 7997
  139.4822  144.4943  151.8262 H   0  0  0  0  0  0  0  0  0  0  0  0  # atno 10167 bound_to 10162
  156.1880  130.6776  151.0388 H   0  0  0  0  0  0  0  0  0  0  0  0  # atno 10718 bound_to 10713
  154.5472  135.2810  155.1042 H   0  0  0  0  0  0  0  0  0  0  0  0  # atno 10763 bound_to 10752
  154.2502  135.6341  153.5241 H   0  0  0  0  0  0  0  0  0  0  0  0  # atno 10764 bound_to 10752
  152.9993  135.5581  154.6027 H   0  0  0  0  0  0  0  0  0  0  0  0  # atno 10765 bound_to 10752
  141.0011  134.0401  157.3536 H   0  0  0  0  0  0  0  0  0  0  0  0  # atno 11005 bound_to 11000
  145.7936  140.9803  143.1036 LP  0  0  0  0  0  0  0  0  0  0  0  0  # atno 17320 bound_to 7965
  144.6832  139.9714  143.7482 LP  0  0  0  0  0  0  0  0  0  0  0  0  # atno 17321 bound_to 7965
  140.4430  144.1960  150.5892 LP  0  0  0  0  0  0  0  0  0  0  0  0  # atno 17342 bound_to 10162
  140.4663  143.2429  151.9150 LP  0  0  0  0  0  0  0  0  0  0  0  0  # atno 17343 bound_to 10162
  157.6911  131.0809  150.7105 LP  0  0  0  0  0  0  0  0  0  0  0  0  # atno 17370 bound_to 10713
  156.7162  130.4666  149.5534 LP  0  0  0  0  0  0  0  0  0  0  0  0  # atno 17371 bound_to 10713
  139.9039  135.0174  156.7397 LP  0  0  0  0  0  0  0  0  0  0  0  0  # atno 17394 bound_to 11000
  140.6888  133.9409  155.7953 LP  0  0  0  0  0  0  0  0  0  0  0  0  # atno 17395 bound_to 11000

$$$$
