AV-unprocessed.smi:2007|AV-procd|sdf|8136|dock6
  -GOLD-   2272010373D 1   1.00000     0.00000
 Structure written by MMmdl.
 37 38  0  0  0  0  0  0  0  0  2 V2000
  147.8888  133.5978  155.8189 C   0  0  0  0  0  0  0  0  0  0  0  0
  148.1644  134.9437  155.1348 C   0  0  1  0  0  0  0  0  0  0  0  0
  149.6170  135.4108  155.3881 C   0  0  0  0  0  0  0  0  0  0  0  0
  149.9336  136.7124  154.7473 N   0  3  0  0  0  0  0  0  0  0  0  0
  149.0191  137.8087  155.1494 C   0  0  0  0  0  0  0  0  0  0  0  0
  149.3646  139.0957  154.3820 C   0  0  0  0  0  0  0  0  0  0  0  0
  150.7229  139.4431  154.6238 O   0  0  0  0  0  0  0  0  0  0  0  0
  151.6194  138.4341  154.1745 C   0  0  0  0  0  0  0  0  0  0  0  0
  151.3450  137.1229  154.9308 C   0  0  0  0  0  0  0  0  0  0  0  0
  147.8819  134.8143  153.7042 N   0  0  0  0  0  0  0  0  0  0  0  0
  146.8472  134.1554  153.1604 C   0  0  0  0  0  0  0  0  0  0  0  0
  145.9721  133.6007  153.8255 O   0  0  0  0  0  0  0  0  0  0  0  0
  146.8953  134.1936  151.8175 N   0  0  0  0  0  0  0  0  0  0  0  0
  145.9652  133.6517  150.8920 C   0  0  0  0  0  0  0  0  0  0  0  0
  144.7320  134.1320  150.6932 N   0  0  0  0  0  0  0  0  0  0  0  0
  144.0375  133.4066  149.7215 C   0  0  0  0  0  0  0  0  0  0  0  0
  144.7637  132.3729  149.1846 C   0  0  0  0  0  0  0  0  0  0  0  0
  146.3584  132.2688  149.8813 S   0  0  0  0  0  0  0  0  0  0  0  0
  148.0486  133.6655  156.8955 H   0  0  0  0  0  0  0  0  0  0  0  0
  148.5424  132.8136  155.4350 H   0  0  0  0  0  0  0  0  0  0  0  0
  146.8577  133.2796  155.6604 H   0  0  0  0  0  0  0  0  0  0  0  0
  147.4716  135.6651  155.5701 H   0  0  0  0  0  0  0  0  0  0  0  0
  149.8217  135.4735  156.4580 H   0  0  0  0  0  0  0  0  0  0  0  0
  150.2903  134.6466  154.9967 H   0  0  0  0  0  0  0  0  0  0  0  0
  147.9839  137.5350  154.9480 H   0  0  0  0  0  0  0  0  0  0  0  0
  149.1007  137.9818  156.2236 H   0  0  0  0  0  0  0  0  0  0  0  0
  149.1920  138.9696  153.3118 H   0  0  0  0  0  0  0  0  0  0  0  0
  148.7257  139.9142  154.7138 H   0  0  0  0  0  0  0  0  0  0  0  0
  151.5142  138.2914  153.0977 H   0  0  0  0  0  0  0  0  0  0  0  0
  152.6426  138.7645  154.3536 H   0  0  0  0  0  0  0  0  0  0  0  0
  151.5555  137.2492  155.9940 H   0  0  0  0  0  0  0  0  0  0  0  0
  152.0105  136.3424  154.5604 H   0  0  0  0  0  0  0  0  0  0  0  0
  148.5492  135.2387  153.0761 H   0  0  0  0  0  0  0  0  0  0  0  0
  147.6870  134.6668  151.4076 H   0  0  0  0  0  0  0  0  0  0  0  0
  143.0276  133.6965  149.4719 H   0  0  0  0  0  0  0  0  0  0  0  0
  144.4581  131.6693  148.4242 H   0  0  0  0  0  0  0  0  0  0  0  0
  149.8067  136.5772  153.7540 H   0  0  0  0  0  0  0  0  0  0  0  0
  1  2  1  0  0  0  0
  1 19  1  0  0  0  0
  1 20  1  0  0  0  0
  1 21  1  0  0  0  0
  2  3  1  0  0  0  0
  2 10  1  0  0  0  0
  2 22  1  0  0  0  0
  3  4  1  0  0  0  0
  3 23  1  0  0  0  0
  3 24  1  0  0  0  0
  4  9  1  0  0  0  0
  4  5  1  0  0  0  0
  4 37  1  0  0  0  0
  5  6  1  0  0  0  0
  5 25  1  0  0  0  0
  5 26  1  0  0  0  0
  6  7  1  0  0  0  0
  6 27  1  0  0  0  0
  6 28  1  0  0  0  0
  7  8  1  0  0  0  0
  8  9  1  0  0  0  0
  8 29  1  0  0  0  0
  8 30  1  0  0  0  0
  9 31  1  0  0  0  0
  9 32  1  0  0  0  0
 10 11  1  0  0  0  0
 10 33  1  0  0  0  0
 11 12  2  0  0  0  0
 11 13  1  0  0  0  0
 13 14  1  0  0  0  0
 13 34  1  0  0  0  0
 14 18  1  0  0  0  0
 14 15  2  0  0  0  0
 15 16  1  0  0  0  0
 16 17  2  0  0  0  0
 16 35  1  0  0  0  0
 17 18  1  0  0  0  0
 17 36  1  0  0  0  0
M  CHG  1   4   1
M  END
> <s_m_source_file>
AV-unprocessed.smi

> <i_m_source_file_index>
2007

> <i_lp_mmshare_version>
43012

> <i_f3d_flags>
0

> <s_epik_input>
W0NIMl0xW0NIMl1PW0NIMl1bQ0gyXU4xW0NIMl1bQ0BASF0oW0NIM10pW05IXUMoPU8pW05IXWMybltjSF1bY0hdczI=

> <s_epik_cmdline>
J2VwaWtfcHl0aG9uJywgJy1waCcsICc3LjAnLCAnLXRuJywgJzgnLCAnLW1hJywgJzIwMCcsICctbWV0YWxfYmluZGluZycsICctaW1hZScsICc8aW5maWxlLm1hZT4nLCAnLW9tYWUnLCAnPG91dGZpbGUubWFlPic=

> <r_lp_tautomer_probability>
0.999

> <r_epik_Ionization_Penalty>
0.695848

> <r_epik_Ionization_Penalty_Charging>
0.695697

> <r_epik_Ionization_Penalty_Neutral>
0.000150585

> <r_epik_State_Penalty>
0.717972

> <r_epik_Charging_Adjusted_Penalty>
1.41367

> <i_epik_Tot_Q>
1

> <i_epik_Tot_abs_Q>
1

> <r_epik_Metal_State_Penalty>
0.763271

> <b_epik_Metal_Only>
0

> <s_lp_Force_Field>
OPLS_2005

> <r_lp_Energy>
20.6539

> <b_lp_Chiralities_Consistent>
1

> <s_lp_Variant>
AV-unprocessed.smi:2007-4

> <Gold.Version>
5.8.1

> <Gold.Id.Protein>
6NUR|6NUR_protein|mol2

> <Gold.PLP.Fitness>
39.8110

> <Gold.PLP.PLP>
-24.6037

> <Gold.PLP.part.hbond>
-4.0000

> <Gold.PLP.part.metal>
0.0000

> <Gold.PLP.part.buried>
-0.4055

> <Gold.PLP.part.nonpolar>
-19.6025

> <Gold.PLP.part.repulsive>
0.4715

> <Gold.PLP.ligand.clash>
0.0000

> <Gold.PLP.ligand.torsion>
0.9048

> <Gold.PLP.Chemscore.Hbond>
4.6650

> <Gold.PLP.Chemscore.CHOScore>
1.0000

> <Gold.PLP.Chemscore.Metal>
0.0000

> <Gold.Chemscore.Hbonds>
donor molecule, donor type, donor heavy atom, donor atom, acceptor molecule, acceptor atom, score
      L1  H     4    37       P1  7948  1.82
      L1  H    10    33       P1  7948  1.00
      L1  H    13    34       P1  7948  0.68
      P1  H  7989  7998       L1     7  0.60
      L1  C    16    35       P1 10186  1.00

> <Gold.PLP.Chemscore.Internal.Correction>
0.0218

> <Gold.Rescore>
     Score         DG    S(hbond)    S(metal)    S(lipo)     H(rot)  DE(clash)    DE(int)     intcor
     12.89     -15.56       1.93        0.00      66.69       1.63       0.28       2.39       ----

> <Gold.Chemscore.Fitness>
12.8867

> <Gold.Chemscore.DG>
-15.5598

> <Gold.Chemscore.ZeroCoef>
-5.4800

> <Gold.Chemscore.Hbond>
1.9316

> <Gold.Chemscore.Metal>
0.0000

> <Gold.Chemscore.Lipo>
66.6893

> <Gold.Chemscore.Internal_Hbond>
0.0000

> <Gold.Chemscore.DEClash>
0.2825

> <Gold.Chemscore.DEInternal>
2.3905

> <Gold.Chemscore.Rot>
1.6306

> <Gold.Chemscore.Internal.Correction>
   9.000000E+99

> <Gold.Chemscore.Hbonds>
donor molecule, donor type, donor heavy atom, donor atom, acceptor molecule, acceptor atom, score
      L1  H     4    37       P1  7948  0.39
      L1  H    10    33       P1  7948  0.82
      L1  H    13    34       P1  7948  0.11
      P1  H  7989  7998       L1     7  0.04

> <Gold.Chemscore.Hbond.Weighted>
-6.4514

> <Gold.Chemscore.Metal.Weighted>
-0.0000

> <Gold.Chemscore.Lipo.Weighted>
-7.8026

> <Gold.Chemscore.Internal_Hbond.Weighted>
0.0000

> <Gold.Chemscore.DEClash.Weighted>
0.2825

> <Gold.Chemscore.DEInternal.Weighted>
2.3905

> <Gold.Chemscore.Rot.Weighted>
4.1743

> <Gold.Chemscore.Internal.Correction.Weighted>
   9.000000E+99

> <Gold.Protein.RotatedTorsions>
[ 6907 6896 6895 6894 ] final   36.23 input  -60.11 | X-H torsion
[ 7974 7965 7964 7962 ] final  166.74 input  175.53 | X-H torsion
[ 8008 7997 7996 7995 ] final -163.74 input   59.86 | X-H torsion
[ 10167 10162 10161 10158 ] final -164.75 input  -65.29 | X-H torsion
[ 10718 10713 10712 10709 ] final -174.88 input   66.30 | X-H torsion
[ 10763 10752 10751 10750 ] final   83.34 input  -60.55 | X-H torsion
[ 11005 11000 10999 10996 ] final   95.42 input  -57.11 | X-H torsion

> <Gold.Protein.ActiveResidues>
 VAL166  LYS551  ARG553  GLY616  TRP617  ASP618  TYR619  PRO620  LYS621  CYS622 
 ASP623  PHE694  ASN695  SER759  ASP760  ASP761  ALA762  ILE779  LEU786  VAL792 
 PHE793  MET794  SER795  GLU796  ALA797  LYS798  CYS799  TRP800  GLU811  SER814 

> <Gold.Protein.RotatedAtoms>
  152.1268  134.9164  160.0560 H   0  0  0  0  0  0  0  0  0  0  0  0  # atno 6907 bound_to 6896
  152.0284  133.3922  159.4295 H   0  0  0  0  0  0  0  0  0  0  0  0  # atno 6908 bound_to 6896
  150.6853  134.3470  159.4936 H   0  0  0  0  0  0  0  0  0  0  0  0  # atno 6909 bound_to 6896
  144.7451  139.8659  143.6385 H   0  0  0  0  0  0  0  0  0  0  0  0  # atno 7974 bound_to 7965
  155.8256  140.0926  157.1823 H   0  0  0  0  0  0  0  0  0  0  0  0  # atno 8008 bound_to 7997
  154.3979  140.1428  156.3612 H   0  0  0  0  0  0  0  0  0  0  0  0  # atno 8009 bound_to 7997
  155.8221  140.3446  155.5523 H   0  0  0  0  0  0  0  0  0  0  0  0  # atno 8010 bound_to 7997
  139.6229  144.0588  152.1949 H   0  0  0  0  0  0  0  0  0  0  0  0  # atno 10167 bound_to 10162
  156.7916  130.9520  151.3120 H   0  0  0  0  0  0  0  0  0  0  0  0  # atno 10718 bound_to 10713
  153.1282  135.4695  154.9306 H   0  0  0  0  0  0  0  0  0  0  0  0  # atno 10763 bound_to 10752
  154.7640  135.3139  154.8326 H   0  0  0  0  0  0  0  0  0  0  0  0  # atno 10764 bound_to 10752
  153.8874  135.6888  153.4816 H   0  0  0  0  0  0  0  0  0  0  0  0  # atno 10765 bound_to 10752
  139.8789  134.8898  156.4009 H   0  0  0  0  0  0  0  0  0  0  0  0  # atno 11005 bound_to 11000
  146.1315  139.4352  143.0165 LP  0  0  0  0  0  0  0  0  0  0  0  0  # atno 17320 bound_to 7965
  145.7155  141.0092  143.1430 LP  0  0  0  0  0  0  0  0  0  0  0  0  # atno 17321 bound_to 7965
  140.0235  144.6135  150.7547 LP  0  0  0  0  0  0  0  0  0  0  0  0  # atno 17342 bound_to 10162
  140.7393  143.2790  151.3656 LP  0  0  0  0  0  0  0  0  0  0  0  0  # atno 17343 bound_to 10162
  157.6598  130.8956  149.9805 LP  0  0  0  0  0  0  0  0  0  0  0  0  # atno 17370 bound_to 10713
  156.1155  130.3648  149.9975 LP  0  0  0  0  0  0  0  0  0  0  0  0  # atno 17371 bound_to 10713
  140.9268  133.7607  155.9974 LP  0  0  0  0  0  0  0  0  0  0  0  0  # atno 17394 bound_to 11000
  140.8377  134.3104  157.5325 LP  0  0  0  0  0  0  0  0  0  0  0  0  # atno 17395 bound_to 11000

$$$$
