AV-unprocessed.smi:840|AV-procd|sdf|3913|dock9
  -GOLD-   22720 1373D 1   1.00000     0.00000
 Structure written by MMmdl.
 36 37  0  0  0  0  0  0  0  0  2 V2000
  150.7169  137.6497  154.8552 C   0  0  0  0  0  0  0  0  0  0  0  0
  150.9020  139.1560  154.6076 C   0  0  2  0  0  0  0  0  0  0  0  0
  151.8408  139.6678  155.6057 N   0  0  0  0  0  0  0  0  0  0  0  0
  151.7282  139.5346  156.9362 C   0  0  0  0  0  0  0  0  0  0  0  0
  150.7632  138.9332  157.4145 O   0  0  0  0  0  0  0  0  0  0  0  0
  152.7385  140.1083  157.6287 N   0  5  0  0  0  0  0  0  0  0  0  0
  152.4948  141.1630  158.4236 C   0  0  0  0  0  0  0  0  0  0  0  0
  151.4381  141.9679  158.2629 N   0  0  0  0  0  0  0  0  0  0  0  0
  151.3745  142.9955  159.2057 C   0  0  0  0  0  0  0  0  0  0  0  0
  152.4023  142.9679  160.1107 C   0  0  0  0  0  0  0  0  0  0  0  0
  153.4878  141.6426  159.8030 S   0  0  0  0  0  0  0  0  0  0  0  0
  149.5328  139.8393  154.7507 C   0  0  0  0  0  0  0  0  0  0  0  0
  149.0672  140.0894  155.8638 O   0  0  0  0  0  0  0  0  0  0  0  0
  148.8930  140.1215  153.6059 N   0  0  0  0  0  0  0  0  0  0  0  0
  147.5912  140.7752  153.5083 C   0  0  0  0  0  0  0  0  0  0  0  0
  147.6503  142.2018  154.0883 C   0  0  0  0  0  0  0  0  0  0  0  0
  146.4633  142.3212  155.0465 C   0  0  0  0  0  0  0  0  0  0  0  0
  146.2367  140.8985  155.5473 C   0  0  0  0  0  0  0  0  0  0  0  0
  146.5215  140.0242  154.3262 C   0  0  0  0  0  0  0  0  0  0  0  0
  150.0236  137.2120  154.1356 H   0  0  0  0  0  0  0  0  0  0  0  0
  150.3323  137.4460  155.8558 H   0  0  0  0  0  0  0  0  0  0  0  0
  151.6652  137.1210  154.7543 H   0  0  0  0  0  0  0  0  0  0  0  0
  151.3032  139.3128  153.6043 H   0  0  0  0  0  0  0  0  0  0  0  0
  152.6515  140.1579  155.2578 H   0  0  0  0  0  0  0  0  0  0  0  0
  150.5598  143.7025  159.1585 H   0  0  0  0  0  0  0  0  0  0  0  0
  152.5863  143.6405  160.9346 H   0  0  0  0  0  0  0  0  0  0  0  0
  149.3512  139.8827  152.7386 H   0  0  0  0  0  0  0  0  0  0  0  0
  147.2832  140.8213  152.4619 H   0  0  0  0  0  0  0  0  0  0  0  0
  148.5746  142.3526  154.6488 H   0  0  0  0  0  0  0  0  0  0  0  0
  147.6203  142.9638  153.3088 H   0  0  0  0  0  0  0  0  0  0  0  0
  146.6467  143.0279  155.8564 H   0  0  0  0  0  0  0  0  0  0  0  0
  145.5828  142.6613  154.4997 H   0  0  0  0  0  0  0  0  0  0  0  0
  146.9517  140.6687  156.3385 H   0  0  0  0  0  0  0  0  0  0  0  0
  145.2340  140.7471  155.9482 H   0  0  0  0  0  0  0  0  0  0  0  0
  145.6130  139.9346  153.7294 H   0  0  0  0  0  0  0  0  0  0  0  0
  146.8181  139.0129  154.6088 H   0  0  0  0  0  0  0  0  0  0  0  0
  1  2  1  0  0  0  0
  1 20  1  0  0  0  0
  1 21  1  0  0  0  0
  1 22  1  0  0  0  0
  2  3  1  0  0  0  0
  2 12  1  0  0  0  0
  2 23  1  0  0  0  0
  3  4  1  0  0  0  0
  3 24  1  0  0  0  0
  4  5  2  0  0  0  0
  4  6  1  0  0  0  0
  6  7  1  0  0  0  0
  7 11  1  0  0  0  0
  7  8  2  0  0  0  0
  8  9  1  0  0  0  0
  9 10  2  0  0  0  0
  9 25  1  0  0  0  0
 10 11  1  0  0  0  0
 10 26  1  0  0  0  0
 12 13  2  0  0  0  0
 12 14  1  0  0  0  0
 14 15  1  0  0  0  0
 14 27  1  0  0  0  0
 15 19  1  0  0  0  0
 15 16  1  0  0  0  0
 15 28  1  0  0  0  0
 16 17  1  0  0  0  0
 16 29  1  0  0  0  0
 16 30  1  0  0  0  0
 17 18  1  0  0  0  0
 17 31  1  0  0  0  0
 17 32  1  0  0  0  0
 18 19  1  0  0  0  0
 18 33  1  0  0  0  0
 18 34  1  0  0  0  0
 19 35  1  0  0  0  0
 19 36  1  0  0  0  0
M  CHG  1   6  -1
M  END
> <s_m_source_file>
AV-unprocessed.smi

> <i_m_source_file_index>
840

> <i_lp_mmshare_version>
43012

> <i_f3d_flags>
0

> <s_epik_input>
W0NIMl0xW0NIMl1bQ0gyXVtDSDJdW0NIXTFbTkhdQyg9TylbQ0BIXShbQ0gzXSlbTkhdQyg9TylbTkhdYzJuW2NIXVtjSF1zMg==

> <s_epik_cmdline>
J2VwaWtfcHl0aG9uJywgJy1waCcsICc3LjAnLCAnLXRuJywgJzgnLCAnLW1hJywgJzIwMCcsICctbWV0YWxfYmluZGluZycsICctaW1hZScsICc8aW5maWxlLm1hZT4nLCAnLW9tYWUnLCAnPG91dGZpbGUubWFlPic=

> <r_lp_tautomer_probability>
1

> <r_epik_Ionization_Penalty>
6.35467

> <r_epik_Ionization_Penalty_Charging>
5.47395

> <r_epik_Ionization_Penalty_Neutral>
0.880717

> <r_epik_State_Penalty>
5.4739

> <r_epik_Charging_Adjusted_Penalty>
10.9479

> <i_epik_Tot_Q>
-1

> <i_epik_Tot_abs_Q>
1

> <r_epik_Metal_State_Penalty>
1.48639

> <b_epik_Metal_Only>
1

> <s_lp_Force_Field>
OPLS_2005

> <r_lp_Energy>
14.0087

> <b_lp_Chiralities_Consistent>
1

> <s_lp_Variant>
AV-unprocessed.smi:840-3

> <Gold.Version>
5.8.1

> <Gold.Id.Protein>
6NUR|6NUR_protein|mol2

> <Gold.PLP.Fitness>
38.9710

> <Gold.PLP.PLP>
-32.6909

> <Gold.PLP.part.hbond>
-2.0000

> <Gold.PLP.part.metal>
0.0000

> <Gold.PLP.part.buried>
-3.0654

> <Gold.PLP.part.nonpolar>
-26.9017

> <Gold.PLP.part.repulsive>
0.3606

> <Gold.PLP.ligand.clash>
0.0000

> <Gold.PLP.ligand.torsion>
1.3596

> <Gold.PLP.Chemscore.Hbond>
2.9840

> <Gold.PLP.Chemscore.CHOScore>
0.0000

> <Gold.PLP.Chemscore.Metal>
0.0000

> <Gold.Chemscore.Hbonds>
donor molecule, donor type, donor heavy atom, donor atom, acceptor molecule, acceptor atom, score
      L1  H    14    27       P1  7957  1.00
      P1  H  7997  8010       L1     6  1.95

> <Gold.PLP.Chemscore.Internal.Correction>
0.0473

> <Gold.Rescore>
     Score         DG    S(hbond)    S(metal)    S(lipo)     H(rot)  DE(clash)    DE(int)     intcor
      9.23     -15.55       1.84        0.00      68.93       1.62       0.02       6.30       ----

> <Gold.Chemscore.Fitness>
9.2290

> <Gold.Chemscore.DG>
-15.5495

> <Gold.Chemscore.ZeroCoef>
-5.4800

> <Gold.Chemscore.Hbond>
1.8421

> <Gold.Chemscore.Metal>
0.0000

> <Gold.Chemscore.Lipo>
68.9317

> <Gold.Chemscore.Internal_Hbond>
0.0000

> <Gold.Chemscore.DEClash>
0.0236

> <Gold.Chemscore.DEInternal>
6.2970

> <Gold.Chemscore.Rot>
1.6204

> <Gold.Chemscore.Internal.Correction>
   9.000000E+99

> <Gold.Chemscore.Hbonds>
donor molecule, donor type, donor heavy atom, donor atom, acceptor molecule, acceptor atom, score
      L1  H    14    27       P1  7957  0.97
      P1  H  7997  8010       L1     6  0.73

> <Gold.Chemscore.Hbond.Weighted>
-6.1527

> <Gold.Chemscore.Metal.Weighted>
-0.0000

> <Gold.Chemscore.Lipo.Weighted>
-8.0650

> <Gold.Chemscore.Internal_Hbond.Weighted>
0.0000

> <Gold.Chemscore.DEClash.Weighted>
0.0236

> <Gold.Chemscore.DEInternal.Weighted>
6.2970

> <Gold.Chemscore.Rot.Weighted>
4.1481

> <Gold.Chemscore.Internal.Correction.Weighted>
   9.000000E+99

> <Gold.Protein.RotatedTorsions>
[ 6907 6896 6895 6894 ] final -170.01 input  -60.11 | X-H torsion
[ 7974 7965 7964 7962 ] final  -25.10 input  175.53 | X-H torsion
[ 8008 7997 7996 7995 ] final   61.05 input   59.86 | X-H torsion
[ 10167 10162 10161 10158 ] final  -75.13 input  -65.29 | X-H torsion
[ 10718 10713 10712 10709 ] final   16.04 input   66.30 | X-H torsion
[ 10763 10752 10751 10750 ] final  154.07 input  -60.55 | X-H torsion
[ 11005 11000 10999 10996 ] final  147.75 input  -57.11 | X-H torsion

> <Gold.Protein.ActiveResidues>
 VAL166  LYS551  ARG553  GLY616  TRP617  ASP618  TYR619  PRO620  LYS621  CYS622 
 ASP623  PHE694  ASN695  SER759  ASP760  ASP761  ALA762  ILE779  LEU786  VAL792 
 PHE793  MET794  SER795  GLU796  ALA797  LYS798  CYS799  TRP800  GLU811  SER814 

> <Gold.Protein.RotatedAtoms>
  151.5008  133.3505  159.2868 H   0  0  0  0  0  0  0  0  0  0  0  0  # atno 6907 bound_to 6896
  150.8774  134.8162  159.7211 H   0  0  0  0  0  0  0  0  0  0  0  0  # atno 6908 bound_to 6896
  152.4740  134.4901  159.9744 H   0  0  0  0  0  0  0  0  0  0  0  0  # atno 6909 bound_to 6896
  146.1512  140.4841  142.8610 H   0  0  0  0  0  0  0  0  0  0  0  0  # atno 7974 bound_to 7965
  155.5922  140.3493  155.4569 H   0  0  0  0  0  0  0  0  0  0  0  0  # atno 8008 bound_to 7997
  156.0293  140.1271  157.0300 H   0  0  0  0  0  0  0  0  0  0  0  0  # atno 8009 bound_to 7997
  154.4345  140.1046  156.6062 H   0  0  0  0  0  0  0  0  0  0  0  0  # atno 8010 bound_to 7997
  140.4969  143.2369  151.7817 H   0  0  0  0  0  0  0  0  0  0  0  0  # atno 10167 bound_to 10162
  157.0621  130.6313  149.5788 H   0  0  0  0  0  0  0  0  0  0  0  0  # atno 10718 bound_to 10713
  154.1463  135.2818  155.3147 H   0  0  0  0  0  0  0  0  0  0  0  0  # atno 10763 bound_to 10752
  154.6250  135.5454  153.7620 H   0  0  0  0  0  0  0  0  0  0  0  0  # atno 10764 bound_to 10752
  153.0235  135.6448  154.1609 H   0  0  0  0  0  0  0  0  0  0  0  0  # atno 10765 bound_to 10752
  140.0902  134.9045  157.1639 H   0  0  0  0  0  0  0  0  0  0  0  0  # atno 11005 bound_to 11000
  144.7907  140.6026  143.6543 LP  0  0  0  0  0  0  0  0  0  0  0  0  # atno 17320 bound_to 7965
  145.4817  139.1495  143.3758 LP  0  0  0  0  0  0  0  0  0  0  0  0  # atno 17321 bound_to 7965
  139.4863  144.4575  151.9581 LP  0  0  0  0  0  0  0  0  0  0  0  0  # atno 17342 bound_to 10162
  140.3663  144.2911  150.5926 LP  0  0  0  0  0  0  0  0  0  0  0  0  # atno 17343 bound_to 10162
  155.9975  130.5047  150.7537 LP  0  0  0  0  0  0  0  0  0  0  0  0  # atno 17370 bound_to 10713
  157.4946  131.0913  151.0387 LP  0  0  0  0  0  0  0  0  0  0  0  0  # atno 17371 bound_to 10713
  140.3363  134.2754  155.7219 LP  0  0  0  0  0  0  0  0  0  0  0  0  # atno 17394 bound_to 11000
  141.2075  133.7803  157.0113 LP  0  0  0  0  0  0  0  0  0  0  0  0  # atno 17395 bound_to 11000

$$$$
