AV-unprocessed.smi:2074|AV-procd|sdf|8452|dock5
  -GOLD-   2272011143D 1   1.00000     0.00000
 Structure written by MMmdl.
 43 44  0  0  0  0  0  0  0  0  1 V2000
  152.3671  143.1843  160.2735 C   0  0  0  0  0  0  0  0  0  0  0  0
  152.3588  142.0286  159.3149 C   0  0  0  0  0  0  0  0  0  0  0  0
  153.2394  141.0537  159.4641 N   0  0  0  0  0  0  0  0  0  0  0  0
  152.9895  140.1502  158.4269 O   0  0  0  0  0  0  0  0  0  0  0  0
  151.9574  140.6242  157.6837 C   0  0  0  0  0  0  0  0  0  0  0  0
  151.5413  139.7991  156.5136 C   0  0  0  0  0  0  0  0  0  0  0  0
  151.5063  141.8102  158.1938 C   0  0  0  0  0  0  0  0  0  0  0  0
  150.3841  142.6841  157.6905 C   0  0  0  0  0  0  0  0  0  0  0  0
  149.1042  142.4143  158.4859 C   0  0  0  0  0  0  0  0  0  0  0  0
  148.6627  141.2688  158.5820 O   0  0  0  0  0  0  0  0  0  0  0  0
  148.5087  143.4818  159.0397 N   0  0  0  0  0  0  0  0  0  0  0  0
  147.2415  143.4507  159.7652 C   0  0  0  0  0  0  0  0  0  0  0  0
  146.8723  144.8273  160.3904 C   0  0  2  0  0  0  0  0  0  0  0  0
  147.9835  145.2288  161.3936 C   0  0  0  0  0  0  0  0  0  0  0  0
  145.5209  144.8600  160.9961 N   0  0  0  0  0  0  0  0  0  0  0  0
  145.3866  143.9443  162.1353 C   0  0  0  0  0  0  0  0  0  0  0  0
  143.9733  143.9518  162.7437 C   0  0  0  0  0  0  0  0  0  0  0  0
  143.0183  143.6267  161.7432 O   0  0  0  0  0  0  0  0  0  0  0  0
  143.0597  144.5355  160.6521 C   0  0  0  0  0  0  0  0  0  0  0  0
  144.4662  144.5325  160.0290 C   0  0  0  0  0  0  0  0  0  0  0  0
  151.3560  143.5458  160.4613 H   0  0  0  0  0  0  0  0  0  0  0  0
  152.9483  144.0148  159.8725 H   0  0  0  0  0  0  0  0  0  0  0  0
  152.8015  142.9071  161.2346 H   0  0  0  0  0  0  0  0  0  0  0  0
  151.3078  140.4327  155.6580 H   0  0  0  0  0  0  0  0  0  0  0  0
  150.6549  139.2115  156.7523 H   0  0  0  0  0  0  0  0  0  0  0  0
  152.3339  139.1120  156.2164 H   0  0  0  0  0  0  0  0  0  0  0  0
  150.6285  143.7422  157.7863 H   0  0  0  0  0  0  0  0  0  0  0  0
  150.2054  142.5109  156.6283 H   0  0  0  0  0  0  0  0  0  0  0  0
  148.9426  144.3853  158.9186 H   0  0  0  0  0  0  0  0  0  0  0  0
  146.4855  143.0948  159.0673 H   0  0  0  0  0  0  0  0  0  0  0  0
  147.3137  142.6949  160.5477 H   0  0  0  0  0  0  0  0  0  0  0  0
  146.8923  145.5608  159.5826 H   0  0  0  0  0  0  0  0  0  0  0  0
  148.9839  145.1184  160.9781 H   0  0  0  0  0  0  0  0  0  0  0  0
  147.9384  144.6186  162.2963 H   0  0  0  0  0  0  0  0  0  0  0  0
  147.9113  146.2750  161.6886 H   0  0  0  0  0  0  0  0  0  0  0  0
  145.6427  142.9295  161.8269 H   0  0  0  0  0  0  0  0  0  0  0  0
  146.0723  144.2163  162.9346 H   0  0  0  0  0  0  0  0  0  0  0  0
  143.9051  143.2221  163.5506 H   0  0  0  0  0  0  0  0  0  0  0  0
  143.7439  144.9277  163.1744 H   0  0  0  0  0  0  0  0  0  0  0  0
  142.3177  144.2351  159.9120 H   0  0  0  0  0  0  0  0  0  0  0  0
  142.7877  145.5368  160.9898 H   0  0  0  0  0  0  0  0  0  0  0  0
  144.4548  145.2540  159.2140 H   0  0  0  0  0  0  0  0  0  0  0  0
  144.6628  143.5555  159.5847 H   0  0  0  0  0  0  0  0  0  0  0  0
  1  2  1  0  0  0  0
  1 21  1  0  0  0  0
  1 22  1  0  0  0  0
  1 23  1  0  0  0  0
  2  7  1  0  0  0  0
  2  3  2  0  0  0  0
  3  4  1  0  0  0  0
  4  5  1  0  0  0  0
  5  6  1  0  0  0  0
  5  7  2  0  0  0  0
  6 24  1  0  0  0  0
  6 25  1  0  0  0  0
  6 26  1  0  0  0  0
  7  8  1  0  0  0  0
  8  9  1  0  0  0  0
  8 27  1  0  0  0  0
  8 28  1  0  0  0  0
  9 10  2  0  0  0  0
  9 11  1  0  0  0  0
 11 12  1  0  0  0  0
 11 29  1  0  0  0  0
 12 13  1  0  0  0  0
 12 30  1  0  0  0  0
 12 31  1  0  0  0  0
 13 14  1  0  0  0  0
 13 15  1  0  0  0  0
 13 32  1  0  0  0  0
 14 33  1  0  0  0  0
 14 34  1  0  0  0  0
 14 35  1  0  0  0  0
 15 20  1  0  0  0  0
 15 16  1  0  0  0  0
 16 17  1  0  0  0  0
 16 36  1  0  0  0  0
 16 37  1  0  0  0  0
 17 18  1  0  0  0  0
 17 38  1  0  0  0  0
 17 39  1  0  0  0  0
 18 19  1  0  0  0  0
 19 20  1  0  0  0  0
 19 40  1  0  0  0  0
 19 41  1  0  0  0  0
 20 42  1  0  0  0  0
 20 43  1  0  0  0  0
M  END
> <s_m_source_file>
AV-unprocessed.smi

> <i_m_source_file_index>
2074

> <i_lp_mmshare_version>
43012

> <i_f3d_flags>
0

> <s_epik_input>
W0NIM11jMW5vYyhbQ0gzXSljMVtDSDJdQyg9TylbTkhdW0NIMl1bQ0BIXShbQ0gzXSlOMltDSDJdW0NIMl1PW0NIMl1bQ0gyXTI=

> <s_epik_cmdline>
J2VwaWtfcHl0aG9uJywgJy1waCcsICc3LjAnLCAnLXRuJywgJzgnLCAnLW1hJywgJzIwMCcsICctbWV0YWxfYmluZGluZycsICctaW1hZScsICc8aW5maWxlLm1hZT4nLCAnLW9tYWUnLCAnPG91dGZpbGUubWFlPic=

> <r_epik_Ionization_Penalty>
0.234179

> <r_epik_Ionization_Penalty_Charging>
0

> <r_epik_Ionization_Penalty_Neutral>
0.234179

> <r_epik_State_Penalty>
0.224936

> <r_epik_Charging_Adjusted_Penalty>
0.224936

> <i_epik_Tot_Q>
0

> <i_epik_Tot_abs_Q>
0

> <r_epik_Metal_State_Penalty>
0.224936

> <b_epik_Metal_Only>
0

> <s_lp_Force_Field>
OPLS_2005

> <r_lp_Energy>
22.7236

> <b_lp_Chiralities_Consistent>
1

> <s_lp_Variant>
AV-unprocessed.smi:2074-1

> <Gold.Version>
5.8.1

> <Gold.Id.Protein>
6NUR|6NUR_protein|mol2

> <Gold.PLP.Fitness>
38.2368

> <Gold.PLP.PLP>
-35.9528

> <Gold.PLP.part.hbond>
-2.2813

> <Gold.PLP.part.metal>
0.0000

> <Gold.PLP.part.buried>
-5.5922

> <Gold.PLP.part.nonpolar>
-28.7117

> <Gold.PLP.part.repulsive>
0.3586

> <Gold.PLP.ligand.clash>
0.0000

> <Gold.PLP.ligand.torsion>
0.3825

> <Gold.PLP.Chemscore.Hbond>
1.0000

> <Gold.PLP.Chemscore.CHOScore>
0.0000

> <Gold.PLP.Chemscore.Metal>
0.0000

> <Gold.Chemscore.Hbonds>
donor molecule, donor type, donor heavy atom, donor atom, acceptor molecule, acceptor atom, score
      P1  H  7997  8008       L1     4  0.73

> <Gold.PLP.Chemscore.Internal.Correction>
0.0490

> <Gold.Rescore>
     Score         DG    S(hbond)    S(metal)    S(lipo)     H(rot)  DE(clash)    DE(int)     intcor
     13.32     -13.75       0.60        0.00      91.25       1.72       0.12       0.31       ----

> <Gold.Chemscore.Fitness>
13.3241

> <Gold.Chemscore.DG>
-13.7465

> <Gold.Chemscore.ZeroCoef>
-5.4800

> <Gold.Chemscore.Hbond>
0.5966

> <Gold.Chemscore.Metal>
0.0000

> <Gold.Chemscore.Lipo>
91.2467

> <Gold.Chemscore.Internal_Hbond>
0.0000

> <Gold.Chemscore.DEClash>
0.1160

> <Gold.Chemscore.DEInternal>
0.3064

> <Gold.Chemscore.Rot>
1.7195

> <Gold.Chemscore.Internal.Correction>
   9.000000E+99

> <Gold.Chemscore.Hbonds>
donor molecule, donor type, donor heavy atom, donor atom, acceptor molecule, acceptor atom, score
      L1  H    11    29       P1  8029  0.01
      P1  H  7997  8008       L1     4  0.16

> <Gold.Chemscore.Hbond.Weighted>
-1.9925

> <Gold.Chemscore.Metal.Weighted>
-0.0000

> <Gold.Chemscore.Lipo.Weighted>
-10.6759

> <Gold.Chemscore.Internal_Hbond.Weighted>
0.0000

> <Gold.Chemscore.DEClash.Weighted>
0.1160

> <Gold.Chemscore.DEInternal.Weighted>
0.3064

> <Gold.Chemscore.Rot.Weighted>
4.4018

> <Gold.Chemscore.Internal.Correction.Weighted>
   9.000000E+99

> <Gold.Protein.RotatedTorsions>
[ 6907 6896 6895 6894 ] final  -53.80 input  -60.11 | X-H torsion
[ 7974 7965 7964 7962 ] final   48.66 input  175.53 | X-H torsion
[ 8008 7997 7996 7995 ] final  -78.83 input   59.86 | X-H torsion
[ 10167 10162 10161 10158 ] final   52.56 input  -65.29 | X-H torsion
[ 10718 10713 10712 10709 ] final  -80.48 input   66.30 | X-H torsion
[ 10763 10752 10751 10750 ] final   79.25 input  -60.55 | X-H torsion
[ 11005 11000 10999 10996 ] final  126.24 input  -57.11 | X-H torsion

> <Gold.Protein.ActiveResidues>
 VAL166  LYS551  ARG553  GLY616  TRP617  ASP618  TYR619  PRO620  LYS621  CYS622 
 ASP623  PHE694  ASN695  SER759  ASP760  ASP761  ALA762  ILE779  LEU786  VAL792 
 PHE793  MET794  SER795  GLU796  ALA797  LYS798  CYS799  TRP800  GLU811  SER814 

> <Gold.Protein.RotatedAtoms>
  150.8395  134.7681  159.6919 H   0  0  0  0  0  0  0  0  0  0  0  0  # atno 6907 bound_to 6896
  152.4485  134.5441  159.9857 H   0  0  0  0  0  0  0  0  0  0  0  0  # atno 6908 bound_to 6896
  151.5584  133.3369  159.3002 H   0  0  0  0  0  0  0  0  0  0  0  0  # atno 6909 bound_to 6896
  146.0183  139.4621  142.9913 H   0  0  0  0  0  0  0  0  0  0  0  0  # atno 7974 bound_to 7965
  154.5726  140.0688  156.8987 H   0  0  0  0  0  0  0  0  0  0  0  0  # atno 8008 bound_to 7997
  155.2606  140.3358  155.4255 H   0  0  0  0  0  0  0  0  0  0  0  0  # atno 8009 bound_to 7997
  156.2130  140.1767  156.7638 H   0  0  0  0  0  0  0  0  0  0  0  0  # atno 8010 bound_to 7997
  140.2501  144.3489  150.6351 H   0  0  0  0  0  0  0  0  0  0  0  0  # atno 10167 bound_to 10162
  156.0069  130.4575  150.3807 H   0  0  0  0  0  0  0  0  0  0  0  0  # atno 10718 bound_to 10713
  153.0938  135.4846  154.8740 H   0  0  0  0  0  0  0  0  0  0  0  0  # atno 10763 bound_to 10752
  154.7300  135.3058  154.8909 H   0  0  0  0  0  0  0  0  0  0  0  0  # atno 10764 bound_to 10752
  153.9547  135.6819  153.4797 H   0  0  0  0  0  0  0  0  0  0  0  0  # atno 10765 bound_to 10752
  139.9446  134.9631  156.8678 H   0  0  0  0  0  0  0  0  0  0  0  0  # atno 11005 bound_to 11000
  145.7234  141.0067  143.1390 LP  0  0  0  0  0  0  0  0  0  0  0  0  # atno 17320 bound_to 7965
  144.6979  139.8897  143.7452 LP  0  0  0  0  0  0  0  0  0  0  0  0  # atno 17321 bound_to 7965
  140.6047  143.2167  151.7003 LP  0  0  0  0  0  0  0  0  0  0  0  0  # atno 17342 bound_to 10162
  139.5049  144.3737  152.0445 LP  0  0  0  0  0  0  0  0  0  0  0  0  # atno 17343 bound_to 10162
  157.1887  131.0410  151.2711 LP  0  0  0  0  0  0  0  0  0  0  0  0  # atno 17370 bound_to 10713
  157.4081  130.7370  149.6818 LP  0  0  0  0  0  0  0  0  0  0  0  0  # atno 17371 bound_to 10713
  140.5866  134.0302  155.7483 LP  0  0  0  0  0  0  0  0  0  0  0  0  # atno 17394 bound_to 11000
  141.1093  133.9643  157.2940 LP  0  0  0  0  0  0  0  0  0  0  0  0  # atno 17395 bound_to 11000

$$$$
