AV-unprocessed.smi:2061|AV-procd|sdf|8361|dock1
  -GOLD-   2272011 33D 1   1.00000     0.00000
 Structure written by MMmdl.
 45 46  0  0  0  0  0  0  0  0  1 V2000
  138.7158  136.6494  153.5599 C   0  0  0  0  0  0  0  0  0  0  0  0
  140.1562  136.9209  153.8287 C   0  0  0  0  0  0  0  0  0  0  0  0
  141.0309  137.8556  153.3501 C   0  0  0  0  0  0  0  0  0  0  0  0
  142.2367  137.5440  154.0324 C   0  0  0  0  0  0  0  0  0  0  0  0
  143.4141  138.3043  153.8142 N   0  0  0  0  0  0  0  0  0  0  0  0
  144.5734  138.2304  154.4900 C   0  0  0  0  0  0  0  0  0  0  0  0
  144.8063  137.4490  155.4126 O   0  0  0  0  0  0  0  0  0  0  0  0
  145.4582  139.1299  154.0349 N   0  0  0  0  0  0  0  0  0  0  0  0
  146.8106  139.3294  154.5517 C   0  0  0  0  0  0  0  0  0  0  0  0
  147.5958  140.4348  153.7896 C   0  0  1  0  0  0  0  0  0  0  0  0
  146.8735  141.7937  153.9785 C   0  0  0  0  0  0  0  0  0  0  0  0
  149.0295  140.4936  154.1612 N   0  0  0  0  0  0  0  0  0  0  0  0
  149.2494  141.0584  155.4972 C   0  0  0  0  0  0  0  0  0  0  0  0
  150.7372  141.1003  155.8954 C   0  0  1  0  0  0  0  0  0  0  0  0
  150.9405  141.6158  157.3241 C   0  0  0  0  0  0  0  0  0  0  0  0
  151.2795  139.7885  155.8156 O   0  0  0  0  0  0  0  0  0  0  0  0
  151.1648  139.2275  154.5145 C   0  0  1  0  0  0  0  0  0  0  0  0
  151.8061  137.8361  154.5336 C   0  0  0  0  0  0  0  0  0  0  0  0
  149.6778  139.1782  154.1160 C   0  0  0  0  0  0  0  0  0  0  0  0
  142.1103  136.5116  154.8520 N   0  0  0  0  0  0  0  0  0  0  0  0
  140.7762  136.1072  154.7259 O   0  0  0  0  0  0  0  0  0  0  0  0
  138.4561  136.9104  152.5340 H   0  0  0  0  0  0  0  0  0  0  0  0
  138.0832  137.2328  154.2290 H   0  0  0  0  0  0  0  0  0  0  0  0
  138.4829  135.5946  153.7080 H   0  0  0  0  0  0  0  0  0  0  0  0
  140.8354  138.6364  152.6300 H   0  0  0  0  0  0  0  0  0  0  0  0
  143.3628  138.9885  153.0742 H   0  0  0  0  0  0  0  0  0  0  0  0
  145.1744  139.7299  153.2747 H   0  0  0  0  0  0  0  0  0  0  0  0
  146.8047  139.5454  155.6215 H   0  0  0  0  0  0  0  0  0  0  0  0
  147.2881  138.3582  154.4392 H   0  0  0  0  0  0  0  0  0  0  0  0
  147.5356  140.1902  152.7278 H   0  0  0  0  0  0  0  0  0  0  0  0
  145.8153  141.7402  153.7272 H   0  0  0  0  0  0  0  0  0  0  0  0
  147.2728  142.5718  153.3301 H   0  0  0  0  0  0  0  0  0  0  0  0
  146.9485  142.1402  155.0097 H   0  0  0  0  0  0  0  0  0  0  0  0
  148.8832  142.0820  155.5455 H   0  0  0  0  0  0  0  0  0  0  0  0
  148.6889  140.4840  156.2364 H   0  0  0  0  0  0  0  0  0  0  0  0
  151.2811  141.7515  155.2086 H   0  0  0  0  0  0  0  0  0  0  0  0
  150.5513  142.6282  157.4355 H   0  0  0  0  0  0  0  0  0  0  0  0
  151.9993  141.6362  157.5835 H   0  0  0  0  0  0  0  0  0  0  0  0
  150.4323  140.9791  158.0488 H   0  0  0  0  0  0  0  0  0  0  0  0
  151.7113  139.8539  153.8075 H   0  0  0  0  0  0  0  0  0  0  0  0
  151.7559  137.3674  153.5506 H   0  0  0  0  0  0  0  0  0  0  0  0
  151.3042  137.1793  155.2446 H   0  0  0  0  0  0  0  0  0  0  0  0
  152.8563  137.8961  154.8197 H   0  0  0  0  0  0  0  0  0  0  0  0
  149.1469  138.4836  154.7692 H   0  0  0  0  0  0  0  0  0  0  0  0
  149.6335  138.7641  153.1105 H   0  0  0  0  0  0  0  0  0  0  0  0
  1  2  1  0  0  0  0
  1 22  1  0  0  0  0
  1 23  1  0  0  0  0
  1 24  1  0  0  0  0
  2 21  1  0  0  0  0
  2  3  2  0  0  0  0
  3  4  1  0  0  0  0
  3 25  1  0  0  0  0
  4  5  1  0  0  0  0
  4 20  2  0  0  0  0
  5  6  1  0  0  0  0
  5 26  1  0  0  0  0
  6  7  2  0  0  0  0
  6  8  1  0  0  0  0
  8  9  1  0  0  0  0
  8 27  1  0  0  0  0
  9 10  1  0  0  0  0
  9 28  1  0  0  0  0
  9 29  1  0  0  0  0
 10 11  1  0  0  0  0
 10 12  1  0  0  0  0
 10 30  1  0  0  0  0
 11 31  1  0  0  0  0
 11 32  1  0  0  0  0
 11 33  1  0  0  0  0
 12 19  1  0  0  0  0
 12 13  1  0  0  0  0
 13 14  1  0  0  0  0
 13 34  1  0  0  0  0
 13 35  1  0  0  0  0
 14 15  1  0  0  0  0
 14 16  1  0  0  0  0
 14 36  1  0  0  0  0
 15 37  1  0  0  0  0
 15 38  1  0  0  0  0
 15 39  1  0  0  0  0
 16 17  1  0  0  0  0
 17 18  1  0  0  0  0
 17 19  1  0  0  0  0
 17 40  1  0  0  0  0
 18 41  1  0  0  0  0
 18 42  1  0  0  0  0
 18 43  1  0  0  0  0
 19 44  1  0  0  0  0
 19 45  1  0  0  0  0
 20 21  1  0  0  0  0
M  END
> <s_m_source_file>
AV-unprocessed.smi

> <i_m_source_file_index>
2061

> <i_lp_mmshare_version>
43012

> <i_f3d_flags>
0

> <s_epik_input>
W0NIM11jMVtjSF1jKG5vMSlbTkhdQyg9TylbTkhdW0NIMl1bQ0BIXShbQ0gzXSlOMltDSDJdW0NAQEhdKFtDSDNdKU9bQ0BASF0oW0NIM10pW0NIMl0y

> <s_epik_cmdline>
J2VwaWtfcHl0aG9uJywgJy1waCcsICc3LjAnLCAnLXRuJywgJzgnLCAnLW1hJywgJzIwMCcsICctbWV0YWxfYmluZGluZycsICctaW1hZScsICc8aW5maWxlLm1hZT4nLCAnLW9tYWUnLCAnPG91dGZpbGUubWFlPic=

> <r_epik_Ionization_Penalty>
0.214073

> <r_epik_Ionization_Penalty_Charging>
0

> <r_epik_Ionization_Penalty_Neutral>
0.214073

> <r_epik_State_Penalty>
0.204211

> <r_epik_Charging_Adjusted_Penalty>
0.204211

> <i_epik_Tot_Q>
0

> <i_epik_Tot_abs_Q>
0

> <r_epik_Metal_State_Penalty>
0.217067

> <b_epik_Metal_Only>
0

> <s_lp_Force_Field>
OPLS_2005

> <r_lp_Energy>
26.0702

> <b_lp_Chiralities_Consistent>
1

> <s_lp_Variant>
AV-unprocessed.smi:2061-2

> <Gold.Version>
5.8.1

> <Gold.Id.Protein>
6NUR|6NUR_protein|mol2

> <Gold.PLP.Fitness>
42.3162

> <Gold.PLP.PLP>
-34.7369

> <Gold.PLP.part.hbond>
-2.8952

> <Gold.PLP.part.metal>
0.0000

> <Gold.PLP.part.buried>
-4.0368

> <Gold.PLP.part.nonpolar>
-28.5012

> <Gold.PLP.part.repulsive>
0.2672

> <Gold.PLP.ligand.clash>
0.0000

> <Gold.PLP.ligand.torsion>
0.1342

> <Gold.PLP.Chemscore.Hbond>
2.6000

> <Gold.PLP.Chemscore.CHOScore>
0.0000

> <Gold.PLP.Chemscore.Metal>
0.0000

> <Gold.Chemscore.Hbonds>
donor molecule, donor type, donor heavy atom, donor atom, acceptor molecule, acceptor atom, score
      L1  H     5    26       P1 10175  1.00
      L1  H     8    27       P1 10175  0.85
      P1  H 11000 11005       L1    21  0.72

> <Gold.PLP.Chemscore.Internal.Correction>
0.0477

> <Gold.Rescore>
     Score         DG    S(hbond)    S(metal)    S(lipo)     H(rot)  DE(clash)    DE(int)     intcor
     17.84     -19.40       2.64        0.00      77.55       1.55       0.25       1.31       ----

> <Gold.Chemscore.Fitness>
17.8375

> <Gold.Chemscore.DG>
-19.4037

> <Gold.Chemscore.ZeroCoef>
-5.4800

> <Gold.Chemscore.Hbond>
2.6383

> <Gold.Chemscore.Metal>
0.0000

> <Gold.Chemscore.Lipo>
77.5459

> <Gold.Chemscore.Internal_Hbond>
0.0000

> <Gold.Chemscore.DEClash>
0.2529

> <Gold.Chemscore.DEInternal>
1.3132

> <Gold.Chemscore.Rot>
1.5474

> <Gold.Chemscore.Internal.Correction>
   9.000000E+99

> <Gold.Chemscore.Hbonds>
donor molecule, donor type, donor heavy atom, donor atom, acceptor molecule, acceptor atom, score
      L1  H     5    26       P1 10175  0.95
      L1  H     8    27       P1 10175  0.83
      P1  H 11000 11005       L1    21  0.66

> <Gold.Chemscore.Hbond.Weighted>
-8.8120

> <Gold.Chemscore.Metal.Weighted>
-0.0000

> <Gold.Chemscore.Lipo.Weighted>
-9.0729

> <Gold.Chemscore.Internal_Hbond.Weighted>
0.0000

> <Gold.Chemscore.DEClash.Weighted>
0.2529

> <Gold.Chemscore.DEInternal.Weighted>
1.3132

> <Gold.Chemscore.Rot.Weighted>
3.9612

> <Gold.Chemscore.Internal.Correction.Weighted>
   9.000000E+99

> <Gold.Protein.RotatedTorsions>
[ 6907 6896 6895 6894 ] final   12.87 input  -60.11 | X-H torsion
[ 7974 7965 7964 7962 ] final -125.92 input  175.53 | X-H torsion
[ 8008 7997 7996 7995 ] final -110.93 input   59.86 | X-H torsion
[ 10167 10162 10161 10158 ] final -143.30 input  -65.29 | X-H torsion
[ 10718 10713 10712 10709 ] final  -51.03 input   66.30 | X-H torsion
[ 10763 10752 10751 10750 ] final -119.07 input  -60.55 | X-H torsion
[ 11005 11000 10999 10996 ] final   69.38 input  -57.11 | X-H torsion

> <Gold.Protein.ActiveResidues>
 VAL166  LYS551  ARG553  GLY616  TRP617  ASP618  TYR619  PRO620  LYS621  CYS622 
 ASP623  PHE694  ASN695  SER759  ASP760  ASP761  ALA762  ILE779  LEU786  VAL792 
 PHE793  MET794  SER795  GLU796  ALA797  LYS798  CYS799  TRP800  GLU811  SER814 

> <Gold.Protein.RotatedAtoms>
  151.7773  135.0771  160.0368 H   0  0  0  0  0  0  0  0  0  0  0  0  # atno 6907 bound_to 6896
  152.3247  133.5888  159.5777 H   0  0  0  0  0  0  0  0  0  0  0  0  # atno 6908 bound_to 6896
  150.7389  133.9874  159.3638 H   0  0  0  0  0  0  0  0  0  0  0  0  # atno 6909 bound_to 6896
  144.9926  140.7746  143.4544 H   0  0  0  0  0  0  0  0  0  0  0  0  # atno 7974 bound_to 7965
  154.9820  140.0396  157.2282 H   0  0  0  0  0  0  0  0  0  0  0  0  # atno 8008 bound_to 7997
  154.7705  140.2801  155.6119 H   0  0  0  0  0  0  0  0  0  0  0  0  # atno 8009 bound_to 7997
  156.2920  140.2611  156.2506 H   0  0  0  0  0  0  0  0  0  0  0  0  # atno 8010 bound_to 7997
  139.8007  143.7838  152.2658 H   0  0  0  0  0  0  0  0  0  0  0  0  # atno 10167 bound_to 10162
  156.1746  130.4149  149.9596 H   0  0  0  0  0  0  0  0  0  0  0  0  # atno 10718 bound_to 10713
  154.8606  135.4251  154.2241 H   0  0  0  0  0  0  0  0  0  0  0  0  # atno 10763 bound_to 10752
  153.3240  135.6984  153.7012 H   0  0  0  0  0  0  0  0  0  0  0  0  # atno 10764 bound_to 10752
  153.6055  135.3529  155.2934 H   0  0  0  0  0  0  0  0  0  0  0  0  # atno 10765 bound_to 10752
  139.9657  134.6985  156.0550 H   0  0  0  0  0  0  0  0  0  0  0  0  # atno 11005 bound_to 11000
  145.2264  139.2135  143.5066 LP  0  0  0  0  0  0  0  0  0  0  0  0  # atno 17320 bound_to 7965
  146.3435  140.2132  142.8590 LP  0  0  0  0  0  0  0  0  0  0  0  0  # atno 17321 bound_to 7965
  139.7957  144.7393  150.9894 LP  0  0  0  0  0  0  0  0  0  0  0  0  # atno 17342 bound_to 10162
  140.7820  143.4396  151.0571 LP  0  0  0  0  0  0  0  0  0  0  0  0  # atno 17343 bound_to 10162
  156.7385  130.9070  151.3630 LP  0  0  0  0  0  0  0  0  0  0  0  0  # atno 17370 bound_to 10713
  157.6827  130.9155  150.0307 LP  0  0  0  0  0  0  0  0  0  0  0  0  # atno 17371 bound_to 10713
  141.1337  133.6580  156.3533 LP  0  0  0  0  0  0  0  0  0  0  0  0  # atno 17394 bound_to 11000
  140.5402  134.6128  157.5377 LP  0  0  0  0  0  0  0  0  0  0  0  0  # atno 17395 bound_to 11000

$$$$
