AV-unprocessed.smi:91|AV-procd|sdf|838|dock1
  -GOLD-   2262017263D 1   1.00000     0.00000
 Structure written by MMmdl.
 60 63  0  0  0  0  0  0  0  0  1 V2000
  150.4596  131.4041  157.3447 C   0  0  0  0  0  0  0  0  0  0  0  0
  150.4353  132.5023  158.2427 O   0  0  0  0  0  0  0  0  0  0  0  0
  149.2463  133.2803  158.1832 C   0  0  0  0  0  0  0  0  0  0  0  0
  149.2285  134.2435  156.9832 C   0  0  1  0  0  0  0  0  0  0  0  0
  150.2999  135.3415  157.1107 C   0  0  0  0  0  0  0  0  0  0  0  0
  150.3573  136.1226  155.8858 N   0  0  0  0  0  0  0  0  0  0  0  0
  151.0741  137.2603  156.0077 C   0  0  0  0  0  0  0  0  0  0  0  0
  152.3290  137.2470  155.4946 N   0  0  0  0  0  0  0  0  0  0  0  0
  153.0938  138.3404  155.5665 C   0  0  0  0  0  0  0  0  0  0  0  0
  152.7988  139.5321  156.0897 N   0  0  0  0  0  0  0  0  0  0  0  0
  151.5314  139.5537  156.5927 C   0  0  0  0  0  0  0  0  0  0  0  0
  150.6068  138.4708  156.5958 C   0  0  0  0  0  0  0  0  0  0  0  0
  149.4123  138.8739  157.1819 N   0  0  0  0  0  0  0  0  0  0  0  0
  149.6194  140.1201  157.5083 C   0  0  0  0  0  0  0  0  0  0  0  0
  150.8628  140.6113  157.1842 N   0  0  0  0  0  0  0  0  0  0  0  0
  151.3482  141.9598  157.4212 C   0  0  0  0  0  0  0  0  0  0  0  0
  151.2674  142.3814  158.9096 C   0  0  2  0  0  0  0  0  0  0  0  0
  150.5434  143.7356  159.1084 C   0  0  0  0  0  0  0  0  0  0  0  0
  149.1631  143.6298  158.8266 O   0  0  0  0  0  0  0  0  0  0  0  0
  152.6619  142.3531  159.5850 C   0  0  1  0  0  0  0  0  0  0  0  0
  152.6597  142.6518  161.0739 C   0  0  0  0  0  0  0  0  0  0  0  0
  154.0121  142.1017  161.5119 C   0  0  0  0  0  0  0  0  0  0  0  0
  154.2543  140.9766  160.6756 O   0  0  0  0  0  0  0  0  0  0  0  0
  153.3479  140.9823  159.5768 C   0  0  0  0  0  0  0  0  0  0  0  0
  150.6090  135.3068  154.7057 C   0  0  0  0  0  0  0  0  0  0  0  0
  149.5414  134.1986  154.5752 C   0  0  0  0  0  0  0  0  0  0  0  0
  148.1588  134.7670  154.1896 C   0  0  0  0  0  0  0  0  0  0  0  0
  149.9796  133.1764  153.5150 C   0  0  0  0  0  0  0  0  0  0  0  0
  149.4776  133.4692  155.8074 O   0  0  0  0  0  0  0  0  0  0  0  0
  151.4264  130.9051  157.4115 H   0  0  0  0  0  0  0  0  0  0  0  0
  150.3243  131.7320  156.3134 H   0  0  0  0  0  0  0  0  0  0  0  0
  149.6929  130.6671  157.5824 H   0  0  0  0  0  0  0  0  0  0  0  0
  148.4064  132.5902  158.0983 H   0  0  0  0  0  0  0  0  0  0  0  0
  149.1011  133.8235  159.1183 H   0  0  0  0  0  0  0  0  0  0  0  0
  148.2420  134.6975  156.9055 H   0  0  0  0  0  0  0  0  0  0  0  0
  150.0728  135.9879  157.9597 H   0  0  0  0  0  0  0  0  0  0  0  0
  151.2785  134.8963  157.2972 H   0  0  0  0  0  0  0  0  0  0  0  0
  154.0827  138.2478  155.1425 H   0  0  0  0  0  0  0  0  0  0  0  0
  148.8631  140.7225  157.9902 H   0  0  0  0  0  0  0  0  0  0  0  0
  152.3774  142.0039  157.0649 H   0  0  0  0  0  0  0  0  0  0  0  0
  150.7792  142.6519  156.7995 H   0  0  0  0  0  0  0  0  0  0  0  0
  150.6540  141.6327  159.4134 H   0  0  0  0  0  0  0  0  0  0  0  0
  150.6650  144.0995  160.1285 H   0  0  0  0  0  0  0  0  0  0  0  0
  150.9729  144.5042  158.4663 H   0  0  0  0  0  0  0  0  0  0  0  0
  148.8410  144.4817  158.5736 H   0  0  0  0  0  0  0  0  0  0  0  0
  153.3214  143.0696  159.0921 H   0  0  0  0  0  0  0  0  0  0  0  0
  152.5499  143.7125  161.3014 H   0  0  0  0  0  0  0  0  0  0  0  0
  151.8553  142.1088  161.5723 H   0  0  0  0  0  0  0  0  0  0  0  0
  154.7966  142.8391  161.3376 H   0  0  0  0  0  0  0  0  0  0  0  0
  154.0313  141.8285  162.5672 H   0  0  0  0  0  0  0  0  0  0  0  0
  152.6213  140.1839  159.7329 H   0  0  0  0  0  0  0  0  0  0  0  0
  153.8693  140.7837  158.6401 H   0  0  0  0  0  0  0  0  0  0  0  0
  150.6253  135.9323  153.8119 H   0  0  0  0  0  0  0  0  0  0  0  0
  151.5923  134.8444  154.7933 H   0  0  0  0  0  0  0  0  0  0  0  0
  148.1856  135.2148  153.1959 H   0  0  0  0  0  0  0  0  0  0  0  0
  147.8190  135.5427  154.8753 H   0  0  0  0  0  0  0  0  0  0  0  0
  147.4018  133.9824  154.1766 H   0  0  0  0  0  0  0  0  0  0  0  0
  150.0808  133.6407  152.5334 H   0  0  0  0  0  0  0  0  0  0  0  0
  149.2555  132.3659  153.4255 H   0  0  0  0  0  0  0  0  0  0  0  0
  150.9411  132.7295  153.7702 H   0  0  0  0  0  0  0  0  0  0  0  0
  1  2  1  0  0  0  0
  1 30  1  0  0  0  0
  1 31  1  0  0  0  0
  1 32  1  0  0  0  0
  2  3  1  0  0  0  0
  3  4  1  0  0  0  0
  3 33  1  0  0  0  0
  3 34  1  0  0  0  0
  4 29  1  0  0  0  0
  4  5  1  0  0  0  0
  4 35  1  0  0  0  0
  5  6  1  0  0  0  0
  5 36  1  0  0  0  0
  5 37  1  0  0  0  0
  6  7  1  0  0  0  0
  6 25  1  0  0  0  0
  7 12  1  0  0  0  0
  7  8  2  0  0  0  0
  8  9  1  0  0  0  0
  9 10  2  0  0  0  0
  9 38  1  0  0  0  0
 10 11  1  0  0  0  0
 11 15  1  0  0  0  0
 11 12  2  0  0  0  0
 12 13  1  0  0  0  0
 13 14  2  0  0  0  0
 14 15  1  0  0  0  0
 14 39  1  0  0  0  0
 15 16  1  0  0  0  0
 16 17  1  0  0  0  0
 16 40  1  0  0  0  0
 16 41  1  0  0  0  0
 17 18  1  0  0  0  0
 17 20  1  0  0  0  0
 17 42  1  0  0  0  0
 18 19  1  0  0  0  0
 18 43  1  0  0  0  0
 18 44  1  0  0  0  0
 19 45  1  0  0  0  0
 20 24  1  0  0  0  0
 20 21  1  0  0  0  0
 20 46  1  0  0  0  0
 21 22  1  0  0  0  0
 21 47  1  0  0  0  0
 21 48  1  0  0  0  0
 22 23  1  0  0  0  0
 22 49  1  0  0  0  0
 22 50  1  0  0  0  0
 23 24  1  0  0  0  0
 24 51  1  0  0  0  0
 24 52  1  0  0  0  0
 25 26  1  0  0  0  0
 25 53  1  0  0  0  0
 25 54  1  0  0  0  0
 26 27  1  0  0  0  0
 26 28  1  0  0  0  0
 26 29  1  0  0  0  0
 27 55  1  0  0  0  0
 27 56  1  0  0  0  0
 27 57  1  0  0  0  0
 28 58  1  0  0  0  0
 28 59  1  0  0  0  0
 28 60  1  0  0  0  0
M  END
> <s_m_source_file>
AV-unprocessed.smi

> <i_m_source_file_index>
91

> <i_lp_mmshare_version>
43012

> <i_f3d_flags>
0

> <s_epik_input>
W0NIM11PW0NIMl1bQ0BASF0oTzEpW0NIMl1OKFtDSDJdQzEoW0NIM10pW0NIM10pYyhuW2NIXW4yKWMoYzIzKW5bY0hdbjNbQ0gyXVtDQEhdKFtDSDJdW09IXSlbQ0BASF00W0NIMl1bQ0gyXU9bQ0gyXTQ=

> <s_epik_cmdline>
J2VwaWtfcHl0aG9uJywgJy1waCcsICc3LjAnLCAnLXRuJywgJzgnLCAnLW1hJywgJzIwMCcsICctbWV0YWxfYmluZGluZycsICctaW1hZScsICc8aW5maWxlLm1hZT4nLCAnLW9tYWUnLCAnPG91dGZpbGUubWFlPic=

> <r_lp_tautomer_probability>
1

> <r_epik_Ionization_Penalty>
8.63591e-05

> <r_epik_Ionization_Penalty_Charging>
0

> <r_epik_Ionization_Penalty_Neutral>
8.63591e-05

> <r_epik_State_Penalty>
-0

> <r_epik_Charging_Adjusted_Penalty>
0

> <i_epik_Tot_Q>
0

> <i_epik_Tot_abs_Q>
0

> <r_epik_Metal_State_Penalty>
-0

> <b_epik_Metal_Only>
0

> <s_lp_Force_Field>
OPLS_2005

> <r_lp_Energy>
49.535

> <b_lp_Chiralities_Consistent>
1

> <s_lp_Variant>
AV-unprocessed.smi:91-6

> <Gold.Version>
5.8.1

> <Gold.Id.Protein>
6NUR|6NUR_protein|mol2

> <Gold.PLP.Fitness>
49.5332

> <Gold.PLP.PLP>
-39.7274

> <Gold.PLP.part.hbond>
-4.9080

> <Gold.PLP.part.metal>
0.0000

> <Gold.PLP.part.buried>
-4.8181

> <Gold.PLP.part.nonpolar>
-30.8476

> <Gold.PLP.part.repulsive>
0.0704

> <Gold.PLP.ligand.clash>
0.0000

> <Gold.PLP.ligand.torsion>
1.5235

> <Gold.PLP.Chemscore.Hbond>
3.9913

> <Gold.PLP.Chemscore.CHOScore>
0.0000

> <Gold.PLP.Chemscore.Metal>
0.0000

> <Gold.Chemscore.Hbonds>
donor molecule, donor type, donor heavy atom, donor atom, acceptor molecule, acceptor atom, score
      L1  H    19    45       P1  8029  0.65
      P1  H  6896  6909       L1     2  0.25
      P1  H  7997  8008       L1    10  1.00
      P1  H 10752 10763       L1     8  0.77

> <Gold.PLP.Chemscore.Internal.Correction>
0.8791

> <Gold.Rescore>
     Score         DG    S(hbond)    S(metal)    S(lipo)     H(rot)  DE(clash)    DE(int)     intcor
     13.81     -17.47       2.46        0.00      98.42       3.03       0.97       2.69       ----

> <Gold.Chemscore.Fitness>
13.8143

> <Gold.Chemscore.DG>
-17.4686

> <Gold.Chemscore.ZeroCoef>
-5.4800

> <Gold.Chemscore.Hbond>
2.4631

> <Gold.Chemscore.Metal>
0.0000

> <Gold.Chemscore.Lipo>
98.4159

> <Gold.Chemscore.Internal_Hbond>
0.0000

> <Gold.Chemscore.DEClash>
0.9666

> <Gold.Chemscore.DEInternal>
2.6876

> <Gold.Chemscore.Rot>
3.0284

> <Gold.Chemscore.Internal.Correction>
   9.000000E+99

> <Gold.Chemscore.Hbonds>
donor molecule, donor type, donor heavy atom, donor atom, acceptor molecule, acceptor atom, score
      L1  H    19    45       P1  8029  0.47
      P1  H  7997  8008       L1    10  0.30
      P1  H 10752 10763       L1     8  0.71

> <Gold.Chemscore.Hbond.Weighted>
-8.2267

> <Gold.Chemscore.Metal.Weighted>
-0.0000

> <Gold.Chemscore.Lipo.Weighted>
-11.5147

> <Gold.Chemscore.Internal_Hbond.Weighted>
0.0000

> <Gold.Chemscore.DEClash.Weighted>
0.9666

> <Gold.Chemscore.DEInternal.Weighted>
2.6876

> <Gold.Chemscore.Rot.Weighted>
7.7528

> <Gold.Chemscore.Internal.Correction.Weighted>
   9.000000E+99

> <Gold.Protein.RotatedTorsions>
[ 6907 6896 6895 6894 ] final  -12.62 input  -60.11 | X-H torsion
[ 7974 7965 7964 7962 ] final  -66.43 input  175.53 | X-H torsion
[ 8008 7997 7996 7995 ] final  -49.41 input   59.86 | X-H torsion
[ 10167 10162 10161 10158 ] final  -62.86 input  -65.29 | X-H torsion
[ 10718 10713 10712 10709 ] final  -25.97 input   66.30 | X-H torsion
[ 10763 10752 10751 10750 ] final   74.54 input  -60.55 | X-H torsion
[ 11005 11000 10999 10996 ] final -162.55 input  -57.11 | X-H torsion

> <Gold.Protein.ActiveResidues>
 VAL166  LYS551  ARG553  GLY616  TRP617  ASP618  TYR619  PRO620  LYS621  CYS622 
 ASP623  PHE694  ASN695  SER759  ASP760  ASP761  ALA762  ILE779  LEU786  VAL792 
 PHE793  MET794  SER795  GLU796  ALA797  LYS798  CYS799  TRP800  GLU811  SER814 

> <Gold.Protein.RotatedAtoms>
  151.3677  135.0916  159.9455 H   0  0  0  0  0  0  0  0  0  0  0  0  # atno 6907 bound_to 6896
  152.5144  133.9195  159.7538 H   0  0  0  0  0  0  0  0  0  0  0  0  # atno 6908 bound_to 6896
  150.9602  133.6398  159.2785 H   0  0  0  0  0  0  0  0  0  0  0  0  # atno 6909 bound_to 6896
  145.7419  140.8949  143.0525 H   0  0  0  0  0  0  0  0  0  0  0  0  # atno 7974 bound_to 7965
  154.4044  140.1297  156.4498 H   0  0  0  0  0  0  0  0  0  0  0  0  # atno 8008 bound_to 7997
  155.7377  140.3490  155.5069 H   0  0  0  0  0  0  0  0  0  0  0  0  # atno 8009 bound_to 7997
  155.9068  140.1029  157.1299 H   0  0  0  0  0  0  0  0  0  0  0  0  # atno 8010 bound_to 7997
  140.5910  143.2342  151.6139 H   0  0  0  0  0  0  0  0  0  0  0  0  # atno 10167 bound_to 10162
  156.4574  130.4496  149.6951 H   0  0  0  0  0  0  0  0  0  0  0  0  # atno 10718 bound_to 10713
  153.0593  135.5022  154.8057 H   0  0  0  0  0  0  0  0  0  0  0  0  # atno 10763 bound_to 10752
  154.6858  135.2976  154.9552 H   0  0  0  0  0  0  0  0  0  0  0  0  # atno 10764 bound_to 10752
  154.0323  135.6728  153.4834 H   0  0  0  0  0  0  0  0  0  0  0  0  # atno 10765 bound_to 10752
  140.6080  134.4878  157.5212 H   0  0  0  0  0  0  0  0  0  0  0  0  # atno 11005 bound_to 11000
  144.6869  139.9472  143.7477 LP  0  0  0  0  0  0  0  0  0  0  0  0  # atno 17320 bound_to 7965
  146.0440  139.3448  143.0680 LP  0  0  0  0  0  0  0  0  0  0  0  0  # atno 17321 bound_to 7965
  139.5227  144.3154  152.0957 LP  0  0  0  0  0  0  0  0  0  0  0  0  # atno 17342 bound_to 10162
  140.2318  144.4360  150.6297 LP  0  0  0  0  0  0  0  0  0  0  0  0  # atno 17343 bound_to 10162
  156.3753  130.7551  151.2538 LP  0  0  0  0  0  0  0  0  0  0  0  0  # atno 17370 bound_to 10713
  157.7500  131.0311  150.4168 LP  0  0  0  0  0  0  0  0  0  0  0  0  # atno 17371 bound_to 10713
  139.9204  134.8160  156.1230 LP  0  0  0  0  0  0  0  0  0  0  0  0  # atno 17394 bound_to 11000
  141.0827  133.6747  156.2370 LP  0  0  0  0  0  0  0  0  0  0  0  0  # atno 17395 bound_to 11000

$$$$
