AV-unprocessed.smi:1213|AV-procd|sdf|5086|dock6
  -GOLD-   22720 4133D 1   1.00000     0.00000
 Structure written by MMmdl.
 37 38  0  0  0  0  0  0  0  0  2 V2000
  149.8791  133.9254  153.3145 N   0  0  0  0  0  0  0  0  0  0  0  0
  150.3379  134.0668  154.5602 C   0  0  0  0  0  0  0  0  0  0  0  0
  151.1490  133.2844  155.0525 O   0  0  0  0  0  0  0  0  0  0  0  0
  149.7895  135.2481  155.3683 C   0  0  0  0  0  0  0  0  0  0  0  0
  150.0015  136.5596  154.7026 N   0  3  2  0  0  0  0  0  0  0  0  0
  151.4409  136.8750  154.5181 C   0  0  0  0  0  0  0  0  0  0  0  0
  151.6302  138.1641  153.6971 C   0  0  0  0  0  0  0  0  0  0  0  0
  150.8821  139.3596  154.3124 C   0  0  2  0  0  0  0  0  0  0  0  0
  151.5442  139.8033  155.5392 N   0  0  0  0  0  0  0  0  0  0  0  0
  151.2986  140.9581  156.1759 C   0  0  0  0  0  0  0  0  0  0  0  0
  150.4694  141.7815  155.7886 O   0  0  0  0  0  0  0  0  0  0  0  0
  152.0660  141.0832  157.2729 N   0  0  0  0  0  0  0  0  0  0  0  0
  152.0840  142.1468  158.2133 C   0  0  0  0  0  0  0  0  0  0  0  0
  152.7026  142.0954  159.3987 N   0  0  0  0  0  0  0  0  0  0  0  0
  152.5576  143.2844  160.1178 C   0  0  0  0  0  0  0  0  0  0  0  0
  151.8216  144.2380  159.4595 C   0  0  0  0  0  0  0  0  0  0  0  0
  151.2764  143.6764  157.9018 S   0  0  0  0  0  0  0  0  0  0  0  0
  149.4085  138.9785  154.5599 C   0  0  0  0  0  0  0  0  0  0  0  0
  149.2787  137.6761  155.3684 C   0  0  0  0  0  0  0  0  0  0  0  0
  150.2069  133.1582  152.7443 H   0  0  0  0  0  0  0  0  0  0  0  0
  149.2032  134.5777  152.9437 H   0  0  0  0  0  0  0  0  0  0  0  0
  148.7295  135.1046  155.5849 H   0  0  0  0  0  0  0  0  0  0  0  0
  150.3094  135.2354  156.3271 H   0  0  0  0  0  0  0  0  0  0  0  0
  151.9220  136.9691  155.4927 H   0  0  0  0  0  0  0  0  0  0  0  0
  151.9341  136.0510  154.0011 H   0  0  0  0  0  0  0  0  0  0  0  0
  152.6920  138.3927  153.5953 H   0  0  0  0  0  0  0  0  0  0  0  0
  151.2598  137.9957  152.6847 H   0  0  0  0  0  0  0  0  0  0  0  0
  150.9168  140.1834  153.5970 H   0  0  0  0  0  0  0  0  0  0  0  0
  152.2485  139.1917  155.9252 H   0  0  0  0  0  0  0  0  0  0  0  0
  152.7073  140.3277  157.4634 H   0  0  0  0  0  0  0  0  0  0  0  0
  153.0130  143.3665  161.0936 H   0  0  0  0  0  0  0  0  0  0  0  0
  151.5683  145.2324  159.7956 H   0  0  0  0  0  0  0  0  0  0  0  0
  148.8798  139.7871  155.0660 H   0  0  0  0  0  0  0  0  0  0  0  0
  148.9077  138.8502  153.5993 H   0  0  0  0  0  0  0  0  0  0  0  0
  148.2222  137.4296  155.4758 H   0  0  0  0  0  0  0  0  0  0  0  0
  149.6702  137.8168  156.3772 H   0  0  0  0  0  0  0  0  0  0  0  0
  149.6099  136.4675  153.7757 H   0  0  0  0  0  0  0  0  0  0  0  0
  1  2  1  0  0  0  0
  1 20  1  0  0  0  0
  1 21  1  0  0  0  0
  2  3  2  0  0  0  0
  2  4  1  0  0  0  0
  4  5  1  0  0  0  0
  4 22  1  0  0  0  0
  4 23  1  0  0  0  0
  5 19  1  0  0  0  0
  5  6  1  0  0  0  0
  5 37  1  0  0  0  0
  6  7  1  0  0  0  0
  6 24  1  0  0  0  0
  6 25  1  0  0  0  0
  7  8  1  0  0  0  0
  7 26  1  0  0  0  0
  7 27  1  0  0  0  0
  8  9  1  0  0  0  0
  8 18  1  0  0  0  0
  8 28  1  0  0  0  0
  9 10  1  0  0  0  0
  9 29  1  0  0  0  0
 10 11  2  0  0  0  0
 10 12  1  0  0  0  0
 12 13  1  0  0  0  0
 12 30  1  0  0  0  0
 13 17  1  0  0  0  0
 13 14  2  0  0  0  0
 14 15  1  0  0  0  0
 15 16  2  0  0  0  0
 15 31  1  0  0  0  0
 16 17  1  0  0  0  0
 16 32  1  0  0  0  0
 18 19  1  0  0  0  0
 18 33  1  0  0  0  0
 18 34  1  0  0  0  0
 19 35  1  0  0  0  0
 19 36  1  0  0  0  0
M  CHG  1   5   1
M  END
> <s_m_source_file>
AV-unprocessed.smi

> <i_m_source_file_index>
1213

> <i_lp_mmshare_version>
43012

> <i_f3d_flags>
0

> <s_epik_input>
W05IMl1DKD1PKVtDSDJdTjFbQ0gyXVtDSDJdW0NIXShbQ0gyXVtDSDJdMSlbTkhdQyg9TylbTkhdYzJuW2NIXVtjSF1zMg==

> <s_epik_cmdline>
J2VwaWtfcHl0aG9uJywgJy1waCcsICc3LjAnLCAnLXRuJywgJzgnLCAnLW1hJywgJzIwMCcsICctbWV0YWxfYmluZGluZycsICctaW1hZScsICc8aW5maWxlLm1hZT4nLCAnLW9tYWUnLCAnPG91dGZpbGUubWFlPic=

> <r_lp_tautomer_probability>
0.999

> <r_epik_Ionization_Penalty>
0.86253

> <r_epik_Ionization_Penalty_Charging>
0.862349

> <r_epik_Ionization_Penalty_Neutral>
0.000180085

> <r_epik_State_Penalty>
0.898939

> <r_epik_Charging_Adjusted_Penalty>
1.76129

> <i_epik_Tot_Q>
1

> <i_epik_Tot_abs_Q>
1

> <r_epik_Metal_State_Penalty>
0.948529

> <b_epik_Metal_Only>
0

> <s_lp_Force_Field>
OPLS_2005

> <r_lp_Energy>
11.1317

> <b_lp_Chiralities_Consistent>
1

> <s_lp_Variant>
AV-unprocessed.smi:1213-3

> <Gold.Version>
5.8.1

> <Gold.Id.Protein>
6NUR|6NUR_protein|mol2

> <Gold.PLP.Fitness>
39.7697

> <Gold.PLP.PLP>
-31.4543

> <Gold.PLP.part.hbond>
-2.8415

> <Gold.PLP.part.metal>
0.0000

> <Gold.PLP.part.buried>
-1.1693

> <Gold.PLP.part.nonpolar>
-26.9117

> <Gold.PLP.part.repulsive>
0.3278

> <Gold.PLP.ligand.clash>
0.0000

> <Gold.PLP.ligand.torsion>
0.1997

> <Gold.PLP.Chemscore.Hbond>
2.8960

> <Gold.PLP.Chemscore.CHOScore>
0.0000

> <Gold.PLP.Chemscore.Metal>
0.0000

> <Gold.Chemscore.Hbonds>
donor molecule, donor type, donor heavy atom, donor atom, acceptor molecule, acceptor atom, score
      L1  H     1    21       P1  7948  0.22
      L1  H     5    37       P1  7948  2.00

> <Gold.PLP.Chemscore.Internal.Correction>
0.0267

> <Gold.Rescore>
     Score         DG    S(hbond)    S(metal)    S(lipo)     H(rot)  DE(clash)    DE(int)     intcor
     11.42     -13.23       1.54        0.00      67.49       2.06       0.44       1.37       ----

> <Gold.Chemscore.Fitness>
11.4238

> <Gold.Chemscore.DG>
-13.2300

> <Gold.Chemscore.ZeroCoef>
-5.4800

> <Gold.Chemscore.Hbond>
1.5375

> <Gold.Chemscore.Metal>
0.0000

> <Gold.Chemscore.Lipo>
67.4899

> <Gold.Chemscore.Internal_Hbond>
0.0000

> <Gold.Chemscore.DEClash>
0.4384

> <Gold.Chemscore.DEInternal>
1.3678

> <Gold.Chemscore.Rot>
2.0631

> <Gold.Chemscore.Internal.Correction>
   9.000000E+99

> <Gold.Chemscore.Hbonds>
donor molecule, donor type, donor heavy atom, donor atom, acceptor molecule, acceptor atom, score
      L1  H     5    37       P1  7948  0.62

> <Gold.Chemscore.Hbond.Weighted>
-5.1352

> <Gold.Chemscore.Metal.Weighted>
-0.0000

> <Gold.Chemscore.Lipo.Weighted>
-7.8963

> <Gold.Chemscore.Internal_Hbond.Weighted>
0.0000

> <Gold.Chemscore.DEClash.Weighted>
0.4384

> <Gold.Chemscore.DEInternal.Weighted>
1.3678

> <Gold.Chemscore.Rot.Weighted>
5.2816

> <Gold.Chemscore.Internal.Correction.Weighted>
   9.000000E+99

> <Gold.Protein.RotatedTorsions>
[ 6907 6896 6895 6894 ] final  166.99 input  -60.11 | X-H torsion
[ 7974 7965 7964 7962 ] final  122.30 input  175.53 | X-H torsion
[ 8008 7997 7996 7995 ] final  122.22 input   59.86 | X-H torsion
[ 10167 10162 10161 10158 ] final -105.71 input  -65.29 | X-H torsion
[ 10718 10713 10712 10709 ] final  -72.03 input   66.30 | X-H torsion
[ 10763 10752 10751 10750 ] final  -20.56 input  -60.55 | X-H torsion
[ 11005 11000 10999 10996 ] final  -32.79 input  -57.11 | X-H torsion

> <Gold.Protein.ActiveResidues>
 VAL166  LYS551  ARG553  GLY616  TRP617  ASP618  TYR619  PRO620  LYS621  CYS622 
 ASP623  PHE694  ASN695  SER759  ASP760  ASP761  ALA762  ILE779  LEU786  VAL792 
 PHE793  MET794  SER795  GLU796  ALA797  LYS798  CYS799  TRP800  GLU811  SER814 

> <Gold.Protein.RotatedAtoms>
  151.8702  133.3474  159.3732 H   0  0  0  0  0  0  0  0  0  0  0  0  # atno 6907 bound_to 6896
  150.7155  134.5120  159.5621 H   0  0  0  0  0  0  0  0  0  0  0  0  # atno 6908 bound_to 6896
  152.2651  134.7993  160.0475 H   0  0  0  0  0  0  0  0  0  0  0  0  # atno 6909 bound_to 6896
  145.1091  139.3465  143.4772 H   0  0  0  0  0  0  0  0  0  0  0  0  # atno 7974 bound_to 7965
  156.2719  140.2790  156.1433 H   0  0  0  0  0  0  0  0  0  0  0  0  # atno 8008 bound_to 7997
  155.0930  140.0389  157.2692 H   0  0  0  0  0  0  0  0  0  0  0  0  # atno 8009 bound_to 7997
  154.6874  140.2622  155.6852 H   0  0  0  0  0  0  0  0  0  0  0  0  # atno 8010 bound_to 7997
  140.1956  143.3858  152.1171 H   0  0  0  0  0  0  0  0  0  0  0  0  # atno 10167 bound_to 10162
  156.0337  130.4363  150.2532 H   0  0  0  0  0  0  0  0  0  0  0  0  # atno 10718 bound_to 10713
  153.6224  135.6992  153.5305 H   0  0  0  0  0  0  0  0  0  0  0  0  # atno 10763 bound_to 10752
  153.2927  135.4152  155.1181 H   0  0  0  0  0  0  0  0  0  0  0  0  # atno 10764 bound_to 10752
  154.8540  135.3629  154.5765 H   0  0  0  0  0  0  0  0  0  0  0  0  # atno 10765 bound_to 10752
  140.9581  133.7180  156.1326 H   0  0  0  0  0  0  0  0  0  0  0  0  # atno 11005 bound_to 11000
  146.3527  140.1002  142.8608 LP  0  0  0  0  0  0  0  0  0  0  0  0  # atno 17320 bound_to 7965
  145.0867  140.9257  143.4793 LP  0  0  0  0  0  0  0  0  0  0  0  0  # atno 17321 bound_to 7965
  139.5238  144.7076  151.5306 LP  0  0  0  0  0  0  0  0  0  0  0  0  # atno 17342 bound_to 10162
  140.6426  143.8858  150.6706 LP  0  0  0  0  0  0  0  0  0  0  0  0  # atno 17343 bound_to 10162
  157.0632  131.0096  151.3215 LP  0  0  0  0  0  0  0  0  0  0  0  0  # atno 17370 bound_to 10713
  157.5054  130.7906  149.7649 LP  0  0  0  0  0  0  0  0  0  0  0  0  # atno 17371 bound_to 10713
  140.7507  134.4048  157.5542 LP  0  0  0  0  0  0  0  0  0  0  0  0  # atno 17394 bound_to 11000
  139.8869  134.8897  156.2560 LP  0  0  0  0  0  0  0  0  0  0  0  0  # atno 17395 bound_to 11000

$$$$
