AV-unprocessed.smi:100|AV-procd|sdf|905|dock1
  -GOLD-   2262017403D 1   1.00000     0.00000
 Structure written by MMmdl.
 31 33  0  0  0  0  0  0  0  0  1 V2000
  149.5235  138.2625  153.2445 N   0  0  0  0  0  0  0  0  0  0  0  0
  149.6409  138.4623  154.5644 C   0  0  0  0  0  0  0  0  0  0  0  0
  149.6204  137.3843  155.3837 N   0  0  0  0  0  0  0  0  0  0  0  0
  149.7373  137.5581  156.7049 C   0  0  0  0  0  0  0  0  0  0  0  0
  149.8798  138.6968  157.3898 N   0  0  0  0  0  0  0  0  0  0  0  0
  149.8984  139.7798  156.5589 C   0  0  0  0  0  0  0  0  0  0  0  0
  149.7868  139.7484  155.1422 C   0  0  0  0  0  0  0  0  0  0  0  0
  149.8503  141.0396  154.6353 N   0  0  0  0  0  0  0  0  0  0  0  0
  149.9931  141.7879  155.6971 C   0  0  0  0  0  0  0  0  0  0  0  0
  150.0342  141.1079  156.8972 N   0  0  0  0  0  0  0  0  0  0  0  0
  150.1831  141.6425  158.2900 C   0  0  2  0  0  0  0  0  0  0  0  0
  150.0678  143.0356  158.2416 O   0  0  0  0  0  0  0  0  0  0  0  0
  151.3577  143.6273  158.3601 C   0  0  1  0  0  0  0  0  0  0  0  0
  151.2380  145.0841  158.8294 C   0  0  0  0  0  0  0  0  0  0  0  0
  149.9799  145.2901  159.4351 O   0  0  0  0  0  0  0  0  0  0  0  0
  151.9998  142.6994  159.3870 C   0  0  2  0  0  0  0  0  0  0  0  0
  153.3230  142.8360  159.4914 F   0  0  0  0  0  0  0  0  0  0  0  0
  151.5684  141.3232  158.9038 C   0  0  2  0  0  0  0  0  0  0  0  0
  152.5012  140.7934  157.9746 O   0  0  0  0  0  0  0  0  0  0  0  0
  149.5374  139.0521  152.6148 H   0  0  0  0  0  0  0  0  0  0  0  0
  149.4239  137.3253  152.8826 H   0  0  0  0  0  0  0  0  0  0  0  0
  149.7137  136.6556  157.2978 H   0  0  0  0  0  0  0  0  0  0  0  0
  150.0715  142.8631  155.6274 H   0  0  0  0  0  0  0  0  0  0  0  0
  149.3448  141.2175  158.8437 H   0  0  0  0  0  0  0  0  0  0  0  0
  151.8977  143.5595  157.4137 H   0  0  0  0  0  0  0  0  0  0  0  0
  152.0405  145.3472  159.5191 H   0  0  0  0  0  0  0  0  0  0  0  0
  151.3064  145.7600  157.9765 H   0  0  0  0  0  0  0  0  0  0  0  0
  149.3862  145.6356  158.7858 H   0  0  0  0  0  0  0  0  0  0  0  0
  151.5804  142.8914  160.3759 H   0  0  0  0  0  0  0  0  0  0  0  0
  151.4549  140.6217  159.7309 H   0  0  0  0  0  0  0  0  0  0  0  0
  152.1142  140.8248  157.1128 H   0  0  0  0  0  0  0  0  0  0  0  0
  1  2  1  0  0  0  0
  1 20  1  0  0  0  0
  1 21  1  0  0  0  0
  2  7  1  0  0  0  0
  2  3  2  0  0  0  0
  3  4  1  0  0  0  0
  4  5  2  0  0  0  0
  4 22  1  0  0  0  0
  5  6  1  0  0  0  0
  6 10  1  0  0  0  0
  6  7  2  0  0  0  0
  7  8  1  0  0  0  0
  8  9  2  0  0  0  0
  9 10  1  0  0  0  0
  9 23  1  0  0  0  0
 10 11  1  0  0  0  0
 11 18  1  0  0  0  0
 11 12  1  0  0  0  0
 11 24  1  0  0  0  0
 12 13  1  0  0  0  0
 13 14  1  0  0  0  0
 13 16  1  0  0  0  0
 13 25  1  0  0  0  0
 14 15  1  0  0  0  0
 14 26  1  0  0  0  0
 14 27  1  0  0  0  0
 15 28  1  0  0  0  0
 16 17  1  0  0  0  0
 16 18  1  0  0  0  0
 16 29  1  0  0  0  0
 18 19  1  0  0  0  0
 18 30  1  0  0  0  0
 19 31  1  0  0  0  0
M  END
> <s_m_source_file>
AV-unprocessed.smi

> <i_m_source_file_index>
100

> <i_lp_mmshare_version>
43012

> <i_f3d_flags>
0

> <s_epik_input>
bjFbY0hdbmMoW05IMl0pYyhjMTIpbltjSF1uMltDQEBIXTNPW0NAQEhdKFtDSDJdW09IXSlbQ0BIXShGKVtDQEhdM1tPSF0=

> <s_epik_cmdline>
J2VwaWtfcHl0aG9uJywgJy1waCcsICc3LjAnLCAnLXRuJywgJzgnLCAnLW1hJywgJzIwMCcsICctbWV0YWxfYmluZGluZycsICctaW1hZScsICc8aW5maWxlLm1hZT4nLCAnLW9tYWUnLCAnPG91dGZpbGUubWFlPic=

> <r_lp_tautomer_probability>
1

> <r_epik_Ionization_Penalty>
0.000750324

> <r_epik_Ionization_Penalty_Charging>
0

> <r_epik_Ionization_Penalty_Neutral>
0.000750324

> <r_epik_State_Penalty>
-0

> <r_epik_Charging_Adjusted_Penalty>
0

> <i_epik_Tot_Q>
0

> <i_epik_Tot_abs_Q>
0

> <r_epik_Metal_State_Penalty>
-0

> <b_epik_Metal_Only>
0

> <s_epik_Chemistry_Notes>
This compound contains an acetal/aminal-like group ( X-CH(R)-Y where X, Y are N, S, or O) that may be acid/base labile, releasing an aldehyde.

> <s_lp_Force_Field>
OPLS_2005

> <r_lp_Energy>
36.1234

> <b_lp_Chiralities_Consistent>
1

> <s_lp_Variant>
AV-unprocessed.smi:100-9

> <Gold.Version>
5.8.1

> <Gold.Id.Protein>
6NUR|6NUR_protein|mol2

> <Gold.PLP.Fitness>
42.4305

> <Gold.PLP.PLP>
-30.0317

> <Gold.PLP.part.hbond>
-5.8667

> <Gold.PLP.part.metal>
0.0000

> <Gold.PLP.part.buried>
-1.4834

> <Gold.PLP.part.nonpolar>
-23.1284

> <Gold.PLP.part.repulsive>
0.4875

> <Gold.PLP.ligand.clash>
0.0000

> <Gold.PLP.ligand.torsion>
0.7057

> <Gold.PLP.Chemscore.Hbond>
3.5927

> <Gold.PLP.Chemscore.CHOScore>
1.0000

> <Gold.PLP.Chemscore.Metal>
0.0000

> <Gold.Chemscore.Hbonds>
donor molecule, donor type, donor heavy atom, donor atom, acceptor molecule, acceptor atom, score
      L1  H     1    20       P1  7957  1.00
      L1  H     1    21       P1  7948  1.00
      L1  H    15    28       P1  8029  0.75
      P1  H  7989  7998       L1     8  0.49
      P1  H  7997  8009       L1    19  0.03
      L1  C     9    23       P1  8028  1.00

> <Gold.PLP.Chemscore.Internal.Correction>
0.0321

> <Gold.Rescore>
     Score         DG    S(hbond)    S(metal)    S(lipo)     H(rot)  DE(clash)    DE(int)     intcor
     12.51     -13.95       3.32        0.00      47.29       3.19       0.40       1.04       ----

> <Gold.Chemscore.Fitness>
12.5080

> <Gold.Chemscore.DG>
-13.9516

> <Gold.Chemscore.ZeroCoef>
-5.4800

> <Gold.Chemscore.Hbond>
3.3249

> <Gold.Chemscore.Metal>
0.0000

> <Gold.Chemscore.Lipo>
47.2921

> <Gold.Chemscore.Internal_Hbond>
0.0000

> <Gold.Chemscore.DEClash>
0.4012

> <Gold.Chemscore.DEInternal>
1.0424

> <Gold.Chemscore.Rot>
3.1901

> <Gold.Chemscore.Internal.Correction>
   9.000000E+99

> <Gold.Chemscore.Hbonds>
donor molecule, donor type, donor heavy atom, donor atom, acceptor molecule, acceptor atom, score
      L1  H     1    20       P1  7957  0.94
      L1  H     1    21       P1  7948  0.78
      L1  H    15    28       P1  8029  0.72
      P1  H  7989  7998       L1     8  0.11

> <Gold.Chemscore.Hbond.Weighted>
-11.1051

> <Gold.Chemscore.Metal.Weighted>
-0.0000

> <Gold.Chemscore.Lipo.Weighted>
-5.5332

> <Gold.Chemscore.Internal_Hbond.Weighted>
0.0000

> <Gold.Chemscore.DEClash.Weighted>
0.4012

> <Gold.Chemscore.DEInternal.Weighted>
1.0424

> <Gold.Chemscore.Rot.Weighted>
8.1667

> <Gold.Chemscore.Internal.Correction.Weighted>
   9.000000E+99

> <Gold.Protein.RotatedTorsions>
[ 6907 6896 6895 6894 ] final  -45.64 input  -60.11 | X-H torsion
[ 7974 7965 7964 7962 ] final  -53.21 input  175.53 | X-H torsion
[ 8008 7997 7996 7995 ] final  155.75 input   59.86 | X-H torsion
[ 10167 10162 10161 10158 ] final -129.10 input  -65.29 | X-H torsion
[ 10718 10713 10712 10709 ] final  -32.91 input   66.30 | X-H torsion
[ 10763 10752 10751 10750 ] final  133.84 input  -60.55 | X-H torsion
[ 11005 11000 10999 10996 ] final  -14.43 input  -57.11 | X-H torsion

> <Gold.Protein.ActiveResidues>
 VAL166  LYS551  ARG553  GLY616  TRP617  ASP618  TYR619  PRO620  LYS621  CYS622 
 ASP623  PHE694  ASN695  SER759  ASP760  ASP761  ALA762  ILE779  LEU786  VAL792 
 PHE793  MET794  SER795  GLU796  ALA797  LYS798  CYS799  TRP800  GLU811  SER814 

> <Gold.Protein.RotatedAtoms>
  150.9198  134.8616  159.7481 H   0  0  0  0  0  0  0  0  0  0  0  0  # atno 6907 bound_to 6896
  152.4987  134.4235  159.9498 H   0  0  0  0  0  0  0  0  0  0  0  0  # atno 6908 bound_to 6896
  151.4270  133.3642  159.2799 H   0  0  0  0  0  0  0  0  0  0  0  0  # atno 6909 bound_to 6896
  145.8994  140.8006  142.9751 H   0  0  0  0  0  0  0  0  0  0  0  0  # atno 7974 bound_to 7965
  156.2461  140.1931  156.6849 H   0  0  0  0  0  0  0  0  0  0  0  0  # atno 8008 bound_to 7997
  154.6294  140.0598  156.9740 H   0  0  0  0  0  0  0  0  0  0  0  0  # atno 8009 bound_to 7997
  155.1734  140.3270  155.4391 H   0  0  0  0  0  0  0  0  0  0  0  0  # atno 8010 bound_to 7997
  139.9434  143.6138  152.2497 H   0  0  0  0  0  0  0  0  0  0  0  0  # atno 10167 bound_to 10162
  156.3691  130.4336  149.7560 H   0  0  0  0  0  0  0  0  0  0  0  0  # atno 10718 bound_to 10713
  153.8138  135.3125  155.3403 H   0  0  0  0  0  0  0  0  0  0  0  0  # atno 10763 bound_to 10752
  154.8041  135.4709  154.0350 H   0  0  0  0  0  0  0  0  0  0  0  0  # atno 10764 bound_to 10752
  153.1737  135.6882  153.8662 H   0  0  0  0  0  0  0  0  0  0  0  0  # atno 10765 bound_to 10752
  140.7863  133.8323  155.9338 H   0  0  0  0  0  0  0  0  0  0  0  0  # atno 11005 bound_to 11000
  144.6735  140.1653  143.7419 LP  0  0  0  0  0  0  0  0  0  0  0  0  # atno 17320 bound_to 7965
  145.8810  139.2323  143.1605 LP  0  0  0  0  0  0  0  0  0  0  0  0  # atno 17321 bound_to 7965
  139.6686  144.7661  151.1825 LP  0  0  0  0  0  0  0  0  0  0  0  0  # atno 17342 bound_to 10162
  140.7604  143.5899  150.8807 LP  0  0  0  0  0  0  0  0  0  0  0  0  # atno 17343 bound_to 10162
  156.4694  130.7989  151.3008 LP  0  0  0  0  0  0  0  0  0  0  0  0  # atno 17370 bound_to 10713
  157.7482  131.0040  150.3061 LP  0  0  0  0  0  0  0  0  0  0  0  0  # atno 17371 bound_to 10713
  140.9433  134.1872  157.4782 LP  0  0  0  0  0  0  0  0  0  0  0  0  # atno 17394 bound_to 11000
  139.8736  134.9880  156.5395 LP  0  0  0  0  0  0  0  0  0  0  0  0  # atno 17395 bound_to 11000

$$$$
