AV-unprocessed.smi:484|AV-procd|sdf|2689|dock3
  -GOLD-   2262023123D 1   1.00000     0.00000
 Structure written by MMmdl.
 47 49  0  0  0  0  0  0  0  0  2 V2000
  149.7043  130.5464  154.1692 C   0  0  0  0  0  0  0  0  0  0  0  0
  149.3246  131.3107  155.4423 C   0  0  0  0  0  0  0  0  0  0  0  0
  149.9076  132.7108  155.4674 C   0  0  0  0  0  0  0  0  0  0  0  0
  150.8177  133.0827  156.4769 C   0  0  0  0  0  0  0  0  0  0  0  0
  151.3585  134.3826  156.4970 C   0  0  0  0  0  0  0  0  0  0  0  0
  151.0010  135.3292  155.5154 C   0  0  0  0  0  0  0  0  0  0  0  0
  151.5758  136.5779  155.6136 O   0  0  0  0  0  0  0  0  0  0  0  0
  151.3165  137.5238  154.5836 C   0  0  0  0  0  0  0  0  0  0  0  0
  151.6805  138.9352  155.0716 C   0  0  2  0  0  0  0  0  0  0  0  0
  153.0872  139.0543  155.1381 O   0  0  0  0  0  0  0  0  0  0  0  0
  151.0063  139.3192  156.4048 C   0  0  0  0  0  0  0  0  0  0  0  0
  150.8988  140.7750  156.5896 N   0  0  0  0  0  0  0  0  0  0  0  0
  150.1675  141.6927  155.8946 C   0  0  0  0  0  0  0  0  0  0  0  0
  149.2647  141.4138  154.7350 C   0  0  0  0  0  0  0  0  0  0  0  0
  148.6431  142.5726  154.2194 O   0  0  0  0  0  0  0  0  0  0  0  0
  150.4102  142.9105  156.4588 N   0  3  0  0  0  0  0  0  0  0  0  0
  151.3051  142.7716  157.5199 C   0  0  0  0  0  0  0  0  0  0  0  0
  151.8460  143.7182  158.3847 C   0  0  0  0  0  0  0  0  0  0  0  0
  152.7371  143.2408  159.3680 C   0  0  0  0  0  0  0  0  0  0  0  0
  153.0600  141.8716  159.4630 C   0  0  0  0  0  0  0  0  0  0  0  0
  152.5056  140.9217  158.5801 C   0  0  0  0  0  0  0  0  0  0  0  0
  151.6237  141.4011  157.6113 C   0  0  0  0  0  0  0  0  0  0  0  0
  150.0865  134.9488  154.5009 C   0  0  0  0  0  0  0  0  0  0  0  0
  149.5460  133.6484  154.4793 C   0  0  0  0  0  0  0  0  0  0  0  0
  149.2731  129.5453  154.1744 H   0  0  0  0  0  0  0  0  0  0  0  0
  150.7861  130.4425  154.0803 H   0  0  0  0  0  0  0  0  0  0  0  0
  149.3419  131.0604  153.2784 H   0  0  0  0  0  0  0  0  0  0  0  0
  148.2388  131.3724  155.5263 H   0  0  0  0  0  0  0  0  0  0  0  0
  149.6690  130.7617  156.3198 H   0  0  0  0  0  0  0  0  0  0  0  0
  151.1048  132.3722  157.2383 H   0  0  0  0  0  0  0  0  0  0  0  0
  152.0551  134.6564  157.2757 H   0  0  0  0  0  0  0  0  0  0  0  0
  151.8716  137.2794  153.6761 H   0  0  0  0  0  0  0  0  0  0  0  0
  150.2532  137.5022  154.3395 H   0  0  0  0  0  0  0  0  0  0  0  0
  151.3576  139.6419  154.3066 H   0  0  0  0  0  0  0  0  0  0  0  0
  153.4697  138.2501  154.8217 H   0  0  0  0  0  0  0  0  0  0  0  0
  149.9943  138.9139  156.4366 H   0  0  0  0  0  0  0  0  0  0  0  0
  151.5289  138.8883  157.2588 H   0  0  0  0  0  0  0  0  0  0  0  0
  149.8384  140.9396  153.9386 H   0  0  0  0  0  0  0  0  0  0  0  0
  148.4944  140.7072  155.0451 H   0  0  0  0  0  0  0  0  0  0  0  0
  148.7065  143.2601  154.8652 H   0  0  0  0  0  0  0  0  0  0  0  0
  151.6009  144.7677  158.3120 H   0  0  0  0  0  0  0  0  0  0  0  0
  153.1828  143.9386  160.0620 H   0  0  0  0  0  0  0  0  0  0  0  0
  153.7482  141.5423  160.2281 H   0  0  0  0  0  0  0  0  0  0  0  0
  152.7650  139.8767  158.6608 H   0  0  0  0  0  0  0  0  0  0  0  0
  149.7826  135.6363  153.7264 H   0  0  0  0  0  0  0  0  0  0  0  0
  148.8518  133.3725  153.6990 H   0  0  0  0  0  0  0  0  0  0  0  0
  149.9902  143.7719  156.1339 H   0  0  0  0  0  0  0  0  0  0  0  0
  1  2  1  0  0  0  0
  1 25  1  0  0  0  0
  1 26  1  0  0  0  0
  1 27  1  0  0  0  0
  2  3  1  0  0  0  0
  2 28  1  0  0  0  0
  2 29  1  0  0  0  0
  3 24  1  0  0  0  0
  3  4  2  0  0  0  0
  4  5  1  0  0  0  0
  4 30  1  0  0  0  0
  5  6  2  0  0  0  0
  5 31  1  0  0  0  0
  6  7  1  0  0  0  0
  6 23  1  0  0  0  0
  7  8  1  0  0  0  0
  8  9  1  0  0  0  0
  8 32  1  0  0  0  0
  8 33  1  0  0  0  0
  9 10  1  0  0  0  0
  9 11  1  0  0  0  0
  9 34  1  0  0  0  0
 10 35  1  0  0  0  0
 11 12  1  0  0  0  0
 11 36  1  0  0  0  0
 11 37  1  0  0  0  0
 12 22  1  0  0  0  0
 12 13  1  0  0  0  0
 13 14  1  0  0  0  0
 13 16  2  0  0  0  0
 14 15  1  0  0  0  0
 14 38  1  0  0  0  0
 14 39  1  0  0  0  0
 15 40  1  0  0  0  0
 16 17  1  0  0  0  0
 16 47  1  0  0  0  0
 17 22  2  0  0  0  0
 17 18  1  0  0  0  0
 18 19  2  0  0  0  0
 18 41  1  0  0  0  0
 19 20  1  0  0  0  0
 19 42  1  0  0  0  0
 20 21  2  0  0  0  0
 20 43  1  0  0  0  0
 21 22  1  0  0  0  0
 21 44  1  0  0  0  0
 23 24  2  0  0  0  0
 23 45  1  0  0  0  0
 24 46  1  0  0  0  0
M  CHG  1  16   1
M  END
> <s_m_source_file>
AV-unprocessed.smi

> <i_m_source_file_index>
484

> <i_lp_mmshare_version>
43012

> <i_f3d_flags>
0

> <s_epik_input>
W0NIM11bQ0gyXWMxW2NIXVtjSF1jKFtjSF1bY0hdMSlPW0NIMl1bQ0BIXShbT0hdKVtDSDJdbihjKG4yKVtDSDJdW09IXSljKGMyMylbY0hdW2NIXVtjSF1bY0hdMw==

> <s_epik_cmdline>
J2VwaWtfcHl0aG9uJywgJy1waCcsICc3LjAnLCAnLXRuJywgJzgnLCAnLW1hJywgJzIwMCcsICctbWV0YWxfYmluZGluZycsICctaW1hZScsICc8aW5maWxlLm1hZT4nLCAnLW9tYWUnLCAnPG91dGZpbGUubWFlPic=

> <r_lp_tautomer_probability>
1

> <r_epik_Ionization_Penalty>
1.43166

> <r_epik_Ionization_Penalty_Charging>
1.43081

> <r_epik_Ionization_Penalty_Neutral>
0.000858184

> <r_epik_State_Penalty>
1.51538

> <r_epik_Charging_Adjusted_Penalty>
2.94618

> <i_epik_Tot_Q>
1

> <i_epik_Tot_abs_Q>
1

> <r_epik_Metal_State_Penalty>
5.56039

> <b_epik_Metal_Only>
0

> <s_lp_Force_Field>
OPLS_2005

> <r_lp_Energy>
18.7475

> <b_lp_Chiralities_Consistent>
1

> <s_lp_Variant>
AV-unprocessed.smi:484-3

> <Gold.Version>
5.8.1

> <Gold.Id.Protein>
6NUR|6NUR_protein|mol2

> <Gold.PLP.Fitness>
63.9383

> <Gold.PLP.PLP>
-52.4161

> <Gold.PLP.part.hbond>
-5.3136

> <Gold.PLP.part.metal>
0.0000

> <Gold.PLP.part.buried>
-4.0046

> <Gold.PLP.part.nonpolar>
-43.4098

> <Gold.PLP.part.repulsive>
0.1446

> <Gold.PLP.ligand.clash>
0.0000

> <Gold.PLP.ligand.torsion>
0.3883

> <Gold.PLP.Chemscore.Hbond>
4.0406

> <Gold.PLP.Chemscore.CHOScore>
0.0000

> <Gold.PLP.Chemscore.Metal>
0.0000

> <Gold.Chemscore.Hbonds>
donor molecule, donor type, donor heavy atom, donor atom, acceptor molecule, acceptor atom, score
      L1  H    15    40       P1  8028  1.00
      L1  H    16    47       P1  8028  1.95
      P1  H  7997  8009       L1    10  1.00
      P1  H  8011  8017       L1    15  0.04

> <Gold.PLP.Chemscore.Internal.Correction>
0.1771

> <Gold.Rescore>
     Score         DG    S(hbond)    S(metal)    S(lipo)     H(rot)  DE(clash)    DE(int)     intcor
     21.92     -22.57       2.99        0.00     130.32       3.18       0.17       0.49       ----

> <Gold.Chemscore.Fitness>
21.9191

> <Gold.Chemscore.DG>
-22.5727

> <Gold.Chemscore.ZeroCoef>
-5.4800

> <Gold.Chemscore.Hbond>
2.9900

> <Gold.Chemscore.Metal>
0.0000

> <Gold.Chemscore.Lipo>
130.3185

> <Gold.Chemscore.Internal_Hbond>
0.0000

> <Gold.Chemscore.DEClash>
0.1683

> <Gold.Chemscore.DEInternal>
0.4854

> <Gold.Chemscore.Rot>
3.1801

> <Gold.Chemscore.Internal.Correction>
   9.000000E+99

> <Gold.Chemscore.Hbonds>
donor molecule, donor type, donor heavy atom, donor atom, acceptor molecule, acceptor atom, score
      L1  H    15    40       P1  8028  1.00
      L1  H    16    47       P1  8028  0.92
      P1  H  7997  8009       L1    10  0.69

> <Gold.Chemscore.Hbond.Weighted>
-9.9865

> <Gold.Chemscore.Metal.Weighted>
-0.0000

> <Gold.Chemscore.Lipo.Weighted>
-15.2473

> <Gold.Chemscore.Internal_Hbond.Weighted>
0.0000

> <Gold.Chemscore.DEClash.Weighted>
0.1683

> <Gold.Chemscore.DEInternal.Weighted>
0.4854

> <Gold.Chemscore.Rot.Weighted>
8.1410

> <Gold.Chemscore.Internal.Correction.Weighted>
   9.000000E+99

> <Gold.Protein.RotatedTorsions>
[ 6907 6896 6895 6894 ] final  127.39 input  -60.11 | X-H torsion
[ 7974 7965 7964 7962 ] final -164.98 input  175.53 | X-H torsion
[ 8008 7997 7996 7995 ] final -129.78 input   59.86 | X-H torsion
[ 10167 10162 10161 10158 ] final   56.94 input  -65.29 | X-H torsion
[ 10718 10713 10712 10709 ] final  -65.59 input   66.30 | X-H torsion
[ 10763 10752 10751 10750 ] final  -39.87 input  -60.55 | X-H torsion
[ 11005 11000 10999 10996 ] final  -19.97 input  -57.11 | X-H torsion

> <Gold.Protein.ActiveResidues>
 VAL166  LYS551  ARG553  GLY616  TRP617  ASP618  TYR619  PRO620  LYS621  CYS622 
 ASP623  PHE694  ASN695  SER759  ASP760  ASP761  ALA762  ILE779  LEU786  VAL792 
 PHE793  MET794  SER795  GLU796  ALA797  LYS798  CYS799  TRP800  GLU811  SER814 

> <Gold.Protein.RotatedAtoms>
  152.3816  133.6554  159.6165 H   0  0  0  0  0  0  0  0  0  0  0  0  # atno 6907 bound_to 6896
  150.7746  133.9104  159.3376 H   0  0  0  0  0  0  0  0  0  0  0  0  # atno 6908 bound_to 6896
  151.6908  135.0948  160.0284 H   0  0  0  0  0  0  0  0  0  0  0  0  # atno 6909 bound_to 6896
  144.7282  140.2881  143.6225 H   0  0  0  0  0  0  0  0  0  0  0  0  # atno 7974 bound_to 7965
  155.2849  140.0446  157.3018 H   0  0  0  0  0  0  0  0  0  0  0  0  # atno 8008 bound_to 7997
  154.5575  140.2336  155.8355 H   0  0  0  0  0  0  0  0  0  0  0  0  # atno 8009 bound_to 7997
  156.2019  140.3023  155.9552 H   0  0  0  0  0  0  0  0  0  0  0  0  # atno 8010 bound_to 7997
  140.2033  144.3965  150.6519 H   0  0  0  0  0  0  0  0  0  0  0  0  # atno 10167 bound_to 10162
  156.0661  130.4249  150.1586 H   0  0  0  0  0  0  0  0  0  0  0  0  # atno 10718 bound_to 10713
  153.9366  135.6766  153.4745 H   0  0  0  0  0  0  0  0  0  0  0  0  # atno 10763 bound_to 10752
  153.0952  135.4854  154.8763 H   0  0  0  0  0  0  0  0  0  0  0  0  # atno 10764 bound_to 10752
  154.7400  135.3158  154.8703 H   0  0  0  0  0  0  0  0  0  0  0  0  # atno 10765 bound_to 10752
  140.8419  133.7920  155.9870 H   0  0  0  0  0  0  0  0  0  0  0  0  # atno 11005 bound_to 11000
  145.7883  139.1917  143.2118 LP  0  0  0  0  0  0  0  0  0  0  0  0  # atno 17320 bound_to 7965
  146.0777  140.7799  142.9657 LP  0  0  0  0  0  0  0  0  0  0  0  0  # atno 17321 bound_to 7965
  140.6375  143.2197  151.6363 LP  0  0  0  0  0  0  0  0  0  0  0  0  # atno 17342 bound_to 10162
  139.5208  144.3211  152.0909 LP  0  0  0  0  0  0  0  0  0  0  0  0  # atno 17343 bound_to 10162
  156.9646  130.9815  151.3472 LP  0  0  0  0  0  0  0  0  0  0  0  0  # atno 17370 bound_to 10713
  157.5703  130.8306  149.8382 LP  0  0  0  0  0  0  0  0  0  0  0  0  # atno 17371 bound_to 10713
  140.8886  134.2524  157.5107 LP  0  0  0  0  0  0  0  0  0  0  0  0  # atno 17394 bound_to 11000
  139.8703  134.9650  156.4514 LP  0  0  0  0  0  0  0  0  0  0  0  0  # atno 17395 bound_to 11000

$$$$
