AV-unprocessed.smi:1157|AV-procd|sdf|4909|dock7
  -GOLD-   22720 3483D 1   1.00000     0.00000
 Structure written by MMmdl.
 56 58  0  0  0  0  0  0  0  0  3 V2000
  143.9586  136.1025  151.6328 C   0  0  0  0  0  0  0  0  0  0  0  0
  145.4733  136.4387  151.6752 C   0  0  0  0  0  0  0  0  0  0  0  0
  145.9606  136.6240  150.2174 C   0  0  0  0  0  0  0  0  0  0  0  0
  145.6579  137.7691  152.4683 C   0  0  0  0  0  0  0  0  0  0  0  0
  147.0476  138.0719  152.8131 N   0  0  0  0  0  0  0  0  0  0  0  0
  147.4447  138.9700  153.7262 C   0  0  0  0  0  0  0  0  0  0  0  0
  146.6664  139.6712  154.3724 O   0  0  0  0  0  0  0  0  0  0  0  0
  148.7850  139.0161  153.8152 N   0  0  0  0  0  0  0  0  0  0  0  0
  149.5826  139.8229  154.6708 C   0  0  0  0  0  0  0  0  0  0  0  0
  150.7857  139.3848  155.2771 C   0  0  0  0  0  0  0  0  0  0  0  0
  151.5142  140.2712  156.0969 C   0  0  0  0  0  0  0  0  0  0  0  0
  151.0418  141.5888  156.3021 C   0  0  0  0  0  0  0  0  0  0  0  0
  151.7204  142.5257  157.1044 N   0  0  0  0  0  0  0  0  0  0  0  0
  151.5178  143.9566  156.9413 C   0  0  0  0  0  0  0  0  0  0  0  0
  152.2901  144.5894  158.0979 C   0  0  0  0  0  0  0  0  0  0  0  0
  152.1611  143.5488  159.2106 C   0  0  0  0  0  0  0  0  0  0  0  0
  152.1212  142.2078  158.4680 C   0  0  0  0  0  0  0  0  0  0  0  0
  149.8968  141.9678  155.6858 N   0  3  0  0  0  0  0  0  0  0  0  0
  149.1691  141.1523  154.8927 C   0  0  0  0  0  0  0  0  0  0  0  0
  146.2435  135.3444  152.3770 N   0  3  0  0  0  0  0  0  0  0  0  0
  146.0467  135.2413  153.8526 C   0  0  0  0  0  0  0  0  0  0  0  0
  146.9912  134.1909  154.4636 C   0  0  0  0  0  0  0  0  0  0  0  0
  146.7981  132.9341  153.8325 O   0  0  0  0  0  0  0  0  0  0  0  0
  147.0907  132.9994  152.4451 C   0  0  0  0  0  0  0  0  0  0  0  0
  146.1274  133.9870  151.7683 C   0  0  0  0  0  0  0  0  0  0  0  0
  143.3676  136.9152  151.2117 H   0  0  0  0  0  0  0  0  0  0  0  0
  143.5661  135.8995  152.6300 H   0  0  0  0  0  0  0  0  0  0  0  0
  143.7421  135.2427  150.9992 H   0  0  0  0  0  0  0  0  0  0  0  0
  145.3388  137.3406  149.6797 H   0  0  0  0  0  0  0  0  0  0  0  0
  145.9232  135.6911  149.6551 H   0  0  0  0  0  0  0  0  0  0  0  0
  146.9825  137.0007  150.1702 H   0  0  0  0  0  0  0  0  0  0  0  0
  145.2040  138.5956  151.9186 H   0  0  0  0  0  0  0  0  0  0  0  0
  145.1396  137.7314  153.4244 H   0  0  0  0  0  0  0  0  0  0  0  0
  147.7587  137.5483  152.3234 H   0  0  0  0  0  0  0  0  0  0  0  0
  149.2952  138.4465  153.1559 H   0  0  0  0  0  0  0  0  0  0  0  0
  151.1747  138.3909  155.1179 H   0  0  0  0  0  0  0  0  0  0  0  0
  152.4336  139.9307  156.5498 H   0  0  0  0  0  0  0  0  0  0  0  0
  151.8799  144.3082  155.9747 H   0  0  0  0  0  0  0  0  0  0  0  0
  150.4539  144.1854  157.0183 H   0  0  0  0  0  0  0  0  0  0  0  0
  153.3394  144.7061  157.8227 H   0  0  0  0  0  0  0  0  0  0  0  0
  151.9041  145.5691  158.3810 H   0  0  0  0  0  0  0  0  0  0  0  0
  152.9691  143.6038  159.9407 H   0  0  0  0  0  0  0  0  0  0  0  0
  151.2203  143.7002  159.7415 H   0  0  0  0  0  0  0  0  0  0  0  0
  151.4311  141.5159  158.9521 H   0  0  0  0  0  0  0  0  0  0  0  0
  153.1099  141.7484  158.4461 H   0  0  0  0  0  0  0  0  0  0  0  0
  148.2771  141.5880  154.4664 H   0  0  0  0  0  0  0  0  0  0  0  0
  146.2627  136.1824  154.3549 H   0  0  0  0  0  0  0  0  0  0  0  0
  145.0108  134.9832  154.0754 H   0  0  0  0  0  0  0  0  0  0  0  0
  148.0326  134.5025  154.3675 H   0  0  0  0  0  0  0  0  0  0  0  0
  146.7909  134.0827  155.5299 H   0  0  0  0  0  0  0  0  0  0  0  0
  148.1300  133.2929  152.2871 H   0  0  0  0  0  0  0  0  0  0  0  0
  146.9721  132.0051  152.0142 H   0  0  0  0  0  0  0  0  0  0  0  0
  145.1086  133.6130  151.8736 H   0  0  0  0  0  0  0  0  0  0  0  0
  146.3554  133.9984  150.7051 H   0  0  0  0  0  0  0  0  0  0  0  0
  147.2130  135.6062  152.2668 H   0  0  0  0  0  0  0  0  0  0  0  0
  149.5650  142.9220  155.8280 H   0  0  0  0  0  0  0  0  0  0  0  0
  1  2  1  0  0  0  0
  1 26  1  0  0  0  0
  1 27  1  0  0  0  0
  1 28  1  0  0  0  0
  2  3  1  0  0  0  0
  2  4  1  0  0  0  0
  2 20  1  0  0  0  0
  3 29  1  0  0  0  0
  3 30  1  0  0  0  0
  3 31  1  0  0  0  0
  4  5  1  0  0  0  0
  4 32  1  0  0  0  0
  4 33  1  0  0  0  0
  5  6  1  0  0  0  0
  5 34  1  0  0  0  0
  6  7  2  0  0  0  0
  6  8  1  0  0  0  0
  8  9  1  0  0  0  0
  8 35  1  0  0  0  0
  9 19  1  0  0  0  0
  9 10  2  0  0  0  0
 10 11  1  0  0  0  0
 10 36  1  0  0  0  0
 11 12  2  0  0  0  0
 11 37  1  0  0  0  0
 12 13  1  0  0  0  0
 12 18  1  0  0  0  0
 13 17  1  0  0  0  0
 13 14  1  0  0  0  0
 14 15  1  0  0  0  0
 14 38  1  0  0  0  0
 14 39  1  0  0  0  0
 15 16  1  0  0  0  0
 15 40  1  0  0  0  0
 15 41  1  0  0  0  0
 16 17  1  0  0  0  0
 16 42  1  0  0  0  0
 16 43  1  0  0  0  0
 17 44  1  0  0  0  0
 17 45  1  0  0  0  0
 18 19  2  0  0  0  0
 18 56  1  0  0  0  0
 19 46  1  0  0  0  0
 20 25  1  0  0  0  0
 20 21  1  0  0  0  0
 20 55  1  0  0  0  0
 21 22  1  0  0  0  0
 21 47  1  0  0  0  0
 21 48  1  0  0  0  0
 22 23  1  0  0  0  0
 22 49  1  0  0  0  0
 22 50  1  0  0  0  0
 23 24  1  0  0  0  0
 24 25  1  0  0  0  0
 24 51  1  0  0  0  0
 24 52  1  0  0  0  0
 25 53  1  0  0  0  0
 25 54  1  0  0  0  0
M  CHG  1  18   1
M  CHG  1  20   1
M  END
> <s_m_source_file>
AV-unprocessed.smi

> <i_m_source_file_index>
1157

> <i_lp_mmshare_version>
43012

> <i_f3d_flags>
0

> <s_epik_input>
W0NIMl0xW0NIMl1PW0NIMl1bQ0gyXU4xQyhbQ0gzXSkoW0NIM10pW0NIMl1bTkhdQyg9TylbTkhdYzJbY0hdW2NIXWMobltjSF0yKU4zW0NIMl1bQ0gyXVtDSDJdW0NIMl0z

> <s_epik_cmdline>
J2VwaWtfcHl0aG9uJywgJy1waCcsICc3LjAnLCAnLXRuJywgJzgnLCAnLW1hJywgJzIwMCcsICctbWV0YWxfYmluZGluZycsICctaW1hZScsICc8aW5maWxlLm1hZT4nLCAnLW9tYWUnLCAnPG91dGZpbGUubWFlPic=

> <r_lp_tautomer_probability>
0.999994

> <r_epik_Ionization_Penalty>
1.80144

> <r_epik_Ionization_Penalty_Charging>
1.80142

> <r_epik_Ionization_Penalty_Neutral>
2.04065e-05

> <r_epik_State_Penalty>
1.84115

> <r_epik_Charging_Adjusted_Penalty>
3.64257

> <i_epik_Tot_Q>
2

> <i_epik_Tot_abs_Q>
2

> <r_epik_Metal_State_Penalty>
1.92436

> <b_epik_Metal_Only>
0

> <s_lp_Force_Field>
OPLS_2005

> <r_lp_Energy>
58.4852

> <b_lp_Chiralities_Consistent>
1

> <s_lp_Variant>
AV-unprocessed.smi:1157-4

> <Gold.Version>
5.8.1

> <Gold.Id.Protein>
6NUR|6NUR_protein|mol2

> <Gold.PLP.Fitness>
58.3264

> <Gold.PLP.PLP>
-45.0581

> <Gold.PLP.part.hbond>
-4.0000

> <Gold.PLP.part.metal>
0.0000

> <Gold.PLP.part.buried>
1.4800

> <Gold.PLP.part.nonpolar>
-41.8070

> <Gold.PLP.part.repulsive>
0.4550

> <Gold.PLP.ligand.clash>
0.0000

> <Gold.PLP.ligand.torsion>
1.1668

> <Gold.PLP.Chemscore.Hbond>
5.0884

> <Gold.PLP.Chemscore.CHOScore>
0.0000

> <Gold.PLP.Chemscore.Metal>
0.0000

> <Gold.Chemscore.Hbonds>
donor molecule, donor type, donor heavy atom, donor atom, acceptor molecule, acceptor atom, score
      L1  H     5    34       P1  7948  1.00
      L1  H    18    56       P1  8028  2.00
      L1  H    20    55       P1  7948  2.00

> <Gold.PLP.Chemscore.Internal.Correction>
0.3368

> <Gold.Rescore>
     Score         DG    S(hbond)    S(metal)    S(lipo)     H(rot)  DE(clash)    DE(int)     intcor
     20.38     -25.55       2.96        0.00     118.70       1.45       2.89       2.28       ----

> <Gold.Chemscore.Fitness>
20.3835

> <Gold.Chemscore.DG>
-25.5504

> <Gold.Chemscore.ZeroCoef>
-5.4800

> <Gold.Chemscore.Hbond>
2.9591

> <Gold.Chemscore.Metal>
0.0000

> <Gold.Chemscore.Lipo>
118.7025

> <Gold.Chemscore.Internal_Hbond>
0.0000

> <Gold.Chemscore.DEClash>
2.8906

> <Gold.Chemscore.DEInternal>
2.2763

> <Gold.Chemscore.Rot>
1.4458

> <Gold.Chemscore.Internal.Correction>
   9.000000E+99

> <Gold.Chemscore.Hbonds>
donor molecule, donor type, donor heavy atom, donor atom, acceptor molecule, acceptor atom, score
      L1  H     5    34       P1  7948  1.00
      L1  H    18    56       P1  8028  1.00
      L1  H    20    55       P1  7948  1.00

> <Gold.Chemscore.Hbond.Weighted>
-9.8834

> <Gold.Chemscore.Metal.Weighted>
-0.0000

> <Gold.Chemscore.Lipo.Weighted>
-13.8882

> <Gold.Chemscore.Internal_Hbond.Weighted>
0.0000

> <Gold.Chemscore.DEClash.Weighted>
2.8906

> <Gold.Chemscore.DEInternal.Weighted>
2.2763

> <Gold.Chemscore.Rot.Weighted>
3.7012

> <Gold.Chemscore.Internal.Correction.Weighted>
   9.000000E+99

> <Gold.Protein.RotatedTorsions>
[ 6907 6896 6895 6894 ] final  -57.22 input  -60.11 | X-H torsion
[ 7974 7965 7964 7962 ] final -164.95 input  175.53 | X-H torsion
[ 8008 7997 7996 7995 ] final  -40.23 input   59.86 | X-H torsion
[ 10167 10162 10161 10158 ] final -125.32 input  -65.29 | X-H torsion
[ 10718 10713 10712 10709 ] final   78.08 input   66.30 | X-H torsion
[ 10763 10752 10751 10750 ] final  -34.77 input  -60.55 | X-H torsion
[ 11005 11000 10999 10996 ] final  118.04 input  -57.11 | X-H torsion

> <Gold.Protein.ActiveResidues>
 VAL166  LYS551  ARG553  GLY616  TRP617  ASP618  TYR619  PRO620  LYS621  CYS622 
 ASP623  PHE694  ASN695  SER759  ASP760  ASP761  ALA762  ILE779  LEU786  VAL792 
 PHE793  MET794  SER795  GLU796  ALA797  LYS798  CYS799  TRP800  GLU811  SER814 

> <Gold.Protein.RotatedAtoms>
  150.8103  134.7254  159.6681 H   0  0  0  0  0  0  0  0  0  0  0  0  # atno 6907 bound_to 6896
  152.4223  134.5929  159.9989 H   0  0  0  0  0  0  0  0  0  0  0  0  # atno 6908 bound_to 6896
  151.6141  133.3307  159.3110 H   0  0  0  0  0  0  0  0  0  0  0  0  # atno 6909 bound_to 6896
  144.7283  140.2885  143.6224 H   0  0  0  0  0  0  0  0  0  0  0  0  # atno 7974 bound_to 7965
  154.4014  140.1531  156.2993 H   0  0  0  0  0  0  0  0  0  0  0  0  # atno 8008 bound_to 7997
  155.8715  140.3448  155.5803 H   0  0  0  0  0  0  0  0  0  0  0  0  # atno 8009 bound_to 7997
  155.7769  140.0838  157.2070 H   0  0  0  0  0  0  0  0  0  0  0  0  # atno 8010 bound_to 7997
  139.9834  143.5718  152.2370 H   0  0  0  0  0  0  0  0  0  0  0  0  # atno 10167 bound_to 10162
  157.6733  130.9852  150.1735 H   0  0  0  0  0  0  0  0  0  0  0  0  # atno 10718 bound_to 10713
  153.8522  135.6848  153.4791 H   0  0  0  0  0  0  0  0  0  0  0  0  # atno 10763 bound_to 10752
  153.1391  135.4665  154.9466 H   0  0  0  0  0  0  0  0  0  0  0  0  # atno 10764 bound_to 10752
  154.7797  135.3265  154.7964 H   0  0  0  0  0  0  0  0  0  0  0  0  # atno 10765 bound_to 10752
  139.9095  134.9616  156.7443 H   0  0  0  0  0  0  0  0  0  0  0  0  # atno 11005 bound_to 11000
  145.7878  139.1915  143.2120 LP  0  0  0  0  0  0  0  0  0  0  0  0  # atno 17320 bound_to 7965
  146.0781  140.7795  142.9655 LP  0  0  0  0  0  0  0  0  0  0  0  0  # atno 17321 bound_to 7965
  139.6393  144.7653  151.2372 LP  0  0  0  0  0  0  0  0  0  0  0  0  # atno 17342 bound_to 10162
  140.7481  143.6344  150.8392 LP  0  0  0  0  0  0  0  0  0  0  0  0  # atno 17343 bound_to 10162
  156.2483  130.3698  149.8260 LP  0  0  0  0  0  0  0  0  0  0  0  0  # atno 17370 bound_to 10713
  156.6040  130.8558  151.3438 LP  0  0  0  0  0  0  0  0  0  0  0  0  # atno 17371 bound_to 10713
  140.6825  133.9462  155.7918 LP  0  0  0  0  0  0  0  0  0  0  0  0  # atno 17394 bound_to 11000
  141.0500  134.0498  157.3795 LP  0  0  0  0  0  0  0  0  0  0  0  0  # atno 17395 bound_to 11000

$$$$
