AV-unprocessed.smi:2775|AV-procd|sdf|10698|dock1
  -GOLD-   2272015133D 1   1.00000     0.00000
 Structure written by MMmdl.
 43 46  0  0  0  0  0  0  0  0  2 V2000
  151.1662  144.9031  160.7189 C   0  0  0  0  0  0  0  0  0  0  0  0
  151.9982  143.7047  160.3042 C   0  0  0  0  0  0  0  0  0  0  0  0
  151.9618  143.3330  159.0057 N   0  3  0  0  0  0  0  0  0  0  0  0
  152.6546  142.2811  158.5225 C   0  0  0  0  0  0  0  0  0  0  0  0
  153.4671  141.5185  159.3839 C   0  0  0  0  0  0  0  0  0  0  0  0
  153.5541  141.8731  160.7543 C   0  0  0  0  0  0  0  0  0  0  0  0
  154.3360  141.1591  161.7040 N   0  0  0  0  0  0  0  0  0  0  0  0
  154.6230  139.8446  161.7684 C   0  0  0  0  0  0  0  0  0  0  0  0
  154.2242  138.9971  160.9731 O   0  0  0  0  0  0  0  0  0  0  0  0
  155.4164  139.5137  162.8020 N   0  0  0  0  0  0  0  0  0  0  0  0
  155.9082  138.1796  163.1503 C   0  0  2  0  0  0  0  0  0  0  0  0
  154.8210  137.0975  163.0114 C   0  0  1  0  0  0  0  0  0  0  0  0
  154.9903  135.9922  162.0040 C   0  0  0  0  0  0  0  0  0  0  0  0
  155.5445  134.8417  162.8486 C   0  0  0  0  0  0  0  0  0  0  0  0
  156.1292  135.4778  163.9826 O   0  0  0  0  0  0  0  0  0  0  0  0
  155.2714  136.5501  164.3614 C   0  0  1  0  0  0  0  0  0  0  0  0
  155.9670  137.8828  164.6640 C   0  0  0  0  0  0  0  0  0  0  0  0
  155.3812  138.8298  165.7289 C   0  0  0  0  0  0  0  0  0  0  0  0
  156.8111  139.2089  166.1237 C   0  0  0  0  0  0  0  0  0  0  0  0
  157.2939  137.9291  165.4347 C   0  0  0  0  0  0  0  0  0  0  0  0
  152.7955  142.9764  161.2181 C   0  0  0  0  0  0  0  0  0  0  0  0
  152.8433  143.4365  162.8876 Cl  0  0  0  0  0  0  0  0  0  0  0  0
  151.8016  145.6721  161.1594 H   0  0  0  0  0  0  0  0  0  0  0  0
  150.4190  144.6088  161.4564 H   0  0  0  0  0  0  0  0  0  0  0  0
  150.6465  145.3423  159.8664 H   0  0  0  0  0  0  0  0  0  0  0  0
  152.5359  142.0787  157.4679 H   0  0  0  0  0  0  0  0  0  0  0  0
  153.9962  140.6722  158.9750 H   0  0  0  0  0  0  0  0  0  0  0  0
  154.7893  141.7338  162.3998 H   0  0  0  0  0  0  0  0  0  0  0  0
  155.7013  140.2639  163.4154 H   0  0  0  0  0  0  0  0  0  0  0  0
  156.8269  137.8853  162.6380 H   0  0  0  0  0  0  0  0  0  0  0  0
  153.8112  137.5081  163.0700 H   0  0  0  0  0  0  0  0  0  0  0  0
  154.0534  135.7188  161.5179 H   0  0  0  0  0  0  0  0  0  0  0  0
  155.6997  136.2786  161.2270 H   0  0  0  0  0  0  0  0  0  0  0  0
  154.7367  134.1900  163.1848 H   0  0  0  0  0  0  0  0  0  0  0  0
  156.2710  134.2344  162.3086 H   0  0  0  0  0  0  0  0  0  0  0  0
  154.4550  136.2619  165.0250 H   0  0  0  0  0  0  0  0  0  0  0  0
  154.7777  139.6578  165.3574 H   0  0  0  0  0  0  0  0  0  0  0  0
  154.8635  138.2932  166.5252 H   0  0  0  0  0  0  0  0  0  0  0  0
  157.1607  140.1158  165.6295 H   0  0  0  0  0  0  0  0  0  0  0  0
  156.9912  139.2409  167.1986 H   0  0  0  0  0  0  0  0  0  0  0  0
  157.4058  137.0950  166.1291 H   0  0  0  0  0  0  0  0  0  0  0  0
  158.1800  138.0564  164.8124 H   0  0  0  0  0  0  0  0  0  0  0  0
  151.3802  143.8696  158.3616 H   0  0  0  0  0  0  0  0  0  0  0  0
  1  2  1  0  0  0  0
  1 23  1  0  0  0  0
  1 24  1  0  0  0  0
  1 25  1  0  0  0  0
  2 21  1  0  0  0  0
  2  3  2  0  0  0  0
  3  4  1  0  0  0  0
  3 43  1  0  0  0  0
  4  5  2  0  0  0  0
  4 26  1  0  0  0  0
  5  6  1  0  0  0  0
  5 27  1  0  0  0  0
  6  7  1  0  0  0  0
  6 21  2  0  0  0  0
  7  8  1  0  0  0  0
  7 28  1  0  0  0  0
  8  9  2  0  0  0  0
  8 10  1  0  0  0  0
 10 11  1  0  0  0  0
 10 29  1  0  0  0  0
 11 17  1  0  0  0  0
 11 12  1  0  0  0  0
 11 30  1  0  0  0  0
 12 16  1  0  0  0  0
 12 13  1  0  0  0  0
 12 31  1  0  0  0  0
 13 14  1  0  0  0  0
 13 32  1  0  0  0  0
 13 33  1  0  0  0  0
 14 15  1  0  0  0  0
 14 34  1  0  0  0  0
 14 35  1  0  0  0  0
 15 16  1  0  0  0  0
 16 17  1  0  0  0  0
 16 36  1  0  0  0  0
 17 20  1  0  0  0  0
 17 18  1  0  0  0  0
 18 19  1  0  0  0  0
 18 37  1  0  0  0  0
 18 38  1  0  0  0  0
 19 20  1  0  0  0  0
 19 39  1  0  0  0  0
 19 40  1  0  0  0  0
 20 41  1  0  0  0  0
 20 42  1  0  0  0  0
 21 22  1  0  0  0  0
M  CHG  1   3   1
M  END
> <s_m_source_file>
AV-unprocessed.smi

> <i_m_source_file_index>
2775

> <i_lp_mmshare_version>
43012

> <i_f3d_flags>
0

> <s_epik_input>
W0NIM11jMW5bY0hdW2NIXWMoYzFDbClbTkhdQyg9TylbTkhdW0NAQEhdMltDQEhdKFtDSDJdW0NIMl1PMylbQ0BASF0zQzI0W0NIMl1bQ0gyXVtDSDJdNA==

> <s_epik_cmdline>
J2VwaWtfcHl0aG9uJywgJy1waCcsICc3LjAnLCAnLXRuJywgJzgnLCAnLW1hJywgJzIwMCcsICctbWV0YWxfYmluZGluZycsICctaW1hZScsICc8aW5maWxlLm1hZT4nLCAnLW9tYWUnLCAnPG91dGZpbGUubWFlPic=

> <r_epik_Ionization_Penalty>
2.4104

> <r_epik_Ionization_Penalty_Charging>
2.41038

> <r_epik_Ionization_Penalty_Neutral>
1.9872e-05

> <r_epik_State_Penalty>
2.56896

> <r_epik_Charging_Adjusted_Penalty>
4.97934

> <i_epik_Tot_Q>
1

> <i_epik_Tot_abs_Q>
1

> <r_epik_Metal_State_Penalty>
2.57906

> <b_epik_Metal_Only>
0

> <s_lp_Force_Field>
OPLS_2005

> <r_lp_Energy>
60.4392

> <b_lp_Chiralities_Consistent>
1

> <s_lp_Variant>
AV-unprocessed.smi:2775-11

> <Gold.Version>
5.8.1

> <Gold.Id.Protein>
6NUR|6NUR_protein|mol2

> <Gold.PLP.Fitness>
39.7605

> <Gold.PLP.PLP>
-40.5799

> <Gold.PLP.part.hbond>
-0.6633

> <Gold.PLP.part.metal>
0.0000

> <Gold.PLP.part.buried>
-5.4068

> <Gold.PLP.part.nonpolar>
-34.3976

> <Gold.PLP.part.repulsive>
0.1024

> <Gold.PLP.ligand.clash>
0.0000

> <Gold.PLP.ligand.torsion>
0.5065

> <Gold.PLP.Chemscore.Hbond>
0.0000

> <Gold.PLP.Chemscore.CHOScore>
0.0000

> <Gold.PLP.Chemscore.Metal>
0.0000

> <Gold.PLP.Chemscore.Internal.Correction>
0.1937

> <Gold.Rescore>
     Score         DG    S(hbond)    S(metal)    S(lipo)     H(rot)  DE(clash)    DE(int)     intcor
     15.17     -17.17       0.00        0.00     121.76       1.00       0.10       1.89       ----

> <Gold.Chemscore.Fitness>
15.1736

> <Gold.Chemscore.DG>
-17.1663

> <Gold.Chemscore.ZeroCoef>
-5.4800

> <Gold.Chemscore.Hbond>
0.0000

> <Gold.Chemscore.Metal>
0.0000

> <Gold.Chemscore.Lipo>
121.7633

> <Gold.Chemscore.Internal_Hbond>
0.0000

> <Gold.Chemscore.DEClash>
0.1040

> <Gold.Chemscore.DEInternal>
1.8887

> <Gold.Chemscore.Rot>
1.0000

> <Gold.Chemscore.Internal.Correction>
   9.000000E+99

> <Gold.Chemscore.Hbond.Weighted>
-0.0000

> <Gold.Chemscore.Metal.Weighted>
-0.0000

> <Gold.Chemscore.Lipo.Weighted>
-14.2463

> <Gold.Chemscore.Internal_Hbond.Weighted>
0.0000

> <Gold.Chemscore.DEClash.Weighted>
0.1040

> <Gold.Chemscore.DEInternal.Weighted>
1.8887

> <Gold.Chemscore.Rot.Weighted>
2.5600

> <Gold.Chemscore.Internal.Correction.Weighted>
   9.000000E+99

> <Gold.Protein.RotatedTorsions>
[ 6907 6896 6895 6894 ] final -118.89 input  -60.11 | X-H torsion
[ 7974 7965 7964 7962 ] final  -21.56 input  175.53 | X-H torsion
[ 8008 7997 7996 7995 ] final   34.85 input   59.86 | X-H torsion
[ 10167 10162 10161 10158 ] final  -50.09 input  -65.29 | X-H torsion
[ 10718 10713 10712 10709 ] final   89.57 input   66.30 | X-H torsion
[ 10763 10752 10751 10750 ] final -177.63 input  -60.55 | X-H torsion
[ 11005 11000 10999 10996 ] final   44.07 input  -57.11 | X-H torsion

> <Gold.Protein.ActiveResidues>
 VAL166  LYS551  ARG553  GLY616  TRP617  ASP618  TYR619  PRO620  LYS621  CYS622 
 ASP623  PHE694  ASN695  SER759  ASP760  ASP761  ALA762  ILE779  LEU786  VAL792 
 PHE793  MET794  SER795  GLU796  ALA797  LYS798  CYS799  TRP800  GLU811  SER814 

> <Gold.Protein.RotatedAtoms>
  150.8258  133.8174  159.3119 H   0  0  0  0  0  0  0  0  0  0  0  0  # atno 6907 bound_to 6896
  151.5919  135.1051  160.0050 H   0  0  0  0  0  0  0  0  0  0  0  0  # atno 6908 bound_to 6896
  152.4343  133.7292  159.6634 H   0  0  0  0  0  0  0  0  0  0  0  0  # atno 6909 bound_to 6896
  146.1726  140.4357  142.8526 H   0  0  0  0  0  0  0  0  0  0  0  0  # atno 7974 bound_to 7965
  155.1615  140.3284  155.4410 H   0  0  0  0  0  0  0  0  0  0  0  0  # atno 8008 bound_to 7997
  156.2541  140.1959  156.6673 H   0  0  0  0  0  0  0  0  0  0  0  0  # atno 8009 bound_to 7997
  154.6401  140.0571  156.9822 H   0  0  0  0  0  0  0  0  0  0  0  0  # atno 8010 bound_to 7997
  140.6654  143.2671  151.4309 H   0  0  0  0  0  0  0  0  0  0  0  0  # atno 10167 bound_to 10162
  157.6956  131.0338  150.3445 H   0  0  0  0  0  0  0  0  0  0  0  0  # atno 10718 bound_to 10713
  154.5578  135.2818  155.0948 H   0  0  0  0  0  0  0  0  0  0  0  0  # atno 10763 bound_to 10752
  154.2369  135.6364  153.5198 H   0  0  0  0  0  0  0  0  0  0  0  0  # atno 10764 bound_to 10752
  153.0020  135.5550  154.6163 H   0  0  0  0  0  0  0  0  0  0  0  0  # atno 10765 bound_to 10752
  140.1585  134.4371  155.8333 H   0  0  0  0  0  0  0  0  0  0  0  0  # atno 11005 bound_to 11000
  144.8186  140.6512  143.6367 LP  0  0  0  0  0  0  0  0  0  0  0  0  # atno 17320 bound_to 7965
  145.4299  139.1551  143.4028 LP  0  0  0  0  0  0  0  0  0  0  0  0  # atno 17321 bound_to 7965
  139.5901  144.1517  152.2078 LP  0  0  0  0  0  0  0  0  0  0  0  0  # atno 17342 bound_to 10162
  140.0869  144.5654  150.7082 LP  0  0  0  0  0  0  0  0  0  0  0  0  # atno 17343 bound_to 10162
  156.3902  130.3896  149.7036 LP  0  0  0  0  0  0  0  0  0  0  0  0  # atno 17370 bound_to 10713
  156.4388  130.7851  151.2872 LP  0  0  0  0  0  0  0  0  0  0  0  0  # atno 17371 bound_to 10713
  141.2207  133.6903  156.7552 LP  0  0  0  0  0  0  0  0  0  0  0  0  # atno 17394 bound_to 11000
  140.2518  134.8535  157.3674 LP  0  0  0  0  0  0  0  0  0  0  0  0  # atno 17395 bound_to 11000

$$$$
