AV-unprocessed.smi:295|AV-procd|sdf|2257|dock8
  -GOLD-   2262022143D 1   1.00000     0.00000
 Structure written by MMmdl.
 35 36  0  0  0  0  0  0  0  0  1 V2000
  153.1964  142.3654  161.2912 C   0  0  0  0  0  0  0  0  0  0  0  0
  152.2052  142.9619  160.2749 C   0  0  1  0  0  0  0  0  0  0  0  0
  152.4010  144.4865  160.1520 C   0  0  0  0  0  0  0  0  0  0  0  0
  151.4142  145.1104  159.1531 C   0  0  0  0  0  0  0  0  0  0  0  0
  151.5305  144.4450  157.7748 C   0  0  0  0  0  0  0  0  0  0  0  0
  151.3242  142.9269  157.8784 C   0  0  0  0  0  0  0  0  0  0  0  0
  152.3038  142.2877  158.8838 C   0  0  2  0  0  0  0  0  0  0  0  0
  152.0283  140.8586  158.9982 N   0  0  0  0  0  0  0  0  0  0  0  0
  152.0537  139.9711  157.9912 C   0  0  0  0  0  0  0  0  0  0  0  0
  152.2590  140.2813  156.8183 O   0  0  0  0  0  0  0  0  0  0  0  0
  151.8038  138.5064  158.3610 C   0  0  0  0  0  0  0  0  0  0  0  0
  152.8457  137.9850  159.2293 N   0  0  0  0  0  0  0  0  0  0  0  0
  153.8158  138.6180  159.8973 C   0  0  0  0  0  0  0  0  0  0  0  0
  154.6136  137.8104  160.5845 N   0  0  0  0  0  0  0  0  0  0  0  0
  154.0284  136.6181  160.2710 C   0  0  0  0  0  0  0  0  0  0  0  0
  154.5417  135.3612  160.7886 C   0  0  0  0  0  0  0  0  0  0  0  0
  154.9505  134.3601  161.2009 N   0  0  0  0  0  0  0  0  0  0  0  0
  152.9679  136.6560  159.4670 N   0  0  0  0  0  0  0  0  0  0  0  0
  154.2260  142.4735  160.9488 H   0  0  0  0  0  0  0  0  0  0  0  0
  153.0125  141.3042  161.4612 H   0  0  0  0  0  0  0  0  0  0  0  0
  153.1140  142.8646  162.2568 H   0  0  0  0  0  0  0  0  0  0  0  0
  151.1995  142.7915  160.6632 H   0  0  0  0  0  0  0  0  0  0  0  0
  152.2762  144.9586  161.1271 H   0  0  0  0  0  0  0  0  0  0  0  0
  153.4224  144.7019  159.8346 H   0  0  0  0  0  0  0  0  0  0  0  0
  150.3956  145.0017  159.5277 H   0  0  0  0  0  0  0  0  0  0  0  0
  151.5995  146.1814  159.0667 H   0  0  0  0  0  0  0  0  0  0  0  0
  150.7983  144.8740  157.0902 H   0  0  0  0  0  0  0  0  0  0  0  0
  152.5126  144.6529  157.3482 H   0  0  0  0  0  0  0  0  0  0  0  0
  150.2969  142.7229  158.1836 H   0  0  0  0  0  0  0  0  0  0  0  0
  151.4487  142.4743  156.8940 H   0  0  0  0  0  0  0  0  0  0  0  0
  153.3214  142.4297  158.5137 H   0  0  0  0  0  0  0  0  0  0  0  0
  151.8435  140.5098  159.9272 H   0  0  0  0  0  0  0  0  0  0  0  0
  150.8421  138.4183  158.8680 H   0  0  0  0  0  0  0  0  0  0  0  0
  151.7522  137.8925  157.4605 H   0  0  0  0  0  0  0  0  0  0  0  0
  153.9446  139.6901  159.8735 H   0  0  0  0  0  0  0  0  0  0  0  0
  1  2  1  0  0  0  0
  1 19  1  0  0  0  0
  1 20  1  0  0  0  0
  1 21  1  0  0  0  0
  2  7  1  0  0  0  0
  2  3  1  0  0  0  0
  2 22  1  0  0  0  0
  3  4  1  0  0  0  0
  3 23  1  0  0  0  0
  3 24  1  0  0  0  0
  4  5  1  0  0  0  0
  4 25  1  0  0  0  0
  4 26  1  0  0  0  0
  5  6  1  0  0  0  0
  5 27  1  0  0  0  0
  5 28  1  0  0  0  0
  6  7  1  0  0  0  0
  6 29  1  0  0  0  0
  6 30  1  0  0  0  0
  7  8  1  0  0  0  0
  7 31  1  0  0  0  0
  8  9  1  0  0  0  0
  8 32  1  0  0  0  0
  9 10  2  0  0  0  0
  9 11  1  0  0  0  0
 11 12  1  0  0  0  0
 11 33  1  0  0  0  0
 11 34  1  0  0  0  0
 12 18  1  0  0  0  0
 12 13  1  0  0  0  0
 13 14  2  0  0  0  0
 13 35  1  0  0  0  0
 14 15  1  0  0  0  0
 15 16  1  0  0  0  0
 15 18  2  0  0  0  0
 16 17  3  0  0  0  0
M  END
> <s_m_source_file>
AV-unprocessed.smi

> <i_m_source_file_index>
295

> <i_lp_mmshare_version>
43012

> <i_f3d_flags>
0

> <s_epik_input>
W0NIM11bQ0BASF0xW0NIMl1bQ0gyXVtDSDJdW0NIMl1bQ0BIXTFbTkhdQyg9TylbQ0gyXW4yW2NIXW5jKG4yKUMjTg==

> <s_epik_cmdline>
J2VwaWtfcHl0aG9uJywgJy1waCcsICc3LjAnLCAnLXRuJywgJzgnLCAnLW1hJywgJzIwMCcsICctbWV0YWxfYmluZGluZycsICctaW1hZScsICc8aW5maWxlLm1hZT4nLCAnLW9tYWUnLCAnPG91dGZpbGUubWFlPic=

> <r_lp_tautomer_probability>
1

> <r_epik_Ionization_Penalty>
5.31112e-08

> <r_epik_Ionization_Penalty_Charging>
0

> <r_epik_Ionization_Penalty_Neutral>
5.31112e-08

> <r_epik_State_Penalty>
-0

> <r_epik_Charging_Adjusted_Penalty>
0

> <i_epik_Tot_Q>
0

> <i_epik_Tot_abs_Q>
0

> <r_epik_Metal_State_Penalty>
-0

> <b_epik_Metal_Only>
0

> <s_lp_Force_Field>
OPLS_2005

> <r_lp_Energy>
13.6203

> <b_lp_Chiralities_Consistent>
1

> <s_lp_Variant>
AV-unprocessed.smi:295-4

> <Gold.Version>
5.8.1

> <Gold.Id.Protein>
6NUR|6NUR_protein|mol2

> <Gold.PLP.Fitness>
43.5719

> <Gold.PLP.PLP>
-37.8793

> <Gold.PLP.part.hbond>
-1.9761

> <Gold.PLP.part.metal>
0.0000

> <Gold.PLP.part.buried>
-5.4058

> <Gold.PLP.part.nonpolar>
-30.1808

> <Gold.PLP.part.repulsive>
0.1423

> <Gold.PLP.ligand.clash>
0.0000

> <Gold.PLP.ligand.torsion>
0.1566

> <Gold.PLP.Chemscore.Hbond>
2.0000

> <Gold.PLP.Chemscore.CHOScore>
0.0000

> <Gold.PLP.Chemscore.Metal>
0.0000

> <Gold.Chemscore.Hbonds>
donor molecule, donor type, donor heavy atom, donor atom, acceptor molecule, acceptor atom, score
      P1  H  6896  6908       L1    18  1.00
      P1  H  7997  8008       L1    10  0.67

> <Gold.PLP.Chemscore.Internal.Correction>
0.0057

> <Gold.Rescore>
     Score         DG    S(hbond)    S(metal)    S(lipo)     H(rot)  DE(clash)    DE(int)     intcor
     16.88     -17.21       1.99        0.00      85.99       1.95       0.03       0.30       ----

> <Gold.Chemscore.Fitness>
16.8802

> <Gold.Chemscore.DG>
-17.2069

> <Gold.Chemscore.ZeroCoef>
-5.4800

> <Gold.Chemscore.Hbond>
1.9914

> <Gold.Chemscore.Metal>
0.0000

> <Gold.Chemscore.Lipo>
85.9900

> <Gold.Chemscore.Internal_Hbond>
0.0000

> <Gold.Chemscore.DEClash>
0.0317

> <Gold.Chemscore.DEInternal>
0.2950

> <Gold.Chemscore.Rot>
1.9474

> <Gold.Chemscore.Internal.Correction>
   9.000000E+99

> <Gold.Chemscore.Hbonds>
donor molecule, donor type, donor heavy atom, donor atom, acceptor molecule, acceptor atom, score
      P1  H  6896  6908       L1    18  0.29
      P1  H  7997  8008       L1    10  0.22

> <Gold.Chemscore.Hbond.Weighted>
-6.6513

> <Gold.Chemscore.Metal.Weighted>
-0.0000

> <Gold.Chemscore.Lipo.Weighted>
-10.0608

> <Gold.Chemscore.Internal_Hbond.Weighted>
0.0000

> <Gold.Chemscore.DEClash.Weighted>
0.0317

> <Gold.Chemscore.DEInternal.Weighted>
0.2950

> <Gold.Chemscore.Rot.Weighted>
4.9852

> <Gold.Chemscore.Internal.Correction.Weighted>
   9.000000E+99

> <Gold.Protein.RotatedTorsions>
[ 6907 6896 6895 6894 ] final  -93.05 input  -60.11 | X-H torsion
[ 7974 7965 7964 7962 ] final  -74.57 input  175.53 | X-H torsion
[ 8008 7997 7996 7995 ] final  -64.18 input   59.86 | X-H torsion
[ 10167 10162 10161 10158 ] final -108.21 input  -65.29 | X-H torsion
[ 10718 10713 10712 10709 ] final   55.63 input   66.30 | X-H torsion
[ 10763 10752 10751 10750 ] final  -19.46 input  -60.55 | X-H torsion
[ 11005 11000 10999 10996 ] final -128.46 input  -57.11 | X-H torsion

> <Gold.Protein.ActiveResidues>
 VAL166  LYS551  ARG553  GLY616  TRP617  ASP618  TYR619  PRO620  LYS621  CYS622 
 ASP623  PHE694  ASN695  SER759  ASP760  ASP761  ALA762  ILE779  LEU786  VAL792 
 PHE793  MET794  SER795  GLU796  ALA797  LYS798  CYS799  TRP800  GLU811  SER814 

> <Gold.Protein.RotatedAtoms>
  150.6916  134.2027  159.4328 H   0  0  0  0  0  0  0  0  0  0  0  0  # atno 6907 bound_to 6896
  151.9992  134.9935  160.0574 H   0  0  0  0  0  0  0  0  0  0  0  0  # atno 6908 bound_to 6896
  152.1594  133.4537  159.4890 H   0  0  0  0  0  0  0  0  0  0  0  0  # atno 6909 bound_to 6896
  145.6374  140.9320  143.1054 H   0  0  0  0  0  0  0  0  0  0  0  0  # atno 7974 bound_to 7965
  154.4596  140.0959  156.6857 H   0  0  0  0  0  0  0  0  0  0  0  0  # atno 8008 bound_to 7997
  155.5032  140.3474  155.4356 H   0  0  0  0  0  0  0  0  0  0  0  0  # atno 8009 bound_to 7997
  156.0846  140.1381  156.9658 H   0  0  0  0  0  0  0  0  0  0  0  0  # atno 8010 bound_to 7997
  140.1686  143.4061  152.1371 H   0  0  0  0  0  0  0  0  0  0  0  0  # atno 10167 bound_to 10162
  157.5362  130.8665  149.8756 H   0  0  0  0  0  0  0  0  0  0  0  0  # atno 10718 bound_to 10713
  153.6051  135.6998  153.5369 H   0  0  0  0  0  0  0  0  0  0  0  0  # atno 10763 bound_to 10752
  153.3064  135.4114  155.1297 H   0  0  0  0  0  0  0  0  0  0  0  0  # atno 10764 bound_to 10752
  154.8575  135.3661  154.5588 H   0  0  0  0  0  0  0  0  0  0  0  0  # atno 10765 bound_to 10752
  140.9514  134.1060  157.4058 H   0  0  0  0  0  0  0  0  0  0  0  0  # atno 11005 bound_to 11000
  144.7170  139.8162  143.7395 LP  0  0  0  0  0  0  0  0  0  0  0  0  # atno 17320 bound_to 7965
  146.1308  139.4343  143.0170 LP  0  0  0  0  0  0  0  0  0  0  0  0  # atno 17321 bound_to 7965
  139.5348  144.7198  151.4931 LP  0  0  0  0  0  0  0  0  0  0  0  0  # atno 17342 bound_to 10162
  140.6596  143.8526  150.6873 LP  0  0  0  0  0  0  0  0  0  0  0  0  # atno 17343 bound_to 10162
  156.0460  130.3728  150.1316 LP  0  0  0  0  0  0  0  0  0  0  0  0  # atno 17370 bound_to 10713
  156.9499  130.9771  151.3500 LP  0  0  0  0  0  0  0  0  0  0  0  0  # atno 17371 bound_to 10713
  139.8848  135.0067  156.6396 LP  0  0  0  0  0  0  0  0  0  0  0  0  # atno 17394 bound_to 11000
  140.7597  133.8827  155.8409 LP  0  0  0  0  0  0  0  0  0  0  0  0  # atno 17395 bound_to 11000

$$$$
