AV-unprocessed.smi:224|AV-procd|sdf|1721|dock4
  -GOLD-   2262020203D 1   1.00000     0.00000
 Structure written by MMmdl.
 56 59  0  0  0  0  0  0  0  0  2 V2000
  145.0625  131.5263  151.1585 C   0  0  0  0  0  0  0  0  0  0  0  0
  143.6091  132.0178  151.1483 C   0  0  2  0  0  0  0  0  0  0  0  0
  143.0996  131.8315  149.8428 O   0  0  0  0  0  0  0  0  0  0  0  0
  143.5063  133.5087  151.5305 C   0  0  0  0  0  0  0  0  0  0  0  0
  143.8627  133.7604  152.9566 N   0  3  1  0  0  0  0  0  0  0  0  0
  145.3417  133.7729  153.1445 C   0  0  0  0  0  0  0  0  0  0  0  0
  145.7408  133.9821  154.6143 C   0  0  0  0  0  0  0  0  0  0  0  0
  145.0952  135.1665  155.1683 N   0  0  0  0  0  0  0  0  0  0  0  0
  145.7081  136.3767  155.0686 C   0  0  0  0  0  0  0  0  0  0  0  0
  145.1974  137.3264  154.2400 N   0  0  0  0  0  0  0  0  0  0  0  0
  145.7820  138.5233  154.1375 C   0  0  0  0  0  0  0  0  0  0  0  0
  146.8728  138.9735  154.7588 N   0  0  0  0  0  0  0  0  0  0  0  0
  147.4027  138.0230  155.5802 C   0  0  0  0  0  0  0  0  0  0  0  0
  146.8875  136.7126  155.7946 C   0  0  0  0  0  0  0  0  0  0  0  0
  147.6992  136.0304  156.6935 N   0  0  0  0  0  0  0  0  0  0  0  0
  148.6316  136.8902  157.0008 C   0  0  0  0  0  0  0  0  0  0  0  0
  148.5367  138.1098  156.3694 N   0  0  0  0  0  0  0  0  0  0  0  0
  149.4379  139.2425  156.5235 C   0  0  0  0  0  0  0  0  0  0  0  0
  150.6286  139.2299  155.5342 C   0  0  2  0  0  0  0  0  0  0  0  0
  150.2375  139.8823  154.3395 O   0  0  0  0  0  0  0  0  0  0  0  0
  151.0925  137.8110  155.1959 C   0  0  0  0  0  0  0  0  0  0  0  0
  152.4370  137.6940  155.9038 C   0  0  0  0  0  0  0  0  0  0  0  0
  152.9611  139.0047  155.7912 O   0  0  0  0  0  0  0  0  0  0  0  0
  151.9015  139.9029  156.0866 C   0  0  0  0  0  0  0  0  0  0  0  0
  143.6441  135.1526  155.0328 C   0  0  0  0  0  0  0  0  0  0  0  0
  143.2017  134.9613  153.5634 C   0  0  2  0  0  0  0  0  0  0  0  0
  141.6609  134.8797  153.5385 C   0  0  0  0  0  0  0  0  0  0  0  0
  145.5059  131.6363  152.1484 H   0  0  0  0  0  0  0  0  0  0  0  0
  145.6789  132.0865  150.4541 H   0  0  0  0  0  0  0  0  0  0  0  0
  145.1231  130.4715  150.8881 H   0  0  0  0  0  0  0  0  0  0  0  0
  143.0348  131.3949  151.8331 H   0  0  0  0  0  0  0  0  0  0  0  0
  142.2586  131.4048  149.8974 H   0  0  0  0  0  0  0  0  0  0  0  0
  144.1558  134.1085  150.8909 H   0  0  0  0  0  0  0  0  0  0  0  0
  142.4969  133.8352  151.2941 H   0  0  0  0  0  0  0  0  0  0  0  0
  145.7803  132.8395  152.7950 H   0  0  0  0  0  0  0  0  0  0  0  0
  145.7716  134.5643  152.5292 H   0  0  0  0  0  0  0  0  0  0  0  0
  145.4305  133.1193  155.2047 H   0  0  0  0  0  0  0  0  0  0  0  0
  146.8252  134.0424  154.7160 H   0  0  0  0  0  0  0  0  0  0  0  0
  145.3090  139.2199  153.4610 H   0  0  0  0  0  0  0  0  0  0  0  0
  149.4245  136.6544  157.6960 H   0  0  0  0  0  0  0  0  0  0  0  0
  148.8608  140.1598  156.3997 H   0  0  0  0  0  0  0  0  0  0  0  0
  149.8014  139.2493  157.5517 H   0  0  0  0  0  0  0  0  0  0  0  0
  149.3169  140.0880  154.3997 H   0  0  0  0  0  0  0  0  0  0  0  0
  150.3912  137.0372  155.5098 H   0  0  0  0  0  0  0  0  0  0  0  0
  151.2472  137.6941  154.1220 H   0  0  0  0  0  0  0  0  0  0  0  0
  152.3061  137.4370  156.9563 H   0  0  0  0  0  0  0  0  0  0  0  0
  153.0936  136.9547  155.4444 H   0  0  0  0  0  0  0  0  0  0  0  0
  152.0896  140.8937  155.6710 H   0  0  0  0  0  0  0  0  0  0  0  0
  151.8540  140.0054  157.1708 H   0  0  0  0  0  0  0  0  0  0  0  0
  143.2599  134.3348  155.6440 H   0  0  0  0  0  0  0  0  0  0  0  0
  143.1960  136.0605  155.4335 H   0  0  0  0  0  0  0  0  0  0  0  0
  143.5126  135.8399  152.9954 H   0  0  0  0  0  0  0  0  0  0  0  0
  141.2229  135.6779  154.1386 H   0  0  0  0  0  0  0  0  0  0  0  0
  141.3061  133.9330  153.9474 H   0  0  0  0  0  0  0  0  0  0  0  0
  141.2439  134.9968  152.5397 H   0  0  0  0  0  0  0  0  0  0  0  0
  143.5113  132.9713  153.4792 H   0  0  0  0  0  0  0  0  0  0  0  0
  1  2  1  0  0  0  0
  1 28  1  0  0  0  0
  1 29  1  0  0  0  0
  1 30  1  0  0  0  0
  2  3  1  0  0  0  0
  2  4  1  0  0  0  0
  2 31  1  0  0  0  0
  3 32  1  0  0  0  0
  4  5  1  0  0  0  0
  4 33  1  0  0  0  0
  4 34  1  0  0  0  0
  5 26  1  0  0  0  0
  5  6  1  0  0  0  0
  5 56  1  0  0  0  0
  6  7  1  0  0  0  0
  6 35  1  0  0  0  0
  6 36  1  0  0  0  0
  7  8  1  0  0  0  0
  7 37  1  0  0  0  0
  7 38  1  0  0  0  0
  8  9  1  0  0  0  0
  8 25  1  0  0  0  0
  9 14  1  0  0  0  0
  9 10  2  0  0  0  0
 10 11  1  0  0  0  0
 11 12  2  0  0  0  0
 11 39  1  0  0  0  0
 12 13  1  0  0  0  0
 13 17  1  0  0  0  0
 13 14  2  0  0  0  0
 14 15  1  0  0  0  0
 15 16  2  0  0  0  0
 16 17  1  0  0  0  0
 16 40  1  0  0  0  0
 17 18  1  0  0  0  0
 18 19  1  0  0  0  0
 18 41  1  0  0  0  0
 18 42  1  0  0  0  0
 19 24  1  0  0  0  0
 19 20  1  0  0  0  0
 19 21  1  0  0  0  0
 20 43  1  0  0  0  0
 21 22  1  0  0  0  0
 21 44  1  0  0  0  0
 21 45  1  0  0  0  0
 22 23  1  0  0  0  0
 22 46  1  0  0  0  0
 22 47  1  0  0  0  0
 23 24  1  0  0  0  0
 24 48  1  0  0  0  0
 24 49  1  0  0  0  0
 25 26  1  0  0  0  0
 25 50  1  0  0  0  0
 25 51  1  0  0  0  0
 26 27  1  0  0  0  0
 26 52  1  0  0  0  0
 27 53  1  0  0  0  0
 27 54  1  0  0  0  0
 27 55  1  0  0  0  0
M  CHG  1   5   1
M  END
> <s_m_source_file>
AV-unprocessed.smi

> <i_m_source_file_index>
224

> <i_lp_mmshare_version>
43012

> <i_f3d_flags>
0

> <s_epik_input>
W0NIM11bQ0BIXShbT0hdKVtDSDJdTjFbQ0gyXVtDSDJdTihbQ0gyXVtDQEhdMVtDSDNdKWMobltjSF1uMiljKGMyMyluW2NIXW4zW0NIMl1bQ0BAXTQoW09IXSlbQ0gyXVtDSDJdT1tDSDJdNA==

> <s_epik_cmdline>
J2VwaWtfcHl0aG9uJywgJy1waCcsICc3LjAnLCAnLXRuJywgJzgnLCAnLW1hJywgJzIwMCcsICctbWV0YWxfYmluZGluZycsICctaW1hZScsICc8aW5maWxlLm1hZT4nLCAnLW9tYWUnLCAnPG91dGZpbGUubWFlPic=

> <r_lp_tautomer_probability>
1

> <r_epik_Ionization_Penalty>
0.00516958

> <r_epik_Ionization_Penalty_Charging>
0.00509693

> <r_epik_Ionization_Penalty_Neutral>
7.26542e-05

> <r_epik_State_Penalty>
-0

> <r_epik_Charging_Adjusted_Penalty>
0.00509693

> <i_epik_Tot_Q>
1

> <i_epik_Tot_abs_Q>
1

> <r_epik_Metal_State_Penalty>
-0

> <b_epik_Metal_Only>
0

> <s_lp_Force_Field>
OPLS_2005

> <r_lp_Energy>
50.3432

> <b_lp_Chiralities_Consistent>
1

> <s_lp_Variant>
AV-unprocessed.smi:224-15

> <Gold.Version>
5.8.1

> <Gold.Id.Protein>
6NUR|6NUR_protein|mol2

> <Gold.PLP.Fitness>
47.0805

> <Gold.PLP.PLP>
-32.2538

> <Gold.PLP.part.hbond>
-5.9471

> <Gold.PLP.part.metal>
0.0000

> <Gold.PLP.part.buried>
-6.3407

> <Gold.PLP.part.nonpolar>
-22.4708

> <Gold.PLP.part.repulsive>
0.2599

> <Gold.PLP.ligand.clash>
0.0000

> <Gold.PLP.ligand.torsion>
1.6200

> <Gold.PLP.Chemscore.Hbond>
4.7805

> <Gold.PLP.Chemscore.CHOScore>
1.0000

> <Gold.PLP.Chemscore.Metal>
0.0000

> <Gold.Chemscore.Hbonds>
donor molecule, donor type, donor heavy atom, donor atom, acceptor molecule, acceptor atom, score
      L1  H     3    32       P1 10952  1.00
      L1  H     5    56       P1 10957  2.00
      P1  H  7989  7998       L1    20  1.00
      P1  H  7997  8008       L1    23  0.90
      L1  C    11    39       P1 10175  1.00

> <Gold.PLP.Chemscore.Internal.Correction>
0.7252

> <Gold.Rescore>
     Score         DG    S(hbond)    S(metal)    S(lipo)     H(rot)  DE(clash)    DE(int)     intcor
     13.91     -16.46       3.45        0.00      68.91       3.36       0.09       2.46       ----

> <Gold.Chemscore.Fitness>
13.9109

> <Gold.Chemscore.DG>
-16.4641

> <Gold.Chemscore.ZeroCoef>
-5.4800

> <Gold.Chemscore.Hbond>
3.4509

> <Gold.Chemscore.Metal>
0.0000

> <Gold.Chemscore.Lipo>
68.9107

> <Gold.Chemscore.Internal_Hbond>
0.0000

> <Gold.Chemscore.DEClash>
0.0916

> <Gold.Chemscore.DEInternal>
2.4617

> <Gold.Chemscore.Rot>
3.3611

> <Gold.Chemscore.Internal.Correction>
   9.000000E+99

> <Gold.Chemscore.Hbonds>
donor molecule, donor type, donor heavy atom, donor atom, acceptor molecule, acceptor atom, score
      L1  H     3    32       P1 10952  0.96
      L1  H     5    56       P1 10957  0.84
      P1  H  7989  7998       L1    20  0.90
      P1  H  7997  8008       L1    23  0.18

> <Gold.Chemscore.Hbond.Weighted>
-11.5260

> <Gold.Chemscore.Metal.Weighted>
-0.0000

> <Gold.Chemscore.Lipo.Weighted>
-8.0625

> <Gold.Chemscore.Internal_Hbond.Weighted>
0.0000

> <Gold.Chemscore.DEClash.Weighted>
0.0916

> <Gold.Chemscore.DEInternal.Weighted>
2.4617

> <Gold.Chemscore.Rot.Weighted>
8.6045

> <Gold.Chemscore.Internal.Correction.Weighted>
   9.000000E+99

> <Gold.Protein.RotatedTorsions>
[ 6907 6896 6895 6894 ] final   61.62 input  -60.11 | X-H torsion
[ 7974 7965 7964 7962 ] final   35.22 input  175.53 | X-H torsion
[ 8008 7997 7996 7995 ] final  -33.82 input   59.86 | X-H torsion
[ 10167 10162 10161 10158 ] final  117.56 input  -65.29 | X-H torsion
[ 10718 10713 10712 10709 ] final -118.88 input   66.30 | X-H torsion
[ 10763 10752 10751 10750 ] final  -55.72 input  -60.55 | X-H torsion
[ 11005 11000 10999 10996 ] final   73.58 input  -57.11 | X-H torsion

> <Gold.Protein.ActiveResidues>
 VAL166  LYS551  ARG553  GLY616  TRP617  ASP618  TYR619  PRO620  LYS621  CYS622 
 ASP623  PHE694  ASN695  SER759  ASP760  ASP761  ALA762  ILE779  LEU786  VAL792 
 PHE793  MET794  SER795  GLU796  ALA797  LYS798  CYS799  TRP800  GLU811  SER814 

> <Gold.Protein.RotatedAtoms>
  152.4104  134.6135  160.0031 H   0  0  0  0  0  0  0  0  0  0  0  0  # atno 6907 bound_to 6896
  151.6314  133.3326  159.3117 H   0  0  0  0  0  0  0  0  0  0  0  0  # atno 6908 bound_to 6896
  150.7995  134.7119  159.6653 H   0  0  0  0  0  0  0  0  0  0  0  0  # atno 6909 bound_to 6896
  146.1298  139.6169  142.9234 H   0  0  0  0  0  0  0  0  0  0  0  0  # atno 7974 bound_to 7965
  154.4138  140.1700  156.1950 H   0  0  0  0  0  0  0  0  0  0  0  0  # atno 8008 bound_to 7997
  155.9571  140.3396  155.6435 H   0  0  0  0  0  0  0  0  0  0  0  0  # atno 8009 bound_to 7997
  155.6795  140.0721  157.2480 H   0  0  0  0  0  0  0  0  0  0  0  0  # atno 8010 bound_to 7997
  139.6170  144.7094  151.2716 H   0  0  0  0  0  0  0  0  0  0  0  0  # atno 10167 bound_to 10162
  156.1139  130.6270  150.9346 H   0  0  0  0  0  0  0  0  0  0  0  0  # atno 10718 bound_to 10713
  154.1952  135.6420  153.5071 H   0  0  0  0  0  0  0  0  0  0  0  0  # atno 10763 bound_to 10752
  153.0025  135.5438  154.6373 H   0  0  0  0  0  0  0  0  0  0  0  0  # atno 10764 bound_to 10752
  154.5772  135.2922  155.0742 H   0  0  0  0  0  0  0  0  0  0  0  0  # atno 10765 bound_to 10752
  139.9433  134.7359  156.1043 H   0  0  0  0  0  0  0  0  0  0  0  0  # atno 11005 bound_to 11000
  145.5286  141.0428  143.2396 LP  0  0  0  0  0  0  0  0  0  0  0  0  # atno 17320 bound_to 7965
  144.7679  139.6803  143.7207 LP  0  0  0  0  0  0  0  0  0  0  0  0  # atno 17321 bound_to 7965
  140.7358  143.6727  150.8068 LP  0  0  0  0  0  0  0  0  0  0  0  0  # atno 17342 bound_to 10162
  140.0332  143.5422  152.2751 LP  0  0  0  0  0  0  0  0  0  0  0  0  # atno 17343 bound_to 10162
  157.6322  131.0920  150.8420 LP  0  0  0  0  0  0  0  0  0  0  0  0  # atno 17370 bound_to 10713
  156.8526  130.5085  149.5310 LP  0  0  0  0  0  0  0  0  0  0  0  0  # atno 17371 bound_to 10713
  141.1075  133.6655  156.2899 LP  0  0  0  0  0  0  0  0  0  0  0  0  # atno 17394 bound_to 11000
  140.5897  134.5663  157.5497 LP  0  0  0  0  0  0  0  0  0  0  0  0  # atno 17395 bound_to 11000

$$$$
