AV-unprocessed.smi:1047|AV-procd|sdf|4581|dock2
  -GOLD-   22720 3 43D 1   1.00000     0.00000
 Structure written by MMmdl.
 58 60  0  0  0  0  0  0  0  0  4 V2000
  151.0009  129.7492  155.0059 C   0  0  0  0  0  0  0  0  0  0  0  0
  150.9527  131.2547  155.3014 C   0  0  0  0  0  0  0  0  0  0  0  0
  149.5717  131.7348  155.5745 N   0  3  2  0  0  0  0  0  0  0  0  0
  148.6560  131.5955  154.4163 C   0  0  0  0  0  0  0  0  0  0  0  0
  148.8917  132.7122  153.3841 C   0  0  0  0  0  0  0  0  0  0  0  0
  148.7394  133.9787  154.0147 O   0  0  0  0  0  0  0  0  0  0  0  0
  149.6886  134.1900  155.0555 C   0  0  1  0  0  0  0  0  0  0  0  0
  149.4711  135.6035  155.6181 C   0  0  0  0  0  0  0  0  0  0  0  0
  149.6122  136.6306  154.5659 N   0  3  0  0  0  0  0  0  0  0  0  0
  150.8714  137.3991  154.6387 C   0  0  0  0  0  0  0  0  0  0  0  0
  150.6090  138.8693  155.0166 C   0  0  2  0  0  0  0  0  0  0  0  0
  150.4557  139.6245  153.8321 O   0  0  0  0  0  0  0  0  0  0  0  0
  151.7380  139.5216  155.8401 C   0  0  0  0  0  0  0  0  0  0  0  0
  151.3541  140.8130  156.4277 N   0  0  0  0  0  0  0  0  0  0  0  0
  150.5505  141.7884  155.9220 C   0  0  0  0  0  0  0  0  0  0  0  0
  150.5079  142.7999  156.8323 N   0  3  0  0  0  0  0  0  0  0  0  0
  151.2999  142.4697  157.9336 C   0  0  0  0  0  0  0  0  0  0  0  0
  151.5696  143.1716  159.1022 C   0  0  0  0  0  0  0  0  0  0  0  0
  152.4258  142.5554  160.0421 C   0  0  0  0  0  0  0  0  0  0  0  0
  152.7424  143.2969  161.3299 C   0  0  0  0  0  0  0  0  0  0  0  0
  152.9820  141.2741  159.7924 C   0  0  0  0  0  0  0  0  0  0  0  0
  153.9013  140.6205  160.8103 C   0  0  0  0  0  0  0  0  0  0  0  0
  152.6968  140.5769  158.5965 C   0  0  0  0  0  0  0  0  0  0  0  0
  151.8497  141.1975  157.6804 C   0  0  0  0  0  0  0  0  0  0  0  0
  149.4868  133.1066  156.1396 C   0  0  0  0  0  0  0  0  0  0  0  0
  152.0094  129.4478  154.7222 H   0  0  0  0  0  0  0  0  0  0  0  0
  150.3358  129.4879  154.1821 H   0  0  0  0  0  0  0  0  0  0  0  0
  150.7176  129.1503  155.8708 H   0  0  0  0  0  0  0  0  0  0  0  0
  151.6237  131.5034  156.1232 H   0  0  0  0  0  0  0  0  0  0  0  0
  151.3416  131.7732  154.4241 H   0  0  0  0  0  0  0  0  0  0  0  0
  148.7598  130.6119  153.9563 H   0  0  0  0  0  0  0  0  0  0  0  0
  147.6297  131.6542  154.7814 H   0  0  0  0  0  0  0  0  0  0  0  0
  149.8800  132.6309  152.9291 H   0  0  0  0  0  0  0  0  0  0  0  0
  148.1645  132.6326  152.5761 H   0  0  0  0  0  0  0  0  0  0  0  0
  150.6987  134.1274  154.6477 H   0  0  0  0  0  0  0  0  0  0  0  0
  148.4849  135.6814  156.0780 H   0  0  0  0  0  0  0  0  0  0  0  0
  150.2063  135.8050  156.3986 H   0  0  0  0  0  0  0  0  0  0  0  0
  149.5704  136.1807  153.6621 H   0  0  0  0  0  0  0  0  0  0  0  0
  151.5071  136.9256  155.3872 H   0  0  0  0  0  0  0  0  0  0  0  0
  151.3980  137.3387  153.6850 H   0  0  0  0  0  0  0  0  0  0  0  0
  149.6771  138.9353  155.5803 H   0  0  0  0  0  0  0  0  0  0  0  0
  149.6645  139.3487  153.3938 H   0  0  0  0  0  0  0  0  0  0  0  0
  152.0909  138.8557  156.6275 H   0  0  0  0  0  0  0  0  0  0  0  0
  152.5998  139.7126  155.1986 H   0  0  0  0  0  0  0  0  0  0  0  0
  150.0406  141.7664  154.9693 H   0  0  0  0  0  0  0  0  0  0  0  0
  151.1439  144.1478  159.2849 H   0  0  0  0  0  0  0  0  0  0  0  0
  153.8106  143.5051  161.3976 H   0  0  0  0  0  0  0  0  0  0  0  0
  152.4486  142.7051  162.1975 H   0  0  0  0  0  0  0  0  0  0  0  0
  152.2133  144.2492  161.3825 H   0  0  0  0  0  0  0  0  0  0  0  0
  154.2563  139.6496  160.4635 H   0  0  0  0  0  0  0  0  0  0  0  0
  153.3785  140.4652  161.7543 H   0  0  0  0  0  0  0  0  0  0  0  0
  154.7742  141.2465  160.9963 H   0  0  0  0  0  0  0  0  0  0  0  0
  153.1232  139.6025  158.4113 H   0  0  0  0  0  0  0  0  0  0  0  0
  148.4972  133.2227  156.5841 H   0  0  0  0  0  0  0  0  0  0  0  0
  150.1982  133.2380  156.9539 H   0  0  0  0  0  0  0  0  0  0  0  0
  148.8382  137.2757  154.6385 H   0  0  0  0  0  0  0  0  0  0  0  0
  149.2146  131.1085  156.2826 H   0  0  0  0  0  0  0  0  0  0  0  0
  149.9804  143.6546  156.7061 H   0  0  0  0  0  0  0  0  0  0  0  0
  1  2  1  0  0  0  0
  1 26  1  0  0  0  0
  1 27  1  0  0  0  0
  1 28  1  0  0  0  0
  2  3  1  0  0  0  0
  2 29  1  0  0  0  0
  2 30  1  0  0  0  0
  3 25  1  0  0  0  0
  3  4  1  0  0  0  0
  3 57  1  0  0  0  0
  4  5  1  0  0  0  0
  4 31  1  0  0  0  0
  4 32  1  0  0  0  0
  5  6  1  0  0  0  0
  5 33  1  0  0  0  0
  5 34  1  0  0  0  0
  6  7  1  0  0  0  0
  7  8  1  0  0  0  0
  7 25  1  0  0  0  0
  7 35  1  0  0  0  0
  8  9  1  0  0  0  0
  8 36  1  0  0  0  0
  8 37  1  0  0  0  0
  9 10  1  0  0  0  0
  9 38  1  0  0  0  0
  9 56  1  0  0  0  0
 10 11  1  0  0  0  0
 10 39  1  0  0  0  0
 10 40  1  0  0  0  0
 11 12  1  0  0  0  0
 11 13  1  0  0  0  0
 11 41  1  0  0  0  0
 12 42  1  0  0  0  0
 13 14  1  0  0  0  0
 13 43  1  0  0  0  0
 13 44  1  0  0  0  0
 14 24  1  0  0  0  0
 14 15  1  0  0  0  0
 15 16  2  0  0  0  0
 15 45  1  0  0  0  0
 16 17  1  0  0  0  0
 16 58  1  0  0  0  0
 17 24  2  0  0  0  0
 17 18  1  0  0  0  0
 18 19  2  0  0  0  0
 18 46  1  0  0  0  0
 19 20  1  0  0  0  0
 19 21  1  0  0  0  0
 20 47  1  0  0  0  0
 20 48  1  0  0  0  0
 20 49  1  0  0  0  0
 21 22  1  0  0  0  0
 21 23  2  0  0  0  0
 22 50  1  0  0  0  0
 22 51  1  0  0  0  0
 22 52  1  0  0  0  0
 23 24  1  0  0  0  0
 23 53  1  0  0  0  0
 25 54  1  0  0  0  0
 25 55  1  0  0  0  0
M  CHG  1   3   1
M  CHG  1   9   1
M  CHG  1  16   1
M  END
> <s_m_source_file>
AV-unprocessed.smi

> <i_m_source_file_index>
1047

> <i_lp_mmshare_version>
43012

> <i_f3d_flags>
0

> <s_epik_input>
W0NIM11bQ0gyXU4xW0NIMl1bQ0gyXU9bQ0BIXShbQ0gyXTEpW0NIMl1bTkhdW0NIMl1bQ0BIXShbT0hdKVtDSDJdbihbY0hdbjIpYyhjMjMpW2NIXWMoW0NIM10pYyhbY0hdMylbQ0gzXQ==

> <s_epik_cmdline>
J2VwaWtfcHl0aG9uJywgJy1waCcsICc3LjAnLCAnLXRuJywgJzgnLCAnLW1hJywgJzIwMCcsICctbWV0YWxfYmluZGluZycsICctaW1hZScsICc8aW5maWxlLm1hZT4nLCAnLW9tYWUnLCAnPG91dGZpbGUubWFlPic=

> <r_epik_Ionization_Penalty>
1.6114

> <r_epik_Ionization_Penalty_Charging>
1.61139

> <r_epik_Ionization_Penalty_Neutral>
5.04732e-06

> <r_epik_State_Penalty>
1.63724

> <r_epik_Charging_Adjusted_Penalty>
3.24864

> <i_epik_Tot_Q>
3

> <i_epik_Tot_abs_Q>
3

> <r_epik_Metal_State_Penalty>
5.64594

> <b_epik_Metal_Only>
0

> <s_lp_Force_Field>
OPLS_2005

> <r_lp_Energy>
44.3097

> <b_lp_Chiralities_Consistent>
1

> <s_lp_Variant>
AV-unprocessed.smi:1047-22

> <Gold.Version>
5.8.1

> <Gold.Id.Protein>
6NUR|6NUR_protein|mol2

> <Gold.PLP.Fitness>
64.4844

> <Gold.PLP.PLP>
-52.2713

> <Gold.PLP.part.hbond>
-4.0000

> <Gold.PLP.part.metal>
0.0000

> <Gold.PLP.part.buried>
-6.8094

> <Gold.PLP.part.nonpolar>
-41.5938

> <Gold.PLP.part.repulsive>
0.5153

> <Gold.PLP.ligand.clash>
0.0000

> <Gold.PLP.ligand.torsion>
1.5527

> <Gold.PLP.Chemscore.Hbond>
5.0080

> <Gold.PLP.Chemscore.CHOScore>
0.0000

> <Gold.PLP.Chemscore.Metal>
0.0000

> <Gold.Chemscore.Hbonds>
donor molecule, donor type, donor heavy atom, donor atom, acceptor molecule, acceptor atom, score
      L1  H     9    38       P1  7948  1.95
      L1  H    12    42       P1  7957  0.06
      L1  H    16    58       P1  8028  2.00
      P1  H  7989  7998       L1    12  1.00

> <Gold.PLP.Chemscore.Internal.Correction>
0.2942

> <Gold.Rescore>
     Score         DG    S(hbond)    S(metal)    S(lipo)     H(rot)  DE(clash)    DE(int)     intcor
     19.37     -22.15       2.63        0.00     128.21       2.78       0.14       2.64       ----

> <Gold.Chemscore.Fitness>
19.3653

> <Gold.Chemscore.DG>
-22.1455

> <Gold.Chemscore.ZeroCoef>
-5.4800

> <Gold.Chemscore.Hbond>
2.6330

> <Gold.Chemscore.Metal>
0.0000

> <Gold.Chemscore.Lipo>
128.2078

> <Gold.Chemscore.Internal_Hbond>
0.0000

> <Gold.Chemscore.DEClash>
0.1388

> <Gold.Chemscore.DEInternal>
2.6414

> <Gold.Chemscore.Rot>
2.7848

> <Gold.Chemscore.Internal.Correction>
   9.000000E+99

> <Gold.Chemscore.Hbonds>
donor molecule, donor type, donor heavy atom, donor atom, acceptor molecule, acceptor atom, score
      L1  H     9    38       P1  7948  0.47
      L1  H    12    42       P1  7957  0.06
      L1  H    16    58       P1  8028  0.95
      P1  H  7989  7998       L1    12  0.92

> <Gold.Chemscore.Hbond.Weighted>
-8.7943

> <Gold.Chemscore.Metal.Weighted>
-0.0000

> <Gold.Chemscore.Lipo.Weighted>
-15.0003

> <Gold.Chemscore.Internal_Hbond.Weighted>
0.0000

> <Gold.Chemscore.DEClash.Weighted>
0.1388

> <Gold.Chemscore.DEInternal.Weighted>
2.6414

> <Gold.Chemscore.Rot.Weighted>
7.1291

> <Gold.Chemscore.Internal.Correction.Weighted>
   9.000000E+99

> <Gold.Protein.RotatedTorsions>
[ 6907 6896 6895 6894 ] final   11.53 input  -60.11 | X-H torsion
[ 7974 7965 7964 7962 ] final -115.54 input  175.53 | X-H torsion
[ 8008 7997 7996 7995 ] final -120.12 input   59.86 | X-H torsion
[ 10167 10162 10161 10158 ] final  -25.69 input  -65.29 | X-H torsion
[ 10718 10713 10712 10709 ] final   50.68 input   66.30 | X-H torsion
[ 10763 10752 10751 10750 ] final -179.98 input  -60.55 | X-H torsion
[ 11005 11000 10999 10996 ] final   39.12 input  -57.11 | X-H torsion

> <Gold.Protein.ActiveResidues>
 VAL166  LYS551  ARG553  GLY616  TRP617  ASP618  TYR619  PRO620  LYS621  CYS622 
 ASP623  PHE694  ASN695  SER759  ASP760  ASP761  ALA762  ILE779  LEU786  VAL792 
 PHE793  MET794  SER795  GLU796  ALA797  LYS798  CYS799  TRP800  GLU811  SER814 

> <Gold.Protein.RotatedAtoms>
  151.7559  135.0822  160.0337 H   0  0  0  0  0  0  0  0  0  0  0  0  # atno 6907 bound_to 6896
  152.3386  133.6036  159.5868 H   0  0  0  0  0  0  0  0  0  0  0  0  # atno 6908 bound_to 6896
  150.7465  133.9674  159.3576 H   0  0  0  0  0  0  0  0  0  0  0  0  # atno 6909 bound_to 6896
  145.1072  140.8589  143.3891 H   0  0  0  0  0  0  0  0  0  0  0  0  # atno 7974 bound_to 7965
  155.1266  140.0399  157.2764 H   0  0  0  0  0  0  0  0  0  0  0  0  # atno 8008 bound_to 7997
  154.6574  140.2583  155.7121 H   0  0  0  0  0  0  0  0  0  0  0  0  # atno 8009 bound_to 7997
  156.2604  140.2824  156.1032 H   0  0  0  0  0  0  0  0  0  0  0  0  # atno 8010 bound_to 7997
  140.7285  143.4242  151.0902 H   0  0  0  0  0  0  0  0  0  0  0  0  # atno 10167 bound_to 10162
  157.4908  130.8375  149.8201 H   0  0  0  0  0  0  0  0  0  0  0  0  # atno 10718 bound_to 10713
  154.5281  135.2798  155.1204 H   0  0  0  0  0  0  0  0  0  0  0  0  # atno 10763 bound_to 10752
  154.2734  135.6299  153.5323 H   0  0  0  0  0  0  0  0  0  0  0  0  # atno 10764 bound_to 10752
  152.9951  135.5634  154.5788 H   0  0  0  0  0  0  0  0  0  0  0  0  # atno 10765 bound_to 10752
  140.2059  134.3814  155.8073 H   0  0  0  0  0  0  0  0  0  0  0  0  # atno 11005 bound_to 11000
  145.0888  139.2905  143.5745 LP  0  0  0  0  0  0  0  0  0  0  0  0  # atno 17320 bound_to 7965
  146.3528  140.0419  142.8642 LP  0  0  0  0  0  0  0  0  0  0  0  0  # atno 17321 bound_to 7965
  139.7892  143.8243  152.3149 LP  0  0  0  0  0  0  0  0  0  0  0  0  # atno 17342 bound_to 10162
  139.8221  144.7291  150.9559 LP  0  0  0  0  0  0  0  0  0  0  0  0  # atno 17343 bound_to 10162
  156.0172  130.3809  150.2072 LP  0  0  0  0  0  0  0  0  0  0  0  0  # atno 17370 bound_to 10713
  157.0261  130.9993  151.3326 LP  0  0  0  0  0  0  0  0  0  0  0  0  # atno 17371 bound_to 10713
  141.2227  133.7118  156.8336 LP  0  0  0  0  0  0  0  0  0  0  0  0  # atno 17394 bound_to 11000
  140.2003  134.8901  157.3162 LP  0  0  0  0  0  0  0  0  0  0  0  0  # atno 17395 bound_to 11000

$$$$
