AV-unprocessed.smi:3133|AV-procd|sdf|11939|dock10
  -GOLD-   2272017333D 1   1.00000     0.00000
 Structure written by MMmdl.
 32 33  0  0  0  0  0  0  0  0  1 V2000
  151.1219  137.5189  154.5949 C   0  0  0  0  0  0  0  0  0  0  0  0
  151.3323  139.0298  154.8233 C   0  0  2  0  0  0  0  0  0  0  0  0
  152.1154  139.3410  156.1105 C   0  0  0  0  0  0  0  0  0  0  0  0
  153.2096  138.8174  156.3249 O   0  0  0  0  0  0  0  0  0  0  0  0
  151.5433  140.2134  156.9562 N   0  0  0  0  0  0  0  0  0  0  0  0
  152.1258  140.6800  158.2089 C   0  0  0  0  0  0  0  0  0  0  0  0
  151.4031  141.9347  158.7243 C   0  0  1  0  0  0  0  0  0  0  0  0
  152.1526  142.6615  159.8387 C   0  0  0  0  0  0  0  0  0  0  0  0
  151.5709  144.0528  159.7352 C   0  0  0  0  0  0  0  0  0  0  0  0
  151.4285  144.2216  158.2247 C   0  0  0  0  0  0  0  0  0  0  0  0
  151.2649  142.9089  157.6929 O   0  0  0  0  0  0  0  0  0  0  0  0
  150.0735  139.7656  154.7951 N   0  0  0  0  0  0  0  0  0  0  0  0
  148.8355  139.3378  154.5374 C   0  0  0  0  0  0  0  0  0  0  0  0
  147.9188  140.2949  154.5591 N   0  0  0  0  0  0  0  0  0  0  0  0
  148.7155  141.3667  154.8475 C   0  0  0  0  0  0  0  0  0  0  0  0
  150.0152  141.1070  154.9890 N   0  0  0  0  0  0  0  0  0  0  0  0
  152.0751  136.9909  154.5499 H   0  0  0  0  0  0  0  0  0  0  0  0
  150.6050  137.3377  153.6523 H   0  0  0  0  0  0  0  0  0  0  0  0
  150.5289  137.0640  155.3894 H   0  0  0  0  0  0  0  0  0  0  0  0
  151.9356  139.3984  153.9921 H   0  0  0  0  0  0  0  0  0  0  0  0
  150.6444  140.5971  156.7035 H   0  0  0  0  0  0  0  0  0  0  0  0
  152.0248  139.8756  158.9380 H   0  0  0  0  0  0  0  0  0  0  0  0
  153.1960  140.8656  158.1030 H   0  0  0  0  0  0  0  0  0  0  0  0
  150.4041  141.6762  159.0798 H   0  0  0  0  0  0  0  0  0  0  0  0
  152.0045  142.2067  160.8185 H   0  0  0  0  0  0  0  0  0  0  0  0
  153.2234  142.6885  159.6308 H   0  0  0  0  0  0  0  0  0  0  0  0
  150.5899  144.0835  160.2116 H   0  0  0  0  0  0  0  0  0  0  0  0
  152.1984  144.8178  160.1931 H   0  0  0  0  0  0  0  0  0  0  0  0
  150.5894  144.8651  157.9584 H   0  0  0  0  0  0  0  0  0  0  0  0
  152.3351  144.6546  157.8004 H   0  0  0  0  0  0  0  0  0  0  0  0
  148.6004  138.3047  154.3266 H   0  0  0  0  0  0  0  0  0  0  0  0
  148.3263  142.3689  154.9507 H   0  0  0  0  0  0  0  0  0  0  0  0
  1  2  1  0  0  0  0
  1 17  1  0  0  0  0
  1 18  1  0  0  0  0
  1 19  1  0  0  0  0
  2  3  1  0  0  0  0
  2 12  1  0  0  0  0
  2 20  1  0  0  0  0
  3  4  2  0  0  0  0
  3  5  1  0  0  0  0
  5  6  1  0  0  0  0
  5 21  1  0  0  0  0
  6  7  1  0  0  0  0
  6 22  1  0  0  0  0
  6 23  1  0  0  0  0
  7 11  1  0  0  0  0
  7  8  1  0  0  0  0
  7 24  1  0  0  0  0
  8  9  1  0  0  0  0
  8 25  1  0  0  0  0
  8 26  1  0  0  0  0
  9 10  1  0  0  0  0
  9 27  1  0  0  0  0
  9 28  1  0  0  0  0
 10 11  1  0  0  0  0
 10 29  1  0  0  0  0
 10 30  1  0  0  0  0
 12 16  1  0  0  0  0
 12 13  1  0  0  0  0
 13 14  2  0  0  0  0
 13 31  1  0  0  0  0
 14 15  1  0  0  0  0
 15 16  2  0  0  0  0
 15 32  1  0  0  0  0
M  END
> <s_m_source_file>
AV-unprocessed.smi

> <i_m_source_file_index>
3133

> <i_lp_mmshare_version>
43012

> <i_f3d_flags>
0

> <s_epik_input>
bjFbY0hdbltjSF1uMVtDQEhdKFtDSDNdKUMoPU8pW05IXVtDSDJdW0NAQEhdMltDSDJdW0NIMl1bQ0gyXU8y

> <s_epik_cmdline>
J2VwaWtfcHl0aG9uJywgJy1waCcsICc3LjAnLCAnLXRuJywgJzgnLCAnLW1hJywgJzIwMCcsICctbWV0YWxfYmluZGluZycsICctaW1hZScsICc8aW5maWxlLm1hZT4nLCAnLW9tYWUnLCAnPG91dGZpbGUubWFlPic=

> <r_lp_tautomer_probability>
1

> <r_epik_Ionization_Penalty>
1.2027e-05

> <r_epik_Ionization_Penalty_Charging>
0

> <r_epik_Ionization_Penalty_Neutral>
1.2027e-05

> <r_epik_State_Penalty>
-0

> <r_epik_Charging_Adjusted_Penalty>
0

> <i_epik_Tot_Q>
0

> <i_epik_Tot_abs_Q>
0

> <r_epik_Metal_State_Penalty>
-0

> <b_epik_Metal_Only>
0

> <s_lp_Force_Field>
OPLS_2005

> <r_lp_Energy>
23.186

> <b_lp_Chiralities_Consistent>
1

> <s_lp_Variant>
AV-unprocessed.smi:3133-3

> <Gold.Version>
5.8.1

> <Gold.Id.Protein>
6NUR|6NUR_protein|mol2

> <Gold.PLP.Fitness>
40.4423

> <Gold.PLP.PLP>
-34.9685

> <Gold.PLP.part.hbond>
-2.0000

> <Gold.PLP.part.metal>
0.0000

> <Gold.PLP.part.buried>
-2.4181

> <Gold.PLP.part.nonpolar>
-30.2321

> <Gold.PLP.part.repulsive>
0.4495

> <Gold.PLP.ligand.clash>
0.0000

> <Gold.PLP.ligand.torsion>
0.3165

> <Gold.PLP.Chemscore.Hbond>
1.0000

> <Gold.PLP.Chemscore.CHOScore>
0.9988

> <Gold.PLP.Chemscore.Metal>
0.0000

> <Gold.Chemscore.Hbonds>
donor molecule, donor type, donor heavy atom, donor atom, acceptor molecule, acceptor atom, score
      P1  H  7997  8010       L1     4  1.00
      L1  C    15    32       P1  8028  1.00

> <Gold.PLP.Chemscore.Internal.Correction>
0.1103

> <Gold.Rescore>
     Score         DG    S(hbond)    S(metal)    S(lipo)     H(rot)  DE(clash)    DE(int)     intcor
      9.30     -10.89       0.98        0.00      67.58       2.26       0.02       1.57       ----

> <Gold.Chemscore.Fitness>
9.3003

> <Gold.Chemscore.DG>
-10.8863

> <Gold.Chemscore.ZeroCoef>
-5.4800

> <Gold.Chemscore.Hbond>
0.9804

> <Gold.Chemscore.Metal>
0.0000

> <Gold.Chemscore.Lipo>
67.5779

> <Gold.Chemscore.Internal_Hbond>
0.0000

> <Gold.Chemscore.DEClash>
0.0193

> <Gold.Chemscore.DEInternal>
1.5668

> <Gold.Chemscore.Rot>
2.2558

> <Gold.Chemscore.Internal.Correction>
   9.000000E+99

> <Gold.Chemscore.Hbonds>
donor molecule, donor type, donor heavy atom, donor atom, acceptor molecule, acceptor atom, score
      P1  H  7997  8010       L1     4  0.64

> <Gold.Chemscore.Hbond.Weighted>
-3.2744

> <Gold.Chemscore.Metal.Weighted>
-0.0000

> <Gold.Chemscore.Lipo.Weighted>
-7.9066

> <Gold.Chemscore.Internal_Hbond.Weighted>
0.0000

> <Gold.Chemscore.DEClash.Weighted>
0.0193

> <Gold.Chemscore.DEInternal.Weighted>
1.5668

> <Gold.Chemscore.Rot.Weighted>
5.7747

> <Gold.Chemscore.Internal.Correction.Weighted>
   9.000000E+99

> <Gold.Protein.RotatedTorsions>
[ 6907 6896 6895 6894 ] final   39.59 input  -60.11 | X-H torsion
[ 7974 7965 7964 7962 ] final -164.60 input  175.53 | X-H torsion
[ 8008 7997 7996 7995 ] final   67.79 input   59.86 | X-H torsion
[ 10167 10162 10161 10158 ] final   55.57 input  -65.29 | X-H torsion
[ 10718 10713 10712 10709 ] final   88.93 input   66.30 | X-H torsion
[ 10763 10752 10751 10750 ] final -163.55 input  -60.55 | X-H torsion
[ 11005 11000 10999 10996 ] final  -58.68 input  -57.11 | X-H torsion

> <Gold.Protein.ActiveResidues>
 VAL166  LYS551  ARG553  GLY616  TRP617  ASP618  TYR619  PRO620  LYS621  CYS622 
 ASP623  PHE694  ASN695  SER759  ASP760  ASP761  ALA762  ILE779  LEU786  VAL792 
 PHE793  MET794  SER795  GLU796  ALA797  LYS798  CYS799  TRP800  GLU811  SER814 

> <Gold.Protein.RotatedAtoms>
  152.1715  134.8830  160.0533 H   0  0  0  0  0  0  0  0  0  0  0  0  # atno 6907 bound_to 6896
  151.9789  133.3746  159.4108 H   0  0  0  0  0  0  0  0  0  0  0  0  # atno 6908 bound_to 6896
  150.6902  134.3983  159.5151 H   0  0  0  0  0  0  0  0  0  0  0  0  # atno 6909 bound_to 6896
  144.7292  140.2937  143.6216 H   0  0  0  0  0  0  0  0  0  0  0  0  # atno 7974 bound_to 7965
  155.6983  140.3495  155.4922 H   0  0  0  0  0  0  0  0  0  0  0  0  # atno 8008 bound_to 7997
  155.9463  140.1111  157.1036 H   0  0  0  0  0  0  0  0  0  0  0  0  # atno 8009 bound_to 7997
  154.4113  140.1203  156.4980 H   0  0  0  0  0  0  0  0  0  0  0  0  # atno 8010 bound_to 7997
  140.2180  144.3818  150.6462 H   0  0  0  0  0  0  0  0  0  0  0  0  # atno 10167 bound_to 10162
  157.6952  131.0313  150.3349 H   0  0  0  0  0  0  0  0  0  0  0  0  # atno 10718 bound_to 10713
  154.7112  135.3006  154.9194 H   0  0  0  0  0  0  0  0  0  0  0  0  # atno 10763 bound_to 10752
  154.0095  135.6696  153.4768 H   0  0  0  0  0  0  0  0  0  0  0  0  # atno 10764 bound_to 10752
  153.0756  135.5036  154.8311 H   0  0  0  0  0  0  0  0  0  0  0  0  # atno 10765 bound_to 10752
  141.1217  133.6613  156.4957 H   0  0  0  0  0  0  0  0  0  0  0  0  # atno 11005 bound_to 11000
  145.7829  139.1898  143.2147 LP  0  0  0  0  0  0  0  0  0  0  0  0  # atno 17320 bound_to 7965
  146.0819  140.7754  142.9637 LP  0  0  0  0  0  0  0  0  0  0  0  0  # atno 17321 bound_to 7965
  140.6275  143.2183  151.6565 LP  0  0  0  0  0  0  0  0  0  0  0  0  # atno 17342 bound_to 10162
  139.5154  144.3378  152.0768 LP  0  0  0  0  0  0  0  0  0  0  0  0  # atno 17343 bound_to 10162
  156.3817  130.3882  149.7096 LP  0  0  0  0  0  0  0  0  0  0  0  0  # atno 17370 bound_to 10713
  156.4476  130.7891  151.2912 LP  0  0  0  0  0  0  0  0  0  0  0  0  # atno 17371 bound_to 10713
  140.4487  134.6949  157.5028 LP  0  0  0  0  0  0  0  0  0  0  0  0  # atno 17394 bound_to 11000
  140.0180  134.6590  155.9281 LP  0  0  0  0  0  0  0  0  0  0  0  0  # atno 17395 bound_to 11000

$$$$
