AV-unprocessed.smi:1390|AV-procd|sdf|5656|dock4
  -GOLD-   22720 5283D 1   1.00000     0.00000
 Structure written by MMmdl.
 44 45  0  0  0  0  0  0  0  0  1 V2000
  151.9690  144.8814  159.1145 C   0  0  0  0  0  0  0  0  0  0  0  0
  152.2191  143.4194  158.7306 C   0  0  2  0  0  0  0  0  0  0  0  0
  151.1853  142.9025  157.7115 C   0  0  0  0  0  0  0  0  0  0  0  0
  151.4112  141.4879  157.4456 N   0  0  0  0  0  0  0  0  0  0  0  0
  150.5862  140.9692  156.4388 C   0  0  0  0  0  0  0  0  0  0  0  0
  150.9165  139.7800  155.7485 C   0  0  0  0  0  0  0  0  0  0  0  0
  150.0468  139.3194  154.7418 C   0  0  0  0  0  0  0  0  0  0  0  0
  148.8817  140.0580  154.4524 C   0  0  0  0  0  0  0  0  0  0  0  0
  147.9228  139.5778  153.3739 C   0  0  0  0  0  0  0  0  0  0  0  0
  147.5268  138.1837  153.5311 N   0  0  0  0  0  0  0  0  0  0  0  0
  146.5891  137.7393  154.3809 C   0  0  0  0  0  0  0  0  0  0  0  0
  145.9774  138.4710  155.1587 O   0  0  0  0  0  0  0  0  0  0  0  0
  146.3071  136.2372  154.3635 C   0  0  0  0  0  0  0  0  0  0  0  0
  146.0258  135.8295  153.0331 O   0  0  0  0  0  0  0  0  0  0  0  0
  145.3482  134.5848  152.9702 C   0  0  0  0  0  0  0  0  0  0  0  0
  145.3530  134.0740  151.5243 C   0  0  0  0  0  0  0  0  0  0  0  0
  144.9897  135.0626  150.7080 F   0  0  0  0  0  0  0  0  0  0  0  0
  146.5743  133.6642  151.1833 F   0  0  0  0  0  0  0  0  0  0  0  0
  144.4888  133.0681  151.3891 F   0  0  0  0  0  0  0  0  0  0  0  0
  148.6372  141.2274  155.2077 C   0  0  0  0  0  0  0  0  0  0  0  0
  149.4663  141.6761  156.1737 N   0  0  0  0  0  0  0  0  0  0  0  0
  151.4205  140.6824  158.6595 C   0  0  0  0  0  0  0  0  0  0  0  0
  152.4388  141.2528  159.6609 C   0  0  0  0  0  0  0  0  0  0  0  0
  152.1440  142.6242  159.9121 O   0  0  0  0  0  0  0  0  0  0  0  0
  152.0352  145.5324  158.2423 H   0  0  0  0  0  0  0  0  0  0  0  0
  152.7057  145.2243  159.8413 H   0  0  0  0  0  0  0  0  0  0  0  0
  150.9801  145.0104  159.5551 H   0  0  0  0  0  0  0  0  0  0  0  0
  153.2227  143.3378  158.3092 H   0  0  0  0  0  0  0  0  0  0  0  0
  150.1759  143.0491  158.0988 H   0  0  0  0  0  0  0  0  0  0  0  0
  151.2595  143.4669  156.7808 H   0  0  0  0  0  0  0  0  0  0  0  0
  151.8168  139.2303  155.9812 H   0  0  0  0  0  0  0  0  0  0  0  0
  150.2754  138.4136  154.1995 H   0  0  0  0  0  0  0  0  0  0  0  0
  147.0250  140.1974  153.3819 H   0  0  0  0  0  0  0  0  0  0  0  0
  148.4051  139.7251  152.4061 H   0  0  0  0  0  0  0  0  0  0  0  0
  147.9824  137.5076  152.9348 H   0  0  0  0  0  0  0  0  0  0  0  0
  147.1790  135.7078  154.7503 H   0  0  0  0  0  0  0  0  0  0  0  0
  145.4612  136.0138  155.0158 H   0  0  0  0  0  0  0  0  0  0  0  0
  145.8386  133.8593  153.6214 H   0  0  0  0  0  0  0  0  0  0  0  0
  144.3217  134.7000  153.3224 H   0  0  0  0  0  0  0  0  0  0  0  0
  147.7529  141.8244  155.0402 H   0  0  0  0  0  0  0  0  0  0  0  0
  150.4265  140.6760  159.1085 H   0  0  0  0  0  0  0  0  0  0  0  0
  151.6722  139.6496  158.4152 H   0  0  0  0  0  0  0  0  0  0  0  0
  152.3923  140.7009  160.5998 H   0  0  0  0  0  0  0  0  0  0  0  0
  153.4570  141.1523  159.2818 H   0  0  0  0  0  0  0  0  0  0  0  0
  1  2  1  0  0  0  0
  1 25  1  0  0  0  0
  1 26  1  0  0  0  0
  1 27  1  0  0  0  0
  2 24  1  0  0  0  0
  2  3  1  0  0  0  0
  2 28  1  0  0  0  0
  3  4  1  0  0  0  0
  3 29  1  0  0  0  0
  3 30  1  0  0  0  0
  4  5  1  0  0  0  0
  4 22  1  0  0  0  0
  5 21  1  0  0  0  0
  5  6  2  0  0  0  0
  6  7  1  0  0  0  0
  6 31  1  0  0  0  0
  7  8  2  0  0  0  0
  7 32  1  0  0  0  0
  8  9  1  0  0  0  0
  8 20  1  0  0  0  0
  9 10  1  0  0  0  0
  9 33  1  0  0  0  0
  9 34  1  0  0  0  0
 10 11  1  0  0  0  0
 10 35  1  0  0  0  0
 11 12  2  0  0  0  0
 11 13  1  0  0  0  0
 13 14  1  0  0  0  0
 13 36  1  0  0  0  0
 13 37  1  0  0  0  0
 14 15  1  0  0  0  0
 15 16  1  0  0  0  0
 15 38  1  0  0  0  0
 15 39  1  0  0  0  0
 16 17  1  0  0  0  0
 16 18  1  0  0  0  0
 16 19  1  0  0  0  0
 20 21  2  0  0  0  0
 20 40  1  0  0  0  0
 22 23  1  0  0  0  0
 22 41  1  0  0  0  0
 22 42  1  0  0  0  0
 23 24  1  0  0  0  0
 23 43  1  0  0  0  0
 23 44  1  0  0  0  0
M  END
> <s_m_source_file>
AV-unprocessed.smi

> <i_m_source_file_index>
1390

> <i_lp_mmshare_version>
43012

> <i_f3d_flags>
0

> <s_epik_input>
W0NIM11bQ0BASF0xW0NIMl1OKFtDSDJdW0NIMl1PMSljMltjSF1bY0hdYyhbY0hdbjIpW0NIMl1bTkhdQyg9TylbQ0gyXU9bQ0gyXUMoRikoRilG

> <s_epik_cmdline>
J2VwaWtfcHl0aG9uJywgJy1waCcsICc3LjAnLCAnLXRuJywgJzgnLCAnLW1hJywgJzIwMCcsICctbWV0YWxfYmluZGluZycsICctaW1hZScsICc8aW5maWxlLm1hZT4nLCAnLW9tYWUnLCAnPG91dGZpbGUubWFlPic=

> <r_lp_tautomer_probability>
1

> <r_epik_Ionization_Penalty>
0.00481831

> <r_epik_Ionization_Penalty_Charging>
0

> <r_epik_Ionization_Penalty_Neutral>
0.00481831

> <r_epik_State_Penalty>
0.00349373

> <r_epik_Charging_Adjusted_Penalty>
0.00349373

> <i_epik_Tot_Q>
0

> <i_epik_Tot_abs_Q>
0

> <r_epik_Metal_State_Penalty>
-0

> <b_epik_Metal_Only>
0

> <s_lp_Force_Field>
OPLS_2005

> <r_lp_Energy>
18.3567

> <b_lp_Chiralities_Consistent>
1

> <s_lp_Variant>
AV-unprocessed.smi:1390-1

> <Gold.Version>
5.8.1

> <Gold.Id.Protein>
6NUR|6NUR_protein|mol2

> <Gold.PLP.Fitness>
43.1779

> <Gold.PLP.PLP>
-41.6566

> <Gold.PLP.part.hbond>
-1.0000

> <Gold.PLP.part.metal>
0.0000

> <Gold.PLP.part.buried>
-3.9459

> <Gold.PLP.part.nonpolar>
-37.7315

> <Gold.PLP.part.repulsive>
0.9532

> <Gold.PLP.ligand.clash>
0.0000

> <Gold.PLP.ligand.torsion>
0.8714

> <Gold.PLP.Chemscore.Hbond>
1.0000

> <Gold.PLP.Chemscore.CHOScore>
0.0000

> <Gold.PLP.Chemscore.Metal>
0.0000

> <Gold.Chemscore.Hbonds>
donor molecule, donor type, donor heavy atom, donor atom, acceptor molecule, acceptor atom, score
      L1  H    10    35       P1  7948  1.00

> <Gold.PLP.Chemscore.Internal.Correction>
0.2642

> <Gold.Rescore>
     Score         DG    S(hbond)    S(metal)    S(lipo)     H(rot)  DE(clash)    DE(int)     intcor
     12.06     -12.76       1.00        0.00      89.88       2.57       0.18       0.52       ----

> <Gold.Chemscore.Fitness>
12.0596

> <Gold.Chemscore.DG>
-12.7617

> <Gold.Chemscore.ZeroCoef>
-5.4800

> <Gold.Chemscore.Hbond>
0.9983

> <Gold.Chemscore.Metal>
0.0000

> <Gold.Chemscore.Lipo>
89.8774

> <Gold.Chemscore.Internal_Hbond>
0.0000

> <Gold.Chemscore.DEClash>
0.1808

> <Gold.Chemscore.DEInternal>
0.5213

> <Gold.Chemscore.Rot>
2.5657

> <Gold.Chemscore.Internal.Correction>
   9.000000E+99

> <Gold.Chemscore.Hbonds>
donor molecule, donor type, donor heavy atom, donor atom, acceptor molecule, acceptor atom, score
      L1  H    10    35       P1  7948  1.00

> <Gold.Chemscore.Hbond.Weighted>
-3.3342

> <Gold.Chemscore.Metal.Weighted>
-0.0000

> <Gold.Chemscore.Lipo.Weighted>
-10.5157

> <Gold.Chemscore.Internal_Hbond.Weighted>
0.0000

> <Gold.Chemscore.DEClash.Weighted>
0.1808

> <Gold.Chemscore.DEInternal.Weighted>
0.5213

> <Gold.Chemscore.Rot.Weighted>
6.5682

> <Gold.Chemscore.Internal.Correction.Weighted>
   9.000000E+99

> <Gold.Protein.RotatedTorsions>
[ 6907 6896 6895 6894 ] final   13.85 input  -60.11 | X-H torsion
[ 7974 7965 7964 7962 ] final  -99.15 input  175.53 | X-H torsion
[ 8008 7997 7996 7995 ] final   87.54 input   59.86 | X-H torsion
[ 10167 10162 10161 10158 ] final  -31.43 input  -65.29 | X-H torsion
[ 10718 10713 10712 10709 ] final -167.40 input   66.30 | X-H torsion
[ 10763 10752 10751 10750 ] final  -35.95 input  -60.55 | X-H torsion
[ 11005 11000 10999 10996 ] final  -24.39 input  -57.11 | X-H torsion

> <Gold.Protein.ActiveResidues>
 VAL166  LYS551  ARG553  GLY616  TRP617  ASP618  TYR619  PRO620  LYS621  CYS622 
 ASP623  PHE694  ASN695  SER759  ASP760  ASP761  ALA762  ILE779  LEU786  VAL792 
 PHE793  MET794  SER795  GLU796  ALA797  LYS798  CYS799  TRP800  GLU811  SER814 

> <Gold.Protein.RotatedAtoms>
  151.7928  135.0731  160.0389 H   0  0  0  0  0  0  0  0  0  0  0  0  # atno 6907 bound_to 6896
  152.3144  133.5782  159.5711 H   0  0  0  0  0  0  0  0  0  0  0  0  # atno 6908 bound_to 6896
  150.7336  134.0020  159.3683 H   0  0  0  0  0  0  0  0  0  0  0  0  # atno 6909 bound_to 6896
  145.3113  140.9401  143.2768 H   0  0  0  0  0  0  0  0  0  0  0  0  # atno 7974 bound_to 7965
  155.9767  140.3381  155.6625 H   0  0  0  0  0  0  0  0  0  0  0  0  # atno 8008 bound_to 7997
  155.6603  140.0715  157.2574 H   0  0  0  0  0  0  0  0  0  0  0  0  # atno 8009 bound_to 7997
  154.4180  140.1710  156.1757 H   0  0  0  0  0  0  0  0  0  0  0  0  # atno 8010 bound_to 7997
  140.7236  143.3771  151.1669 H   0  0  0  0  0  0  0  0  0  0  0  0  # atno 10167 bound_to 10162
  156.6818  130.9125  151.3058 H   0  0  0  0  0  0  0  0  0  0  0  0  # atno 10718 bound_to 10713
  153.8716  135.6830  153.4774 H   0  0  0  0  0  0  0  0  0  0  0  0  # atno 10763 bound_to 10752
  153.1284  135.4709  154.9307 H   0  0  0  0  0  0  0  0  0  0  0  0  # atno 10764 bound_to 10752
  154.7711  135.3239  154.8138 H   0  0  0  0  0  0  0  0  0  0  0  0  # atno 10765 bound_to 10752
  140.8840  133.7634  156.0338 H   0  0  0  0  0  0  0  0  0  0  0  0  # atno 11005 bound_to 11000
  144.9014  139.4645  143.6631 LP  0  0  0  0  0  0  0  0  0  0  0  0  # atno 17320 bound_to 7965
  146.3117  139.7770  142.9015 LP  0  0  0  0  0  0  0  0  0  0  0  0  # atno 17321 bound_to 7965
  139.7353  143.9008  152.3033 LP  0  0  0  0  0  0  0  0  0  0  0  0  # atno 17342 bound_to 10162
  139.8811  144.7017  150.8877 LP  0  0  0  0  0  0  0  0  0  0  0  0  # atno 17343 bound_to 10162
  157.7041  130.9365  150.0875 LP  0  0  0  0  0  0  0  0  0  0  0  0  # atno 17370 bound_to 10713
  156.1862  130.3652  149.8970 LP  0  0  0  0  0  0  0  0  0  0  0  0  # atno 17371 bound_to 10713
  140.8427  134.3048  157.5307 LP  0  0  0  0  0  0  0  0  0  0  0  0  # atno 17394 bound_to 11000
  139.8722  134.9425  156.3826 LP  0  0  0  0  0  0  0  0  0  0  0  0  # atno 17395 bound_to 11000

$$$$
