AV-unprocessed.smi:249|AV-procd|sdf|1914|dock5
  -GOLD-   2262021 13D 1   1.00000     0.00000
 Structure written by MMmdl.
 64 67  0  0  0  0  0  0  0  0  2 V2000
  144.3831  132.5374  149.9678 C   0  0  0  0  0  0  0  0  0  0  0  0
  144.1788  132.0278  151.4011 C   0  0  0  0  0  0  0  0  0  0  0  0
  143.9646  133.1336  152.3707 N   0  3  2  0  0  0  0  0  0  0  0  0
  142.9692  134.1413  151.9138 C   0  0  0  0  0  0  0  0  0  0  0  0
  142.6433  135.1422  153.0329 C   0  0  0  0  0  0  0  0  0  0  0  0
  143.9198  135.8437  153.5370 C   0  0  1  0  0  0  0  0  0  0  0  0
  143.6704  136.8721  154.5554 N   0  0  0  0  0  0  0  0  0  0  0  0
  142.6554  137.8769  154.2606 C   0  0  0  0  0  0  0  0  0  0  0  0
  144.7336  137.3459  155.2479 C   0  0  0  0  0  0  0  0  0  0  0  0
  144.6036  137.4592  156.5935 N   0  0  0  0  0  0  0  0  0  0  0  0
  145.6153  137.9313  157.3278 C   0  0  0  0  0  0  0  0  0  0  0  0
  146.8194  138.3407  156.9239 N   0  0  0  0  0  0  0  0  0  0  0  0
  146.9532  138.2323  155.5712 C   0  0  0  0  0  0  0  0  0  0  0  0
  145.9681  137.7502  154.6634 C   0  0  0  0  0  0  0  0  0  0  0  0
  146.4659  137.7808  153.3657 N   0  0  0  0  0  0  0  0  0  0  0  0
  147.6731  138.2585  153.4980 C   0  0  0  0  0  0  0  0  0  0  0  0
  148.0496  138.5507  154.7889 N   0  0  0  0  0  0  0  0  0  0  0  0
  149.3301  139.0889  155.2144 C   0  0  0  0  0  0  0  0  0  0  0  0
  149.2582  140.5805  155.6260 C   0  0  2  0  0  0  0  0  0  0  0  0
  148.8291  141.5016  154.4578 C   0  0  0  0  0  0  0  0  0  0  0  0
  149.5602  141.2194  153.2821 O   0  0  0  0  0  0  0  0  0  0  0  0
  150.5748  141.0540  156.2934 C   0  0  2  0  0  0  0  0  0  0  0  0
  151.1848  140.0660  157.2725 C   0  0  0  0  0  0  0  0  0  0  0  0
  152.1314  140.9509  158.0753 C   0  0  0  0  0  0  0  0  0  0  0  0
  151.5117  142.2308  158.1235 O   0  0  0  0  0  0  0  0  0  0  0  0
  150.4319  142.2841  157.1961 C   0  0  0  0  0  0  0  0  0  0  0  0
  144.9367  134.7714  153.9846 C   0  0  0  0  0  0  0  0  0  0  0  0
  145.2319  133.7493  152.8665 C   0  0  2  0  0  0  0  0  0  0  0  0
  146.1063  134.3451  151.7416 C   0  0  0  0  0  0  0  0  0  0  0  0
  144.4612  131.7010  149.2728 H   0  0  0  0  0  0  0  0  0  0  0  0
  145.2941  133.1264  149.8668 H   0  0  0  0  0  0  0  0  0  0  0  0
  143.5445  133.1555  149.6466 H   0  0  0  0  0  0  0  0  0  0  0  0
  143.3045  131.3753  151.3984 H   0  0  0  0  0  0  0  0  0  0  0  0
  145.0244  131.4129  151.7114 H   0  0  0  0  0  0  0  0  0  0  0  0
  143.3391  134.6645  151.0316 H   0  0  0  0  0  0  0  0  0  0  0  0
  142.0465  133.6468  151.6128 H   0  0  0  0  0  0  0  0  0  0  0  0
  141.9294  135.8816  152.6681 H   0  0  0  0  0  0  0  0  0  0  0  0
  142.1523  134.6067  153.8462 H   0  0  0  0  0  0  0  0  0  0  0  0
  144.3478  136.3778  152.6881 H   0  0  0  0  0  0  0  0  0  0  0  0
  142.5129  138.5506  155.1068 H   0  0  0  0  0  0  0  0  0  0  0  0
  141.6993  137.3939  154.0579 H   0  0  0  0  0  0  0  0  0  0  0  0
  142.9230  138.4741  153.3892 H   0  0  0  0  0  0  0  0  0  0  0  0
  145.4339  137.9911  158.3909 H   0  0  0  0  0  0  0  0  0  0  0  0
  148.3288  138.4088  152.6526 H   0  0  0  0  0  0  0  0  0  0  0  0
  149.6790  138.4779  156.0467 H   0  0  0  0  0  0  0  0  0  0  0  0
  150.0536  138.9510  154.4102 H   0  0  0  0  0  0  0  0  0  0  0  0
  148.4731  140.6600  156.3794 H   0  0  0  0  0  0  0  0  0  0  0  0
  147.7659  141.3946  154.2427 H   0  0  0  0  0  0  0  0  0  0  0  0
  148.9771  142.5498  154.7162 H   0  0  0  0  0  0  0  0  0  0  0  0
  149.0963  140.5610  152.7878 H   0  0  0  0  0  0  0  0  0  0  0  0
  151.3168  141.2735  155.5237 H   0  0  0  0  0  0  0  0  0  0  0  0
  150.4160  139.6514  157.9261 H   0  0  0  0  0  0  0  0  0  0  0  0
  151.7034  139.2392  156.7864 H   0  0  0  0  0  0  0  0  0  0  0  0
  152.3219  140.5606  159.0755 H   0  0  0  0  0  0  0  0  0  0  0  0
  153.0884  141.0482  157.5611 H   0  0  0  0  0  0  0  0  0  0  0  0
  150.4472  143.2180  156.6335 H   0  0  0  0  0  0  0  0  0  0  0  0
  149.4984  142.2449  157.7595 H   0  0  0  0  0  0  0  0  0  0  0  0
  145.8682  135.2345  154.3112 H   0  0  0  0  0  0  0  0  0  0  0  0
  144.5453  134.2358  154.8503 H   0  0  0  0  0  0  0  0  0  0  0  0
  145.8133  132.9484  153.3257 H   0  0  0  0  0  0  0  0  0  0  0  0
  147.0239  134.7678  152.1518 H   0  0  0  0  0  0  0  0  0  0  0  0
  145.5996  135.1405  151.1963 H   0  0  0  0  0  0  0  0  0  0  0  0
  146.4049  133.5873  151.0175 H   0  0  0  0  0  0  0  0  0  0  0  0
  143.5558  132.6973  153.1848 H   0  0  0  0  0  0  0  0  0  0  0  0
  1  2  1  0  0  0  0
  1 30  1  0  0  0  0
  1 31  1  0  0  0  0
  1 32  1  0  0  0  0
  2  3  1  0  0  0  0
  2 33  1  0  0  0  0
  2 34  1  0  0  0  0
  3 28  1  0  0  0  0
  3  4  1  0  0  0  0
  3 64  1  0  0  0  0
  4  5  1  0  0  0  0
  4 35  1  0  0  0  0
  4 36  1  0  0  0  0
  5  6  1  0  0  0  0
  5 37  1  0  0  0  0
  5 38  1  0  0  0  0
  6  7  1  0  0  0  0
  6 27  1  0  0  0  0
  6 39  1  0  0  0  0
  7  8  1  0  0  0  0
  7  9  1  0  0  0  0
  8 40  1  0  0  0  0
  8 41  1  0  0  0  0
  8 42  1  0  0  0  0
  9 14  1  0  0  0  0
  9 10  2  0  0  0  0
 10 11  1  0  0  0  0
 11 12  2  0  0  0  0
 11 43  1  0  0  0  0
 12 13  1  0  0  0  0
 13 17  1  0  0  0  0
 13 14  2  0  0  0  0
 14 15  1  0  0  0  0
 15 16  2  0  0  0  0
 16 17  1  0  0  0  0
 16 44  1  0  0  0  0
 17 18  1  0  0  0  0
 18 19  1  0  0  0  0
 18 45  1  0  0  0  0
 18 46  1  0  0  0  0
 19 20  1  0  0  0  0
 19 22  1  0  0  0  0
 19 47  1  0  0  0  0
 20 21  1  0  0  0  0
 20 48  1  0  0  0  0
 20 49  1  0  0  0  0
 21 50  1  0  0  0  0
 22 26  1  0  0  0  0
 22 23  1  0  0  0  0
 22 51  1  0  0  0  0
 23 24  1  0  0  0  0
 23 52  1  0  0  0  0
 23 53  1  0  0  0  0
 24 25  1  0  0  0  0
 24 54  1  0  0  0  0
 24 55  1  0  0  0  0
 25 26  1  0  0  0  0
 26 56  1  0  0  0  0
 26 57  1  0  0  0  0
 27 28  1  0  0  0  0
 27 58  1  0  0  0  0
 27 59  1  0  0  0  0
 28 29  1  0  0  0  0
 28 60  1  0  0  0  0
 29 61  1  0  0  0  0
 29 62  1  0  0  0  0
 29 63  1  0  0  0  0
M  CHG  1   3   1
M  END
> <s_m_source_file>
AV-unprocessed.smi

> <i_m_source_file_index>
249

> <i_lp_mmshare_version>
43012

> <i_f3d_flags>
0

> <s_epik_input>
W0NIM11bQ0gyXU4xW0NIMl1bQ0gyXVtDQEhdKFtDSDJdW0NASF0xW0NIM10pTihbQ0gzXSljKG5bY0hdbjIpYyhjMjMpbltjSF1uM1tDSDJdW0NASF0oW0NIMl1bT0hdKVtDQEBIXTRbQ0gyXVtDSDJdT1tDSDJdNA==

> <s_epik_cmdline>
J2VwaWtfcHl0aG9uJywgJy1waCcsICc3LjAnLCAnLXRuJywgJzgnLCAnLW1hJywgJzIwMCcsICctbWV0YWxfYmluZGluZycsICctaW1hZScsICc8aW5maWxlLm1hZT4nLCAnLW9tYWUnLCAnPG91dGZpbGUubWFlPic=

> <r_lp_tautomer_probability>
1

> <r_epik_Ionization_Penalty>
0.00294688

> <r_epik_Ionization_Penalty_Charging>
0.00169971

> <r_epik_Ionization_Penalty_Neutral>
0.00124717

> <r_epik_State_Penalty>
-0

> <r_epik_Charging_Adjusted_Penalty>
0.00169971

> <i_epik_Tot_Q>
1

> <i_epik_Tot_abs_Q>
1

> <r_epik_Metal_State_Penalty>
-0

> <b_epik_Metal_Only>
0

> <s_lp_Force_Field>
OPLS_2005

> <r_lp_Energy>
54.2474

> <b_lp_Chiralities_Consistent>
1

> <s_lp_Variant>
AV-unprocessed.smi:249-17

> <Gold.Version>
5.8.1

> <Gold.Id.Protein>
6NUR|6NUR_protein|mol2

> <Gold.PLP.Fitness>
44.5607

> <Gold.PLP.PLP>
-31.2116

> <Gold.PLP.part.hbond>
-3.6848

> <Gold.PLP.part.metal>
0.0000

> <Gold.PLP.part.buried>
-2.2418

> <Gold.PLP.part.nonpolar>
-25.4866

> <Gold.PLP.part.repulsive>
0.2584

> <Gold.PLP.ligand.clash>
0.0000

> <Gold.PLP.ligand.torsion>
1.3858

> <Gold.PLP.Chemscore.Hbond>
3.4991

> <Gold.PLP.Chemscore.CHOScore>
1.5295

> <Gold.PLP.Chemscore.Metal>
0.0000

> <Gold.Chemscore.Hbonds>
donor molecule, donor type, donor heavy atom, donor atom, acceptor molecule, acceptor atom, score
      L1  H     3    64       P1 10957  1.95
      L1  H    21    50       P1  7957  0.45
      P1  H  7989  7998       L1    21  0.09
      P1  H  8011  8017       L1    21  1.00
      L1  C    16    44       P1  7948  0.56
      L1  C    16    44       P1  7957  0.99

> <Gold.PLP.Chemscore.Internal.Correction>
1.0347

> <Gold.Rescore>
     Score         DG    S(hbond)    S(metal)    S(lipo)     H(rot)  DE(clash)    DE(int)     intcor
     11.87     -13.98       1.76        0.00      85.74       2.90       0.53       1.58       ----

> <Gold.Chemscore.Fitness>
11.8693

> <Gold.Chemscore.DG>
-13.9772

> <Gold.Chemscore.ZeroCoef>
-5.4800

> <Gold.Chemscore.Hbond>
1.7637

> <Gold.Chemscore.Metal>
0.0000

> <Gold.Chemscore.Lipo>
85.7442

> <Gold.Chemscore.Internal_Hbond>
0.0000

> <Gold.Chemscore.DEClash>
0.5273

> <Gold.Chemscore.DEInternal>
1.5806

> <Gold.Chemscore.Rot>
2.9006

> <Gold.Chemscore.Internal.Correction>
   9.000000E+99

> <Gold.Chemscore.Hbonds>
donor molecule, donor type, donor heavy atom, donor atom, acceptor molecule, acceptor atom, score
      L1  H     3    64       P1 10957  0.32
      L1  H    21    50       P1  7957  0.44
      P1  H  7989  7998       L1    21  0.09
      P1  H  8011  8017       L1    21  0.52

> <Gold.Chemscore.Hbond.Weighted>
-5.8908

> <Gold.Chemscore.Metal.Weighted>
-0.0000

> <Gold.Chemscore.Lipo.Weighted>
-10.0321

> <Gold.Chemscore.Internal_Hbond.Weighted>
0.0000

> <Gold.Chemscore.DEClash.Weighted>
0.5273

> <Gold.Chemscore.DEInternal.Weighted>
1.5806

> <Gold.Chemscore.Rot.Weighted>
7.4256

> <Gold.Chemscore.Internal.Correction.Weighted>
   9.000000E+99

> <Gold.Protein.RotatedTorsions>
[ 6907 6896 6895 6894 ] final  -36.72 input  -60.11 | X-H torsion
[ 7974 7965 7964 7962 ] final  124.40 input  175.53 | X-H torsion
[ 8008 7997 7996 7995 ] final  -21.52 input   59.86 | X-H torsion
[ 10167 10162 10161 10158 ] final  -94.41 input  -65.29 | X-H torsion
[ 10718 10713 10712 10709 ] final  -12.02 input   66.30 | X-H torsion
[ 10763 10752 10751 10750 ] final   52.39 input  -60.55 | X-H torsion
[ 11005 11000 10999 10996 ] final   69.78 input  -57.11 | X-H torsion

> <Gold.Protein.ActiveResidues>
 VAL166  LYS551  ARG553  GLY616  TRP617  ASP618  TYR619  PRO620  LYS621  CYS622 
 ASP623  PHE694  ASN695  SER759  ASP760  ASP761  ALA762  ILE779  LEU786  VAL792 
 PHE793  MET794  SER795  GLU796  ALA797  LYS798  CYS799  TRP800  GLU811  SER814 

> <Gold.Protein.RotatedAtoms>
  151.0236  134.9487  159.8072 H   0  0  0  0  0  0  0  0  0  0  0  0  # atno 6907 bound_to 6896
  152.5330  134.2871  159.9039 H   0  0  0  0  0  0  0  0  0  0  0  0  # atno 6908 bound_to 6896
  151.2879  133.4137  159.2665 H   0  0  0  0  0  0  0  0  0  0  0  0  # atno 6909 bound_to 6896
  145.0848  139.3630  143.4890 H   0  0  0  0  0  0  0  0  0  0  0  0  # atno 7974 bound_to 7965
  154.4701  140.2033  156.0017 H   0  0  0  0  0  0  0  0  0  0  0  0  # atno 8008 bound_to 7997
  156.0995  140.3246  155.7894 H   0  0  0  0  0  0  0  0  0  0  0  0  # atno 8009 bound_to 7997
  155.4821  140.0539  157.2956 H   0  0  0  0  0  0  0  0  0  0  0  0  # atno 8010 bound_to 7997
  140.3147  143.3084  152.0110 H   0  0  0  0  0  0  0  0  0  0  0  0  # atno 10167 bound_to 10162
  156.6507  130.4954  149.6063 H   0  0  0  0  0  0  0  0  0  0  0  0  # atno 10718 bound_to 10713
  152.9789  135.5814  154.4570 H   0  0  0  0  0  0  0  0  0  0  0  0  # atno 10763 bound_to 10752
  154.4151  135.2770  155.2013 H   0  0  0  0  0  0  0  0  0  0  0  0  # atno 10764 bound_to 10752
  154.3786  135.6151  153.5833 H   0  0  0  0  0  0  0  0  0  0  0  0  # atno 10765 bound_to 10752
  139.9634  134.7022  156.0597 H   0  0  0  0  0  0  0  0  0  0  0  0  # atno 11005 bound_to 11000
  146.3531  140.0655  142.8626 LP  0  0  0  0  0  0  0  0  0  0  0  0  # atno 17320 bound_to 7965
  145.1135  140.9419  143.4642 LP  0  0  0  0  0  0  0  0  0  0  0  0  # atno 17321 bound_to 7965
  139.4886  144.6357  151.6980 LP  0  0  0  0  0  0  0  0  0  0  0  0  # atno 17342 bound_to 10162
  140.5537  144.0384  150.6138 LP  0  0  0  0  0  0  0  0  0  0  0  0  # atno 17343 bound_to 10162
  156.2087  130.6665  151.1246 LP  0  0  0  0  0  0  0  0  0  0  0  0  # atno 17370 bound_to 10713
  157.7142  131.0718  150.6390 LP  0  0  0  0  0  0  0  0  0  0  0  0  # atno 17371 bound_to 10713
  141.1313  133.6586  156.3471 LP  0  0  0  0  0  0  0  0  0  0  0  0  # atno 17394 bound_to 11000
  140.5450  134.6084  157.5391 LP  0  0  0  0  0  0  0  0  0  0  0  0  # atno 17395 bound_to 11000

$$$$
