AV-unprocessed.smi:330|AV-procd|sdf|2349|dock10
  -GOLD-   2262022263D 1   1.00000     0.00000
 Structure written by MMmdl.
 36 38  0  0  0  0  0  0  0  0  1 V2000
  148.3635  140.9026  154.1939 C   0  0  0  0  0  0  0  0  0  0  0  0
  149.5644  140.0291  154.5142 C   0  0  0  0  0  0  0  0  0  0  0  0
  149.7611  138.7829  154.0711 C   0  0  0  0  0  0  0  0  0  0  0  0
  151.2722  138.1009  154.6211 S   0  0  0  0  0  0  0  0  0  0  0  0
  151.6476  139.6233  155.5057 C   0  0  0  0  0  0  0  0  0  0  0  0
  152.6810  139.7805  156.1540 O   0  0  0  0  0  0  0  0  0  0  0  0
  150.5988  140.5242  155.3207 N   0  0  0  0  0  0  0  0  0  0  0  0
  150.5856  141.8650  155.9203 C   0  0  0  0  0  0  0  0  0  0  0  0
  150.7138  141.8471  157.4492 C   0  0  0  0  0  0  0  0  0  0  0  0
  149.9047  141.2347  158.1475 O   0  0  0  0  0  0  0  0  0  0  0  0
  151.7485  142.5366  157.9535 N   0  0  0  0  0  0  0  0  0  0  0  0
  152.0757  142.6660  159.3695 C   0  0  0  0  0  0  0  0  0  0  0  0
  151.9104  144.0897  159.8743 C   0  0  0  0  0  0  0  0  0  0  0  0
  150.6886  144.9091  159.5305 C   0  0  0  0  0  0  0  0  0  0  0  0
  152.0335  145.2735  158.9443 C   0  0  0  0  0  0  0  0  0  0  0  0
  153.4740  142.1573  159.6676 C   0  0  0  0  0  0  0  0  0  0  0  0
  153.7247  140.6989  159.9673 C   0  0  0  0  0  0  0  0  0  0  0  0
  153.8772  141.7327  161.0601 C   0  0  0  0  0  0  0  0  0  0  0  0
  147.8201  140.5009  153.3383 H   0  0  0  0  0  0  0  0  0  0  0  0
  148.6611  141.9209  153.9434 H   0  0  0  0  0  0  0  0  0  0  0  0
  147.6812  140.9350  155.0435 H   0  0  0  0  0  0  0  0  0  0  0  0
  149.0972  138.2179  153.4338 H   0  0  0  0  0  0  0  0  0  0  0  0
  151.3732  142.4855  155.4921 H   0  0  0  0  0  0  0  0  0  0  0  0
  149.6521  142.3693  155.6657 H   0  0  0  0  0  0  0  0  0  0  0  0
  152.3595  143.0104  157.3042 H   0  0  0  0  0  0  0  0  0  0  0  0
  151.3880  142.0369  159.9386 H   0  0  0  0  0  0  0  0  0  0  0  0
  152.3045  144.2387  160.8781 H   0  0  0  0  0  0  0  0  0  0  0  0
  149.9537  144.4745  158.8560 H   0  0  0  0  0  0  0  0  0  0  0  0
  150.2847  145.5576  160.3051 H   0  0  0  0  0  0  0  0  0  0  0  0
  152.5272  146.1634  159.3292 H   0  0  0  0  0  0  0  0  0  0  0  0
  152.1879  145.0760  157.8854 H   0  0  0  0  0  0  0  0  0  0  0  0
  154.2484  142.6561  159.0874 H   0  0  0  0  0  0  0  0  0  0  0  0
  152.8628  140.0365  160.0194 H   0  0  0  0  0  0  0  0  0  0  0  0
  154.6320  140.2529  159.5648 H   0  0  0  0  0  0  0  0  0  0  0  0
  154.8862  141.9754  161.3868 H   0  0  0  0  0  0  0  0  0  0  0  0
  153.1181  141.7485  161.8396 H   0  0  0  0  0  0  0  0  0  0  0  0
  1  2  1  0  0  0  0
  1 19  1  0  0  0  0
  1 20  1  0  0  0  0
  1 21  1  0  0  0  0
  2  7  1  0  0  0  0
  2  3  2  0  0  0  0
  3  4  1  0  0  0  0
  3 22  1  0  0  0  0
  4  5  1  0  0  0  0
  5  6  2  0  0  0  0
  5  7  1  0  0  0  0
  7  8  1  0  0  0  0
  8  9  1  0  0  0  0
  8 23  1  0  0  0  0
  8 24  1  0  0  0  0
  9 10  2  0  0  0  0
  9 11  1  0  0  0  0
 11 12  1  0  0  0  0
 11 25  1  0  0  0  0
 12 13  1  0  0  0  0
 12 16  1  0  0  0  0
 12 26  1  0  0  0  0
 13 15  1  0  0  0  0
 13 14  1  0  0  0  0
 13 27  1  0  0  0  0
 14 15  1  0  0  0  0
 14 28  1  0  0  0  0
 14 29  1  0  0  0  0
 15 30  1  0  0  0  0
 15 31  1  0  0  0  0
 16 18  1  0  0  0  0
 16 17  1  0  0  0  0
 16 32  1  0  0  0  0
 17 18  1  0  0  0  0
 17 33  1  0  0  0  0
 17 34  1  0  0  0  0
 18 35  1  0  0  0  0
 18 36  1  0  0  0  0
M  END
> <s_m_source_file>
AV-unprocessed.smi

> <i_m_source_file_index>
330

> <i_lp_mmshare_version>
43012

> <i_f3d_flags>
0

> <s_epik_input>
W0NIM11jMVtjSF1zYyg9TyluMVtDSDJdQyg9TylbTkhdW0NIXShbQ0hdMltDSDJdW0NIMl0yKVtDSF0zW0NIMl1bQ0gyXTM=

> <s_epik_cmdline>
J2VwaWtfcHl0aG9uJywgJy1waCcsICc3LjAnLCAnLXRuJywgJzgnLCAnLW1hJywgJzIwMCcsICctbWV0YWxfYmluZGluZycsICctaW1hZScsICc8aW5maWxlLm1hZT4nLCAnLW9tYWUnLCAnPG91dGZpbGUubWFlPic=

> <r_lp_tautomer_probability>
1

> <r_epik_Ionization_Penalty>
1.36851e-06

> <r_epik_Ionization_Penalty_Charging>
1.26835e-06

> <r_epik_Ionization_Penalty_Neutral>
1.00162e-07

> <r_epik_State_Penalty>
-0

> <r_epik_Charging_Adjusted_Penalty>
1.26835e-06

> <i_epik_Tot_Q>
0

> <i_epik_Tot_abs_Q>
0

> <r_epik_Metal_State_Penalty>
-0

> <b_epik_Metal_Only>
0

> <s_lp_Force_Field>
OPLS_2005

> <r_lp_Energy>
27.3766

> <b_lp_Chiralities_Consistent>
1

> <s_lp_Variant>
AV-unprocessed.smi:330-1

> <Gold.Version>
5.8.1

> <Gold.Id.Protein>
6NUR|6NUR_protein|mol2

> <Gold.PLP.Fitness>
54.1814

> <Gold.PLP.PLP>
-48.3430

> <Gold.PLP.part.hbond>
-1.0000

> <Gold.PLP.part.metal>
0.0000

> <Gold.PLP.part.buried>
-3.2459

> <Gold.PLP.part.nonpolar>
-42.9962

> <Gold.PLP.part.repulsive>
0.0844

> <Gold.PLP.ligand.clash>
0.0000

> <Gold.PLP.ligand.torsion>
1.1411

> <Gold.PLP.Chemscore.Hbond>
1.0000

> <Gold.PLP.Chemscore.CHOScore>
1.0000

> <Gold.PLP.Chemscore.Metal>
0.0000

> <Gold.Chemscore.Hbonds>
donor molecule, donor type, donor heavy atom, donor atom, acceptor molecule, acceptor atom, score
      P1  H  7997  8010       L1     6  1.00
      L1  C     3    22       P1  7948  1.00

> <Gold.PLP.Chemscore.Internal.Correction>
2.1207

> <Gold.Rescore>
     Score         DG    S(hbond)    S(metal)    S(lipo)     H(rot)  DE(clash)    DE(int)     intcor
     16.57     -17.82       1.00        0.00     113.97       1.69       0.08       1.17       ----

> <Gold.Chemscore.Fitness>
16.5708

> <Gold.Chemscore.DG>
-17.8236

> <Gold.Chemscore.ZeroCoef>
-5.4800

> <Gold.Chemscore.Hbond>
0.9966

> <Gold.Chemscore.Metal>
0.0000

> <Gold.Chemscore.Lipo>
113.9654

> <Gold.Chemscore.Internal_Hbond>
0.0000

> <Gold.Chemscore.DEClash>
0.0815

> <Gold.Chemscore.DEInternal>
1.1712

> <Gold.Chemscore.Rot>
1.6871

> <Gold.Chemscore.Internal.Correction>
   9.000000E+99

> <Gold.Chemscore.Hbonds>
donor molecule, donor type, donor heavy atom, donor atom, acceptor molecule, acceptor atom, score
      P1  H  7997  8010       L1     6  0.99

> <Gold.Chemscore.Hbond.Weighted>
-3.3286

> <Gold.Chemscore.Metal.Weighted>
-0.0000

> <Gold.Chemscore.Lipo.Weighted>
-13.3340

> <Gold.Chemscore.Internal_Hbond.Weighted>
0.0000

> <Gold.Chemscore.DEClash.Weighted>
0.0815

> <Gold.Chemscore.DEInternal.Weighted>
1.1712

> <Gold.Chemscore.Rot.Weighted>
4.3189

> <Gold.Chemscore.Internal.Correction.Weighted>
   9.000000E+99

> <Gold.Protein.RotatedTorsions>
[ 6907 6896 6895 6894 ] final  158.45 input  -60.11 | X-H torsion
[ 7974 7965 7964 7962 ] final  -12.30 input  175.53 | X-H torsion
[ 8008 7997 7996 7995 ] final   92.67 input   59.86 | X-H torsion
[ 10167 10162 10161 10158 ] final  -63.63 input  -65.29 | X-H torsion
[ 10718 10713 10712 10709 ] final -141.73 input   66.30 | X-H torsion
[ 10763 10752 10751 10750 ] final   43.23 input  -60.55 | X-H torsion
[ 11005 11000 10999 10996 ] final  -55.85 input  -57.11 | X-H torsion

> <Gold.Protein.ActiveResidues>
 VAL166  LYS551  ARG553  GLY616  TRP617  ASP618  TYR619  PRO620  LYS621  CYS622 
 ASP623  PHE694  ASN695  SER759  ASP760  ASP761  ALA762  ILE779  LEU786  VAL792 
 PHE793  MET794  SER795  GLU796  ALA797  LYS798  CYS799  TRP800  GLU811  SER814 

> <Gold.Protein.RotatedAtoms>
  152.0001  133.3822  159.4178 H   0  0  0  0  0  0  0  0  0  0  0  0  # atno 6907 bound_to 6896
  150.6911  134.3843  159.5057 H   0  0  0  0  0  0  0  0  0  0  0  0  # atno 6908 bound_to 6896
  152.1589  134.8928  160.0593 H   0  0  0  0  0  0  0  0  0  0  0  0  # atno 6909 bound_to 6896
  146.2157  140.3038  142.8377 H   0  0  0  0  0  0  0  0  0  0  0  0  # atno 7974 bound_to 7965
  156.0380  140.3322  155.7212 H   0  0  0  0  0  0  0  0  0  0  0  0  # atno 8008 bound_to 7997
  155.5786  140.0635  157.2806 H   0  0  0  0  0  0  0  0  0  0  0  0  # atno 8009 bound_to 7997
  154.4381  140.1848  156.0942 H   0  0  0  0  0  0  0  0  0  0  0  0  # atno 8010 bound_to 7997
  140.5857  143.2333  151.6247 H   0  0  0  0  0  0  0  0  0  0  0  0  # atno 10167 bound_to 10162
  156.3375  130.7619  151.1749 H   0  0  0  0  0  0  0  0  0  0  0  0  # atno 10718 bound_to 10713
  152.9865  135.6107  154.3078 H   0  0  0  0  0  0  0  0  0  0  0  0  # atno 10763 bound_to 10752
  154.2795  135.2777  155.2705 H   0  0  0  0  0  0  0  0  0  0  0  0  # atno 10764 bound_to 10752
  154.5050  135.5856  153.6617 H   0  0  0  0  0  0  0  0  0  0  0  0  # atno 10765 bound_to 10752
  141.1093  133.6611  156.4530 H   0  0  0  0  0  0  0  0  0  0  0  0  # atno 11005 bound_to 11000
  144.9038  140.7675  143.5850 LP  0  0  0  0  0  0  0  0  0  0  0  0  # atno 17320 bound_to 7965
  145.2965  139.1865  143.4712 LP  0  0  0  0  0  0  0  0  0  0  0  0  # atno 17321 bound_to 7965
  139.5196  144.3247  152.0879 LP  0  0  0  0  0  0  0  0  0  0  0  0  # atno 17342 bound_to 10162
  140.2404  144.4275  150.6262 LP  0  0  0  0  0  0  0  0  0  0  0  0  # atno 17343 bound_to 10162
  157.7441  131.0464  150.4891 LP  0  0  0  0  0  0  0  0  0  0  0  0  # atno 17370 bound_to 10713
  156.5066  130.4129  149.6323 LP  0  0  0  0  0  0  0  0  0  0  0  0  # atno 17371 bound_to 10713
  140.4819  134.6657  157.5174 LP  0  0  0  0  0  0  0  0  0  0  0  0  # atno 17394 bound_to 11000
  139.9978  134.6884  155.9580 LP  0  0  0  0  0  0  0  0  0  0  0  0  # atno 17395 bound_to 11000

$$$$
