AV-unprocessed.smi:1601|AV-procd|sdf|6431|dock1
  -GOLD-   22720 7 73D 1   1.00000     0.00000
 Structure written by MMmdl.
 41 42  0  0  0  0  0  0  0  0  1 V2000
  147.8298  136.8958  156.9527 C   0  0  0  0  0  0  0  0  0  0  0  0
  147.5921  136.8854  155.4204 C   0  0  2  0  0  0  0  0  0  0  0  0
  147.6299  135.4163  154.9162 C   0  0  0  0  0  0  0  0  0  0  0  0
  147.1958  135.2933  153.5293 N   0  0  0  0  0  0  0  0  0  0  0  0
  146.0081  134.8063  153.1408 C   0  0  0  0  0  0  0  0  0  0  0  0
  145.1607  134.3899  153.9314 O   0  0  0  0  0  0  0  0  0  0  0  0
  145.7404  134.7777  151.6267 C   0  0  2  0  0  0  0  0  0  0  0  0
  144.8542  135.9760  151.2204 C   0  0  0  0  0  0  0  0  0  0  0  0
  145.1924  133.4829  151.2074 N   0  0  0  0  0  0  0  0  0  0  0  0
  145.8466  132.2713  151.0599 C   0  0  0  0  0  0  0  0  0  0  0  0
  144.9486  131.3661  150.5722 C   0  0  0  0  0  0  0  0  0  0  0  0
  143.7586  132.1261  150.4144 C   0  0  0  0  0  0  0  0  0  0  0  0
  143.9128  133.3893  150.7726 N   0  0  0  0  0  0  0  0  0  0  0  0
  148.5231  137.7800  154.6934 N   0  0  0  0  0  0  0  0  0  0  0  0
  148.3899  139.1864  155.0908 C   0  0  0  0  0  0  0  0  0  0  0  0
  149.3788  140.1112  154.3596 C   0  0  0  0  0  0  0  0  0  0  0  0
  150.7085  139.6642  154.5833 O   0  0  0  0  0  0  0  0  0  0  0  0
  150.9038  138.3294  154.1374 C   0  0  0  0  0  0  0  0  0  0  0  0
  149.9276  137.3920  154.8688 C   0  0  0  0  0  0  0  0  0  0  0  0
  147.1802  136.2005  157.4830 H   0  0  0  0  0  0  0  0  0  0  0  0
  147.6225  137.8681  157.3971 H   0  0  0  0  0  0  0  0  0  0  0  0
  148.8593  136.6278  157.1925 H   0  0  0  0  0  0  0  0  0  0  0  0
  146.5775  137.2509  155.2537 H   0  0  0  0  0  0  0  0  0  0  0  0
  148.6388  135.0072  154.9462 H   0  0  0  0  0  0  0  0  0  0  0  0
  147.0081  134.7880  155.5565 H   0  0  0  0  0  0  0  0  0  0  0  0
  147.8376  135.6123  152.8181 H   0  0  0  0  0  0  0  0  0  0  0  0
  146.6969  134.8902  151.1135 H   0  0  0  0  0  0  0  0  0  0  0  0
  145.2477  136.9124  151.6183 H   0  0  0  0  0  0  0  0  0  0  0  0
  143.8327  135.8645  151.5868 H   0  0  0  0  0  0  0  0  0  0  0  0
  144.8097  136.0858  150.1364 H   0  0  0  0  0  0  0  0  0  0  0  0
  146.8892  132.1483  151.3137 H   0  0  0  0  0  0  0  0  0  0  0  0
  145.1197  130.3233  150.3505 H   0  0  0  0  0  0  0  0  0  0  0  0
  142.7972  131.8035  150.0425 H   0  0  0  0  0  0  0  0  0  0  0  0
  147.3911  139.5572  154.8695 H   0  0  0  0  0  0  0  0  0  0  0  0
  148.5348  139.2820  156.1679 H   0  0  0  0  0  0  0  0  0  0  0  0
  149.1684  140.1335  153.2890 H   0  0  0  0  0  0  0  0  0  0  0  0
  149.2815  141.1334  154.7254 H   0  0  0  0  0  0  0  0  0  0  0  0
  150.7603  138.2724  153.0571 H   0  0  0  0  0  0  0  0  0  0  0  0
  151.9334  138.0344  154.3393 H   0  0  0  0  0  0  0  0  0  0  0  0
  150.1751  137.3706  155.9312 H   0  0  0  0  0  0  0  0  0  0  0  0
  150.1011  136.3892  154.4830 H   0  0  0  0  0  0  0  0  0  0  0  0
  1  2  1  0  0  0  0
  1 20  1  0  0  0  0
  1 21  1  0  0  0  0
  1 22  1  0  0  0  0
  2  3  1  0  0  0  0
  2 14  1  0  0  0  0
  2 23  1  0  0  0  0
  3  4  1  0  0  0  0
  3 24  1  0  0  0  0
  3 25  1  0  0  0  0
  4  5  1  0  0  0  0
  4 26  1  0  0  0  0
  5  6  2  0  0  0  0
  5  7  1  0  0  0  0
  7  8  1  0  0  0  0
  7  9  1  0  0  0  0
  7 27  1  0  0  0  0
  8 28  1  0  0  0  0
  8 29  1  0  0  0  0
  8 30  1  0  0  0  0
  9 13  1  0  0  0  0
  9 10  1  0  0  0  0
 10 11  2  0  0  0  0
 10 31  1  0  0  0  0
 11 12  1  0  0  0  0
 11 32  1  0  0  0  0
 12 13  2  0  0  0  0
 12 33  1  0  0  0  0
 14 19  1  0  0  0  0
 14 15  1  0  0  0  0
 15 16  1  0  0  0  0
 15 34  1  0  0  0  0
 15 35  1  0  0  0  0
 16 17  1  0  0  0  0
 16 36  1  0  0  0  0
 16 37  1  0  0  0  0
 17 18  1  0  0  0  0
 18 19  1  0  0  0  0
 18 38  1  0  0  0  0
 18 39  1  0  0  0  0
 19 40  1  0  0  0  0
 19 41  1  0  0  0  0
M  END
> <s_m_source_file>
AV-unprocessed.smi

> <i_m_source_file_index>
1601

> <i_lp_mmshare_version>
43012

> <i_f3d_flags>
0

> <s_epik_input>
W0NIMl0xW0NIMl1PW0NIMl1bQ0gyXU4xW0NASF0oW0NIM10pW0NIMl1bTkhdQyg9TylbQ0BIXShbQ0gzXSluMltjSF1bY0hdW2NIXW4y

> <s_epik_cmdline>
J2VwaWtfcHl0aG9uJywgJy1waCcsICc3LjAnLCAnLXRuJywgJzgnLCAnLW1hJywgJzIwMCcsICctbWV0YWxfYmluZGluZycsICctaW1hZScsICc8aW5maWxlLm1hZT4nLCAnLW9tYWUnLCAnPG91dGZpbGUubWFlPic=

> <r_lp_tautomer_probability>
1

> <r_epik_Ionization_Penalty>
0.203323

> <r_epik_Ionization_Penalty_Charging>
0

> <r_epik_Ionization_Penalty_Neutral>
0.203323

> <r_epik_State_Penalty>
0.193192

> <r_epik_Charging_Adjusted_Penalty>
0.193192

> <i_epik_Tot_Q>
0

> <i_epik_Tot_abs_Q>
0

> <r_epik_Metal_State_Penalty>
0.193187

> <b_epik_Metal_Only>
0

> <s_lp_Force_Field>
OPLS_2005

> <r_lp_Energy>
34.8704

> <b_lp_Chiralities_Consistent>
1

> <s_lp_Variant>
AV-unprocessed.smi:1601-1

> <Gold.Version>
5.8.1

> <Gold.Id.Protein>
6NUR|6NUR_protein|mol2

> <Gold.PLP.Fitness>
36.9957

> <Gold.PLP.PLP>
-26.6226

> <Gold.PLP.part.hbond>
-2.0000

> <Gold.PLP.part.metal>
0.0000

> <Gold.PLP.part.buried>
-5.5442

> <Gold.PLP.part.nonpolar>
-20.5202

> <Gold.PLP.part.repulsive>
0.5126

> <Gold.PLP.ligand.clash>
0.0000

> <Gold.PLP.ligand.torsion>
0.9075

> <Gold.PLP.Chemscore.Hbond>
2.0000

> <Gold.PLP.Chemscore.CHOScore>
1.9666

> <Gold.PLP.Chemscore.Metal>
0.0000

> <Gold.Chemscore.Hbonds>
donor molecule, donor type, donor heavy atom, donor atom, acceptor molecule, acceptor atom, score
      L1  H     4    26       P1  7948  1.00
      P1  H  7989  7998       L1    17  1.00
      L1  C    10    31       P1 10747  0.66
      L1  C    12    33       P1 10952  1.00

> <Gold.PLP.Chemscore.Internal.Correction>
0.2885

> <Gold.Rescore>
     Score         DG    S(hbond)    S(metal)    S(lipo)     H(rot)  DE(clash)    DE(int)     intcor
     12.96     -14.01       1.58        0.00      66.78       1.79       0.32       0.72       ----

> <Gold.Chemscore.Fitness>
12.9643

> <Gold.Chemscore.DG>
-14.0092

> <Gold.Chemscore.ZeroCoef>
-5.4800

> <Gold.Chemscore.Hbond>
1.5840

> <Gold.Chemscore.Metal>
0.0000

> <Gold.Chemscore.Lipo>
66.7847

> <Gold.Chemscore.Internal_Hbond>
0.0000

> <Gold.Chemscore.DEClash>
0.3225

> <Gold.Chemscore.DEInternal>
0.7224

> <Gold.Chemscore.Rot>
1.7872

> <Gold.Chemscore.Internal.Correction>
   9.000000E+99

> <Gold.Chemscore.Hbonds>
donor molecule, donor type, donor heavy atom, donor atom, acceptor molecule, acceptor atom, score
      L1  H     4    26       P1  7948  0.98
      P1  H  7989  7998       L1    17  0.19

> <Gold.Chemscore.Hbond.Weighted>
-5.2906

> <Gold.Chemscore.Metal.Weighted>
-0.0000

> <Gold.Chemscore.Lipo.Weighted>
-7.8138

> <Gold.Chemscore.Internal_Hbond.Weighted>
0.0000

> <Gold.Chemscore.DEClash.Weighted>
0.3225

> <Gold.Chemscore.DEInternal.Weighted>
0.7224

> <Gold.Chemscore.Rot.Weighted>
4.5752

> <Gold.Chemscore.Internal.Correction.Weighted>
   9.000000E+99

> <Gold.Protein.RotatedTorsions>
[ 6907 6896 6895 6894 ] final   -0.10 input  -60.11 | X-H torsion
[ 7974 7965 7964 7962 ] final   27.17 input  175.53 | X-H torsion
[ 8008 7997 7996 7995 ] final  -94.44 input   59.86 | X-H torsion
[ 10167 10162 10161 10158 ] final   56.74 input  -65.29 | X-H torsion
[ 10718 10713 10712 10709 ] final    1.00 input   66.30 | X-H torsion
[ 10763 10752 10751 10750 ] final   12.55 input  -60.55 | X-H torsion
[ 11005 11000 10999 10996 ] final  -69.51 input  -57.11 | X-H torsion

> <Gold.Protein.ActiveResidues>
 VAL166  LYS551  ARG553  GLY616  TRP617  ASP618  TYR619  PRO620  LYS621  CYS622 
 ASP623  PHE694  ASN695  SER759  ASP760  ASP761  ALA762  ILE779  LEU786  VAL792 
 PHE793  MET794  SER795  GLU796  ALA797  LYS798  CYS799  TRP800  GLU811  SER814 

> <Gold.Protein.RotatedAtoms>
  151.5678  135.1063  159.9987 H   0  0  0  0  0  0  0  0  0  0  0  0  # atno 6907 bound_to 6896
  152.4416  133.7454  159.6675 H   0  0  0  0  0  0  0  0  0  0  0  0  # atno 6908 bound_to 6896
  150.8322  133.8003  159.3117 H   0  0  0  0  0  0  0  0  0  0  0  0  # atno 6909 bound_to 6896
  146.1799  139.7228  142.8908 H   0  0  0  0  0  0  0  0  0  0  0  0  # atno 7974 bound_to 7965
  154.7485  140.0489  157.0872 H   0  0  0  0  0  0  0  0  0  0  0  0  # atno 8008 bound_to 7997
  155.0088  140.3133  155.4819 H   0  0  0  0  0  0  0  0  0  0  0  0  # atno 8009 bound_to 7997
  156.2880  140.2188  156.5201 H   0  0  0  0  0  0  0  0  0  0  0  0  # atno 8010 bound_to 7997
  140.2055  144.3944  150.6511 H   0  0  0  0  0  0  0  0  0  0  0  0  # atno 10167 bound_to 10162
  156.8417  130.5523  149.5677 H   0  0  0  0  0  0  0  0  0  0  0  0  # atno 10718 bound_to 10713
  153.1811  135.6828  153.8477 H   0  0  0  0  0  0  0  0  0  0  0  0  # atno 10763 bound_to 10752
  153.7809  135.3182  155.3366 H   0  0  0  0  0  0  0  0  0  0  0  0  # atno 10764 bound_to 10752
  154.8060  135.4748  154.0488 H   0  0  0  0  0  0  0  0  0  0  0  0  # atno 10765 bound_to 10752
  141.1555  133.6766  156.6610 H   0  0  0  0  0  0  0  0  0  0  0  0  # atno 11005 bound_to 11000
  145.4107  141.0396  143.3019 LP  0  0  0  0  0  0  0  0  0  0  0  0  # atno 17320 bound_to 7965
  144.8297  139.5650  143.6949 LP  0  0  0  0  0  0  0  0  0  0  0  0  # atno 17321 bound_to 7965
  140.6360  143.2195  151.6393 LP  0  0  0  0  0  0  0  0  0  0  0  0  # atno 17342 bound_to 10162
  139.5200  144.3235  152.0889 LP  0  0  0  0  0  0  0  0  0  0  0  0  # atno 17343 bound_to 10162
  156.0877  130.5871  150.9677 LP  0  0  0  0  0  0  0  0  0  0  0  0  # atno 17370 bound_to 10713
  157.6352  131.0917  150.8363 LP  0  0  0  0  0  0  0  0  0  0  0  0  # atno 17371 bound_to 10713
  140.3247  134.7978  157.4280 LP  0  0  0  0  0  0  0  0  0  0  0  0  # atno 17394 bound_to 11000
  140.1067  134.5400  155.8303 LP  0  0  0  0  0  0  0  0  0  0  0  0  # atno 17395 bound_to 11000

$$$$
