AV-unprocessed.smi:2746|AV-procd|sdf|10573|dock1
  -GOLD-   2272015 23D 1   1.00000     0.00000
 Structure written by MMmdl.
 39 40  0  0  0  0  0  0  0  0  2 V2000
  147.4138  139.7909  153.1800 C   0  0  0  0  0  0  0  0  0  0  0  0
  148.1569  140.5768  153.9784 C   0  0  0  0  0  0  0  0  0  0  0  0
  147.6471  141.5533  155.0310 C   0  0  2  0  0  0  0  0  0  0  0  0
  146.8460  142.6903  154.3835 C   0  0  0  0  0  0  0  0  0  0  0  0
  148.7247  142.1204  155.8414 N   0  0  0  0  0  0  0  0  0  0  0  0
  149.7496  141.4372  156.3781 C   0  0  0  0  0  0  0  0  0  0  0  0
  149.8801  140.2159  156.2955 O   0  0  0  0  0  0  0  0  0  0  0  0
  150.7325  142.2586  157.1587 C   0  0  0  0  0  0  0  0  0  0  0  0
  151.5899  141.6917  158.1312 C   0  0  0  0  0  0  0  0  0  0  0  0
  152.4717  142.5261  158.8582 C   0  0  0  0  0  0  0  0  0  0  0  0
  153.3396  142.0147  159.8324 N   0  0  0  0  0  0  0  0  0  0  0  0
  153.7295  140.6314  159.5900 C   0  0  0  0  0  0  0  0  0  0  0  0
  154.7763  140.1907  160.6279 C   0  0  0  0  0  0  0  0  0  0  0  0
  154.2576  140.3868  161.9404 O   0  0  0  0  0  0  0  0  0  0  0  0
  153.9511  141.7546  162.1960 C   0  0  0  0  0  0  0  0  0  0  0  0
  152.8832  142.2374  161.1992 C   0  0  0  0  0  0  0  0  0  0  0  0
  152.4714  143.9121  158.5941 C   0  0  0  0  0  0  0  0  0  0  0  0
  151.5906  144.4285  157.6237 C   0  0  0  0  0  0  0  0  0  0  0  0
  150.7635  143.5960  156.9558 N   0  3  0  0  0  0  0  0  0  0  0  0
  146.3346  139.7841  153.2193 H   0  0  0  0  0  0  0  0  0  0  0  0
  147.8874  139.1338  152.4655 H   0  0  0  0  0  0  0  0  0  0  0  0
  149.2318  140.5276  153.8799 H   0  0  0  0  0  0  0  0  0  0  0  0
  146.9622  140.9925  155.6693 H   0  0  0  0  0  0  0  0  0  0  0  0
  146.0101  142.3002  153.8016 H   0  0  0  0  0  0  0  0  0  0  0  0
  147.4684  143.2846  153.7135 H   0  0  0  0  0  0  0  0  0  0  0  0
  146.4350  143.3607  155.1389 H   0  0  0  0  0  0  0  0  0  0  0  0
  148.6938  143.1183  155.9918 H   0  0  0  0  0  0  0  0  0  0  0  0
  151.5703  140.6291  158.3262 H   0  0  0  0  0  0  0  0  0  0  0  0
  152.8542  139.9832  159.6520 H   0  0  0  0  0  0  0  0  0  0  0  0
  154.1361  140.5316  158.5828 H   0  0  0  0  0  0  0  0  0  0  0  0
  155.0181  139.1362  160.4943 H   0  0  0  0  0  0  0  0  0  0  0  0
  155.7055  140.7496  160.5055 H   0  0  0  0  0  0  0  0  0  0  0  0
  153.5835  141.8517  163.2176 H   0  0  0  0  0  0  0  0  0  0  0  0
  154.8554  142.3609  162.1229 H   0  0  0  0  0  0  0  0  0  0  0  0
  152.6797  143.2979  161.3534 H   0  0  0  0  0  0  0  0  0  0  0  0
  151.9502  141.7000  161.3737 H   0  0  0  0  0  0  0  0  0  0  0  0
  153.1335  144.5741  159.1335 H   0  0  0  0  0  0  0  0  0  0  0  0
  151.5200  145.4751  157.3662 H   0  0  0  0  0  0  0  0  0  0  0  0
  150.1283  143.9923  156.2621 H   0  0  0  0  0  0  0  0  0  0  0  0
  1  2  2  0  0  0  0
  1 20  1  0  0  0  0
  1 21  1  0  0  0  0
  2  3  1  0  0  0  0
  2 22  1  0  0  0  0
  3  4  1  0  0  0  0
  3  5  1  0  0  0  0
  3 23  1  0  0  0  0
  4 24  1  0  0  0  0
  4 25  1  0  0  0  0
  4 26  1  0  0  0  0
  5  6  1  0  0  0  0
  5 27  1  0  0  0  0
  6  7  2  0  0  0  0
  6  8  1  0  0  0  0
  8 19  1  0  0  0  0
  8  9  2  0  0  0  0
  9 10  1  0  0  0  0
  9 28  1  0  0  0  0
 10 11  1  0  0  0  0
 10 17  2  0  0  0  0
 11 16  1  0  0  0  0
 11 12  1  0  0  0  0
 12 13  1  0  0  0  0
 12 29  1  0  0  0  0
 12 30  1  0  0  0  0
 13 14  1  0  0  0  0
 13 31  1  0  0  0  0
 13 32  1  0  0  0  0
 14 15  1  0  0  0  0
 15 16  1  0  0  0  0
 15 33  1  0  0  0  0
 15 34  1  0  0  0  0
 16 35  1  0  0  0  0
 16 36  1  0  0  0  0
 17 18  1  0  0  0  0
 17 37  1  0  0  0  0
 18 19  2  0  0  0  0
 18 38  1  0  0  0  0
 19 39  1  0  0  0  0
M  CHG  1  19   1
M  END
> <s_m_source_file>
AV-unprocessed.smi

> <i_m_source_file_index>
2746

> <i_lp_mmshare_version>
43012

> <i_f3d_flags>
0

> <s_epik_input>
W0NIMl09W0NIXVtDQEhdKFtDSDNdKVtOSF1DKD1PKWMxW2NIXWMoW2NIXVtjSF1uMSlOMltDSDJdW0NIMl1PW0NIMl1bQ0gyXTI=

> <s_epik_cmdline>
J2VwaWtfcHl0aG9uJywgJy1waCcsICc3LjAnLCAnLXRuJywgJzgnLCAnLW1hJywgJzIwMCcsICctbWV0YWxfYmluZGluZycsICctaW1hZScsICc8aW5maWxlLm1hZT4nLCAnLW9tYWUnLCAnPG91dGZpbGUubWFlPic=

> <r_lp_tautomer_probability>
1

> <r_epik_Ionization_Penalty>
0.451073

> <r_epik_Ionization_Penalty_Charging>
0.450607

> <r_epik_Ionization_Penalty_Neutral>
0.000466544

> <r_epik_State_Penalty>
0.453375

> <r_epik_Charging_Adjusted_Penalty>
0.903982

> <i_epik_Tot_Q>
1

> <i_epik_Tot_abs_Q>
1

> <r_epik_Metal_State_Penalty>
1.0249

> <b_epik_Metal_Only>
0

> <s_lp_Force_Field>
OPLS_2005

> <r_lp_Energy>
26.9967

> <b_lp_Chiralities_Consistent>
1

> <s_lp_Variant>
AV-unprocessed.smi:2746-3

> <Gold.Version>
5.8.1

> <Gold.Id.Protein>
6NUR|6NUR_protein|mol2

> <Gold.PLP.Fitness>
49.0749

> <Gold.PLP.PLP>
-41.8236

> <Gold.PLP.part.hbond>
-2.0000

> <Gold.PLP.part.metal>
0.0000

> <Gold.PLP.part.buried>
-2.4758

> <Gold.PLP.part.nonpolar>
-37.2456

> <Gold.PLP.part.repulsive>
0.1209

> <Gold.PLP.ligand.clash>
0.0000

> <Gold.PLP.ligand.torsion>
0.9592

> <Gold.PLP.Chemscore.Hbond>
3.0000

> <Gold.PLP.Chemscore.CHOScore>
0.0000

> <Gold.PLP.Chemscore.Metal>
0.0000

> <Gold.Chemscore.Hbonds>
donor molecule, donor type, donor heavy atom, donor atom, acceptor molecule, acceptor atom, score
      L1  H     5    27       P1  8028  1.00
      L1  H    19    39       P1  8028  2.00

> <Gold.PLP.Chemscore.Internal.Correction>
0.1697

> <Gold.Rescore>
     Score         DG    S(hbond)    S(metal)    S(lipo)     H(rot)  DE(clash)    DE(int)     intcor
     20.38     -21.97       1.94        0.00     114.00       1.30       0.35       1.24       ----

> <Gold.Chemscore.Fitness>
20.3837

> <Gold.Chemscore.DG>
-21.9699

> <Gold.Chemscore.ZeroCoef>
-5.4800

> <Gold.Chemscore.Hbond>
1.9412

> <Gold.Chemscore.Metal>
0.0000

> <Gold.Chemscore.Lipo>
113.9960

> <Gold.Chemscore.Internal_Hbond>
0.0000

> <Gold.Chemscore.DEClash>
0.3508

> <Gold.Chemscore.DEInternal>
1.2354

> <Gold.Chemscore.Rot>
1.3013

> <Gold.Chemscore.Internal.Correction>
   9.000000E+99

> <Gold.Chemscore.Hbonds>
donor molecule, donor type, donor heavy atom, donor atom, acceptor molecule, acceptor atom, score
      L1  H     5    27       P1  8028  0.98
      L1  H    19    39       P1  8028  0.94

> <Gold.Chemscore.Hbond.Weighted>
-6.4837

> <Gold.Chemscore.Metal.Weighted>
-0.0000

> <Gold.Chemscore.Lipo.Weighted>
-13.3375

> <Gold.Chemscore.Internal_Hbond.Weighted>
0.0000

> <Gold.Chemscore.DEClash.Weighted>
0.3508

> <Gold.Chemscore.DEInternal.Weighted>
1.2354

> <Gold.Chemscore.Rot.Weighted>
3.3313

> <Gold.Chemscore.Internal.Correction.Weighted>
   9.000000E+99

> <Gold.Protein.RotatedTorsions>
[ 6907 6896 6895 6894 ] final  -53.55 input  -60.11 | X-H torsion
[ 7974 7965 7964 7962 ] final -126.41 input  175.53 | X-H torsion
[ 8008 7997 7996 7995 ] final -141.50 input   59.86 | X-H torsion
[ 10167 10162 10161 10158 ] final  -41.36 input  -65.29 | X-H torsion
[ 10718 10713 10712 10709 ] final   -3.02 input   66.30 | X-H torsion
[ 10763 10752 10751 10750 ] final   52.61 input  -60.55 | X-H torsion
[ 11005 11000 10999 10996 ] final -111.66 input  -57.11 | X-H torsion

> <Gold.Protein.ActiveResidues>
 VAL166  LYS551  ARG553  GLY616  TRP617  ASP618  TYR619  PRO620  LYS621  CYS622 
 ASP623  PHE694  ASN695  SER759  ASP760  ASP761  ALA762  ILE779  LEU786  VAL792 
 PHE793  MET794  SER795  GLU796  ALA797  LYS798  CYS799  TRP800  GLU811  SER814 

> <Gold.Protein.RotatedAtoms>
  150.8417  134.7711  159.6937 H   0  0  0  0  0  0  0  0  0  0  0  0  # atno 6907 bound_to 6896
  152.4503  134.5405  159.9847 H   0  0  0  0  0  0  0  0  0  0  0  0  # atno 6908 bound_to 6896
  151.5543  133.3375  159.2995 H   0  0  0  0  0  0  0  0  0  0  0  0  # atno 6909 bound_to 6896
  144.9876  140.7700  143.4574 H   0  0  0  0  0  0  0  0  0  0  0  0  # atno 7974 bound_to 7965
  155.4788  140.0558  157.2970 H   0  0  0  0  0  0  0  0  0  0  0  0  # atno 8008 bound_to 7997
  154.4668  140.2022  156.0049 H   0  0  0  0  0  0  0  0  0  0  0  0  # atno 8009 bound_to 7997
  156.0989  140.3222  155.7919 H   0  0  0  0  0  0  0  0  0  0  0  0  # atno 8010 bound_to 7997
  140.7005  143.3099  151.3055 H   0  0  0  0  0  0  0  0  0  0  0  0  # atno 10167 bound_to 10162
  156.7822  130.5334  149.5749 H   0  0  0  0  0  0  0  0  0  0  0  0  # atno 10718 bound_to 10713
  152.9790  135.5807  154.4606 H   0  0  0  0  0  0  0  0  0  0  0  0  # atno 10763 bound_to 10752
  154.4183  135.2771  155.1994 H   0  0  0  0  0  0  0  0  0  0  0  0  # atno 10764 bound_to 10752
  154.3754  135.6158  153.5816 H   0  0  0  0  0  0  0  0  0  0  0  0  # atno 10765 bound_to 10752
  141.0721  133.9362  157.2464 H   0  0  0  0  0  0  0  0  0  0  0  0  # atno 11005 bound_to 11000
  145.2332  139.2105  143.5032 LP  0  0  0  0  0  0  0  0  0  0  0  0  # atno 17320 bound_to 7965
  146.3423  140.2213  142.8591 LP  0  0  0  0  0  0  0  0  0  0  0  0  # atno 17321 bound_to 7965
  139.6518  144.0348  152.2632 LP  0  0  0  0  0  0  0  0  0  0  0  0  # atno 17342 bound_to 10162
  139.9887  144.6377  150.7834 LP  0  0  0  0  0  0  0  0  0  0  0  0  # atno 17343 bound_to 10162
  156.1211  130.6110  151.0194 LP  0  0  0  0  0  0  0  0  0  0  0  0  # atno 17370 bound_to 10713
  157.6641  131.0875  150.7770 LP  0  0  0  0  0  0  0  0  0  0  0  0  # atno 17371 bound_to 10713
  139.9534  135.0171  156.9059 LP  0  0  0  0  0  0  0  0  0  0  0  0  # atno 17394 bound_to 11000
  140.5651  134.0497  155.7412 LP  0  0  0  0  0  0  0  0  0  0  0  0  # atno 17395 bound_to 11000

$$$$
