AV-unprocessed.smi:326|AV-procd|sdf|2344|dock4
  -GOLD-   2262022253D 1   1.00000     0.00000
 Structure written by MMmdl.
 44 45  0  0  0  0  0  0  0  0  1 V2000
  157.6038  140.2057  158.8861 C   0  0  0  0  0  0  0  0  0  0  0  0
  156.2395  139.9830  159.1942 O   0  0  0  0  0  0  0  0  0  0  0  0
  155.8872  140.4578  160.4827 C   0  0  0  0  0  0  0  0  0  0  0  0
  154.4092  140.1456  160.7680 C   0  0  0  0  0  0  0  0  0  0  0  0
  153.6112  141.3700  160.9003 N   0  0  0  0  0  0  0  0  0  0  0  0
  152.7923  141.6250  159.8125 N   0  0  0  0  0  0  0  0  0  0  0  0
  152.0226  142.6651  159.8068 C   0  0  0  0  0  0  0  0  0  0  0  0
  151.1269  142.9728  158.6578 C   0  0  0  0  0  0  0  0  0  0  0  0
  150.7042  144.1113  158.4493 O   0  0  0  0  0  0  0  0  0  0  0  0
  150.8163  141.9247  157.8736 N   0  0  0  0  0  0  0  0  0  0  0  0
  149.9648  141.9761  156.6894 C   0  0  2  0  0  0  0  0  0  0  0  0
  148.4886  141.7361  157.0650 C   0  0  0  0  0  0  0  0  0  0  0  0
  147.5888  141.7160  155.8188 C   0  0  0  0  0  0  0  0  0  0  0  0
  148.0633  140.6716  154.7901 C   0  0  1  0  0  0  0  0  0  0  0  0
  147.1668  140.6629  153.5439 C   0  0  0  0  0  0  0  0  0  0  0  0
  149.5393  140.9146  154.4203 C   0  0  0  0  0  0  0  0  0  0  0  0
  150.4394  140.9287  155.6662 C   0  0  0  0  0  0  0  0  0  0  0  0
  152.0028  143.5822  160.9337 C   0  0  0  0  0  0  0  0  0  0  0  0
  152.8059  143.3202  161.9879 C   0  0  0  0  0  0  0  0  0  0  0  0
  153.6842  142.1496  162.0215 C   0  0  0  0  0  0  0  0  0  0  0  0
  154.4196  141.8897  162.9733 O   0  0  0  0  0  0  0  0  0  0  0  0
  157.8223  139.8165  157.8918 H   0  0  0  0  0  0  0  0  0  0  0  0
  158.2574  139.6989  159.5974 H   0  0  0  0  0  0  0  0  0  0  0  0
  157.8393  141.2707  158.8901 H   0  0  0  0  0  0  0  0  0  0  0  0
  156.5126  139.9678  161.2301 H   0  0  0  0  0  0  0  0  0  0  0  0
  156.0716  141.5306  160.5597 H   0  0  0  0  0  0  0  0  0  0  0  0
  154.0078  139.4830  159.9993 H   0  0  0  0  0  0  0  0  0  0  0  0
  154.3399  139.5779  161.6973 H   0  0  0  0  0  0  0  0  0  0  0  0
  151.2050  141.0245  158.1159 H   0  0  0  0  0  0  0  0  0  0  0  0
  150.0578  142.9629  156.2313 H   0  0  0  0  0  0  0  0  0  0  0  0
  148.3914  140.7888  157.5975 H   0  0  0  0  0  0  0  0  0  0  0  0
  148.1418  142.5108  157.7498 H   0  0  0  0  0  0  0  0  0  0  0  0
  146.5605  141.5070  156.1160 H   0  0  0  0  0  0  0  0  0  0  0  0
  147.5816  142.7067  155.3622 H   0  0  0  0  0  0  0  0  0  0  0  0
  147.9905  139.6865  155.2538 H   0  0  0  0  0  0  0  0  0  0  0  0
  147.2015  141.6204  153.0232 H   0  0  0  0  0  0  0  0  0  0  0  0
  146.1276  140.4654  153.8086 H   0  0  0  0  0  0  0  0  0  0  0  0
  147.4792  139.8901  152.8408 H   0  0  0  0  0  0  0  0  0  0  0  0
  149.8839  140.1431  153.7307 H   0  0  0  0  0  0  0  0  0  0  0  0
  149.6365  141.8648  153.8930 H   0  0  0  0  0  0  0  0  0  0  0  0
  151.4694  141.1333  155.3713 H   0  0  0  0  0  0  0  0  0  0  0  0
  150.4395  139.9373  156.1221 H   0  0  0  0  0  0  0  0  0  0  0  0
  151.3642  144.4537  160.9367 H   0  0  0  0  0  0  0  0  0  0  0  0
  152.8008  143.9930  162.8326 H   0  0  0  0  0  0  0  0  0  0  0  0
  1  2  1  0  0  0  0
  1 22  1  0  0  0  0
  1 23  1  0  0  0  0
  1 24  1  0  0  0  0
  2  3  1  0  0  0  0
  3  4  1  0  0  0  0
  3 25  1  0  0  0  0
  3 26  1  0  0  0  0
  4  5  1  0  0  0  0
  4 27  1  0  0  0  0
  4 28  1  0  0  0  0
  5 20  1  0  0  0  0
  5  6  1  0  0  0  0
  6  7  2  0  0  0  0
  7  8  1  0  0  0  0
  7 18  1  0  0  0  0
  8  9  2  0  0  0  0
  8 10  1  0  0  0  0
 10 11  1  0  0  0  0
 10 29  1  0  0  0  0
 11 17  1  0  0  0  0
 11 12  1  0  0  0  0
 11 30  1  0  0  0  0
 12 13  1  0  0  0  0
 12 31  1  0  0  0  0
 12 32  1  0  0  0  0
 13 14  1  0  0  0  0
 13 33  1  0  0  0  0
 13 34  1  0  0  0  0
 14 15  1  0  0  0  0
 14 16  1  0  0  0  0
 14 35  1  0  0  0  0
 15 36  1  0  0  0  0
 15 37  1  0  0  0  0
 15 38  1  0  0  0  0
 16 17  1  0  0  0  0
 16 39  1  0  0  0  0
 16 40  1  0  0  0  0
 17 41  1  0  0  0  0
 17 42  1  0  0  0  0
 18 19  2  0  0  0  0
 18 43  1  0  0  0  0
 19 20  1  0  0  0  0
 19 44  1  0  0  0  0
 20 21  2  0  0  0  0
M  END
> <s_m_source_file>
AV-unprocessed.smi

> <i_m_source_file_index>
326

> <i_lp_mmshare_version>
43012

> <i_f3d_flags>
0

> <s_epik_input>
W0NIM11PW0NIMl1bQ0gyXW4xbmMoW2NIXVtjSF1jMT1PKUMoPU8pW05IXVtDQEBIXTJbQ0gyXVtDSDJdW0NAQEhdKFtDSDNdKVtDSDJdW0NIMl0y

> <s_epik_cmdline>
J2VwaWtfcHl0aG9uJywgJy1waCcsICc3LjAnLCAnLXRuJywgJzgnLCAnLW1hJywgJzIwMCcsICctbWV0YWxfYmluZGluZycsICctaW1hZScsICc8aW5maWxlLm1hZT4nLCAnLW9tYWUnLCAnPG91dGZpbGUubWFlPic=

> <r_lp_tautomer_probability>
1

> <r_epik_Ionization_Penalty>
6.47102e-07

> <r_epik_Ionization_Penalty_Charging>
6.8576e-09

> <r_epik_Ionization_Penalty_Neutral>
6.40245e-07

> <r_epik_State_Penalty>
-0

> <r_epik_Charging_Adjusted_Penalty>
6.8576e-09

> <i_epik_Tot_Q>
0

> <i_epik_Tot_abs_Q>
0

> <r_epik_Metal_State_Penalty>
-0

> <b_epik_Metal_Only>
0

> <s_lp_Force_Field>
OPLS_2005

> <r_lp_Energy>
29.5472

> <b_lp_Chiralities_Consistent>
1

> <s_lp_Variant>
AV-unprocessed.smi:326-1

> <Gold.Version>
5.8.1

> <Gold.Id.Protein>
6NUR|6NUR_protein|mol2

> <Gold.PLP.Fitness>
42.0924

> <Gold.PLP.PLP>
-41.3195

> <Gold.PLP.part.hbond>
-2.0000

> <Gold.PLP.part.metal>
0.0000

> <Gold.PLP.part.buried>
-1.2564

> <Gold.PLP.part.nonpolar>
-36.3700

> <Gold.PLP.part.repulsive>
0.2447

> <Gold.PLP.ligand.clash>
0.0000

> <Gold.PLP.ligand.torsion>
1.1288

> <Gold.PLP.Chemscore.Hbond>
1.0000

> <Gold.PLP.Chemscore.CHOScore>
0.0000

> <Gold.PLP.Chemscore.Metal>
0.0000

> <Gold.Chemscore.Hbonds>
donor molecule, donor type, donor heavy atom, donor atom, acceptor molecule, acceptor atom, score
      P1  H  7997  8010       L1     2  0.95

> <Gold.PLP.Chemscore.Internal.Correction>
0.0304

> <Gold.Rescore>
     Score         DG    S(hbond)    S(metal)    S(lipo)     H(rot)  DE(clash)    DE(int)     intcor
     13.19     -14.57       0.48        0.00      97.97       1.55       0.26       1.12       ----

> <Gold.Chemscore.Fitness>
13.1897

> <Gold.Chemscore.DG>
-14.5690

> <Gold.Chemscore.ZeroCoef>
-5.4800

> <Gold.Chemscore.Hbond>
0.4757

> <Gold.Chemscore.Metal>
0.0000

> <Gold.Chemscore.Lipo>
97.9698

> <Gold.Chemscore.Internal_Hbond>
0.0000

> <Gold.Chemscore.DEClash>
0.2626

> <Gold.Chemscore.DEInternal>
1.1168

> <Gold.Chemscore.Rot>
1.5478

> <Gold.Chemscore.Internal.Correction>
   9.000000E+99

> <Gold.Chemscore.Hbonds>
donor molecule, donor type, donor heavy atom, donor atom, acceptor molecule, acceptor atom, score
      P1  H  7997  8010       L1     2  0.20

> <Gold.Chemscore.Hbond.Weighted>
-1.5888

> <Gold.Chemscore.Metal.Weighted>
-0.0000

> <Gold.Chemscore.Lipo.Weighted>
-11.4625

> <Gold.Chemscore.Internal_Hbond.Weighted>
0.0000

> <Gold.Chemscore.DEClash.Weighted>
0.2626

> <Gold.Chemscore.DEInternal.Weighted>
1.1168

> <Gold.Chemscore.Rot.Weighted>
3.9623

> <Gold.Chemscore.Internal.Correction.Weighted>
   9.000000E+99

> <Gold.Protein.RotatedTorsions>
[ 6907 6896 6895 6894 ] final  -51.57 input  -60.11 | X-H torsion
[ 7974 7965 7964 7962 ] final  -22.90 input  175.53 | X-H torsion
[ 8008 7997 7996 7995 ] final  -20.64 input   59.86 | X-H torsion
[ 10167 10162 10161 10158 ] final  110.70 input  -65.29 | X-H torsion
[ 10718 10713 10712 10709 ] final   70.86 input   66.30 | X-H torsion
[ 10763 10752 10751 10750 ] final   31.33 input  -60.55 | X-H torsion
[ 11005 11000 10999 10996 ] final  -28.16 input  -57.11 | X-H torsion

> <Gold.Protein.ActiveResidues>
 VAL166  LYS551  ARG553  GLY616  TRP617  ASP618  TYR619  PRO620  LYS621  CYS622 
 ASP623  PHE694  ASN695  SER759  ASP760  ASP761  ALA762  ILE779  LEU786  VAL792 
 PHE793  MET794  SER795  GLU796  ALA797  LYS798  CYS799  TRP800  GLU811  SER814 

> <Gold.Protein.RotatedAtoms>
  150.8599  134.7948  159.7074 H   0  0  0  0  0  0  0  0  0  0  0  0  # atno 6907 bound_to 6896
  152.4639  134.5117  159.9765 H   0  0  0  0  0  0  0  0  0  0  0  0  # atno 6908 bound_to 6896
  151.5223  133.3426  159.2939 H   0  0  0  0  0  0  0  0  0  0  0  0  # atno 6909 bound_to 6896
  146.1648  140.4542  142.8556 H   0  0  0  0  0  0  0  0  0  0  0  0  # atno 7974 bound_to 7965
  154.4757  140.2056  155.9885 H   0  0  0  0  0  0  0  0  0  0  0  0  # atno 8008 bound_to 7997
  156.1084  140.3233  155.8009 H   0  0  0  0  0  0  0  0  0  0  0  0  # atno 8009 bound_to 7997
  155.4677  140.0529  157.2974 H   0  0  0  0  0  0  0  0  0  0  0  0  # atno 8010 bound_to 7997
  139.6668  144.7127  151.1761 H   0  0  0  0  0  0  0  0  0  0  0  0  # atno 10167 bound_to 10162
  157.6422  130.9499  150.0709 H   0  0  0  0  0  0  0  0  0  0  0  0  # atno 10718 bound_to 10713
  153.0321  135.6441  154.1183 H   0  0  0  0  0  0  0  0  0  0  0  0  # atno 10763 bound_to 10752
  154.0903  135.2867  155.3274 H   0  0  0  0  0  0  0  0  0  0  0  0  # atno 10764 bound_to 10752
  154.6469  135.5440  153.7919 H   0  0  0  0  0  0  0  0  0  0  0  0  # atno 10765 bound_to 10752
  140.9184  133.7415  156.0766 H   0  0  0  0  0  0  0  0  0  0  0  0  # atno 11005 bound_to 11000
  144.8077  140.6330  143.6436 LP  0  0  0  0  0  0  0  0  0  0  0  0  # atno 17320 bound_to 7965
  145.4495  139.1525  143.3926 LP  0  0  0  0  0  0  0  0  0  0  0  0  # atno 17321 bound_to 7965
  140.7602  143.5906  150.8800 LP  0  0  0  0  0  0  0  0  0  0  0  0  # atno 17342 bound_to 10162
  139.9568  143.6209  152.3013 LP  0  0  0  0  0  0  0  0  0  0  0  0  # atno 17343 bound_to 10162
  156.1713  130.3646  149.9161 LP  0  0  0  0  0  0  0  0  0  0  0  0  # atno 17370 bound_to 10713
  156.7135  130.8979  151.3611 LP  0  0  0  0  0  0  0  0  0  0  0  0  # atno 17371 bound_to 10713
  140.8020  134.3497  157.5436 LP  0  0  0  0  0  0  0  0  0  0  0  0  # atno 17394 bound_to 11000
  139.8770  134.9203  156.3249 LP  0  0  0  0  0  0  0  0  0  0  0  0  # atno 17395 bound_to 11000

$$$$
