AV-unprocessed.smi:2138|AV-procd|sdf|8711|dock8
  -GOLD-   2272011473D 1   1.00000     0.00000
 Structure written by MMmdl.
 46 47  0  0  0  0  0  0  0  0  1 V2000
  152.6389  142.9394  159.9653 C   0  0  0  0  0  0  0  0  0  0  0  0
  152.8191  142.3637  158.6833 O   0  0  0  0  0  0  0  0  0  0  0  0
  151.6881  142.5383  157.8466 C   0  0  0  0  0  0  0  0  0  0  0  0
  151.0715  141.1692  157.5476 C   0  0  0  0  0  0  0  0  0  0  0  0
  151.2987  140.8551  156.1769 O   0  0  0  0  0  0  0  0  0  0  0  0
  151.1045  139.5546  155.7579 C   0  0  0  0  0  0  0  0  0  0  0  0
  150.4007  138.6725  156.6012 C   0  0  0  0  0  0  0  0  0  0  0  0
  150.1929  137.3449  156.1798 C   0  0  0  0  0  0  0  0  0  0  0  0
  150.7050  136.9369  154.9240 C   0  0  0  0  0  0  0  0  0  0  0  0
  150.5554  135.6370  154.3664 N   0  0  0  0  0  0  0  0  0  0  0  0
  149.7389  134.6336  154.7387 C   0  0  0  0  0  0  0  0  0  0  0  0
  148.9617  134.6755  155.6921 O   0  0  0  0  0  0  0  0  0  0  0  0
  149.8276  133.3554  153.8887 C   0  0  1  0  0  0  0  0  0  0  0  0
  149.8981  132.0911  154.7658 C   0  0  0  0  0  0  0  0  0  0  0  0
  148.5813  131.3810  154.4988 C   0  0  0  0  0  0  0  0  0  0  0  0
  148.2472  130.3639  155.1046 O   0  0  0  0  0  0  0  0  0  0  0  0
  147.8732  132.0119  153.5506 N   0  0  0  0  0  0  0  0  0  0  0  0
  146.5543  131.6501  153.0160 C   0  0  0  0  0  0  0  0  0  0  0  0
  146.5071  130.1764  152.5758 C   0  0  0  0  0  0  0  0  0  0  0  0
  146.1199  132.6051  151.8907 C   0  0  0  0  0  0  0  0  0  0  0  0
  148.5827  133.1558  152.9986 C   0  0  0  0  0  0  0  0  0  0  0  0
  151.3906  137.8996  154.1544 C   0  0  0  0  0  0  0  0  0  0  0  0
  151.5919  139.1735  154.5517 N   0  0  0  0  0  0  0  0  0  0  0  0
  153.5342  142.7815  160.5667 H   0  0  0  0  0  0  0  0  0  0  0  0
  151.7974  142.4830  160.4880 H   0  0  0  0  0  0  0  0  0  0  0  0
  152.4662  144.0142  159.8947 H   0  0  0  0  0  0  0  0  0  0  0  0
  150.9536  143.1798  158.3359 H   0  0  0  0  0  0  0  0  0  0  0  0
  151.9843  143.0247  156.9158 H   0  0  0  0  0  0  0  0  0  0  0  0
  151.5287  140.4138  158.1889 H   0  0  0  0  0  0  0  0  0  0  0  0
  150.0016  141.1935  157.7619 H   0  0  0  0  0  0  0  0  0  0  0  0
  150.0206  139.0103  157.5542 H   0  0  0  0  0  0  0  0  0  0  0  0
  149.6385  136.6820  156.8243 H   0  0  0  0  0  0  0  0  0  0  0  0
  151.1737  135.4303  153.5952 H   0  0  0  0  0  0  0  0  0  0  0  0
  150.7159  133.4088  153.2568 H   0  0  0  0  0  0  0  0  0  0  0  0
  150.7250  131.4483  154.4624 H   0  0  0  0  0  0  0  0  0  0  0  0
  150.0086  132.3001  155.8312 H   0  0  0  0  0  0  0  0  0  0  0  0
  145.8325  131.7634  153.8264 H   0  0  0  0  0  0  0  0  0  0  0  0
  145.4975  129.8929  152.2780 H   0  0  0  0  0  0  0  0  0  0  0  0
  146.8084  129.5146  153.3886 H   0  0  0  0  0  0  0  0  0  0  0  0
  147.1637  129.9831  151.7273 H   0  0  0  0  0  0  0  0  0  0  0  0
  145.0985  132.3932  151.5736 H   0  0  0  0  0  0  0  0  0  0  0  0
  146.7590  132.5157  151.0121 H   0  0  0  0  0  0  0  0  0  0  0  0
  146.1511  133.6431  152.2233 H   0  0  0  0  0  0  0  0  0  0  0  0
  147.9332  134.0330  152.9735 H   0  0  0  0  0  0  0  0  0  0  0  0
  148.8745  132.9352  151.9710 H   0  0  0  0  0  0  0  0  0  0  0  0
  151.7930  137.6413  153.1858 H   0  0  0  0  0  0  0  0  0  0  0  0
  1  2  1  0  0  0  0
  1 24  1  0  0  0  0
  1 25  1  0  0  0  0
  1 26  1  0  0  0  0
  2  3  1  0  0  0  0
  3  4  1  0  0  0  0
  3 27  1  0  0  0  0
  3 28  1  0  0  0  0
  4  5  1  0  0  0  0
  4 29  1  0  0  0  0
  4 30  1  0  0  0  0
  5  6  1  0  0  0  0
  6 23  1  0  0  0  0
  6  7  2  0  0  0  0
  7  8  1  0  0  0  0
  7 31  1  0  0  0  0
  8  9  2  0  0  0  0
  8 32  1  0  0  0  0
  9 10  1  0  0  0  0
  9 22  1  0  0  0  0
 10 11  1  0  0  0  0
 10 33  1  0  0  0  0
 11 12  2  0  0  0  0
 11 13  1  0  0  0  0
 13 21  1  0  0  0  0
 13 14  1  0  0  0  0
 13 34  1  0  0  0  0
 14 15  1  0  0  0  0
 14 35  1  0  0  0  0
 14 36  1  0  0  0  0
 15 16  2  0  0  0  0
 15 17  1  0  0  0  0
 17 18  1  0  0  0  0
 17 21  1  0  0  0  0
 18 19  1  0  0  0  0
 18 20  1  0  0  0  0
 18 37  1  0  0  0  0
 19 38  1  0  0  0  0
 19 39  1  0  0  0  0
 19 40  1  0  0  0  0
 20 41  1  0  0  0  0
 20 42  1  0  0  0  0
 20 43  1  0  0  0  0
 21 44  1  0  0  0  0
 21 45  1  0  0  0  0
 22 23  2  0  0  0  0
 22 46  1  0  0  0  0
M  END
> <s_m_source_file>
AV-unprocessed.smi

> <i_m_source_file_index>
2138

> <i_lp_mmshare_version>
43012

> <i_f3d_flags>
0

> <s_epik_input>
W0NIM11PW0NIMl1bQ0gyXU9jMVtjSF1bY0hdYyhbY0hdbjEpW05IXUMoPU8pW0NAQEhdMltDSDJdQyg9TylOKFtDSDJdMilbQ0hdKFtDSDNdKVtDSDNd

> <s_epik_cmdline>
J2VwaWtfcHl0aG9uJywgJy1waCcsICc3LjAnLCAnLXRuJywgJzgnLCAnLW1hJywgJzIwMCcsICctbWV0YWxfYmluZGluZycsICctaW1hZScsICc8aW5maWxlLm1hZT4nLCAnLW9tYWUnLCAnPG91dGZpbGUubWFlPic=

> <r_lp_tautomer_probability>
1

> <r_epik_Ionization_Penalty>
1.72652e-05

> <r_epik_Ionization_Penalty_Charging>
0

> <r_epik_Ionization_Penalty_Neutral>
1.72652e-05

> <r_epik_State_Penalty>
-0

> <r_epik_Charging_Adjusted_Penalty>
0

> <i_epik_Tot_Q>
0

> <i_epik_Tot_abs_Q>
0

> <r_epik_Metal_State_Penalty>
-0

> <b_epik_Metal_Only>
0

> <s_lp_Force_Field>
OPLS_2005

> <r_lp_Energy>
21.5992

> <b_lp_Chiralities_Consistent>
1

> <s_lp_Variant>
AV-unprocessed.smi:2138-2

> <Gold.Version>
5.8.1

> <Gold.Id.Protein>
6NUR|6NUR_protein|mol2

> <Gold.PLP.Fitness>
43.0241

> <Gold.PLP.PLP>
-37.5984

> <Gold.PLP.part.hbond>
-3.0000

> <Gold.PLP.part.metal>
0.0000

> <Gold.PLP.part.buried>
-3.2445

> <Gold.PLP.part.nonpolar>
-29.4250

> <Gold.PLP.part.repulsive>
0.2867

> <Gold.PLP.ligand.clash>
0.0000

> <Gold.PLP.ligand.torsion>
1.3525

> <Gold.PLP.Chemscore.Hbond>
1.6794

> <Gold.PLP.Chemscore.CHOScore>
1.0000

> <Gold.PLP.Chemscore.Metal>
0.0000

> <Gold.Chemscore.Hbonds>
donor molecule, donor type, donor heavy atom, donor atom, acceptor molecule, acceptor atom, score
      L1  H    10    33       P1  7949  0.46
      P1  H  7989  7998       L1    23  1.00
      L1  C    22    46       P1  7949  1.00

> <Gold.PLP.Chemscore.Internal.Correction>
0.0926

> <Gold.Rescore>
     Score         DG    S(hbond)    S(metal)    S(lipo)     H(rot)  DE(clash)    DE(int)     intcor
     10.01     -13.54       1.05        0.00      82.73       2.00       0.12       3.41       ----

> <Gold.Chemscore.Fitness>
10.0068

> <Gold.Chemscore.DG>
-13.5407

> <Gold.Chemscore.ZeroCoef>
-5.4800

> <Gold.Chemscore.Hbond>
1.0509

> <Gold.Chemscore.Metal>
0.0000

> <Gold.Chemscore.Lipo>
82.7317

> <Gold.Chemscore.Internal_Hbond>
0.0000

> <Gold.Chemscore.DEClash>
0.1222

> <Gold.Chemscore.DEInternal>
3.4116

> <Gold.Chemscore.Rot>
2.0035

> <Gold.Chemscore.Internal.Correction>
   9.000000E+99

> <Gold.Chemscore.Hbonds>
donor molecule, donor type, donor heavy atom, donor atom, acceptor molecule, acceptor atom, score
      L1  H    10    33       P1  7949  0.12
      P1  H  7989  7998       L1    23  0.48

> <Gold.Chemscore.Hbond.Weighted>
-3.5101

> <Gold.Chemscore.Metal.Weighted>
-0.0000

> <Gold.Chemscore.Lipo.Weighted>
-9.6796

> <Gold.Chemscore.Internal_Hbond.Weighted>
0.0000

> <Gold.Chemscore.DEClash.Weighted>
0.1222

> <Gold.Chemscore.DEInternal.Weighted>
3.4116

> <Gold.Chemscore.Rot.Weighted>
5.1290

> <Gold.Chemscore.Internal.Correction.Weighted>
   9.000000E+99

> <Gold.Protein.RotatedTorsions>
[ 6907 6896 6895 6894 ] final -159.40 input  -60.11 | X-H torsion
[ 7974 7965 7964 7962 ] final  102.89 input  175.53 | X-H torsion
[ 8008 7997 7996 7995 ] final -105.09 input   59.86 | X-H torsion
[ 10167 10162 10161 10158 ] final   -2.56 input  -65.29 | X-H torsion
[ 10718 10713 10712 10709 ] final   80.27 input   66.30 | X-H torsion
[ 10763 10752 10751 10750 ] final  -52.52 input  -60.55 | X-H torsion
[ 11005 11000 10999 10996 ] final   96.92 input  -57.11 | X-H torsion

> <Gold.Protein.ActiveResidues>
 VAL166  LYS551  ARG553  GLY616  TRP617  ASP618  TYR619  PRO620  LYS621  CYS622 
 ASP623  PHE694  ASN695  SER759  ASP760  ASP761  ALA762  ILE779  LEU786  VAL792 
 PHE793  MET794  SER795  GLU796  ALA797  LYS798  CYS799  TRP800  GLU811  SER814 

> <Gold.Protein.RotatedAtoms>
  151.3330  133.3993  159.2664 H   0  0  0  0  0  0  0  0  0  0  0  0  # atno 6907 bound_to 6896
  150.9940  134.9269  159.7926 H   0  0  0  0  0  0  0  0  0  0  0  0  # atno 6908 bound_to 6896
  152.5255  134.3295  159.9230 H   0  0  0  0  0  0  0  0  0  0  0  0  # atno 6909 bound_to 6896
  145.3531  139.2435  143.3547 H   0  0  0  0  0  0  0  0  0  0  0  0  # atno 7974 bound_to 7965
  154.8947  140.0415  157.1859 H   0  0  0  0  0  0  0  0  0  0  0  0  # atno 8008 bound_to 7997
  154.8504  140.2928  155.5581 H   0  0  0  0  0  0  0  0  0  0  0  0  # atno 8009 bound_to 7997
  156.2996  140.2466  156.3462 H   0  0  0  0  0  0  0  0  0  0  0  0  # atno 8010 bound_to 7997
  140.6856  143.6642  150.8240 H   0  0  0  0  0  0  0  0  0  0  0  0  # atno 10167 bound_to 10162
  157.6801  130.9952  150.2054 H   0  0  0  0  0  0  0  0  0  0  0  0  # atno 10718 bound_to 10713
  154.1440  135.6500  153.4948 H   0  0  0  0  0  0  0  0  0  0  0  0  # atno 10763 bound_to 10752
  153.0157  135.5322  154.6875 H   0  0  0  0  0  0  0  0  0  0  0  0  # atno 10764 bound_to 10752
  154.6145  135.2957  155.0366 H   0  0  0  0  0  0  0  0  0  0  0  0  # atno 10765 bound_to 10752
  139.8779  134.8975  156.4230 H   0  0  0  0  0  0  0  0  0  0  0  0  # atno 11005 bound_to 11000
  146.2959  140.4151  142.8722 LP  0  0  0  0  0  0  0  0  0  0  0  0  # atno 17320 bound_to 7965
  144.8703  140.7262  143.6051 LP  0  0  0  0  0  0  0  0  0  0  0  0  # atno 17321 bound_to 7965
  140.0349  143.5406  152.2744 LP  0  0  0  0  0  0  0  0  0  0  0  0  # atno 17342 bound_to 10162
  139.6212  144.7629  151.2737 LP  0  0  0  0  0  0  0  0  0  0  0  0  # atno 17343 bound_to 10162
  156.2736  130.3725  149.8006 LP  0  0  0  0  0  0  0  0  0  0  0  0  # atno 17370 bound_to 10713
  156.5715  130.8427  151.3358 LP  0  0  0  0  0  0  0  0  0  0  0  0  # atno 17371 bound_to 10713
  140.9120  133.7705  155.9803 LP  0  0  0  0  0  0  0  0  0  0  0  0  # atno 17394 bound_to 11000
  140.8535  134.2926  157.5265 LP  0  0  0  0  0  0  0  0  0  0  0  0  # atno 17395 bound_to 11000

$$$$
