AV-unprocessed.smi:798|AV-procd|sdf|3776|dock2
  -GOLD-   22720 1203D 1   1.00000     0.00000
 Structure written by MMmdl.
 34 36  0  0  0  0  0  0  0  0  1 V2000
  145.8442  138.7295  153.7383 O   0  0  0  0  0  0  0  0  0  0  0  0
  146.7041  137.9799  153.2747 C   0  0  0  0  0  0  0  0  0  0  0  0
  148.0289  138.2100  153.2902 N   0  0  0  0  0  0  0  0  0  0  0  0
  148.7234  139.3189  153.8419 C   0  0  0  0  0  0  0  0  0  0  0  0
  149.9906  139.2609  154.2807 N   0  0  0  0  0  0  0  0  0  0  0  0
  150.4280  140.4854  154.7691 N   0  0  0  0  0  0  0  0  0  0  0  0
  149.4745  141.4170  154.6802 C   0  0  0  0  0  0  0  0  0  0  0  0
  147.9484  140.8895  153.9925 S   0  0  0  0  0  0  0  0  0  0  0  0
  146.4229  136.8114  152.6821 N   0  0  0  0  0  0  0  0  0  0  0  0
  145.0801  136.2559  152.5277 C   0  0  1  0  0  0  0  0  0  0  0  0
  144.8479  135.5597  151.1627 C   0  0  1  0  0  0  0  0  0  0  0  0
  145.9538  134.5260  150.8590 C   0  0  0  0  0  0  0  0  0  0  0  0
  145.6626  133.4114  151.8809 C   0  0  0  0  0  0  0  0  0  0  0  0
  144.4153  133.9399  152.6160 C   0  0  2  0  0  0  0  0  0  0  0  0
  143.6736  134.6447  151.4856 C   0  0  0  0  0  0  0  0  0  0  0  0
  144.8221  135.1100  153.5418 C   0  0  2  0  0  0  0  0  0  0  0  0
  143.7426  135.4481  154.5876 C   0  0  0  0  0  0  0  0  0  0  0  0
  143.5454  134.3524  155.4563 O   0  0  0  0  0  0  0  0  0  0  0  0
  148.6110  137.5012  152.8689 H   0  0  0  0  0  0  0  0  0  0  0  0
  149.6712  142.4222  155.0222 H   0  0  0  0  0  0  0  0  0  0  0  0
  147.1884  136.2562  152.3288 H   0  0  0  0  0  0  0  0  0  0  0  0
  144.3426  137.0504  152.6597 H   0  0  0  0  0  0  0  0  0  0  0  0
  144.6689  136.2566  150.3433 H   0  0  0  0  0  0  0  0  0  0  0  0
  145.8482  134.1440  149.8429 H   0  0  0  0  0  0  0  0  0  0  0  0
  146.9630  134.9274  150.9501 H   0  0  0  0  0  0  0  0  0  0  0  0
  145.4441  132.4729  151.3700 H   0  0  0  0  0  0  0  0  0  0  0  0
  146.5011  133.2353  152.5560 H   0  0  0  0  0  0  0  0  0  0  0  0
  143.8496  133.1546  153.1186 H   0  0  0  0  0  0  0  0  0  0  0  0
  142.7825  135.1828  151.8122 H   0  0  0  0  0  0  0  0  0  0  0  0
  143.4033  133.9798  150.6633 H   0  0  0  0  0  0  0  0  0  0  0  0
  145.7347  134.8388  154.0764 H   0  0  0  0  0  0  0  0  0  0  0  0
  144.0131  136.3267  155.1734 H   0  0  0  0  0  0  0  0  0  0  0  0
  142.7953  135.6686  154.0950 H   0  0  0  0  0  0  0  0  0  0  0  0
  143.2163  133.6240  154.9518 H   0  0  0  0  0  0  0  0  0  0  0  0
  1  2  2  0  0  0  0
  2  3  1  0  0  0  0
  2  9  1  0  0  0  0
  3  4  1  0  0  0  0
  3 19  1  0  0  0  0
  4  8  1  0  0  0  0
  4  5  2  0  0  0  0
  5  6  1  0  0  0  0
  6  7  2  0  0  0  0
  7  8  1  0  0  0  0
  7 20  1  0  0  0  0
  9 10  1  0  0  0  0
  9 21  1  0  0  0  0
 10 16  1  0  0  0  0
 10 11  1  0  0  0  0
 10 22  1  0  0  0  0
 11 15  1  0  0  0  0
 11 12  1  0  0  0  0
 11 23  1  0  0  0  0
 12 13  1  0  0  0  0
 12 24  1  0  0  0  0
 12 25  1  0  0  0  0
 13 14  1  0  0  0  0
 13 26  1  0  0  0  0
 13 27  1  0  0  0  0
 14 15  1  0  0  0  0
 14 16  1  0  0  0  0
 14 28  1  0  0  0  0
 15 29  1  0  0  0  0
 15 30  1  0  0  0  0
 16 17  1  0  0  0  0
 16 31  1  0  0  0  0
 17 18  1  0  0  0  0
 17 32  1  0  0  0  0
 17 33  1  0  0  0  0
 18 34  1  0  0  0  0
M  END
> <s_m_source_file>
AV-unprocessed.smi

> <i_m_source_file_index>
798

> <i_lp_mmshare_version>
43012

> <i_f3d_flags>
0

> <s_epik_input>
W0NIMl0xW0NIMl1bQ0BASF0oW0NIMl0yKVtDQEBIXShbQ0gyXVtPSF0pW0NAQEhdKFtDQEhdMTIpW05IXUMoPU8pW05IXWMzbm5bY0hdczM=

> <s_epik_cmdline>
J2VwaWtfcHl0aG9uJywgJy1waCcsICc3LjAnLCAnLXRuJywgJzgnLCAnLW1hJywgJzIwMCcsICctbWV0YWxfYmluZGluZycsICctaW1hZScsICc8aW5maWxlLm1hZT4nLCAnLW9tYWUnLCAnPG91dGZpbGUubWFlPic=

> <r_lp_tautomer_probability>
1

> <r_epik_Ionization_Penalty>
0.000329046

> <r_epik_Ionization_Penalty_Charging>
0

> <r_epik_Ionization_Penalty_Neutral>
0.000329046

> <r_epik_State_Penalty>
-0

> <r_epik_Charging_Adjusted_Penalty>
0

> <i_epik_Tot_Q>
0

> <i_epik_Tot_abs_Q>
0

> <r_epik_Metal_State_Penalty>
0.173433

> <b_epik_Metal_Only>
0

> <s_lp_Force_Field>
OPLS_2005

> <r_lp_Energy>
48.2964

> <b_lp_Chiralities_Consistent>
1

> <s_lp_Variant>
AV-unprocessed.smi:798-8

> <Gold.Version>
5.8.1

> <Gold.Id.Protein>
6NUR|6NUR_protein|mol2

> <Gold.PLP.Fitness>
38.6991

> <Gold.PLP.PLP>
-24.8219

> <Gold.PLP.part.hbond>
-4.3177

> <Gold.PLP.part.metal>
0.0000

> <Gold.PLP.part.buried>
-2.5539

> <Gold.PLP.part.nonpolar>
-18.4396

> <Gold.PLP.part.repulsive>
0.9004

> <Gold.PLP.ligand.clash>
0.0000

> <Gold.PLP.ligand.torsion>
0.4113

> <Gold.PLP.Chemscore.Hbond>
3.8940

> <Gold.PLP.Chemscore.CHOScore>
1.0000

> <Gold.PLP.Chemscore.Metal>
0.0000

> <Gold.Chemscore.Hbonds>
donor molecule, donor type, donor heavy atom, donor atom, acceptor molecule, acceptor atom, score
      L1  H     3    19       P1  7948  1.00
      L1  H     9    21       P1  7948  0.94
      L1  H    18    34       P1 10957  1.00
      P1  H  7989  7998       L1     6  0.95
      L1  C     7    20       P1  8028  1.00

> <Gold.PLP.Chemscore.Internal.Correction>
0.0178

> <Gold.Rescore>
     Score         DG    S(hbond)    S(metal)    S(lipo)     H(rot)  DE(clash)    DE(int)     intcor
     14.81     -16.36       3.05        0.00      48.55       1.94       0.10       1.45       ----

> <Gold.Chemscore.Fitness>
14.8150

> <Gold.Chemscore.DG>
-16.3640

> <Gold.Chemscore.ZeroCoef>
-5.4800

> <Gold.Chemscore.Hbond>
3.0480

> <Gold.Chemscore.Metal>
0.0000

> <Gold.Chemscore.Lipo>
48.5517

> <Gold.Chemscore.Internal_Hbond>
0.0000

> <Gold.Chemscore.DEClash>
0.0958

> <Gold.Chemscore.DEInternal>
1.4532

> <Gold.Chemscore.Rot>
1.9442

> <Gold.Chemscore.Internal.Correction>
   9.000000E+99

> <Gold.Chemscore.Hbonds>
donor molecule, donor type, donor heavy atom, donor atom, acceptor molecule, acceptor atom, score
      L1  H     3    19       P1  7948  0.98
      L1  H     9    21       P1  7948  0.91
      L1  H    18    34       P1 10957  0.95
      P1  H  7989  7998       L1     6  0.11

> <Gold.Chemscore.Hbond.Weighted>
-10.1805

> <Gold.Chemscore.Metal.Weighted>
-0.0000

> <Gold.Chemscore.Lipo.Weighted>
-5.6805

> <Gold.Chemscore.Internal_Hbond.Weighted>
0.0000

> <Gold.Chemscore.DEClash.Weighted>
0.0958

> <Gold.Chemscore.DEInternal.Weighted>
1.4532

> <Gold.Chemscore.Rot.Weighted>
4.9771

> <Gold.Chemscore.Internal.Correction.Weighted>
   9.000000E+99

> <Gold.Protein.RotatedTorsions>
[ 6907 6896 6895 6894 ] final  120.40 input  -60.11 | X-H torsion
[ 7974 7965 7964 7962 ] final  -65.56 input  175.53 | X-H torsion
[ 8008 7997 7996 7995 ] final  160.89 input   59.86 | X-H torsion
[ 10167 10162 10161 10158 ] final -145.77 input  -65.29 | X-H torsion
[ 10718 10713 10712 10709 ] final   78.40 input   66.30 | X-H torsion
[ 10763 10752 10751 10750 ] final   37.03 input  -60.55 | X-H torsion
[ 11005 11000 10999 10996 ] final  102.97 input  -57.11 | X-H torsion

> <Gold.Protein.ActiveResidues>
 VAL166  LYS551  ARG553  GLY616  TRP617  ASP618  TYR619  PRO620  LYS621  CYS622 
 ASP623  PHE694  ASN695  SER759  ASP760  ASP761  ALA762  ILE779  LEU786  VAL792 
 PHE793  MET794  SER795  GLU796  ALA797  LYS798  CYS799  TRP800  GLU811  SER814 

> <Gold.Protein.RotatedAtoms>
  152.4401  133.7432  159.6652 H   0  0  0  0  0  0  0  0  0  0  0  0  # atno 6907 bound_to 6896
  150.8290  133.8112  159.3112 H   0  0  0  0  0  0  0  0  0  0  0  0  # atno 6908 bound_to 6896
  151.5771  135.1062  160.0060 H   0  0  0  0  0  0  0  0  0  0  0  0  # atno 6909 bound_to 6896
  145.7527  140.8900  143.0471 H   0  0  0  0  0  0  0  0  0  0  0  0  # atno 7974 bound_to 7965
  156.2141  140.1792  156.7629 H   0  0  0  0  0  0  0  0  0  0  0  0  # atno 8008 bound_to 7997
  154.5765  140.0673  156.9071 H   0  0  0  0  0  0  0  0  0  0  0  0  # atno 8009 bound_to 7997
  155.2578  140.3333  155.4278 H   0  0  0  0  0  0  0  0  0  0  0  0  # atno 8010 bound_to 7997
  139.7775  143.8149  152.2634 H   0  0  0  0  0  0  0  0  0  0  0  0  # atno 10167 bound_to 10162
  157.6743  130.9866  150.1781 H   0  0  0  0  0  0  0  0  0  0  0  0  # atno 10718 bound_to 10713
  153.0053  135.6289  154.2080 H   0  0  0  0  0  0  0  0  0  0  0  0  # atno 10763 bound_to 10752
  154.1823  135.2813  155.3050 H   0  0  0  0  0  0  0  0  0  0  0  0  # atno 10764 bound_to 10752
  154.5824  135.5643  153.7258 H   0  0  0  0  0  0  0  0  0  0  0  0  # atno 10765 bound_to 10752
  139.8780  134.9245  156.5139 H   0  0  0  0  0  0  0  0  0  0  0  0  # atno 11005 bound_to 11000
  144.6846  139.9614  143.7480 LP  0  0  0  0  0  0  0  0  0  0  0  0  # atno 17320 bound_to 7965
  146.0341  139.3361  143.0737 LP  0  0  0  0  0  0  0  0  0  0  0  0  # atno 17321 bound_to 7965
  139.8202  144.7299  150.9583 LP  0  0  0  0  0  0  0  0  0  0  0  0  # atno 17342 bound_to 10162
  140.7817  143.4167  151.0907 LP  0  0  0  0  0  0  0  0  0  0  0  0  # atno 17343 bound_to 10162
  156.2519  130.3701  149.8223 LP  0  0  0  0  0  0  0  0  0  0  0  0  # atno 17370 bound_to 10713
  156.5993  130.8540  151.3428 LP  0  0  0  0  0  0  0  0  0  0  0  0  # atno 17371 bound_to 10713
  140.8500  133.8139  155.9159 LP  0  0  0  0  0  0  0  0  0  0  0  0  # atno 17394 bound_to 11000
  140.9153  134.2209  157.4960 LP  0  0  0  0  0  0  0  0  0  0  0  0  # atno 17395 bound_to 11000

$$$$
