AV-unprocessed.smi:632|AV-procd|sdf|3126|dock5
  -GOLD-   22720 0 43D 1   1.00000     0.00000
 Structure written by MMmdl.
 42 43  0  0  0  0  0  0  0  0  1 V2000
  152.9416  131.7366  157.2741 C   0  0  0  0  0  0  0  0  0  0  0  0
  151.5080  131.2159  157.0528 C   0  0  0  0  0  0  0  0  0  0  0  0
  151.6141  129.8504  156.3389 C   0  0  0  0  0  0  0  0  0  0  0  0
  150.8028  130.9787  158.4024 C   0  0  0  0  0  0  0  0  0  0  0  0
  150.7214  132.2109  156.2309 C   0  0  0  0  0  0  0  0  0  0  0  0
  150.5265  133.4729  156.6429 N   0  0  0  0  0  0  0  0  0  0  0  0
  149.7824  134.2239  155.7454 N   0  0  0  0  0  0  0  0  0  0  0  0
  149.4275  133.5105  154.6696 C   0  0  0  0  0  0  0  0  0  0  0  0
  148.6635  134.0336  153.5926 N   0  0  0  0  0  0  0  0  0  0  0  0
  147.5601  133.5139  153.0257 C   0  0  0  0  0  0  0  0  0  0  0  0
  147.0247  132.4541  153.3512 O   0  0  0  0  0  0  0  0  0  0  0  0
  147.1034  134.3001  152.0397 N   0  0  0  0  0  0  0  0  0  0  0  0
  145.9255  134.0241  151.2220 C   0  0  2  0  0  0  0  0  0  0  0  0
  144.7095  133.6919  152.1123 C   0  0  0  0  0  0  0  0  0  0  0  0
  143.4774  133.3292  151.2672 C   0  0  0  0  0  0  0  0  0  0  0  0
  143.7874  132.1732  150.3008 C   0  0  1  0  0  0  0  0  0  0  0  0
  142.6578  131.9187  149.4929 O   0  0  0  0  0  0  0  0  0  0  0  0
  144.9936  132.5088  149.4070 C   0  0  0  0  0  0  0  0  0  0  0  0
  146.2264  132.8653  150.2532 C   0  0  0  0  0  0  0  0  0  0  0  0
  149.9817  131.8469  154.6664 S   0  0  0  0  0  0  0  0  0  0  0  0
  153.5368  131.0304  157.8540 H   0  0  0  0  0  0  0  0  0  0  0  0
  152.9446  132.6828  157.8165 H   0  0  0  0  0  0  0  0  0  0  0  0
  153.4556  131.9003  156.3261 H   0  0  0  0  0  0  0  0  0  0  0  0
  152.1193  129.9367  155.3761 H   0  0  0  0  0  0  0  0  0  0  0  0
  150.6318  129.4106  156.1624 H   0  0  0  0  0  0  0  0  0  0  0  0
  152.1823  129.1353  156.9351 H   0  0  0  0  0  0  0  0  0  0  0  0
  151.3414  130.2509  159.0104 H   0  0  0  0  0  0  0  0  0  0  0  0
  149.7889  130.6031  158.2595 H   0  0  0  0  0  0  0  0  0  0  0  0
  150.7330  131.8981  158.9848 H   0  0  0  0  0  0  0  0  0  0  0  0
  148.9949  134.9069  153.2109 H   0  0  0  0  0  0  0  0  0  0  0  0
  147.6041  135.1537  151.8405 H   0  0  0  0  0  0  0  0  0  0  0  0
  145.6931  134.9083  150.6251 H   0  0  0  0  0  0  0  0  0  0  0  0
  144.9520  132.8592  152.7742 H   0  0  0  0  0  0  0  0  0  0  0  0
  144.4709  134.5385  152.7573 H   0  0  0  0  0  0  0  0  0  0  0  0
  142.6477  133.0593  151.9215 H   0  0  0  0  0  0  0  0  0  0  0  0
  143.1554  134.2068  150.7045 H   0  0  0  0  0  0  0  0  0  0  0  0
  144.0006  131.2704  150.8746 H   0  0  0  0  0  0  0  0  0  0  0  0
  142.1455  132.7106  149.4341 H   0  0  0  0  0  0  0  0  0  0  0  0
  145.2256  131.6651  148.7560 H   0  0  0  0  0  0  0  0  0  0  0  0
  144.7497  133.3475  148.7530 H   0  0  0  0  0  0  0  0  0  0  0  0
  147.0560  133.1314  149.5971 H   0  0  0  0  0  0  0  0  0  0  0  0
  146.5453  131.9857  150.8144 H   0  0  0  0  0  0  0  0  0  0  0  0
  1  2  1  0  0  0  0
  1 21  1  0  0  0  0
  1 22  1  0  0  0  0
  1 23  1  0  0  0  0
  2  3  1  0  0  0  0
  2  4  1  0  0  0  0
  2  5  1  0  0  0  0
  3 24  1  0  0  0  0
  3 25  1  0  0  0  0
  3 26  1  0  0  0  0
  4 27  1  0  0  0  0
  4 28  1  0  0  0  0
  4 29  1  0  0  0  0
  5 20  1  0  0  0  0
  5  6  2  0  0  0  0
  6  7  1  0  0  0  0
  7  8  2  0  0  0  0
  8  9  1  0  0  0  0
  8 20  1  0  0  0  0
  9 10  1  0  0  0  0
  9 30  1  0  0  0  0
 10 11  2  0  0  0  0
 10 12  1  0  0  0  0
 12 13  1  0  0  0  0
 12 31  1  0  0  0  0
 13 19  1  0  0  0  0
 13 14  1  0  0  0  0
 13 32  1  0  0  0  0
 14 15  1  0  0  0  0
 14 33  1  0  0  0  0
 14 34  1  0  0  0  0
 15 16  1  0  0  0  0
 15 35  1  0  0  0  0
 15 36  1  0  0  0  0
 16 17  1  0  0  0  0
 16 18  1  0  0  0  0
 16 37  1  0  0  0  0
 17 38  1  0  0  0  0
 18 19  1  0  0  0  0
 18 39  1  0  0  0  0
 18 40  1  0  0  0  0
 19 41  1  0  0  0  0
 19 42  1  0  0  0  0
M  END
> <s_m_source_file>
AV-unprocessed.smi

> <i_m_source_file_index>
632

> <i_lp_mmshare_version>
43012

> <i_f3d_flags>
0

> <s_epik_input>
W0NIM11DKFtDSDNdKShbQ0gzXSljMW5uYyhzMSlbTkhdQyg9TylbTkhdW0NAQEhdMltDSDJdW0NIMl1bQ0BASF0oW09IXSlbQ0gyXVtDSDJdMg==

> <s_epik_cmdline>
J2VwaWtfcHl0aG9uJywgJy1waCcsICc3LjAnLCAnLXRuJywgJzgnLCAnLW1hJywgJzIwMCcsICctbWV0YWxfYmluZGluZycsICctaW1hZScsICc8aW5maWxlLm1hZT4nLCAnLW9tYWUnLCAnPG91dGZpbGUubWFlPic=

> <r_lp_tautomer_probability>
1

> <r_epik_Ionization_Penalty>
0.000349475

> <r_epik_Ionization_Penalty_Charging>
0

> <r_epik_Ionization_Penalty_Neutral>
0.000349475

> <r_epik_State_Penalty>
-0

> <r_epik_Charging_Adjusted_Penalty>
0

> <i_epik_Tot_Q>
0

> <i_epik_Tot_abs_Q>
0

> <r_epik_Metal_State_Penalty>
0.179207

> <b_epik_Metal_Only>
0

> <s_lp_Force_Field>
OPLS_2005

> <r_lp_Energy>
2.50478

> <b_lp_Chiralities_Consistent>
1

> <s_lp_Variant>
AV-unprocessed.smi:632-1

> <Gold.Version>
5.8.1

> <Gold.Id.Protein>
6NUR|6NUR_protein|mol2

> <Gold.PLP.Fitness>
42.6442

> <Gold.PLP.PLP>
-32.1308

> <Gold.PLP.part.hbond>
-4.6105

> <Gold.PLP.part.metal>
0.0000

> <Gold.PLP.part.buried>
-2.3914

> <Gold.PLP.part.nonpolar>
-25.0243

> <Gold.PLP.part.repulsive>
0.1696

> <Gold.PLP.ligand.clash>
0.0000

> <Gold.PLP.ligand.torsion>
0.5601

> <Gold.PLP.Chemscore.Hbond>
3.8750

> <Gold.PLP.Chemscore.CHOScore>
0.0000

> <Gold.PLP.Chemscore.Metal>
0.0000

> <Gold.Chemscore.Hbonds>
donor molecule, donor type, donor heavy atom, donor atom, acceptor molecule, acceptor atom, score
      L1  H     9    30       P1  7948  0.90
      L1  H    12    31       P1  7948  1.00
      L1  H    17    38       P1 10186  0.96
      P1  H 10785 10796       L1    17  1.00

> <Gold.PLP.Chemscore.Internal.Correction>
0.0087

> <Gold.Rescore>
     Score         DG    S(hbond)    S(metal)    S(lipo)     H(rot)  DE(clash)    DE(int)     intcor
     18.10     -19.73       3.17        0.00      68.56       1.70       0.02       1.61       ----

> <Gold.Chemscore.Fitness>
18.0963

> <Gold.Chemscore.DG>
-19.7316

> <Gold.Chemscore.ZeroCoef>
-5.4800

> <Gold.Chemscore.Hbond>
3.1657

> <Gold.Chemscore.Metal>
0.0000

> <Gold.Chemscore.Lipo>
68.5643

> <Gold.Chemscore.Internal_Hbond>
0.0000

> <Gold.Chemscore.DEClash>
0.0239

> <Gold.Chemscore.DEInternal>
1.6113

> <Gold.Chemscore.Rot>
1.6968

> <Gold.Chemscore.Internal.Correction>
   9.000000E+99

> <Gold.Chemscore.Hbonds>
donor molecule, donor type, donor heavy atom, donor atom, acceptor molecule, acceptor atom, score
      L1  H     9    30       P1  7948  0.17
      L1  H    12    31       P1  7948  0.87
      L1  H    17    38       P1 10186  0.91
      P1  H 10785 10796       L1    17  0.25

> <Gold.Chemscore.Hbond.Weighted>
-10.5734

> <Gold.Chemscore.Metal.Weighted>
-0.0000

> <Gold.Chemscore.Lipo.Weighted>
-8.0220

> <Gold.Chemscore.Internal_Hbond.Weighted>
0.0000

> <Gold.Chemscore.DEClash.Weighted>
0.0239

> <Gold.Chemscore.DEInternal.Weighted>
1.6113

> <Gold.Chemscore.Rot.Weighted>
4.3438

> <Gold.Chemscore.Internal.Correction.Weighted>
   9.000000E+99

> <Gold.Protein.RotatedTorsions>
[ 6907 6896 6895 6894 ] final    6.07 input  -60.11 | X-H torsion
[ 7974 7965 7964 7962 ] final    2.58 input  175.53 | X-H torsion
[ 8008 7997 7996 7995 ] final  -34.85 input   59.86 | X-H torsion
[ 10167 10162 10161 10158 ] final   62.01 input  -65.29 | X-H torsion
[ 10718 10713 10712 10709 ] final   14.33 input   66.30 | X-H torsion
[ 10763 10752 10751 10750 ] final  176.13 input  -60.55 | X-H torsion
[ 11005 11000 10999 10996 ] final   27.05 input  -57.11 | X-H torsion

> <Gold.Protein.ActiveResidues>
 VAL166  LYS551  ARG553  GLY616  TRP617  ASP618  TYR619  PRO620  LYS621  CYS622 
 ASP623  PHE694  ASN695  SER759  ASP760  ASP761  ALA762  ILE779  LEU786  VAL792 
 PHE793  MET794  SER795  GLU796  ALA797  LYS798  CYS799  TRP800  GLU811  SER814 

> <Gold.Protein.RotatedAtoms>
  151.6677  135.0980  160.0191 H   0  0  0  0  0  0  0  0  0  0  0  0  # atno 6907 bound_to 6896
  152.3909  133.6674  159.6245 H   0  0  0  0  0  0  0  0  0  0  0  0  # atno 6908 bound_to 6896
  150.7825  133.8872  159.3344 H   0  0  0  0  0  0  0  0  0  0  0  0  # atno 6909 bound_to 6896
  146.2444  140.0814  142.8357 H   0  0  0  0  0  0  0  0  0  0  0  0  # atno 7974 bound_to 7965
  154.4110  140.1673  156.2116 H   0  0  0  0  0  0  0  0  0  0  0  0  # atno 8008 bound_to 7997
  155.9439  140.3406  155.6327 H   0  0  0  0  0  0  0  0  0  0  0  0  # atno 8009 bound_to 7997
  155.6954  140.0739  157.2422 H   0  0  0  0  0  0  0  0  0  0  0  0  # atno 8010 bound_to 7997
  140.1485  144.4485  150.6772 H   0  0  0  0  0  0  0  0  0  0  0  0  # atno 10167 bound_to 10162
  157.0375  130.6218  149.5745 H   0  0  0  0  0  0  0  0  0  0  0  0  # atno 10718 bound_to 10713
  154.4769  135.2773  155.1600 H   0  0  0  0  0  0  0  0  0  0  0  0  # atno 10763 bound_to 10752
  154.3326  135.6187  153.5562 H   0  0  0  0  0  0  0  0  0  0  0  0  # atno 10764 bound_to 10752
  152.9870  135.5769  154.5162 H   0  0  0  0  0  0  0  0  0  0  0  0  # atno 10765 bound_to 10752
  140.3304  134.2444  155.7703 H   0  0  0  0  0  0  0  0  0  0  0  0  # atno 11005 bound_to 11000
  145.0730  140.9168  143.4871 LP  0  0  0  0  0  0  0  0  0  0  0  0  # atno 17320 bound_to 7965
  145.0952  139.2862  143.5715 LP  0  0  0  0  0  0  0  0  0  0  0  0  # atno 17321 bound_to 7965
  140.6717  143.2288  151.5609 LP  0  0  0  0  0  0  0  0  0  0  0  0  # atno 17342 bound_to 10162
  139.5437  144.2578  152.1401 LP  0  0  0  0  0  0  0  0  0  0  0  0  # atno 17343 bound_to 10162
  156.0049  130.5134  150.7794 LP  0  0  0  0  0  0  0  0  0  0  0  0  # atno 17370 bound_to 10713
  157.5130  131.0927  151.0174 LP  0  0  0  0  0  0  0  0  0  0  0  0  # atno 17371 bound_to 10713
  141.2064  133.7832  157.0176 LP  0  0  0  0  0  0  0  0  0  0  0  0  # atno 17394 bound_to 11000
  140.0865  134.9617  157.1708 LP  0  0  0  0  0  0  0  0  0  0  0  0  # atno 17395 bound_to 11000

$$$$
