AV-unprocessed.smi:2911|AV-procd|sdf|11177|dock5
  -GOLD-   2272016 73D 1   1.00000     0.00000
 Structure written by MMmdl.
 41 42  0  0  0  0  0  0  0  0  1 V2000
  144.1001  140.5491  160.0642 C   0  0  0  0  0  0  0  0  0  0  0  0
  144.5650  141.7527  160.8104 C   0  0  0  0  0  0  0  0  0  0  0  0
  143.8208  142.3039  161.7613 N   0  0  0  0  0  0  0  0  0  0  0  0
  144.6020  143.3837  162.1979 O   0  0  0  0  0  0  0  0  0  0  0  0
  145.7405  143.3360  161.4650 C   0  0  0  0  0  0  0  0  0  0  0  0
  146.7750  144.3912  161.6689 C   0  0  0  0  0  0  0  0  0  0  0  0
  147.0267  145.2199  160.3992 C   0  0  0  0  0  0  0  0  0  0  0  0
  148.3959  145.0672  159.9212 N   0  0  0  0  0  0  0  0  0  0  0  0
  148.9288  143.9297  159.4434 C   0  0  0  0  0  0  0  0  0  0  0  0
  148.2727  142.8936  159.3346 O   0  0  0  0  0  0  0  0  0  0  0  0
  150.1972  144.0779  158.9837 N   0  0  0  0  0  0  0  0  0  0  0  0
  151.1281  145.0300  159.6155 C   0  0  0  0  0  0  0  0  0  0  0  0
  151.9429  144.2932  160.6963 C   0  0  0  0  0  0  0  0  0  0  0  0
  152.6927  143.0786  160.1080 C   0  0  1  0  0  0  0  0  0  0  0  0
  153.4069  142.2699  161.1996 C   0  0  0  0  0  0  0  0  0  0  0  0
  151.7469  142.1927  159.2681 C   0  0  0  0  0  0  0  0  0  0  0  0
  150.9537  143.0389  158.2509 C   0  0  1  0  0  0  0  0  0  0  0  0
  150.1206  142.1730  157.2822 C   0  0  0  0  0  0  0  0  0  0  0  0
  145.7648  142.3499  160.5717 N   0  0  0  0  0  0  0  0  0  0  0  0
  144.4665  139.6437  160.5480 H   0  0  0  0  0  0  0  0  0  0  0  0
  144.4710  140.5691  159.0391 H   0  0  0  0  0  0  0  0  0  0  0  0
  143.0107  140.5101  160.0336 H   0  0  0  0  0  0  0  0  0  0  0  0
  146.4519  145.0362  162.4867 H   0  0  0  0  0  0  0  0  0  0  0  0
  147.6990  143.9128  161.9952 H   0  0  0  0  0  0  0  0  0  0  0  0
  146.3548  144.8930  159.6052 H   0  0  0  0  0  0  0  0  0  0  0  0
  146.8072  146.2738  160.5787 H   0  0  0  0  0  0  0  0  0  0  0  0
  148.9816  145.8895  159.9433 H   0  0  0  0  0  0  0  0  0  0  0  0
  151.7960  145.4470  158.8606 H   0  0  0  0  0  0  0  0  0  0  0  0
  150.6283  145.8898  160.0627 H   0  0  0  0  0  0  0  0  0  0  0  0
  152.6520  144.9814  161.1575 H   0  0  0  0  0  0  0  0  0  0  0  0
  151.2726  143.9634  161.4916 H   0  0  0  0  0  0  0  0  0  0  0  0
  153.4587  143.4655  159.4343 H   0  0  0  0  0  0  0  0  0  0  0  0
  152.6955  141.8508  161.9119 H   0  0  0  0  0  0  0  0  0  0  0  0
  154.1070  142.8939  161.7555 H   0  0  0  0  0  0  0  0  0  0  0  0
  153.9724  141.4433  160.7686 H   0  0  0  0  0  0  0  0  0  0  0  0
  152.3266  141.4301  158.7466 H   0  0  0  0  0  0  0  0  0  0  0  0
  151.0548  141.6606  159.9227 H   0  0  0  0  0  0  0  0  0  0  0  0
  151.6742  143.5592  157.6176 H   0  0  0  0  0  0  0  0  0  0  0  0
  150.7762  141.5923  156.6329 H   0  0  0  0  0  0  0  0  0  0  0  0
  149.4917  142.7899  156.6396 H   0  0  0  0  0  0  0  0  0  0  0  0
  149.4826  141.4582  157.8011 H   0  0  0  0  0  0  0  0  0  0  0  0
  1  2  1  0  0  0  0
  1 20  1  0  0  0  0
  1 21  1  0  0  0  0
  1 22  1  0  0  0  0
  2 19  1  0  0  0  0
  2  3  2  0  0  0  0
  3  4  1  0  0  0  0
  4  5  1  0  0  0  0
  5  6  1  0  0  0  0
  5 19  2  0  0  0  0
  6  7  1  0  0  0  0
  6 23  1  0  0  0  0
  6 24  1  0  0  0  0
  7  8  1  0  0  0  0
  7 25  1  0  0  0  0
  7 26  1  0  0  0  0
  8  9  1  0  0  0  0
  8 27  1  0  0  0  0
  9 10  2  0  0  0  0
  9 11  1  0  0  0  0
 11 17  1  0  0  0  0
 11 12  1  0  0  0  0
 12 13  1  0  0  0  0
 12 28  1  0  0  0  0
 12 29  1  0  0  0  0
 13 14  1  0  0  0  0
 13 30  1  0  0  0  0
 13 31  1  0  0  0  0
 14 15  1  0  0  0  0
 14 16  1  0  0  0  0
 14 32  1  0  0  0  0
 15 33  1  0  0  0  0
 15 34  1  0  0  0  0
 15 35  1  0  0  0  0
 16 17  1  0  0  0  0
 16 36  1  0  0  0  0
 16 37  1  0  0  0  0
 17 18  1  0  0  0  0
 17 38  1  0  0  0  0
 18 39  1  0  0  0  0
 18 40  1  0  0  0  0
 18 41  1  0  0  0  0
M  END
> <s_m_source_file>
AV-unprocessed.smi

> <i_m_source_file_index>
2911

> <i_lp_mmshare_version>
43012

> <i_f3d_flags>
0

> <s_epik_input>
W0NIM11jMW5vYyhuMSlbQ0gyXVtDSDJdW05IXUMoPU8pTjJbQ0gyXVtDSDJdW0NAQEhdKFtDSDNdKVtDSDJdW0NASF0yW0NIM10=

> <s_epik_cmdline>
J2VwaWtfcHl0aG9uJywgJy1waCcsICc3LjAnLCAnLXRuJywgJzgnLCAnLW1hJywgJzIwMCcsICctbWV0YWxfYmluZGluZycsICctaW1hZScsICc8aW5maWxlLm1hZT4nLCAnLW9tYWUnLCAnPG91dGZpbGUubWFlPic=

> <r_lp_tautomer_probability>
1

> <r_epik_Ionization_Penalty>
6.61671e-05

> <r_epik_Ionization_Penalty_Charging>
0

> <r_epik_Ionization_Penalty_Neutral>
6.61671e-05

> <r_epik_State_Penalty>
-0

> <r_epik_Charging_Adjusted_Penalty>
0

> <i_epik_Tot_Q>
0

> <i_epik_Tot_abs_Q>
0

> <r_epik_Metal_State_Penalty>
-0

> <b_epik_Metal_Only>
0

> <s_lp_Force_Field>
OPLS_2005

> <r_lp_Energy>
29.1944

> <b_lp_Chiralities_Consistent>
1

> <s_lp_Variant>
AV-unprocessed.smi:2911-1

> <Gold.Version>
5.8.1

> <Gold.Id.Protein>
6NUR|6NUR_protein|mol2

> <Gold.PLP.Fitness>
44.0501

> <Gold.PLP.PLP>
-41.1256

> <Gold.PLP.part.hbond>
-4.6965

> <Gold.PLP.part.metal>
0.0000

> <Gold.PLP.part.buried>
-6.9177

> <Gold.PLP.part.nonpolar>
-31.2463

> <Gold.PLP.part.repulsive>
0.3702

> <Gold.PLP.ligand.clash>
0.0179

> <Gold.PLP.ligand.torsion>
0.5967

> <Gold.PLP.Chemscore.Hbond>
1.2370

> <Gold.PLP.Chemscore.CHOScore>
0.0000

> <Gold.PLP.Chemscore.Metal>
0.0000

> <Gold.Chemscore.Hbonds>
donor molecule, donor type, donor heavy atom, donor atom, acceptor molecule, acceptor atom, score
      P1  H  6933  6944       L1    10  0.23
      P1  H  6934  6946       L1    19  1.00

> <Gold.PLP.Chemscore.Internal.Correction>
0.4249

> <Gold.Rescore>
     Score         DG    S(hbond)    S(metal)    S(lipo)     H(rot)  DE(clash)    DE(int)     intcor
     12.80     -15.08       1.00        0.00      88.80       1.61       0.04       2.24       ----

> <Gold.Chemscore.Fitness>
12.7996

> <Gold.Chemscore.DG>
-15.0756

> <Gold.Chemscore.ZeroCoef>
-5.4800

> <Gold.Chemscore.Hbond>
0.9955

> <Gold.Chemscore.Metal>
0.0000

> <Gold.Chemscore.Lipo>
88.7971

> <Gold.Chemscore.Internal_Hbond>
0.0000

> <Gold.Chemscore.DEClash>
0.0398

> <Gold.Chemscore.DEInternal>
2.2362

> <Gold.Chemscore.Rot>
1.6088

> <Gold.Chemscore.Internal.Correction>
   9.000000E+99

> <Gold.Chemscore.Hbonds>
donor molecule, donor type, donor heavy atom, donor atom, acceptor molecule, acceptor atom, score
      P1  H  6933  6944       L1    10  0.02
      P1  H  6934  6946       L1    19  0.25

> <Gold.Chemscore.Hbond.Weighted>
-3.3249

> <Gold.Chemscore.Metal.Weighted>
-0.0000

> <Gold.Chemscore.Lipo.Weighted>
-10.3893

> <Gold.Chemscore.Internal_Hbond.Weighted>
0.0000

> <Gold.Chemscore.DEClash.Weighted>
0.0398

> <Gold.Chemscore.DEInternal.Weighted>
2.2362

> <Gold.Chemscore.Rot.Weighted>
4.1186

> <Gold.Chemscore.Internal.Correction.Weighted>
   9.000000E+99

> <Gold.Protein.RotatedTorsions>
[ 6907 6896 6895 6894 ] final   14.71 input  -60.11 | X-H torsion
[ 7974 7965 7964 7962 ] final   52.47 input  175.53 | X-H torsion
[ 8008 7997 7996 7995 ] final  100.05 input   59.86 | X-H torsion
[ 10167 10162 10161 10158 ] final -178.28 input  -65.29 | X-H torsion
[ 10718 10713 10712 10709 ] final -177.08 input   66.30 | X-H torsion
[ 10763 10752 10751 10750 ] final  -46.15 input  -60.55 | X-H torsion
[ 11005 11000 10999 10996 ] final   85.43 input  -57.11 | X-H torsion

> <Gold.Protein.ActiveResidues>
 VAL166  LYS551  ARG553  GLY616  TRP617  ASP618  TYR619  PRO620  LYS621  CYS622 
 ASP623  PHE694  ASN695  SER759  ASP760  ASP761  ALA762  ILE779  LEU786  VAL792 
 PHE793  MET794  SER795  GLU796  ALA797  LYS798  CYS799  TRP800  GLU811  SER814 

> <Gold.Protein.RotatedAtoms>
  151.8065  135.0693  160.0407 H   0  0  0  0  0  0  0  0  0  0  0  0  # atno 6907 bound_to 6896
  152.3051  133.5690  159.5652 H   0  0  0  0  0  0  0  0  0  0  0  0  # atno 6908 bound_to 6896
  150.7292  134.0150  159.3724 H   0  0  0  0  0  0  0  0  0  0  0  0  # atno 6909 bound_to 6896
  145.9810  139.4242  143.0132 H   0  0  0  0  0  0  0  0  0  0  0  0  # atno 7974 bound_to 7965
  156.1166  140.3219  155.8148 H   0  0  0  0  0  0  0  0  0  0  0  0  # atno 8008 bound_to 7997
  155.4579  140.0537  157.3011 H   0  0  0  0  0  0  0  0  0  0  0  0  # atno 8009 bound_to 7997
  154.4797  140.2047  155.9807 H   0  0  0  0  0  0  0  0  0  0  0  0  # atno 8010 bound_to 7997
  139.5440  144.2286  152.0951 H   0  0  0  0  0  0  0  0  0  0  0  0  # atno 10167 bound_to 10162
  156.8241  130.9630  151.3110 H   0  0  0  0  0  0  0  0  0  0  0  0  # atno 10718 bound_to 10713
  154.0402  135.6645  153.4789 H   0  0  0  0  0  0  0  0  0  0  0  0  # atno 10763 bound_to 10752
  153.0504  135.5088  154.7849 H   0  0  0  0  0  0  0  0  0  0  0  0  # atno 10764 bound_to 10752
  154.6823  135.3047  154.9562 H   0  0  0  0  0  0  0  0  0  0  0  0  # atno 10765 bound_to 10752
  139.8972  134.8286  156.2581 H   0  0  0  0  0  0  0  0  0  0  0  0  # atno 11005 bound_to 11000
  145.7769  140.9873  143.1119 LP  0  0  0  0  0  0  0  0  0  0  0  0  # atno 17320 bound_to 7965
  144.6861  139.9517  143.7478 LP  0  0  0  0  0  0  0  0  0  0  0  0  # atno 17321 bound_to 7965
  140.1770  144.4881  150.6549 LP  0  0  0  0  0  0  0  0  0  0  0  0  # atno 17342 bound_to 10162
  140.6681  143.2275  151.5694 LP  0  0  0  0  0  0  0  0  0  0  0  0  # atno 17343 bound_to 10162
  157.6441  130.8830  149.9505 LP  0  0  0  0  0  0  0  0  0  0  0  0  # atno 17370 bound_to 10713
  156.0971  130.3658  150.0285 LP  0  0  0  0  0  0  0  0  0  0  0  0  # atno 17371 bound_to 10713
  141.0180  133.7057  156.1221 LP  0  0  0  0  0  0  0  0  0  0  0  0  # atno 17394 bound_to 11000
  140.7274  134.4292  157.5569 LP  0  0  0  0  0  0  0  0  0  0  0  0  # atno 17395 bound_to 11000

$$$$
