AV-unprocessed.smi:1464|AV-procd|sdf|5949|dock2
  -GOLD-   22720 6 33D 1   1.00000     0.00000
 Structure written by MMmdl.
 41 42  0  0  0  0  0  0  0  0  1 V2000
  151.4201  145.9276  160.5833 C   0  0  0  0  0  0  0  0  0  0  0  0
  151.4726  144.4114  160.3322 C   0  0  2  0  0  0  0  0  0  0  0  0
  152.7915  143.7909  160.8370 C   0  0  0  0  0  0  0  0  0  0  0  0
  152.7930  142.2624  160.6747 C   0  0  0  0  0  0  0  0  0  0  0  0
  152.4864  141.8448  159.2281 C   0  0  0  0  0  0  0  0  0  0  0  0
  151.1663  142.4679  158.7349 C   0  0  2  0  0  0  0  0  0  0  0  0
  150.8815  142.0221  157.3727 N   0  0  0  0  0  0  0  0  0  0  0  0
  149.7668  141.3850  156.9825 C   0  0  0  0  0  0  0  0  0  0  0  0
  148.8374  141.1209  157.7465 O   0  0  0  0  0  0  0  0  0  0  0  0
  149.6873  141.0150  155.4945 C   0  0  0  0  0  0  0  0  0  0  0  0
  150.1072  139.6335  155.2170 N   0  0  0  0  0  0  0  0  0  0  0  0
  149.0667  138.7166  155.1947 N   0  0  0  0  0  0  0  0  0  0  0  0
  149.3120  137.4693  154.9738 C   0  0  0  0  0  0  0  0  0  0  0  0
  148.2533  136.5946  154.9636 O   0  0  0  0  0  0  0  0  0  0  0  0
  150.6606  137.0003  154.7426 C   0  0  0  0  0  0  0  0  0  0  0  0
  151.6669  137.9012  154.7629 C   0  0  0  0  0  0  0  0  0  0  0  0
  151.4243  139.3239  155.0098 C   0  0  0  0  0  0  0  0  0  0  0  0
  152.3212  140.1667  155.0301 O   0  0  0  0  0  0  0  0  0  0  0  0
  151.1824  144.0161  158.8598 C   0  0  2  0  0  0  0  0  0  0  0  0
  152.1213  144.7005  157.8391 C   0  0  0  0  0  0  0  0  0  0  0  0
  148.3306  136.1173  154.1519 H   0  0  0  0  0  0  0  0  0  0  0  0
  152.2523  146.4469  160.1078 H   0  0  0  0  0  0  0  0  0  0  0  0
  151.4689  146.1457  161.6503 H   0  0  0  0  0  0  0  0  0  0  0  0
  150.4927  146.3573  160.2036 H   0  0  0  0  0  0  0  0  0  0  0  0
  150.6706  143.9810  160.9342 H   0  0  0  0  0  0  0  0  0  0  0  0
  153.6391  144.2188  160.3011 H   0  0  0  0  0  0  0  0  0  0  0  0
  152.9406  144.0406  161.8881 H   0  0  0  0  0  0  0  0  0  0  0  0
  153.7571  141.8566  160.9824 H   0  0  0  0  0  0  0  0  0  0  0  0
  152.0487  141.8270  161.3426 H   0  0  0  0  0  0  0  0  0  0  0  0
  153.3113  142.1403  158.5788 H   0  0  0  0  0  0  0  0  0  0  0  0
  152.4284  140.7571  159.1708 H   0  0  0  0  0  0  0  0  0  0  0  0
  150.3733  142.0843  159.3804 H   0  0  0  0  0  0  0  0  0  0  0  0
  151.5892  142.2068  156.6769 H   0  0  0  0  0  0  0  0  0  0  0  0
  148.6588  141.1710  155.1643 H   0  0  0  0  0  0  0  0  0  0  0  0
  150.2912  141.7107  154.9087 H   0  0  0  0  0  0  0  0  0  0  0  0
  150.8482  135.9526  154.5595 H   0  0  0  0  0  0  0  0  0  0  0  0
  152.6794  137.5651  154.5935 H   0  0  0  0  0  0  0  0  0  0  0  0
  150.1754  144.3673  158.6300 H   0  0  0  0  0  0  0  0  0  0  0  0
  153.1659  144.4351  157.9978 H   0  0  0  0  0  0  0  0  0  0  0  0
  152.0460  145.7860  157.8936 H   0  0  0  0  0  0  0  0  0  0  0  0
  151.8663  144.4280  156.8151 H   0  0  0  0  0  0  0  0  0  0  0  0
  1  2  1  0  0  0  0
  1 22  1  0  0  0  0
  1 23  1  0  0  0  0
  1 24  1  0  0  0  0
  2 19  1  0  0  0  0
  2  3  1  0  0  0  0
  2 25  1  0  0  0  0
  3  4  1  0  0  0  0
  3 26  1  0  0  0  0
  3 27  1  0  0  0  0
  4  5  1  0  0  0  0
  4 28  1  0  0  0  0
  4 29  1  0  0  0  0
  5  6  1  0  0  0  0
  5 30  1  0  0  0  0
  5 31  1  0  0  0  0
  6  7  1  0  0  0  0
  6 19  1  0  0  0  0
  6 32  1  0  0  0  0
  7  8  1  0  0  0  0
  7 33  1  0  0  0  0
  8  9  2  0  0  0  0
  8 10  1  0  0  0  0
 10 34  1  0  0  0  0
 10 35  1  0  0  0  0
 10 11  1  0  0  0  0
 11 12  1  0  0  0  0
 11 17  1  0  0  0  0
 12 13  2  0  0  0  0
 13 14  1  0  0  0  0
 13 15  1  0  0  0  0
 14 21  1  0  0  0  0
 15 36  1  0  0  0  0
 15 16  2  0  0  0  0
 16 37  1  0  0  0  0
 16 17  1  0  0  0  0
 17 18  2  0  0  0  0
 19 20  1  0  0  0  0
 19 38  1  0  0  0  0
 20 39  1  0  0  0  0
 20 40  1  0  0  0  0
 20 41  1  0  0  0  0
M  END
> <s_m_source_file>
AV-unprocessed.smi

> <i_m_source_file_index>
1464

> <i_lp_mmshare_version>
43012

> <i_f3d_flags>
0

> <s_epik_input>
W0NIM11bQ0BASF0xW0NIMl1bQ0gyXVtDSDJdW0NASF0oW0NASF0xW0NIM10pW05IXUMoPU8pW0NIMl1uMltuSF1jKD1PKVtjSF1bY0hdYzI9Tw==

> <s_epik_cmdline>
J2VwaWtfcHl0aG9uJywgJy1waCcsICc3LjAnLCAnLXRuJywgJzgnLCAnLW1hJywgJzIwMCcsICctbWV0YWxfYmluZGluZycsICctaW1hZScsICc8aW5maWxlLm1hZT4nLCAnLW9tYWUnLCAnPG91dGZpbGUubWFlPic=

> <r_lp_tautomer_probability>
0.9996

> <r_epik_Ionization_Penalty>
2.10335

> <r_epik_Ionization_Penalty_Charging>
3.98079e-08

> <r_epik_Ionization_Penalty_Neutral>
2.10335

> <r_epik_State_Penalty>
1.67957

> <r_epik_Charging_Adjusted_Penalty>
1.67957

> <i_epik_Tot_Q>
0

> <i_epik_Tot_abs_Q>
0

> <r_epik_Metal_State_Penalty>
1.67957

> <b_epik_Metal_Only>
0

> <s_lp_Force_Field>
OPLS_2005

> <r_lp_Energy>
25.7664

> <b_lp_Chiralities_Consistent>
1

> <s_lp_Variant>
AV-unprocessed.smi:1464-15

> <Gold.Version>
5.8.1

> <Gold.Id.Protein>
6NUR|6NUR_protein|mol2

> <Gold.PLP.Fitness>
46.4976

> <Gold.PLP.PLP>
-41.9535

> <Gold.PLP.part.hbond>
-3.0000

> <Gold.PLP.part.metal>
0.0000

> <Gold.PLP.part.buried>
-1.5390

> <Gold.PLP.part.nonpolar>
-38.1820

> <Gold.PLP.part.repulsive>
0.2553

> <Gold.PLP.ligand.clash>
0.0000

> <Gold.PLP.ligand.torsion>
0.7383

> <Gold.PLP.Chemscore.Hbond>
2.0000

> <Gold.PLP.Chemscore.CHOScore>
0.0000

> <Gold.PLP.Chemscore.Metal>
0.0000

> <Gold.Chemscore.Hbonds>
donor molecule, donor type, donor heavy atom, donor atom, acceptor molecule, acceptor atom, score
      L1  H    14    21       P1  7948  0.15
      P1  H  7989  7998       L1    18  0.30
      P1  H  7997  8009       L1    18  0.36

> <Gold.PLP.Chemscore.Internal.Correction>
0.0208

> <Gold.Rescore>
     Score         DG    S(hbond)    S(metal)    S(lipo)     H(rot)  DE(clash)    DE(int)     intcor
     17.62     -19.61       2.00        0.00     112.36       2.22       1.22       0.77       ----

> <Gold.Chemscore.Fitness>
17.6170

> <Gold.Chemscore.DG>
-19.6119

> <Gold.Chemscore.ZeroCoef>
-5.4800

> <Gold.Chemscore.Hbond>
1.9986

> <Gold.Chemscore.Metal>
0.0000

> <Gold.Chemscore.Lipo>
112.3598

> <Gold.Chemscore.Internal_Hbond>
0.0000

> <Gold.Chemscore.DEClash>
1.2200

> <Gold.Chemscore.DEInternal>
0.7750

> <Gold.Chemscore.Rot>
2.2224

> <Gold.Chemscore.Internal.Correction>
   9.000000E+99

> <Gold.Chemscore.Hbonds>
donor molecule, donor type, donor heavy atom, donor atom, acceptor molecule, acceptor atom, score
      L1  H    14    21       P1  7948  0.16
      P1  H  7989  7998       L1    18  0.01
      P1  H  7997  8009       L1    18  0.35

> <Gold.Chemscore.Hbond.Weighted>
-6.6752

> <Gold.Chemscore.Metal.Weighted>
-0.0000

> <Gold.Chemscore.Lipo.Weighted>
-13.1461

> <Gold.Chemscore.Internal_Hbond.Weighted>
0.0000

> <Gold.Chemscore.DEClash.Weighted>
1.2200

> <Gold.Chemscore.DEInternal.Weighted>
0.7750

> <Gold.Chemscore.Rot.Weighted>
5.6893

> <Gold.Chemscore.Internal.Correction.Weighted>
   9.000000E+99

> <Gold.Protein.RotatedTorsions>
[ 6907 6896 6895 6894 ] final   98.20 input  -60.11 | X-H torsion
[ 7974 7965 7964 7962 ] final   18.83 input  175.53 | X-H torsion
[ 8008 7997 7996 7995 ] final -139.99 input   59.86 | X-H torsion
[ 10167 10162 10161 10158 ] final   26.30 input  -65.29 | X-H torsion
[ 10718 10713 10712 10709 ] final  176.39 input   66.30 | X-H torsion
[ 10763 10752 10751 10750 ] final    1.61 input  -60.55 | X-H torsion
[ 11005 11000 10999 10996 ] final -158.07 input  -57.11 | X-H torsion

> <Gold.Protein.ActiveResidues>
 VAL166  LYS551  ARG553  GLY616  TRP617  ASP618  TYR619  PRO620  LYS621  CYS622 
 ASP623  PHE694  ASN695  SER759  ASP760  ASP761  ALA762  ILE779  LEU786  VAL792 
 PHE793  MET794  SER795  GLU796  ALA797  LYS798  CYS799  TRP800  GLU811  SER814 

> <Gold.Protein.RotatedAtoms>
  152.5413  134.0617  159.8154 H   0  0  0  0  0  0  0  0  0  0  0  0  # atno 6907 bound_to 6896
  151.0744  133.5432  159.2632 H   0  0  0  0  0  0  0  0  0  0  0  0  # atno 6908 bound_to 6896
  151.2283  135.0553  159.9031 H   0  0  0  0  0  0  0  0  0  0  0  0  # atno 6909 bound_to 6896
  146.2171  139.8401  142.8643 H   0  0  0  0  0  0  0  0  0  0  0  0  # atno 7974 bound_to 7965
  155.4539  140.0540  157.2998 H   0  0  0  0  0  0  0  0  0  0  0  0  # atno 8008 bound_to 7997
  154.4765  140.2063  155.9820 H   0  0  0  0  0  0  0  0  0  0  0  0  # atno 8009 bound_to 7997
  156.1140  140.3199  155.8118 H   0  0  0  0  0  0  0  0  0  0  0  0  # atno 8010 bound_to 7997
  140.5034  144.0278  150.6342 H   0  0  0  0  0  0  0  0  0  0  0  0  # atno 10167 bound_to 10162
  156.9208  130.9940  151.3005 H   0  0  0  0  0  0  0  0  0  0  0  0  # atno 10718 bound_to 10713
  153.3059  135.6959  153.7160 H   0  0  0  0  0  0  0  0  0  0  0  0  # atno 10763 bound_to 10752
  153.6056  135.3454  155.2961 H   0  0  0  0  0  0  0  0  0  0  0  0  # atno 10764 bound_to 10752
  154.8563  135.4351  154.2183 H   0  0  0  0  0  0  0  0  0  0  0  0  # atno 10765 bound_to 10752
  140.6576  134.4383  157.5235 H   0  0  0  0  0  0  0  0  0  0  0  0  # atno 11005 bound_to 11000
  145.2908  141.0166  143.3664 LP  0  0  0  0  0  0  0  0  0  0  0  0  # atno 17320 bound_to 7965
  144.9079  139.4566  143.6601 LP  0  0  0  0  0  0  0  0  0  0  0  0  # atno 17321 bound_to 7965
  140.3580  143.2924  152.0414 LP  0  0  0  0  0  0  0  0  0  0  0  0  # atno 17342 bound_to 10162
  139.4877  144.6324  151.7043 LP  0  0  0  0  0  0  0  0  0  0  0  0  # atno 17343 bound_to 10162
  157.5909  130.8443  149.8658 LP  0  0  0  0  0  0  0  0  0  0  0  0  # atno 17370 bound_to 10713
  156.0492  130.3721  150.1243 LP  0  0  0  0  0  0  0  0  0  0  0  0  # atno 17371 bound_to 10713
  139.9024  134.8526  156.1842 LP  0  0  0  0  0  0  0  0  0  0  0  0  # atno 17394 bound_to 11000
  141.0489  133.6899  156.1735 LP  0  0  0  0  0  0  0  0  0  0  0  0  # atno 17395 bound_to 11000

$$$$
