AV-unprocessed.smi:798|AV-procd|sdf|3782|dock9
  -GOLD-   22720 1213D 1   1.00000     0.00000
 Structure written by MMmdl.
 33 35  0  0  0  0  0  0  0  0  2 V2000
  148.2244  138.0405  159.1308 O   0  0  0  0  0  0  0  0  0  0  0  0
  149.0099  137.1198  158.8952 C   0  0  0  0  0  0  0  0  0  0  0  0
  149.0889  135.9434  159.5580 N   0  5  0  0  0  0  0  0  0  0  0  0
  148.3783  135.7543  160.6821 C   0  0  0  0  0  0  0  0  0  0  0  0
  148.1398  136.7453  161.5560 N   0  0  0  0  0  0  0  0  0  0  0  0
  147.3973  136.3368  162.6557 N   0  0  0  0  0  0  0  0  0  0  0  0
  147.0995  135.0395  162.5862 C   0  0  0  0  0  0  0  0  0  0  0  0
  147.7001  134.1992  161.1726 S   0  0  0  0  0  0  0  0  0  0  0  0
  149.8943  137.2335  157.8945 N   0  0  0  0  0  0  0  0  0  0  0  0
  150.0345  138.3789  156.9973 C   0  0  1  0  0  0  0  0  0  0  0  0
  150.4024  139.6473  157.7984 C   0  0  2  0  0  0  0  0  0  0  0  0
  150.1588  140.8829  156.9130 C   0  0  0  0  0  0  0  0  0  0  0  0
  151.3156  140.8000  155.8998 C   0  0  0  0  0  0  0  0  0  0  0  0
  152.0568  139.5140  156.3251 C   0  0  1  0  0  0  0  0  0  0  0  0
  151.9268  139.5935  157.8407 C   0  0  0  0  0  0  0  0  0  0  0  0
  151.2326  138.2373  156.0226 C   0  0  2  0  0  0  0  0  0  0  0  0
  150.8245  138.0252  154.5515 C   0  0  0  0  0  0  0  0  0  0  0  0
  151.7620  137.2016  153.8906 O   0  0  0  0  0  0  0  0  0  0  0  0
  146.5259  134.5741  163.3734 H   0  0  0  0  0  0  0  0  0  0  0  0
  150.5182  136.4554  157.7390 H   0  0  0  0  0  0  0  0  0  0  0  0
  149.0928  138.5328  156.4668 H   0  0  0  0  0  0  0  0  0  0  0  0
  149.9144  139.7147  158.7716 H   0  0  0  0  0  0  0  0  0  0  0  0
  149.1801  140.8663  156.4321 H   0  0  0  0  0  0  0  0  0  0  0  0
  150.2275  141.8008  157.4981 H   0  0  0  0  0  0  0  0  0  0  0  0
  150.9738  140.7831  154.8659 H   0  0  0  0  0  0  0  0  0  0  0  0
  151.9700  141.6660  156.0062 H   0  0  0  0  0  0  0  0  0  0  0  0
  153.0841  139.4635  155.9627 H   0  0  0  0  0  0  0  0  0  0  0  0
  152.3801  140.4886  158.2703 H   0  0  0  0  0  0  0  0  0  0  0  0
  152.3163  138.7146  158.3576 H   0  0  0  0  0  0  0  0  0  0  0  0
  151.8382  137.3788  156.3210 H   0  0  0  0  0  0  0  0  0  0  0  0
  149.8504  137.5386  154.5035 H   0  0  0  0  0  0  0  0  0  0  0  0
  150.7253  138.9685  154.0156 H   0  0  0  0  0  0  0  0  0  0  0  0
  151.4623  137.0574  153.0062 H   0  0  0  0  0  0  0  0  0  0  0  0
  1  2  2  0  0  0  0
  2  3  1  0  0  0  0
  2  9  1  0  0  0  0
  3  4  1  0  0  0  0
  4  8  1  0  0  0  0
  4  5  2  0  0  0  0
  5  6  1  0  0  0  0
  6  7  2  0  0  0  0
  7  8  1  0  0  0  0
  7 19  1  0  0  0  0
  9 10  1  0  0  0  0
  9 20  1  0  0  0  0
 10 16  1  0  0  0  0
 10 11  1  0  0  0  0
 10 21  1  0  0  0  0
 11 15  1  0  0  0  0
 11 12  1  0  0  0  0
 11 22  1  0  0  0  0
 12 13  1  0  0  0  0
 12 23  1  0  0  0  0
 12 24  1  0  0  0  0
 13 14  1  0  0  0  0
 13 25  1  0  0  0  0
 13 26  1  0  0  0  0
 14 15  1  0  0  0  0
 14 16  1  0  0  0  0
 14 27  1  0  0  0  0
 15 28  1  0  0  0  0
 15 29  1  0  0  0  0
 16 17  1  0  0  0  0
 16 30  1  0  0  0  0
 17 18  1  0  0  0  0
 17 31  1  0  0  0  0
 17 32  1  0  0  0  0
 18 33  1  0  0  0  0
M  CHG  1   3  -1
M  END
> <s_m_source_file>
AV-unprocessed.smi

> <i_m_source_file_index>
798

> <i_lp_mmshare_version>
43012

> <i_f3d_flags>
0

> <s_epik_input>
W0NIMl0xW0NIMl1bQ0BASF0oW0NIMl0yKVtDQEBIXShbQ0gyXVtPSF0pW0NAQEhdKFtDQEhdMTIpW05IXUMoPU8pW05IXWMzbm5bY0hdczM=

> <s_epik_cmdline>
J2VwaWtfcHl0aG9uJywgJy1waCcsICc3LjAnLCAnLXRuJywgJzgnLCAnLW1hJywgJzIwMCcsICctbWV0YWxfYmluZGluZycsICctaW1hZScsICc8aW5maWxlLm1hZT4nLCAnLW9tYWUnLCAnPG91dGZpbGUubWFlPic=

> <r_lp_tautomer_probability>
1

> <r_epik_Ionization_Penalty>
4.53732

> <r_epik_Ionization_Penalty_Charging>
4.48632

> <r_epik_Ionization_Penalty_Neutral>
0.0510007

> <r_epik_State_Penalty>
4.48602

> <r_epik_Charging_Adjusted_Penalty>
8.97234

> <i_epik_Tot_Q>
-1

> <i_epik_Tot_abs_Q>
1

> <r_epik_Metal_State_Penalty>
0.812492

> <b_epik_Metal_Only>
1

> <s_lp_Force_Field>
OPLS_2005

> <r_lp_Energy>
47.3152

> <b_lp_Chiralities_Consistent>
1

> <s_lp_Variant>
AV-unprocessed.smi:798-14

> <Gold.Version>
5.8.1

> <Gold.Id.Protein>
6NUR|6NUR_protein|mol2

> <Gold.PLP.Fitness>
44.1001

> <Gold.PLP.PLP>
-30.2181

> <Gold.PLP.part.hbond>
-5.1621

> <Gold.PLP.part.metal>
0.0000

> <Gold.PLP.part.buried>
-5.8296

> <Gold.PLP.part.nonpolar>
-19.3250

> <Gold.PLP.part.repulsive>
0.0793

> <Gold.PLP.ligand.clash>
0.0000

> <Gold.PLP.ligand.torsion>
0.7068

> <Gold.PLP.Chemscore.Hbond>
5.0907

> <Gold.PLP.Chemscore.CHOScore>
0.0000

> <Gold.PLP.Chemscore.Metal>
0.0000

> <Gold.Chemscore.Hbonds>
donor molecule, donor type, donor heavy atom, donor atom, acceptor molecule, acceptor atom, score
      L1  H    18    33       P1  7949  1.00
      P1  H  6896  6909       L1     3  1.95
      P1  H  6931  6943       L1     5  1.00
      P1  H  6934  6947       L1     1  0.11
      P1  H 10752 10764       L1    18  1.00

> <Gold.PLP.Chemscore.Internal.Correction>
0.0238

> <Gold.Rescore>
     Score         DG    S(hbond)    S(metal)    S(lipo)     H(rot)  DE(clash)    DE(int)     intcor
     17.03     -19.31       3.58        0.00      57.97       1.92       0.04       2.25       ----

> <Gold.Chemscore.Fitness>
17.0252

> <Gold.Chemscore.DG>
-19.3123

> <Gold.Chemscore.ZeroCoef>
-5.4800

> <Gold.Chemscore.Hbond>
3.5830

> <Gold.Chemscore.Metal>
0.0000

> <Gold.Chemscore.Lipo>
57.9657

> <Gold.Chemscore.Internal_Hbond>
0.0000

> <Gold.Chemscore.DEClash>
0.0383

> <Gold.Chemscore.DEInternal>
2.2489

> <Gold.Chemscore.Rot>
1.9207

> <Gold.Chemscore.Internal.Correction>
   9.000000E+99

> <Gold.Chemscore.Hbonds>
donor molecule, donor type, donor heavy atom, donor atom, acceptor molecule, acceptor atom, score
      L1  H    18    33       P1  7949  0.85
      P1  H  6896  6909       L1     3  0.59
      P1  H  6931  6943       L1     5  0.78
      P1  H  6934  6947       L1     1  0.10
      P1  H 10752 10764       L1    18  0.47

> <Gold.Chemscore.Hbond.Weighted>
-11.9672

> <Gold.Chemscore.Metal.Weighted>
-0.0000

> <Gold.Chemscore.Lipo.Weighted>
-6.7820

> <Gold.Chemscore.Internal_Hbond.Weighted>
0.0000

> <Gold.Chemscore.DEClash.Weighted>
0.0383

> <Gold.Chemscore.DEInternal.Weighted>
2.2489

> <Gold.Chemscore.Rot.Weighted>
4.9169

> <Gold.Chemscore.Internal.Correction.Weighted>
   9.000000E+99

> <Gold.Protein.RotatedTorsions>
[ 6907 6896 6895 6894 ] final   62.65 input  -60.11 | X-H torsion
[ 7974 7965 7964 7962 ] final   -4.22 input  175.53 | X-H torsion
[ 8008 7997 7996 7995 ] final -171.56 input   59.86 | X-H torsion
[ 10167 10162 10161 10158 ] final -152.38 input  -65.29 | X-H torsion
[ 10718 10713 10712 10709 ] final -116.55 input   66.30 | X-H torsion
[ 10763 10752 10751 10750 ] final  -76.50 input  -60.55 | X-H torsion
[ 11005 11000 10999 10996 ] final  -78.89 input  -57.11 | X-H torsion

> <Gold.Protein.ActiveResidues>
 VAL166  LYS551  ARG553  GLY616  TRP617  ASP618  TYR619  PRO620  LYS621  CYS622 
 ASP623  PHE694  ASN695  SER759  ASP760  ASP761  ALA762  ILE779  LEU786  VAL792 
 PHE793  MET794  SER795  GLU796  ALA797  LYS798  CYS799  TRP800  GLU811  SER814 

> <Gold.Protein.RotatedAtoms>
  152.4189  134.5991  159.9994 H   0  0  0  0  0  0  0  0  0  0  0  0  # atno 6907 bound_to 6896
  151.6146  133.3338  159.3083 H   0  0  0  0  0  0  0  0  0  0  0  0  # atno 6908 bound_to 6896
  150.8078  134.7252  159.6726 H   0  0  0  0  0  0  0  0  0  0  0  0  # atno 6909 bound_to 6896
  146.2376  140.1839  142.8332 H   0  0  0  0  0  0  0  0  0  0  0  0  # atno 7974 bound_to 7965
  155.9332  140.1095  157.1115 H   0  0  0  0  0  0  0  0  0  0  0  0  # atno 8008 bound_to 7997
  154.4075  140.1233  156.4896 H   0  0  0  0  0  0  0  0  0  0  0  0  # atno 8009 bound_to 7997
  155.7054  140.3471  155.4953 H   0  0  0  0  0  0  0  0  0  0  0  0  # atno 8010 bound_to 7997
  139.7186  143.8993  152.2495 H   0  0  0  0  0  0  0  0  0  0  0  0  # atno 10167 bound_to 10162
  156.0971  130.6141  150.9050 H   0  0  0  0  0  0  0  0  0  0  0  0  # atno 10718 bound_to 10713
  154.5007  135.5795  153.6529 H   0  0  0  0  0  0  0  0  0  0  0  0  # atno 10763 bound_to 10752
  152.9878  135.6135  154.3006 H   0  0  0  0  0  0  0  0  0  0  0  0  # atno 10764 bound_to 10752
  154.2913  135.2848  155.2633 H   0  0  0  0  0  0  0  0  0  0  0  0  # atno 10765 bound_to 10752
  141.1666  133.7082  156.8040 H   0  0  0  0  0  0  0  0  0  0  0  0  # atno 11005 bound_to 11000
  144.9912  140.8549  143.5338 LP  0  0  0  0  0  0  0  0  0  0  0  0  # atno 17320 bound_to 7965
  145.1845  139.2334  143.5275 LP  0  0  0  0  0  0  0  0  0  0  0  0  # atno 17321 bound_to 7965
  139.8882  144.6980  150.8800 LP  0  0  0  0  0  0  0  0  0  0  0  0  # atno 17342 bound_to 10162
  140.7749  143.3607  151.1834 LP  0  0  0  0  0  0  0  0  0  0  0  0  # atno 17343 bound_to 10162
  157.6134  131.0935  150.8754 LP  0  0  0  0  0  0  0  0  0  0  0  0  # atno 17370 bound_to 10713
  156.8889  130.5206  149.5287 LP  0  0  0  0  0  0  0  0  0  0  0  0  # atno 17371 bound_to 10713
  140.2236  134.8739  157.3403 LP  0  0  0  0  0  0  0  0  0  0  0  0  # atno 17394 bound_to 11000
  140.1963  134.4310  155.7687 LP  0  0  0  0  0  0  0  0  0  0  0  0  # atno 17395 bound_to 11000

$$$$
