AV-unprocessed.smi:1831|AV-procd|sdf|7457|dock9
  -GOLD-   22720 9143D 1   1.00000     0.00000
 Structure written by MMmdl.
 41 42  0  0  0  0  0  0  0  0  2 V2000
  151.0229  141.8017  155.9885 C   0  0  0  0  0  0  0  0  0  0  0  0
  150.9803  140.4292  155.4088 C   0  0  0  0  0  0  0  0  0  0  0  0
  152.0091  139.8905  154.7423 N   0  0  0  0  0  0  0  0  0  0  0  0
  151.7358  138.6035  154.2982 N   0  0  0  0  0  0  0  0  0  0  0  0
  150.5090  138.2055  154.6463 C   0  0  0  0  0  0  0  0  0  0  0  0
  150.0939  136.9067  154.2592 N   0  0  0  0  0  0  0  0  0  0  0  0
  150.3432  135.7422  154.8793 C   0  0  0  0  0  0  0  0  0  0  0  0
  150.9903  135.6127  155.9184 O   0  0  0  0  0  0  0  0  0  0  0  0
  149.7891  134.7127  154.2223 N   0  0  0  0  0  0  0  0  0  0  0  0
  149.8962  133.3079  154.6051 C   0  0  0  0  0  0  0  0  0  0  0  0
  149.1631  132.3734  153.6224 C   0  0  1  0  0  0  0  0  0  0  0  0
  148.2578  131.3534  154.3090 C   0  0  0  0  0  0  0  0  0  0  0  0
  147.2163  130.9759  153.2475 C   0  0  0  0  0  0  0  0  0  0  0  0
  147.2994  131.9942  152.1697 N   0  3  1  0  0  0  0  0  0  0  0  0
  145.9898  132.4516  151.6247 C   0  0  0  0  0  0  0  0  0  0  0  0
  145.1540  131.2622  151.1149 C   0  0  0  0  0  0  0  0  0  0  0  0
  146.1710  133.4767  150.4885 C   0  0  0  0  0  0  0  0  0  0  0  0
  148.1907  133.0652  152.6659 C   0  0  0  0  0  0  0  0  0  0  0  0
  149.5692  139.3894  155.5550 S   0  0  0  0  0  0  0  0  0  0  0  0
  151.8754  142.3582  155.5978 H   0  0  0  0  0  0  0  0  0  0  0  0
  151.1095  141.7440  157.0736 H   0  0  0  0  0  0  0  0  0  0  0  0
  150.1100  142.3421  155.7376 H   0  0  0  0  0  0  0  0  0  0  0  0
  149.5522  136.8610  153.4086 H   0  0  0  0  0  0  0  0  0  0  0  0
  149.2755  134.9132  153.3762 H   0  0  0  0  0  0  0  0  0  0  0  0
  150.9563  133.0539  154.6224 H   0  0  0  0  0  0  0  0  0  0  0  0
  149.5330  133.1594  155.6235 H   0  0  0  0  0  0  0  0  0  0  0  0
  149.9003  131.8283  153.0299 H   0  0  0  0  0  0  0  0  0  0  0  0
  148.8086  130.4891  154.6814 H   0  0  0  0  0  0  0  0  0  0  0  0
  147.7544  131.8145  155.1602 H   0  0  0  0  0  0  0  0  0  0  0  0
  147.4261  129.9945  152.8213 H   0  0  0  0  0  0  0  0  0  0  0  0
  146.2254  130.9360  153.7017 H   0  0  0  0  0  0  0  0  0  0  0  0
  145.4385  132.9377  152.4311 H   0  0  0  0  0  0  0  0  0  0  0  0
  144.2034  131.6024  150.7029 H   0  0  0  0  0  0  0  0  0  0  0  0
  144.9180  130.5536  151.9084 H   0  0  0  0  0  0  0  0  0  0  0  0
  145.6780  130.7185  150.3281 H   0  0  0  0  0  0  0  0  0  0  0  0
  145.2076  133.7666  150.0681 H   0  0  0  0  0  0  0  0  0  0  0  0
  146.7748  133.0686  149.6772 H   0  0  0  0  0  0  0  0  0  0  0  0
  146.6496  134.3927  150.8351 H   0  0  0  0  0  0  0  0  0  0  0  0
  147.6019  133.8084  153.2066 H   0  0  0  0  0  0  0  0  0  0  0  0
  148.7069  133.5676  151.8472 H   0  0  0  0  0  0  0  0  0  0  0  0
  147.7974  131.5533  151.4097 H   0  0  0  0  0  0  0  0  0  0  0  0
  1  2  1  0  0  0  0
  1 20  1  0  0  0  0
  1 21  1  0  0  0  0
  1 22  1  0  0  0  0
  2 19  1  0  0  0  0
  2  3  2  0  0  0  0
  3  4  1  0  0  0  0
  4  5  2  0  0  0  0
  5  6  1  0  0  0  0
  5 19  1  0  0  0  0
  6  7  1  0  0  0  0
  6 23  1  0  0  0  0
  7  8  2  0  0  0  0
  7  9  1  0  0  0  0
  9 10  1  0  0  0  0
  9 24  1  0  0  0  0
 10 11  1  0  0  0  0
 10 25  1  0  0  0  0
 10 26  1  0  0  0  0
 11 18  1  0  0  0  0
 11 12  1  0  0  0  0
 11 27  1  0  0  0  0
 12 13  1  0  0  0  0
 12 28  1  0  0  0  0
 12 29  1  0  0  0  0
 13 14  1  0  0  0  0
 13 30  1  0  0  0  0
 13 31  1  0  0  0  0
 14 15  1  0  0  0  0
 14 18  1  0  0  0  0
 14 41  1  0  0  0  0
 15 16  1  0  0  0  0
 15 17  1  0  0  0  0
 15 32  1  0  0  0  0
 16 33  1  0  0  0  0
 16 34  1  0  0  0  0
 16 35  1  0  0  0  0
 17 36  1  0  0  0  0
 17 37  1  0  0  0  0
 17 38  1  0  0  0  0
 18 39  1  0  0  0  0
 18 40  1  0  0  0  0
M  CHG  1  14   1
M  END
> <s_m_source_file>
AV-unprocessed.smi

> <i_m_source_file_index>
1831

> <i_lp_mmshare_version>
43012

> <i_f3d_flags>
0

> <s_epik_input>
W0NIM11jMW5uYyhzMSlbTkhdQyg9TylbTkhdW0NIMl1bQ0BASF0yW0NIMl1bQ0gyXU4oW0NIMl0yKVtDSF0oW0NIM10pW0NIM10=

> <s_epik_cmdline>
J2VwaWtfcHl0aG9uJywgJy1waCcsICc3LjAnLCAnLXRuJywgJzgnLCAnLW1hJywgJzIwMCcsICctbWV0YWxfYmluZGluZycsICctaW1hZScsICc8aW5maWxlLm1hZT4nLCAnLW9tYWUnLCAnPG91dGZpbGUubWFlPic=

> <r_lp_tautomer_probability>
1

> <r_epik_Ionization_Penalty>
0.00080807

> <r_epik_Ionization_Penalty_Charging>
0.000218981

> <r_epik_Ionization_Penalty_Neutral>
0.00058909

> <r_epik_State_Penalty>
-0

> <r_epik_Charging_Adjusted_Penalty>
0.000218981

> <i_epik_Tot_Q>
1

> <i_epik_Tot_abs_Q>
1

> <r_epik_Metal_State_Penalty>
0.236062

> <b_epik_Metal_Only>
0

> <s_lp_Force_Field>
OPLS_2005

> <r_lp_Energy>
27.4223

> <b_lp_Chiralities_Consistent>
1

> <s_lp_Variant>
AV-unprocessed.smi:1831-2

> <Gold.Version>
5.8.1

> <Gold.Id.Protein>
6NUR|6NUR_protein|mol2

> <Gold.PLP.Fitness>
43.8082

> <Gold.PLP.PLP>
-35.1493

> <Gold.PLP.part.hbond>
-4.1272

> <Gold.PLP.part.metal>
0.0000

> <Gold.PLP.part.buried>
-5.0171

> <Gold.PLP.part.nonpolar>
-26.1681

> <Gold.PLP.part.repulsive>
0.2952

> <Gold.PLP.ligand.clash>
0.0000

> <Gold.PLP.ligand.torsion>
1.4127

> <Gold.PLP.Chemscore.Hbond>
3.8208

> <Gold.PLP.Chemscore.CHOScore>
0.0000

> <Gold.PLP.Chemscore.Metal>
0.0000

> <Gold.Chemscore.Hbonds>
donor molecule, donor type, donor heavy atom, donor atom, acceptor molecule, acceptor atom, score
      L1  H     6    23       P1  7948  1.00
      L1  H     9    24       P1  7948  0.60
      L1  H    14    41       P1 10747  1.00
      P1  H  7989  7998       L1     3  0.39

> <Gold.PLP.Chemscore.Internal.Correction>
0.0219

> <Gold.Rescore>
     Score         DG    S(hbond)    S(metal)    S(lipo)     H(rot)  DE(clash)    DE(int)     intcor
     16.95     -18.58       2.70        0.00      68.48       1.54       0.19       1.44       ----

> <Gold.Chemscore.Fitness>
16.9459

> <Gold.Chemscore.DG>
-18.5807

> <Gold.Chemscore.ZeroCoef>
-5.4800

> <Gold.Chemscore.Hbond>
2.7036

> <Gold.Chemscore.Metal>
0.0000

> <Gold.Chemscore.Lipo>
68.4789

> <Gold.Chemscore.Internal_Hbond>
0.0000

> <Gold.Chemscore.DEClash>
0.1905

> <Gold.Chemscore.DEInternal>
1.4443

> <Gold.Chemscore.Rot>
1.5396

> <Gold.Chemscore.Internal.Correction>
   9.000000E+99

> <Gold.Chemscore.Hbonds>
donor molecule, donor type, donor heavy atom, donor atom, acceptor molecule, acceptor atom, score
      L1  H     6    23       P1  7948  0.74
      L1  H     9    24       P1  7948  0.05
      L1  H    14    41       P1 10747  1.00
      P1  H  7989  7998       L1     3  0.01

> <Gold.Chemscore.Hbond.Weighted>
-9.0300

> <Gold.Chemscore.Metal.Weighted>
-0.0000

> <Gold.Chemscore.Lipo.Weighted>
-8.0120

> <Gold.Chemscore.Internal_Hbond.Weighted>
0.0000

> <Gold.Chemscore.DEClash.Weighted>
0.1905

> <Gold.Chemscore.DEInternal.Weighted>
1.4443

> <Gold.Chemscore.Rot.Weighted>
3.9413

> <Gold.Chemscore.Internal.Correction.Weighted>
   9.000000E+99

> <Gold.Protein.RotatedTorsions>
[ 6907 6896 6895 6894 ] final -145.06 input  -60.11 | X-H torsion
[ 7974 7965 7964 7962 ] final  -60.64 input  175.53 | X-H torsion
[ 8008 7997 7996 7995 ] final -118.64 input   59.86 | X-H torsion
[ 10167 10162 10161 10158 ] final  -60.15 input  -65.29 | X-H torsion
[ 10718 10713 10712 10709 ] final   40.78 input   66.30 | X-H torsion
[ 10763 10752 10751 10750 ] final   14.40 input  -60.55 | X-H torsion
[ 11005 11000 10999 10996 ] final  159.48 input  -57.11 | X-H torsion

> <Gold.Protein.ActiveResidues>
 VAL166  LYS551  ARG553  GLY616  TRP617  ASP618  TYR619  PRO620  LYS621  CYS622 
 ASP623  PHE694  ASN695  SER759  ASP760  ASP761  ALA762  ILE779  LEU786  VAL792 
 PHE793  MET794  SER795  GLU796  ALA797  LYS798  CYS799  TRP800  GLU811  SER814 

> <Gold.Protein.RotatedAtoms>
  151.1226  133.5093  159.2601 H   0  0  0  0  0  0  0  0  0  0  0  0  # atno 6907 bound_to 6896
  151.1845  135.0375  159.8816 H   0  0  0  0  0  0  0  0  0  0  0  0  # atno 6908 bound_to 6896
  152.5456  134.1074  159.8397 H   0  0  0  0  0  0  0  0  0  0  0  0  # atno 6909 bound_to 6896
  145.8130  140.8587  143.0172 H   0  0  0  0  0  0  0  0  0  0  0  0  # atno 7974 bound_to 7965
  155.1029  140.0396  157.2702 H   0  0  0  0  0  0  0  0  0  0  0  0  # atno 8008 bound_to 7997
  154.6744  140.2619  155.6948 H   0  0  0  0  0  0  0  0  0  0  0  0  # atno 8009 bound_to 7997
  156.2671  140.2791  156.1265 H   0  0  0  0  0  0  0  0  0  0  0  0  # atno 8010 bound_to 7997
  140.6090  143.2381  151.5754 H   0  0  0  0  0  0  0  0  0  0  0  0  # atno 10167 bound_to 10162
  157.3860  130.7780  149.7231 H   0  0  0  0  0  0  0  0  0  0  0  0  # atno 10718 bound_to 10713
  153.1626  135.6798  153.8721 H   0  0  0  0  0  0  0  0  0  0  0  0  # atno 10763 bound_to 10752
  153.8111  135.3143  155.3402 H   0  0  0  0  0  0  0  0  0  0  0  0  # atno 10764 bound_to 10752
  154.7943  135.4816  154.0214 H   0  0  0  0  0  0  0  0  0  0  0  0  # atno 10765 bound_to 10752
  140.1966  134.8368  157.2971 H   0  0  0  0  0  0  0  0  0  0  0  0  # atno 11005 bound_to 11000
  144.6755  140.0423  143.7480 LP  0  0  0  0  0  0  0  0  0  0  0  0  # atno 17320 bound_to 7965
  145.9757  139.2903  143.1072 LP  0  0  0  0  0  0  0  0  0  0  0  0  # atno 17321 bound_to 7965
  139.5346  144.2816  152.1224 LP  0  0  0  0  0  0  0  0  0  0  0  0  # atno 17342 bound_to 10162
  140.2012  144.4656  150.6431 LP  0  0  0  0  0  0  0  0  0  0  0  0  # atno 17343 bound_to 10162
  155.9787  130.4048  150.3633 LP  0  0  0  0  0  0  0  0  0  0  0  0  # atno 17370 bound_to 10713
  157.1744  131.0376  151.2780 LP  0  0  0  0  0  0  0  0  0  0  0  0  # atno 17371 bound_to 10713
  140.2100  134.4150  155.7617 LP  0  0  0  0  0  0  0  0  0  0  0  0  # atno 17394 bound_to 11000
  141.2227  133.7114  156.8323 LP  0  0  0  0  0  0  0  0  0  0  0  0  # atno 17395 bound_to 11000

$$$$
