AV-unprocessed.smi:1247|AV-procd|sdf|5249|dock2
  -GOLD-   22720 4363D 1   1.00000     0.00000
 Structure written by MMmdl.
 47 48  0  0  0  0  0  0  0  0  2 V2000
  150.9953  142.4705  157.0299 C   0  0  0  0  0  0  0  0  0  0  0  0
  150.7653  141.3328  156.0794 C   0  0  0  0  0  0  0  0  0  0  0  0
  149.6887  141.1593  155.1616 C   0  0  0  0  0  0  0  0  0  0  0  0
  149.9907  139.9649  154.5664 C   0  0  0  0  0  0  0  0  0  0  0  0
  149.2996  139.2909  153.6093 N   0  0  0  0  0  0  0  0  0  0  0  0
  148.0797  139.5613  153.1136 C   0  0  0  0  0  0  0  0  0  0  0  0
  147.3679  140.5098  153.4453 O   0  0  0  0  0  0  0  0  0  0  0  0
  147.7238  138.6675  152.1794 N   0  0  0  0  0  0  0  0  0  0  0  0
  146.4708  138.6988  151.4331 C   0  0  0  0  0  0  0  0  0  0  0  0
  146.2122  137.3591  150.7177 C   0  0  0  0  0  0  0  0  0  0  0  0
  146.1510  136.2108  151.6607 N   0  3  1  0  0  0  0  0  0  0  0  0
  145.2186  136.4267  152.7944 C   0  0  0  0  0  0  0  0  0  0  0  0
  143.7523  136.2327  152.3573 C   0  0  2  0  0  0  0  0  0  0  0  0
  142.7757  136.3725  153.5300 C   0  0  0  0  0  0  0  0  0  0  0  0
  143.6051  134.9257  151.8128 O   0  0  0  0  0  0  0  0  0  0  0  0
  144.4080  134.7132  150.6563 C   0  0  2  0  0  0  0  0  0  0  0  0
  144.1119  133.3056  150.1273 C   0  0  0  0  0  0  0  0  0  0  0  0
  145.8962  134.8910  151.0281 C   0  0  0  0  0  0  0  0  0  0  0  0
  151.1574  139.4775  155.1117 N   0  0  0  0  0  0  0  0  0  0  0  0
  151.8722  138.2522  154.8127 C   0  0  0  0  0  0  0  0  0  0  0  0
  151.6354  140.3295  156.0443 N   0  0  0  0  0  0  0  0  0  0  0  0
  150.2249  143.2344  156.9243 H   0  0  0  0  0  0  0  0  0  0  0  0
  151.9597  142.9457  156.8486 H   0  0  0  0  0  0  0  0  0  0  0  0
  150.9811  142.1263  158.0644 H   0  0  0  0  0  0  0  0  0  0  0  0
  148.8451  141.8103  154.9886 H   0  0  0  0  0  0  0  0  0  0  0  0
  149.7828  138.5024  153.2046 H   0  0  0  0  0  0  0  0  0  0  0  0
  148.3651  137.9169  151.9671 H   0  0  0  0  0  0  0  0  0  0  0  0
  145.6769  138.9194  152.1454 H   0  0  0  0  0  0  0  0  0  0  0  0
  146.4822  139.5214  150.7157 H   0  0  0  0  0  0  0  0  0  0  0  0
  145.2563  137.4307  150.1971 H   0  0  0  0  0  0  0  0  0  0  0  0
  146.9641  137.1877  149.9474 H   0  0  0  0  0  0  0  0  0  0  0  0
  145.4629  135.7080  153.5781 H   0  0  0  0  0  0  0  0  0  0  0  0
  145.3684  137.4151  153.2309 H   0  0  0  0  0  0  0  0  0  0  0  0
  143.4844  136.9714  151.6002 H   0  0  0  0  0  0  0  0  0  0  0  0
  142.8394  137.3644  153.9781 H   0  0  0  0  0  0  0  0  0  0  0  0
  142.9839  135.6383  154.3089 H   0  0  0  0  0  0  0  0  0  0  0  0
  141.7475  136.2243  153.1989 H   0  0  0  0  0  0  0  0  0  0  0  0
  144.1233  135.4313  149.8863 H   0  0  0  0  0  0  0  0  0  0  0  0
  144.6975  133.0903  149.2334 H   0  0  0  0  0  0  0  0  0  0  0  0
  143.0585  133.2016  149.8667 H   0  0  0  0  0  0  0  0  0  0  0  0
  144.3465  132.5449  150.8725 H   0  0  0  0  0  0  0  0  0  0  0  0
  146.5321  134.7424  150.1563 H   0  0  0  0  0  0  0  0  0  0  0  0
  146.1828  134.1186  151.7433 H   0  0  0  0  0  0  0  0  0  0  0  0
  152.1496  138.2387  153.7584 H   0  0  0  0  0  0  0  0  0  0  0  0
  151.2338  137.3946  155.0251 H   0  0  0  0  0  0  0  0  0  0  0  0
  152.7773  138.1774  155.4168 H   0  0  0  0  0  0  0  0  0  0  0  0
  147.0728  136.1607  152.0714 H   0  0  0  0  0  0  0  0  0  0  0  0
  1  2  1  0  0  0  0
  1 22  1  0  0  0  0
  1 23  1  0  0  0  0
  1 24  1  0  0  0  0
  2 21  2  0  0  0  0
  2  3  1  0  0  0  0
  3  4  2  0  0  0  0
  3 25  1  0  0  0  0
  4  5  1  0  0  0  0
  4 19  1  0  0  0  0
  5  6  1  0  0  0  0
  5 26  1  0  0  0  0
  6  7  2  0  0  0  0
  6  8  1  0  0  0  0
  8  9  1  0  0  0  0
  8 27  1  0  0  0  0
  9 10  1  0  0  0  0
  9 28  1  0  0  0  0
  9 29  1  0  0  0  0
 10 11  1  0  0  0  0
 10 30  1  0  0  0  0
 10 31  1  0  0  0  0
 11 18  1  0  0  0  0
 11 12  1  0  0  0  0
 11 47  1  0  0  0  0
 12 13  1  0  0  0  0
 12 32  1  0  0  0  0
 12 33  1  0  0  0  0
 13 14  1  0  0  0  0
 13 15  1  0  0  0  0
 13 34  1  0  0  0  0
 14 35  1  0  0  0  0
 14 36  1  0  0  0  0
 14 37  1  0  0  0  0
 15 16  1  0  0  0  0
 16 17  1  0  0  0  0
 16 18  1  0  0  0  0
 16 38  1  0  0  0  0
 17 39  1  0  0  0  0
 17 40  1  0  0  0  0
 17 41  1  0  0  0  0
 18 42  1  0  0  0  0
 18 43  1  0  0  0  0
 19 20  1  0  0  0  0
 19 21  1  0  0  0  0
 20 44  1  0  0  0  0
 20 45  1  0  0  0  0
 20 46  1  0  0  0  0
M  CHG  1  11   1
M  END
> <s_m_source_file>
AV-unprocessed.smi

> <i_m_source_file_index>
1247

> <i_lp_mmshare_version>
43012

> <i_f3d_flags>
0

> <s_epik_input>
W0NIM11jMVtjSF1jKG4objEpW0NIM10pW05IXUMoPU8pW05IXVtDSDJdW0NIMl1OMltDSDJdW0NAQEhdKFtDSDNdKU9bQ0BASF0oW0NIM10pW0NIMl0y

> <s_epik_cmdline>
J2VwaWtfcHl0aG9uJywgJy1waCcsICc3LjAnLCAnLXRuJywgJzgnLCAnLW1hJywgJzIwMCcsICctbWV0YWxfYmluZGluZycsICctaW1hZScsICc8aW5maWxlLm1hZT4nLCAnLW9tYWUnLCAnPG91dGZpbGUubWFlPic=

> <r_lp_tautomer_probability>
1

> <r_epik_Ionization_Penalty>
0.663902

> <r_epik_Ionization_Penalty_Charging>
0.663826

> <r_epik_Ionization_Penalty_Neutral>
7.65444e-05

> <r_epik_State_Penalty>
0.683414

> <r_epik_Charging_Adjusted_Penalty>
1.34724

> <i_epik_Tot_Q>
1

> <i_epik_Tot_abs_Q>
1

> <r_epik_Metal_State_Penalty>
0.683419

> <b_epik_Metal_Only>
0

> <s_lp_Force_Field>
OPLS_2005

> <r_lp_Energy>
18.7227

> <b_lp_Chiralities_Consistent>
1

> <s_lp_Variant>
AV-unprocessed.smi:1247-7

> <Gold.Version>
5.8.1

> <Gold.Id.Protein>
6NUR|6NUR_protein|mol2

> <Gold.PLP.Fitness>
47.7934

> <Gold.PLP.PLP>
-39.1426

> <Gold.PLP.part.hbond>
-4.0000

> <Gold.PLP.part.metal>
0.0000

> <Gold.PLP.part.buried>
4.2856

> <Gold.PLP.part.nonpolar>
-40.0419

> <Gold.PLP.part.repulsive>
0.6039

> <Gold.PLP.ligand.clash>
0.0000

> <Gold.PLP.ligand.torsion>
0.1258

> <Gold.PLP.Chemscore.Hbond>
2.9520

> <Gold.PLP.Chemscore.CHOScore>
0.0000

> <Gold.PLP.Chemscore.Metal>
0.0000

> <Gold.Chemscore.Hbonds>
donor molecule, donor type, donor heavy atom, donor atom, acceptor molecule, acceptor atom, score
      L1  H     8    27       P1  7948  1.00
      L1  H    11    47       P1  7948  1.92

> <Gold.PLP.Chemscore.Internal.Correction>
0.0464

> <Gold.Rescore>
     Score         DG    S(hbond)    S(metal)    S(lipo)     H(rot)  DE(clash)    DE(int)     intcor
     13.53     -17.88       1.95        0.00      83.67       1.52       3.09       1.26       ----

> <Gold.Chemscore.Fitness>
13.5259

> <Gold.Chemscore.DG>
-17.8813

> <Gold.Chemscore.ZeroCoef>
-5.4800

> <Gold.Chemscore.Hbond>
1.9488

> <Gold.Chemscore.Metal>
0.0000

> <Gold.Chemscore.Lipo>
83.6679

> <Gold.Chemscore.Internal_Hbond>
0.0000

> <Gold.Chemscore.DEClash>
3.0920

> <Gold.Chemscore.DEInternal>
1.2635

> <Gold.Chemscore.Rot>
1.5221

> <Gold.Chemscore.Internal.Correction>
   9.000000E+99

> <Gold.Chemscore.Hbonds>
donor molecule, donor type, donor heavy atom, donor atom, acceptor molecule, acceptor atom, score
      L1  H     8    27       P1  7948  0.99
      L1  H    11    47       P1  7948  0.92

> <Gold.Chemscore.Hbond.Weighted>
-6.5089

> <Gold.Chemscore.Metal.Weighted>
-0.0000

> <Gold.Chemscore.Lipo.Weighted>
-9.7891

> <Gold.Chemscore.Internal_Hbond.Weighted>
0.0000

> <Gold.Chemscore.DEClash.Weighted>
3.0920

> <Gold.Chemscore.DEInternal.Weighted>
1.2635

> <Gold.Chemscore.Rot.Weighted>
3.8967

> <Gold.Chemscore.Internal.Correction.Weighted>
   9.000000E+99

> <Gold.Protein.RotatedTorsions>
[ 6907 6896 6895 6894 ] final   18.62 input  -60.11 | X-H torsion
[ 7974 7965 7964 7962 ] final   51.53 input  175.53 | X-H torsion
[ 8008 7997 7996 7995 ] final  168.75 input   59.86 | X-H torsion
[ 10167 10162 10161 10158 ] final   96.34 input  -65.29 | X-H torsion
[ 10718 10713 10712 10709 ] final  109.32 input   66.30 | X-H torsion
[ 10763 10752 10751 10750 ] final  104.16 input  -60.55 | X-H torsion
[ 11005 11000 10999 10996 ] final   58.21 input  -57.11 | X-H torsion

> <Gold.Protein.ActiveResidues>
 VAL166  LYS551  ARG553  GLY616  TRP617  ASP618  TYR619  PRO620  LYS621  CYS622 
 ASP623  PHE694  ASN695  SER759  ASP760  ASP761  ALA762  ILE779  LEU786  VAL792 
 PHE793  MET794  SER795  GLU796  ALA797  LYS798  CYS799  TRP800  GLU811  SER814 

> <Gold.Protein.RotatedAtoms>
  151.8682  135.0499  160.0476 H   0  0  0  0  0  0  0  0  0  0  0  0  # atno 6907 bound_to 6896
  152.2609  133.5292  159.5390 H   0  0  0  0  0  0  0  0  0  0  0  0  # atno 6908 bound_to 6896
  150.7116  134.0746  159.3919 H   0  0  0  0  0  0  0  0  0  0  0  0  # atno 6909 bound_to 6896
  145.9904  139.4333  143.0077 H   0  0  0  0  0  0  0  0  0  0  0  0  # atno 7974 bound_to 7965
  156.1519  140.1582  156.8756 H   0  0  0  0  0  0  0  0  0  0  0  0  # atno 8008 bound_to 7997
  154.5079  140.0808  156.7967 H   0  0  0  0  0  0  0  0  0  0  0  0  # atno 8009 bound_to 7997
  155.3880  140.3408  155.4252 H   0  0  0  0  0  0  0  0  0  0  0  0  # atno 8010 bound_to 7997
  139.7903  144.6854  150.9901 H   0  0  0  0  0  0  0  0  0  0  0  0  # atno 10167 bound_to 10162
  157.6546  131.0911  150.6437 H   0  0  0  0  0  0  0  0  0  0  0  0  # atno 10718 bound_to 10713
  153.3622  135.3952  155.1727 H   0  0  0  0  0  0  0  0  0  0  0  0  # atno 10763 bound_to 10752
  154.8681  135.3682  154.5084 H   0  0  0  0  0  0  0  0  0  0  0  0  # atno 10764 bound_to 10752
  153.5545  135.7082  153.5636 H   0  0  0  0  0  0  0  0  0  0  0  0  # atno 10765 bound_to 10752
  140.0395  134.5895  155.9401 H   0  0  0  0  0  0  0  0  0  0  0  0  # atno 11005 bound_to 11000
  145.7638  140.9924  143.1186 LP  0  0  0  0  0  0  0  0  0  0  0  0  # atno 17320 bound_to 7965
  144.6887  139.9363  143.7473 LP  0  0  0  0  0  0  0  0  0  0  0  0  # atno 17321 bound_to 7965
  140.7820  143.4388  151.0583 LP  0  0  0  0  0  0  0  0  0  0  0  0  # atno 17342 bound_to 10162
  139.8065  143.8011  152.3168 LP  0  0  0  0  0  0  0  0  0  0  0  0  # atno 17343 bound_to 10162
  156.6744  130.4549  149.5647 LP  0  0  0  0  0  0  0  0  0  0  0  0  # atno 17370 bound_to 10713
  156.1974  130.6598  151.1129 LP  0  0  0  0  0  0  0  0  0  0  0  0  # atno 17371 bound_to 10713
  141.1875  133.6560  156.5285 LP  0  0  0  0  0  0  0  0  0  0  0  0  # atno 17394 bound_to 11000
  140.4093  134.7287  157.4826 LP  0  0  0  0  0  0  0  0  0  0  0  0  # atno 17395 bound_to 11000

$$$$
