AV-unprocessed.smi:3104|AV-procd|sdf|11815|dock3
  -GOLD-   2272017183D 1   1.00000     0.00000
 Structure written by MMmdl.
 37 38  0  0  0  0  0  0  0  0  2 V2000
  153.2974  142.6720  162.8384 C   0  0  0  0  0  0  0  0  0  0  0  0
  153.0434  142.3974  161.3840 C   0  0  0  0  0  0  0  0  0  0  0  0
  153.5337  141.3156  160.5991 C   0  0  0  0  0  0  0  0  0  0  0  0
  153.1218  141.3643  159.3430 N   0  0  0  0  0  0  0  0  0  0  0  0
  152.3568  142.4766  159.2784 N   0  0  0  0  0  0  0  0  0  0  0  0
  151.7213  142.8575  158.0230 C   0  0  2  0  0  0  0  0  0  0  0  0
  150.8754  144.1291  158.2269 C   0  0  0  0  0  0  0  0  0  0  0  0
  150.9140  141.6863  157.3996 C   0  0  2  0  0  0  0  0  0  0  0  0
  151.8039  140.5165  156.9419 C   0  0  0  0  0  0  0  0  0  0  0  0
  150.1194  142.1609  156.2443 N   0  3  0  0  0  0  0  0  0  0  0  0
  149.0263  141.2583  155.8309 C   0  0  0  0  0  0  0  0  0  0  0  0
  148.6384  141.4991  154.3872 C   0  0  0  0  0  0  0  0  0  0  0  0
  147.3169  142.1429  154.0351 C   0  0  0  0  0  0  0  0  0  0  0  0
  147.5404  140.6785  153.7504 C   0  0  0  0  0  0  0  0  0  0  0  0
  152.2918  143.1168  160.4987 C   0  0  0  0  0  0  0  0  0  0  0  0
  153.8997  141.8892  163.3002 H   0  0  0  0  0  0  0  0  0  0  0  0
  152.3678  142.7369  163.4042 H   0  0  0  0  0  0  0  0  0  0  0  0
  153.8293  143.6126  162.9829 H   0  0  0  0  0  0  0  0  0  0  0  0
  154.1737  140.5004  160.9035 H   0  0  0  0  0  0  0  0  0  0  0  0
  152.5282  143.1107  157.3334 H   0  0  0  0  0  0  0  0  0  0  0  0
  150.5131  144.5261  157.2787 H   0  0  0  0  0  0  0  0  0  0  0  0
  151.4623  144.9171  158.7002 H   0  0  0  0  0  0  0  0  0  0  0  0
  150.0083  143.9363  158.8596 H   0  0  0  0  0  0  0  0  0  0  0  0
  150.2355  141.2902  158.1576 H   0  0  0  0  0  0  0  0  0  0  0  0
  152.3327  140.0572  157.7773 H   0  0  0  0  0  0  0  0  0  0  0  0
  152.5488  140.8448  156.2163 H   0  0  0  0  0  0  0  0  0  0  0  0
  151.2076  139.7322  156.4745 H   0  0  0  0  0  0  0  0  0  0  0  0
  149.7271  143.0626  156.4753 H   0  0  0  0  0  0  0  0  0  0  0  0
  149.3526  140.2234  155.9408 H   0  0  0  0  0  0  0  0  0  0  0  0
  148.1555  141.3971  156.4728 H   0  0  0  0  0  0  0  0  0  0  0  0
  149.4795  141.7313  153.7363 H   0  0  0  0  0  0  0  0  0  0  0  0
  146.6423  142.3977  154.8502 H   0  0  0  0  0  0  0  0  0  0  0  0
  147.2999  142.8233  153.1861 H   0  0  0  0  0  0  0  0  0  0  0  0
  147.6712  140.3830  152.7114 H   0  0  0  0  0  0  0  0  0  0  0  0
  147.0141  139.9603  154.3763 H   0  0  0  0  0  0  0  0  0  0  0  0
  151.7223  144.0243  160.6359 H   0  0  0  0  0  0  0  0  0  0  0  0
  150.7419  142.2754  155.4575 H   0  0  0  0  0  0  0  0  0  0  0  0
  1  2  1  0  0  0  0
  1 16  1  0  0  0  0
  1 17  1  0  0  0  0
  1 18  1  0  0  0  0
  2 15  2  0  0  0  0
  2  3  1  0  0  0  0
  3  4  2  0  0  0  0
  3 19  1  0  0  0  0
  4  5  1  0  0  0  0
  5  6  1  0  0  0  0
  5 15  1  0  0  0  0
  6  7  1  0  0  0  0
  6  8  1  0  0  0  0
  6 20  1  0  0  0  0
  7 21  1  0  0  0  0
  7 22  1  0  0  0  0
  7 23  1  0  0  0  0
  8  9  1  0  0  0  0
  8 10  1  0  0  0  0
  8 24  1  0  0  0  0
  9 25  1  0  0  0  0
  9 26  1  0  0  0  0
  9 27  1  0  0  0  0
 10 11  1  0  0  0  0
 10 28  1  0  0  0  0
 10 37  1  0  0  0  0
 11 12  1  0  0  0  0
 11 29  1  0  0  0  0
 11 30  1  0  0  0  0
 12 14  1  0  0  0  0
 12 13  1  0  0  0  0
 12 31  1  0  0  0  0
 13 14  1  0  0  0  0
 13 32  1  0  0  0  0
 13 33  1  0  0  0  0
 14 34  1  0  0  0  0
 14 35  1  0  0  0  0
 15 36  1  0  0  0  0
M  CHG  1  10   1
M  END
> <s_m_source_file>
AV-unprocessed.smi

> <i_m_source_file_index>
3104

> <i_lp_mmshare_version>
43012

> <i_f3d_flags>
0

> <s_epik_input>
W0NIM11jMVtjSF1ubihbY0hdMSlbQ0BIXShbQ0gzXSlbQ0BIXShbQ0gzXSlbTkhdW0NIMl1bQ0hdMltDSDJdW0NIMl0y

> <s_epik_cmdline>
J2VwaWtfcHl0aG9uJywgJy1waCcsICc3LjAnLCAnLXRuJywgJzgnLCAnLW1hJywgJzIwMCcsICctbWV0YWxfYmluZGluZycsICctaW1hZScsICc8aW5maWxlLm1hZT4nLCAnLW9tYWUnLCAnPG91dGZpbGUubWFlPic=

> <r_lp_tautomer_probability>
1

> <r_epik_Ionization_Penalty>
0.00120445

> <r_epik_Ionization_Penalty_Charging>
0.00118273

> <r_epik_Ionization_Penalty_Neutral>
2.17265e-05

> <r_epik_State_Penalty>
-0

> <r_epik_Charging_Adjusted_Penalty>
0.00118273

> <i_epik_Tot_Q>
1

> <i_epik_Tot_abs_Q>
1

> <r_epik_Metal_State_Penalty>
-0

> <b_epik_Metal_Only>
0

> <s_lp_Force_Field>
OPLS_2005

> <r_lp_Energy>
21.3992

> <b_lp_Chiralities_Consistent>
1

> <s_lp_Variant>
AV-unprocessed.smi:3104-1

> <Gold.Version>
5.8.1

> <Gold.Id.Protein>
6NUR|6NUR_protein|mol2

> <Gold.PLP.Fitness>
44.7705

> <Gold.PLP.PLP>
-40.4333

> <Gold.PLP.part.hbond>
-1.0000

> <Gold.PLP.part.metal>
0.0000

> <Gold.PLP.part.buried>
-4.8692

> <Gold.PLP.part.nonpolar>
-34.7015

> <Gold.PLP.part.repulsive>
0.0917

> <Gold.PLP.ligand.clash>
0.0000

> <Gold.PLP.ligand.torsion>
0.7457

> <Gold.PLP.Chemscore.Hbond>
1.7280

> <Gold.PLP.Chemscore.CHOScore>
0.0000

> <Gold.PLP.Chemscore.Metal>
0.0000

> <Gold.Chemscore.Hbonds>
donor molecule, donor type, donor heavy atom, donor atom, acceptor molecule, acceptor atom, score
      L1  H    10    28       P1  8028  1.73

> <Gold.PLP.Chemscore.Internal.Correction>
0.6445

> <Gold.Rescore>
     Score         DG    S(hbond)    S(metal)    S(lipo)     H(rot)  DE(clash)    DE(int)     intcor
     14.69     -16.75       0.87        0.00     104.26       1.49       0.02       2.04       ----

> <Gold.Chemscore.Fitness>
14.6882

> <Gold.Chemscore.DG>
-16.7490

> <Gold.Chemscore.ZeroCoef>
-5.4800

> <Gold.Chemscore.Hbond>
0.8655

> <Gold.Chemscore.Metal>
0.0000

> <Gold.Chemscore.Lipo>
104.2623

> <Gold.Chemscore.Internal_Hbond>
0.0000

> <Gold.Chemscore.DEClash>
0.0162

> <Gold.Chemscore.DEInternal>
2.0447

> <Gold.Chemscore.Rot>
1.4923

> <Gold.Chemscore.Internal.Correction>
   9.000000E+99

> <Gold.Chemscore.Hbonds>
donor molecule, donor type, donor heavy atom, donor atom, acceptor molecule, acceptor atom, score
      L1  H    10    28       P1  8028  0.79

> <Gold.Chemscore.Hbond.Weighted>
-2.8907

> <Gold.Chemscore.Metal.Weighted>
-0.0000

> <Gold.Chemscore.Lipo.Weighted>
-12.1987

> <Gold.Chemscore.Internal_Hbond.Weighted>
0.0000

> <Gold.Chemscore.DEClash.Weighted>
0.0162

> <Gold.Chemscore.DEInternal.Weighted>
2.0447

> <Gold.Chemscore.Rot.Weighted>
3.8204

> <Gold.Chemscore.Internal.Correction.Weighted>
   9.000000E+99

> <Gold.Protein.RotatedTorsions>
[ 6907 6896 6895 6894 ] final  -31.35 input  -60.11 | X-H torsion
[ 7974 7965 7964 7962 ] final  -91.43 input  175.53 | X-H torsion
[ 8008 7997 7996 7995 ] final   14.96 input   59.86 | X-H torsion
[ 10167 10162 10161 10158 ] final  -99.49 input  -65.29 | X-H torsion
[ 10718 10713 10712 10709 ] final -103.16 input   66.30 | X-H torsion
[ 10763 10752 10751 10750 ] final   15.84 input  -60.55 | X-H torsion
[ 11005 11000 10999 10996 ] final   27.99 input  -57.11 | X-H torsion

> <Gold.Protein.ActiveResidues>
 VAL166  LYS551  ARG553  GLY616  TRP617  ASP618  TYR619  PRO620  LYS621  CYS622 
 ASP623  PHE694  ASN695  SER759  ASP760  ASP761  ALA762  ILE779  LEU786  VAL792 
 PHE793  MET794  SER795  GLU796  ALA797  LYS798  CYS799  TRP800  GLU811  SER814 

> <Gold.Protein.RotatedAtoms>
  151.0933  134.9929  159.8412 H   0  0  0  0  0  0  0  0  0  0  0  0  # atno 6907 bound_to 6896
  152.5431  134.2039  159.8733 H   0  0  0  0  0  0  0  0  0  0  0  0  # atno 6908 bound_to 6896
  151.2077  133.4530  159.2631 H   0  0  0  0  0  0  0  0  0  0  0  0  # atno 6909 bound_to 6896
  145.4132  140.9546  143.2222 H   0  0  0  0  0  0  0  0  0  0  0  0  # atno 7974 bound_to 7965
  154.8558  140.2937  155.5569 H   0  0  0  0  0  0  0  0  0  0  0  0  # atno 8008 bound_to 7997
  156.3018  140.2487  156.3457 H   0  0  0  0  0  0  0  0  0  0  0  0  # atno 8009 bound_to 7997
  154.8971  140.0392  157.1861 H   0  0  0  0  0  0  0  0  0  0  0  0  # atno 8010 bound_to 7997
  140.2619  143.3402  152.0618 H   0  0  0  0  0  0  0  0  0  0  0  0  # atno 10167 bound_to 10162
  156.0255  130.5454  150.7212 H   0  0  0  0  0  0  0  0  0  0  0  0  # atno 10718 bound_to 10713
  153.1487  135.6774  153.8916 H   0  0  0  0  0  0  0  0  0  0  0  0  # atno 10763 bound_to 10752
  153.8349  135.3113  155.3423 H   0  0  0  0  0  0  0  0  0  0  0  0  # atno 10764 bound_to 10752
  154.7845  135.4870  154.0002 H   0  0  0  0  0  0  0  0  0  0  0  0  # atno 10765 bound_to 10752
  140.3204  134.2550  155.7718 H   0  0  0  0  0  0  0  0  0  0  0  0  # atno 11005 bound_to 11000
  144.8295  139.5653  143.6950 LP  0  0  0  0  0  0  0  0  0  0  0  0  # atno 17320 bound_to 7965
  146.2694  139.6598  142.9306 LP  0  0  0  0  0  0  0  0  0  0  0  0  # atno 17321 bound_to 7965
  139.5014  144.6713  151.6235 LP  0  0  0  0  0  0  0  0  0  0  0  0  # atno 17342 bound_to 10162
  140.5959  143.9697  150.6354 LP  0  0  0  0  0  0  0  0  0  0  0  0  # atno 17343 bound_to 10162
  157.4827  131.0904  151.0517 LP  0  0  0  0  0  0  0  0  0  0  0  0  # atno 17370 bound_to 10713
  157.0946  130.5956  149.5447 LP  0  0  0  0  0  0  0  0  0  0  0  0  # atno 17371 bound_to 10713
  141.2088  133.7767  157.0037 LP  0  0  0  0  0  0  0  0  0  0  0  0  # atno 17394 bound_to 11000
  140.0947  134.9571  157.1831 LP  0  0  0  0  0  0  0  0  0  0  0  0  # atno 17395 bound_to 11000

$$$$
