AV-unprocessed.smi:2636|AV-procd|sdf|10257|dock8
  -GOLD-   2272014263D 1   1.00000     0.00000
 Structure written by MMmdl.
 36 37  0  0  0  0  0  0  0  0  1 V2000
  150.9788  141.5776  156.2226 C   0  0  0  0  0  0  0  0  0  0  0  0
  151.4947  140.1502  156.2984 C   0  0  0  0  0  0  0  0  0  0  0  0
  152.1991  139.6865  157.3626 C   0  0  0  0  0  0  0  0  0  0  0  0
  152.6782  138.3901  157.4550 N   0  0  0  0  0  0  0  0  0  0  0  0
  153.4787  137.9260  158.5740 C   0  0  0  0  0  0  0  0  0  0  0  0
  154.5843  138.7584  158.7153 O   0  0  0  0  0  0  0  0  0  0  0  0
  154.5852  139.4855  159.9324 C   0  0  0  0  0  0  0  0  0  0  0  0
  154.1638  140.9177  159.6886 C   0  0  0  0  0  0  0  0  0  0  0  0
  153.1335  141.5180  160.3115 C   0  0  0  0  0  0  0  0  0  0  0  0
  152.6769  142.9058  160.1172 C   0  0  0  0  0  0  0  0  0  0  0  0
  152.1477  143.6894  161.1700 C   0  0  0  0  0  0  0  0  0  0  0  0
  151.7267  145.0132  160.9353 C   0  0  0  0  0  0  0  0  0  0  0  0
  151.8296  145.5694  159.6469 C   0  0  0  0  0  0  0  0  0  0  0  0
  152.3545  144.7991  158.5929 C   0  0  0  0  0  0  0  0  0  0  0  0
  152.7750  143.4758  158.8289 C   0  0  0  0  0  0  0  0  0  0  0  0
  152.4637  137.4848  156.3948 C   0  0  0  0  0  0  0  0  0  0  0  0
  152.8817  136.3267  156.4030 O   0  0  0  0  0  0  0  0  0  0  0  0
  151.7380  137.9605  155.3038 N   0  0  0  0  0  0  0  0  0  0  0  0
  151.2212  139.2526  155.1713 C   0  0  0  0  0  0  0  0  0  0  0  0
  150.5936  139.5539  154.1574 O   0  0  0  0  0  0  0  0  0  0  0  0
  151.5749  137.3181  154.5423 H   0  0  0  0  0  0  0  0  0  0  0  0
  151.2286  142.1455  157.1192 H   0  0  0  0  0  0  0  0  0  0  0  0
  149.8937  141.5861  156.1131 H   0  0  0  0  0  0  0  0  0  0  0  0
  151.4140  142.0947  155.3668 H   0  0  0  0  0  0  0  0  0  0  0  0
  152.3980  140.3617  158.1827 H   0  0  0  0  0  0  0  0  0  0  0  0
  152.8719  137.9549  159.4809 H   0  0  0  0  0  0  0  0  0  0  0  0
  153.7752  136.8891  158.3961 H   0  0  0  0  0  0  0  0  0  0  0  0
  153.9131  139.0170  160.6536 H   0  0  0  0  0  0  0  0  0  0  0  0
  155.5857  139.4895  160.3673 H   0  0  0  0  0  0  0  0  0  0  0  0
  154.7564  141.4500  158.9610 H   0  0  0  0  0  0  0  0  0  0  0  0
  152.5730  140.9384  161.0310 H   0  0  0  0  0  0  0  0  0  0  0  0
  152.0556  143.2924  162.1690 H   0  0  0  0  0  0  0  0  0  0  0  0
  151.3246  145.6024  161.7462 H   0  0  0  0  0  0  0  0  0  0  0  0
  151.5068  146.5844  159.4676 H   0  0  0  0  0  0  0  0  0  0  0  0
  152.4355  145.2227  157.6028 H   0  0  0  0  0  0  0  0  0  0  0  0
  153.1768  142.8975  158.0096 H   0  0  0  0  0  0  0  0  0  0  0  0
  1  2  1  0  0  0  0
  1 22  1  0  0  0  0
  1 23  1  0  0  0  0
  1 24  1  0  0  0  0
  2 19  1  0  0  0  0
  2  3  2  0  0  0  0
  3  4  1  0  0  0  0
  3 25  1  0  0  0  0
  4  5  1  0  0  0  0
  4 16  1  0  0  0  0
  5  6  1  0  0  0  0
  5 26  1  0  0  0  0
  5 27  1  0  0  0  0
  6  7  1  0  0  0  0
  7  8  1  0  0  0  0
  7 28  1  0  0  0  0
  7 29  1  0  0  0  0
  8  9  2  0  0  0  0
  8 30  1  0  0  0  0
  9 10  1  0  0  0  0
  9 31  1  0  0  0  0
 10 15  1  0  0  0  0
 10 11  2  0  0  0  0
 11 12  1  0  0  0  0
 11 32  1  0  0  0  0
 12 13  2  0  0  0  0
 12 33  1  0  0  0  0
 13 14  1  0  0  0  0
 13 34  1  0  0  0  0
 14 15  2  0  0  0  0
 14 35  1  0  0  0  0
 15 36  1  0  0  0  0
 16 17  2  0  0  0  0
 16 18  1  0  0  0  0
 18 21  1  0  0  0  0
 18 19  1  0  0  0  0
 19 20  2  0  0  0  0
M  END
> <s_m_source_file>
AV-unprocessed.smi

> <i_m_source_file_index>
2636

> <i_lp_mmshare_version>
43012

> <i_f3d_flags>
0

> <s_epik_input>
Tz1jMVtuSF1jKD1PKW4oW2NIXWMxW0NIM10pW0NIMl1PW0NIMl0vW0NIXT1bQ0hdL2MyW2NIXVtjSF1bY0hdW2NIXVtjSF0y

> <s_epik_cmdline>
J2VwaWtfcHl0aG9uJywgJy1waCcsICc3LjAnLCAnLXRuJywgJzgnLCAnLW1hJywgJzIwMCcsICctbWV0YWxfYmluZGluZycsICctaW1hZScsICc8aW5maWxlLm1hZT4nLCAnLW9tYWUnLCAnPG91dGZpbGUubWFlPic=

> <r_lp_tautomer_probability>
0.999537

> <r_epik_Ionization_Penalty>
0.00179702

> <r_epik_Ionization_Penalty_Charging>
0.00179702

> <r_epik_Ionization_Penalty_Neutral>
9.83266e-13

> <r_epik_State_Penalty>
0.00121868

> <r_epik_Charging_Adjusted_Penalty>
0.0030157

> <i_epik_Tot_Q>
0

> <i_epik_Tot_abs_Q>
0

> <r_epik_Metal_State_Penalty>
0.826903

> <b_epik_Metal_Only>
0

> <s_epik_Chemistry_Notes>
This compound contains an acetal/aminal-like group ( X-CH(R)-Y where X, Y are N, S, or O) that may be acid/base labile, releasing an aldehyde.

> <s_lp_Force_Field>
OPLS_2005

> <r_lp_Energy>
1.95272

> <b_lp_Chiralities_Consistent>
1

> <s_lp_Variant>
AV-unprocessed.smi:2636-1

> <Gold.Version>
5.8.1

> <Gold.Id.Protein>
6NUR|6NUR_protein|mol2

> <Gold.PLP.Fitness>
53.9757

> <Gold.PLP.PLP>
-46.8266

> <Gold.PLP.part.hbond>
-3.0000

> <Gold.PLP.part.metal>
0.0000

> <Gold.PLP.part.buried>
-3.2136

> <Gold.PLP.part.nonpolar>
-40.8202

> <Gold.PLP.part.repulsive>
0.2979

> <Gold.PLP.ligand.clash>
0.0000

> <Gold.PLP.ligand.torsion>
0.9330

> <Gold.PLP.Chemscore.Hbond>
3.0000

> <Gold.PLP.Chemscore.CHOScore>
0.0000

> <Gold.PLP.Chemscore.Metal>
0.0000

> <Gold.Chemscore.Hbonds>
donor molecule, donor type, donor heavy atom, donor atom, acceptor molecule, acceptor atom, score
      P1  H  7989  7998       L1    20  1.00
      P1  H  7997  8010       L1     6  1.00
      P1  H 10752 10763       L1    17  1.00

> <Gold.PLP.Chemscore.Internal.Correction>
0.0152

> <Gold.Rescore>
     Score         DG    S(hbond)    S(metal)    S(lipo)     H(rot)  DE(clash)    DE(int)     intcor
     21.42     -22.35       2.25        0.00     121.96       1.92       0.01       0.91       ----

> <Gold.Chemscore.Fitness>
21.4219

> <Gold.Chemscore.DG>
-22.3499

> <Gold.Chemscore.ZeroCoef>
-5.4800

> <Gold.Chemscore.Hbond>
2.2514

> <Gold.Chemscore.Metal>
0.0000

> <Gold.Chemscore.Lipo>
121.9606

> <Gold.Chemscore.Internal_Hbond>
0.0000

> <Gold.Chemscore.DEClash>
0.0130

> <Gold.Chemscore.DEInternal>
0.9150

> <Gold.Chemscore.Rot>
1.9216

> <Gold.Chemscore.Internal.Correction>
   9.000000E+99

> <Gold.Chemscore.Hbonds>
donor molecule, donor type, donor heavy atom, donor atom, acceptor molecule, acceptor atom, score
      P1  H  7989  7998       L1    20  0.30
      P1  H  7997  8010       L1     6  0.57
      P1  H 10752 10763       L1    17  0.94

> <Gold.Chemscore.Hbond.Weighted>
-7.5198

> <Gold.Chemscore.Metal.Weighted>
-0.0000

> <Gold.Chemscore.Lipo.Weighted>
-14.2694

> <Gold.Chemscore.Internal_Hbond.Weighted>
0.0000

> <Gold.Chemscore.DEClash.Weighted>
0.0130

> <Gold.Chemscore.DEInternal.Weighted>
0.9150

> <Gold.Chemscore.Rot.Weighted>
4.9193

> <Gold.Chemscore.Internal.Correction.Weighted>
   9.000000E+99

> <Gold.Protein.RotatedTorsions>
[ 6907 6896 6895 6894 ] final  -14.01 input  -60.11 | X-H torsion
[ 7974 7965 7964 7962 ] final   58.70 input  175.53 | X-H torsion
[ 8008 7997 7996 7995 ] final   23.08 input   59.86 | X-H torsion
[ 10167 10162 10161 10158 ] final -108.63 input  -65.29 | X-H torsion
[ 10718 10713 10712 10709 ] final  -39.32 input   66.30 | X-H torsion
[ 10763 10752 10751 10750 ] final  115.67 input  -60.55 | X-H torsion
[ 11005 11000 10999 10996 ] final  164.23 input  -57.11 | X-H torsion

> <Gold.Protein.ActiveResidues>
 VAL166  LYS551  ARG553  GLY616  TRP617  ASP618  TYR619  PRO620  LYS621  CYS622 
 ASP623  PHE694  ASN695  SER759  ASP760  ASP761  ALA762  ILE779  LEU786  VAL792 
 PHE793  MET794  SER795  GLU796  ALA797  LYS798  CYS799  TRP800  GLU811  SER814 

> <Gold.Protein.RotatedAtoms>
  151.3461  135.0874  159.9386 H   0  0  0  0  0  0  0  0  0  0  0  0  # atno 6907 bound_to 6896
  152.5199  133.9399  159.7631 H   0  0  0  0  0  0  0  0  0  0  0  0  # atno 6908 bound_to 6896
  150.9765  133.6236  159.2759 H   0  0  0  0  0  0  0  0  0  0  0  0  # atno 6909 bound_to 6896
  145.9153  139.3686  143.0511 H   0  0  0  0  0  0  0  0  0  0  0  0  # atno 7974 bound_to 7965
  154.9755  140.3095  155.4969 H   0  0  0  0  0  0  0  0  0  0  0  0  # atno 8008 bound_to 7997
  156.2960  140.2276  156.4790 H   0  0  0  0  0  0  0  0  0  0  0  0  # atno 8009 bound_to 7997
  154.7837  140.0444  157.1135 H   0  0  0  0  0  0  0  0  0  0  0  0  # atno 8010 bound_to 7997
  140.1640  143.4097  152.1404 H   0  0  0  0  0  0  0  0  0  0  0  0  # atno 10167 bound_to 10162
  156.2937  130.4231  149.8212 H   0  0  0  0  0  0  0  0  0  0  0  0  # atno 10718 bound_to 10713
  153.5256  135.3589  155.2652 H   0  0  0  0  0  0  0  0  0  0  0  0  # atno 10763 bound_to 10752
  154.8731  135.4056  154.3209 H   0  0  0  0  0  0  0  0  0  0  0  0  # atno 10764 bound_to 10752
  153.3888  135.7071  153.6577 H   0  0  0  0  0  0  0  0  0  0  0  0  # atno 10765 bound_to 10752
  140.2438  134.8030  157.3437 H   0  0  0  0  0  0  0  0  0  0  0  0  # atno 11005 bound_to 11000
  145.8620  140.9470  143.0695 LP  0  0  0  0  0  0  0  0  0  0  0  0  # atno 17320 bound_to 7965
  144.6747  140.0542  143.7478 LP  0  0  0  0  0  0  0  0  0  0  0  0  # atno 17321 bound_to 7965
  139.5368  144.7217  151.4867 LP  0  0  0  0  0  0  0  0  0  0  0  0  # atno 17342 bound_to 10162
  140.6625  143.8469  150.6904 LP  0  0  0  0  0  0  0  0  0  0  0  0  # atno 17343 bound_to 10162
  156.5616  130.8386  151.3330 LP  0  0  0  0  0  0  0  0  0  0  0  0  # atno 17370 bound_to 10713
  157.7349  130.9754  150.2056 LP  0  0  0  0  0  0  0  0  0  0  0  0  # atno 17371 bound_to 10713
  140.1626  134.4709  155.7884 LP  0  0  0  0  0  0  0  0  0  0  0  0  # atno 17394 bound_to 11000
  141.2208  133.6908  156.7570 LP  0  0  0  0  0  0  0  0  0  0  0  0  # atno 17395 bound_to 11000

$$$$
