AV-unprocessed.smi:1202|AV-procd|sdf|5032|dock2
  -GOLD-   22720 4 53D 1   1.00000     0.00000
 Structure written by MMmdl.
 44 45  0  0  0  0  0  0  0  0  3 V2000
  149.6150  131.9254  153.5030 C   0  0  0  0  0  0  0  0  0  0  0  0
  149.0899  133.2633  153.7497 N   0  5  0  0  0  0  0  0  0  0  0  0
  149.6338  134.1286  154.6497 C   0  0  0  0  0  0  0  0  0  0  0  0
  150.7223  134.1051  155.2327 O   0  0  0  0  0  0  0  0  0  0  0  0
  148.6836  135.2986  154.9357 C   0  0  0  0  0  0  0  0  0  0  0  0
  149.2377  136.5776  154.4203 N   0  3  2  0  0  0  0  0  0  0  0  0
  150.6302  136.8412  154.8725 C   0  0  0  0  0  0  0  0  0  0  0  0
  151.2033  138.1060  154.2071 C   0  0  0  0  0  0  0  0  0  0  0  0
  150.3112  139.3371  154.4435 C   0  0  2  0  0  0  0  0  0  0  0  0
  150.3895  139.7611  155.8408 N   0  0  0  0  0  0  0  0  0  0  0  0
  151.5017  140.1665  156.4722 C   0  0  0  0  0  0  0  0  0  0  0  0
  152.6070  140.2122  155.9308 O   0  0  0  0  0  0  0  0  0  0  0  0
  151.3306  140.5623  157.9456 C   0  0  0  0  0  0  0  0  0  0  0  0
  151.5443  141.9987  158.1890 N   0  0  0  0  0  0  0  0  0  0  0  0
  150.8087  142.9016  157.3957 C   0  0  0  0  0  0  0  0  0  0  0  0
  150.9262  144.2312  157.5387 C   0  0  0  0  0  0  0  0  0  0  0  0
  151.8375  144.7320  158.5403 C   0  0  0  0  0  0  0  0  0  0  0  0
  152.5454  143.8772  159.3051 C   0  0  0  0  0  0  0  0  0  0  0  0
  152.4202  142.4231  159.1520 C   0  0  0  0  0  0  0  0  0  0  0  0
  153.0622  141.6342  159.8465 O   0  0  0  0  0  0  0  0  0  0  0  0
  148.8641  139.0126  154.0223 C   0  0  0  0  0  0  0  0  0  0  0  0
  148.3425  137.7299  154.6937 C   0  0  0  0  0  0  0  0  0  0  0  0
  149.0548  131.4082  152.7242 H   0  0  0  0  0  0  0  0  0  0  0  0
  149.5713  131.2917  154.3890 H   0  0  0  0  0  0  0  0  0  0  0  0
  150.6550  131.9406  153.1756 H   0  0  0  0  0  0  0  0  0  0  0  0
  147.7294  135.0776  154.4543 H   0  0  0  0  0  0  0  0  0  0  0  0
  148.4807  135.3783  156.0050 H   0  0  0  0  0  0  0  0  0  0  0  0
  150.6466  136.9430  155.9587 H   0  0  0  0  0  0  0  0  0  0  0  0
  151.2720  135.9943  154.6289 H   0  0  0  0  0  0  0  0  0  0  0  0
  152.2144  138.2955  154.5699 H   0  0  0  0  0  0  0  0  0  0  0  0
  151.2950  137.9308  153.1342 H   0  0  0  0  0  0  0  0  0  0  0  0
  150.6857  140.1528  153.8222 H   0  0  0  0  0  0  0  0  0  0  0  0
  149.5296  139.7458  156.3698 H   0  0  0  0  0  0  0  0  0  0  0  0
  150.3360  140.2716  158.2897 H   0  0  0  0  0  0  0  0  0  0  0  0
  152.0235  139.9637  158.5386 H   0  0  0  0  0  0  0  0  0  0  0  0
  150.1446  142.4470  156.6750 H   0  0  0  0  0  0  0  0  0  0  0  0
  150.3518  144.9081  156.9234 H   0  0  0  0  0  0  0  0  0  0  0  0
  151.9504  145.7972  158.6784 H   0  0  0  0  0  0  0  0  0  0  0  0
  153.2210  144.2703  160.0506 H   0  0  0  0  0  0  0  0  0  0  0  0
  148.1998  139.8482  154.2463 H   0  0  0  0  0  0  0  0  0  0  0  0
  148.8286  138.8846  152.9395 H   0  0  0  0  0  0  0  0  0  0  0  0
  147.3421  137.5136  154.3172 H   0  0  0  0  0  0  0  0  0  0  0  0
  148.2502  137.8742  155.7713 H   0  0  0  0  0  0  0  0  0  0  0  0
  149.2680  136.4682  153.4157 H   0  0  0  0  0  0  0  0  0  0  0  0
  1  2  1  0  0  0  0
  1 23  1  0  0  0  0
  1 24  1  0  0  0  0
  1 25  1  0  0  0  0
  2  3  1  0  0  0  0
  3  4  2  0  0  0  0
  3  5  1  0  0  0  0
  5  6  1  0  0  0  0
  5 26  1  0  0  0  0
  5 27  1  0  0  0  0
  6 22  1  0  0  0  0
  6  7  1  0  0  0  0
  6 44  1  0  0  0  0
  7  8  1  0  0  0  0
  7 28  1  0  0  0  0
  7 29  1  0  0  0  0
  8  9  1  0  0  0  0
  8 30  1  0  0  0  0
  8 31  1  0  0  0  0
  9 10  1  0  0  0  0
  9 21  1  0  0  0  0
  9 32  1  0  0  0  0
 10 11  1  0  0  0  0
 10 33  1  0  0  0  0
 11 12  2  0  0  0  0
 11 13  1  0  0  0  0
 13 14  1  0  0  0  0
 13 34  1  0  0  0  0
 13 35  1  0  0  0  0
 14 19  1  0  0  0  0
 14 15  1  0  0  0  0
 15 16  2  0  0  0  0
 15 36  1  0  0  0  0
 16 17  1  0  0  0  0
 16 37  1  0  0  0  0
 17 18  2  0  0  0  0
 17 38  1  0  0  0  0
 18 19  1  0  0  0  0
 18 39  1  0  0  0  0
 19 20  2  0  0  0  0
 21 22  1  0  0  0  0
 21 40  1  0  0  0  0
 21 41  1  0  0  0  0
 22 42  1  0  0  0  0
 22 43  1  0  0  0  0
M  CHG  1   2  -1
M  CHG  1   6   1
M  END
> <s_m_source_file>
AV-unprocessed.smi

> <i_m_source_file_index>
1202

> <i_lp_mmshare_version>
43012

> <i_f3d_flags>
0

> <s_epik_input>
W0NIM11bTkhdQyg9TylbQ0gyXU4xW0NIMl1bQ0gyXVtDSF0oW0NIMl1bQ0gyXTEpW05IXUMoPU8pW0NIMl1uMltjSF1bY0hdW2NIXVtjSF1jMj1P

> <s_epik_cmdline>
J2VwaWtfcHl0aG9uJywgJy1waCcsICc3LjAnLCAnLXRuJywgJzgnLCAnLW1hJywgJzIwMCcsICctbWV0YWxfYmluZGluZycsICctaW1hZScsICc8aW5maWxlLm1hZT4nLCAnLW9tYWUnLCAnPG91dGZpbGUubWFlPic=

> <r_lp_tautomer_probability>
1

> <r_epik_Ionization_Penalty>
6.12124

> <r_epik_Ionization_Penalty_Charging>
6.12124

> <r_epik_Ionization_Penalty_Neutral>
4.50226e-08

> <r_epik_State_Penalty>
7.08052

> <r_epik_Charging_Adjusted_Penalty>
13.2018

> <i_epik_Tot_Q>
0

> <i_epik_Tot_abs_Q>
2

> <r_epik_Metal_State_Penalty>
3.01282

> <b_epik_Metal_Only>
1

> <s_lp_Force_Field>
OPLS_2005

> <r_lp_Energy>
20.2211

> <b_lp_Chiralities_Consistent>
1

> <s_lp_Variant>
AV-unprocessed.smi:1202-5

> <Gold.Version>
5.8.1

> <Gold.Id.Protein>
6NUR|6NUR_protein|mol2

> <Gold.PLP.Fitness>
52.4436

> <Gold.PLP.PLP>
-43.7694

> <Gold.PLP.part.hbond>
-2.0000

> <Gold.PLP.part.metal>
0.0000

> <Gold.PLP.part.buried>
-2.9925

> <Gold.PLP.part.nonpolar>
-38.2739

> <Gold.PLP.part.repulsive>
0.2824

> <Gold.PLP.ligand.clash>
0.0000

> <Gold.PLP.ligand.torsion>
0.2296

> <Gold.PLP.Chemscore.Hbond>
3.0000

> <Gold.PLP.Chemscore.CHOScore>
0.0000

> <Gold.PLP.Chemscore.Metal>
0.0000

> <Gold.Chemscore.Hbonds>
donor molecule, donor type, donor heavy atom, donor atom, acceptor molecule, acceptor atom, score
      L1  H     6    44       P1  7948  2.00
      P1  H  7997  8008       L1    12  1.00
      L1  C    15    36       P1  8028  0.14

> <Gold.PLP.Chemscore.Internal.Correction>
0.1335

> <Gold.Rescore>
     Score         DG    S(hbond)    S(metal)    S(lipo)     H(rot)  DE(clash)    DE(int)     intcor
     15.23     -17.34       1.97        0.00      92.23       2.15       0.13       1.98       ----

> <Gold.Chemscore.Fitness>
15.2262

> <Gold.Chemscore.DG>
-17.3433

> <Gold.Chemscore.ZeroCoef>
-5.4800

> <Gold.Chemscore.Hbond>
1.9698

> <Gold.Chemscore.Metal>
0.0000

> <Gold.Chemscore.Lipo>
92.2272

> <Gold.Chemscore.Internal_Hbond>
0.0000

> <Gold.Chemscore.DEClash>
0.1349

> <Gold.Chemscore.DEInternal>
1.9822

> <Gold.Chemscore.Rot>
2.1510

> <Gold.Chemscore.Internal.Correction>
   9.000000E+99

> <Gold.Chemscore.Hbonds>
donor molecule, donor type, donor heavy atom, donor atom, acceptor molecule, acceptor atom, score
      L1  H     6    44       P1  7948  0.90
      P1  H  7997  8008       L1    12  0.95

> <Gold.Chemscore.Hbond.Weighted>
-6.5792

> <Gold.Chemscore.Metal.Weighted>
-0.0000

> <Gold.Chemscore.Lipo.Weighted>
-10.7906

> <Gold.Chemscore.Internal_Hbond.Weighted>
0.0000

> <Gold.Chemscore.DEClash.Weighted>
0.1349

> <Gold.Chemscore.DEInternal.Weighted>
1.9822

> <Gold.Chemscore.Rot.Weighted>
5.5065

> <Gold.Chemscore.Internal.Correction.Weighted>
   9.000000E+99

> <Gold.Protein.RotatedTorsions>
[ 6907 6896 6895 6894 ] final  -57.25 input  -60.11 | X-H torsion
[ 7974 7965 7964 7962 ] final -130.74 input  175.53 | X-H torsion
[ 8008 7997 7996 7995 ] final  -22.57 input   59.86 | X-H torsion
[ 10167 10162 10161 10158 ] final  147.50 input  -65.29 | X-H torsion
[ 10718 10713 10712 10709 ] final -114.31 input   66.30 | X-H torsion
[ 10763 10752 10751 10750 ] final  102.19 input  -60.55 | X-H torsion
[ 11005 11000 10999 10996 ] final  -95.13 input  -57.11 | X-H torsion

> <Gold.Protein.ActiveResidues>
 VAL166  LYS551  ARG553  GLY616  TRP617  ASP618  TYR619  PRO620  LYS621  CYS622 
 ASP623  PHE694  ASN695  SER759  ASP760  ASP761  ALA762  ILE779  LEU786  VAL792 
 PHE793  MET794  SER795  GLU796  ALA797  LYS798  CYS799  TRP800  GLU811  SER814 

> <Gold.Protein.RotatedAtoms>
  150.8101  134.7251  159.6680 H   0  0  0  0  0  0  0  0  0  0  0  0  # atno 6907 bound_to 6896
  152.4221  134.5932  159.9989 H   0  0  0  0  0  0  0  0  0  0  0  0  # atno 6908 bound_to 6896
  151.6144  133.3307  159.3110 H   0  0  0  0  0  0  0  0  0  0  0  0  # atno 6909 bound_to 6896
  144.9446  140.7277  143.4825 H   0  0  0  0  0  0  0  0  0  0  0  0  # atno 7974 bound_to 7965
  154.4636  140.2004  156.0178 H   0  0  0  0  0  0  0  0  0  0  0  0  # atno 8008 bound_to 7997
  156.0886  140.3261  155.7757 H   0  0  0  0  0  0  0  0  0  0  0  0  # atno 8009 bound_to 7997
  155.4994  140.0552  157.2932 H   0  0  0  0  0  0  0  0  0  0  0  0  # atno 8010 bound_to 7997
  139.4889  144.5750  151.6982 H   0  0  0  0  0  0  0  0  0  0  0  0  # atno 10167 bound_to 10162
  156.0822  130.6020  150.8758 H   0  0  0  0  0  0  0  0  0  0  0  0  # atno 10718 bound_to 10713
  153.3364  135.4019  155.1537 H   0  0  0  0  0  0  0  0  0  0  0  0  # atno 10763 bound_to 10752
  154.8634  135.3623  154.5403 H   0  0  0  0  0  0  0  0  0  0  0  0  # atno 10764 bound_to 10752
  153.5845  135.7075  153.5508 H   0  0  0  0  0  0  0  0  0  0  0  0  # atno 10765 bound_to 10752
  141.1451  133.8005  157.0393 H   0  0  0  0  0  0  0  0  0  0  0  0  # atno 11005 bound_to 11000
  145.2938  139.1874  143.4726 LP  0  0  0  0  0  0  0  0  0  0  0  0  # atno 17320 bound_to 7965
  146.3298  140.2919  142.8616 LP  0  0  0  0  0  0  0  0  0  0  0  0  # atno 17321 bound_to 7965
  140.5345  144.0678  150.6065 LP  0  0  0  0  0  0  0  0  0  0  0  0  # atno 17342 bound_to 10162
  140.3679  143.2871  152.0311 LP  0  0  0  0  0  0  0  0  0  0  0  0  # atno 17343 bound_to 10162
  157.5943  131.0943  150.9067 LP  0  0  0  0  0  0  0  0  0  0  0  0  # atno 17370 bound_to 10713
  156.9237  130.5324  149.5279 LP  0  0  0  0  0  0  0  0  0  0  0  0  # atno 17371 bound_to 10713
  140.0703  134.9706  157.1456 LP  0  0  0  0  0  0  0  0  0  0  0  0  # atno 17394 bound_to 11000
  140.3720  134.2379  155.7177 LP  0  0  0  0  0  0  0  0  0  0  0  0  # atno 17395 bound_to 11000

$$$$
