AV-unprocessed.smi:1047|AV-procd|sdf|4582|dock10
  -GOLD-   22720 3 53D 1   1.00000     0.00000
 Structure written by MMmdl.
 58 60  0  0  0  0  0  0  0  0  4 V2000
  143.2516  134.9834  152.8549 C   0  0  0  0  0  0  0  0  0  0  0  0
  144.4001  134.0231  152.5148 C   0  0  0  0  0  0  0  0  0  0  0  0
  145.0051  133.4089  153.7266 N   0  3  1  0  0  0  0  0  0  0  0  0
  145.9054  132.2691  153.4260 C   0  0  0  0  0  0  0  0  0  0  0  0
  147.2763  132.7598  152.9280 C   0  0  0  0  0  0  0  0  0  0  0  0
  147.8470  133.6301  153.8979 O   0  0  0  0  0  0  0  0  0  0  0  0
  147.0625  134.7971  154.1212 C   0  0  2  0  0  0  0  0  0  0  0  0
  147.8266  135.6799  155.1227 C   0  0  0  0  0  0  0  0  0  0  0  0
  148.1450  137.0069  154.5564 N   0  3  0  0  0  0  0  0  0  0  0  0
  149.2489  137.7063  155.2455 C   0  0  0  0  0  0  0  0  0  0  0  0
  150.5182  137.7453  154.3771 C   0  0  2  0  0  0  0  0  0  0  0  0
  151.0535  136.4381  154.3031 O   0  0  0  0  0  0  0  0  0  0  0  0
  151.5777  138.7083  154.9497 C   0  0  0  0  0  0  0  0  0  0  0  0
  151.0210  140.0175  155.3230 N   0  0  0  0  0  0  0  0  0  0  0  0
  150.1551  140.8182  154.6431 C   0  0  0  0  0  0  0  0  0  0  0  0
  149.9347  141.9256  155.4036 N   0  3  0  0  0  0  0  0  0  0  0  0
  150.6675  141.8313  156.5884 C   0  0  0  0  0  0  0  0  0  0  0  0
  150.7703  142.7034  157.6655 C   0  0  0  0  0  0  0  0  0  0  0  0
  151.6099  142.3136  158.7330 C   0  0  0  0  0  0  0  0  0  0  0  0
  151.7475  143.2457  159.9249 C   0  0  0  0  0  0  0  0  0  0  0  0
  152.3112  141.0807  158.6971 C   0  0  0  0  0  0  0  0  0  0  0  0
  153.2067  140.6693  159.8533 C   0  0  0  0  0  0  0  0  0  0  0  0
  152.1953  140.2085  157.5910 C   0  0  0  0  0  0  0  0  0  0  0  0
  151.3646  140.6077  156.5461 C   0  0  0  0  0  0  0  0  0  0  0  0
  145.6715  134.3675  154.6463 C   0  0  0  0  0  0  0  0  0  0  0  0
  142.7700  135.3405  151.9442 H   0  0  0  0  0  0  0  0  0  0  0  0
  143.5957  135.8610  153.4011 H   0  0  0  0  0  0  0  0  0  0  0  0
  142.4891  134.4885  153.4570 H   0  0  0  0  0  0  0  0  0  0  0  0
  143.9906  133.2331  151.8842 H   0  0  0  0  0  0  0  0  0  0  0  0
  145.1549  134.5305  151.9147 H   0  0  0  0  0  0  0  0  0  0  0  0
  146.0412  131.6889  154.3397 H   0  0  0  0  0  0  0  0  0  0  0  0
  145.4476  131.5937  152.7022 H   0  0  0  0  0  0  0  0  0  0  0  0
  147.9452  131.9119  152.7807 H   0  0  0  0  0  0  0  0  0  0  0  0
  147.1921  133.2663  151.9653 H   0  0  0  0  0  0  0  0  0  0  0  0
  146.9679  135.3404  153.1799 H   0  0  0  0  0  0  0  0  0  0  0  0
  147.2518  135.7968  156.0424 H   0  0  0  0  0  0  0  0  0  0  0  0
  148.7635  135.1913  155.3940 H   0  0  0  0  0  0  0  0  0  0  0  0
  148.4063  136.8914  153.5870 H   0  0  0  0  0  0  0  0  0  0  0  0
  148.9247  138.7235  155.4698 H   0  0  0  0  0  0  0  0  0  0  0  0
  149.4560  137.2200  156.2001 H   0  0  0  0  0  0  0  0  0  0  0  0
  150.2586  138.0656  153.3671 H   0  0  0  0  0  0  0  0  0  0  0  0
  150.8075  136.0591  153.4723 H   0  0  0  0  0  0  0  0  0  0  0  0
  152.0168  138.2806  155.8520 H   0  0  0  0  0  0  0  0  0  0  0  0
  152.4026  138.8525  154.2517 H   0  0  0  0  0  0  0  0  0  0  0  0
  149.7196  140.6132  153.6757 H   0  0  0  0  0  0  0  0  0  0  0  0
  150.2324  143.6399  157.6868 H   0  0  0  0  0  0  0  0  0  0  0  0
  151.3927  142.7601  160.8342 H   0  0  0  0  0  0  0  0  0  0  0  0
  151.1683  144.1590  159.7864 H   0  0  0  0  0  0  0  0  0  0  0  0
  152.7894  143.5323  160.0686 H   0  0  0  0  0  0  0  0  0  0  0  0
  153.6583  139.6917  159.6813 H   0  0  0  0  0  0  0  0  0  0  0  0
  152.6338  140.6120  160.7794 H   0  0  0  0  0  0  0  0  0  0  0  0
  154.0138  141.3897  159.9885 H   0  0  0  0  0  0  0  0  0  0  0  0
  152.7346  139.2734  157.5651 H   0  0  0  0  0  0  0  0  0  0  0  0
  145.0382  135.2351  154.8274 H   0  0  0  0  0  0  0  0  0  0  0  0
  145.7886  133.8747  155.6125 H   0  0  0  0  0  0  0  0  0  0  0  0
  147.3208  137.5888  154.6023 H   0  0  0  0  0  0  0  0  0  0  0  0
  144.2261  133.0142  154.2350 H   0  0  0  0  0  0  0  0  0  0  0  0
  149.3265  142.6879  155.1328 H   0  0  0  0  0  0  0  0  0  0  0  0
  1  2  1  0  0  0  0
  1 26  1  0  0  0  0
  1 27  1  0  0  0  0
  1 28  1  0  0  0  0
  2  3  1  0  0  0  0
  2 29  1  0  0  0  0
  2 30  1  0  0  0  0
  3 25  1  0  0  0  0
  3  4  1  0  0  0  0
  3 57  1  0  0  0  0
  4  5  1  0  0  0  0
  4 31  1  0  0  0  0
  4 32  1  0  0  0  0
  5  6  1  0  0  0  0
  5 33  1  0  0  0  0
  5 34  1  0  0  0  0
  6  7  1  0  0  0  0
  7  8  1  0  0  0  0
  7 25  1  0  0  0  0
  7 35  1  0  0  0  0
  8  9  1  0  0  0  0
  8 36  1  0  0  0  0
  8 37  1  0  0  0  0
  9 10  1  0  0  0  0
  9 38  1  0  0  0  0
  9 56  1  0  0  0  0
 10 11  1  0  0  0  0
 10 39  1  0  0  0  0
 10 40  1  0  0  0  0
 11 12  1  0  0  0  0
 11 13  1  0  0  0  0
 11 41  1  0  0  0  0
 12 42  1  0  0  0  0
 13 14  1  0  0  0  0
 13 43  1  0  0  0  0
 13 44  1  0  0  0  0
 14 24  1  0  0  0  0
 14 15  1  0  0  0  0
 15 16  2  0  0  0  0
 15 45  1  0  0  0  0
 16 17  1  0  0  0  0
 16 58  1  0  0  0  0
 17 24  2  0  0  0  0
 17 18  1  0  0  0  0
 18 19  2  0  0  0  0
 18 46  1  0  0  0  0
 19 20  1  0  0  0  0
 19 21  1  0  0  0  0
 20 47  1  0  0  0  0
 20 48  1  0  0  0  0
 20 49  1  0  0  0  0
 21 22  1  0  0  0  0
 21 23  2  0  0  0  0
 22 50  1  0  0  0  0
 22 51  1  0  0  0  0
 22 52  1  0  0  0  0
 23 24  1  0  0  0  0
 23 53  1  0  0  0  0
 25 54  1  0  0  0  0
 25 55  1  0  0  0  0
M  CHG  1   3   1
M  CHG  1   9   1
M  CHG  1  16   1
M  END
> <s_m_source_file>
AV-unprocessed.smi

> <i_m_source_file_index>
1047

> <i_lp_mmshare_version>
43012

> <i_f3d_flags>
0

> <s_epik_input>
W0NIM11bQ0gyXU4xW0NIMl1bQ0gyXU9bQ0BIXShbQ0gyXTEpW0NIMl1bTkhdW0NIMl1bQ0BIXShbT0hdKVtDSDJdbihbY0hdbjIpYyhjMjMpW2NIXWMoW0NIM10pYyhbY0hdMylbQ0gzXQ==

> <s_epik_cmdline>
J2VwaWtfcHl0aG9uJywgJy1waCcsICc3LjAnLCAnLXRuJywgJzgnLCAnLW1hJywgJzIwMCcsICctbWV0YWxfYmluZGluZycsICctaW1hZScsICc8aW5maWxlLm1hZT4nLCAnLW9tYWUnLCAnPG91dGZpbGUubWFlPic=

> <r_epik_Ionization_Penalty>
1.6114

> <r_epik_Ionization_Penalty_Charging>
1.61139

> <r_epik_Ionization_Penalty_Neutral>
5.04732e-06

> <r_epik_State_Penalty>
1.63724

> <r_epik_Charging_Adjusted_Penalty>
3.24864

> <i_epik_Tot_Q>
3

> <i_epik_Tot_abs_Q>
3

> <r_epik_Metal_State_Penalty>
5.64594

> <b_epik_Metal_Only>
0

> <s_lp_Force_Field>
OPLS_2005

> <r_lp_Energy>
42.8961

> <b_lp_Chiralities_Consistent>
1

> <s_lp_Variant>
AV-unprocessed.smi:1047-23

> <Gold.Version>
5.8.1

> <Gold.Id.Protein>
6NUR|6NUR_protein|mol2

> <Gold.PLP.Fitness>
60.0630

> <Gold.PLP.PLP>
-40.2485

> <Gold.PLP.part.hbond>
-5.4823

> <Gold.PLP.part.metal>
0.0000

> <Gold.PLP.part.buried>
-0.4644

> <Gold.PLP.part.nonpolar>
-34.5978

> <Gold.PLP.part.repulsive>
0.2908

> <Gold.PLP.ligand.clash>
0.0000

> <Gold.PLP.ligand.torsion>
1.5529

> <Gold.PLP.Chemscore.Hbond>
6.8168

> <Gold.PLP.Chemscore.CHOScore>
0.7869

> <Gold.PLP.Chemscore.Metal>
0.0000

> <Gold.Chemscore.Hbonds>
donor molecule, donor type, donor heavy atom, donor atom, acceptor molecule, acceptor atom, score
      L1  H     3    57       P1 10957  1.82
      L1  H     9    38       P1  7948  2.00
      L1  H    12    42       P1  7949  0.61
      L1  H    16    58       P1  8028  1.22
      P1  H 10752 10765       L1    12  0.84
      L1  C    15    45       P1  7957  0.88

> <Gold.PLP.Chemscore.Internal.Correction>
0.1092

> <Gold.Rescore>
     Score         DG    S(hbond)    S(metal)    S(lipo)     H(rot)  DE(clash)    DE(int)     intcor
     18.14     -19.96       2.88        0.00     102.55       2.78       0.13       1.68       ----

> <Gold.Chemscore.Fitness>
18.1424

> <Gold.Chemscore.DG>
-19.9556

> <Gold.Chemscore.ZeroCoef>
-5.4800

> <Gold.Chemscore.Hbond>
2.8761

> <Gold.Chemscore.Metal>
0.0000

> <Gold.Chemscore.Lipo>
102.5514

> <Gold.Chemscore.Internal_Hbond>
0.0000

> <Gold.Chemscore.DEClash>
0.1330

> <Gold.Chemscore.DEInternal>
1.6802

> <Gold.Chemscore.Rot>
2.7848

> <Gold.Chemscore.Internal.Correction>
   9.000000E+99

> <Gold.Chemscore.Hbonds>
donor molecule, donor type, donor heavy atom, donor atom, acceptor molecule, acceptor atom, score
      L1  H     3    57       P1 10957  0.86
      L1  H     9    38       P1  7948  1.00
      L1  H    12    42       P1  7949  0.05
      L1  H    16    58       P1  8028  0.59
      P1  H 10752 10765       L1    12  0.14

> <Gold.Chemscore.Hbond.Weighted>
-9.6061

> <Gold.Chemscore.Metal.Weighted>
-0.0000

> <Gold.Chemscore.Lipo.Weighted>
-11.9985

> <Gold.Chemscore.Internal_Hbond.Weighted>
0.0000

> <Gold.Chemscore.DEClash.Weighted>
0.1330

> <Gold.Chemscore.DEInternal.Weighted>
1.6802

> <Gold.Chemscore.Rot.Weighted>
7.1291

> <Gold.Chemscore.Internal.Correction.Weighted>
   9.000000E+99

> <Gold.Protein.RotatedTorsions>
[ 6907 6896 6895 6894 ] final   50.60 input  -60.11 | X-H torsion
[ 7974 7965 7964 7962 ] final -156.83 input  175.53 | X-H torsion
[ 8008 7997 7996 7995 ] final   67.53 input   59.86 | X-H torsion
[ 10167 10162 10161 10158 ] final   -2.92 input  -65.29 | X-H torsion
[ 10718 10713 10712 10709 ] final   75.87 input   66.30 | X-H torsion
[ 10763 10752 10751 10750 ] final  168.41 input  -60.55 | X-H torsion
[ 11005 11000 10999 10996 ] final   75.62 input  -57.11 | X-H torsion

> <Gold.Protein.ActiveResidues>
 VAL166  LYS551  ARG553  GLY616  TRP617  ASP618  TYR619  PRO620  LYS621  CYS622 
 ASP623  PHE694  ASN695  SER759  ASP760  ASP761  ALA762  ILE779  LEU786  VAL792 
 PHE793  MET794  SER795  GLU796  ALA797  LYS798  CYS799  TRP800  GLU811  SER814 

> <Gold.Protein.RotatedAtoms>
  152.3035  134.7582  160.0352 H   0  0  0  0  0  0  0  0  0  0  0  0  # atno 6907 bound_to 6896
  151.8088  133.3374  159.3557 H   0  0  0  0  0  0  0  0  0  0  0  0  # atno 6908 bound_to 6896
  150.7285  134.5614  159.5888 H   0  0  0  0  0  0  0  0  0  0  0  0  # atno 6909 bound_to 6896
  144.7575  140.4055  143.6001 H   0  0  0  0  0  0  0  0  0  0  0  0  # atno 7974 bound_to 7965
  155.6943  140.3496  155.4906 H   0  0  0  0  0  0  0  0  0  0  0  0  # atno 8008 bound_to 7997
  155.9497  140.1117  157.1009 H   0  0  0  0  0  0  0  0  0  0  0  0  # atno 8009 bound_to 7997
  154.4119  140.1196  156.5022 H   0  0  0  0  0  0  0  0  0  0  0  0  # atno 8010 bound_to 7997
  140.6870  143.6601  150.8274 H   0  0  0  0  0  0  0  0  0  0  0  0  # atno 10167 bound_to 10162
  157.6651  130.9747  150.1415 H   0  0  0  0  0  0  0  0  0  0  0  0  # atno 10718 bound_to 10713
  154.3682  135.2753  155.2281 H   0  0  0  0  0  0  0  0  0  0  0  0  # atno 10763 bound_to 10752
  154.4440  135.5947  153.6151 H   0  0  0  0  0  0  0  0  0  0  0  0  # atno 10764 bound_to 10752
  152.9839  135.6026  154.3910 H   0  0  0  0  0  0  0  0  0  0  0  0  # atno 10765 bound_to 10752
  139.9335  134.7533  156.1294 H   0  0  0  0  0  0  0  0  0  0  0  0  # atno 11005 bound_to 11000
  145.6729  139.1603  143.2744 LP  0  0  0  0  0  0  0  0  0  0  0  0  # atno 17320 bound_to 7965
  146.1602  140.6798  142.9281 LP  0  0  0  0  0  0  0  0  0  0  0  0  # atno 17321 bound_to 7965
  140.0309  143.5445  152.2760 LP  0  0  0  0  0  0  0  0  0  0  0  0  # atno 17342 bound_to 10162
  139.6237  144.7633  151.2684 LP  0  0  0  0  0  0  0  0  0  0  0  0  # atno 17343 bound_to 10162
  156.2237  130.3676  149.8526 LP  0  0  0  0  0  0  0  0  0  0  0  0  # atno 17370 bound_to 10713
  156.6372  130.8690  151.3507 LP  0  0  0  0  0  0  0  0  0  0  0  0  # atno 17371 bound_to 10713
  141.0937  133.6704  156.2597 LP  0  0  0  0  0  0  0  0  0  0  0  0  # atno 17394 bound_to 11000
  140.6137  134.5432  157.5537 LP  0  0  0  0  0  0  0  0  0  0  0  0  # atno 17395 bound_to 11000

$$$$
