AV-unprocessed.smi:3282|AV-procd|sdf|12562|dock8
  -GOLD-   2272018483D 1   1.00000     0.00000
 Structure written by MMmdl.
 34 35  0  0  0  0  0  0  0  0  1 V2000
  152.8407  142.8511  162.4421 C   0  0  0  0  0  0  0  0  0  0  0  0
  152.7195  142.1451  161.0818 C   0  0  0  0  0  0  0  0  0  0  0  0
  151.9843  142.9759  160.0166 C   0  0  0  0  0  0  0  0  0  0  0  0
  151.6569  144.1379  160.2632 O   0  0  0  0  0  0  0  0  0  0  0  0
  151.7189  142.3958  158.8277 N   0  0  0  0  0  0  0  0  0  0  0  0
  152.0764  141.0166  158.5073 C   0  0  0  0  0  0  0  0  0  0  0  0
  151.3848  140.7002  157.1815 C   0  0  0  0  0  0  0  0  0  0  0  0
  151.1804  142.0597  156.5192 C   0  0  1  0  0  0  0  0  0  0  0  0
  150.0006  142.0669  155.6598 N   0  0  0  0  0  0  0  0  0  0  0  0
  149.7376  141.1696  154.6984 C   0  0  0  0  0  0  0  0  0  0  0  0
  150.4999  140.2270  154.4621 O   0  0  0  0  0  0  0  0  0  0  0  0
  148.5203  141.4487  154.0971 N   0  0  0  0  0  0  0  0  0  0  0  0
  147.9929  140.5682  153.3028 C   0  0  0  0  0  0  0  0  0  0  0  0
  148.3911  139.2947  152.9037 N   0  0  0  0  0  0  0  0  0  0  0  0
  147.4423  138.7995  152.0534 C   0  0  0  0  0  0  0  0  0  0  0  0
  146.4887  139.7165  151.9207 C   0  0  0  0  0  0  0  0  0  0  0  0
  146.7978  140.8094  152.6736 O   0  0  0  0  0  0  0  0  0  0  0  0
  151.0491  143.0354  157.6967 C   0  0  0  0  0  0  0  0  0  0  0  0
  153.3807  142.2257  163.1533 H   0  0  0  0  0  0  0  0  0  0  0  0
  151.8603  143.0631  162.8703 H   0  0  0  0  0  0  0  0  0  0  0  0
  153.3832  143.7933  162.3555 H   0  0  0  0  0  0  0  0  0  0  0  0
  153.7190  141.9049  160.7180 H   0  0  0  0  0  0  0  0  0  0  0  0
  152.1926  141.1999  161.2152 H   0  0  0  0  0  0  0  0  0  0  0  0
  153.1597  140.9483  158.3983 H   0  0  0  0  0  0  0  0  0  0  0  0
  151.7699  140.3203  159.2895 H   0  0  0  0  0  0  0  0  0  0  0  0
  151.9591  140.0115  156.5611 H   0  0  0  0  0  0  0  0  0  0  0  0
  150.4206  140.2326  157.3883 H   0  0  0  0  0  0  0  0  0  0  0  0
  152.0750  142.3039  155.9430 H   0  0  0  0  0  0  0  0  0  0  0  0
  149.3296  142.8061  155.8114 H   0  0  0  0  0  0  0  0  0  0  0  0
  149.2236  138.7878  153.1681 H   0  0  0  0  0  0  0  0  0  0  0  0
  147.5547  137.8159  151.6219 H   0  0  0  0  0  0  0  0  0  0  0  0
  145.5694  139.7419  151.3546 H   0  0  0  0  0  0  0  0  0  0  0  0
  150.0019  143.1974  157.9584 H   0  0  0  0  0  0  0  0  0  0  0  0
  151.4901  144.0021  157.4497 H   0  0  0  0  0  0  0  0  0  0  0  0
  1  2  1  0  0  0  0
  1 19  1  0  0  0  0
  1 20  1  0  0  0  0
  1 21  1  0  0  0  0
  2  3  1  0  0  0  0
  2 22  1  0  0  0  0
  2 23  1  0  0  0  0
  3  4  2  0  0  0  0
  3  5  1  0  0  0  0
  5 18  1  0  0  0  0
  5  6  1  0  0  0  0
  6  7  1  0  0  0  0
  6 24  1  0  0  0  0
  6 25  1  0  0  0  0
  7  8  1  0  0  0  0
  7 26  1  0  0  0  0
  7 27  1  0  0  0  0
  8  9  1  0  0  0  0
  8 18  1  0  0  0  0
  8 28  1  0  0  0  0
  9 29  1  0  0  0  0
  9 10  1  0  0  0  0
 10 12  1  0  0  0  0
 10 11  2  0  0  0  0
 12 13  2  0  0  0  0
 13 17  1  0  0  0  0
 13 14  1  0  0  0  0
 14 30  1  0  0  0  0
 14 15  1  0  0  0  0
 15 31  1  0  0  0  0
 15 16  2  0  0  0  0
 16 32  1  0  0  0  0
 16 17  1  0  0  0  0
 18 33  1  0  0  0  0
 18 34  1  0  0  0  0
M  END
> <s_m_source_file>
AV-unprocessed.smi

> <i_m_source_file_index>
3282

> <i_lp_mmshare_version>
43012

> <i_f3d_flags>
0

> <s_epik_input>
W0NIM11bQ0gyXUMoPU8pTjFbQ0gyXVtDSDJdW0NASF0oW0NIMl0xKVtOSF1DKD1PKVtOSF1jMm5bY0hdW2NIXW8y

> <s_epik_cmdline>
J2VwaWtfcHl0aG9uJywgJy1waCcsICc3LjAnLCAnLXRuJywgJzgnLCAnLW1hJywgJzIwMCcsICctbWV0YWxfYmluZGluZycsICctaW1hZScsICc8aW5maWxlLm1hZT4nLCAnLW9tYWUnLCAnPG91dGZpbGUubWFlPic=

> <r_lp_tautomer_probability>
0.107061

> <r_epik_Ionization_Penalty>
0.434703

> <r_epik_Ionization_Penalty_Charging>
0.434345

> <r_epik_Ionization_Penalty_Neutral>
0.000358141

> <r_epik_State_Penalty>
2.49584

> <r_epik_Charging_Adjusted_Penalty>
2.93019

> <i_epik_Tot_Q>
0

> <i_epik_Tot_abs_Q>
0

> <r_epik_Metal_State_Penalty>
4.06361

> <b_epik_Metal_Only>
0

> <s_lp_Force_Field>
OPLS_2005

> <r_lp_Energy>
50.3275

> <b_lp_Chiralities_Consistent>
1

> <s_lp_Variant>
AV-unprocessed.smi:3282-3

> <Gold.Version>
5.8.1

> <Gold.Id.Protein>
6NUR|6NUR_protein|mol2

> <Gold.PLP.Fitness>
46.1072

> <Gold.PLP.PLP>
-32.0591

> <Gold.PLP.part.hbond>
-3.3445

> <Gold.PLP.part.metal>
0.0000

> <Gold.PLP.part.buried>
2.0144

> <Gold.PLP.part.nonpolar>
-32.1285

> <Gold.PLP.part.repulsive>
1.6035

> <Gold.PLP.ligand.clash>
0.0000

> <Gold.PLP.ligand.torsion>
0.1568

> <Gold.PLP.Chemscore.Hbond>
1.9760

> <Gold.PLP.Chemscore.CHOScore>
2.8083

> <Gold.PLP.Chemscore.Metal>
0.0000

> <Gold.Chemscore.Hbonds>
donor molecule, donor type, donor heavy atom, donor atom, acceptor molecule, acceptor atom, score
      L1  H     9    29       P1  8028  0.96
      P1  H  7989  7998       L1    11  1.00
      P1  H  8011  8017       L1    12  0.02
      L1  C    15    31       P1  7948  1.00
      L1  C    16    32       P1 10171  0.99
      L1  C    16    32       P1 10175  0.76

> <Gold.PLP.Chemscore.Internal.Correction>
0.0086

> <Gold.Rescore>
     Score         DG    S(hbond)    S(metal)    S(lipo)     H(rot)  DE(clash)    DE(int)     intcor
     10.80     -15.13       1.27        0.00      75.04       1.32       2.82       1.51       ----

> <Gold.Chemscore.Fitness>
10.8024

> <Gold.Chemscore.DG>
-15.1306

> <Gold.Chemscore.ZeroCoef>
-5.4800

> <Gold.Chemscore.Hbond>
1.2725

> <Gold.Chemscore.Metal>
0.0000

> <Gold.Chemscore.Lipo>
75.0372

> <Gold.Chemscore.Internal_Hbond>
0.0000

> <Gold.Chemscore.DEClash>
2.8198

> <Gold.Chemscore.DEInternal>
1.5083

> <Gold.Chemscore.Rot>
1.3199

> <Gold.Chemscore.Internal.Correction>
   9.000000E+99

> <Gold.Chemscore.Hbonds>
donor molecule, donor type, donor heavy atom, donor atom, acceptor molecule, acceptor atom, score
      L1  H     9    29       P1  8028  0.91
      P1  H  7989  7998       L1    11  0.44

> <Gold.Chemscore.Hbond.Weighted>
-4.2502

> <Gold.Chemscore.Metal.Weighted>
-0.0000

> <Gold.Chemscore.Lipo.Weighted>
-8.7794

> <Gold.Chemscore.Internal_Hbond.Weighted>
0.0000

> <Gold.Chemscore.DEClash.Weighted>
2.8198

> <Gold.Chemscore.DEInternal.Weighted>
1.5083

> <Gold.Chemscore.Rot.Weighted>
3.3789

> <Gold.Chemscore.Internal.Correction.Weighted>
   9.000000E+99

> <Gold.Protein.RotatedTorsions>
[ 6907 6896 6895 6894 ] final  117.50 input  -60.11 | X-H torsion
[ 7974 7965 7964 7962 ] final   49.26 input  175.53 | X-H torsion
[ 8008 7997 7996 7995 ] final  -52.80 input   59.86 | X-H torsion
[ 10167 10162 10161 10158 ] final    0.36 input  -65.29 | X-H torsion
[ 10718 10713 10712 10709 ] final   -4.95 input   66.30 | X-H torsion
[ 10763 10752 10751 10750 ] final    6.67 input  -60.55 | X-H torsion
[ 11005 11000 10999 10996 ] final    2.93 input  -57.11 | X-H torsion

> <Gold.Protein.ActiveResidues>
 VAL166  LYS551  ARG553  GLY616  TRP617  ASP618  TYR619  PRO620  LYS621  CYS622 
 ASP623  PHE694  ASN695  SER759  ASP760  ASP761  ALA762  ILE779  LEU786  VAL792 
 PHE793  MET794  SER795  GLU796  ALA797  LYS798  CYS799  TRP800  GLU811  SER814 

> <Gold.Protein.RotatedAtoms>
  152.4607  133.7817  159.6853 H   0  0  0  0  0  0  0  0  0  0  0  0  # atno 6907 bound_to 6896
  150.8550  133.7719  159.3018 H   0  0  0  0  0  0  0  0  0  0  0  0  # atno 6908 bound_to 6896
  151.5302  135.1071  159.9952 H   0  0  0  0  0  0  0  0  0  0  0  0  # atno 6909 bound_to 6896
  146.0126  139.4560  142.9946 H   0  0  0  0  0  0  0  0  0  0  0  0  # atno 7974 bound_to 7965
  154.4116  140.1215  156.5050 H   0  0  0  0  0  0  0  0  0  0  0  0  # atno 8008 bound_to 7997
  155.6857  140.3496  155.4853 H   0  0  0  0  0  0  0  0  0  0  0  0  # atno 8009 bound_to 7997
  155.9513  140.1105  157.0964 H   0  0  0  0  0  0  0  0  0  0  0  0  # atno 8010 bound_to 7997
  140.6732  143.6990  150.7967 H   0  0  0  0  0  0  0  0  0  0  0  0  # atno 10167 bound_to 10162
  156.7537  130.5247  149.5799 H   0  0  0  0  0  0  0  0  0  0  0  0  # atno 10718 bound_to 10713
  153.2450  135.6907  153.7741 H   0  0  0  0  0  0  0  0  0  0  0  0  # atno 10763 bound_to 10752
  153.6856  135.3321  155.3190 H   0  0  0  0  0  0  0  0  0  0  0  0  # atno 10764 bound_to 10752
  154.8371  135.4533  154.1386 H   0  0  0  0  0  0  0  0  0  0  0  0  # atno 10765 bound_to 10752
  140.5987  133.9856  155.8122 H   0  0  0  0  0  0  0  0  0  0  0  0  # atno 11005 bound_to 11000
  145.7318  141.0039  143.1347 LP  0  0  0  0  0  0  0  0  0  0  0  0  # atno 17320 bound_to 7965
  144.6959  139.8993  143.7457 LP  0  0  0  0  0  0  0  0  0  0  0  0  # atno 17321 bound_to 7965
  140.0679  143.5090  152.2595 LP  0  0  0  0  0  0  0  0  0  0  0  0  # atno 17342 bound_to 10162
  139.6011  144.7582  151.3170 LP  0  0  0  0  0  0  0  0  0  0  0  0  # atno 17343 bound_to 10162
  156.1384  130.6227  151.0433 LP  0  0  0  0  0  0  0  0  0  0  0  0  # atno 17370 bound_to 10713
  157.6766  131.0849  150.7479 LP  0  0  0  0  0  0  0  0  0  0  0  0  # atno 17371 bound_to 10713
  141.0886  133.9951  157.3273 LP  0  0  0  0  0  0  0  0  0  0  0  0  # atno 17394 bound_to 11000
  139.9242  135.0201  156.8173 LP  0  0  0  0  0  0  0  0  0  0  0  0  # atno 17395 bound_to 11000

$$$$
