AV-unprocessed.smi:2575|AV-procd|sdf|10116|dock8
  -GOLD-   2272014133D 1   1.00000     0.00000
 Structure written by MMmdl.
 31 32  0  0  0  0  0  0  0  0  1 V2000
  151.8269  138.2218  154.1211 C   0  0  0  0  0  0  0  0  0  0  0  0
  150.7346  139.2869  154.2398 C   0  0  0  0  0  0  0  0  0  0  0  0
  151.0013  140.0949  155.3736 O   0  0  0  0  0  0  0  0  0  0  0  0
  150.0381  141.1199  155.5549 C   0  0  0  0  0  0  0  0  0  0  0  0
  150.1829  141.7090  156.9659 C   0  0  2  0  0  0  0  0  0  0  0  0
  149.0918  142.5785  157.1999 O   0  0  0  0  0  0  0  0  0  0  0  0
  151.5108  142.4692  157.1554 C   0  0  0  0  0  0  0  0  0  0  0  0
  151.6285  143.0634  158.4755 N   0  0  0  0  0  0  0  0  0  0  0  0
  150.9509  144.2128  158.7538 N   0  0  0  0  0  0  0  0  0  0  0  0
  151.2092  144.5622  159.9788 N   0  0  0  0  0  0  0  0  0  0  0  0
  152.0764  143.6263  160.5173 C   0  0  0  0  0  0  0  0  0  0  0  0
  152.6755  143.5212  161.7924 C   0  0  0  0  0  0  0  0  0  0  0  0
  153.5409  142.4450  162.0883 C   0  0  0  0  0  0  0  0  0  0  0  0
  154.2539  142.3507  163.6593 Cl  0  0  0  0  0  0  0  0  0  0  0  0
  153.8174  141.4605  161.1089 C   0  0  0  0  0  0  0  0  0  0  0  0
  154.8759  140.1391  161.4531 Cl  0  0  0  0  0  0  0  0  0  0  0  0
  153.2267  141.5528  159.8330 C   0  0  0  0  0  0  0  0  0  0  0  0
  152.3682  142.6311  159.5593 C   0  0  0  0  0  0  0  0  0  0  0  0
  151.6544  137.5819  153.2556 H   0  0  0  0  0  0  0  0  0  0  0  0
  151.8526  137.5868  155.0068 H   0  0  0  0  0  0  0  0  0  0  0  0
  152.8096  138.6802  154.0078 H   0  0  0  0  0  0  0  0  0  0  0  0
  150.7138  139.9003  153.3378 H   0  0  0  0  0  0  0  0  0  0  0  0
  149.7584  138.8093  154.3373 H   0  0  0  0  0  0  0  0  0  0  0  0
  150.1610  141.8989  154.8006 H   0  0  0  0  0  0  0  0  0  0  0  0
  149.0397  140.6973  155.4289 H   0  0  0  0  0  0  0  0  0  0  0  0
  150.1182  140.9003  157.6950 H   0  0  0  0  0  0  0  0  0  0  0  0
  149.0381  143.1933  156.4842 H   0  0  0  0  0  0  0  0  0  0  0  0
  152.3571  141.7970  157.0040 H   0  0  0  0  0  0  0  0  0  0  0  0
  151.6076  143.2595  156.4098 H   0  0  0  0  0  0  0  0  0  0  0  0
  152.4695  144.2697  162.5431 H   0  0  0  0  0  0  0  0  0  0  0  0
  153.4310  140.8095  159.0765 H   0  0  0  0  0  0  0  0  0  0  0  0
  1  2  1  0  0  0  0
  1 19  1  0  0  0  0
  1 20  1  0  0  0  0
  1 21  1  0  0  0  0
  2  3  1  0  0  0  0
  2 22  1  0  0  0  0
  2 23  1  0  0  0  0
  3  4  1  0  0  0  0
  4  5  1  0  0  0  0
  4 24  1  0  0  0  0
  4 25  1  0  0  0  0
  5  6  1  0  0  0  0
  5  7  1  0  0  0  0
  5 26  1  0  0  0  0
  6 27  1  0  0  0  0
  7  8  1  0  0  0  0
  7 28  1  0  0  0  0
  7 29  1  0  0  0  0
  8 18  1  0  0  0  0
  8  9  1  0  0  0  0
  9 10  2  0  0  0  0
 10 11  1  0  0  0  0
 11 18  2  0  0  0  0
 11 12  1  0  0  0  0
 12 13  2  0  0  0  0
 12 30  1  0  0  0  0
 13 14  1  0  0  0  0
 13 15  1  0  0  0  0
 15 16  1  0  0  0  0
 15 17  2  0  0  0  0
 17 18  1  0  0  0  0
 17 31  1  0  0  0  0
M  END
> <s_m_source_file>
AV-unprocessed.smi

> <i_m_source_file_index>
2575

> <i_lp_mmshare_version>
43012

> <i_f3d_flags>
0

> <s_epik_input>
W0NIM11bQ0gyXU9bQ0gyXVtDQEhdKFtPSF0pW0NIMl1uKG5uMSljKGMxMilbY0hdYyhDbCljKENsKVtjSF0y

> <s_epik_cmdline>
J2VwaWtfcHl0aG9uJywgJy1waCcsICc3LjAnLCAnLXRuJywgJzgnLCAnLW1hJywgJzIwMCcsICctbWV0YWxfYmluZGluZycsICctaW1hZScsICc8aW5maWxlLm1hZT4nLCAnLW9tYWUnLCAnPG91dGZpbGUubWFlPic=

> <r_lp_tautomer_probability>
1

> <r_epik_Ionization_Penalty>
2.39516e-06

> <r_epik_Ionization_Penalty_Charging>
0

> <r_epik_Ionization_Penalty_Neutral>
2.39516e-06

> <r_epik_State_Penalty>
-0

> <r_epik_Charging_Adjusted_Penalty>
0

> <i_epik_Tot_Q>
0

> <i_epik_Tot_abs_Q>
0

> <r_epik_Metal_State_Penalty>
-0

> <b_epik_Metal_Only>
0

> <s_lp_Force_Field>
OPLS_2005

> <r_lp_Energy>
6.35742

> <b_lp_Chiralities_Consistent>
1

> <s_lp_Variant>
AV-unprocessed.smi:2575-1

> <Gold.Version>
5.8.1

> <Gold.Id.Protein>
6NUR|6NUR_protein|mol2

> <Gold.PLP.Fitness>
48.5991

> <Gold.PLP.PLP>
-46.2035

> <Gold.PLP.part.hbond>
-1.2565

> <Gold.PLP.part.metal>
0.0000

> <Gold.PLP.part.buried>
-5.6506

> <Gold.PLP.part.nonpolar>
-37.8050

> <Gold.PLP.part.repulsive>
0.2875

> <Gold.PLP.ligand.clash>
0.0000

> <Gold.PLP.ligand.torsion>
0.3155

> <Gold.PLP.Chemscore.Hbond>
1.0000

> <Gold.PLP.Chemscore.CHOScore>
0.0000

> <Gold.PLP.Chemscore.Metal>
0.0000

> <Gold.Chemscore.Hbonds>
donor molecule, donor type, donor heavy atom, donor atom, acceptor molecule, acceptor atom, score
      L1  H     6    27       P1  8028  1.00

> <Gold.PLP.Chemscore.Internal.Correction>
0.0267

> <Gold.Rescore>
     Score         DG    S(hbond)    S(metal)    S(lipo)     H(rot)  DE(clash)    DE(int)     intcor
     16.26     -17.82       0.93        0.00     126.93       2.19       0.07       1.50       ----

> <Gold.Chemscore.Fitness>
16.2573

> <Gold.Chemscore.DG>
-17.8242

> <Gold.Chemscore.ZeroCoef>
-5.4800

> <Gold.Chemscore.Hbond>
0.9282

> <Gold.Chemscore.Metal>
0.0000

> <Gold.Chemscore.Lipo>
126.9284

> <Gold.Chemscore.Internal_Hbond>
0.0000

> <Gold.Chemscore.DEClash>
0.0706

> <Gold.Chemscore.DEInternal>
1.4964

> <Gold.Chemscore.Rot>
2.1901

> <Gold.Chemscore.Internal.Correction>
   9.000000E+99

> <Gold.Chemscore.Hbonds>
donor molecule, donor type, donor heavy atom, donor atom, acceptor molecule, acceptor atom, score
      L1  H     6    27       P1  8028  0.98

> <Gold.Chemscore.Hbond.Weighted>
-3.1002

> <Gold.Chemscore.Metal.Weighted>
-0.0000

> <Gold.Chemscore.Lipo.Weighted>
-14.8506

> <Gold.Chemscore.Internal_Hbond.Weighted>
0.0000

> <Gold.Chemscore.DEClash.Weighted>
0.0706

> <Gold.Chemscore.DEInternal.Weighted>
1.4964

> <Gold.Chemscore.Rot.Weighted>
5.6066

> <Gold.Chemscore.Internal.Correction.Weighted>
   9.000000E+99

> <Gold.Protein.RotatedTorsions>
[ 6907 6896 6895 6894 ] final  104.55 input  -60.11 | X-H torsion
[ 7974 7965 7964 7962 ] final -159.13 input  175.53 | X-H torsion
[ 8008 7997 7996 7995 ] final -125.45 input   59.86 | X-H torsion
[ 10167 10162 10161 10158 ] final  117.04 input  -65.29 | X-H torsion
[ 10718 10713 10712 10709 ] final -151.41 input   66.30 | X-H torsion
[ 10763 10752 10751 10750 ] final  144.64 input  -60.55 | X-H torsion
[ 11005 11000 10999 10996 ] final   86.36 input  -57.11 | X-H torsion

> <Gold.Protein.ActiveResidues>
 VAL166  LYS551  ARG553  GLY616  TRP617  ASP618  TYR619  PRO620  LYS621  CYS622 
 ASP623  PHE694  ASN695  SER759  ASP760  ASP761  ALA762  ILE779  LEU786  VAL792 
 PHE793  MET794  SER795  GLU796  ALA797  LYS798  CYS799  TRP800  GLU811  SER814 

> <Gold.Protein.RotatedAtoms>
  152.5261  133.9661  159.7739 H   0  0  0  0  0  0  0  0  0  0  0  0  # atno 6907 bound_to 6896
  150.9942  133.6111  159.2711 H   0  0  0  0  0  0  0  0  0  0  0  0  # atno 6908 bound_to 6896
  151.3244  135.0832  159.9370 H   0  0  0  0  0  0  0  0  0  0  0  0  # atno 6909 bound_to 6896
  144.7477  140.3729  143.6072 H   0  0  0  0  0  0  0  0  0  0  0  0  # atno 7974 bound_to 7965
  155.2135  140.0419  157.2937 H   0  0  0  0  0  0  0  0  0  0  0  0  # atno 8008 bound_to 7997
  154.5996  140.2448  155.7782 H   0  0  0  0  0  0  0  0  0  0  0  0  # atno 8009 bound_to 7997
  156.2312  140.2937  156.0203 H   0  0  0  0  0  0  0  0  0  0  0  0  # atno 8010 bound_to 7997
  139.6206  144.7100  151.2643 H   0  0  0  0  0  0  0  0  0  0  0  0  # atno 10167 bound_to 10162
  156.4589  130.8204  151.2435 H   0  0  0  0  0  0  0  0  0  0  0  0  # atno 10718 bound_to 10713
  153.9922  135.2931  155.3411 H   0  0  0  0  0  0  0  0  0  0  0  0  # atno 10763 bound_to 10752
  154.7208  135.5110  153.8812 H   0  0  0  0  0  0  0  0  0  0  0  0  # atno 10764 bound_to 10752
  153.0804  135.6677  154.0173 H   0  0  0  0  0  0  0  0  0  0  0  0  # atno 10765 bound_to 10752
  139.8947  134.8350  156.2709 H   0  0  0  0  0  0  0  0  0  0  0  0  # atno 11005 bound_to 11000
  145.7059  139.1672  143.2566 LP  0  0  0  0  0  0  0  0  0  0  0  0  # atno 17320 bound_to 7965
  146.1382  140.7093  142.9379 LP  0  0  0  0  0  0  0  0  0  0  0  0  # atno 17321 bound_to 7965
  140.7379  143.6663  150.8120 LP  0  0  0  0  0  0  0  0  0  0  0  0  # atno 17342 bound_to 10162
  140.0273  143.5480  152.2775 LP  0  0  0  0  0  0  0  0  0  0  0  0  # atno 17343 bound_to 10162
  157.7499  131.0113  150.3342 LP  0  0  0  0  0  0  0  0  0  0  0  0  # atno 17370 bound_to 10713
  156.3737  130.3868  149.7155 LP  0  0  0  0  0  0  0  0  0  0  0  0  # atno 17371 bound_to 10713
  141.0101  133.7100  156.1098 LP  0  0  0  0  0  0  0  0  0  0  0  0  # atno 17394 bound_to 11000
  140.7379  134.4182  157.5558 LP  0  0  0  0  0  0  0  0  0  0  0  0  # atno 17395 bound_to 11000

$$$$
