AV-unprocessed.smi:2217|AV-procd|sdf|8972|dock2
  -GOLD-   2272012183D 1   1.00000     0.00000
 Structure written by MMmdl.
 45 48  0  0  0  0  0  0  0  0  1 V2000
  150.9995  142.2018  156.4091 C   0  0  0  0  0  0  0  0  0  0  0  0
  150.2234  141.1634  155.6268 C   0  0  0  0  0  0  0  0  0  0  0  0
  150.8030  139.9298  155.2760 C   0  0  0  0  0  0  0  0  0  0  0  0
  150.0324  138.9997  154.5522 C   0  0  0  0  0  0  0  0  0  0  0  0
  148.7039  139.3206  154.1917 C   0  0  0  0  0  0  0  0  0  0  0  0
  148.0240  138.2953  153.4700 N   0  0  0  0  0  0  0  0  0  0  0  0
  146.7186  137.9537  153.4182 C   0  0  0  0  0  0  0  0  0  0  0  0
  145.8752  138.5679  154.0694 O   0  0  0  0  0  0  0  0  0  0  0  0
  146.4067  136.9181  152.6237 N   0  0  0  0  0  0  0  0  0  0  0  0
  145.0567  136.4146  152.4011 C   0  0  2  0  0  0  0  0  0  0  0  0
  144.3536  136.0300  153.7125 C   0  0  1  0  0  0  0  0  0  0  0  0
  143.1447  136.8015  154.1661 C   0  0  0  0  0  0  0  0  0  0  0  0
  141.9828  135.9577  153.6344 C   0  0  0  0  0  0  0  0  0  0  0  0
  142.5498  135.1913  152.5738 O   0  0  0  0  0  0  0  0  0  0  0  0
  143.8551  134.7907  152.9842 C   0  0  1  0  0  0  0  0  0  0  0  0
  144.9893  134.9371  151.9471 C   0  0  0  0  0  0  0  0  0  0  0  0
  146.1975  134.0215  152.1651 C   0  0  0  0  0  0  0  0  0  0  0  0
  145.9160  132.7408  151.3793 C   0  0  0  0  0  0  0  0  0  0  0  0
  145.0002  133.1660  150.2279 C   0  0  0  0  0  0  0  0  0  0  0  0
  144.6507  134.6359  150.4891 C   0  0  0  0  0  0  0  0  0  0  0  0
  148.1558  140.5134  154.5379 N   0  0  0  0  0  0  0  0  0  0  0  0
  148.8937  141.4048  155.2325 C   0  0  0  0  0  0  0  0  0  0  0  0
  152.0543  141.9350  156.4820 H   0  0  0  0  0  0  0  0  0  0  0  0
  150.5975  142.2899  157.4185 H   0  0  0  0  0  0  0  0  0  0  0  0
  150.9280  143.1755  155.9236 H   0  0  0  0  0  0  0  0  0  0  0  0
  151.8195  139.6949  155.5559 H   0  0  0  0  0  0  0  0  0  0  0  0
  150.4630  138.0472  154.2784 H   0  0  0  0  0  0  0  0  0  0  0  0
  148.6319  137.6927  152.9348 H   0  0  0  0  0  0  0  0  0  0  0  0
  147.1570  136.4631  152.1227 H   0  0  0  0  0  0  0  0  0  0  0  0
  144.4342  137.0636  151.7807 H   0  0  0  0  0  0  0  0  0  0  0  0
  145.0563  135.7713  154.5070 H   0  0  0  0  0  0  0  0  0  0  0  0
  143.0985  136.9111  155.2498 H   0  0  0  0  0  0  0  0  0  0  0  0
  143.1324  137.7994  153.7265 H   0  0  0  0  0  0  0  0  0  0  0  0
  141.6175  135.2794  154.4067 H   0  0  0  0  0  0  0  0  0  0  0  0
  141.1456  136.5640  153.2887 H   0  0  0  0  0  0  0  0  0  0  0  0
  143.8651  133.8823  153.5884 H   0  0  0  0  0  0  0  0  0  0  0  0
  147.1040  134.4800  151.7685 H   0  0  0  0  0  0  0  0  0  0  0  0
  146.3829  133.8123  153.2192 H   0  0  0  0  0  0  0  0  0  0  0  0
  146.8330  132.2661  151.0289 H   0  0  0  0  0  0  0  0  0  0  0  0
  145.3955  132.0235  152.0152 H   0  0  0  0  0  0  0  0  0  0  0  0
  145.4894  133.0494  149.2603 H   0  0  0  0  0  0  0  0  0  0  0  0
  144.0998  132.5507  150.2173 H   0  0  0  0  0  0  0  0  0  0  0  0
  143.6078  134.8422  150.2483 H   0  0  0  0  0  0  0  0  0  0  0  0
  145.2499  135.2705  149.8350 H   0  0  0  0  0  0  0  0  0  0  0  0
  148.4064  142.3363  155.4813 H   0  0  0  0  0  0  0  0  0  0  0  0
  1  2  1  0  0  0  0
  1 23  1  0  0  0  0
  1 24  1  0  0  0  0
  1 25  1  0  0  0  0
  2 22  1  0  0  0  0
  2  3  2  0  0  0  0
  3  4  1  0  0  0  0
  3 26  1  0  0  0  0
  4  5  2  0  0  0  0
  4 27  1  0  0  0  0
  5  6  1  0  0  0  0
  5 21  1  0  0  0  0
  6  7  1  0  0  0  0
  6 28  1  0  0  0  0
  7  8  2  0  0  0  0
  7  9  1  0  0  0  0
  9 10  1  0  0  0  0
  9 29  1  0  0  0  0
 10 16  1  0  0  0  0
 10 11  1  0  0  0  0
 10 30  1  0  0  0  0
 11 15  1  0  0  0  0
 11 12  1  0  0  0  0
 11 31  1  0  0  0  0
 12 13  1  0  0  0  0
 12 32  1  0  0  0  0
 12 33  1  0  0  0  0
 13 14  1  0  0  0  0
 13 34  1  0  0  0  0
 13 35  1  0  0  0  0
 14 15  1  0  0  0  0
 15 16  1  0  0  0  0
 15 36  1  0  0  0  0
 16 20  1  0  0  0  0
 16 17  1  0  0  0  0
 17 18  1  0  0  0  0
 17 37  1  0  0  0  0
 17 38  1  0  0  0  0
 18 19  1  0  0  0  0
 18 39  1  0  0  0  0
 18 40  1  0  0  0  0
 19 20  1  0  0  0  0
 19 41  1  0  0  0  0
 19 42  1  0  0  0  0
 20 43  1  0  0  0  0
 20 44  1  0  0  0  0
 21 22  2  0  0  0  0
 22 45  1  0  0  0  0
M  END
> <s_m_source_file>
AV-unprocessed.smi

> <i_m_source_file_index>
2217

> <i_lp_mmshare_version>
43012

> <i_f3d_flags>
0

> <s_epik_input>
W0NIM11jMVtjSF1bY0hdYyhuW2NIXTEpW05IXUMoPU8pW05IXVtDQEBIXTJbQ0BASF0oW0NIMl1bQ0gyXU8zKVtDQEhdM0MyNFtDSDJdW0NIMl1bQ0gyXVtDSDJdNA==

> <s_epik_cmdline>
J2VwaWtfcHl0aG9uJywgJy1waCcsICc3LjAnLCAnLXRuJywgJzgnLCAnLW1hJywgJzIwMCcsICctbWV0YWxfYmluZGluZycsICctaW1hZScsICc8aW5maWxlLm1hZT4nLCAnLW9tYWUnLCAnPG91dGZpbGUubWFlPic=

> <r_lp_tautomer_probability>
1

> <r_epik_Ionization_Penalty>
6.14796e-05

> <r_epik_Ionization_Penalty_Charging>
0

> <r_epik_Ionization_Penalty_Neutral>
6.14796e-05

> <r_epik_State_Penalty>
-0

> <r_epik_Charging_Adjusted_Penalty>
0

> <i_epik_Tot_Q>
0

> <i_epik_Tot_abs_Q>
0

> <r_epik_Metal_State_Penalty>
-0

> <b_epik_Metal_Only>
0

> <s_lp_Force_Field>
OPLS_2005

> <r_lp_Energy>
58.5561

> <b_lp_Chiralities_Consistent>
1

> <s_lp_Variant>
AV-unprocessed.smi:2217-5

> <Gold.Version>
5.8.1

> <Gold.Id.Protein>
6NUR|6NUR_protein|mol2

> <Gold.PLP.Fitness>
43.0747

> <Gold.PLP.PLP>
-34.6209

> <Gold.PLP.part.hbond>
-2.1388

> <Gold.PLP.part.metal>
0.0000

> <Gold.PLP.part.buried>
-4.9527

> <Gold.PLP.part.nonpolar>
-27.3476

> <Gold.PLP.part.repulsive>
0.5006

> <Gold.PLP.ligand.clash>
0.0000

> <Gold.PLP.ligand.torsion>
0.3652

> <Gold.PLP.Chemscore.Hbond>
2.0000

> <Gold.PLP.Chemscore.CHOScore>
1.0000

> <Gold.PLP.Chemscore.Metal>
0.0000

> <Gold.Chemscore.Hbonds>
donor molecule, donor type, donor heavy atom, donor atom, acceptor molecule, acceptor atom, score
      L1  H     6    28       P1  7948  1.00
      L1  H     9    29       P1  7948  1.00
      L1  C    22    45       P1  8028  1.00

> <Gold.PLP.Chemscore.Internal.Correction>
0.1842

> <Gold.Rescore>
     Score         DG    S(hbond)    S(metal)    S(lipo)     H(rot)  DE(clash)    DE(int)     intcor
     16.88     -19.16       1.92        0.00      84.06       1.00       0.05       2.23       ----

> <Gold.Chemscore.Fitness>
16.8846

> <Gold.Chemscore.DG>
-19.1635

> <Gold.Chemscore.ZeroCoef>
-5.4800

> <Gold.Chemscore.Hbond>
1.9187

> <Gold.Chemscore.Metal>
0.0000

> <Gold.Chemscore.Lipo>
84.0597

> <Gold.Chemscore.Internal_Hbond>
0.0000

> <Gold.Chemscore.DEClash>
0.0477

> <Gold.Chemscore.DEInternal>
2.2312

> <Gold.Chemscore.Rot>
1.0000

> <Gold.Chemscore.Internal.Correction>
   9.000000E+99

> <Gold.Chemscore.Hbonds>
donor molecule, donor type, donor heavy atom, donor atom, acceptor molecule, acceptor atom, score
      L1  H     6    28       P1  7948  0.98
      L1  H     9    29       P1  7948  0.94

> <Gold.Chemscore.Hbond.Weighted>
-6.4085

> <Gold.Chemscore.Metal.Weighted>
-0.0000

> <Gold.Chemscore.Lipo.Weighted>
-9.8350

> <Gold.Chemscore.Internal_Hbond.Weighted>
0.0000

> <Gold.Chemscore.DEClash.Weighted>
0.0477

> <Gold.Chemscore.DEInternal.Weighted>
2.2312

> <Gold.Chemscore.Rot.Weighted>
2.5600

> <Gold.Chemscore.Internal.Correction.Weighted>
   9.000000E+99

> <Gold.Protein.RotatedTorsions>
[ 6907 6896 6895 6894 ] final  -10.66 input  -60.11 | X-H torsion
[ 7974 7965 7964 7962 ] final  132.55 input  175.53 | X-H torsion
[ 8008 7997 7996 7995 ] final  -38.32 input   59.86 | X-H torsion
[ 10167 10162 10161 10158 ] final   93.92 input  -65.29 | X-H torsion
[ 10718 10713 10712 10709 ] final -163.18 input   66.30 | X-H torsion
[ 10763 10752 10751 10750 ] final  110.94 input  -60.55 | X-H torsion
[ 11005 11000 10999 10996 ] final -104.56 input  -57.11 | X-H torsion

> <Gold.Protein.ActiveResidues>
 VAL166  LYS551  ARG553  GLY616  TRP617  ASP618  TYR619  PRO620  LYS621  CYS622 
 ASP623  PHE694  ASN695  SER759  ASP760  ASP761  ALA762  ILE779  LEU786  VAL792 
 PHE793  MET794  SER795  GLU796  ALA797  LYS798  CYS799  TRP800  GLU811  SER814 

> <Gold.Protein.RotatedAtoms>
  151.3984  135.0967  159.9547 H   0  0  0  0  0  0  0  0  0  0  0  0  # atno 6907 bound_to 6896
  152.5058  133.8912  159.7405 H   0  0  0  0  0  0  0  0  0  0  0  0  # atno 6908 bound_to 6896
  150.9380  133.6633  159.2825 H   0  0  0  0  0  0  0  0  0  0  0  0  # atno 6909 bound_to 6896
  144.9956  139.4362  143.5317 H   0  0  0  0  0  0  0  0  0  0  0  0  # atno 7974 bound_to 7965
  154.4038  140.1581  156.2681 H   0  0  0  0  0  0  0  0  0  0  0  0  # atno 8008 bound_to 7997
  155.8977  140.3435  155.5981 H   0  0  0  0  0  0  0  0  0  0  0  0  # atno 8009 bound_to 7997
  155.7484  140.0802  157.2203 H   0  0  0  0  0  0  0  0  0  0  0  0  # atno 8010 bound_to 7997
  139.8134  144.6763  150.9611 H   0  0  0  0  0  0  0  0  0  0  0  0  # atno 10167 bound_to 10162
  156.6210  130.8890  151.2957 H   0  0  0  0  0  0  0  0  0  0  0  0  # atno 10718 bound_to 10713
  153.4562  135.3732  155.2312 H   0  0  0  0  0  0  0  0  0  0  0  0  # atno 10763 bound_to 10752
  154.8757  135.3897  154.3980 H   0  0  0  0  0  0  0  0  0  0  0  0  # atno 10764 bound_to 10752
  153.4546  135.7086  153.6152 H   0  0  0  0  0  0  0  0  0  0  0  0  # atno 10765 bound_to 10752
  141.1095  133.8734  157.1626 H   0  0  0  0  0  0  0  0  0  0  0  0  # atno 11005 bound_to 11000
  146.3441  139.9314  142.8753 LP  0  0  0  0  0  0  0  0  0  0  0  0  # atno 17320 bound_to 7965
  145.2224  140.9940  143.4038 LP  0  0  0  0  0  0  0  0  0  0  0  0  # atno 17321 bound_to 7965
  140.7817  143.4163  151.0912 LP  0  0  0  0  0  0  0  0  0  0  0  0  # atno 17342 bound_to 10162
  139.7828  143.8331  152.3140 LP  0  0  0  0  0  0  0  0  0  0  0  0  # atno 17343 bound_to 10162
  157.7227  130.9581  150.1506 LP  0  0  0  0  0  0  0  0  0  0  0  0  # atno 17370 bound_to 10713
  156.2311  130.3682  149.8443 LP  0  0  0  0  0  0  0  0  0  0  0  0  # atno 17371 bound_to 10713
  139.9981  135.0039  157.0128 LP  0  0  0  0  0  0  0  0  0  0  0  0  # atno 17394 bound_to 11000
  140.4814  134.1285  155.7217 LP  0  0  0  0  0  0  0  0  0  0  0  0  # atno 17395 bound_to 11000

$$$$
