AV-unprocessed.smi:2552|AV-procd|sdf|10015|dock7
  -GOLD-   2272014 63D 1   1.00000     0.00000
 Structure written by MMmdl.
 34 36  0  0  0  0  0  0  0  0  1 V2000
  147.6204  140.7221  154.1788 C   0  0  0  0  0  0  0  0  0  0  0  0
  148.8857  140.1207  154.5934 N   0  0  0  0  0  0  0  0  0  0  0  0
  149.2256  138.9431  153.9167 N   0  0  0  0  0  0  0  0  0  0  0  0
  150.3212  138.3038  154.1853 C   0  0  0  0  0  0  0  0  0  0  0  0
  151.1997  138.8431  155.2187 C   0  0  0  0  0  0  0  0  0  0  0  0
  152.4417  138.4546  155.7922 C   0  0  0  0  0  0  0  0  0  0  0  0
  152.8424  139.3035  156.7367 N   0  0  0  0  0  0  0  0  0  0  0  0
  151.8795  140.2592  156.8072 N   0  0  0  0  0  0  0  0  0  0  0  0
  152.0029  141.3427  157.7702 C   0  0  0  0  0  0  0  0  0  0  0  0
  152.7838  140.9214  159.0316 C   0  0  2  0  0  0  0  0  0  0  0  0
  152.3224  139.6462  159.4308 O   0  0  0  0  0  0  0  0  0  0  0  0
  152.6784  141.9521  160.1501 C   0  0  0  0  0  0  0  0  0  0  0  0
  151.9882  143.1664  159.9378 C   0  0  0  0  0  0  0  0  0  0  0  0
  151.9062  144.1279  160.9632 C   0  0  0  0  0  0  0  0  0  0  0  0
  152.5157  143.8834  162.2081 C   0  0  0  0  0  0  0  0  0  0  0  0
  153.2095  142.6779  162.4256 C   0  0  0  0  0  0  0  0  0  0  0  0
  153.2940  141.7151  161.4008 C   0  0  0  0  0  0  0  0  0  0  0  0
  153.9778  140.5668  161.6240 F   0  0  0  0  0  0  0  0  0  0  0  0
  150.8910  139.9821  155.8856 C   0  0  0  0  0  0  0  0  0  0  0  0
  149.6386  140.7084  155.5713 C   0  0  0  0  0  0  0  0  0  0  0  0
  149.3266  141.7473  156.1535 O   0  0  0  0  0  0  0  0  0  0  0  0
  147.7818  141.7301  153.7937 H   0  0  0  0  0  0  0  0  0  0  0  0
  146.9304  140.7843  155.0216 H   0  0  0  0  0  0  0  0  0  0  0  0
  147.1307  140.1435  153.3937 H   0  0  0  0  0  0  0  0  0  0  0  0
  150.5842  137.3873  153.6573 H   0  0  0  0  0  0  0  0  0  0  0  0
  153.0568  137.5976  155.5608 H   0  0  0  0  0  0  0  0  0  0  0  0
  152.4875  142.1935  157.2879 H   0  0  0  0  0  0  0  0  0  0  0  0
  150.9988  141.6737  158.0370 H   0  0  0  0  0  0  0  0  0  0  0  0
  153.8342  140.7896  158.7730 H   0  0  0  0  0  0  0  0  0  0  0  0
  152.1559  139.1322  158.6555 H   0  0  0  0  0  0  0  0  0  0  0  0
  151.5230  143.3672  158.9838 H   0  0  0  0  0  0  0  0  0  0  0  0
  151.3777  145.0544  160.7933 H   0  0  0  0  0  0  0  0  0  0  0  0
  152.4538  144.6210  162.9945 H   0  0  0  0  0  0  0  0  0  0  0  0
  153.6810  142.4924  163.3792 H   0  0  0  0  0  0  0  0  0  0  0  0
  1  2  1  0  0  0  0
  1 22  1  0  0  0  0
  1 23  1  0  0  0  0
  1 24  1  0  0  0  0
  2 20  1  0  0  0  0
  2  3  1  0  0  0  0
  3  4  2  0  0  0  0
  4  5  1  0  0  0  0
  4 25  1  0  0  0  0
  5 19  2  0  0  0  0
  5  6  1  0  0  0  0
  6  7  2  0  0  0  0
  6 26  1  0  0  0  0
  7  8  1  0  0  0  0
  8  9  1  0  0  0  0
  8 19  1  0  0  0  0
  9 10  1  0  0  0  0
  9 27  1  0  0  0  0
  9 28  1  0  0  0  0
 10 11  1  0  0  0  0
 10 12  1  0  0  0  0
 10 29  1  0  0  0  0
 11 30  1  0  0  0  0
 12 17  1  0  0  0  0
 12 13  2  0  0  0  0
 13 14  1  0  0  0  0
 13 31  1  0  0  0  0
 14 15  2  0  0  0  0
 14 32  1  0  0  0  0
 15 16  1  0  0  0  0
 15 33  1  0  0  0  0
 16 17  2  0  0  0  0
 16 34  1  0  0  0  0
 17 18  1  0  0  0  0
 19 20  1  0  0  0  0
 20 21  2  0  0  0  0
M  END
> <s_m_source_file>
AV-unprocessed.smi

> <i_m_source_file_index>
2552

> <i_lp_mmshare_version>
43012

> <i_f3d_flags>
0

> <s_epik_input>
W2NIXTFubihbQ0gzXSljKD1PKWMoYzEyKW4obltjSF0yKVtDSDJdW0NASF0oW09IXSljM1tjSF1bY0hdW2NIXVtjSF1jM0Y=

> <s_epik_cmdline>
J2VwaWtfcHl0aG9uJywgJy1waCcsICc3LjAnLCAnLXRuJywgJzgnLCAnLW1hJywgJzIwMCcsICctbWV0YWxfYmluZGluZycsICctaW1hZScsICc8aW5maWxlLm1hZT4nLCAnLW9tYWUnLCAnPG91dGZpbGUubWFlPic=

> <r_lp_tautomer_probability>
1

> <r_epik_Ionization_Penalty>
6.28011e-06

> <r_epik_Ionization_Penalty_Charging>
1.65421e-10

> <r_epik_Ionization_Penalty_Neutral>
6.27995e-06

> <r_epik_State_Penalty>
-0

> <r_epik_Charging_Adjusted_Penalty>
1.65421e-10

> <i_epik_Tot_Q>
0

> <i_epik_Tot_abs_Q>
0

> <r_epik_Metal_State_Penalty>
-0

> <b_epik_Metal_Only>
0

> <s_lp_Force_Field>
OPLS_2005

> <r_lp_Energy>
28.555

> <b_lp_Chiralities_Consistent>
1

> <s_lp_Variant>
AV-unprocessed.smi:2552-1

> <Gold.Version>
5.8.1

> <Gold.Id.Protein>
6NUR|6NUR_protein|mol2

> <Gold.PLP.Fitness>
52.3957

> <Gold.PLP.PLP>
-47.1626

> <Gold.PLP.part.hbond>
-1.0000

> <Gold.PLP.part.metal>
0.0000

> <Gold.PLP.part.buried>
-7.3284

> <Gold.PLP.part.nonpolar>
-41.2690

> <Gold.PLP.part.repulsive>
2.3290

> <Gold.PLP.ligand.clash>
0.0000

> <Gold.PLP.ligand.torsion>
0.5036

> <Gold.PLP.Chemscore.Hbond>
1.0000

> <Gold.PLP.Chemscore.CHOScore>
1.0750

> <Gold.PLP.Chemscore.Metal>
0.0000

> <Gold.Chemscore.Hbonds>
donor molecule, donor type, donor heavy atom, donor atom, acceptor molecule, acceptor atom, score
      P1  H  7997  8009       L1     7  1.00
      L1  C     4    25       P1  7948  0.43
      L1  C     4    25       P1  7949  0.46

> <Gold.PLP.Chemscore.Internal.Correction>
0.0154

> <Gold.Rescore>
     Score         DG    S(hbond)    S(metal)    S(lipo)     H(rot)  DE(clash)    DE(int)     intcor
     14.85     -16.94       0.88        0.00     117.04       2.02       0.42       1.67       ----

> <Gold.Chemscore.Fitness>
14.8521

> <Gold.Chemscore.DG>
-16.9398

> <Gold.Chemscore.ZeroCoef>
-5.4800

> <Gold.Chemscore.Hbond>
0.8780

> <Gold.Chemscore.Metal>
0.0000

> <Gold.Chemscore.Lipo>
117.0384

> <Gold.Chemscore.Internal_Hbond>
0.0000

> <Gold.Chemscore.DEClash>
0.4160

> <Gold.Chemscore.DEInternal>
1.6717

> <Gold.Chemscore.Rot>
2.0181

> <Gold.Chemscore.Internal.Correction>
   9.000000E+99

> <Gold.Chemscore.Hbonds>
donor molecule, donor type, donor heavy atom, donor atom, acceptor molecule, acceptor atom, score
      P1  H  7997  8009       L1     7  0.43

> <Gold.Chemscore.Hbond.Weighted>
-2.9327

> <Gold.Chemscore.Metal.Weighted>
-0.0000

> <Gold.Chemscore.Lipo.Weighted>
-13.6935

> <Gold.Chemscore.Internal_Hbond.Weighted>
0.0000

> <Gold.Chemscore.DEClash.Weighted>
0.4160

> <Gold.Chemscore.DEInternal.Weighted>
1.6717

> <Gold.Chemscore.Rot.Weighted>
5.1663

> <Gold.Chemscore.Internal.Correction.Weighted>
   9.000000E+99

> <Gold.Protein.RotatedTorsions>
[ 6907 6896 6895 6894 ] final  129.15 input  -60.11 | X-H torsion
[ 7974 7965 7964 7962 ] final  -17.16 input  175.53 | X-H torsion
[ 8008 7997 7996 7995 ] final -154.79 input   59.86 | X-H torsion
[ 10167 10162 10161 10158 ] final   80.76 input  -65.29 | X-H torsion
[ 10718 10713 10712 10709 ] final  -85.93 input   66.30 | X-H torsion
[ 10763 10752 10751 10750 ] final -108.15 input  -60.55 | X-H torsion
[ 11005 11000 10999 10996 ] final   13.68 input  -57.11 | X-H torsion

> <Gold.Protein.ActiveResidues>
 VAL166  LYS551  ARG553  GLY616  TRP617  ASP618  TYR619  PRO620  LYS621  CYS622 
 ASP623  PHE694  ASN695  SER759  ASP760  ASP761  ALA762  ILE779  LEU786  VAL792 
 PHE793  MET794  SER795  GLU796  ALA797  LYS798  CYS799  TRP800  GLU811  SER814 

> <Gold.Protein.RotatedAtoms>
  152.3652  133.6347  159.6044 H   0  0  0  0  0  0  0  0  0  0  0  0  # atno 6907 bound_to 6896
  150.7629  133.9360  159.3450 H   0  0  0  0  0  0  0  0  0  0  0  0  # atno 6908 bound_to 6896
  151.7192  135.0898  160.0332 H   0  0  0  0  0  0  0  0  0  0  0  0  # atno 6909 bound_to 6896
  146.1954  140.3740  142.8442 H   0  0  0  0  0  0  0  0  0  0  0  0  # atno 7974 bound_to 7965
  155.6919  140.0756  157.2445 H   0  0  0  0  0  0  0  0  0  0  0  0  # atno 8008 bound_to 7997
  154.4087  140.1663  156.2148 H   0  0  0  0  0  0  0  0  0  0  0  0  # atno 8009 bound_to 7997
  155.9444  140.3382  155.6358 H   0  0  0  0  0  0  0  0  0  0  0  0  # atno 8010 bound_to 7997
  139.9464  144.6055  150.8203 H   0  0  0  0  0  0  0  0  0  0  0  0  # atno 10167 bound_to 10162
  155.9993  130.4748  150.4637 H   0  0  0  0  0  0  0  0  0  0  0  0  # atno 10718 bound_to 10713
  154.8118  135.4648  154.0537 H   0  0  0  0  0  0  0  0  0  0  0  0  # atno 10763 bound_to 10752
  153.1962  135.6862  153.8296 H   0  0  0  0  0  0  0  0  0  0  0  0  # atno 10764 bound_to 10752
  153.7797  135.3258  155.3341 H   0  0  0  0  0  0  0  0  0  0  0  0  # atno 10765 bound_to 10752
  140.4781  134.0963  155.7745 H   0  0  0  0  0  0  0  0  0  0  0  0  # atno 11005 bound_to 11000
  144.8569  140.7084  143.6132 LP  0  0  0  0  0  0  0  0  0  0  0  0  # atno 17320 bound_to 7965
  145.3661  139.1670  143.4357 LP  0  0  0  0  0  0  0  0  0  0  0  0  # atno 17321 bound_to 7965
  140.7596  143.3132  151.2795 LP  0  0  0  0  0  0  0  0  0  0  0  0  # atno 17342 bound_to 10162
  139.6663  144.0099  152.2725 LP  0  0  0  0  0  0  0  0  0  0  0  0  # atno 17343 bound_to 10162
  157.2659  131.0577  151.2291 LP  0  0  0  0  0  0  0  0  0  0  0  0  # atno 17370 bound_to 10713
  157.3388  130.7023  149.6369 LP  0  0  0  0  0  0  0  0  0  0  0  0  # atno 17371 bound_to 10713
  141.1545  133.8909  157.2014 LP  0  0  0  0  0  0  0  0  0  0  0  0  # atno 17394 bound_to 11000
  139.9844  135.0087  156.9826 LP  0  0  0  0  0  0  0  0  0  0  0  0  # atno 17395 bound_to 11000

$$$$
