AV-unprocessed.smi:2853|AV-procd|sdf|10973|dock6
  -GOLD-   2272015423D 1   1.00000     0.00000
 Structure written by MMmdl.
 43 44  0  0  0  0  0  0  0  0  1 V2000
  150.7616  129.0193  151.6655 C   0  0  0  0  0  0  0  0  0  0  0  0
  150.3416  130.4163  151.9703 C   0  0  0  0  0  0  0  0  0  0  0  0
  149.1772  130.9392  151.5895 N   0  0  0  0  0  0  0  0  0  0  0  0
  149.0227  132.2691  151.9922 C   0  0  0  0  0  0  0  0  0  0  0  0
  147.7557  132.9925  151.6265 C   0  0  0  0  0  0  0  0  0  0  0  0
  146.4831  132.1449  151.8315 C   0  0  0  0  0  0  0  0  0  0  0  0
  146.4866  130.8638  150.9795 C   0  0  0  0  0  0  0  0  0  0  0  0
  145.2218  132.9774  151.5569 C   0  0  0  0  0  0  0  0  0  0  0  0
  150.0951  132.7751  152.6951 C   0  0  0  0  0  0  0  0  0  0  0  0
  150.1796  134.0501  153.1599 N   0  0  0  0  0  0  0  0  0  0  0  0
  151.0470  134.5794  154.0399 C   0  0  0  0  0  0  0  0  0  0  0  0
  151.8835  133.9484  154.6854 O   0  0  0  0  0  0  0  0  0  0  0  0
  150.8711  135.9080  154.1391 N   0  0  0  0  0  0  0  0  0  0  0  0
  151.6012  136.8698  154.9765 C   0  0  1  0  0  0  0  0  0  0  0  0
  151.3360  136.4948  156.4465 C   0  0  0  0  0  0  0  0  0  0  0  0
  153.1129  136.8879  154.6903 C   0  0  0  0  0  0  0  0  0  0  0  0
  153.3859  138.3052  154.1902 C   0  0  0  0  0  0  0  0  0  0  0  0
  152.3731  139.0756  154.8138 O   0  0  0  0  0  0  0  0  0  0  0  0
  151.1711  138.3291  154.7103 C   0  0  0  0  0  0  0  0  0  0  0  0
  151.3401  131.5468  152.8653 S   0  0  0  0  0  0  0  0  0  0  0  0
  149.9442  128.4633  151.2055 H   0  0  0  0  0  0  0  0  0  0  0  0
  151.0575  128.5101  152.5828 H   0  0  0  0  0  0  0  0  0  0  0  0
  151.6089  129.0272  150.9798 H   0  0  0  0  0  0  0  0  0  0  0  0
  147.6790  133.8993  152.2282 H   0  0  0  0  0  0  0  0  0  0  0  0
  147.7996  133.3394  150.5934 H   0  0  0  0  0  0  0  0  0  0  0  0
  146.4451  131.8456  152.8800 H   0  0  0  0  0  0  0  0  0  0  0  0
  146.5603  131.0953  149.9164 H   0  0  0  0  0  0  0  0  0  0  0  0
  145.5725  130.2892  151.1319 H   0  0  0  0  0  0  0  0  0  0  0  0
  147.3222  130.2131  151.2376 H   0  0  0  0  0  0  0  0  0  0  0  0
  145.1880  133.3158  150.5207 H   0  0  0  0  0  0  0  0  0  0  0  0
  145.1851  133.8596  152.1968 H   0  0  0  0  0  0  0  0  0  0  0  0
  144.3181  132.3977  151.7474 H   0  0  0  0  0  0  0  0  0  0  0  0
  149.5149  134.6942  152.7575 H   0  0  0  0  0  0  0  0  0  0  0  0
  150.1474  136.3084  153.5605 H   0  0  0  0  0  0  0  0  0  0  0  0
  151.8261  137.1909  157.1285 H   0  0  0  0  0  0  0  0  0  0  0  0
  151.7059  135.4943  156.6740 H   0  0  0  0  0  0  0  0  0  0  0  0
  150.2694  136.5120  156.6742 H   0  0  0  0  0  0  0  0  0  0  0  0
  153.6813  136.7163  155.6053 H   0  0  0  0  0  0  0  0  0  0  0  0
  153.4410  136.1353  153.9726 H   0  0  0  0  0  0  0  0  0  0  0  0
  154.3822  138.6597  154.4549 H   0  0  0  0  0  0  0  0  0  0  0  0
  153.2771  138.3669  153.1064 H   0  0  0  0  0  0  0  0  0  0  0  0
  150.7638  138.4750  153.7094 H   0  0  0  0  0  0  0  0  0  0  0  0
  150.4241  138.6912  155.4174 H   0  0  0  0  0  0  0  0  0  0  0  0
  1  2  1  0  0  0  0
  1 21  1  0  0  0  0
  1 22  1  0  0  0  0
  1 23  1  0  0  0  0
  2 20  1  0  0  0  0
  2  3  2  0  0  0  0
  3  4  1  0  0  0  0
  4  5  1  0  0  0  0
  4  9  2  0  0  0  0
  5  6  1  0  0  0  0
  5 24  1  0  0  0  0
  5 25  1  0  0  0  0
  6  7  1  0  0  0  0
  6  8  1  0  0  0  0
  6 26  1  0  0  0  0
  7 27  1  0  0  0  0
  7 28  1  0  0  0  0
  7 29  1  0  0  0  0
  8 30  1  0  0  0  0
  8 31  1  0  0  0  0
  8 32  1  0  0  0  0
  9 10  1  0  0  0  0
  9 20  1  0  0  0  0
 10 11  1  0  0  0  0
 10 33  1  0  0  0  0
 11 12  2  0  0  0  0
 11 13  1  0  0  0  0
 13 14  1  0  0  0  0
 13 34  1  0  0  0  0
 14 19  1  0  0  0  0
 14 15  1  0  0  0  0
 14 16  1  0  0  0  0
 15 35  1  0  0  0  0
 15 36  1  0  0  0  0
 15 37  1  0  0  0  0
 16 17  1  0  0  0  0
 16 38  1  0  0  0  0
 16 39  1  0  0  0  0
 17 18  1  0  0  0  0
 17 40  1  0  0  0  0
 17 41  1  0  0  0  0
 18 19  1  0  0  0  0
 19 42  1  0  0  0  0
 19 43  1  0  0  0  0
M  END
> <s_m_source_file>
AV-unprocessed.smi

> <i_m_source_file_index>
2853

> <i_lp_mmshare_version>
43012

> <i_f3d_flags>
0

> <s_epik_input>
W0NIM11jMW5jKFtDSDJdW0NIXShbQ0gzXSlbQ0gzXSljKHMxKVtOSF1DKD1PKVtOSF1bQ0BAXTIoW0NIM10pW0NIMl1bQ0gyXU9bQ0gyXTI=

> <s_epik_cmdline>
J2VwaWtfcHl0aG9uJywgJy1waCcsICc3LjAnLCAnLXRuJywgJzgnLCAnLW1hJywgJzIwMCcsICctbWV0YWxfYmluZGluZycsICctaW1hZScsICc8aW5maWxlLm1hZT4nLCAnLW9tYWUnLCAnPG91dGZpbGUubWFlPic=

> <r_epik_Ionization_Penalty>
0.000723394

> <r_epik_Ionization_Penalty_Charging>
0

> <r_epik_Ionization_Penalty_Neutral>
0.000723394

> <r_epik_State_Penalty>
0.000446791

> <r_epik_Charging_Adjusted_Penalty>
0.000446791

> <i_epik_Tot_Q>
0

> <i_epik_Tot_abs_Q>
0

> <r_epik_Metal_State_Penalty>
-0

> <b_epik_Metal_Only>
0

> <s_lp_Force_Field>
OPLS_2005

> <r_lp_Energy>
15.1609

> <b_lp_Chiralities_Consistent>
1

> <s_lp_Variant>
AV-unprocessed.smi:2853-1

> <Gold.Version>
5.8.1

> <Gold.Id.Protein>
6NUR|6NUR_protein|mol2

> <Gold.PLP.Fitness>
45.0790

> <Gold.PLP.PLP>
-36.6211

> <Gold.PLP.part.hbond>
-3.0000

> <Gold.PLP.part.metal>
0.0000

> <Gold.PLP.part.buried>
-5.1779

> <Gold.PLP.part.nonpolar>
-28.7510

> <Gold.PLP.part.repulsive>
0.5134

> <Gold.PLP.ligand.clash>
0.0000

> <Gold.PLP.ligand.torsion>
0.2919

> <Gold.PLP.Chemscore.Hbond>
3.0000

> <Gold.PLP.Chemscore.CHOScore>
0.0000

> <Gold.PLP.Chemscore.Metal>
0.0000

> <Gold.Chemscore.Hbonds>
donor molecule, donor type, donor heavy atom, donor atom, acceptor molecule, acceptor atom, score
      L1  H    13    34       P1  7948  0.54
      P1  H  7989  7998       L1    18  0.17

> <Gold.PLP.Chemscore.Internal.Correction>
0.0416

> <Gold.Rescore>
     Score         DG    S(hbond)    S(metal)    S(lipo)     H(rot)  DE(clash)    DE(int)     intcor
     16.51     -18.76       2.12        0.00      80.86       1.28       0.00       2.25       ----

> <Gold.Chemscore.Fitness>
16.5067

> <Gold.Chemscore.DG>
-18.7575

> <Gold.Chemscore.ZeroCoef>
-5.4800

> <Gold.Chemscore.Hbond>
2.1201

> <Gold.Chemscore.Metal>
0.0000

> <Gold.Chemscore.Lipo>
80.8628

> <Gold.Chemscore.Internal_Hbond>
0.0000

> <Gold.Chemscore.DEClash>
0.0009

> <Gold.Chemscore.DEInternal>
2.2499

> <Gold.Chemscore.Rot>
1.2753

> <Gold.Chemscore.Internal.Correction>
   9.000000E+99

> <Gold.Chemscore.Hbonds>
donor molecule, donor type, donor heavy atom, donor atom, acceptor molecule, acceptor atom, score
      L1  H    13    34       P1  7948  0.03
      P1  H  7989  7998       L1    18  0.02

> <Gold.Chemscore.Hbond.Weighted>
-7.0812

> <Gold.Chemscore.Metal.Weighted>
-0.0000

> <Gold.Chemscore.Lipo.Weighted>
-9.4609

> <Gold.Chemscore.Internal_Hbond.Weighted>
0.0000

> <Gold.Chemscore.DEClash.Weighted>
0.0009

> <Gold.Chemscore.DEInternal.Weighted>
2.2499

> <Gold.Chemscore.Rot.Weighted>
3.2646

> <Gold.Chemscore.Internal.Correction.Weighted>
   9.000000E+99

> <Gold.Protein.RotatedTorsions>
[ 6907 6896 6895 6894 ] final  -41.47 input  -60.11 | X-H torsion
[ 7974 7965 7964 7962 ] final   24.36 input  175.53 | X-H torsion
[ 8008 7997 7996 7995 ] final  -34.38 input   59.86 | X-H torsion
[ 10167 10162 10161 10158 ] final  -48.75 input  -65.29 | X-H torsion
[ 10718 10713 10712 10709 ] final -166.40 input   66.30 | X-H torsion
[ 10763 10752 10751 10750 ] final  -79.88 input  -60.55 | X-H torsion
[ 11005 11000 10999 10996 ] final   -6.14 input  -57.11 | X-H torsion

> <Gold.Protein.ActiveResidues>
 VAL166  LYS551  ARG553  GLY616  TRP617  ASP618  TYR619  PRO620  LYS621  CYS622 
 ASP623  PHE694  ASN695  SER759  ASP760  ASP761  ALA762  ILE779  LEU786  VAL792 
 PHE793  MET794  SER795  GLU796  ALA797  LYS798  CYS799  TRP800  GLU811  SER814 

> <Gold.Protein.RotatedAtoms>
  150.9663  134.9043  159.7760 H   0  0  0  0  0  0  0  0  0  0  0  0  # atno 6907 bound_to 6896
  152.5174  134.3602  159.9292 H   0  0  0  0  0  0  0  0  0  0  0  0  # atno 6908 bound_to 6896
  151.3613  133.3848  159.2724 H   0  0  0  0  0  0  0  0  0  0  0  0  # atno 6909 bound_to 6896
  146.1941  139.7615  142.8810 H   0  0  0  0  0  0  0  0  0  0  0  0  # atno 7974 bound_to 7965
  154.4122  140.1685  156.2039 H   0  0  0  0  0  0  0  0  0  0  0  0  # atno 8008 bound_to 7997
  155.9500  140.3401  155.6377 H   0  0  0  0  0  0  0  0  0  0  0  0  # atno 8009 bound_to 7997
  155.6881  140.0730  157.2449 H   0  0  0  0  0  0  0  0  0  0  0  0  # atno 8010 bound_to 7997
  140.6717  143.2727  151.4116 H   0  0  0  0  0  0  0  0  0  0  0  0  # atno 10167 bound_to 10162
  156.6673  130.9070  151.3038 H   0  0  0  0  0  0  0  0  0  0  0  0  # atno 10718 bound_to 10713
  154.5442  135.5680  153.6866 H   0  0  0  0  0  0  0  0  0  0  0  0  # atno 10763 bound_to 10752
  152.9971  135.6235  154.2461 H   0  0  0  0  0  0  0  0  0  0  0  0  # atno 10764 bound_to 10752
  154.2393  135.2863  155.2840 H   0  0  0  0  0  0  0  0  0  0  0  0  # atno 10765 bound_to 10752
  140.6988  133.9008  155.8668 H   0  0  0  0  0  0  0  0  0  0  0  0  # atno 11005 bound_to 11000
  145.3700  141.0341  143.3236 LP  0  0  0  0  0  0  0  0  0  0  0  0  # atno 17320 bound_to 7965
  144.8544  139.5271  143.6841 LP  0  0  0  0  0  0  0  0  0  0  0  0  # atno 17321 bound_to 7965
  139.5988  144.1339  152.2175 LP  0  0  0  0  0  0  0  0  0  0  0  0  # atno 17342 bound_to 10162
  140.0717  144.5774  150.7187 LP  0  0  0  0  0  0  0  0  0  0  0  0  # atno 17343 bound_to 10162
  157.7089  130.9417  150.1023 LP  0  0  0  0  0  0  0  0  0  0  0  0  # atno 17370 bound_to 10713
  156.1966  130.3657  149.8842 LP  0  0  0  0  0  0  0  0  0  0  0  0  # atno 17371 bound_to 10713
  141.0181  134.0927  157.4150 LP  0  0  0  0  0  0  0  0  0  0  0  0  # atno 17394 bound_to 11000
  139.8902  135.0111  156.6726 LP  0  0  0  0  0  0  0  0  0  0  0  0  # atno 17395 bound_to 11000

$$$$
