AV-unprocessed.smi:337|AV-procd|sdf|2373|dock6
  -GOLD-   2262022293D 1   1.00000     0.00000
 Structure written by MMmdl.
 43 44  0  0  0  0  0  0  0  0  1 V2000
  148.2287  135.8177  155.8768 C   0  0  0  0  0  0  0  0  0  0  0  0
  149.4172  134.9859  155.3666 C   0  0  1  0  0  0  0  0  0  0  0  0
  149.0471  134.3964  154.0803 N   0  0  0  0  0  0  0  0  0  0  0  0
  148.8267  133.0899  153.8680 C   0  0  0  0  0  0  0  0  0  0  0  0
  148.5404  132.8236  152.5934 N   0  0  0  0  0  0  0  0  0  0  0  0
  148.8836  132.2226  154.7379 O   0  0  0  0  0  0  0  0  0  0  0  0
  150.6296  135.9130  155.1918 C   0  0  0  0  0  0  0  0  0  0  0  0
  151.6089  135.8088  155.9323 O   0  0  0  0  0  0  0  0  0  0  0  0
  150.5415  136.8261  154.2128 N   0  0  0  0  0  0  0  0  0  0  0  0
  151.5336  137.8637  153.9526 C   0  0  0  0  0  0  0  0  0  0  0  0
  151.6322  138.9051  155.0590 C   0  0  0  0  0  0  0  0  0  0  0  0
  150.7691  140.0198  155.1098 C   0  0  0  0  0  0  0  0  0  0  0  0
  150.9010  140.9394  156.1669 C   0  0  0  0  0  0  0  0  0  0  0  0
  151.8973  140.7248  157.1484 C   0  0  0  0  0  0  0  0  0  0  0  0
  152.0354  141.6282  158.2244 N   0  0  0  0  0  0  0  0  0  0  0  0
  152.1478  141.0755  159.5726 C   0  0  0  0  0  0  0  0  0  0  0  0
  152.5665  142.1716  160.5670 C   0  0  0  0  0  0  0  0  0  0  0  0
  151.6496  143.2585  160.4961 O   0  0  0  0  0  0  0  0  0  0  0  0
  151.6340  143.8534  159.2026 C   0  0  0  0  0  0  0  0  0  0  0  0
  151.1892  142.8171  158.1559 C   0  0  0  0  0  0  0  0  0  0  0  0
  152.7386  139.6629  157.0850 N   0  0  0  0  0  0  0  0  0  0  0  0
  152.6055  138.7824  156.0704 C   0  0  0  0  0  0  0  0  0  0  0  0
  148.4553  136.2823  156.8371 H   0  0  0  0  0  0  0  0  0  0  0  0
  147.3489  135.1899  156.0210 H   0  0  0  0  0  0  0  0  0  0  0  0
  147.9559  136.6111  155.1789 H   0  0  0  0  0  0  0  0  0  0  0  0
  149.6424  134.1945  156.0844 H   0  0  0  0  0  0  0  0  0  0  0  0
  148.9821  135.0264  153.2943 H   0  0  0  0  0  0  0  0  0  0  0  0
  148.3476  131.8765  152.3025 H   0  0  0  0  0  0  0  0  0  0  0  0
  148.5119  133.5774  151.9221 H   0  0  0  0  0  0  0  0  0  0  0  0
  149.7048  136.8388  153.6475 H   0  0  0  0  0  0  0  0  0  0  0  0
  152.5093  137.4055  153.7812 H   0  0  0  0  0  0  0  0  0  0  0  0
  151.2621  138.3715  153.0269 H   0  0  0  0  0  0  0  0  0  0  0  0
  150.0125  140.1741  154.3545 H   0  0  0  0  0  0  0  0  0  0  0  0
  150.2476  141.7980  156.2060 H   0  0  0  0  0  0  0  0  0  0  0  0
  151.1888  140.6492  159.8703 H   0  0  0  0  0  0  0  0  0  0  0  0
  152.8836  140.2704  159.5904 H   0  0  0  0  0  0  0  0  0  0  0  0
  152.5701  141.7753  161.5824 H   0  0  0  0  0  0  0  0  0  0  0  0
  153.5790  142.5212  160.3578 H   0  0  0  0  0  0  0  0  0  0  0  0
  150.9450  144.6981  159.2095 H   0  0  0  0  0  0  0  0  0  0  0  0
  152.6213  144.2507  158.9612 H   0  0  0  0  0  0  0  0  0  0  0  0
  151.2173  143.2769  157.1689 H   0  0  0  0  0  0  0  0  0  0  0  0
  150.1549  142.5223  158.3387 H   0  0  0  0  0  0  0  0  0  0  0  0
  153.2947  137.9505  156.0723 H   0  0  0  0  0  0  0  0  0  0  0  0
  1  2  1  0  0  0  0
  1 23  1  0  0  0  0
  1 24  1  0  0  0  0
  1 25  1  0  0  0  0
  2  3  1  0  0  0  0
  2  7  1  0  0  0  0
  2 26  1  0  0  0  0
  3  4  1  0  0  0  0
  3 27  1  0  0  0  0
  4  5  1  0  0  0  0
  4  6  2  0  0  0  0
  5 28  1  0  0  0  0
  5 29  1  0  0  0  0
  7  8  2  0  0  0  0
  7  9  1  0  0  0  0
  9 10  1  0  0  0  0
  9 30  1  0  0  0  0
 10 11  1  0  0  0  0
 10 31  1  0  0  0  0
 10 32  1  0  0  0  0
 11 22  1  0  0  0  0
 11 12  2  0  0  0  0
 12 13  1  0  0  0  0
 12 33  1  0  0  0  0
 13 14  2  0  0  0  0
 13 34  1  0  0  0  0
 14 15  1  0  0  0  0
 14 21  1  0  0  0  0
 15 20  1  0  0  0  0
 15 16  1  0  0  0  0
 16 17  1  0  0  0  0
 16 35  1  0  0  0  0
 16 36  1  0  0  0  0
 17 18  1  0  0  0  0
 17 37  1  0  0  0  0
 17 38  1  0  0  0  0
 18 19  1  0  0  0  0
 19 20  1  0  0  0  0
 19 39  1  0  0  0  0
 19 40  1  0  0  0  0
 20 41  1  0  0  0  0
 20 42  1  0  0  0  0
 21 22  2  0  0  0  0
 22 43  1  0  0  0  0
M  END
> <s_m_source_file>
AV-unprocessed.smi

> <i_m_source_file_index>
337

> <i_lp_mmshare_version>
43012

> <i_f3d_flags>
0

> <s_epik_input>
W05IMl1DKD1PKVtOSF1bQ0BASF0oW0NIM10pQyg9TylbTkhdW0NIMl1jMVtjSF1bY0hdYyhuW2NIXTEpTjJbQ0gyXVtDSDJdT1tDSDJdW0NIMl0y

> <s_epik_cmdline>
J2VwaWtfcHl0aG9uJywgJy1waCcsICc3LjAnLCAnLXRuJywgJzgnLCAnLW1hJywgJzIwMCcsICctbWV0YWxfYmluZGluZycsICctaW1hZScsICc8aW5maWxlLm1hZT4nLCAnLW9tYWUnLCAnPG91dGZpbGUubWFlPic=

> <r_lp_tautomer_probability>
1

> <r_epik_Ionization_Penalty>
0.0048357

> <r_epik_Ionization_Penalty_Charging>
0

> <r_epik_Ionization_Penalty_Neutral>
0.0048357

> <r_epik_State_Penalty>
0.0034696

> <r_epik_Charging_Adjusted_Penalty>
0.0034696

> <i_epik_Tot_Q>
0

> <i_epik_Tot_abs_Q>
0

> <r_epik_Metal_State_Penalty>
-0

> <b_epik_Metal_Only>
0

> <s_lp_Force_Field>
OPLS_2005

> <r_lp_Energy>
9.87941

> <b_lp_Chiralities_Consistent>
1

> <s_lp_Variant>
AV-unprocessed.smi:337-2

> <Gold.Version>
5.8.1

> <Gold.Id.Protein>
6NUR|6NUR_protein|mol2

> <Gold.PLP.Fitness>
50.3944

> <Gold.PLP.PLP>
-39.6126

> <Gold.PLP.part.hbond>
-6.3031

> <Gold.PLP.part.metal>
0.0000

> <Gold.PLP.part.buried>
-2.7671

> <Gold.PLP.part.nonpolar>
-30.1545

> <Gold.PLP.part.repulsive>
0.2038

> <Gold.PLP.ligand.clash>
0.0000

> <Gold.PLP.ligand.torsion>
0.7883

> <Gold.PLP.Chemscore.Hbond>
4.0071

> <Gold.PLP.Chemscore.CHOScore>
0.0000

> <Gold.PLP.Chemscore.Metal>
0.0000

> <Gold.Chemscore.Hbonds>
donor molecule, donor type, donor heavy atom, donor atom, acceptor molecule, acceptor atom, score
      L1  H     3    27       P1  7948  1.00
      L1  H     5    28       P1 10747  0.12
      L1  H     9    30       P1  7948  0.82
      P1  H  7997  8009       L1    21  0.95
      P1  H 10752 10764       L1     8  1.00

> <Gold.PLP.Chemscore.Internal.Correction>
0.3372

> <Gold.Rescore>
     Score         DG    S(hbond)    S(metal)    S(lipo)     H(rot)  DE(clash)    DE(int)     intcor
     16.75     -17.68       2.78        0.00      82.92       2.66       0.07       0.86       ----

> <Gold.Chemscore.Fitness>
16.7548

> <Gold.Chemscore.DG>
-17.6781

> <Gold.Chemscore.ZeroCoef>
-5.4800

> <Gold.Chemscore.Hbond>
2.7842

> <Gold.Chemscore.Metal>
0.0000

> <Gold.Chemscore.Lipo>
82.9183

> <Gold.Chemscore.Internal_Hbond>
0.0000

> <Gold.Chemscore.DEClash>
0.0667

> <Gold.Chemscore.DEInternal>
0.8567

> <Gold.Chemscore.Rot>
2.6573

> <Gold.Chemscore.Internal.Correction>
   9.000000E+99

> <Gold.Chemscore.Hbonds>
donor molecule, donor type, donor heavy atom, donor atom, acceptor molecule, acceptor atom, score
      L1  H     3    27       P1  7948  0.30
      L1  H     5    28       P1 10747  0.12
      L1  H     9    30       P1  7948  0.51
      P1  H  7997  8009       L1    21  0.19
      P1  H 10752 10764       L1     8  0.65

> <Gold.Chemscore.Hbond.Weighted>
-9.2994

> <Gold.Chemscore.Metal.Weighted>
-0.0000

> <Gold.Chemscore.Lipo.Weighted>
-9.7014

> <Gold.Chemscore.Internal_Hbond.Weighted>
0.0000

> <Gold.Chemscore.DEClash.Weighted>
0.0667

> <Gold.Chemscore.DEInternal.Weighted>
0.8567

> <Gold.Chemscore.Rot.Weighted>
6.8027

> <Gold.Chemscore.Internal.Correction.Weighted>
   9.000000E+99

> <Gold.Protein.RotatedTorsions>
[ 6907 6896 6895 6894 ] final   94.35 input  -60.11 | X-H torsion
[ 7974 7965 7964 7962 ] final  104.05 input  175.53 | X-H torsion
[ 8008 7997 7996 7995 ] final  161.11 input   59.86 | X-H torsion
[ 10167 10162 10161 10158 ] final   79.17 input  -65.29 | X-H torsion
[ 10718 10713 10712 10709 ] final   58.12 input   66.30 | X-H torsion
[ 10763 10752 10751 10750 ] final  -39.88 input  -60.55 | X-H torsion
[ 11005 11000 10999 10996 ] final -120.60 input  -57.11 | X-H torsion

> <Gold.Protein.ActiveResidues>
 VAL166  LYS551  ARG553  GLY616  TRP617  ASP618  TYR619  PRO620  LYS621  CYS622 
 ASP623  PHE694  ASN695  SER759  ASP760  ASP761  ALA762  ILE779  LEU786  VAL792 
 PHE793  MET794  SER795  GLU796  ALA797  LYS798  CYS799  TRP800  GLU811  SER814 

> <Gold.Protein.RotatedAtoms>
  152.5450  134.1207  159.8397 H   0  0  0  0  0  0  0  0  0  0  0  0  # atno 6907 bound_to 6896
  151.1263  133.5061  159.2608 H   0  0  0  0  0  0  0  0  0  0  0  0  # atno 6908 bound_to 6896
  151.1724  135.0333  159.8812 H   0  0  0  0  0  0  0  0  0  0  0  0  # atno 6909 bound_to 6896
  145.3379  139.2469  143.3625 H   0  0  0  0  0  0  0  0  0  0  0  0  # atno 7974 bound_to 7965
  156.2126  140.1786  156.7661 H   0  0  0  0  0  0  0  0  0  0  0  0  # atno 8008 bound_to 7997
  154.5744  140.0677  156.9042 H   0  0  0  0  0  0  0  0  0  0  0  0  # atno 8009 bound_to 7997
  155.2614  140.3336  155.4275 H   0  0  0  0  0  0  0  0  0  0  0  0  # atno 8010 bound_to 7997
  139.9632  144.5946  150.8053 H   0  0  0  0  0  0  0  0  0  0  0  0  # atno 10167 bound_to 10162
  157.5570  130.8808  149.9052 H   0  0  0  0  0  0  0  0  0  0  0  0  # atno 10718 bound_to 10713
  153.9367  135.6766  153.4745 H   0  0  0  0  0  0  0  0  0  0  0  0  # atno 10763 bound_to 10752
  153.0952  135.4855  154.8762 H   0  0  0  0  0  0  0  0  0  0  0  0  # atno 10764 bound_to 10752
  154.7399  135.3158  154.8704 H   0  0  0  0  0  0  0  0  0  0  0  0  # atno 10765 bound_to 10752
  141.0132  134.0234  157.3385 H   0  0  0  0  0  0  0  0  0  0  0  0  # atno 11005 bound_to 11000
  146.3019  140.3970  142.8701 LP  0  0  0  0  0  0  0  0  0  0  0  0  # atno 17320 bound_to 7965
  144.8813  140.7404  143.5985 LP  0  0  0  0  0  0  0  0  0  0  0  0  # atno 17321 bound_to 7965
  140.7546  143.3031  151.3030 LP  0  0  0  0  0  0  0  0  0  0  0  0  # atno 17342 bound_to 10162
  139.6538  144.0314  152.2645 LP  0  0  0  0  0  0  0  0  0  0  0  0  # atno 17343 bound_to 10162
  156.0628  130.3697  150.0944 LP  0  0  0  0  0  0  0  0  0  0  0  0  # atno 17370 bound_to 10713
  156.9112  130.9652  151.3562 LP  0  0  0  0  0  0  0  0  0  0  0  0  # atno 17371 bound_to 10713
  139.9102  135.0188  156.7657 LP  0  0  0  0  0  0  0  0  0  0  0  0  # atno 17394 bound_to 11000
  140.6699  133.9569  155.7851 LP  0  0  0  0  0  0  0  0  0  0  0  0  # atno 17395 bound_to 11000

$$$$
