AV-unprocessed.smi:2064|AV-procd|sdf|8416|dock5
  -GOLD-   2272011103D 1   1.00000     0.00000
 Structure written by MMmdl.
 46 48  0  0  0  0  0  0  0  0  1 V2000
  146.0071  137.8277  158.6605 N   0  0  0  0  0  0  0  0  0  0  0  0
  146.8945  138.2481  158.0480 C   0  0  0  0  0  0  0  0  0  0  0  0
  147.9755  138.7945  157.2963 C   0  0  0  0  0  0  0  0  0  0  0  0
  147.7719  139.6788  156.2981 C   0  0  0  0  0  0  0  0  0  0  0  0
  148.8042  140.2116  155.5574 N   0  0  0  0  0  0  0  0  0  0  0  0
  148.5779  141.2656  154.6091 C   0  0  0  0  0  0  0  0  0  0  0  0
  147.2208  141.9332  154.5647 C   0  0  0  0  0  0  0  0  0  0  0  0
  147.6574  141.0470  153.4239 C   0  0  0  0  0  0  0  0  0  0  0  0
  150.1432  139.9000  155.8800 C   0  0  0  0  0  0  0  0  0  0  0  0
  151.0843  140.4436  155.2961 O   0  0  0  0  0  0  0  0  0  0  0  0
  150.3740  138.9508  156.9051 N   0  0  0  0  0  0  0  0  0  0  0  0
  151.7711  138.5923  157.2342 C   0  0  0  0  0  0  0  0  0  0  0  0
  152.5329  139.7007  157.9770 C   0  0  0  0  0  0  0  0  0  0  0  0
  153.6849  139.5234  158.3761 O   0  0  0  0  0  0  0  0  0  0  0  0
  151.8626  140.8499  158.1523 N   0  0  0  0  0  0  0  0  0  0  0  0
  152.3752  142.0412  158.8253 C   0  0  0  0  0  0  0  0  0  0  0  0
  152.4921  141.7584  160.3376 C   0  0  0  0  0  0  0  0  0  0  0  0
  152.9760  142.9431  161.1916 C   0  0  0  0  0  0  0  0  0  0  0  0
  151.8950  144.0186  161.3851 C   0  0  0  0  0  0  0  0  0  0  0  0
  151.8171  145.0826  160.2768 C   0  0  0  0  0  0  0  0  0  0  0  0
  152.0801  144.5981  158.8402 C   0  0  0  0  0  0  0  0  0  0  0  0
  151.4643  143.2368  158.4752 C   0  0  0  0  0  0  0  0  0  0  0  0
  149.3240  138.3614  157.6548 C   0  0  0  0  0  0  0  0  0  0  0  0
  149.5612  137.5503  158.5516 O   0  0  0  0  0  0  0  0  0  0  0  0
  146.7605  139.9794  156.0650 H   0  0  0  0  0  0  0  0  0  0  0  0
  149.4310  141.9178  154.4301 H   0  0  0  0  0  0  0  0  0  0  0  0
  146.4390  141.5519  155.2190 H   0  0  0  0  0  0  0  0  0  0  0  0
  147.1962  143.0064  154.3871 H   0  0  0  0  0  0  0  0  0  0  0  0
  147.9251  141.5292  152.4860 H   0  0  0  0  0  0  0  0  0  0  0  0
  147.1618  140.0829  153.3266 H   0  0  0  0  0  0  0  0  0  0  0  0
  151.8136  137.6841  157.8372 H   0  0  0  0  0  0  0  0  0  0  0  0
  152.3249  138.3335  156.3300 H   0  0  0  0  0  0  0  0  0  0  0  0
  150.9209  140.9049  157.7922 H   0  0  0  0  0  0  0  0  0  0  0  0
  153.3715  142.2534  158.4325 H   0  0  0  0  0  0  0  0  0  0  0  0
  151.5369  141.3987  160.7231 H   0  0  0  0  0  0  0  0  0  0  0  0
  153.1921  140.9341  160.4810 H   0  0  0  0  0  0  0  0  0  0  0  0
  153.2373  142.5522  162.1754 H   0  0  0  0  0  0  0  0  0  0  0  0
  153.8941  143.3724  160.7891 H   0  0  0  0  0  0  0  0  0  0  0  0
  150.9225  143.5379  161.4984 H   0  0  0  0  0  0  0  0  0  0  0  0
  152.0710  144.5328  162.3306 H   0  0  0  0  0  0  0  0  0  0  0  0
  150.8329  145.5503  160.3231 H   0  0  0  0  0  0  0  0  0  0  0  0
  152.5279  145.8795  160.4985 H   0  0  0  0  0  0  0  0  0  0  0  0
  151.6906  145.3552  158.1588 H   0  0  0  0  0  0  0  0  0  0  0  0
  153.1542  144.5735  158.6523 H   0  0  0  0  0  0  0  0  0  0  0  0
  151.3019  143.2334  157.3963 H   0  0  0  0  0  0  0  0  0  0  0  0
  150.4764  143.1245  158.9241 H   0  0  0  0  0  0  0  0  0  0  0  0
  1  2  3  0  0  0  0
  2  3  1  0  0  0  0
  3 23  1  0  0  0  0
  3  4  2  0  0  0  0
  4  5  1  0  0  0  0
  4 25  1  0  0  0  0
  5  6  1  0  0  0  0
  5  9  1  0  0  0  0
  6  8  1  0  0  0  0
  6  7  1  0  0  0  0
  6 26  1  0  0  0  0
  7  8  1  0  0  0  0
  7 27  1  0  0  0  0
  7 28  1  0  0  0  0
  8 29  1  0  0  0  0
  8 30  1  0  0  0  0
  9 10  2  0  0  0  0
  9 11  1  0  0  0  0
 11 12  1  0  0  0  0
 11 23  1  0  0  0  0
 12 13  1  0  0  0  0
 12 31  1  0  0  0  0
 12 32  1  0  0  0  0
 13 14  2  0  0  0  0
 13 15  1  0  0  0  0
 15 16  1  0  0  0  0
 15 33  1  0  0  0  0
 16 22  1  0  0  0  0
 16 17  1  0  0  0  0
 16 34  1  0  0  0  0
 17 18  1  0  0  0  0
 17 35  1  0  0  0  0
 17 36  1  0  0  0  0
 18 19  1  0  0  0  0
 18 37  1  0  0  0  0
 18 38  1  0  0  0  0
 19 20  1  0  0  0  0
 19 39  1  0  0  0  0
 19 40  1  0  0  0  0
 20 21  1  0  0  0  0
 20 41  1  0  0  0  0
 20 42  1  0  0  0  0
 21 22  1  0  0  0  0
 21 43  1  0  0  0  0
 21 44  1  0  0  0  0
 22 45  1  0  0  0  0
 22 46  1  0  0  0  0
 23 24  2  0  0  0  0
M  END
> <s_m_source_file>
AV-unprocessed.smi

> <i_m_source_file_index>
2064

> <i_lp_mmshare_version>
43012

> <i_f3d_flags>
0

> <s_epik_input>
TiNDYzFbY0hdbihbQ0hdMltDSDJdW0NIMl0yKWMoPU8pbihjMT1PKVtDSDJdQyg9TylbTkhdW0NIXTNbQ0gyXVtDSDJdW0NIMl1bQ0gyXVtDSDJdW0NIMl0z

> <s_epik_cmdline>
J2VwaWtfcHl0aG9uJywgJy1waCcsICc3LjAnLCAnLXRuJywgJzgnLCAnLW1hJywgJzIwMCcsICctbWV0YWxfYmluZGluZycsICctaW1hZScsICc8aW5maWxlLm1hZT4nLCAnLW9tYWUnLCAnPG91dGZpbGUubWFlPic=

> <r_lp_tautomer_probability>
1

> <r_epik_Ionization_Penalty>
2.03018e-08

> <r_epik_Ionization_Penalty_Charging>
8.701e-11

> <r_epik_Ionization_Penalty_Neutral>
2.02148e-08

> <r_epik_State_Penalty>
-0

> <r_epik_Charging_Adjusted_Penalty>
8.701e-11

> <i_epik_Tot_Q>
0

> <i_epik_Tot_abs_Q>
0

> <r_epik_Metal_State_Penalty>
-0

> <b_epik_Metal_Only>
0

> <s_lp_Force_Field>
OPLS_2005

> <r_lp_Energy>
40.6124

> <b_lp_Chiralities_Consistent>
1

> <s_lp_Variant>
AV-unprocessed.smi:2064-1

> <Gold.Version>
5.8.1

> <Gold.Id.Protein>
6NUR|6NUR_protein|mol2

> <Gold.PLP.Fitness>
47.7157

> <Gold.PLP.PLP>
-42.5896

> <Gold.PLP.part.hbond>
-2.0000

> <Gold.PLP.part.metal>
0.0000

> <Gold.PLP.part.buried>
-5.9959

> <Gold.PLP.part.nonpolar>
-34.9301

> <Gold.PLP.part.repulsive>
0.1269

> <Gold.PLP.ligand.clash>
0.0000

> <Gold.PLP.ligand.torsion>
0.5358

> <Gold.PLP.Chemscore.Hbond>
1.9920

> <Gold.PLP.Chemscore.CHOScore>
0.0000

> <Gold.PLP.Chemscore.Metal>
0.0000

> <Gold.Chemscore.Hbonds>
donor molecule, donor type, donor heavy atom, donor atom, acceptor molecule, acceptor atom, score
      P1  H  7989  7998       L1    10  0.98
      P1  H  7997  8008       L1    14  1.00

> <Gold.PLP.Chemscore.Internal.Correction>
0.2217

> <Gold.Rescore>
     Score         DG    S(hbond)    S(metal)    S(lipo)     H(rot)  DE(clash)    DE(int)     intcor
     19.32     -19.88       1.95        0.00     104.57       1.70       0.00       0.55       ----

> <Gold.Chemscore.Fitness>
19.3209

> <Gold.Chemscore.DG>
-19.8773

> <Gold.Chemscore.ZeroCoef>
-5.4800

> <Gold.Chemscore.Hbond>
1.9534

> <Gold.Chemscore.Metal>
0.0000

> <Gold.Chemscore.Lipo>
104.5708

> <Gold.Chemscore.Internal_Hbond>
0.0000

> <Gold.Chemscore.DEClash>
0.0015

> <Gold.Chemscore.DEInternal>
0.5549

> <Gold.Chemscore.Rot>
1.7038

> <Gold.Chemscore.Internal.Correction>
   9.000000E+99

> <Gold.Chemscore.Hbonds>
donor molecule, donor type, donor heavy atom, donor atom, acceptor molecule, acceptor atom, score
      P1  H  7989  7998       L1    10  0.93
      P1  H  7997  8008       L1    14  0.60

> <Gold.Chemscore.Hbond.Weighted>
-6.5242

> <Gold.Chemscore.Metal.Weighted>
-0.0000

> <Gold.Chemscore.Lipo.Weighted>
-12.2348

> <Gold.Chemscore.Internal_Hbond.Weighted>
0.0000

> <Gold.Chemscore.DEClash.Weighted>
0.0015

> <Gold.Chemscore.DEInternal.Weighted>
0.5549

> <Gold.Chemscore.Rot.Weighted>
4.3618

> <Gold.Chemscore.Internal.Correction.Weighted>
   9.000000E+99

> <Gold.Protein.RotatedTorsions>
[ 6907 6896 6895 6894 ] final -173.89 input  -60.11 | X-H torsion
[ 7974 7965 7964 7962 ] final -148.33 input  175.53 | X-H torsion
[ 8008 7997 7996 7995 ] final  -94.20 input   59.86 | X-H torsion
[ 10167 10162 10161 10158 ] final -106.93 input  -65.29 | X-H torsion
[ 10718 10713 10712 10709 ] final   33.80 input   66.30 | X-H torsion
[ 10763 10752 10751 10750 ] final -108.89 input  -60.55 | X-H torsion
[ 11005 11000 10999 10996 ] final   62.11 input  -57.11 | X-H torsion

> <Gold.Protein.ActiveResidues>
 VAL166  LYS551  ARG553  GLY616  TRP617  ASP618  TYR619  PRO620  LYS621  CYS622 
 ASP623  PHE694  ASN695  SER759  ASP760  ASP761  ALA762  ILE779  LEU786  VAL792 
 PHE793  MET794  SER795  GLU796  ALA797  LYS798  CYS799  TRP800  GLU811  SER814 

> <Gold.Protein.RotatedAtoms>
  151.5636  133.3400  159.2975 H   0  0  0  0  0  0  0  0  0  0  0  0  # atno 6907 bound_to 6896
  150.8408  134.7702  159.6942 H   0  0  0  0  0  0  0  0  0  0  0  0  # atno 6908 bound_to 6896
  152.4476  134.5469  159.9907 H   0  0  0  0  0  0  0  0  0  0  0  0  # atno 6909 bound_to 6896
  144.8036  140.5210  143.5690 H   0  0  0  0  0  0  0  0  0  0  0  0  # atno 7974 bound_to 7965
  154.7454  140.0491  157.0848 H   0  0  0  0  0  0  0  0  0  0  0  0  # atno 8008 bound_to 7997
  155.0124  140.3137  155.4805 H   0  0  0  0  0  0  0  0  0  0  0  0  # atno 8009 bound_to 7997
  156.2874  140.2182  156.5239 H   0  0  0  0  0  0  0  0  0  0  0  0  # atno 8010 bound_to 7997
  140.1825  143.3956  152.1270 H   0  0  0  0  0  0  0  0  0  0  0  0  # atno 10167 bound_to 10162
  157.3024  130.7357  149.6675 H   0  0  0  0  0  0  0  0  0  0  0  0  # atno 10718 bound_to 10713
  154.8162  135.4621  154.0649 H   0  0  0  0  0  0  0  0  0  0  0  0  # atno 10763 bound_to 10752
  153.2040  135.6873  153.8202 H   0  0  0  0  0  0  0  0  0  0  0  0  # atno 10764 bound_to 10752
  153.7676  135.3275  155.3324 H   0  0  0  0  0  0  0  0  0  0  0  0  # atno 10765 bound_to 10752
  140.0114  134.6290  155.9774 H   0  0  0  0  0  0  0  0  0  0  0  0  # atno 11005 bound_to 11000
  145.5493  139.1476  143.3403 LP  0  0  0  0  0  0  0  0  0  0  0  0  # atno 17320 bound_to 7965
  146.2323  140.5631  142.8970 LP  0  0  0  0  0  0  0  0  0  0  0  0  # atno 17321 bound_to 7965
  139.5290  144.7137  151.5124 LP  0  0  0  0  0  0  0  0  0  0  0  0  # atno 17342 bound_to 10162
  140.6510  143.8696  150.6786 LP  0  0  0  0  0  0  0  0  0  0  0  0  # atno 17343 bound_to 10162
  155.9672  130.4276  150.4750 LP  0  0  0  0  0  0  0  0  0  0  0  0  # atno 17370 bound_to 10713
  157.2733  131.0592  151.2245 LP  0  0  0  0  0  0  0  0  0  0  0  0  # atno 17371 bound_to 10713
  141.1714  133.6537  156.4664 LP  0  0  0  0  0  0  0  0  0  0  0  0  # atno 17394 bound_to 11000
  140.4547  134.6896  157.5056 LP  0  0  0  0  0  0  0  0  0  0  0  0  # atno 17395 bound_to 11000

$$$$
