AV-unprocessed.smi:1|AV-procd|sdf|20|dock7
  -GOLD-   2262015123D 1   1.00000     0.00000
 Structure written by MMmdl.
 56 61  0  0  0  0  0  0  0  0  2 V2000
  153.0892  140.6607  158.2026 O   0  0  0  0  0  0  0  0  0  0  0  0
  152.2311  141.5081  157.9458 C   0  0  0  0  0  0  0  0  0  0  0  0
  151.4032  141.5557  156.8714 N   0  5  0  0  0  0  0  0  0  0  0  0
  151.0017  140.4147  156.2900 C   0  0  0  0  0  0  0  0  0  0  0  0
  150.5531  140.4187  155.0089 N   0  0  0  0  0  0  0  0  0  0  0  0
  150.1592  139.2803  154.4273 C   0  0  0  0  0  0  0  0  0  0  0  0
  150.1304  138.0444  154.9347 N   0  0  0  0  0  0  0  0  0  0  0  0
  150.5670  138.0265  156.2275 C   0  0  0  0  0  0  0  0  0  0  0  0
  151.0085  139.1634  156.9660 C   0  0  0  0  0  0  0  0  0  0  0  0
  151.3793  138.8016  158.2520 N   0  0  0  0  0  0  0  0  0  0  0  0
  151.1569  137.4897  158.2363 C   0  0  0  0  0  0  0  0  0  0  0  0
  150.6917  136.9495  157.0922 N   0  0  0  0  0  0  0  0  0  0  0  0
  150.3699  135.5104  156.8453 C   0  0  1  0  0  0  0  0  0  0  0  0
  148.9830  135.3514  156.7913 O   0  0  0  0  0  0  0  0  0  0  0  0
  148.5762  134.9201  155.4953 C   0  0  2  0  0  0  0  0  0  0  0  0
  147.3094  134.0610  155.5734 C   0  0  0  0  0  0  0  0  0  0  0  0
  147.0523  133.5133  154.2913 O   0  0  0  0  0  0  0  0  0  0  0  0
  146.5065  134.2755  153.3255 C   0  0  0  0  0  0  0  0  0  0  0  0
  146.3399  135.4925  153.4292 O   0  0  0  0  0  0  0  0  0  0  0  0
  146.1239  133.4904  152.1166 C   0  0  0  0  0  0  0  0  0  0  0  0
  146.5443  132.1448  152.0019 C   0  0  0  0  0  0  0  0  0  0  0  0
  146.1963  131.3784  150.8727 C   0  0  0  0  0  0  0  0  0  0  0  0
  145.4237  131.9481  149.8442 C   0  0  0  0  0  0  0  0  0  0  0  0
  144.9998  133.2858  149.9459 C   0  0  0  0  0  0  0  0  0  0  0  0
  145.3466  134.0540  151.0745 C   0  0  0  0  0  0  0  0  0  0  0  0
  149.8029  134.1975  154.9426 C   0  0  2  0  0  0  0  0  0  0  0  0
  149.8971  132.8760  155.4489 O   0  0  0  0  0  0  0  0  0  0  0  0
  151.4865  132.5882  155.8759 S   0  0  0  0  0  0  0  0  0  0  0  0
  151.5189  132.2027  157.2949 O   0  0  0  0  0  0  0  0  0  0  0  0
  152.1098  131.7776  154.8188 O   0  0  0  0  0  0  0  0  0  0  0  0
  152.0622  134.1515  155.7423 O   0  0  0  0  0  0  0  0  0  0  0  0
  150.9628  135.0158  155.5169 C   0  0  2  0  0  0  0  0  0  0  0  0
  152.0795  142.6888  158.8670 C   0  0  0  0  0  0  0  0  0  0  0  0
  152.4214  142.5599  160.2325 C   0  0  0  0  0  0  0  0  0  0  0  0
  152.2609  143.6445  161.1167 C   0  0  0  0  0  0  0  0  0  0  0  0
  151.7468  144.8675  160.6466 C   0  0  0  0  0  0  0  0  0  0  0  0
  151.3903  145.0037  159.2919 C   0  0  0  0  0  0  0  0  0  0  0  0
  151.5511  143.9197  158.4069 C   0  0  0  0  0  0  0  0  0  0  0  0
  149.8210  139.3727  153.4060 H   0  0  0  0  0  0  0  0  0  0  0  0
  151.3488  136.8839  159.1095 H   0  0  0  0  0  0  0  0  0  0  0  0
  150.7586  134.9822  157.7171 H   0  0  0  0  0  0  0  0  0  0  0  0
  148.3838  135.7943  154.8739 H   0  0  0  0  0  0  0  0  0  0  0  0
  147.4574  133.2464  156.2835 H   0  0  0  0  0  0  0  0  0  0  0  0
  146.4605  134.6529  155.9187 H   0  0  0  0  0  0  0  0  0  0  0  0
  147.1377  131.6859  152.7793 H   0  0  0  0  0  0  0  0  0  0  0  0
  146.5231  130.3519  150.7963 H   0  0  0  0  0  0  0  0  0  0  0  0
  145.1569  131.3599  148.9785 H   0  0  0  0  0  0  0  0  0  0  0  0
  144.4061  133.7249  149.1577 H   0  0  0  0  0  0  0  0  0  0  0  0
  145.0036  135.0772  151.1211 H   0  0  0  0  0  0  0  0  0  0  0  0
  149.8137  134.1645  153.8527 H   0  0  0  0  0  0  0  0  0  0  0  0
  151.2257  135.8490  154.8644 H   0  0  0  0  0  0  0  0  0  0  0  0
  152.8150  141.6270  160.6097 H   0  0  0  0  0  0  0  0  0  0  0  0
  152.5310  143.5366  162.1567 H   0  0  0  0  0  0  0  0  0  0  0  0
  151.6226  145.6986  161.3245 H   0  0  0  0  0  0  0  0  0  0  0  0
  150.9892  145.9391  158.9306 H   0  0  0  0  0  0  0  0  0  0  0  0
  151.2607  144.0415  157.3733 H   0  0  0  0  0  0  0  0  0  0  0  0
  1  2  2  0  0  0  0
  2  3  1  0  0  0  0
  2 33  1  0  0  0  0
  3  4  1  0  0  0  0
  4  9  1  0  0  0  0
  4  5  2  0  0  0  0
  5  6  1  0  0  0  0
  6  7  2  0  0  0  0
  6 39  1  0  0  0  0
  7  8  1  0  0  0  0
  8 12  1  0  0  0  0
  8  9  2  0  0  0  0
  9 10  1  0  0  0  0
 10 11  2  0  0  0  0
 11 12  1  0  0  0  0
 11 40  1  0  0  0  0
 12 13  1  0  0  0  0
 13 32  1  0  0  0  0
 13 14  1  0  0  0  0
 13 41  1  0  0  0  0
 14 15  1  0  0  0  0
 15 16  1  0  0  0  0
 15 26  1  0  0  0  0
 15 42  1  0  0  0  0
 16 17  1  0  0  0  0
 16 43  1  0  0  0  0
 16 44  1  0  0  0  0
 17 18  1  0  0  0  0
 18 19  2  0  0  0  0
 18 20  1  0  0  0  0
 20 25  1  0  0  0  0
 20 21  2  0  0  0  0
 21 22  1  0  0  0  0
 21 45  1  0  0  0  0
 22 23  2  0  0  0  0
 22 46  1  0  0  0  0
 23 24  1  0  0  0  0
 23 47  1  0  0  0  0
 24 25  2  0  0  0  0
 24 48  1  0  0  0  0
 25 49  1  0  0  0  0
 26 32  1  0  0  0  0
 26 27  1  0  0  0  0
 26 50  1  0  0  0  0
 27 28  1  0  0  0  0
 28 29  2  0  0  0  0
 28 30  2  0  0  0  0
 28 31  1  0  0  0  0
 31 32  1  0  0  0  0
 32 51  1  0  0  0  0
 33 38  1  0  0  0  0
 33 34  2  0  0  0  0
 34 35  1  0  0  0  0
 34 52  1  0  0  0  0
 35 36  2  0  0  0  0
 35 53  1  0  0  0  0
 36 37  1  0  0  0  0
 36 54  1  0  0  0  0
 37 38  2  0  0  0  0
 37 55  1  0  0  0  0
 38 56  1  0  0  0  0
M  CHG  1   3  -1
M  END
> <s_m_source_file>
AV-unprocessed.smi

> <i_m_source_file_index>
1

> <i_lp_mmshare_version>
43012

> <i_f3d_flags>
0

> <s_epik_input>
W2NIXTFbY0hdW2NIXVtjSF1bY0hdYzFDKD1PKVtOSF1jKG5bY0hdbjIpYyhjMjMpbltjSF1uM1tDQEBIXShbQ0BIXShbQ0BIXTQ1KU9TKE81KSg9Tyk9TylPW0NASF00W0NIMl1PQyg9TyljNltjSF1bY0hdW2NIXVtjSF1bY0hdNg==

> <s_epik_cmdline>
J2VwaWtfcHl0aG9uJywgJy1waCcsICc3LjAnLCAnLXRuJywgJzgnLCAnLW1hJywgJzIwMCcsICctbWV0YWxfYmluZGluZycsICctaW1hZScsICc8aW5maWxlLm1hZT4nLCAnLW9tYWUnLCAnPG91dGZpbGUubWFlPic=

> <r_lp_tautomer_probability>
1

> <r_epik_Ionization_Penalty>
4.39121

> <r_epik_Ionization_Penalty_Charging>
3.39398

> <r_epik_Ionization_Penalty_Neutral>
0.997232

> <r_epik_State_Penalty>
3.39839

> <r_epik_Charging_Adjusted_Penalty>
6.79237

> <i_epik_Tot_Q>
-1

> <i_epik_Tot_abs_Q>
1

> <r_epik_Metal_State_Penalty>
0.497663

> <b_epik_Metal_Only>
1

> <s_epik_Chemistry_Notes>
This compound has an ester and may undergo hydrolysis at high or low pH. This compound contains an acetal/aminal-like group ( X-CH(R)-Y where X, Y are N, S, or O) that may be acid/base labile, releasing an aldehyde.

> <s_lp_Force_Field>
OPLS_2005

> <r_lp_Energy>
42.8802

> <b_lp_Chiralities_Consistent>
1

> <s_lp_Variant>
AV-unprocessed.smi:1-20

> <Gold.Version>
5.8.1

> <Gold.Id.Protein>
6NUR|6NUR_protein|mol2

> <Gold.PLP.Fitness>
64.3077

> <Gold.PLP.PLP>
-54.1876

> <Gold.PLP.part.hbond>
-3.0000

> <Gold.PLP.part.metal>
0.0000

> <Gold.PLP.part.buried>
-7.3477

> <Gold.PLP.part.nonpolar>
-42.4385

> <Gold.PLP.part.repulsive>
0.3689

> <Gold.PLP.ligand.clash>
0.0000

> <Gold.PLP.ligand.torsion>
1.0449

> <Gold.PLP.Chemscore.Hbond>
2.8580

> <Gold.PLP.Chemscore.CHOScore>
1.0000

> <Gold.PLP.Chemscore.Metal>
0.0000

> <Gold.Chemscore.Hbonds>
donor molecule, donor type, donor heavy atom, donor atom, acceptor molecule, acceptor atom, score
      P1  H  6896  6907       L1    29  0.29
      P1  H  7989  7998       L1     5  0.60
      P1  H  7997  8009       L1     1  0.72
      L1  C     6    39       P1  7957  1.00

> <Gold.PLP.Chemscore.Internal.Correction>
0.6358

> <Gold.Rescore>
     Score         DG    S(hbond)    S(metal)    S(lipo)     H(rot)  DE(clash)    DE(int)     intcor
     17.26     -22.67       2.41        0.00     124.28       2.11       0.26       5.15       ----

> <Gold.Chemscore.Fitness>
17.2573

> <Gold.Chemscore.DG>
-22.6719

> <Gold.Chemscore.ZeroCoef>
-5.4800

> <Gold.Chemscore.Hbond>
2.4137

> <Gold.Chemscore.Metal>
0.0000

> <Gold.Chemscore.Lipo>
124.2808

> <Gold.Chemscore.Internal_Hbond>
0.0000

> <Gold.Chemscore.DEClash>
0.2646

> <Gold.Chemscore.DEInternal>
5.1500

> <Gold.Chemscore.Rot>
2.1136

> <Gold.Chemscore.Internal.Correction>
   9.000000E+99

> <Gold.Chemscore.Hbonds>
donor molecule, donor type, donor heavy atom, donor atom, acceptor molecule, acceptor atom, score
      P1  H  6896  6907       L1    29  0.29
      P1  H  7989  7998       L1     5  0.04
      P1  H  7997  8009       L1     1  0.69

> <Gold.Chemscore.Hbond.Weighted>
-8.0618

> <Gold.Chemscore.Metal.Weighted>
-0.0000

> <Gold.Chemscore.Lipo.Weighted>
-14.5409

> <Gold.Chemscore.Internal_Hbond.Weighted>
0.0000

> <Gold.Chemscore.DEClash.Weighted>
0.2646

> <Gold.Chemscore.DEInternal.Weighted>
5.1500

> <Gold.Chemscore.Rot.Weighted>
5.4107

> <Gold.Chemscore.Internal.Correction.Weighted>
   9.000000E+99

> <Gold.Protein.RotatedTorsions>
[ 6907 6896 6895 6894 ] final -147.23 input  -60.11 | X-H torsion
[ 7974 7965 7964 7962 ] final  -96.02 input  175.53 | X-H torsion
[ 8008 7997 7996 7995 ] final  156.47 input   59.86 | X-H torsion
[ 10167 10162 10161 10158 ] final  -80.62 input  -65.29 | X-H torsion
[ 10718 10713 10712 10709 ] final  -40.20 input   66.30 | X-H torsion
[ 10763 10752 10751 10750 ] final  -47.52 input  -60.55 | X-H torsion
[ 11005 11000 10999 10996 ] final   82.75 input  -57.11 | X-H torsion

> <Gold.Protein.ActiveResidues>
 VAL166  LYS551  ARG553  GLY616  TRP617  ASP618  TYR619  PRO620  LYS621  CYS622 
 ASP623  PHE694  ASN695  SER759  ASP760  ASP761  ALA762  ILE779  LEU786  VAL792 
 PHE793  MET794  SER795  GLU796  ALA797  LYS798  CYS799  TRP800  GLU811  SER814 

> <Gold.Protein.RotatedAtoms>
  151.1527  133.4896  159.2594 H   0  0  0  0  0  0  0  0  0  0  0  0  # atno 6907 bound_to 6896
  151.1537  135.0239  159.8689 H   0  0  0  0  0  0  0  0  0  0  0  0  # atno 6908 bound_to 6896
  152.5463  134.1408  159.8531 H   0  0  0  0  0  0  0  0  0  0  0  0  # atno 6909 bound_to 6896
  145.3524  140.9478  143.2547 H   0  0  0  0  0  0  0  0  0  0  0  0  # atno 7974 bound_to 7965
  156.2421  140.1911  156.6960 H   0  0  0  0  0  0  0  0  0  0  0  0  # atno 8008 bound_to 7997
  154.6217  140.0607  156.9649 H   0  0  0  0  0  0  0  0  0  0  0  0  # atno 8009 bound_to 7997
  155.1851  140.3279  155.4371 H   0  0  0  0  0  0  0  0  0  0  0  0  # atno 8010 bound_to 7997
  140.4486  143.2490  151.8522 H   0  0  0  0  0  0  0  0  0  0  0  0  # atno 10167 bound_to 10162
  156.2839  130.4220  149.8308 H   0  0  0  0  0  0  0  0  0  0  0  0  # atno 10718 bound_to 10713
  154.0628  135.6615  153.4814 H   0  0  0  0  0  0  0  0  0  0  0  0  # atno 10763 bound_to 10752
  153.0420  135.5139  154.7643 H   0  0  0  0  0  0  0  0  0  0  0  0  # atno 10764 bound_to 10752
  154.6684  135.3025  154.9741 H   0  0  0  0  0  0  0  0  0  0  0  0  # atno 10765 bound_to 10752
  139.9053  134.8094  156.2216 H   0  0  0  0  0  0  0  0  0  0  0  0  # atno 11005 bound_to 11000
  144.8708  139.5041  143.6769 LP  0  0  0  0  0  0  0  0  0  0  0  0  # atno 17320 bound_to 7965
  146.2962  139.7286  142.9125 LP  0  0  0  0  0  0  0  0  0  0  0  0  # atno 17321 bound_to 7965
  139.4795  144.5146  151.8885 LP  0  0  0  0  0  0  0  0  0  0  0  0  # atno 17342 bound_to 10162
  140.4234  144.2213  150.5887 LP  0  0  0  0  0  0  0  0  0  0  0  0  # atno 17343 bound_to 10162
  156.5745  130.8439  151.3366 LP  0  0  0  0  0  0  0  0  0  0  0  0  # atno 17370 bound_to 10713
  157.7323  130.9713  150.1920 LP  0  0  0  0  0  0  0  0  0  0  0  0  # atno 17371 bound_to 10713
  141.0402  133.6942  156.1584 LP  0  0  0  0  0  0  0  0  0  0  0  0  # atno 17394 bound_to 11000
  140.6967  134.4608  157.5587 LP  0  0  0  0  0  0  0  0  0  0  0  0  # atno 17395 bound_to 11000

$$$$
