AV-unprocessed.smi:2735|AV-procd|sdf|10544|dock7
  -GOLD-   2272014593D 1   1.00000     0.00000
 Structure written by MMmdl.
 42 42  0  0  0  0  0  0  0  0  2 V2000
  153.2335  141.1515  160.6596 C   0  0  0  0  0  0  0  0  0  0  0  0
  152.2771  140.8041  159.5575 C   0  0  0  0  0  0  0  0  0  0  0  0
  151.4225  141.6719  158.8245 C   0  0  0  0  0  0  0  0  0  0  0  0
  150.7659  140.8459  157.9561 C   0  0  0  0  0  0  0  0  0  0  0  0
  149.7221  141.1725  156.9378 C   0  0  0  0  0  0  0  0  0  0  0  0
  151.2441  139.5625  158.1736 N   0  0  0  0  0  0  0  0  0  0  0  0
  150.8337  138.3103  157.5373 C   0  0  1  0  0  0  0  0  0  0  0  0
  152.0026  137.5757  156.8476 C   0  0  0  0  0  0  0  0  0  0  0  0
  150.1104  137.4146  158.5539 C   0  0  0  0  0  0  0  0  0  0  0  0
  150.6939  137.0118  159.5608 O   0  0  0  0  0  0  0  0  0  0  0  0
  148.8327  137.1175  158.2704 N   0  0  0  0  0  0  0  0  0  0  0  0
  147.9132  136.3309  159.0901 C   0  0  2  0  0  0  0  0  0  0  0  0
  148.1883  136.5370  160.5990 C   0  0  0  0  0  0  0  0  0  0  0  0
  147.1026  136.0142  161.5674 C   0  0  0  0  0  0  0  0  0  0  0  0
  147.2734  136.6448  162.9579 C   0  0  0  0  0  0  0  0  0  0  0  0
  147.1017  134.4798  161.6761 C   0  0  0  0  0  0  0  0  0  0  0  0
  148.0075  134.8586  158.6734 C   0  0  0  0  0  0  0  0  0  0  0  0
  149.1319  134.3126  158.7416 O   0  0  0  0  0  0  0  0  0  0  0  0
  146.9546  134.3006  158.2942 O   0  5  0  0  0  0  0  0  0  0  0  0
  152.1594  139.5456  159.1714 N   0  0  0  0  0  0  0  0  0  0  0  0
  146.8890  136.6389  158.8753 H   0  0  0  0  0  0  0  0  0  0  0  0
  153.2307  142.2231  160.8603 H   0  0  0  0  0  0  0  0  0  0  0  0
  154.2528  140.8652  160.3997 H   0  0  0  0  0  0  0  0  0  0  0  0
  152.9681  140.6399  161.5851 H   0  0  0  0  0  0  0  0  0  0  0  0
  151.3019  142.7402  158.9272 H   0  0  0  0  0  0  0  0  0  0  0  0
  149.5549  142.2486  156.8846 H   0  0  0  0  0  0  0  0  0  0  0  0
  148.7710  140.7028  157.1879 H   0  0  0  0  0  0  0  0  0  0  0  0
  150.0217  140.8336  155.9462 H   0  0  0  0  0  0  0  0  0  0  0  0
  150.1221  138.5637  156.7507 H   0  0  0  0  0  0  0  0  0  0  0  0
  151.6504  136.6826  156.3305 H   0  0  0  0  0  0  0  0  0  0  0  0
  152.7707  137.2619  157.5559 H   0  0  0  0  0  0  0  0  0  0  0  0
  152.4788  138.2159  156.1047 H   0  0  0  0  0  0  0  0  0  0  0  0
  148.4392  137.5035  157.4243 H   0  0  0  0  0  0  0  0  0  0  0  0
  149.1382  136.0664  160.8579 H   0  0  0  0  0  0  0  0  0  0  0  0
  148.3350  137.6037  160.7766 H   0  0  0  0  0  0  0  0  0  0  0  0
  146.1253  136.3267  161.2006 H   0  0  0  0  0  0  0  0  0  0  0  0
  148.2341  136.3775  163.3994 H   0  0  0  0  0  0  0  0  0  0  0  0
  146.4899  136.3131  163.6397 H   0  0  0  0  0  0  0  0  0  0  0  0
  147.2220  137.7327  162.9063 H   0  0  0  0  0  0  0  0  0  0  0  0
  148.0667  134.1060  162.0198 H   0  0  0  0  0  0  0  0  0  0  0  0
  146.8827  134.0060  160.7198 H   0  0  0  0  0  0  0  0  0  0  0  0
  146.3438  134.1384  162.3817 H   0  0  0  0  0  0  0  0  0  0  0  0
  1  2  1  0  0  0  0
  1 22  1  0  0  0  0
  1 23  1  0  0  0  0
  1 24  1  0  0  0  0
  2 20  2  0  0  0  0
  2  3  1  0  0  0  0
  3  4  2  0  0  0  0
  3 25  1  0  0  0  0
  4  5  1  0  0  0  0
  4  6  1  0  0  0  0
  5 26  1  0  0  0  0
  5 27  1  0  0  0  0
  5 28  1  0  0  0  0
  6  7  1  0  0  0  0
  6 20  1  0  0  0  0
  7  8  1  0  0  0  0
  7  9  1  0  0  0  0
  7 29  1  0  0  0  0
  8 30  1  0  0  0  0
  8 31  1  0  0  0  0
  8 32  1  0  0  0  0
  9 10  2  0  0  0  0
  9 11  1  0  0  0  0
 11 12  1  0  0  0  0
 11 33  1  0  0  0  0
 12 21  1  0  0  0  0
 12 13  1  0  0  0  0
 12 17  1  0  0  0  0
 13 14  1  0  0  0  0
 13 34  1  0  0  0  0
 13 35  1  0  0  0  0
 14 15  1  0  0  0  0
 14 16  1  0  0  0  0
 14 36  1  0  0  0  0
 15 37  1  0  0  0  0
 15 38  1  0  0  0  0
 15 39  1  0  0  0  0
 16 40  1  0  0  0  0
 16 41  1  0  0  0  0
 16 42  1  0  0  0  0
 17 18  2  0  0  0  0
 17 19  1  0  0  0  0
M  CHG  1  19  -1
M  END
> <s_m_source_file>
AV-unprocessed.smi

> <i_m_source_file_index>
2735

> <i_lp_mmshare_version>
43012

> <i_f3d_flags>
0

> <s_epik_input>
W0NIM11jMVtjSF1jKFtDSDNdKW4objEpW0NASF0oW0NIM10pQyg9TylbTkhdW0NASF0oQyg9TylbT0hdKVtDSDJdW0NIXShbQ0gzXSlbQ0gzXQ==

> <s_epik_cmdline>
J2VwaWtfcHl0aG9uJywgJy1waCcsICc3LjAnLCAnLXRuJywgJzgnLCAnLW1hJywgJzIwMCcsICctbWV0YWxfYmluZGluZycsICctaW1hZScsICc8aW5maWxlLm1hZT4nLCAnLW9tYWUnLCAnPG91dGZpbGUubWFlPic=

> <r_lp_tautomer_probability>
1

> <r_epik_Ionization_Penalty>
0.0012303

> <r_epik_Ionization_Penalty_Charging>
0.000186407

> <r_epik_Ionization_Penalty_Neutral>
0.0010439

> <r_epik_State_Penalty>
-0

> <r_epik_Charging_Adjusted_Penalty>
0.000186407

> <i_epik_Tot_Q>
-1

> <i_epik_Tot_abs_Q>
1

> <r_epik_Metal_State_Penalty>
-0

> <b_epik_Metal_Only>
0

> <s_lp_Force_Field>
OPLS_2005

> <r_lp_Energy>
6.63837

> <b_lp_Chiralities_Consistent>
1

> <s_lp_Variant>
AV-unprocessed.smi:2735-4

> <Gold.Version>
5.8.1

> <Gold.Id.Protein>
6NUR|6NUR_protein|mol2

> <Gold.PLP.Fitness>
40.0463

> <Gold.PLP.PLP>
-32.5595

> <Gold.PLP.part.hbond>
-2.0000

> <Gold.PLP.part.metal>
0.0000

> <Gold.PLP.part.buried>
-5.4525

> <Gold.PLP.part.nonpolar>
-25.6350

> <Gold.PLP.part.repulsive>
0.1144

> <Gold.PLP.ligand.clash>
0.0000

> <Gold.PLP.ligand.torsion>
0.6781

> <Gold.PLP.Chemscore.Hbond>
2.8960

> <Gold.PLP.Chemscore.CHOScore>
0.0000

> <Gold.PLP.Chemscore.Metal>
0.0000

> <Gold.Chemscore.Hbonds>
donor molecule, donor type, donor heavy atom, donor atom, acceptor molecule, acceptor atom, score
      P1  H  6896  6907       L1    10  0.71
      P1  H  6896  6909       L1    18  1.82

> <Gold.PLP.Chemscore.Internal.Correction>
0.1550

> <Gold.Rescore>
     Score         DG    S(hbond)    S(metal)    S(lipo)     H(rot)  DE(clash)    DE(int)     intcor
     12.47     -15.56       1.91        0.00      80.62       2.24       0.02       3.08       ----

> <Gold.Chemscore.Fitness>
12.4680

> <Gold.Chemscore.DG>
-15.5629

> <Gold.Chemscore.ZeroCoef>
-5.4800

> <Gold.Chemscore.Hbond>
1.9109

> <Gold.Chemscore.Metal>
0.0000

> <Gold.Chemscore.Lipo>
80.6156

> <Gold.Chemscore.Internal_Hbond>
0.0000

> <Gold.Chemscore.DEClash>
0.0195

> <Gold.Chemscore.DEInternal>
3.0754

> <Gold.Chemscore.Rot>
2.2388

> <Gold.Chemscore.Internal.Correction>
   9.000000E+99

> <Gold.Chemscore.Hbonds>
donor molecule, donor type, donor heavy atom, donor atom, acceptor molecule, acceptor atom, score
      P1  H  6896  6907       L1    10  0.69
      P1  H  6896  6909       L1    18  0.90

> <Gold.Chemscore.Hbond.Weighted>
-6.3822

> <Gold.Chemscore.Metal.Weighted>
-0.0000

> <Gold.Chemscore.Lipo.Weighted>
-9.4320

> <Gold.Chemscore.Internal_Hbond.Weighted>
0.0000

> <Gold.Chemscore.DEClash.Weighted>
0.0195

> <Gold.Chemscore.DEInternal.Weighted>
3.0754

> <Gold.Chemscore.Rot.Weighted>
5.7314

> <Gold.Chemscore.Internal.Correction.Weighted>
   9.000000E+99

> <Gold.Protein.RotatedTorsions>
[ 6907 6896 6895 6894 ] final    4.51 input  -60.11 | X-H torsion
[ 7974 7965 7964 7962 ] final  -65.15 input  175.53 | X-H torsion
[ 8008 7997 7996 7995 ] final  -29.53 input   59.86 | X-H torsion
[ 10167 10162 10161 10158 ] final   69.84 input  -65.29 | X-H torsion
[ 10718 10713 10712 10709 ] final -145.05 input   66.30 | X-H torsion
[ 10763 10752 10751 10750 ] final  149.84 input  -60.55 | X-H torsion
[ 11005 11000 10999 10996 ] final  -57.29 input  -57.11 | X-H torsion

> <Gold.Protein.ActiveResidues>
 VAL166  LYS551  ARG553  GLY616  TRP617  ASP618  TYR619  PRO620  LYS621  CYS622 
 ASP623  PHE694  ASN695  SER759  ASP760  ASP761  ALA762  ILE779  LEU786  VAL792 
 PHE793  MET794  SER795  GLU796  ALA797  LYS798  CYS799  TRP800  GLU811  SER814 

> <Gold.Protein.RotatedAtoms>
  151.6425  135.1011  160.0144 H   0  0  0  0  0  0  0  0  0  0  0  0  # atno 6907 bound_to 6896
  152.4046  133.6865  159.6354 H   0  0  0  0  0  0  0  0  0  0  0  0  # atno 6908 bound_to 6896
  150.7942  133.8648  159.3283 H   0  0  0  0  0  0  0  0  0  0  0  0  # atno 6909 bound_to 6896
  145.7578  140.8876  143.0446 H   0  0  0  0  0  0  0  0  0  0  0  0  # atno 7974 bound_to 7965
  154.4286  140.1816  156.1262 H   0  0  0  0  0  0  0  0  0  0  0  0  # atno 8008 bound_to 7997
  156.0104  140.3351  155.6910 H   0  0  0  0  0  0  0  0  0  0  0  0  # atno 8009 bound_to 7997
  155.6119  140.0651  157.2694 H   0  0  0  0  0  0  0  0  0  0  0  0  # atno 8010 bound_to 7997
  140.0634  144.5213  150.7278 H   0  0  0  0  0  0  0  0  0  0  0  0  # atno 10167 bound_to 10162
  156.3777  130.7820  151.2009 H   0  0  0  0  0  0  0  0  0  0  0  0  # atno 10718 bound_to 10713
  154.0777  135.2862  155.3296 H   0  0  0  0  0  0  0  0  0  0  0  0  # atno 10763 bound_to 10752
  154.6704  135.5301  153.8135 H   0  0  0  0  0  0  0  0  0  0  0  0  # atno 10764 bound_to 10752
  153.0461  135.6556  154.0954 H   0  0  0  0  0  0  0  0  0  0  0  0  # atno 10765 bound_to 10752
  141.1158  133.6610  156.4747 H   0  0  0  0  0  0  0  0  0  0  0  0  # atno 11005 bound_to 11000
  144.6836  139.9681  143.7481 LP  0  0  0  0  0  0  0  0  0  0  0  0  # atno 17320 bound_to 7965
  146.0293  139.3321  143.0765 LP  0  0  0  0  0  0  0  0  0  0  0  0  # atno 17321 bound_to 7965
  140.7161  143.2545  151.4431 LP  0  0  0  0  0  0  0  0  0  0  0  0  # atno 17342 bound_to 10162
  139.5879  144.1563  152.2052 LP  0  0  0  0  0  0  0  0  0  0  0  0  # atno 17343 bound_to 10162
  157.7489  131.0353  150.4359 LP  0  0  0  0  0  0  0  0  0  0  0  0  # atno 17370 bound_to 10713
  156.4597  130.4029  149.6584 LP  0  0  0  0  0  0  0  0  0  0  0  0  # atno 17371 bound_to 10713
  140.4650  134.6806  157.5103 LP  0  0  0  0  0  0  0  0  0  0  0  0  # atno 17394 bound_to 11000
  140.0079  134.6735  155.9426 LP  0  0  0  0  0  0  0  0  0  0  0  0  # atno 17395 bound_to 11000

$$$$
