AV-unprocessed.smi:1878|AV-procd|sdf|7628|dock4
  -GOLD-   22720 9353D 1   1.00000     0.00000
 Structure written by MMmdl.
 34 35  0  0  0  0  0  0  0  0  2 V2000
  150.5596  134.9005  157.3680 O   0  0  0  0  0  0  0  0  0  0  0  0
  150.6904  135.3717  156.2361 C   0  0  0  0  0  0  0  0  0  0  0  0
  149.8744  134.9761  155.2512 N   0  0  0  0  0  0  0  0  0  0  0  0
  148.8020  133.9988  155.3941 C   0  0  0  0  0  0  0  0  0  0  0  0
  148.9723  132.8378  154.4041 C   0  0  0  0  0  0  0  0  0  0  0  0
  147.8763  132.0802  154.4212 F   0  0  0  0  0  0  0  0  0  0  0  0
  149.1505  133.3039  153.1678 F   0  0  0  0  0  0  0  0  0  0  0  0
  150.0181  132.0847  154.7454 F   0  0  0  0  0  0  0  0  0  0  0  0
  151.6082  136.2880  155.8499 N   0  5  0  0  0  0  0  0  0  0  0  0
  151.7575  137.4263  156.5451 C   0  0  0  0  0  0  0  0  0  0  0  0
  151.7457  138.6880  155.9127 C   0  0  0  0  0  0  0  0  0  0  0  0
  151.9016  139.8583  156.6791 C   0  0  0  0  0  0  0  0  0  0  0  0
  152.0600  139.7436  158.0792 C   0  0  0  0  0  0  0  0  0  0  0  0
  152.2239  140.8863  158.8876 N   0  0  0  0  0  0  0  0  0  0  0  0
  152.1649  142.2311  158.3365 C   0  0  0  0  0  0  0  0  0  0  0  0
  152.5182  143.1441  159.5095 C   0  0  0  0  0  0  0  0  0  0  0  0
  153.4946  142.2972  160.3259 C   0  0  0  0  0  0  0  0  0  0  0  0
  153.0128  140.8575  160.1112 C   0  0  0  0  0  0  0  0  0  0  0  0
  152.0735  138.5386  158.6950 N   0  0  0  0  0  0  0  0  0  0  0  0
  151.9244  137.4243  157.9477 C   0  0  0  0  0  0  0  0  0  0  0  0
  150.0092  135.3820  154.3368 H   0  0  0  0  0  0  0  0  0  0  0  0
  148.7983  133.6188  156.4167 H   0  0  0  0  0  0  0  0  0  0  0  0
  147.8405  134.4876  155.2291 H   0  0  0  0  0  0  0  0  0  0  0  0
  151.6234  138.7608  154.8417 H   0  0  0  0  0  0  0  0  0  0  0  0
  151.9049  140.8174  156.1836 H   0  0  0  0  0  0  0  0  0  0  0  0
  152.9001  142.3293  157.5365 H   0  0  0  0  0  0  0  0  0  0  0  0
  151.1784  142.4583  157.9309 H   0  0  0  0  0  0  0  0  0  0  0  0
  152.9394  144.0983  159.1929 H   0  0  0  0  0  0  0  0  0  0  0  0
  151.6245  143.3480  160.1009 H   0  0  0  0  0  0  0  0  0  0  0  0
  154.5002  142.4098  159.9184 H   0  0  0  0  0  0  0  0  0  0  0  0
  153.5265  142.5798  161.3785 H   0  0  0  0  0  0  0  0  0  0  0  0
  152.3731  140.5364  160.9336 H   0  0  0  0  0  0  0  0  0  0  0  0
  153.8569  140.1707  160.0431 H   0  0  0  0  0  0  0  0  0  0  0  0
  151.9411  136.4922  158.4937 H   0  0  0  0  0  0  0  0  0  0  0  0
  1  2  2  0  0  0  0
  2  3  1  0  0  0  0
  2  9  1  0  0  0  0
  3  4  1  0  0  0  0
  3 21  1  0  0  0  0
  4  5  1  0  0  0  0
  4 22  1  0  0  0  0
  4 23  1  0  0  0  0
  5  6  1  0  0  0  0
  5  7  1  0  0  0  0
  5  8  1  0  0  0  0
  9 10  1  0  0  0  0
 10 20  1  0  0  0  0
 10 11  2  0  0  0  0
 11 12  1  0  0  0  0
 11 24  1  0  0  0  0
 12 13  2  0  0  0  0
 12 25  1  0  0  0  0
 13 14  1  0  0  0  0
 13 19  1  0  0  0  0
 14 18  1  0  0  0  0
 14 15  1  0  0  0  0
 15 16  1  0  0  0  0
 15 26  1  0  0  0  0
 15 27  1  0  0  0  0
 16 17  1  0  0  0  0
 16 28  1  0  0  0  0
 16 29  1  0  0  0  0
 17 18  1  0  0  0  0
 17 30  1  0  0  0  0
 17 31  1  0  0  0  0
 18 32  1  0  0  0  0
 18 33  1  0  0  0  0
 19 20  2  0  0  0  0
 20 34  1  0  0  0  0
M  CHG  1   9  -1
M  END
> <s_m_source_file>
AV-unprocessed.smi

> <i_m_source_file_index>
1878

> <i_lp_mmshare_version>
43012

> <i_f3d_flags>
0

> <s_epik_input>
RkMoRikoRilbQ0gyXVtOSF1DKD1PKVtOSF1jMVtjSF1bY0hdYyhuW2NIXTEpTjJbQ0gyXVtDSDJdW0NIMl1bQ0gyXTI=

> <s_epik_cmdline>
J2VwaWtfcHl0aG9uJywgJy1waCcsICc3LjAnLCAnLXRuJywgJzgnLCAnLW1hJywgJzIwMCcsICctbWV0YWxfYmluZGluZycsICctaW1hZScsICc8aW5maWxlLm1hZT4nLCAnLW9tYWUnLCAnPG91dGZpbGUubWFlPic=

> <r_lp_tautomer_probability>
1

> <r_epik_Ionization_Penalty>
8.41125

> <r_epik_Ionization_Penalty_Charging>
6.79601

> <r_epik_Ionization_Penalty_Neutral>
1.61524

> <r_epik_State_Penalty>
6.86553

> <r_epik_Charging_Adjusted_Penalty>
13.6615

> <i_epik_Tot_Q>
-1

> <i_epik_Tot_abs_Q>
1

> <r_epik_Metal_State_Penalty>
2.85642

> <b_epik_Metal_Only>
1

> <s_lp_Force_Field>
OPLS_2005

> <r_lp_Energy>
22.1987

> <b_lp_Chiralities_Consistent>
1

> <s_lp_Variant>
AV-unprocessed.smi:1878-3

> <Gold.Version>
5.8.1

> <Gold.Id.Protein>
6NUR|6NUR_protein|mol2

> <Gold.PLP.Fitness>
39.6581

> <Gold.PLP.PLP>
-33.9853

> <Gold.PLP.part.hbond>
-2.0000

> <Gold.PLP.part.metal>
0.0000

> <Gold.PLP.part.buried>
-4.4578

> <Gold.PLP.part.nonpolar>
-26.5806

> <Gold.PLP.part.repulsive>
0.0895

> <Gold.PLP.ligand.clash>
0.0000

> <Gold.PLP.ligand.torsion>
1.1767

> <Gold.PLP.Chemscore.Hbond>
2.4212

> <Gold.PLP.Chemscore.CHOScore>
0.0000

> <Gold.PLP.Chemscore.Metal>
0.0000

> <Gold.Chemscore.Hbonds>
donor molecule, donor type, donor heavy atom, donor atom, acceptor molecule, acceptor atom, score
      P1  H  6896  6908       L1     1  0.41
      P1  H 10752 10765       L1     9  2.00

> <Gold.PLP.Chemscore.Internal.Correction>
0.7625

> <Gold.Rescore>
     Score         DG    S(hbond)    S(metal)    S(lipo)     H(rot)  DE(clash)    DE(int)     intcor
     14.11     -16.55       1.58        0.00      71.39       1.00       0.03       2.41       ----

> <Gold.Chemscore.Fitness>
14.1074

> <Gold.Chemscore.DG>
-16.5492

> <Gold.Chemscore.ZeroCoef>
-5.4800

> <Gold.Chemscore.Hbond>
1.5798

> <Gold.Chemscore.Metal>
0.0000

> <Gold.Chemscore.Lipo>
71.3887

> <Gold.Chemscore.Internal_Hbond>
0.0000

> <Gold.Chemscore.DEClash>
0.0285

> <Gold.Chemscore.DEInternal>
2.4133

> <Gold.Chemscore.Rot>
1.0000

> <Gold.Chemscore.Internal.Correction>
   9.000000E+99

> <Gold.Chemscore.Hbonds>
donor molecule, donor type, donor heavy atom, donor atom, acceptor molecule, acceptor atom, score
      P1  H  6896  6908       L1     1  0.41
      P1  H 10752 10765       L1     9  0.80

> <Gold.Chemscore.Hbond.Weighted>
-5.2767

> <Gold.Chemscore.Metal.Weighted>
-0.0000

> <Gold.Chemscore.Lipo.Weighted>
-8.3525

> <Gold.Chemscore.Internal_Hbond.Weighted>
0.0000

> <Gold.Chemscore.DEClash.Weighted>
0.0285

> <Gold.Chemscore.DEInternal.Weighted>
2.4133

> <Gold.Chemscore.Rot.Weighted>
2.5600

> <Gold.Chemscore.Internal.Correction.Weighted>
   9.000000E+99

> <Gold.Protein.RotatedTorsions>
[ 6907 6896 6895 6894 ] final  144.99 input  -60.11 | X-H torsion
[ 7974 7965 7964 7962 ] final -164.26 input  175.53 | X-H torsion
[ 8008 7997 7996 7995 ] final  140.71 input   59.86 | X-H torsion
[ 10167 10162 10161 10158 ] final  177.44 input  -65.29 | X-H torsion
[ 10718 10713 10712 10709 ] final   49.28 input   66.30 | X-H torsion
[ 10763 10752 10751 10750 ] final -152.14 input  -60.55 | X-H torsion
[ 11005 11000 10999 10996 ] final  148.90 input  -57.11 | X-H torsion

> <Gold.Protein.ActiveResidues>
 VAL166  LYS551  ARG553  GLY616  TRP617  ASP618  TYR619  PRO620  LYS621  CYS622 
 ASP623  PHE694  ASN695  SER759  ASP760  ASP761  ALA762  ILE779  LEU786  VAL792 
 PHE793  MET794  SER795  GLU796  ALA797  LYS798  CYS799  TRP800  GLU811  SER814 

> <Gold.Protein.RotatedAtoms>
  152.1867  133.4744  159.4985 H   0  0  0  0  0  0  0  0  0  0  0  0  # atno 6907 bound_to 6896
  150.6944  134.1765  159.4241 H   0  0  0  0  0  0  0  0  0  0  0  0  # atno 6908 bound_to 6896
  151.9678  135.0091  160.0602 H   0  0  0  0  0  0  0  0  0  0  0  0  # atno 6909 bound_to 6896
  144.7302  140.2987  143.6208 H   0  0  0  0  0  0  0  0  0  0  0  0  # atno 7974 bound_to 7965
  156.2975  140.2334  156.4446 H   0  0  0  0  0  0  0  0  0  0  0  0  # atno 8008 bound_to 7997
  154.8155  140.0440  157.1394 H   0  0  0  0  0  0  0  0  0  0  0  0  # atno 8009 bound_to 7997
  154.9374  140.3025  155.5141 H   0  0  0  0  0  0  0  0  0  0  0  0  # atno 8010 bound_to 7997
  139.5253  144.2798  152.0556 H   0  0  0  0  0  0  0  0  0  0  0  0  # atno 10167 bound_to 10162
  157.4771  130.8292  149.8052 H   0  0  0  0  0  0  0  0  0  0  0  0  # atno 10718 bound_to 10713
  154.8013  135.3243  154.7542 H   0  0  0  0  0  0  0  0  0  0  0  0  # atno 10763 bound_to 10752
  153.8210  135.6887  153.4831 H   0  0  0  0  0  0  0  0  0  0  0  0  # atno 10764 bound_to 10752
  153.1732  135.4615  154.9873 H   0  0  0  0  0  0  0  0  0  0  0  0  # atno 10765 bound_to 10752
  140.0998  134.8990  157.1779 H   0  0  0  0  0  0  0  0  0  0  0  0  # atno 11005 bound_to 11000
  145.7782  139.1881  143.2173 LP  0  0  0  0  0  0  0  0  0  0  0  0  # atno 17320 bound_to 7965
  146.0856  140.7715  142.9620 LP  0  0  0  0  0  0  0  0  0  0  0  0  # atno 17321 bound_to 7965
  140.2254  144.4423  150.6323 LP  0  0  0  0  0  0  0  0  0  0  0  0  # atno 17342 bound_to 10162
  140.6391  143.2200  151.6330 LP  0  0  0  0  0  0  0  0  0  0  0  0  # atno 17343 bound_to 10162
  156.0102  130.3836  150.2290 LP  0  0  0  0  0  0  0  0  0  0  0  0  # atno 17370 bound_to 10713
  157.0474  131.0053  151.3264 LP  0  0  0  0  0  0  0  0  0  0  0  0  # atno 17371 bound_to 10713
  140.3235  134.2890  155.7241 LP  0  0  0  0  0  0  0  0  0  0  0  0  # atno 17394 bound_to 11000
  141.2102  133.7725  156.9944 LP  0  0  0  0  0  0  0  0  0  0  0  0  # atno 17395 bound_to 11000

$$$$
