AV-unprocessed.smi:157|AV-procd|sdf|1300|dock1
  -GOLD-   2262018583D 1   1.00000     0.00000
 Structure written by MMmdl.
 35 37  0  0  0  0  0  0  0  0  1 V2000
  156.7893  138.8847  157.8137 O   0  0  0  0  0  0  0  0  0  0  0  0
  156.0652  138.3276  158.8903 C   0  0  0  0  0  0  0  0  0  0  0  0
  154.6561  137.9124  158.4393 C   0  0  2  0  0  0  0  0  0  0  0  0
  153.9807  139.0482  157.9018 O   0  0  0  0  0  0  0  0  0  0  0  0
  152.6341  139.0358  158.2743 C   0  0  1  0  0  0  0  0  0  0  0  0
  151.7943  139.1358  157.0388 N   0  0  0  0  0  0  0  0  0  0  0  0
  151.8448  138.3169  155.9797 C   0  0  0  0  0  0  0  0  0  0  0  0
  150.9901  138.6125  155.0153 N   0  0  0  0  0  0  0  0  0  0  0  0
  150.3173  139.7350  155.4949 C   0  0  0  0  0  0  0  0  0  0  0  0
  150.7999  140.0755  156.7506 C   0  0  0  0  0  0  0  0  0  0  0  0
  150.5197  141.0454  157.6941 N   0  0  0  0  0  0  0  0  0  0  0  0
  149.8832  142.1052  157.3056 C   0  0  0  0  0  0  0  0  0  0  0  0
  149.3267  142.4134  156.0725 N   0  0  0  0  0  0  0  0  0  0  0  0
  148.4657  141.5020  155.3380 C   0  0  0  0  0  0  0  0  0  0  0  0
  149.2229  140.3480  154.6692 C   0  0  1  0  0  0  0  0  0  0  0  0
  149.8173  140.8122  153.4744 O   0  0  0  0  0  0  0  0  0  0  0  0
  152.3729  137.7108  158.9870 C   0  0  0  0  0  0  0  0  0  0  0  0
  153.7399  137.4201  159.5657 C   0  0  1  0  0  0  0  0  0  0  0  0
  153.8896  136.0389  159.8216 O   0  0  0  0  0  0  0  0  0  0  0  0
  154.7114  137.1672  157.6434 H   0  0  0  0  0  0  0  0  0  0  0  0
  152.4098  139.9160  158.8773 H   0  0  0  0  0  0  0  0  0  0  0  0
  148.5011  139.5817  154.3848 H   0  0  0  0  0  0  0  0  0  0  0  0
  153.8952  137.9971  160.4786 H   0  0  0  0  0  0  0  0  0  0  0  0
  156.8925  138.2228  157.1472 H   0  0  0  0  0  0  0  0  0  0  0  0
  156.6115  137.4775  159.3002 H   0  0  0  0  0  0  0  0  0  0  0  0
  155.9977  139.0770  159.6794 H   0  0  0  0  0  0  0  0  0  0  0  0
  152.5232  137.4787  155.9162 H   0  0  0  0  0  0  0  0  0  0  0  0
  149.7280  142.9094  158.0261 H   0  0  0  0  0  0  0  0  0  0  0  0
  149.0878  143.3756  155.8800 H   0  0  0  0  0  0  0  0  0  0  0  0
  147.7521  141.0871  156.0512 H   0  0  0  0  0  0  0  0  0  0  0  0
  147.8768  142.0555  154.6060 H   0  0  0  0  0  0  0  0  0  0  0  0
  149.7221  140.1395  152.8173 H   0  0  0  0  0  0  0  0  0  0  0  0
  151.5837  137.8086  159.7330 H   0  0  0  0  0  0  0  0  0  0  0  0
  152.0877  136.9489  158.2587 H   0  0  0  0  0  0  0  0  0  0  0  0
  154.7512  135.7744  159.5360 H   0  0  0  0  0  0  0  0  0  0  0  0
  1  2  1  0  0  0  0
  1 24  1  0  0  0  0
  2  3  1  0  0  0  0
  2 25  1  0  0  0  0
  2 26  1  0  0  0  0
  3 20  1  0  0  0  0
  3 18  1  0  0  0  0
  3  4  1  0  0  0  0
  4  5  1  0  0  0  0
  5 21  1  0  0  0  0
  5  6  1  0  0  0  0
  5 17  1  0  0  0  0
  6 10  1  0  0  0  0
  6  7  1  0  0  0  0
  7  8  2  0  0  0  0
  7 27  1  0  0  0  0
  8  9  1  0  0  0  0
  9 15  1  0  0  0  0
  9 10  2  0  0  0  0
 10 11  1  0  0  0  0
 11 12  2  0  0  0  0
 12 13  1  0  0  0  0
 12 28  1  0  0  0  0
 13 14  1  0  0  0  0
 13 29  1  0  0  0  0
 14 15  1  0  0  0  0
 14 30  1  0  0  0  0
 14 31  1  0  0  0  0
 15 22  1  0  0  0  0
 15 16  1  0  0  0  0
 16 32  1  0  0  0  0
 17 18  1  0  0  0  0
 17 33  1  0  0  0  0
 17 34  1  0  0  0  0
 18 23  1  0  0  0  0
 18 19  1  0  0  0  0
 19 35  1  0  0  0  0
M  END
> <s_m_source_file>
AV-unprocessed.smi

> <i_m_source_file_index>
157

> <i_lp_mmshare_version>
43012

> <i_f3d_flags>
0

> <s_epik_input>
W09IXVtDSDJdW0NASF0xT1tDQEhdKFtDSDJdW0NAQEhdMVtPSF0pbihbY0hdbjIpYyhjMjMpTj1bQ0hdW05IXVtDSDJdW0NASF0zW09IXQ==

> <s_epik_cmdline>
J2VwaWtfcHl0aG9uJywgJy1waCcsICc3LjAnLCAnLXRuJywgJzgnLCAnLW1hJywgJzIwMCcsICctbWV0YWxfYmluZGluZycsICctaW1hZScsICc8aW5maWxlLm1hZT4nLCAnLW9tYWUnLCAnPG91dGZpbGUubWFlPic=

> <r_lp_tautomer_probability>
1

> <r_epik_Ionization_Penalty>
0.0357149

> <r_epik_Ionization_Penalty_Charging>
0.0355056

> <r_epik_Ionization_Penalty_Neutral>
0.000209255

> <r_epik_State_Penalty>
0.0296046

> <r_epik_Charging_Adjusted_Penalty>
0.0651102

> <i_epik_Tot_Q>
0

> <i_epik_Tot_abs_Q>
0

> <r_epik_Metal_State_Penalty>
3.03559e-05

> <b_epik_Metal_Only>
0

> <s_epik_Chemistry_Notes>
This compound has an imine and may undergo hydrolysis. This compound contains an acetal/aminal-like group ( X-CH(R)-Y where X, Y are N, S, or O) that may be acid/base labile, releasing an aldehyde.

> <s_lp_Force_Field>
OPLS_2005

> <r_lp_Energy>
44.6585

> <b_lp_Chiralities_Consistent>
1

> <s_lp_Variant>
AV-unprocessed.smi:157-10

> <Gold.Version>
5.8.1

> <Gold.Id.Protein>
6NUR|6NUR_protein|mol2

> <Gold.PLP.Fitness>
41.5459

> <Gold.PLP.PLP>
-24.3106

> <Gold.PLP.part.hbond>
-6.2939

> <Gold.PLP.part.metal>
0.0000

> <Gold.PLP.part.buried>
-4.4325

> <Gold.PLP.part.nonpolar>
-13.9308

> <Gold.PLP.part.repulsive>
0.2141

> <Gold.PLP.ligand.clash>
0.0000

> <Gold.PLP.ligand.torsion>
0.0364

> <Gold.PLP.Chemscore.Hbond>
5.7660

> <Gold.PLP.Chemscore.CHOScore>
0.0000

> <Gold.PLP.Chemscore.Metal>
0.0000

> <Gold.Chemscore.Hbonds>
donor molecule, donor type, donor heavy atom, donor atom, acceptor molecule, acceptor atom, score
      L1  H    13    29       P1  8028  0.62
      L1  H    16    32       P1  7957  0.75
      P1  H  6896  6909       L1    19  1.00
      P1  H  7989  7998       L1    16  0.29
      P1  H  7997  8008       L1     4  0.88
      P1  H  7997  8010       L1     1  0.91
      P1  H  8011  8017       L1    16  1.00

> <Gold.PLP.Chemscore.Internal.Correction>
0.0102

> <Gold.Rescore>
     Score         DG    S(hbond)    S(metal)    S(lipo)     H(rot)  DE(clash)    DE(int)     intcor
     15.43     -15.46       4.64        0.00      32.50       3.64       0.00       0.03       ----

> <Gold.Chemscore.Fitness>
15.4266

> <Gold.Chemscore.DG>
-15.4625

> <Gold.Chemscore.ZeroCoef>
-5.4800

> <Gold.Chemscore.Hbond>
4.6373

> <Gold.Chemscore.Metal>
0.0000

> <Gold.Chemscore.Lipo>
32.5020

> <Gold.Chemscore.Internal_Hbond>
0.0000

> <Gold.Chemscore.DEClash>
0.0029

> <Gold.Chemscore.DEInternal>
0.0330

> <Gold.Chemscore.Rot>
3.6362

> <Gold.Chemscore.Internal.Correction>
   9.000000E+99

> <Gold.Chemscore.Hbonds>
donor molecule, donor type, donor heavy atom, donor atom, acceptor molecule, acceptor atom, score
      L1  H    13    29       P1  8028  0.60
      L1  H    16    32       P1  7957  0.76
      P1  H  6896  6909       L1    19  0.96
      P1  H  7989  7998       L1    16  0.05
      P1  H  7997  8008       L1     4  0.80
      P1  H  7997  8010       L1     1  0.22
      P1  H  8011  8017       L1    16  0.25

> <Gold.Chemscore.Hbond.Weighted>
-15.4885

> <Gold.Chemscore.Metal.Weighted>
-0.0000

> <Gold.Chemscore.Lipo.Weighted>
-3.8027

> <Gold.Chemscore.Internal_Hbond.Weighted>
0.0000

> <Gold.Chemscore.DEClash.Weighted>
0.0029

> <Gold.Chemscore.DEInternal.Weighted>
0.0330

> <Gold.Chemscore.Rot.Weighted>
9.3087

> <Gold.Chemscore.Internal.Correction.Weighted>
   9.000000E+99

> <Gold.Protein.RotatedTorsions>
[ 6907 6896 6895 6894 ] final  170.63 input  -60.11 | X-H torsion
[ 7974 7965 7964 7962 ] final  -38.78 input  175.53 | X-H torsion
[ 8008 7997 7996 7995 ] final  -70.96 input   59.86 | X-H torsion
[ 10167 10162 10161 10158 ] final  161.06 input  -65.29 | X-H torsion
[ 10718 10713 10712 10709 ] final  134.15 input   66.30 | X-H torsion
[ 10763 10752 10751 10750 ] final   35.34 input  -60.55 | X-H torsion
[ 11005 11000 10999 10996 ] final  -10.01 input  -57.11 | X-H torsion

> <Gold.Protein.ActiveResidues>
 VAL166  LYS551  ARG553  GLY616  TRP617  ASP618  TYR619  PRO620  LYS621  CYS622 
 ASP623  PHE694  ASN695  SER759  ASP760  ASP761  ALA762  ILE779  LEU786  VAL792 
 PHE793  MET794  SER795  GLU796  ALA797  LYS798  CYS799  TRP800  GLU811  SER814 

> <Gold.Protein.RotatedAtoms>
  151.8131  133.3384  159.3561 H   0  0  0  0  0  0  0  0  0  0  0  0  # atno 6907 bound_to 6896
  150.7319  134.5645  159.5868 H   0  0  0  0  0  0  0  0  0  0  0  0  # atno 6908 bound_to 6896
  152.3061  134.7555  160.0398 H   0  0  0  0  0  0  0  0  0  0  0  0  # atno 6909 bound_to 6896
  146.0456  140.6551  142.9066 H   0  0  0  0  0  0  0  0  0  0  0  0  # atno 7974 bound_to 7965
  154.5051  140.0824  156.7878 H   0  0  0  0  0  0  0  0  0  0  0  0  # atno 8008 bound_to 7997
  155.3911  140.3432  155.4233 H   0  0  0  0  0  0  0  0  0  0  0  0  # atno 8009 bound_to 7997
  156.1506  140.1557  156.8764 H   0  0  0  0  0  0  0  0  0  0  0  0  # atno 8010 bound_to 7997
  139.4845  144.4573  151.8751 H   0  0  0  0  0  0  0  0  0  0  0  0  # atno 10167 bound_to 10162
  157.4701  131.1079  150.9813 H   0  0  0  0  0  0  0  0  0  0  0  0  # atno 10718 bound_to 10713
  153.0123  135.6336  154.1811 H   0  0  0  0  0  0  0  0  0  0  0  0  # atno 10763 bound_to 10752
  154.1553  135.2826  155.3126 H   0  0  0  0  0  0  0  0  0  0  0  0  # atno 10764 bound_to 10752
  154.6023  135.5583  153.7447 H   0  0  0  0  0  0  0  0  0  0  0  0  # atno 10765 bound_to 10752
  140.7402  133.8676  155.8961 H   0  0  0  0  0  0  0  0  0  0  0  0  # atno 11005 bound_to 11000
  144.7096  140.3987  143.7091 LP  0  0  0  0  0  0  0  0  0  0  0  0  # atno 17320 bound_to 7965
  145.6812  139.1619  143.2700 LP  0  0  0  0  0  0  0  0  0  0  0  0  # atno 17321 bound_to 7965
  140.4033  144.2464  150.5892 LP  0  0  0  0  0  0  0  0  0  0  0  0  # atno 17342 bound_to 10162
  140.5036  143.2311  151.8642 LP  0  0  0  0  0  0  0  0  0  0  0  0  # atno 17343 bound_to 10162
  157.0581  130.5814  149.5381 LP  0  0  0  0  0  0  0  0  0  0  0  0  # atno 17370 bound_to 10713
  156.0069  130.5157  150.7860 LP  0  0  0  0  0  0  0  0  0  0  0  0  # atno 17371 bound_to 10713
  140.9843  134.1363  157.4466 LP  0  0  0  0  0  0  0  0  0  0  0  0  # atno 17394 bound_to 11000
  139.8808  135.0020  156.6104 LP  0  0  0  0  0  0  0  0  0  0  0  0  # atno 17395 bound_to 11000

$$$$
