AV-unprocessed.smi:2547|AV-procd|sdf|10006|dock7
  -GOLD-   2272014 53D 1   1.00000     0.00000
 Structure written by MMmdl.
 44 45  0  0  0  0  0  0  0  0  2 V2000
  144.1524  141.9840  155.7362 C   0  0  0  0  0  0  0  0  0  0  0  0
  145.2547  141.6151  154.8222 N   0  3  2  0  0  0  0  0  0  0  0  0
  146.1679  140.6075  155.4167 C   0  0  0  0  0  0  0  0  0  0  0  0
  147.2263  140.1486  154.3968 C   0  0  0  0  0  0  0  0  0  0  0  0
  148.0147  141.3335  153.8108 C   0  0  2  0  0  0  0  0  0  0  0  0
  148.8976  141.9147  154.8231 N   0  0  0  0  0  0  0  0  0  0  0  0
  150.0319  141.3807  155.3005 C   0  0  0  0  0  0  0  0  0  0  0  0
  150.4519  140.2898  154.9036 O   0  0  0  0  0  0  0  0  0  0  0  0
  150.5839  142.2351  156.2488 N   0  0  0  0  0  0  0  0  0  0  0  0
  151.1809  141.8063  157.3233 C   0  0  0  0  0  0  0  0  0  0  0  0
  151.7344  142.7593  158.2705 C   0  0  0  0  0  0  0  0  0  0  0  0
  152.3581  142.3436  159.3916 C   0  0  0  0  0  0  0  0  0  0  0  0
  152.4975  140.9335  159.6900 C   0  0  0  0  0  0  0  0  0  0  0  0
  151.9969  140.0210  158.8357 C   0  0  0  0  0  0  0  0  0  0  0  0
  152.1323  138.6768  159.1246 N   0  0  0  0  0  0  0  0  0  0  0  0
  151.6084  137.6562  158.2327 C   0  0  0  0  0  0  0  0  0  0  0  0
  153.0444  138.2140  160.1568 C   0  0  0  0  0  0  0  0  0  0  0  0
  151.3532  140.4547  157.6781 N   0  0  0  0  0  0  0  0  0  0  0  0
  147.0419  142.3950  153.2674 C   0  0  0  0  0  0  0  0  0  0  0  0
  145.9878  142.8013  154.3138 C   0  0  0  0  0  0  0  0  0  0  0  0
  144.5348  142.4679  156.6361 H   0  0  0  0  0  0  0  0  0  0  0  0
  143.5883  141.1002  156.0355 H   0  0  0  0  0  0  0  0  0  0  0  0
  143.4594  142.6693  155.2467 H   0  0  0  0  0  0  0  0  0  0  0  0
  146.6494  141.0263  156.3017 H   0  0  0  0  0  0  0  0  0  0  0  0
  145.5906  139.7449  155.7514 H   0  0  0  0  0  0  0  0  0  0  0  0
  147.9078  139.4326  154.8583 H   0  0  0  0  0  0  0  0  0  0  0  0
  146.7299  139.6142  153.5854 H   0  0  0  0  0  0  0  0  0  0  0  0
  148.6066  140.9611  152.9735 H   0  0  0  0  0  0  0  0  0  0  0  0
  148.6222  142.8103  155.1992 H   0  0  0  0  0  0  0  0  0  0  0  0
  151.6616  143.8242  158.1025 H   0  0  0  0  0  0  0  0  0  0  0  0
  152.7605  143.0731  160.0790 H   0  0  0  0  0  0  0  0  0  0  0  0
  153.0009  140.6226  160.5942 H   0  0  0  0  0  0  0  0  0  0  0  0
  150.7666  138.0410  157.6562 H   0  0  0  0  0  0  0  0  0  0  0  0
  151.2633  136.7884  158.7957 H   0  0  0  0  0  0  0  0  0  0  0  0
  152.3806  137.3313  157.5351 H   0  0  0  0  0  0  0  0  0  0  0  0
  153.1972  138.9856  160.9124 H   0  0  0  0  0  0  0  0  0  0  0  0
  154.0125  137.9653  159.7217 H   0  0  0  0  0  0  0  0  0  0  0  0
  152.6504  137.3277  160.6543 H   0  0  0  0  0  0  0  0  0  0  0  0
  147.5925  143.2734  152.9277 H   0  0  0  0  0  0  0  0  0  0  0  0
  146.5343  141.9969  152.3877 H   0  0  0  0  0  0  0  0  0  0  0  0
  145.2823  143.5005  153.8634 H   0  0  0  0  0  0  0  0  0  0  0  0
  146.4608  143.3244  155.1465 H   0  0  0  0  0  0  0  0  0  0  0  0
  144.8255  141.1766  154.0199 H   0  0  0  0  0  0  0  0  0  0  0  0
  151.0002  139.7225  157.0787 H   0  0  0  0  0  0  0  0  0  0  0  0
  1  2  1  0  0  0  0
  1 21  1  0  0  0  0
  1 22  1  0  0  0  0
  1 23  1  0  0  0  0
  2 20  1  0  0  0  0
  2  3  1  0  0  0  0
  2 43  1  0  0  0  0
  3  4  1  0  0  0  0
  3 24  1  0  0  0  0
  3 25  1  0  0  0  0
  4  5  1  0  0  0  0
  4 26  1  0  0  0  0
  4 27  1  0  0  0  0
  5  6  1  0  0  0  0
  5 19  1  0  0  0  0
  5 28  1  0  0  0  0
  6  7  1  0  0  0  0
  6 29  1  0  0  0  0
  7  8  2  0  0  0  0
  7  9  1  0  0  0  0
  9 10  2  0  0  0  0
 10 18  1  0  0  0  0
 10 11  1  0  0  0  0
 11 12  2  0  0  0  0
 11 30  1  0  0  0  0
 12 13  1  0  0  0  0
 12 31  1  0  0  0  0
 13 14  2  0  0  0  0
 13 32  1  0  0  0  0
 14 15  1  0  0  0  0
 14 18  1  0  0  0  0
 15 16  1  0  0  0  0
 15 17  1  0  0  0  0
 16 33  1  0  0  0  0
 16 34  1  0  0  0  0
 16 35  1  0  0  0  0
 17 36  1  0  0  0  0
 17 37  1  0  0  0  0
 17 38  1  0  0  0  0
 18 44  1  0  0  0  0
 19 20  1  0  0  0  0
 19 39  1  0  0  0  0
 19 40  1  0  0  0  0
 20 41  1  0  0  0  0
 20 42  1  0  0  0  0
M  CHG  1   2   1
M  END
> <s_m_source_file>
AV-unprocessed.smi

> <i_m_source_file_index>
2547

> <i_lp_mmshare_version>
43012

> <i_f3d_flags>
0

> <s_epik_input>
W0NIM11OMVtDSDJdW0NIMl1bQ0hdKFtDSDJdW0NIMl0xKVtOSF1DKD1PKVtOSF1jMltjSF1bY0hdW2NIXWMobjIpTihbQ0gzXSlbQ0gzXQ==

> <s_epik_cmdline>
J2VwaWtfcHl0aG9uJywgJy1waCcsICc3LjAnLCAnLXRuJywgJzgnLCAnLW1hJywgJzIwMCcsICctbWV0YWxfYmluZGluZycsICctaW1hZScsICc8aW5maWxlLm1hZT4nLCAnLW9tYWUnLCAnPG91dGZpbGUubWFlPic=

> <r_lp_tautomer_probability>
0.999994

> <r_epik_Ionization_Penalty>
1.33208

> <r_epik_Ionization_Penalty_Charging>
1.33208

> <r_epik_Ionization_Penalty_Neutral>
6.0327e-08

> <r_epik_State_Penalty>
3.49719

> <r_epik_Charging_Adjusted_Penalty>
4.82927

> <i_epik_Tot_Q>
1

> <i_epik_Tot_abs_Q>
1

> <r_epik_Metal_State_Penalty>
3.51567

> <b_epik_Metal_Only>
1

> <s_lp_Force_Field>
OPLS_2005

> <r_lp_Energy>
40.5886

> <b_lp_Chiralities_Consistent>
1

> <s_lp_Variant>
AV-unprocessed.smi:2547-6

> <Gold.Version>
5.8.1

> <Gold.Id.Protein>
6NUR|6NUR_protein|mol2

> <Gold.PLP.Fitness>
43.0747

> <Gold.PLP.PLP>
-31.9605

> <Gold.PLP.part.hbond>
-3.0000

> <Gold.PLP.part.metal>
0.0000

> <Gold.PLP.part.buried>
-7.0046

> <Gold.PLP.part.nonpolar>
-22.3170

> <Gold.PLP.part.repulsive>
0.8780

> <Gold.PLP.ligand.clash>
0.0000

> <Gold.PLP.ligand.torsion>
0.4865

> <Gold.PLP.Chemscore.Hbond>
4.0000

> <Gold.PLP.Chemscore.CHOScore>
0.0000

> <Gold.PLP.Chemscore.Metal>
0.0000

> <Gold.Chemscore.Hbonds>
donor molecule, donor type, donor heavy atom, donor atom, acceptor molecule, acceptor atom, score
      L1  H     2    43       P1 10175  2.00
      L1  H     6    29       P1  8028  1.00
      P1  H  7989  7998       L1     8  1.00

> <Gold.PLP.Chemscore.Internal.Correction>
0.0873

> <Gold.Rescore>
     Score         DG    S(hbond)    S(metal)    S(lipo)     H(rot)  DE(clash)    DE(int)     intcor
     17.21     -19.36       2.58        0.00      66.78       1.00       1.91       0.24       ----

> <Gold.Chemscore.Fitness>
17.2109

> <Gold.Chemscore.DG>
-19.3648

> <Gold.Chemscore.ZeroCoef>
-5.4800

> <Gold.Chemscore.Hbond>
2.5844

> <Gold.Chemscore.Metal>
0.0000

> <Gold.Chemscore.Lipo>
66.7770

> <Gold.Chemscore.Internal_Hbond>
0.0000

> <Gold.Chemscore.DEClash>
1.9117

> <Gold.Chemscore.DEInternal>
0.2422

> <Gold.Chemscore.Rot>
1.0000

> <Gold.Chemscore.Internal.Correction>
   9.000000E+99

> <Gold.Chemscore.Hbonds>
donor molecule, donor type, donor heavy atom, donor atom, acceptor molecule, acceptor atom, score
      L1  H     2    43       P1 10175  0.65
      L1  H     6    29       P1  8028  0.96
      P1  H  7989  7998       L1     8  0.25

> <Gold.Chemscore.Hbond.Weighted>
-8.6319

> <Gold.Chemscore.Metal.Weighted>
-0.0000

> <Gold.Chemscore.Lipo.Weighted>
-7.8129

> <Gold.Chemscore.Internal_Hbond.Weighted>
0.0000

> <Gold.Chemscore.DEClash.Weighted>
1.9117

> <Gold.Chemscore.DEInternal.Weighted>
0.2422

> <Gold.Chemscore.Rot.Weighted>
2.5600

> <Gold.Chemscore.Internal.Correction.Weighted>
   9.000000E+99

> <Gold.Protein.RotatedTorsions>
[ 6907 6896 6895 6894 ] final -173.21 input  -60.11 | X-H torsion
[ 7974 7965 7964 7962 ] final   89.48 input  175.53 | X-H torsion
[ 8008 7997 7996 7995 ] final  -45.78 input   59.86 | X-H torsion
[ 10167 10162 10161 10158 ] final   10.56 input  -65.29 | X-H torsion
[ 10718 10713 10712 10709 ] final   34.77 input   66.30 | X-H torsion
[ 10763 10752 10751 10750 ] final -168.80 input  -60.55 | X-H torsion
[ 11005 11000 10999 10996 ] final -145.13 input  -57.11 | X-H torsion

> <Gold.Protein.ActiveResidues>
 VAL166  LYS551  ARG553  GLY616  TRP617  ASP618  TYR619  PRO620  LYS621  CYS622 
 ASP623  PHE694  ASN695  SER759  ASP760  ASP761  ALA762  ILE779  LEU786  VAL792 
 PHE793  MET794  SER795  GLU796  ALA797  LYS798  CYS799  TRP800  GLU811  SER814 

> <Gold.Protein.RotatedAtoms>
  151.5526  133.3415  159.2955 H   0  0  0  0  0  0  0  0  0  0  0  0  # atno 6907 bound_to 6896
  150.8470  134.7785  159.6989 H   0  0  0  0  0  0  0  0  0  0  0  0  # atno 6908 bound_to 6896
  152.4525  134.5370  159.9879 H   0  0  0  0  0  0  0  0  0  0  0  0  # atno 6909 bound_to 6896
  145.5318  139.2283  143.2614 H   0  0  0  0  0  0  0  0  0  0  0  0  # atno 7974 bound_to 7965
  154.4003  140.1388  156.3903 H   0  0  0  0  0  0  0  0  0  0  0  0  # atno 8008 bound_to 7997
  155.7920  140.3478  155.5334 H   0  0  0  0  0  0  0  0  0  0  0  0  # atno 8009 bound_to 7997
  155.8570  140.0950  157.1629 H   0  0  0  0  0  0  0  0  0  0  0  0  # atno 8010 bound_to 7997
  140.6186  143.8253  150.7148 H   0  0  0  0  0  0  0  0  0  0  0  0  # atno 10167 bound_to 10162
  157.3144  130.7416  149.6745 H   0  0  0  0  0  0  0  0  0  0  0  0  # atno 10718 bound_to 10713
  154.6590  135.2922  154.9890 H   0  0  0  0  0  0  0  0  0  0  0  0  # atno 10763 bound_to 10752
  154.0957  135.6584  153.4863 H   0  0  0  0  0  0  0  0  0  0  0  0  # atno 10764 bound_to 10752
  153.0419  135.5230  154.7533 H   0  0  0  0  0  0  0  0  0  0  0  0  # atno 10765 bound_to 10752
  140.7954  134.2920  157.4998 H   0  0  0  0  0  0  0  0  0  0  0  0  # atno 11005 bound_to 11000
  146.2039  140.6135  142.9090 LP  0  0  0  0  0  0  0  0  0  0  0  0  # atno 17320 bound_to 7965
  144.7622  140.5448  143.6728 LP  0  0  0  0  0  0  0  0  0  0  0  0  # atno 17321 bound_to 7965
  140.1838  143.4093  152.1913 LP  0  0  0  0  0  0  0  0  0  0  0  0  # atno 17342 bound_to 10162
  139.5420  144.7265  151.4704 LP  0  0  0  0  0  0  0  0  0  0  0  0  # atno 17343 bound_to 10162
  155.9680  130.4241  150.4595 LP  0  0  0  0  0  0  0  0  0  0  0  0  # atno 17370 bound_to 10713
  157.2599  131.0565  151.2326 LP  0  0  0  0  0  0  0  0  0  0  0  0  # atno 17371 bound_to 10713
  139.8727  134.9398  156.3753 LP  0  0  0  0  0  0  0  0  0  0  0  0  # atno 17394 bound_to 11000
  140.9348  133.7554  156.0071 LP  0  0  0  0  0  0  0  0  0  0  0  0  # atno 17395 bound_to 11000

$$$$
