AV-unprocessed.smi:66|AV-procd|sdf|617|dock10
  -GOLD-   2262016513D 1   1.00000     0.00000
 Structure written by MMmdl.
 28 30  0  0  0  0  0  0  0  0  2 V2000
  151.8344  139.2150  154.6951 O   0  0  0  0  0  0  0  0  0  0  0  0
  151.9748  139.4737  155.9103 C   0  0  0  0  0  0  0  0  0  0  0  0
  152.9989  139.2313  156.5875 O   0  5  0  0  0  0  0  0  0  0  0  0
  150.7871  140.1502  156.6147 C   0  0  2  0  0  0  0  0  0  0  0  0
  149.5469  140.2550  155.7089 C   0  0  0  0  0  0  0  0  0  0  0  0
  149.6636  141.6410  155.0773 C   0  0  1  0  0  0  0  0  0  0  0  0
  148.4193  142.1484  154.6428 O   0  0  0  0  0  0  0  0  0  0  0  0
  150.2734  142.4769  156.2024 C   0  0  0  0  0  0  0  0  0  0  0  0
  151.0859  141.5417  156.9690 N   0  0  0  0  0  0  0  0  0  0  0  0
  151.7258  141.8916  158.1190 C   0  0  0  0  0  0  0  0  0  0  0  0
  152.3988  140.9290  158.8052 N   0  0  0  0  0  0  0  0  0  0  0  0
  153.0466  141.2179  159.9368 C   0  0  0  0  0  0  0  0  0  0  0  0
  153.1521  142.3917  160.5610 N   0  0  0  0  0  0  0  0  0  0  0  0
  152.4826  143.3636  159.8825 C   0  0  0  0  0  0  0  0  0  0  0  0
  152.3674  144.6964  160.2155 N   0  0  0  0  0  0  0  0  0  0  0  0
  151.6027  145.2677  159.2302 C   0  0  0  0  0  0  0  0  0  0  0  0
  151.2136  144.4422  158.2972 N   0  0  0  0  0  0  0  0  0  0  0  0
  151.7500  143.2102  158.6688 C   0  0  0  0  0  0  0  0  0  0  0  0
  152.7871  145.1104  161.0351 H   0  0  0  0  0  0  0  0  0  0  0  0
  150.5281  139.5716  157.5026 H   0  0  0  0  0  0  0  0  0  0  0  0
  149.4800  139.4598  154.9649 H   0  0  0  0  0  0  0  0  0  0  0  0
  148.6493  140.1994  156.3269 H   0  0  0  0  0  0  0  0  0  0  0  0
  150.3506  141.6021  154.2307 H   0  0  0  0  0  0  0  0  0  0  0  0
  148.4105  143.0817  154.7904 H   0  0  0  0  0  0  0  0  0  0  0  0
  150.8674  143.2960  155.7965 H   0  0  0  0  0  0  0  0  0  0  0  0
  149.4991  142.8909  156.8505 H   0  0  0  0  0  0  0  0  0  0  0  0
  153.5515  140.3879  160.4089 H   0  0  0  0  0  0  0  0  0  0  0  0
  151.3434  146.3162  159.2254 H   0  0  0  0  0  0  0  0  0  0  0  0
  1  2  2  0  0  0  0
  2  3  1  0  0  0  0
  2  4  1  0  0  0  0
  4  5  1  0  0  0  0
  4 20  1  0  0  0  0
  4  9  1  0  0  0  0
  5  6  1  0  0  0  0
  5 21  1  0  0  0  0
  5 22  1  0  0  0  0
  6  7  1  0  0  0  0
  6  8  1  0  0  0  0
  6 23  1  0  0  0  0
  7 24  1  0  0  0  0
  8 25  1  0  0  0  0
  8 26  1  0  0  0  0
  8  9  1  0  0  0  0
  9 10  1  0  0  0  0
 10 11  1  0  0  0  0
 10 18  2  0  0  0  0
 11 12  2  0  0  0  0
 12 27  1  0  0  0  0
 12 13  1  0  0  0  0
 13 14  2  0  0  0  0
 14 15  1  0  0  0  0
 14 18  1  0  0  0  0
 15 16  1  0  0  0  0
 15 19  1  0  0  0  0
 16 17  2  0  0  0  0
 16 28  1  0  0  0  0
 17 18  1  0  0  0  0
M  CHG  1   3  -1
M  END
> <s_m_source_file>
AV-unprocessed.smi

> <i_m_source_file_index>
66

> <i_lp_mmshare_version>
43012

> <i_f3d_flags>
0

> <s_epik_input>
Tz1DKFtPSF0pW0NAQEhdMVtDSDJdW0NAQEhdKFtPSF0pW0NIMl1OMWMobltjSF1uMiljKGMyMylbbkhdW2NIXW4z

> <s_epik_cmdline>
J2VwaWtfcHl0aG9uJywgJy1waCcsICc3LjAnLCAnLXRuJywgJzgnLCAnLW1hJywgJzIwMCcsICctbWV0YWxfYmluZGluZycsICctaW1hZScsICc8aW5maWxlLm1hZT4nLCAnLW9tYWUnLCAnPG91dGZpbGUubWFlPic=

> <r_lp_tautomer_probability>
0.955585

> <r_epik_Ionization_Penalty>
0.00455415

> <r_epik_Ionization_Penalty_Charging>
0.000248217

> <r_epik_Ionization_Penalty_Neutral>
0.00430593

> <r_epik_State_Penalty>
0.0207074

> <r_epik_Charging_Adjusted_Penalty>
0.0209557

> <i_epik_Tot_Q>
-1

> <i_epik_Tot_abs_Q>
1

> <r_epik_Metal_State_Penalty>
0.337372

> <b_epik_Metal_Only>
0

> <s_lp_Force_Field>
OPLS_2005

> <r_lp_Energy>
24.8214

> <b_lp_Chiralities_Consistent>
1

> <s_lp_Variant>
AV-unprocessed.smi:66-1

> <Gold.Version>
5.8.1

> <Gold.Id.Protein>
6NUR|6NUR_protein|mol2

> <Gold.PLP.Fitness>
44.0479

> <Gold.PLP.PLP>
-32.5353

> <Gold.PLP.part.hbond>
-3.8830

> <Gold.PLP.part.metal>
0.0000

> <Gold.PLP.part.buried>
-2.1032

> <Gold.PLP.part.nonpolar>
-26.3396

> <Gold.PLP.part.repulsive>
0.2865

> <Gold.PLP.ligand.clash>
0.0000

> <Gold.PLP.ligand.torsion>
0.1878

> <Gold.PLP.Chemscore.Hbond>
3.9280

> <Gold.PLP.Chemscore.CHOScore>
0.0000

> <Gold.PLP.Chemscore.Metal>
0.0000

> <Gold.Chemscore.Hbonds>
donor molecule, donor type, donor heavy atom, donor atom, acceptor molecule, acceptor atom, score
      L1  H     7    24       P1  8028  1.00
      P1  H  7989  7998       L1     1  0.98
      P1  H  7997  8010       L1     3  2.00

> <Gold.PLP.Chemscore.Internal.Correction>
0.1041

> <Gold.Rescore>
     Score         DG    S(hbond)    S(metal)    S(lipo)     H(rot)  DE(clash)    DE(int)     intcor
     10.97     -14.90       2.90        0.00      36.86       1.78       1.42       2.50       ----

> <Gold.Chemscore.Fitness>
10.9698

> <Gold.Chemscore.DG>
-14.8952

> <Gold.Chemscore.ZeroCoef>
-5.4800

> <Gold.Chemscore.Hbond>
2.8954

> <Gold.Chemscore.Metal>
0.0000

> <Gold.Chemscore.Lipo>
36.8572

> <Gold.Chemscore.Internal_Hbond>
0.0000

> <Gold.Chemscore.DEClash>
1.4209

> <Gold.Chemscore.DEInternal>
2.5045

> <Gold.Chemscore.Rot>
1.7842

> <Gold.Chemscore.Internal.Correction>
   9.000000E+99

> <Gold.Chemscore.Hbonds>
donor molecule, donor type, donor heavy atom, donor atom, acceptor molecule, acceptor atom, score
      L1  H     7    24       P1  8028  0.99
      P1  H  7989  7998       L1     1  0.79
      P1  H  7997  8010       L1     3  0.98

> <Gold.Chemscore.Hbond.Weighted>
-9.6705

> <Gold.Chemscore.Metal.Weighted>
-0.0000

> <Gold.Chemscore.Lipo.Weighted>
-4.3123

> <Gold.Chemscore.Internal_Hbond.Weighted>
0.0000

> <Gold.Chemscore.DEClash.Weighted>
1.4209

> <Gold.Chemscore.DEInternal.Weighted>
2.5045

> <Gold.Chemscore.Rot.Weighted>
4.5676

> <Gold.Chemscore.Internal.Correction.Weighted>
   9.000000E+99

> <Gold.Protein.RotatedTorsions>
[ 6907 6896 6895 6894 ] final  176.02 input  -60.11 | X-H torsion
[ 7974 7965 7964 7962 ] final -126.97 input  175.53 | X-H torsion
[ 8008 7997 7996 7995 ] final   63.79 input   59.86 | X-H torsion
[ 10167 10162 10161 10158 ] final -170.89 input  -65.29 | X-H torsion
[ 10718 10713 10712 10709 ] final  -53.69 input   66.30 | X-H torsion
[ 10763 10752 10751 10750 ] final   65.01 input  -60.55 | X-H torsion
[ 11005 11000 10999 10996 ] final   74.99 input  -57.11 | X-H torsion

> <Gold.Protein.ActiveResidues>
 VAL166  LYS551  ARG553  GLY616  TRP617  ASP618  TYR619  PRO620  LYS621  CYS622 
 ASP623  PHE694  ASN695  SER759  ASP760  ASP761  ALA762  ILE779  LEU786  VAL792 
 PHE793  MET794  SER795  GLU796  ALA797  LYS798  CYS799  TRP800  GLU811  SER814 

> <Gold.Protein.RotatedAtoms>
  151.7268  133.3316  159.3329 H   0  0  0  0  0  0  0  0  0  0  0  0  # atno 6907 bound_to 6896
  150.7629  134.6399  159.6240 H   0  0  0  0  0  0  0  0  0  0  0  0  # atno 6908 bound_to 6896
  152.3617  134.6865  160.0257 H   0  0  0  0  0  0  0  0  0  0  0  0  # atno 6909 bound_to 6896
  144.9818  140.7647  143.4608 H   0  0  0  0  0  0  0  0  0  0  0  0  # atno 7974 bound_to 7965
  155.6358  140.3496  155.4698 H   0  0  0  0  0  0  0  0  0  0  0  0  # atno 8008 bound_to 7997
  155.9966  140.1204  157.0611 H   0  0  0  0  0  0  0  0  0  0  0  0  # atno 8009 bound_to 7997
  154.4235  140.1109  156.5625 H   0  0  0  0  0  0  0  0  0  0  0  0  # atno 8010 bound_to 7997
  139.5835  144.1371  152.1545 H   0  0  0  0  0  0  0  0  0  0  0  0  # atno 10167 bound_to 10162
  156.1514  130.4151  149.9939 H   0  0  0  0  0  0  0  0  0  0  0  0  # atno 10718 bound_to 10713
  153.0079  135.5372  154.6601 H   0  0  0  0  0  0  0  0  0  0  0  0  # atno 10763 bound_to 10752
  154.5811  135.2850  155.0733 H   0  0  0  0  0  0  0  0  0  0  0  0  # atno 10764 bound_to 10752
  154.1862  135.6508  153.5100 H   0  0  0  0  0  0  0  0  0  0  0  0  # atno 10765 bound_to 10752
  139.9365  134.7480  156.1216 H   0  0  0  0  0  0  0  0  0  0  0  0  # atno 11005 bound_to 11000
  145.2410  139.2072  143.4992 LP  0  0  0  0  0  0  0  0  0  0  0  0  # atno 17320 bound_to 7965
  146.3410  140.2306  142.8593 LP  0  0  0  0  0  0  0  0  0  0  0  0  # atno 17321 bound_to 7965
  140.0929  144.5605  150.7042 LP  0  0  0  0  0  0  0  0  0  0  0  0  # atno 17342 bound_to 10162
  140.7110  143.2505  151.4581 LP  0  0  0  0  0  0  0  0  0  0  0  0  # atno 17343 bound_to 10162
  156.7795  130.9216  151.3646 LP  0  0  0  0  0  0  0  0  0  0  0  0  # atno 17370 bound_to 10713
  157.6660  130.9008  149.9933 LP  0  0  0  0  0  0  0  0  0  0  0  0  # atno 17371 bound_to 10713
  141.0980  133.6688  156.2690 LP  0  0  0  0  0  0  0  0  0  0  0  0  # atno 17394 bound_to 11000
  140.6063  134.5503  157.5526 LP  0  0  0  0  0  0  0  0  0  0  0  0  # atno 17395 bound_to 11000

$$$$
