AV-unprocessed.smi:401|AV-procd|sdf|2494|dock1
  -GOLD-   2262022443D 1   1.00000     0.00000
 Structure written by MMmdl.
 43 44  0  0  0  0  0  0  0  0  1 V2000
  147.6521  135.8393  162.8177 C   0  0  0  0  0  0  0  0  0  0  0  0
  146.3885  135.5104  162.0013 C   0  0  0  0  0  0  0  0  0  0  0  0
  145.6125  134.3612  162.6634 C   0  0  0  0  0  0  0  0  0  0  0  0
  146.6826  135.1792  160.5197 C   0  0  0  0  0  0  0  0  0  0  0  0
  147.4893  136.2568  159.7870 C   0  0  0  0  0  0  0  0  0  0  0  0
  147.9862  137.1922  160.4137 O   0  0  0  0  0  0  0  0  0  0  0  0
  147.6337  136.0958  158.4623 N   0  0  0  0  0  0  0  0  0  0  0  0
  148.4008  136.9752  157.5884 C   0  0  0  0  0  0  0  0  0  0  0  0
  147.5460  137.5889  156.4843 C   0  0  0  0  0  0  0  0  0  0  0  0
  146.1708  137.2764  156.4333 C   0  0  0  0  0  0  0  0  0  0  0  0
  145.3796  137.8110  155.4009 C   0  0  0  0  0  0  0  0  0  0  0  0
  145.9995  138.6409  154.4497 C   0  0  0  0  0  0  0  0  0  0  0  0
  147.3124  138.9477  154.4819 N   0  0  0  0  0  0  0  0  0  0  0  0
  148.0795  138.4352  155.4751 C   0  0  0  0  0  0  0  0  0  0  0  0
  149.4405  138.7850  155.4807 N   0  0  0  0  0  0  0  0  0  0  0  0
  149.6721  140.2110  155.6645 C   0  0  0  0  0  0  0  0  0  0  0  0
  151.1687  140.4669  155.9116 C   0  0  0  0  0  0  0  0  0  0  0  0
  151.9330  139.9192  154.8403 O   0  0  0  0  0  0  0  0  0  0  0  0
  151.7521  138.5106  154.7164 C   0  0  0  0  0  0  0  0  0  0  0  0
  150.2718  138.2044  154.4325 C   0  0  0  0  0  0  0  0  0  0  0  0
  148.3722  135.0214  162.7789 H   0  0  0  0  0  0  0  0  0  0  0  0
  147.4060  136.0133  163.8656 H   0  0  0  0  0  0  0  0  0  0  0  0
  148.1477  136.7398  162.4563 H   0  0  0  0  0  0  0  0  0  0  0  0
  145.7419  136.3889  162.0290 H   0  0  0  0  0  0  0  0  0  0  0  0
  146.1971  133.4406  162.6691 H   0  0  0  0  0  0  0  0  0  0  0  0
  144.6794  134.1596  162.1364 H   0  0  0  0  0  0  0  0  0  0  0  0
  145.3584  134.6005  163.6963 H   0  0  0  0  0  0  0  0  0  0  0  0
  147.2232  134.2344  160.4497 H   0  0  0  0  0  0  0  0  0  0  0  0
  145.7436  135.0251  159.9855 H   0  0  0  0  0  0  0  0  0  0  0  0
  147.1918  135.2967  158.0314 H   0  0  0  0  0  0  0  0  0  0  0  0
  148.8013  137.7847  158.1993 H   0  0  0  0  0  0  0  0  0  0  0  0
  149.2714  136.4486  157.1974 H   0  0  0  0  0  0  0  0  0  0  0  0
  145.7272  136.6290  157.1757 H   0  0  0  0  0  0  0  0  0  0  0  0
  144.3249  137.5876  155.3370 H   0  0  0  0  0  0  0  0  0  0  0  0
  145.4266  139.0694  153.6409 H   0  0  0  0  0  0  0  0  0  0  0  0
  149.3423  140.7462  154.7731 H   0  0  0  0  0  0  0  0  0  0  0  0
  149.0839  140.5888  156.5013 H   0  0  0  0  0  0  0  0  0  0  0  0
  151.3621  141.5376  155.9760 H   0  0  0  0  0  0  0  0  0  0  0  0
  151.4853  140.0272  156.8589 H   0  0  0  0  0  0  0  0  0  0  0  0
  152.3755  138.1419  153.9020 H   0  0  0  0  0  0  0  0  0  0  0  0
  152.0849  138.0089  155.6266 H   0  0  0  0  0  0  0  0  0  0  0  0
  150.1126  137.1264  154.3886 H   0  0  0  0  0  0  0  0  0  0  0  0
  149.9892  138.6170  153.4630 H   0  0  0  0  0  0  0  0  0  0  0  0
  1  2  1  0  0  0  0
  1 21  1  0  0  0  0
  1 22  1  0  0  0  0
  1 23  1  0  0  0  0
  2  3  1  0  0  0  0
  2  4  1  0  0  0  0
  2 24  1  0  0  0  0
  3 25  1  0  0  0  0
  3 26  1  0  0  0  0
  3 27  1  0  0  0  0
  4  5  1  0  0  0  0
  4 28  1  0  0  0  0
  4 29  1  0  0  0  0
  5  6  2  0  0  0  0
  5  7  1  0  0  0  0
  7  8  1  0  0  0  0
  7 30  1  0  0  0  0
  8  9  1  0  0  0  0
  8 31  1  0  0  0  0
  8 32  1  0  0  0  0
  9 14  1  0  0  0  0
  9 10  2  0  0  0  0
 10 11  1  0  0  0  0
 10 33  1  0  0  0  0
 11 12  2  0  0  0  0
 11 34  1  0  0  0  0
 12 13  1  0  0  0  0
 12 35  1  0  0  0  0
 13 14  2  0  0  0  0
 14 15  1  0  0  0  0
 15 20  1  0  0  0  0
 15 16  1  0  0  0  0
 16 17  1  0  0  0  0
 16 36  1  0  0  0  0
 16 37  1  0  0  0  0
 17 18  1  0  0  0  0
 17 38  1  0  0  0  0
 17 39  1  0  0  0  0
 18 19  1  0  0  0  0
 19 20  1  0  0  0  0
 19 40  1  0  0  0  0
 19 41  1  0  0  0  0
 20 42  1  0  0  0  0
 20 43  1  0  0  0  0
M  END
> <s_m_source_file>
AV-unprocessed.smi

> <i_m_source_file_index>
401

> <i_lp_mmshare_version>
43012

> <i_f3d_flags>
0

> <s_epik_input>
W0NIM11bQ0hdKFtDSDNdKVtDSDJdQyg9TylbTkhdW0NIMl1jMVtjSF1bY0hdW2NIXW5jMU4yW0NIMl1bQ0gyXU9bQ0gyXVtDSDJdMg==

> <s_epik_cmdline>
J2VwaWtfcHl0aG9uJywgJy1waCcsICc3LjAnLCAnLXRuJywgJzgnLCAnLW1hJywgJzIwMCcsICctbWV0YWxfYmluZGluZycsICctaW1hZScsICc8aW5maWxlLm1hZT4nLCAnLW9tYWUnLCAnPG91dGZpbGUubWFlPic=

> <r_lp_tautomer_probability>
1

> <r_epik_Ionization_Penalty>
0.00505534

> <r_epik_Ionization_Penalty_Charging>
0

> <r_epik_Ionization_Penalty_Neutral>
0.00505534

> <r_epik_State_Penalty>
0.00367784

> <r_epik_Charging_Adjusted_Penalty>
0.00367784

> <i_epik_Tot_Q>
0

> <i_epik_Tot_abs_Q>
0

> <r_epik_Metal_State_Penalty>
-0

> <b_epik_Metal_Only>
0

> <s_lp_Force_Field>
OPLS_2005

> <r_lp_Energy>
19.3172

> <b_lp_Chiralities_Consistent>
1

> <s_lp_Variant>
AV-unprocessed.smi:401-1

> <Gold.Version>
5.8.1

> <Gold.Id.Protein>
6NUR|6NUR_protein|mol2

> <Gold.PLP.Fitness>
36.8474

> <Gold.PLP.PLP>
-27.0126

> <Gold.PLP.part.hbond>
-2.9613

> <Gold.PLP.part.metal>
0.0000

> <Gold.PLP.part.buried>
-4.9205

> <Gold.PLP.part.nonpolar>
-20.6809

> <Gold.PLP.part.repulsive>
0.2600

> <Gold.PLP.ligand.clash>
0.0000

> <Gold.PLP.ligand.torsion>
0.2003

> <Gold.PLP.Chemscore.Hbond>
2.3360

> <Gold.PLP.Chemscore.CHOScore>
1.0000

> <Gold.PLP.Chemscore.Metal>
0.0000

> <Gold.Chemscore.Hbonds>
donor molecule, donor type, donor heavy atom, donor atom, acceptor molecule, acceptor atom, score
      P1  H  6931  6943       L1     6  0.61
      P1  H  6934  6947       L1     6  0.71
      P1  H  7989  7998       L1    18  0.91
      L1  C    12    35       P1 10175  1.00

> <Gold.PLP.Chemscore.Internal.Correction>
0.2273

> <Gold.Rescore>
     Score         DG    S(hbond)    S(metal)    S(lipo)     H(rot)  DE(clash)    DE(int)     intcor
     14.65     -16.11       2.30        0.00      61.33       1.65       0.02       1.43       ----

> <Gold.Chemscore.Fitness>
14.6506

> <Gold.Chemscore.DG>
-16.1064

> <Gold.Chemscore.ZeroCoef>
-5.4800

> <Gold.Chemscore.Hbond>
2.2970

> <Gold.Chemscore.Metal>
0.0000

> <Gold.Chemscore.Lipo>
61.3272

> <Gold.Chemscore.Internal_Hbond>
0.0000

> <Gold.Chemscore.DEClash>
0.0237

> <Gold.Chemscore.DEInternal>
1.4321

> <Gold.Chemscore.Rot>
1.6488

> <Gold.Chemscore.Internal.Correction>
   9.000000E+99

> <Gold.Chemscore.Hbonds>
donor molecule, donor type, donor heavy atom, donor atom, acceptor molecule, acceptor atom, score
      P1  H  6931  6943       L1     6  0.59
      P1  H  6934  6947       L1     6  0.67
      P1  H  7989  7998       L1    18  0.55

> <Gold.Chemscore.Hbond.Weighted>
-7.6719

> <Gold.Chemscore.Metal.Weighted>
-0.0000

> <Gold.Chemscore.Lipo.Weighted>
-7.1753

> <Gold.Chemscore.Internal_Hbond.Weighted>
0.0000

> <Gold.Chemscore.DEClash.Weighted>
0.0237

> <Gold.Chemscore.DEInternal.Weighted>
1.4321

> <Gold.Chemscore.Rot.Weighted>
4.2208

> <Gold.Chemscore.Internal.Correction.Weighted>
   9.000000E+99

> <Gold.Protein.RotatedTorsions>
[ 6907 6896 6895 6894 ] final -122.80 input  -60.11 | X-H torsion
[ 7974 7965 7964 7962 ] final -164.19 input  175.53 | X-H torsion
[ 8008 7997 7996 7995 ] final  -36.89 input   59.86 | X-H torsion
[ 10167 10162 10161 10158 ] final   13.94 input  -65.29 | X-H torsion
[ 10718 10713 10712 10709 ] final -147.37 input   66.30 | X-H torsion
[ 10763 10752 10751 10750 ] final -110.10 input  -60.55 | X-H torsion
[ 11005 11000 10999 10996 ] final -112.59 input  -57.11 | X-H torsion

> <Gold.Protein.ActiveResidues>
 VAL166  LYS551  ARG553  GLY616  TRP617  ASP618  TYR619  PRO620  LYS621  CYS622 
 ASP623  PHE694  ASN695  SER759  ASP760  ASP761  ALA762  ILE779  LEU786  VAL792 
 PHE793  MET794  SER795  GLU796  ALA797  LYS798  CYS799  TRP800  GLU811  SER814 

> <Gold.Protein.RotatedAtoms>
  150.8610  133.7643  159.2992 H   0  0  0  0  0  0  0  0  0  0  0  0  # atno 6907 bound_to 6896
  151.5286  135.1066  159.9906 H   0  0  0  0  0  0  0  0  0  0  0  0  # atno 6908 bound_to 6896
  152.4626  133.7811  159.6907 H   0  0  0  0  0  0  0  0  0  0  0  0  # atno 6909 bound_to 6896
  144.7304  140.2997  143.6206 H   0  0  0  0  0  0  0  0  0  0  0  0  # atno 7974 bound_to 7965
  154.4064  140.1619  156.2447 H   0  0  0  0  0  0  0  0  0  0  0  0  # atno 8008 bound_to 7997
  155.9171  140.3423  155.6121 H   0  0  0  0  0  0  0  0  0  0  0  0  # atno 8009 bound_to 7997
  155.7267  140.0775  157.2298 H   0  0  0  0  0  0  0  0  0  0  0  0  # atno 8010 bound_to 7997
  140.5969  143.8684  150.6926 H   0  0  0  0  0  0  0  0  0  0  0  0  # atno 10167 bound_to 10162
  156.4067  130.7961  151.2175 H   0  0  0  0  0  0  0  0  0  0  0  0  # atno 10718 bound_to 10713
  154.8230  135.4576  154.0834 H   0  0  0  0  0  0  0  0  0  0  0  0  # atno 10763 bound_to 10752
  153.2172  135.6889  153.8050 H   0  0  0  0  0  0  0  0  0  0  0  0  # atno 10764 bound_to 10752
  153.7480  135.3302  155.3292 H   0  0  0  0  0  0  0  0  0  0  0  0  # atno 10765 bound_to 10752
  141.0666  133.9449  157.2567 H   0  0  0  0  0  0  0  0  0  0  0  0  # atno 11005 bound_to 11000
  145.7773  139.1878  143.2178 LP  0  0  0  0  0  0  0  0  0  0  0  0  # atno 17320 bound_to 7965
  146.0863  140.7707  142.9617 LP  0  0  0  0  0  0  0  0  0  0  0  0  # atno 17321 bound_to 7965
  140.2220  143.3801  152.1635 LP  0  0  0  0  0  0  0  0  0  0  0  0  # atno 17342 bound_to 10162
  139.5264  144.7107  151.5214 LP  0  0  0  0  0  0  0  0  0  0  0  0  # atno 17343 bound_to 10162
  157.7506  131.0270  150.3987 LP  0  0  0  0  0  0  0  0  0  0  0  0  # atno 17370 bound_to 10713
  156.4277  130.3965  149.6781 LP  0  0  0  0  0  0  0  0  0  0  0  0  # atno 17371 bound_to 10713
  139.9482  135.0180  156.8916 LP  0  0  0  0  0  0  0  0  0  0  0  0  # atno 17394 bound_to 11000
  140.5761  134.0397  155.7447 LP  0  0  0  0  0  0  0  0  0  0  0  0  # atno 17395 bound_to 11000

$$$$
