AV-unprocessed.smi:3246|AV-procd|sdf|12411|dock10
  -GOLD-   2272018293D 1   1.00000     0.00000
 Structure written by MMmdl.
 36 37  0  0  0  0  0  0  0  0  2 V2000
  150.9241  140.2031  158.4931 O   0  0  0  0  0  0  0  0  0  0  0  0
  151.9703  140.6803  158.0546 C   0  0  0  0  0  0  0  0  0  0  0  0
  152.9995  141.2514  159.0442 C   0  0  0  0  0  0  0  0  0  0  0  0
  152.6036  142.5004  159.7001 N   0  0  0  0  0  0  0  0  0  0  0  0
  152.0389  143.5951  158.9279 C   0  0  0  0  0  0  0  0  0  0  0  0
  151.5551  144.6114  159.9720 C   0  0  0  0  0  0  0  0  0  0  0  0
  152.1976  144.1863  161.2968 C   0  0  0  0  0  0  0  0  0  0  0  0
  152.7192  142.7904  161.0023 C   0  0  0  0  0  0  0  0  0  0  0  0
  153.1725  142.0487  161.8724 O   0  0  0  0  0  0  0  0  0  0  0  0
  152.2537  140.7174  156.7410 N   0  0  0  0  0  0  0  0  0  0  0  0
  151.3849  140.2205  155.6816 C   0  0  0  0  0  0  0  0  0  0  0  0
  150.2824  141.2344  155.3356 C   0  0  0  0  0  0  0  0  0  0  0  0
  149.2707  140.6663  154.3602 C   0  0  0  0  0  0  0  0  0  0  0  0
  148.1765  141.4443  153.9213 C   0  0  0  0  0  0  0  0  0  0  0  0
  147.2504  140.8858  153.0156 C   0  0  0  0  0  0  0  0  0  0  0  0
  147.4395  139.5615  152.5694 C   0  0  0  0  0  0  0  0  0  0  0  0
  148.4977  138.8472  153.0124 N   0  3  0  0  0  0  0  0  0  0  0  0
  149.4063  139.3457  153.8796 C   0  0  0  0  0  0  0  0  0  0  0  0
  153.2109  140.4946  159.8015 H   0  0  0  0  0  0  0  0  0  0  0  0
  153.9360  141.4124  158.5087 H   0  0  0  0  0  0  0  0  0  0  0  0
  152.8145  144.0256  158.2930 H   0  0  0  0  0  0  0  0  0  0  0  0
  151.2240  143.2524  158.2888 H   0  0  0  0  0  0  0  0  0  0  0  0
  151.8247  145.6315  159.6963 H   0  0  0  0  0  0  0  0  0  0  0  0
  150.4684  144.5715  160.0582 H   0  0  0  0  0  0  0  0  0  0  0  0
  153.0315  144.8367  161.5623 H   0  0  0  0  0  0  0  0  0  0  0  0
  151.4815  144.1796  162.1192 H   0  0  0  0  0  0  0  0  0  0  0  0
  153.1318  141.1283  156.4582 H   0  0  0  0  0  0  0  0  0  0  0  0
  151.9772  139.9800  154.7967 H   0  0  0  0  0  0  0  0  0  0  0  0
  150.9389  139.2849  156.0197 H   0  0  0  0  0  0  0  0  0  0  0  0
  149.7669  141.5506  156.2435 H   0  0  0  0  0  0  0  0  0  0  0  0
  150.7183  142.1353  154.9012 H   0  0  0  0  0  0  0  0  0  0  0  0
  148.0459  142.4571  154.2742 H   0  0  0  0  0  0  0  0  0  0  0  0
  146.4075  141.4652  152.6682 H   0  0  0  0  0  0  0  0  0  0  0  0
  146.7814  139.0558  151.8778 H   0  0  0  0  0  0  0  0  0  0  0  0
  150.2074  138.6775  154.1613 H   0  0  0  0  0  0  0  0  0  0  0  0
  148.6159  137.8902  152.6778 H   0  0  0  0  0  0  0  0  0  0  0  0
  1  2  2  0  0  0  0
  2  3  1  0  0  0  0
  2 10  1  0  0  0  0
  3  4  1  0  0  0  0
  3 19  1  0  0  0  0
  3 20  1  0  0  0  0
  4  8  1  0  0  0  0
  4  5  1  0  0  0  0
  5  6  1  0  0  0  0
  5 21  1  0  0  0  0
  5 22  1  0  0  0  0
  6  7  1  0  0  0  0
  6 23  1  0  0  0  0
  6 24  1  0  0  0  0
  7  8  1  0  0  0  0
  7 25  1  0  0  0  0
  7 26  1  0  0  0  0
  8  9  2  0  0  0  0
 10 11  1  0  0  0  0
 10 27  1  0  0  0  0
 11 12  1  0  0  0  0
 11 28  1  0  0  0  0
 11 29  1  0  0  0  0
 12 13  1  0  0  0  0
 12 30  1  0  0  0  0
 12 31  1  0  0  0  0
 13 18  1  0  0  0  0
 13 14  2  0  0  0  0
 14 15  1  0  0  0  0
 14 32  1  0  0  0  0
 15 16  2  0  0  0  0
 15 33  1  0  0  0  0
 16 17  1  0  0  0  0
 16 34  1  0  0  0  0
 17 18  2  0  0  0  0
 17 36  1  0  0  0  0
 18 35  1  0  0  0  0
M  CHG  1  17   1
M  END
> <s_m_source_file>
AV-unprocessed.smi

> <i_m_source_file_index>
3246

> <i_lp_mmshare_version>
43012

> <i_f3d_flags>
0

> <s_epik_input>
Tz1DMVtDSDJdW0NIMl1bQ0gyXU4xW0NIMl1DKD1PKVtOSF1bQ0gyXVtDSDJdYzJbY0hdW2NIXVtjSF1uW2NIXTI=

> <s_epik_cmdline>
J2VwaWtfcHl0aG9uJywgJy1waCcsICc3LjAnLCAnLXRuJywgJzgnLCAnLW1hJywgJzIwMCcsICctbWV0YWxfYmluZGluZycsICctaW1hZScsICc8aW5maWxlLm1hZT4nLCAnLW9tYWUnLCAnPG91dGZpbGUubWFlPic=

> <r_epik_Ionization_Penalty>
2.27275

> <r_epik_Ionization_Penalty_Charging>
2.27275

> <r_epik_Ionization_Penalty_Neutral>
5.87859e-08

> <r_epik_State_Penalty>
2.42145

> <r_epik_Charging_Adjusted_Penalty>
4.69419

> <i_epik_Tot_Q>
1

> <i_epik_Tot_abs_Q>
1

> <r_epik_Metal_State_Penalty>
2.43419

> <b_epik_Metal_Only>
0

> <s_lp_Force_Field>
OPLS_2005

> <r_lp_Energy>
18.8936

> <b_lp_Chiralities_Consistent>
1

> <s_lp_Variant>
AV-unprocessed.smi:3246-2

> <Gold.Version>
5.8.1

> <Gold.Id.Protein>
6NUR|6NUR_protein|mol2

> <Gold.PLP.Fitness>
48.5475

> <Gold.PLP.PLP>
-43.3916

> <Gold.PLP.part.hbond>
-2.0000

> <Gold.PLP.part.metal>
0.0000

> <Gold.PLP.part.buried>
-1.7395

> <Gold.PLP.part.nonpolar>
-39.6084

> <Gold.PLP.part.repulsive>
0.2384

> <Gold.PLP.ligand.clash>
0.0000

> <Gold.PLP.ligand.torsion>
0.4300

> <Gold.PLP.Chemscore.Hbond>
2.0000

> <Gold.PLP.Chemscore.CHOScore>
0.0000

> <Gold.PLP.Chemscore.Metal>
0.0000

> <Gold.Chemscore.Hbonds>
donor molecule, donor type, donor heavy atom, donor atom, acceptor molecule, acceptor atom, score
      L1  H    17    36       P1  7948  2.00

> <Gold.PLP.Chemscore.Internal.Correction>
0.0158

> <Gold.Rescore>
     Score         DG    S(hbond)    S(metal)    S(lipo)     H(rot)  DE(clash)    DE(int)     intcor
     13.92     -14.67       1.00        0.00      92.97       1.96       0.22       0.53       ----

> <Gold.Chemscore.Fitness>
13.9180

> <Gold.Chemscore.DG>
-14.6698

> <Gold.Chemscore.ZeroCoef>
-5.4800

> <Gold.Chemscore.Hbond>
0.9955

> <Gold.Chemscore.Metal>
0.0000

> <Gold.Chemscore.Lipo>
92.9653

> <Gold.Chemscore.Internal_Hbond>
0.0000

> <Gold.Chemscore.DEClash>
0.2188

> <Gold.Chemscore.DEInternal>
0.5329

> <Gold.Chemscore.Rot>
1.9579

> <Gold.Chemscore.Internal.Correction>
   9.000000E+99

> <Gold.Chemscore.Hbonds>
donor molecule, donor type, donor heavy atom, donor atom, acceptor molecule, acceptor atom, score
      L1  H    17    36       P1  7948  1.00

> <Gold.Chemscore.Hbond.Weighted>
-3.3249

> <Gold.Chemscore.Metal.Weighted>
-0.0000

> <Gold.Chemscore.Lipo.Weighted>
-10.8769

> <Gold.Chemscore.Internal_Hbond.Weighted>
0.0000

> <Gold.Chemscore.DEClash.Weighted>
0.2188

> <Gold.Chemscore.DEInternal.Weighted>
0.5329

> <Gold.Chemscore.Rot.Weighted>
5.0121

> <Gold.Chemscore.Internal.Correction.Weighted>
   9.000000E+99

> <Gold.Protein.RotatedTorsions>
[ 6907 6896 6895 6894 ] final -140.92 input  -60.11 | X-H torsion
[ 7974 7965 7964 7962 ] final  -71.31 input  175.53 | X-H torsion
[ 8008 7997 7996 7995 ] final  -13.91 input   59.86 | X-H torsion
[ 10167 10162 10161 10158 ] final  117.28 input  -65.29 | X-H torsion
[ 10718 10713 10712 10709 ] final -145.87 input   66.30 | X-H torsion
[ 10763 10752 10751 10750 ] final  -43.68 input  -60.55 | X-H torsion
[ 11005 11000 10999 10996 ] final -177.92 input  -57.11 | X-H torsion

> <Gold.Protein.ActiveResidues>
 VAL166  LYS551  ARG553  GLY616  TRP617  ASP618  TYR619  PRO620  LYS621  CYS622 
 ASP623  PHE694  ASN695  SER759  ASP760  ASP761  ALA762  ILE779  LEU786  VAL792 
 PHE793  MET794  SER795  GLU796  ALA797  LYS798  CYS799  TRP800  GLU811  SER814 

> <Gold.Protein.RotatedAtoms>
  151.0670  133.5497  159.2629 H   0  0  0  0  0  0  0  0  0  0  0  0  # atno 6907 bound_to 6896
  151.2451  135.0602  159.9050 H   0  0  0  0  0  0  0  0  0  0  0  0  # atno 6908 bound_to 6896
  152.5406  134.0439  159.8133 H   0  0  0  0  0  0  0  0  0  0  0  0  # atno 6909 bound_to 6896
  145.6797  140.9192  143.0839 H   0  0  0  0  0  0  0  0  0  0  0  0  # atno 7974 bound_to 7965
  154.5254  140.2237  155.8900 H   0  0  0  0  0  0  0  0  0  0  0  0  # atno 8008 bound_to 7997
  156.1707  140.3122  155.8933 H   0  0  0  0  0  0  0  0  0  0  0  0  # atno 8009 bound_to 7997
  155.3564  140.0458  157.3037 H   0  0  0  0  0  0  0  0  0  0  0  0  # atno 8010 bound_to 7997
  139.6189  144.7097  151.2677 H   0  0  0  0  0  0  0  0  0  0  0  0  # atno 10167 bound_to 10162
  156.3878  130.7870  151.2069 H   0  0  0  0  0  0  0  0  0  0  0  0  # atno 10718 bound_to 10713
  153.9996  135.6695  153.4758 H   0  0  0  0  0  0  0  0  0  0  0  0  # atno 10763 bound_to 10752
  153.0668  135.4996  154.8214 H   0  0  0  0  0  0  0  0  0  0  0  0  # atno 10764 bound_to 10752
  154.7060  135.3088  154.9232 H   0  0  0  0  0  0  0  0  0  0  0  0  # atno 10765 bound_to 10752
  140.4355  134.6479  157.4732 H   0  0  0  0  0  0  0  0  0  0  0  0  # atno 11005 bound_to 11000
  144.7030  139.8680  143.7438 LP  0  0  0  0  0  0  0  0  0  0  0  0  # atno 17320 bound_to 7965
  146.0975  139.3968  143.0367 LP  0  0  0  0  0  0  0  0  0  0  0  0  # atno 17321 bound_to 7965
  140.7369  143.6693  150.8096 LP  0  0  0  0  0  0  0  0  0  0  0  0  # atno 17342 bound_to 10162
  140.0300  143.5453  152.2764 LP  0  0  0  0  0  0  0  0  0  0  0  0  # atno 17343 bound_to 10162
  157.7497  131.0325  150.4228 LP  0  0  0  0  0  0  0  0  0  0  0  0  # atno 17370 bound_to 10713
  156.4483  130.4006  149.6652 LP  0  0  0  0  0  0  0  0  0  0  0  0  # atno 17371 bound_to 10713
  140.0105  134.6698  155.9388 LP  0  0  0  0  0  0  0  0  0  0  0  0  # atno 17394 bound_to 11000
  141.1728  133.6538  156.4714 LP  0  0  0  0  0  0  0  0  0  0  0  0  # atno 17395 bound_to 11000

$$$$
