AV-unprocessed.smi:102|AV-procd|sdf|967|dock1
  -GOLD-   2262017513D 1   1.00000     0.00000
 Structure written by MMmdl.
 43 44  0  0  0  0  0  0  0  0  2 V2000
  143.8314  134.0421  151.5792 C   0  0  0  0  0  0  0  0  0  0  0  0
  145.2200  134.6572  151.4649 C   0  0  0  0  0  0  0  0  0  0  0  0
  146.2231  133.9593  151.3144 O   0  0  0  0  0  0  0  0  0  0  0  0
  145.1940  135.9939  151.5498 O   0  0  0  0  0  0  0  0  0  0  0  0
  146.4049  136.7306  151.4882 C   0  0  0  0  0  0  0  0  0  0  0  0
  146.2538  138.0587  152.2425 C   0  0  2  0  0  0  0  0  0  0  0  0
  147.4737  138.7839  152.2372 O   0  0  0  0  0  0  0  0  0  0  0  0
  147.5186  139.6307  153.3463 C   0  0  2  0  0  0  0  0  0  0  0  0
  148.8796  139.4797  153.9940 N   0  0  0  0  0  0  0  0  0  0  0  0
  149.2867  138.2443  154.4677 C   0  0  0  0  0  0  0  0  0  0  0  0
  150.4854  138.0832  155.0631 C   0  0  0  0  0  0  0  0  0  0  0  0
  150.8501  136.8713  155.5160 F   0  0  0  0  0  0  0  0  0  0  0  0
  151.3758  139.2323  155.2156 C   0  0  0  0  0  0  0  0  0  0  0  0
  152.4724  139.0784  155.7507 O   0  0  0  0  0  0  0  0  0  0  0  0
  150.9422  140.4412  154.7535 N   0  5  0  0  0  0  0  0  0  0  0  0
  149.7247  140.6111  154.1589 C   0  0  0  0  0  0  0  0  0  0  0  0
  149.3159  141.7046  153.7686 O   0  0  0  0  0  0  0  0  0  0  0  0
  146.3634  139.2496  154.3007 C   0  0  2  0  0  0  0  0  0  0  0  0
  146.8040  139.0763  155.6443 O   0  0  0  0  0  0  0  0  0  0  0  0
  147.3306  140.1042  156.3272 C   0  0  0  0  0  0  0  0  0  0  0  0
  148.1032  139.6444  157.5561 C   0  0  0  0  0  0  0  0  0  0  0  0
  147.2268  141.2971  156.0406 O   0  0  0  0  0  0  0  0  0  0  0  0
  145.8698  137.9344  153.7182 C   0  0  1  0  0  0  0  0  0  0  0  0
  144.4612  137.8356  153.8816 O   0  0  0  0  0  0  0  0  0  0  0  0
  143.9268  137.7533  155.1116 C   0  0  0  0  0  0  0  0  0  0  0  0
  142.4138  137.5853  155.0759 C   0  0  0  0  0  0  0  0  0  0  0  0
  144.5432  137.7983  156.1763 O   0  0  0  0  0  0  0  0  0  0  0  0
  143.0883  134.6806  151.1005 H   0  0  0  0  0  0  0  0  0  0  0  0
  143.5590  133.9205  152.6277 H   0  0  0  0  0  0  0  0  0  0  0  0
  143.8065  133.0641  151.0984 H   0  0  0  0  0  0  0  0  0  0  0  0
  147.2180  136.1425  151.9151 H   0  0  0  0  0  0  0  0  0  0  0  0
  146.6598  136.9314  150.4467 H   0  0  0  0  0  0  0  0  0  0  0  0
  145.5176  138.6811  151.7309 H   0  0  0  0  0  0  0  0  0  0  0  0
  147.4455  140.6574  152.9873 H   0  0  0  0  0  0  0  0  0  0  0  0
  148.6332  137.3910  154.3697 H   0  0  0  0  0  0  0  0  0  0  0  0
  145.6021  140.0266  154.2135 H   0  0  0  0  0  0  0  0  0  0  0  0
  147.4200  139.2316  158.2984 H   0  0  0  0  0  0  0  0  0  0  0  0
  148.6411  140.4792  158.0059 H   0  0  0  0  0  0  0  0  0  0  0  0
  148.8255  138.8745  157.2833 H   0  0  0  0  0  0  0  0  0  0  0  0
  146.4094  137.1124  154.1914 H   0  0  0  0  0  0  0  0  0  0  0  0
  142.1541  136.5639  154.7975 H   0  0  0  0  0  0  0  0  0  0  0  0
  141.9718  138.2668  154.3488 H   0  0  0  0  0  0  0  0  0  0  0  0
  141.9824  137.7976  156.0544 H   0  0  0  0  0  0  0  0  0  0  0  0
  1  2  1  0  0  0  0
  1 28  1  0  0  0  0
  1 29  1  0  0  0  0
  1 30  1  0  0  0  0
  2  3  2  0  0  0  0
  2  4  1  0  0  0  0
  4  5  1  0  0  0  0
  5  6  1  0  0  0  0
  5 31  1  0  0  0  0
  5 32  1  0  0  0  0
  6 23  1  0  0  0  0
  6  7  1  0  0  0  0
  6 33  1  0  0  0  0
  7  8  1  0  0  0  0
  8  9  1  0  0  0  0
  8 18  1  0  0  0  0
  8 34  1  0  0  0  0
  9 16  1  0  0  0  0
  9 10  1  0  0  0  0
 10 11  2  0  0  0  0
 10 35  1  0  0  0  0
 11 12  1  0  0  0  0
 11 13  1  0  0  0  0
 13 14  2  0  0  0  0
 13 15  1  0  0  0  0
 15 16  1  0  0  0  0
 16 17  2  0  0  0  0
 18 19  1  0  0  0  0
 18 23  1  0  0  0  0
 18 36  1  0  0  0  0
 19 20  1  0  0  0  0
 20 21  1  0  0  0  0
 20 22  2  0  0  0  0
 21 37  1  0  0  0  0
 21 38  1  0  0  0  0
 21 39  1  0  0  0  0
 23 24  1  0  0  0  0
 23 40  1  0  0  0  0
 24 25  1  0  0  0  0
 25 26  1  0  0  0  0
 25 27  2  0  0  0  0
 26 41  1  0  0  0  0
 26 42  1  0  0  0  0
 26 43  1  0  0  0  0
M  CHG  1  15  -1
M  END
> <s_m_source_file>
AV-unprocessed.smi

> <i_m_source_file_index>
102

> <i_lp_mmshare_version>
43012

> <i_f3d_flags>
0

> <s_epik_input>
W0NIM11DKD1PKU9bQ0gyXVtDQEBIXTFPW0NASF0oW0NAQEhdKE9DKD1PKVtDSDNdKVtDQEhdMU9DKD1PKVtDSDNdKW4yW2NIXWMoRiljKD1PKVtuSF1jMj1P

> <s_epik_cmdline>
J2VwaWtfcHl0aG9uJywgJy1waCcsICc3LjAnLCAnLXRuJywgJzgnLCAnLW1hJywgJzIwMCcsICctbWV0YWxfYmluZGluZycsICctaW1hZScsICc8aW5maWxlLm1hZT4nLCAnLW9tYWUnLCAnPG91dGZpbGUubWFlPic=

> <r_epik_Ionization_Penalty>
1.40304

> <r_epik_Ionization_Penalty_Charging>
1.43915e-08

> <r_epik_Ionization_Penalty_Neutral>
1.40304

> <r_epik_State_Penalty>
1.48536

> <r_epik_Charging_Adjusted_Penalty>
1.48536

> <i_epik_Tot_Q>
-1

> <i_epik_Tot_abs_Q>
1

> <r_epik_Metal_State_Penalty>
0.00663881

> <b_epik_Metal_Only>
0

> <s_epik_Chemistry_Notes>
This compound has an ester and may undergo hydrolysis at high or low pH. This compound contains an acetal/aminal-like group ( X-CH(R)-Y where X, Y are N, S, or O) that may be acid/base labile, releasing an aldehyde.

> <s_lp_Force_Field>
OPLS_2005

> <r_lp_Energy>
21.6407

> <b_lp_Chiralities_Consistent>
1

> <s_lp_Variant>
AV-unprocessed.smi:102-23

> <Gold.Version>
5.8.1

> <Gold.Id.Protein>
6NUR|6NUR_protein|mol2

> <Gold.PLP.Fitness>
34.7385

> <Gold.PLP.PLP>
-27.0682

> <Gold.PLP.part.hbond>
-2.6308

> <Gold.PLP.part.metal>
0.0000

> <Gold.PLP.part.buried>
0.6348

> <Gold.PLP.part.nonpolar>
-26.5572

> <Gold.PLP.part.repulsive>
2.7320

> <Gold.PLP.ligand.clash>
0.0000

> <Gold.PLP.ligand.torsion>
0.4131

> <Gold.PLP.Chemscore.Hbond>
2.0002

> <Gold.PLP.Chemscore.CHOScore>
0.6715

> <Gold.PLP.Chemscore.Metal>
0.0000

> <Gold.Chemscore.Hbonds>
donor molecule, donor type, donor heavy atom, donor atom, acceptor molecule, acceptor atom, score
      P1  H  7989  7998       L1    15  0.50
      P1  H  7997  8010       L1    14  0.55
      P1  H  8011  8017       L1    17  0.64
      L1  C    10    35       P1  7948  0.23

> <Gold.PLP.Chemscore.Internal.Correction>
0.4814

> <Gold.Rescore>
     Score         DG    S(hbond)    S(metal)    S(lipo)     H(rot)  DE(clash)    DE(int)     intcor
     -2.39      -3.62       1.28        0.00      34.93       4.00       1.83       4.17       ----

> <Gold.Chemscore.Fitness>
-2.3859

> <Gold.Chemscore.DG>
-3.6231

> <Gold.Chemscore.ZeroCoef>
-5.4800

> <Gold.Chemscore.Hbond>
1.2827

> <Gold.Chemscore.Metal>
0.0000

> <Gold.Chemscore.Lipo>
34.9258

> <Gold.Chemscore.Internal_Hbond>
0.0000

> <Gold.Chemscore.DEClash>
1.8343

> <Gold.Chemscore.DEInternal>
4.1747

> <Gold.Chemscore.Rot>
3.9951

> <Gold.Chemscore.Internal.Correction>
   9.000000E+99

> <Gold.Chemscore.Hbonds>
donor molecule, donor type, donor heavy atom, donor atom, acceptor molecule, acceptor atom, score
      P1  H  7989  7998       L1    15  0.02
      P1  H  7997  8010       L1    14  0.56
      P1  H  8011  8017       L1    17  0.64

> <Gold.Chemscore.Hbond.Weighted>
-4.2842

> <Gold.Chemscore.Metal.Weighted>
-0.0000

> <Gold.Chemscore.Lipo.Weighted>
-4.0863

> <Gold.Chemscore.Internal_Hbond.Weighted>
0.0000

> <Gold.Chemscore.DEClash.Weighted>
1.8343

> <Gold.Chemscore.DEInternal.Weighted>
4.1747

> <Gold.Chemscore.Rot.Weighted>
10.2274

> <Gold.Chemscore.Internal.Correction.Weighted>
   9.000000E+99

> <Gold.Protein.RotatedTorsions>
[ 6907 6896 6895 6894 ] final  111.11 input  -60.11 | X-H torsion
[ 7974 7965 7964 7962 ] final   56.00 input  175.53 | X-H torsion
[ 8008 7997 7996 7995 ] final   91.48 input   59.86 | X-H torsion
[ 10167 10162 10161 10158 ] final  -55.34 input  -65.29 | X-H torsion
[ 10718 10713 10712 10709 ] final -162.57 input   66.30 | X-H torsion
[ 10763 10752 10751 10750 ] final  -41.70 input  -60.55 | X-H torsion
[ 11005 11000 10999 10996 ] final  -34.93 input  -57.11 | X-H torsion

> <Gold.Protein.ActiveResidues>
 VAL166  LYS551  ARG553  GLY616  TRP617  ASP618  TYR619  PRO620  LYS621  CYS622 
 ASP623  PHE694  ASN695  SER759  ASP760  ASP761  ALA762  ILE779  LEU786  VAL792 
 PHE793  MET794  SER795  GLU796  ALA797  LYS798  CYS799  TRP800  GLU811  SER814 

> <Gold.Protein.RotatedAtoms>
  152.4986  133.8704  159.7295 H   0  0  0  0  0  0  0  0  0  0  0  0  # atno 6907 bound_to 6896
  150.9192  133.6892  159.2843 H   0  0  0  0  0  0  0  0  0  0  0  0  # atno 6908 bound_to 6896
  151.4275  135.1010  159.9685 H   0  0  0  0  0  0  0  0  0  0  0  0  # atno 6909 bound_to 6896
  145.9445  139.3917  143.0343 H   0  0  0  0  0  0  0  0  0  0  0  0  # atno 7974 bound_to 7965
  156.0242  140.3337  155.7071 H   0  0  0  0  0  0  0  0  0  0  0  0  # atno 8008 bound_to 7997
  155.5978  140.0652  157.2759 H   0  0  0  0  0  0  0  0  0  0  0  0  # atno 8009 bound_to 7997
  154.4328  140.1815  156.1130 H   0  0  0  0  0  0  0  0  0  0  0  0  # atno 8010 bound_to 7997
  140.6380  143.2492  151.5065 H   0  0  0  0  0  0  0  0  0  0  0  0  # atno 10167 bound_to 10162
  156.6124  130.8856  151.2939 H   0  0  0  0  0  0  0  0  0  0  0  0  # atno 10718 bound_to 10713
  153.9668  135.6733  153.4746 H   0  0  0  0  0  0  0  0  0  0  0  0  # atno 10763 bound_to 10752
  153.0811  135.4922  154.8502 H   0  0  0  0  0  0  0  0  0  0  0  0  # atno 10764 bound_to 10752
  154.7241  135.3123  154.8959 H   0  0  0  0  0  0  0  0  0  0  0  0  # atno 10765 bound_to 10752
  140.9756  133.7085  156.1596 H   0  0  0  0  0  0  0  0  0  0  0  0  # atno 11005 bound_to 11000
  145.8255  140.9657  143.0876 LP  0  0  0  0  0  0  0  0  0  0  0  0  # atno 17320 bound_to 7965
  144.6784  140.0096  143.7484 LP  0  0  0  0  0  0  0  0  0  0  0  0  # atno 17321 bound_to 7965
  139.5590  144.2204  152.1660 LP  0  0  0  0  0  0  0  0  0  0  0  0  # atno 17342 bound_to 10162
  140.1466  144.5153  150.6712 LP  0  0  0  0  0  0  0  0  0  0  0  0  # atno 17343 bound_to 10162
  157.7250  130.9611  150.1598 LP  0  0  0  0  0  0  0  0  0  0  0  0  # atno 17370 bound_to 10713
  156.2379  130.3688  149.8370 LP  0  0  0  0  0  0  0  0  0  0  0  0  # atno 17371 bound_to 10713
  140.7264  134.4302  157.5570 LP  0  0  0  0  0  0  0  0  0  0  0  0  # atno 17394 bound_to 11000
  139.8929  134.8743  156.2249 LP  0  0  0  0  0  0  0  0  0  0  0  0  # atno 17395 bound_to 11000

$$$$
