AV-unprocessed.smi:2439|AV-procd|sdf|9607|dock6
  -GOLD-   2272013243D 1   1.00000     0.00000
 Structure written by MMmdl.
 41 43  0  0  0  0  0  0  0  0  2 V2000
  153.1648  138.7550  159.6022 N   0  0  0  0  0  0  0  0  0  0  0  0
  152.6462  139.4638  158.8489 C   0  0  0  0  0  0  0  0  0  0  0  0
  151.9923  140.3551  157.8985 C   0  0  0  0  0  0  0  0  0  0  0  0
  151.5701  141.6292  158.3327 C   0  0  0  0  0  0  0  0  0  0  0  0
  150.9349  142.4897  157.4184 C   0  0  0  0  0  0  0  0  0  0  0  0
  150.7485  142.0394  156.0989 C   0  0  0  0  0  0  0  0  0  0  0  0
  151.1484  140.8241  155.6699 N   0  0  0  0  0  0  0  0  0  0  0  0
  151.7584  139.9884  156.5459 C   0  0  0  0  0  0  0  0  0  0  0  0
  152.1630  138.7294  156.0678 N   0  0  0  0  0  0  0  0  0  0  0  0
  152.0611  138.4061  154.6516 C   0  0  0  0  0  0  0  0  0  0  0  0
  151.0178  137.3108  154.3944 C   0  0  2  0  0  0  0  0  0  0  0  0
  149.6001  137.7850  154.7638 C   0  0  0  0  0  0  0  0  0  0  0  0
  148.6196  136.6822  154.6051 N   0  3  2  0  0  0  0  0  0  0  0  0
  147.2168  137.0785  154.8956 C   0  0  0  0  0  0  0  0  0  0  0  0
  146.9547  137.2278  156.4067 C   0  0  0  0  0  0  0  0  0  0  0  0
  147.3534  135.9544  157.1652 C   0  0  0  0  0  0  0  0  0  0  0  0
  148.8079  135.5766  156.8506 C   0  0  0  0  0  0  0  0  0  0  0  0
  149.0305  135.4468  155.3275 C   0  0  2  0  0  0  0  0  0  0  0  0
  150.4837  135.0804  154.9685 C   0  0  0  0  0  0  0  0  0  0  0  0
  151.3431  136.1880  155.2075 O   0  0  0  0  0  0  0  0  0  0  0  0
  151.7278  141.9483  159.3531 H   0  0  0  0  0  0  0  0  0  0  0  0
  150.5993  143.4706  157.7212 H   0  0  0  0  0  0  0  0  0  0  0  0
  150.2662  142.6708  155.3676 H   0  0  0  0  0  0  0  0  0  0  0  0
  152.2909  137.9740  156.7260 H   0  0  0  0  0  0  0  0  0  0  0  0
  151.8105  139.3040  154.0852 H   0  0  0  0  0  0  0  0  0  0  0  0
  153.0379  138.0673  154.3043 H   0  0  0  0  0  0  0  0  0  0  0  0
  151.0453  137.0273  153.3402 H   0  0  0  0  0  0  0  0  0  0  0  0
  149.5910  138.1579  155.7882 H   0  0  0  0  0  0  0  0  0  0  0  0
  149.3109  138.6187  154.1231 H   0  0  0  0  0  0  0  0  0  0  0  0
  146.9745  138.0042  154.3722 H   0  0  0  0  0  0  0  0  0  0  0  0
  146.5546  136.3135  154.4878 H   0  0  0  0  0  0  0  0  0  0  0  0
  147.5066  138.0808  156.8026 H   0  0  0  0  0  0  0  0  0  0  0  0
  145.9001  137.4445  156.5787 H   0  0  0  0  0  0  0  0  0  0  0  0
  147.2261  136.1000  158.2381 H   0  0  0  0  0  0  0  0  0  0  0  0
  146.6918  135.1351  156.8810 H   0  0  0  0  0  0  0  0  0  0  0  0
  149.4808  136.3242  157.2720 H   0  0  0  0  0  0  0  0  0  0  0  0
  149.0544  134.6358  157.3436 H   0  0  0  0  0  0  0  0  0  0  0  0
  148.3909  134.6381  154.9710 H   0  0  0  0  0  0  0  0  0  0  0  0
  150.8216  134.2314  155.5631 H   0  0  0  0  0  0  0  0  0  0  0  0
  150.5572  134.7772  153.9227 H   0  0  0  0  0  0  0  0  0  0  0  0
  148.6424  136.4487  153.6226 H   0  0  0  0  0  0  0  0  0  0  0  0
  1  2  3  0  0  0  0
  2  3  1  0  0  0  0
  3  8  1  0  0  0  0
  3  4  2  0  0  0  0
  4  5  1  0  0  0  0
  4 21  1  0  0  0  0
  5  6  2  0  0  0  0
  5 22  1  0  0  0  0
  6  7  1  0  0  0  0
  6 23  1  0  0  0  0
  7  8  2  0  0  0  0
  8  9  1  0  0  0  0
  9 10  1  0  0  0  0
  9 24  1  0  0  0  0
 10 11  1  0  0  0  0
 10 25  1  0  0  0  0
 10 26  1  0  0  0  0
 11 20  1  0  0  0  0
 11 12  1  0  0  0  0
 11 27  1  0  0  0  0
 12 13  1  0  0  0  0
 12 28  1  0  0  0  0
 12 29  1  0  0  0  0
 13 18  1  0  0  0  0
 13 14  1  0  0  0  0
 13 41  1  0  0  0  0
 14 15  1  0  0  0  0
 14 30  1  0  0  0  0
 14 31  1  0  0  0  0
 15 16  1  0  0  0  0
 15 32  1  0  0  0  0
 15 33  1  0  0  0  0
 16 17  1  0  0  0  0
 16 34  1  0  0  0  0
 16 35  1  0  0  0  0
 17 18  1  0  0  0  0
 17 36  1  0  0  0  0
 17 37  1  0  0  0  0
 18 19  1  0  0  0  0
 18 38  1  0  0  0  0
 19 20  1  0  0  0  0
 19 39  1  0  0  0  0
 19 40  1  0  0  0  0
M  CHG  1  13   1
M  END
> <s_m_source_file>
AV-unprocessed.smi

> <i_m_source_file_index>
2439

> <i_lp_mmshare_version>
43012

> <i_f3d_flags>
0

> <s_epik_input>
TiNDYzFbY0hdW2NIXVtjSF1uYzFbTkhdW0NIMl1bQ0BIXShbQ0gyXTIpT1tDSDJdW0NAQEhdKE4yMylbQ0gyXVtDSDJdW0NIMl1bQ0gyXTM=

> <s_epik_cmdline>
J2VwaWtfcHl0aG9uJywgJy1waCcsICc3LjAnLCAnLXRuJywgJzgnLCAnLW1hJywgJzIwMCcsICctbWV0YWxfYmluZGluZycsICctaW1hZScsICc8aW5maWxlLm1hZT4nLCAnLW9tYWUnLCAnPG91dGZpbGUubWFlPic=

> <r_epik_Ionization_Penalty>
0.0803594

> <r_epik_Ionization_Penalty_Charging>
0.0803403

> <r_epik_Ionization_Penalty_Neutral>
1.90988e-05

> <r_epik_State_Penalty>
0.0711481

> <r_epik_Charging_Adjusted_Penalty>
0.151488

> <i_epik_Tot_Q>
1

> <i_epik_Tot_abs_Q>
1

> <r_epik_Metal_State_Penalty>
0.0711482

> <b_epik_Metal_Only>
0

> <s_lp_Force_Field>
OPLS_2005

> <r_lp_Energy>
31.0257

> <b_lp_Chiralities_Consistent>
1

> <s_lp_Variant>
AV-unprocessed.smi:2439-5

> <Gold.Version>
5.8.1

> <Gold.Id.Protein>
6NUR|6NUR_protein|mol2

> <Gold.PLP.Fitness>
40.0994

> <Gold.PLP.PLP>
-27.0210

> <Gold.PLP.part.hbond>
-2.9633

> <Gold.PLP.part.metal>
0.0000

> <Gold.PLP.part.buried>
-4.4267

> <Gold.PLP.part.nonpolar>
-20.6740

> <Gold.PLP.part.repulsive>
0.2912

> <Gold.PLP.ligand.clash>
0.0000

> <Gold.PLP.ligand.torsion>
0.0477

> <Gold.PLP.Chemscore.Hbond>
3.3910

> <Gold.PLP.Chemscore.CHOScore>
1.0000

> <Gold.PLP.Chemscore.Metal>
0.0000

> <Gold.Chemscore.Hbonds>
donor molecule, donor type, donor heavy atom, donor atom, acceptor molecule, acceptor atom, score
      L1  H    13    41       P1  7948  2.00
      P1  H  7989  7998       L1     7  0.39
      P1  H 10752 10763       L1    20  1.00
      L1  C     6    23       P1  8028  1.00

> <Gold.PLP.Chemscore.Internal.Correction>
0.0006

> <Gold.Rescore>
     Score         DG    S(hbond)    S(metal)    S(lipo)     H(rot)  DE(clash)    DE(int)     intcor
     16.64     -17.48       2.29        0.00      64.87       1.27       0.82       0.02       ----

> <Gold.Chemscore.Fitness>
16.6431

> <Gold.Chemscore.DG>
-17.4792

> <Gold.Chemscore.ZeroCoef>
-5.4800

> <Gold.Chemscore.Hbond>
2.2906

> <Gold.Chemscore.Metal>
0.0000

> <Gold.Chemscore.Lipo>
64.8663

> <Gold.Chemscore.Internal_Hbond>
0.0000

> <Gold.Chemscore.DEClash>
0.8204

> <Gold.Chemscore.DEInternal>
0.0157

> <Gold.Chemscore.Rot>
1.2659

> <Gold.Chemscore.Internal.Correction>
   9.000000E+99

> <Gold.Chemscore.Hbonds>
donor molecule, donor type, donor heavy atom, donor atom, acceptor molecule, acceptor atom, score
      L1  H    13    41       P1  7948  1.00
      P1  H  7989  7998       L1     7  0.30
      P1  H 10752 10763       L1    20  0.14

> <Gold.Chemscore.Hbond.Weighted>
-7.6506

> <Gold.Chemscore.Metal.Weighted>
-0.0000

> <Gold.Chemscore.Lipo.Weighted>
-7.5894

> <Gold.Chemscore.Internal_Hbond.Weighted>
0.0000

> <Gold.Chemscore.DEClash.Weighted>
0.8204

> <Gold.Chemscore.DEInternal.Weighted>
0.0157

> <Gold.Chemscore.Rot.Weighted>
3.2408

> <Gold.Chemscore.Internal.Correction.Weighted>
   9.000000E+99

> <Gold.Protein.RotatedTorsions>
[ 6907 6896 6895 6894 ] final  146.43 input  -60.11 | X-H torsion
[ 7974 7965 7964 7962 ] final  119.98 input  175.53 | X-H torsion
[ 8008 7997 7996 7995 ] final  -73.15 input   59.86 | X-H torsion
[ 10167 10162 10161 10158 ] final  -38.72 input  -65.29 | X-H torsion
[ 10718 10713 10712 10709 ] final  -25.47 input   66.30 | X-H torsion
[ 10763 10752 10751 10750 ] final   52.63 input  -60.55 | X-H torsion
[ 11005 11000 10999 10996 ] final   66.96 input  -57.11 | X-H torsion

> <Gold.Protein.ActiveResidues>
 VAL166  LYS551  ARG553  GLY616  TRP617  ASP618  TYR619  PRO620  LYS621  CYS622 
 ASP623  PHE694  ASN695  SER759  ASP760  ASP761  ALA762  ILE779  LEU786  VAL792 
 PHE793  MET794  SER795  GLU796  ALA797  LYS798  CYS799  TRP800  GLU811  SER814 

> <Gold.Protein.RotatedAtoms>
  152.1680  133.4625  159.4894 H   0  0  0  0  0  0  0  0  0  0  0  0  # atno 6907 bound_to 6896
  150.6916  134.1988  159.4323 H   0  0  0  0  0  0  0  0  0  0  0  0  # atno 6908 bound_to 6896
  151.9894  134.9987  160.0611 H   0  0  0  0  0  0  0  0  0  0  0  0  # atno 6909 bound_to 6896
  145.1366  139.3294  143.4637 H   0  0  0  0  0  0  0  0  0  0  0  0  # atno 7974 bound_to 7965
  154.5224  140.0784  156.8196 H   0  0  0  0  0  0  0  0  0  0  0  0  # atno 8008 bound_to 7997
  155.3548  140.3414  155.4221 H   0  0  0  0  0  0  0  0  0  0  0  0  # atno 8009 bound_to 7997
  156.1695  140.1615  156.8459 H   0  0  0  0  0  0  0  0  0  0  0  0  # atno 8010 bound_to 7997
  140.7084  143.3259  151.2680 H   0  0  0  0  0  0  0  0  0  0  0  0  # atno 10167 bound_to 10162
  156.4640  130.4510  149.6911 H   0  0  0  0  0  0  0  0  0  0  0  0  # atno 10718 bound_to 10713
  152.9790  135.5806  154.4610 H   0  0  0  0  0  0  0  0  0  0  0  0  # atno 10763 bound_to 10752
  154.4186  135.2771  155.1992 H   0  0  0  0  0  0  0  0  0  0  0  0  # atno 10764 bound_to 10752
  154.3751  135.6159  153.5814 H   0  0  0  0  0  0  0  0  0  0  0  0  # atno 10765 bound_to 10752
  139.9799  134.6760  156.0282 H   0  0  0  0  0  0  0  0  0  0  0  0  # atno 11005 bound_to 11000
  146.3509  140.1386  142.8595 LP  0  0  0  0  0  0  0  0  0  0  0  0  # atno 17320 bound_to 7965
  145.0578  140.9065  143.4957 LP  0  0  0  0  0  0  0  0  0  0  0  0  # atno 17321 bound_to 7965
  139.6727  143.9991  152.2763 LP  0  0  0  0  0  0  0  0  0  0  0  0  # atno 17342 bound_to 10162
  139.9595  144.6567  150.8093 LP  0  0  0  0  0  0  0  0  0  0  0  0  # atno 17343 bound_to 10162
  156.3687  130.7519  151.2500 LP  0  0  0  0  0  0  0  0  0  0  0  0  # atno 17370 bound_to 10713
  157.7496  131.0329  150.4249 LP  0  0  0  0  0  0  0  0  0  0  0  0  # atno 17371 bound_to 10713
  141.1473  133.6554  156.3905 LP  0  0  0  0  0  0  0  0  0  0  0  0  # atno 17394 bound_to 11000
  140.5117  134.6389  157.5286 LP  0  0  0  0  0  0  0  0  0  0  0  0  # atno 17395 bound_to 11000

$$$$
