AV-unprocessed.smi:3185|AV-procd|sdf|12168|dock4
  -GOLD-   2272018 03D 1   1.00000     0.00000
 Structure written by MMmdl.
 38 39  0  0  0  0  0  0  0  0  2 V2000
  144.5339  135.0294  151.5341 N   0  0  0  0  0  0  0  0  0  0  0  0
  145.1222  136.0250  151.5559 C   0  0  0  0  0  0  0  0  0  0  0  0
  145.8742  137.2895  151.5861 C   0  0  0  0  0  0  0  0  0  0  0  0
  146.1229  137.8092  153.0090 C   0  0  0  0  0  0  0  0  0  0  0  0
  146.9069  139.1286  153.0352 C   0  0  0  0  0  0  0  0  0  0  0  0
  148.3637  138.8826  152.9960 N   0  3  0  0  0  0  0  0  0  0  0  0
  149.0961  139.1807  154.2498 C   0  0  1  0  0  0  0  0  0  0  0  0
  150.4906  138.5270  154.1733 C   0  0  0  0  0  0  0  0  0  0  0  0
  151.3396  138.8307  155.4161 C   0  0  0  0  0  0  0  0  0  0  0  0
  151.4809  140.3438  155.6264 C   0  0  0  0  0  0  0  0  0  0  0  0
  150.1024  141.0111  155.7279 C   0  0  0  0  0  0  0  0  0  0  0  0
  149.2287  140.7114  154.4893 C   0  0  2  0  0  0  0  0  0  0  0  0
  147.9351  141.3740  154.6040 N   0  0  0  0  0  0  0  0  0  0  0  0
  147.3829  142.3168  153.7611 C   0  0  0  0  0  0  0  0  0  0  0  0
  146.1495  142.6334  154.2535 C   0  0  0  0  0  0  0  0  0  0  0  0
  146.0325  141.8266  155.4189 C   0  0  0  0  0  0  0  0  0  0  0  0
  147.1005  141.0736  155.6255 N   0  0  0  0  0  0  0  0  0  0  0  0
  146.8204  137.1277  151.0692 H   0  0  0  0  0  0  0  0  0  0  0  0
  145.3134  138.0243  151.0082 H   0  0  0  0  0  0  0  0  0  0  0  0
  145.1667  137.9398  153.5171 H   0  0  0  0  0  0  0  0  0  0  0  0
  146.6693  137.0503  153.5706 H   0  0  0  0  0  0  0  0  0  0  0  0
  146.6144  139.7432  152.1868 H   0  0  0  0  0  0  0  0  0  0  0  0
  146.6597  139.6907  153.9366 H   0  0  0  0  0  0  0  0  0  0  0  0
  148.4925  137.9016  152.7935 H   0  0  0  0  0  0  0  0  0  0  0  0
  148.5669  138.7256  155.0893 H   0  0  0  0  0  0  0  0  0  0  0  0
  150.3890  137.4469  154.0599 H   0  0  0  0  0  0  0  0  0  0  0  0
  151.0170  138.8807  153.2854 H   0  0  0  0  0  0  0  0  0  0  0  0
  150.8799  138.3783  156.2960 H   0  0  0  0  0  0  0  0  0  0  0  0
  152.3256  138.3765  155.3135 H   0  0  0  0  0  0  0  0  0  0  0  0
  152.0572  140.5417  156.5309 H   0  0  0  0  0  0  0  0  0  0  0  0
  152.0421  140.7807  154.7994 H   0  0  0  0  0  0  0  0  0  0  0  0
  149.6064  140.6591  156.6336 H   0  0  0  0  0  0  0  0  0  0  0  0
  150.2262  142.0885  155.8447 H   0  0  0  0  0  0  0  0  0  0  0  0
  149.7312  141.1447  153.6225 H   0  0  0  0  0  0  0  0  0  0  0  0
  147.9056  142.6787  152.8879 H   0  0  0  0  0  0  0  0  0  0  0  0
  145.4383  143.3357  153.8443 H   0  0  0  0  0  0  0  0  0  0  0  0
  145.2083  141.7637  156.1141 H   0  0  0  0  0  0  0  0  0  0  0  0
  148.7753  139.4191  152.2459 H   0  0  0  0  0  0  0  0  0  0  0  0
  1  2  3  0  0  0  0
  2  3  1  0  0  0  0
  3  4  1  0  0  0  0
  3 18  1  0  0  0  0
  3 19  1  0  0  0  0
  4  5  1  0  0  0  0
  4 20  1  0  0  0  0
  4 21  1  0  0  0  0
  5  6  1  0  0  0  0
  5 22  1  0  0  0  0
  5 23  1  0  0  0  0
  6  7  1  0  0  0  0
  6 24  1  0  0  0  0
  6 38  1  0  0  0  0
  7 12  1  0  0  0  0
  7  8  1  0  0  0  0
  7 25  1  0  0  0  0
  8  9  1  0  0  0  0
  8 26  1  0  0  0  0
  8 27  1  0  0  0  0
  9 10  1  0  0  0  0
  9 28  1  0  0  0  0
  9 29  1  0  0  0  0
 10 11  1  0  0  0  0
 10 30  1  0  0  0  0
 10 31  1  0  0  0  0
 11 12  1  0  0  0  0
 11 32  1  0  0  0  0
 11 33  1  0  0  0  0
 12 13  1  0  0  0  0
 12 34  1  0  0  0  0
 13 17  1  0  0  0  0
 13 14  1  0  0  0  0
 14 15  2  0  0  0  0
 14 35  1  0  0  0  0
 15 16  1  0  0  0  0
 15 36  1  0  0  0  0
 16 17  2  0  0  0  0
 16 37  1  0  0  0  0
M  CHG  1   6   1
M  END
> <s_m_source_file>
AV-unprocessed.smi

> <i_m_source_file_index>
3185

> <i_lp_mmshare_version>
43012

> <i_f3d_flags>
0

> <s_epik_input>
TiNDW0NIMl1bQ0gyXVtDSDJdW05IXVtDQEBIXTFbQ0gyXVtDSDJdW0NIMl1bQ0gyXVtDQEhdMW4yW2NIXVtjSF1bY0hdbjI=

> <s_epik_cmdline>
J2VwaWtfcHl0aG9uJywgJy1waCcsICc3LjAnLCAnLXRuJywgJzgnLCAnLW1hJywgJzIwMCcsICctbWV0YWxfYmluZGluZycsICctaW1hZScsICc8aW5maWxlLm1hZT4nLCAnLW9tYWUnLCAnPG91dGZpbGUubWFlPic=

> <r_lp_tautomer_probability>
1

> <r_epik_Ionization_Penalty>
0.0143465

> <r_epik_Ionization_Penalty_Charging>
0.0143338

> <r_epik_Ionization_Penalty_Neutral>
1.27047e-05

> <r_epik_State_Penalty>
0.0112058

> <r_epik_Charging_Adjusted_Penalty>
0.0255397

> <i_epik_Tot_Q>
1

> <i_epik_Tot_abs_Q>
1

> <r_epik_Metal_State_Penalty>
0.0112253

> <b_epik_Metal_Only>
0

> <s_lp_Force_Field>
OPLS_2005

> <r_lp_Energy>
15.0666

> <b_lp_Chiralities_Consistent>
1

> <s_lp_Variant>
AV-unprocessed.smi:3185-4

> <Gold.Version>
5.8.1

> <Gold.Id.Protein>
6NUR|6NUR_protein|mol2

> <Gold.PLP.Fitness>
42.8952

> <Gold.PLP.PLP>
-35.2646

> <Gold.PLP.part.hbond>
-1.8563

> <Gold.PLP.part.metal>
0.0000

> <Gold.PLP.part.buried>
-2.4401

> <Gold.PLP.part.nonpolar>
-32.1633

> <Gold.PLP.part.repulsive>
0.2975

> <Gold.PLP.ligand.clash>
0.0000

> <Gold.PLP.ligand.torsion>
0.6128

> <Gold.PLP.Chemscore.Hbond>
2.9100

> <Gold.PLP.Chemscore.CHOScore>
0.0000

> <Gold.PLP.Chemscore.Metal>
0.0000

> <Gold.Chemscore.Hbonds>
donor molecule, donor type, donor heavy atom, donor atom, acceptor molecule, acceptor atom, score
      L1  H     6    24       P1  7948  2.00
      L1  H     6    38       P1  7957  0.91

> <Gold.PLP.Chemscore.Internal.Correction>
0.1262

> <Gold.Rescore>
     Score         DG    S(hbond)    S(metal)    S(lipo)     H(rot)  DE(clash)    DE(int)     intcor
     14.22     -16.19       1.96        0.00      76.63       1.88       0.24       1.73       ----

> <Gold.Chemscore.Fitness>
14.2211

> <Gold.Chemscore.DG>
-16.1882

> <Gold.Chemscore.ZeroCoef>
-5.4800

> <Gold.Chemscore.Hbond>
1.9604

> <Gold.Chemscore.Metal>
0.0000

> <Gold.Chemscore.Lipo>
76.6270

> <Gold.Chemscore.Internal_Hbond>
0.0000

> <Gold.Chemscore.DEClash>
0.2420

> <Gold.Chemscore.DEInternal>
1.7250

> <Gold.Chemscore.Rot>
1.8769

> <Gold.Chemscore.Internal.Correction>
   9.000000E+99

> <Gold.Chemscore.Hbonds>
donor molecule, donor type, donor heavy atom, donor atom, acceptor molecule, acceptor atom, score
      L1  H     6    24       P1  7948  0.98
      L1  H     6    38       P1  7957  0.87

> <Gold.Chemscore.Hbond.Weighted>
-6.5477

> <Gold.Chemscore.Metal.Weighted>
-0.0000

> <Gold.Chemscore.Lipo.Weighted>
-8.9654

> <Gold.Chemscore.Internal_Hbond.Weighted>
0.0000

> <Gold.Chemscore.DEClash.Weighted>
0.2420

> <Gold.Chemscore.DEInternal.Weighted>
1.7250

> <Gold.Chemscore.Rot.Weighted>
4.8049

> <Gold.Chemscore.Internal.Correction.Weighted>
   9.000000E+99

> <Gold.Protein.RotatedTorsions>
[ 6907 6896 6895 6894 ] final  169.75 input  -60.11 | X-H torsion
[ 7974 7965 7964 7962 ] final  160.17 input  175.53 | X-H torsion
[ 8008 7997 7996 7995 ] final   75.47 input   59.86 | X-H torsion
[ 10167 10162 10161 10158 ] final -140.39 input  -65.29 | X-H torsion
[ 10718 10713 10712 10709 ] final -159.21 input   66.30 | X-H torsion
[ 10763 10752 10751 10750 ] final  162.75 input  -60.55 | X-H torsion
[ 11005 11000 10999 10996 ] final  120.11 input  -57.11 | X-H torsion

> <Gold.Protein.ActiveResidues>
 VAL166  LYS551  ARG553  GLY616  TRP617  ASP618  TYR619  PRO620  LYS621  CYS622 
 ASP623  PHE694  ASN695  SER759  ASP760  ASP761  ALA762  ILE779  LEU786  VAL792 
 PHE793  MET794  SER795  GLU796  ALA797  LYS798  CYS799  TRP800  GLU811  SER814 

> <Gold.Protein.RotatedAtoms>
  151.8270  133.3403  159.3601 H   0  0  0  0  0  0  0  0  0  0  0  0  # atno 6907 bound_to 6896
  150.7276  134.5519  159.5808 H   0  0  0  0  0  0  0  0  0  0  0  0  # atno 6908 bound_to 6896
  152.2964  134.7663  160.0418 H   0  0  0  0  0  0  0  0  0  0  0  0  # atno 6909 bound_to 6896
  144.7751  139.7720  143.6282 H   0  0  0  0  0  0  0  0  0  0  0  0  # atno 7974 bound_to 7965
  155.8134  140.3472  155.5471 H   0  0  0  0  0  0  0  0  0  0  0  0  # atno 8008 bound_to 7997
  155.8417  140.0942  157.1750 H   0  0  0  0  0  0  0  0  0  0  0  0  # atno 8009 bound_to 7997
  154.4005  140.1393  156.3724 H   0  0  0  0  0  0  0  0  0  0  0  0  # atno 8010 bound_to 7997
  139.8286  143.7478  152.2666 H   0  0  0  0  0  0  0  0  0  0  0  0  # atno 10167 bound_to 10162
  156.5649  130.8663  151.2820 H   0  0  0  0  0  0  0  0  0  0  0  0  # atno 10718 bound_to 10713
  154.2831  135.2763  155.2688 H   0  0  0  0  0  0  0  0  0  0  0  0  # atno 10763 bound_to 10752
  154.5200  135.5759  153.6677 H   0  0  0  0  0  0  0  0  0  0  0  0  # atno 10764 bound_to 10752
  152.9926  135.6202  154.2992 H   0  0  0  0  0  0  0  0  0  0  0  0  # atno 10765 bound_to 10752
  139.9172  134.9633  156.7758 H   0  0  0  0  0  0  0  0  0  0  0  0  # atno 11005 bound_to 11000
  146.1925  139.5173  142.9796 LP  0  0  0  0  0  0  0  0  0  0  0  0  # atno 17320 bound_to 7965
  145.6210  141.0322  143.1915 LP  0  0  0  0  0  0  0  0  0  0  0  0  # atno 17321 bound_to 7965
  139.7678  144.7486  151.0269 LP  0  0  0  0  0  0  0  0  0  0  0  0  # atno 17342 bound_to 10162
  140.7808  143.4679  151.0187 LP  0  0  0  0  0  0  0  0  0  0  0  0  # atno 17343 bound_to 10162
  157.7361  130.9773  150.2116 LP  0  0  0  0  0  0  0  0  0  0  0  0  # atno 17370 bound_to 10713
  156.2766  130.3728  149.7977 LP  0  0  0  0  0  0  0  0  0  0  0  0  # atno 17371 bound_to 10713
  140.6584  133.9667  155.7792 LP  0  0  0  0  0  0  0  0  0  0  0  0  # atno 17394 bound_to 11000
  141.0660  134.0276  157.3593 LP  0  0  0  0  0  0  0  0  0  0  0  0  # atno 17395 bound_to 11000

$$$$
