AV-unprocessed.smi:2528|AV-procd|sdf|9951|dock10
  -GOLD-   2272013593D 1   1.00000     0.00000
 Structure written by MMmdl.
 44 46  0  0  0  0  0  0  0  0  2 V2000
  152.8349  139.7543  157.1386 O   0  0  0  0  0  0  0  0  0  0  0  0
  151.8707  140.2148  156.5268 C   0  0  0  0  0  0  0  0  0  0  0  0
  151.2657  139.5754  155.5153 N   0  0  0  0  0  0  0  0  0  0  0  0
  151.6369  138.2551  155.0166 C   0  0  0  0  0  0  0  0  0  0  0  0
  150.3977  137.4136  154.6629 C   0  0  1  0  0  0  0  0  0  0  0  0
  150.6993  135.9046  154.7049 C   0  0  0  0  0  0  0  0  0  0  0  0
  149.4728  135.1208  154.4170 N   0  3  1  0  0  0  0  0  0  0  0  0
  149.6937  133.6517  154.3724 C   0  0  0  0  0  0  0  0  0  0  0  0
  149.8612  133.0438  155.7780 C   0  0  0  0  0  0  0  0  0  0  0  0
  148.6776  133.4115  156.6828 C   0  0  0  0  0  0  0  0  0  0  0  0
  148.4836  134.9341  156.7172 C   0  0  0  0  0  0  0  0  0  0  0  0
  148.3304  135.5068  155.2910 C   0  0  1  0  0  0  0  0  0  0  0  0
  148.1451  137.0369  155.2805 C   0  0  0  0  0  0  0  0  0  0  0  0
  149.3676  137.6847  155.6079 O   0  0  0  0  0  0  0  0  0  0  0  0
  151.2808  141.3965  156.7784 N   0  0  0  0  0  0  0  0  0  0  0  0
  151.6221  142.3534  157.7712 C   0  0  0  0  0  0  0  0  0  0  0  0
  152.3196  141.8359  158.8860 C   0  0  0  0  0  0  0  0  0  0  0  0
  152.7056  142.7041  159.9256 C   0  0  0  0  0  0  0  0  0  0  0  0
  152.3807  144.0685  159.8251 C   0  0  0  0  0  0  0  0  0  0  0  0
  151.6817  144.5014  158.6833 C   0  0  0  0  0  0  0  0  0  0  0  0
  151.3131  143.6716  157.6844 N   0  0  0  0  0  0  0  0  0  0  0  0
  150.4843  140.0292  155.0651 H   0  0  0  0  0  0  0  0  0  0  0  0
  152.2447  138.4050  154.1240 H   0  0  0  0  0  0  0  0  0  0  0  0
  152.2703  137.7303  155.7340 H   0  0  0  0  0  0  0  0  0  0  0  0
  150.0592  137.6891  153.6619 H   0  0  0  0  0  0  0  0  0  0  0  0
  151.4637  135.6596  153.9668 H   0  0  0  0  0  0  0  0  0  0  0  0
  151.1046  135.6348  155.6802 H   0  0  0  0  0  0  0  0  0  0  0  0
  148.8349  133.1930  153.8809 H   0  0  0  0  0  0  0  0  0  0  0  0
  150.5606  133.4234  153.7509 H   0  0  0  0  0  0  0  0  0  0  0  0
  149.9449  131.9592  155.7031 H   0  0  0  0  0  0  0  0  0  0  0  0
  150.7919  133.3886  156.2293 H   0  0  0  0  0  0  0  0  0  0  0  0
  147.7700  132.9337  156.3116 H   0  0  0  0  0  0  0  0  0  0  0  0
  148.8406  133.0290  157.6908 H   0  0  0  0  0  0  0  0  0  0  0  0
  147.6008  135.1739  157.3108 H   0  0  0  0  0  0  0  0  0  0  0  0
  149.3270  135.4013  157.2270 H   0  0  0  0  0  0  0  0  0  0  0  0
  147.4315  135.0658  154.8577 H   0  0  0  0  0  0  0  0  0  0  0  0
  147.8006  137.3765  154.3024 H   0  0  0  0  0  0  0  0  0  0  0  0
  147.3811  137.3337  155.9995 H   0  0  0  0  0  0  0  0  0  0  0  0
  150.4892  141.6362  156.2003 H   0  0  0  0  0  0  0  0  0  0  0  0
  152.5611  140.7847  158.9476 H   0  0  0  0  0  0  0  0  0  0  0  0
  153.2414  142.3285  160.7849 H   0  0  0  0  0  0  0  0  0  0  0  0
  152.6590  144.7647  160.6023 H   0  0  0  0  0  0  0  0  0  0  0  0
  151.4113  145.5406  158.5686 H   0  0  0  0  0  0  0  0  0  0  0  0
  149.2051  135.3879  153.4804 H   0  0  0  0  0  0  0  0  0  0  0  0
  1  2  2  0  0  0  0
  2  3  1  0  0  0  0
  2 15  1  0  0  0  0
  3  4  1  0  0  0  0
  3 22  1  0  0  0  0
  4  5  1  0  0  0  0
  4 23  1  0  0  0  0
  4 24  1  0  0  0  0
  5 14  1  0  0  0  0
  5  6  1  0  0  0  0
  5 25  1  0  0  0  0
  6  7  1  0  0  0  0
  6 26  1  0  0  0  0
  6 27  1  0  0  0  0
  7 12  1  0  0  0  0
  7  8  1  0  0  0  0
  7 44  1  0  0  0  0
  8  9  1  0  0  0  0
  8 28  1  0  0  0  0
  8 29  1  0  0  0  0
  9 10  1  0  0  0  0
  9 30  1  0  0  0  0
  9 31  1  0  0  0  0
 10 11  1  0  0  0  0
 10 32  1  0  0  0  0
 10 33  1  0  0  0  0
 11 12  1  0  0  0  0
 11 34  1  0  0  0  0
 11 35  1  0  0  0  0
 12 13  1  0  0  0  0
 12 36  1  0  0  0  0
 13 14  1  0  0  0  0
 13 37  1  0  0  0  0
 13 38  1  0  0  0  0
 15 16  1  0  0  0  0
 15 39  1  0  0  0  0
 16 21  1  0  0  0  0
 16 17  2  0  0  0  0
 17 18  1  0  0  0  0
 17 40  1  0  0  0  0
 18 19  2  0  0  0  0
 18 41  1  0  0  0  0
 19 20  1  0  0  0  0
 19 42  1  0  0  0  0
 20 21  2  0  0  0  0
 20 43  1  0  0  0  0
M  CHG  1   7   1
M  END
> <s_m_source_file>
AV-unprocessed.smi

> <i_m_source_file_index>
2528

> <i_lp_mmshare_version>
43012

> <i_f3d_flags>
0

> <s_epik_input>
bjFbY0hdW2NIXVtjSF1bY0hdYzFbTkhdQyg9TylbTkhdW0NIMl1bQ0BIXShbQ0gyXTIpT1tDSDJdW0NAQEhdKE4yMylbQ0gyXVtDSDJdW0NIMl1bQ0gyXTM=

> <s_epik_cmdline>
J2VwaWtfcHl0aG9uJywgJy1waCcsICc3LjAnLCAnLXRuJywgJzgnLCAnLW1hJywgJzIwMCcsICctbWV0YWxfYmluZGluZycsICctaW1hZScsICc8aW5maWxlLm1hZT4nLCAnLW9tYWUnLCAnPG91dGZpbGUubWFlPic=

> <r_epik_Ionization_Penalty>
0.0932337

> <r_epik_Ionization_Penalty_Charging>
0.0931942

> <r_epik_Ionization_Penalty_Neutral>
3.9565e-05

> <r_epik_State_Penalty>
0.0834605

> <r_epik_Charging_Adjusted_Penalty>
0.176655

> <i_epik_Tot_Q>
1

> <i_epik_Tot_abs_Q>
1

> <r_epik_Metal_State_Penalty>
0.0834607

> <b_epik_Metal_Only>
0

> <s_lp_Force_Field>
OPLS_2005

> <r_lp_Energy>
26.7775

> <b_lp_Chiralities_Consistent>
1

> <s_lp_Variant>
AV-unprocessed.smi:2528-4

> <Gold.Version>
5.8.1

> <Gold.Id.Protein>
6NUR|6NUR_protein|mol2

> <Gold.PLP.Fitness>
42.2669

> <Gold.PLP.PLP>
-34.2940

> <Gold.PLP.part.hbond>
-2.0000

> <Gold.PLP.part.metal>
0.0000

> <Gold.PLP.part.buried>
-4.1142

> <Gold.PLP.part.nonpolar>
-27.3977

> <Gold.PLP.part.repulsive>
0.4519

> <Gold.PLP.ligand.clash>
0.0000

> <Gold.PLP.ligand.torsion>
0.5139

> <Gold.PLP.Chemscore.Hbond>
3.0000

> <Gold.PLP.Chemscore.CHOScore>
0.0000

> <Gold.PLP.Chemscore.Metal>
0.0000

> <Gold.Chemscore.Hbonds>
donor molecule, donor type, donor heavy atom, donor atom, acceptor molecule, acceptor atom, score
      L1  H     7    44       P1  7948  2.00
      P1  H  7997  8010       L1     1  1.00

> <Gold.PLP.Chemscore.Internal.Correction>
0.0006

> <Gold.Rescore>
     Score         DG    S(hbond)    S(metal)    S(lipo)     H(rot)  DE(clash)    DE(int)     intcor
     16.24     -18.21       1.90        0.00      82.75       1.29       0.00       1.97       ----

> <Gold.Chemscore.Fitness>
16.2364

> <Gold.Chemscore.DG>
-18.2088

> <Gold.Chemscore.ZeroCoef>
-5.4800

> <Gold.Chemscore.Hbond>
1.8988

> <Gold.Chemscore.Metal>
0.0000

> <Gold.Chemscore.Lipo>
82.7487

> <Gold.Chemscore.Internal_Hbond>
0.0000

> <Gold.Chemscore.DEClash>
0.0048

> <Gold.Chemscore.DEInternal>
1.9676

> <Gold.Chemscore.Rot>
1.2870

> <Gold.Chemscore.Internal.Correction>
   9.000000E+99

> <Gold.Chemscore.Hbonds>
donor molecule, donor type, donor heavy atom, donor atom, acceptor molecule, acceptor atom, score
      L1  H     7    44       P1  7948  0.35
      P1  H  7997  8010       L1     1  0.89

> <Gold.Chemscore.Hbond.Weighted>
-6.3420

> <Gold.Chemscore.Metal.Weighted>
-0.0000

> <Gold.Chemscore.Lipo.Weighted>
-9.6816

> <Gold.Chemscore.Internal_Hbond.Weighted>
0.0000

> <Gold.Chemscore.DEClash.Weighted>
0.0048

> <Gold.Chemscore.DEInternal.Weighted>
1.9676

> <Gold.Chemscore.Rot.Weighted>
3.2948

> <Gold.Chemscore.Internal.Correction.Weighted>
   9.000000E+99

> <Gold.Protein.RotatedTorsions>
[ 6907 6896 6895 6894 ] final  -46.67 input  -60.11 | X-H torsion
[ 7974 7965 7964 7962 ] final -155.33 input  175.53 | X-H torsion
[ 8008 7997 7996 7995 ] final   71.16 input   59.86 | X-H torsion
[ 10167 10162 10161 10158 ] final  120.36 input  -65.29 | X-H torsion
[ 10718 10713 10712 10709 ] final -178.39 input   66.30 | X-H torsion
[ 10763 10752 10751 10750 ] final  -46.60 input  -60.55 | X-H torsion
[ 11005 11000 10999 10996 ] final -146.12 input  -57.11 | X-H torsion

> <Gold.Protein.ActiveResidues>
 VAL166  LYS551  ARG553  GLY616  TRP617  ASP618  TYR619  PRO620  LYS621  CYS622 
 ASP623  PHE694  ASN695  SER759  ASP760  ASP761  ALA762  ILE779  LEU786  VAL792 
 PHE793  MET794  SER795  GLU796  ALA797  LYS798  CYS799  TRP800  GLU811  SER814 

> <Gold.Protein.RotatedAtoms>
  150.9088  134.8504  159.7410 H   0  0  0  0  0  0  0  0  0  0  0  0  # atno 6907 bound_to 6896
  152.4933  134.4390  159.9547 H   0  0  0  0  0  0  0  0  0  0  0  0  # atno 6908 bound_to 6896
  151.4435  133.3597  159.2820 H   0  0  0  0  0  0  0  0  0  0  0  0  # atno 6909 bound_to 6896
  144.7645  140.4264  143.5952 H   0  0  0  0  0  0  0  0  0  0  0  0  # atno 7974 bound_to 7965
  155.7496  140.3489  155.5144 H   0  0  0  0  0  0  0  0  0  0  0  0  # atno 8008 bound_to 7997
  155.9017  140.1035  157.1366 H   0  0  0  0  0  0  0  0  0  0  0  0  # atno 8009 bound_to 7997
  154.4044  140.1285  156.4431 H   0  0  0  0  0  0  0  0  0  0  0  0  # atno 8010 bound_to 7997
  139.5987  144.7050  151.3114 H   0  0  0  0  0  0  0  0  0  0  0  0  # atno 10167 bound_to 10162
  156.8436  130.9695  151.3098 H   0  0  0  0  0  0  0  0  0  0  0  0  # atno 10718 bound_to 10713
  154.0476  135.6635  153.4797 H   0  0  0  0  0  0  0  0  0  0  0  0  # atno 10763 bound_to 10752
  153.0476  135.5104  154.7782 H   0  0  0  0  0  0  0  0  0  0  0  0  # atno 10764 bound_to 10752
  154.6778  135.3040  154.9621 H   0  0  0  0  0  0  0  0  0  0  0  0  # atno 10765 bound_to 10752
  140.7853  134.3032  157.5032 H   0  0  0  0  0  0  0  0  0  0  0  0  # atno 11005 bound_to 11000
  145.6513  139.1565  143.2860 LP  0  0  0  0  0  0  0  0  0  0  0  0  # atno 17320 bound_to 7965
  146.1740  140.6602  142.9220 LP  0  0  0  0  0  0  0  0  0  0  0  0  # atno 17321 bound_to 7965
  140.7233  143.7076  150.7795 LP  0  0  0  0  0  0  0  0  0  0  0  0  # atno 17342 bound_to 10162
  140.0648  143.5119  152.2610 LP  0  0  0  0  0  0  0  0  0  0  0  0  # atno 17343 bound_to 10162
  157.6342  130.8753  149.9329 LP  0  0  0  0  0  0  0  0  0  0  0  0  # atno 17370 bound_to 10713
  156.0867  130.3667  150.0474 LP  0  0  0  0  0  0  0  0  0  0  0  0  # atno 17371 bound_to 10713
  139.8737  134.9342  156.3602 LP  0  0  0  0  0  0  0  0  0  0  0  0  # atno 17394 bound_to 11000
  140.9443  133.7493  156.0187 LP  0  0  0  0  0  0  0  0  0  0  0  0  # atno 17395 bound_to 11000

$$$$
