AV-unprocessed.smi:922|AV-procd|sdf|4175|dock7
  -GOLD-   22720 2 83D 1   1.00000     0.00000
 Structure written by MMmdl.
 33 34  0  0  0  0  0  0  0  0  1 V2000
  153.4430  142.0566  161.3412 C   0  0  0  0  0  0  0  0  0  0  0  0
  152.5427  141.5745  160.1993 C   0  0  2  0  0  0  0  0  0  0  0  0
  153.2033  140.4454  159.3865 C   0  0  0  0  0  0  0  0  0  0  0  0
  152.3742  140.0910  158.2419 N   0  0  0  0  0  0  0  0  0  0  0  0
  151.9376  138.8019  157.9322 C   0  0  0  0  0  0  0  0  0  0  0  0
  151.4129  137.9426  158.9886 C   0  0  0  0  0  0  0  0  0  0  0  0
  150.9903  136.7433  158.7804 N   0  0  0  0  0  0  0  0  0  0  0  0
  151.0344  136.2510  157.5012 N   0  0  0  0  0  0  0  0  0  0  0  0
  151.4903  136.8982  156.4040 C   0  0  0  0  0  0  0  0  0  0  0  0
  151.4892  136.3593  155.2988 O   0  0  0  0  0  0  0  0  0  0  0  0
  151.9688  138.2621  156.6755 C   0  0  0  0  0  0  0  0  0  0  0  0
  152.6254  139.1230  155.3234 Cl  0  0  0  0  0  0  0  0  0  0  0  0
  152.1452  141.2518  157.3886 C   0  0  0  0  0  0  0  0  0  0  0  0
  151.4890  142.4049  158.1825 C   0  0  0  0  0  0  0  0  0  0  0  0
  151.5158  143.6927  157.3448 C   0  0  0  0  0  0  0  0  0  0  0  0
  150.0303  142.0833  158.5722 C   0  0  0  0  0  0  0  0  0  0  0  0
  152.2830  142.6865  159.3414 O   0  0  0  0  0  0  0  0  0  0  0  0
  150.6855  135.3079  157.4082 H   0  0  0  0  0  0  0  0  0  0  0  0
  153.6618  141.2458  162.0365 H   0  0  0  0  0  0  0  0  0  0  0  0
  152.9622  142.8565  161.9046 H   0  0  0  0  0  0  0  0  0  0  0  0
  154.3913  142.4388  160.9623 H   0  0  0  0  0  0  0  0  0  0  0  0
  151.6076  141.2263  160.6359 H   0  0  0  0  0  0  0  0  0  0  0  0
  154.1772  140.7714  159.0194 H   0  0  0  0  0  0  0  0  0  0  0  0
  153.3914  139.5743  160.0138 H   0  0  0  0  0  0  0  0  0  0  0  0
  151.3923  138.3815  159.9863 H   0  0  0  0  0  0  0  0  0  0  0  0
  153.1045  141.5713  156.9793 H   0  0  0  0  0  0  0  0  0  0  0  0
  151.5152  140.9883  156.5384 H   0  0  0  0  0  0  0  0  0  0  0  0
  150.9481  143.5775  156.4208 H   0  0  0  0  0  0  0  0  0  0  0  0
  152.5361  143.9669  157.0742 H   0  0  0  0  0  0  0  0  0  0  0  0
  151.0871  144.5307  157.8953 H   0  0  0  0  0  0  0  0  0  0  0  0
  149.4048  141.9795  157.6852 H   0  0  0  0  0  0  0  0  0  0  0  0
  149.6036  142.8775  159.1854 H   0  0  0  0  0  0  0  0  0  0  0  0
  149.9417  141.1520  159.1303 H   0  0  0  0  0  0  0  0  0  0  0  0
  1  2  1  0  0  0  0
  1 19  1  0  0  0  0
  1 20  1  0  0  0  0
  1 21  1  0  0  0  0
  2 17  1  0  0  0  0
  2  3  1  0  0  0  0
  2 22  1  0  0  0  0
  3  4  1  0  0  0  0
  3 23  1  0  0  0  0
  3 24  1  0  0  0  0
  4  5  1  0  0  0  0
  4 13  1  0  0  0  0
  5 11  2  0  0  0  0
  5  6  1  0  0  0  0
  6  7  2  0  0  0  0
  6 25  1  0  0  0  0
  7  8  1  0  0  0  0
  8 18  1  0  0  0  0
  8  9  1  0  0  0  0
  9 10  2  0  0  0  0
  9 11  1  0  0  0  0
 11 12  1  0  0  0  0
 13 14  1  0  0  0  0
 13 26  1  0  0  0  0
 13 27  1  0  0  0  0
 14 15  1  0  0  0  0
 14 16  1  0  0  0  0
 14 17  1  0  0  0  0
 15 28  1  0  0  0  0
 15 29  1  0  0  0  0
 15 30  1  0  0  0  0
 16 31  1  0  0  0  0
 16 32  1  0  0  0  0
 16 33  1  0  0  0  0
M  END
> <s_m_source_file>
AV-unprocessed.smi

> <i_m_source_file_index>
922

> <i_lp_mmshare_version>
43012

> <i_f3d_flags>
0

> <s_epik_input>
W0NIM11bQ0BASF0oTzEpW0NIMl1OKFtDSDJdQzEoW0NIM10pW0NIM10pYzJbY0hdbltuSF1jKD1PKWMyQ2w=

> <s_epik_cmdline>
J2VwaWtfcHl0aG9uJywgJy1waCcsICc3LjAnLCAnLXRuJywgJzgnLCAnLW1hJywgJzIwMCcsICctbWV0YWxfYmluZGluZycsICctaW1hZScsICc8aW5maWxlLm1hZT4nLCAnLW9tYWUnLCAnPG91dGZpbGUubWFlPic=

> <r_lp_tautomer_probability>
0.986175

> <r_epik_Ionization_Penalty>
0.00909695

> <r_epik_Ionization_Penalty_Charging>
0.00909694

> <r_epik_Ionization_Penalty_Neutral>
4.87729e-09

> <r_epik_State_Penalty>
1.54226

> <r_epik_Charging_Adjusted_Penalty>
1.55136

> <i_epik_Tot_Q>
0

> <i_epik_Tot_abs_Q>
0

> <r_epik_Metal_State_Penalty>
3.93934

> <b_epik_Metal_Only>
0

> <s_lp_Force_Field>
OPLS_2005

> <r_lp_Energy>
35.5656

> <b_lp_Chiralities_Consistent>
1

> <s_lp_Variant>
AV-unprocessed.smi:922-3

> <Gold.Version>
5.8.1

> <Gold.Id.Protein>
6NUR|6NUR_protein|mol2

> <Gold.PLP.Fitness>
31.7899

> <Gold.PLP.PLP>
-26.1926

> <Gold.PLP.part.hbond>
-2.0000

> <Gold.PLP.part.metal>
0.0000

> <Gold.PLP.part.buried>
-4.4214

> <Gold.PLP.part.nonpolar>
-20.0329

> <Gold.PLP.part.repulsive>
0.2245

> <Gold.PLP.ligand.clash>
0.0000

> <Gold.PLP.ligand.torsion>
0.6670

> <Gold.PLP.Chemscore.Hbond>
2.0000

> <Gold.PLP.Chemscore.CHOScore>
0.0000

> <Gold.PLP.Chemscore.Metal>
0.0000

> <Gold.Chemscore.Hbonds>
donor molecule, donor type, donor heavy atom, donor atom, acceptor molecule, acceptor atom, score
      P1  H  6896  6907       L1     7  0.96
      P1  H 10752 10764       L1    10  1.00

> <Gold.PLP.Chemscore.Internal.Correction>
0.9312

> <Gold.Rescore>
     Score         DG    S(hbond)    S(metal)    S(lipo)     H(rot)  DE(clash)    DE(int)     intcor
     18.83     -19.94       1.56        0.00      79.16       0.00       0.17       0.94       ----

> <Gold.Chemscore.Fitness>
18.8261

> <Gold.Chemscore.DG>
-19.9416

> <Gold.Chemscore.ZeroCoef>
-5.4800

> <Gold.Chemscore.Hbond>
1.5568

> <Gold.Chemscore.Metal>
0.0000

> <Gold.Chemscore.Lipo>
79.1617

> <Gold.Chemscore.Internal_Hbond>
0.0000

> <Gold.Chemscore.DEClash>
0.1745

> <Gold.Chemscore.DEInternal>
0.9410

> <Gold.Chemscore.Rot>
0.0000

> <Gold.Chemscore.Internal.Correction>
   9.000000E+99

> <Gold.Chemscore.Hbonds>
donor molecule, donor type, donor heavy atom, donor atom, acceptor molecule, acceptor atom, score
      P1  H  6896  6907       L1     7  0.27
      P1  H 10752 10764       L1    10  0.98

> <Gold.Chemscore.Hbond.Weighted>
-5.1996

> <Gold.Chemscore.Metal.Weighted>
-0.0000

> <Gold.Chemscore.Lipo.Weighted>
-9.2619

> <Gold.Chemscore.Internal_Hbond.Weighted>
0.0000

> <Gold.Chemscore.DEClash.Weighted>
0.1745

> <Gold.Chemscore.DEInternal.Weighted>
0.9410

> <Gold.Chemscore.Rot.Weighted>
0.0000

> <Gold.Chemscore.Internal.Correction.Weighted>
   9.000000E+99

> <Gold.Protein.RotatedTorsions>
[ 6907 6896 6895 6894 ] final  -28.89 input  -60.11 | X-H torsion
[ 7974 7965 7964 7962 ] final   89.32 input  175.53 | X-H torsion
[ 8008 7997 7996 7995 ] final -130.76 input   59.86 | X-H torsion
[ 10167 10162 10161 10158 ] final  -93.89 input  -65.29 | X-H torsion
[ 10718 10713 10712 10709 ] final   15.62 input   66.30 | X-H torsion
[ 10763 10752 10751 10750 ] final  -54.19 input  -60.55 | X-H torsion
[ 11005 11000 10999 10996 ] final   52.08 input  -57.11 | X-H torsion

> <Gold.Protein.ActiveResidues>
 VAL166  LYS551  ARG553  GLY616  TRP617  ASP618  TYR619  PRO620  LYS621  CYS622 
 ASP623  PHE694  ASN695  SER759  ASP760  ASP761  ALA762  ILE779  LEU786  VAL792 
 PHE793  MET794  SER795  GLU796  ALA797  LYS798  CYS799  TRP800  GLU811  SER814 

> <Gold.Protein.RotatedAtoms>
  151.1267  135.0108  159.8563 H   0  0  0  0  0  0  0  0  0  0  0  0  # atno 6907 bound_to 6896
  152.5450  134.1658  159.8586 H   0  0  0  0  0  0  0  0  0  0  0  0  # atno 6908 bound_to 6896
  151.1721  133.4733  159.2627 H   0  0  0  0  0  0  0  0  0  0  0  0  # atno 6909 bound_to 6896
  145.5339  139.2284  143.2603 H   0  0  0  0  0  0  0  0  0  0  0  0  # atno 7974 bound_to 7965
  155.3011  140.0453  157.3029 H   0  0  0  0  0  0  0  0  0  0  0  0  # atno 8008 bound_to 7997
  154.5486  140.2310  155.8489 H   0  0  0  0  0  0  0  0  0  0  0  0  # atno 8009 bound_to 7997
  156.1946  140.3041  155.9409 H   0  0  0  0  0  0  0  0  0  0  0  0  # atno 8010 bound_to 7997
  140.3201  143.3054  152.0056 H   0  0  0  0  0  0  0  0  0  0  0  0  # atno 10167 bound_to 10162
  157.0562  130.6290  149.5777 H   0  0  0  0  0  0  0  0  0  0  0  0  # atno 10718 bound_to 10713
  154.1708  135.6459  153.5009 H   0  0  0  0  0  0  0  0  0  0  0  0  # atno 10763 bound_to 10752
  153.0085  135.5383  154.6614 H   0  0  0  0  0  0  0  0  0  0  0  0  # atno 10764 bound_to 10752
  154.5953  135.2938  155.0565 H   0  0  0  0  0  0  0  0  0  0  0  0  # atno 10765 bound_to 10752
  140.0879  134.5249  155.8881 H   0  0  0  0  0  0  0  0  0  0  0  0  # atno 11005 bound_to 11000
  146.2026  140.6156  142.9095 LP  0  0  0  0  0  0  0  0  0  0  0  0  # atno 17320 bound_to 7965
  144.7612  140.5425  143.6734 LP  0  0  0  0  0  0  0  0  0  0  0  0  # atno 17321 bound_to 7965
  139.4876  144.6318  151.7055 LP  0  0  0  0  0  0  0  0  0  0  0  0  # atno 17342 bound_to 10162
  140.5491  144.0454  150.6119 LP  0  0  0  0  0  0  0  0  0  0  0  0  # atno 17343 bound_to 10162
  155.9992  130.5068  150.7600 LP  0  0  0  0  0  0  0  0  0  0  0  0  # atno 17370 bound_to 10713
  157.4991  131.0917  151.0336 LP  0  0  0  0  0  0  0  0  0  0  0  0  # atno 17371 bound_to 10713
  141.2068  133.6659  156.6267 LP  0  0  0  0  0  0  0  0  0  0  0  0  # atno 17394 bound_to 11000
  140.3394  134.7862  157.4386 LP  0  0  0  0  0  0  0  0  0  0  0  0  # atno 17395 bound_to 11000

$$$$
