AV-unprocessed.smi:3335|AV-procd|sdf|12842|dock10
  -GOLD-   2272019233D 1   1.00000     0.00000
 Structure written by MMmdl.
 47 48  0  0  0  0  0  0  0  0  2 V2000
  150.9788  143.2320  157.3199 C   0  0  0  0  0  0  0  0  0  0  0  0
  151.1145  141.8787  156.6834 C   0  0  0  0  0  0  0  0  0  0  0  0
  151.9664  140.8087  157.0777 C   0  0  0  0  0  0  0  0  0  0  0  0
  151.8487  139.7460  156.2991 N   0  0  0  0  0  0  0  0  0  0  0  0
  150.9121  140.0920  155.3880 N   0  0  0  0  0  0  0  0  0  0  0  0
  150.5215  139.1578  154.3376 C   0  0  1  0  0  0  0  0  0  0  0  0
  151.4296  137.9151  154.3949 C   0  0  0  0  0  0  0  0  0  0  0  0
  149.0081  138.8144  154.4037 C   0  0  2  0  0  0  0  0  0  0  0  0
  148.7262  137.5749  155.2741 C   0  0  0  0  0  0  0  0  0  0  0  0
  148.4817  138.5905  153.0348 N   0  3  0  0  0  0  0  0  0  0  0  0
  147.0212  138.7669  152.8527 C   0  0  1  0  0  0  0  0  0  0  0  0
  146.6995  140.2111  152.4233 C   0  0  0  0  0  0  0  0  0  0  0  0
  146.4948  137.7777  151.7949 C   0  0  0  0  0  0  0  0  0  0  0  0
  146.8122  137.9456  150.6158 O   0  0  0  0  0  0  0  0  0  0  0  0
  145.6832  136.7651  152.1734 N   0  0  0  0  0  0  0  0  0  0  0  0
  145.3125  136.5212  153.5670 C   0  0  0  0  0  0  0  0  0  0  0  0
  144.6761  135.1322  153.5924 C   0  0  0  0  0  0  0  0  0  0  0  0
  144.1220  134.9546  152.1869 C   0  0  0  0  0  0  0  0  0  0  0  0
  145.0733  135.7601  151.3003 C   0  0  0  0  0  0  0  0  0  0  0  0
  150.4614  141.3796  155.5924 C   0  0  0  0  0  0  0  0  0  0  0  0
  151.8979  143.5375  157.8203 H   0  0  0  0  0  0  0  0  0  0  0  0
  150.1854  143.2462  158.0672 H   0  0  0  0  0  0  0  0  0  0  0  0
  150.7435  144.0026  156.5854 H   0  0  0  0  0  0  0  0  0  0  0  0
  152.6648  140.7738  157.9009 H   0  0  0  0  0  0  0  0  0  0  0  0
  150.7114  139.6589  153.3869 H   0  0  0  0  0  0  0  0  0  0  0  0
  151.2900  137.2712  153.5272 H   0  0  0  0  0  0  0  0  0  0  0  0
  151.2366  137.3204  155.2884 H   0  0  0  0  0  0  0  0  0  0  0  0
  152.4817  138.2016  154.4102 H   0  0  0  0  0  0  0  0  0  0  0  0
  148.4886  139.6640  154.8472 H   0  0  0  0  0  0  0  0  0  0  0  0
  149.0145  137.7384  156.3120 H   0  0  0  0  0  0  0  0  0  0  0  0
  149.2705  136.7031  154.9101 H   0  0  0  0  0  0  0  0  0  0  0  0
  147.6666  137.3209  155.2828 H   0  0  0  0  0  0  0  0  0  0  0  0
  148.9384  139.2378  152.4079 H   0  0  0  0  0  0  0  0  0  0  0  0
  146.5436  138.5606  153.8082 H   0  0  0  0  0  0  0  0  0  0  0  0
  145.6328  140.3488  152.2461 H   0  0  0  0  0  0  0  0  0  0  0  0
  147.2230  140.4786  151.5042 H   0  0  0  0  0  0  0  0  0  0  0  0
  146.9892  140.9334  153.1863 H   0  0  0  0  0  0  0  0  0  0  0  0
  146.1699  136.5734  154.2401 H   0  0  0  0  0  0  0  0  0  0  0  0
  144.5909  137.2783  153.8782 H   0  0  0  0  0  0  0  0  0  0  0  0
  145.4442  134.3804  153.7796 H   0  0  0  0  0  0  0  0  0  0  0  0
  143.9133  135.0302  154.3650 H   0  0  0  0  0  0  0  0  0  0  0  0
  144.0504  133.9079  151.8893 H   0  0  0  0  0  0  0  0  0  0  0  0
  143.1209  135.3851  152.1347 H   0  0  0  0  0  0  0  0  0  0  0  0
  144.5252  136.2063  150.4701 H   0  0  0  0  0  0  0  0  0  0  0  0
  145.8503  135.1129  150.8922 H   0  0  0  0  0  0  0  0  0  0  0  0
  149.7182  141.8310  154.9514 H   0  0  0  0  0  0  0  0  0  0  0  0
  148.7313  137.6529  152.7543 H   0  0  0  0  0  0  0  0  0  0  0  0
  1  2  1  0  0  0  0
  1 21  1  0  0  0  0
  1 22  1  0  0  0  0
  1 23  1  0  0  0  0
  2 20  2  0  0  0  0
  2  3  1  0  0  0  0
  3  4  2  0  0  0  0
  3 24  1  0  0  0  0
  4  5  1  0  0  0  0
  5  6  1  0  0  0  0
  5 20  1  0  0  0  0
  6  7  1  0  0  0  0
  6  8  1  0  0  0  0
  6 25  1  0  0  0  0
  7 26  1  0  0  0  0
  7 27  1  0  0  0  0
  7 28  1  0  0  0  0
  8  9  1  0  0  0  0
  8 10  1  0  0  0  0
  8 29  1  0  0  0  0
  9 30  1  0  0  0  0
  9 31  1  0  0  0  0
  9 32  1  0  0  0  0
 10 11  1  0  0  0  0
 10 33  1  0  0  0  0
 10 47  1  0  0  0  0
 11 12  1  0  0  0  0
 11 13  1  0  0  0  0
 11 34  1  0  0  0  0
 12 35  1  0  0  0  0
 12 36  1  0  0  0  0
 12 37  1  0  0  0  0
 13 14  2  0  0  0  0
 13 15  1  0  0  0  0
 15 19  1  0  0  0  0
 15 16  1  0  0  0  0
 16 17  1  0  0  0  0
 16 38  1  0  0  0  0
 16 39  1  0  0  0  0
 17 18  1  0  0  0  0
 17 40  1  0  0  0  0
 17 41  1  0  0  0  0
 18 19  1  0  0  0  0
 18 42  1  0  0  0  0
 18 43  1  0  0  0  0
 19 44  1  0  0  0  0
 19 45  1  0  0  0  0
 20 46  1  0  0  0  0
M  CHG  1  10   1
M  END
> <s_m_source_file>
AV-unprocessed.smi

> <i_m_source_file_index>
3335

> <i_lp_mmshare_version>
43012

> <i_f3d_flags>
0

> <s_epik_input>
W0NIM11jMVtjSF1ubihbY0hdMSlbQ0BIXShbQ0gzXSlbQ0BIXShbQ0gzXSlbTkhdW0NASF0oW0NIM10pQyg9TylOMltDSDJdW0NIMl1bQ0gyXVtDSDJdMg==

> <s_epik_cmdline>
J2VwaWtfcHl0aG9uJywgJy1waCcsICc3LjAnLCAnLXRuJywgJzgnLCAnLW1hJywgJzIwMCcsICctbWV0YWxfYmluZGluZycsICctaW1hZScsICc8aW5maWxlLm1hZT4nLCAnLW9tYWUnLCAnPG91dGZpbGUubWFlPic=

> <r_lp_tautomer_probability>
1

> <r_epik_Ionization_Penalty>
0.14175

> <r_epik_Ionization_Penalty_Charging>
0.141731

> <r_epik_Ionization_Penalty_Neutral>
1.91261e-05

> <r_epik_State_Penalty>
0.131043

> <r_epik_Charging_Adjusted_Penalty>
0.272773

> <i_epik_Tot_Q>
1

> <i_epik_Tot_abs_Q>
1

> <r_epik_Metal_State_Penalty>
0.131408

> <b_epik_Metal_Only>
0

> <s_lp_Force_Field>
OPLS_2005

> <r_lp_Energy>
36.2431

> <b_lp_Chiralities_Consistent>
1

> <s_lp_Variant>
AV-unprocessed.smi:3335-6

> <Gold.Version>
5.8.1

> <Gold.Id.Protein>
6NUR|6NUR_protein|mol2

> <Gold.PLP.Fitness>
45.5350

> <Gold.PLP.PLP>
-36.5886

> <Gold.PLP.part.hbond>
-2.7440

> <Gold.PLP.part.metal>
0.0000

> <Gold.PLP.part.buried>
-0.6853

> <Gold.PLP.part.nonpolar>
-35.7676

> <Gold.PLP.part.repulsive>
1.2193

> <Gold.PLP.ligand.clash>
0.0000

> <Gold.PLP.ligand.torsion>
1.5684

> <Gold.PLP.Chemscore.Hbond>
3.9920

> <Gold.PLP.Chemscore.CHOScore>
0.0000

> <Gold.PLP.Chemscore.Metal>
0.0000

> <Gold.Chemscore.Hbonds>
donor molecule, donor type, donor heavy atom, donor atom, acceptor molecule, acceptor atom, score
      L1  H    10    33       P1  7957  1.00
      L1  H    10    47       P1  7948  2.00
      P1  H  7954  7966       L1    14  1.00

> <Gold.PLP.Chemscore.Internal.Correction>
0.1073

> <Gold.Rescore>
     Score         DG    S(hbond)    S(metal)    S(lipo)     H(rot)  DE(clash)    DE(int)     intcor
     17.89     -20.75       2.92        0.00      83.98       1.68       0.98       1.88       ----

> <Gold.Chemscore.Fitness>
17.8906

> <Gold.Chemscore.DG>
-20.7508

> <Gold.Chemscore.ZeroCoef>
-5.4800

> <Gold.Chemscore.Hbond>
2.9163

> <Gold.Chemscore.Metal>
0.0000

> <Gold.Chemscore.Lipo>
83.9782

> <Gold.Chemscore.Internal_Hbond>
0.0000

> <Gold.Chemscore.DEClash>
0.9833

> <Gold.Chemscore.DEInternal>
1.8769

> <Gold.Chemscore.Rot>
1.6778

> <Gold.Chemscore.Internal.Correction>
   9.000000E+99

> <Gold.Chemscore.Hbonds>
donor molecule, donor type, donor heavy atom, donor atom, acceptor molecule, acceptor atom, score
      L1  H    10    33       P1  7957  0.99
      L1  H    10    47       P1  7948  1.00
      P1  H  7954  7966       L1    14  0.91

> <Gold.Chemscore.Hbond.Weighted>
-9.7405

> <Gold.Chemscore.Metal.Weighted>
-0.0000

> <Gold.Chemscore.Lipo.Weighted>
-9.8255

> <Gold.Chemscore.Internal_Hbond.Weighted>
0.0000

> <Gold.Chemscore.DEClash.Weighted>
0.9833

> <Gold.Chemscore.DEInternal.Weighted>
1.8769

> <Gold.Chemscore.Rot.Weighted>
4.2952

> <Gold.Chemscore.Internal.Correction.Weighted>
   9.000000E+99

> <Gold.Protein.RotatedTorsions>
[ 6907 6896 6895 6894 ] final -130.31 input  -60.11 | X-H torsion
[ 7974 7965 7964 7962 ] final  -52.12 input  175.53 | X-H torsion
[ 8008 7997 7996 7995 ] final   85.93 input   59.86 | X-H torsion
[ 10167 10162 10161 10158 ] final  152.70 input  -65.29 | X-H torsion
[ 10718 10713 10712 10709 ] final  -82.13 input   66.30 | X-H torsion
[ 10763 10752 10751 10750 ] final  165.46 input  -60.55 | X-H torsion
[ 11005 11000 10999 10996 ] final  -70.94 input  -57.11 | X-H torsion

> <Gold.Protein.ActiveResidues>
 VAL166  LYS551  ARG553  GLY616  TRP617  ASP618  TYR619  PRO620  LYS621  CYS622 
 ASP623  PHE694  ASN695  SER759  ASP760  ASP761  ALA762  ILE779  LEU786  VAL792 
 PHE793  MET794  SER795  GLU796  ALA797  LYS798  CYS799  TRP800  GLU811  SER814 

> <Gold.Protein.RotatedAtoms>
  150.9383  133.6686  159.2795 H   0  0  0  0  0  0  0  0  0  0  0  0  # atno 6907 bound_to 6896
  151.4084  135.0980  159.9587 H   0  0  0  0  0  0  0  0  0  0  0  0  # atno 6908 bound_to 6896
  152.5058  133.8861  159.7425 H   0  0  0  0  0  0  0  0  0  0  0  0  # atno 6909 bound_to 6896
  145.9115  140.7911  142.9693 H   0  0  0  0  0  0  0  0  0  0  0  0  # atno 7974 bound_to 7965
  155.9563  140.3397  155.6451 H   0  0  0  0  0  0  0  0  0  0  0  0  # atno 8008 bound_to 7997
  155.6856  140.0743  157.2486 H   0  0  0  0  0  0  0  0  0  0  0  0  # atno 8009 bound_to 7997
  154.4133  140.1666  156.2017 H   0  0  0  0  0  0  0  0  0  0  0  0  # atno 8010 bound_to 7997
  139.4831  144.5335  151.7683 H   0  0  0  0  0  0  0  0  0  0  0  0  # atno 10167 bound_to 10162
  156.0038  130.4625  150.4057 H   0  0  0  0  0  0  0  0  0  0  0  0  # atno 10718 bound_to 10713
  154.3243  135.2755  155.2504 H   0  0  0  0  0  0  0  0  0  0  0  0  # atno 10763 bound_to 10752
  154.4843  135.5850  153.6416 H   0  0  0  0  0  0  0  0  0  0  0  0  # atno 10764 bound_to 10752
  152.9873  135.6119  154.3430 H   0  0  0  0  0  0  0  0  0  0  0  0  # atno 10765 bound_to 10752
  141.1583  133.6803  156.6829 H   0  0  0  0  0  0  0  0  0  0  0  0  # atno 11005 bound_to 11000
  144.6744  140.1833  143.7403 LP  0  0  0  0  0  0  0  0  0  0  0  0  # atno 17320 bound_to 7965
  145.8666  139.2250  143.1686 LP  0  0  0  0  0  0  0  0  0  0  0  0  # atno 17321 bound_to 7965
  140.4865  144.1374  150.5942 LP  0  0  0  0  0  0  0  0  0  0  0  0  # atno 17342 bound_to 10162
  140.4220  143.2607  151.9704 LP  0  0  0  0  0  0  0  0  0  0  0  0  # atno 17343 bound_to 10162
  157.2123  131.0463  151.2592 LP  0  0  0  0  0  0  0  0  0  0  0  0  # atno 17370 bound_to 10713
  157.3877  130.7265  149.6675 LP  0  0  0  0  0  0  0  0  0  0  0  0  # atno 17371 bound_to 10713
  140.3089  134.8103  157.4159 LP  0  0  0  0  0  0  0  0  0  0  0  0  # atno 17394 bound_to 11000
  140.1196  134.5237  155.8195 LP  0  0  0  0  0  0  0  0  0  0  0  0  # atno 17395 bound_to 11000

$$$$
