AV-unprocessed.smi:1859|AV-procd|sdf|7543|dock9
  -GOLD-   22720 9253D 1   1.00000     0.00000
 Structure written by MMmdl.
 45 47  0  0  0  0  0  0  0  0  1 V2000
  150.5481  140.3256  156.7296 O   0  0  0  0  0  0  0  0  0  0  0  0
  150.1237  141.3110  156.1258 C   0  0  0  0  0  0  0  0  0  0  0  0
  150.0613  142.5339  156.6772 N   0  0  0  0  0  0  0  0  0  0  0  0
  150.4513  142.8705  158.0444 C   0  0  0  0  0  0  0  0  0  0  0  0
  151.9786  142.9724  158.2162 C   0  0  0  0  0  0  0  0  0  0  0  0
  152.4494  142.8444  159.6552 C   0  0  0  0  0  0  0  0  0  0  0  0
  152.0373  143.7730  160.6350 C   0  0  0  0  0  0  0  0  0  0  0  0
  152.4937  143.6006  161.9558 C   0  0  0  0  0  0  0  0  0  0  0  0
  153.3448  142.5164  162.2437 C   0  0  0  0  0  0  0  0  0  0  0  0
  153.7032  141.6488  161.1932 C   0  0  0  0  0  0  0  0  0  0  0  0
  153.2629  141.7986  159.9253 N   0  0  0  0  0  0  0  0  0  0  0  0
  149.6202  141.1898  154.6742 C   0  0  2  0  0  0  0  0  0  0  0  0
  148.1626  141.6956  154.5235 C   0  0  0  0  0  0  0  0  0  0  0  0
  147.1045  140.6672  154.9754 C   0  0  0  0  0  0  0  0  0  0  0  0
  147.3814  139.2944  154.3431 C   0  0  0  0  0  0  0  0  0  0  0  0
  148.7399  138.8658  154.7025 N   0  0  0  0  0  0  0  0  0  0  0  0
  149.0606  137.8004  155.4777 C   0  0  0  0  0  0  0  0  0  0  0  0
  148.2225  137.2385  156.1837 O   0  0  0  0  0  0  0  0  0  0  0  0
  150.4710  137.2894  155.4069 C   0  0  0  0  0  0  0  0  0  0  0  0
  150.7029  135.9214  154.7914 C   0  0  0  0  0  0  0  0  0  0  0  0
  150.8217  136.1050  156.2827 C   0  0  0  0  0  0  0  0  0  0  0  0
  149.7571  139.7502  154.1121 C   0  0  0  0  0  0  0  0  0  0  0  0
  149.7014  143.2877  156.1100 H   0  0  0  0  0  0  0  0  0  0  0  0
  149.9962  143.8289  158.2944 H   0  0  0  0  0  0  0  0  0  0  0  0
  150.0416  142.1501  158.7542 H   0  0  0  0  0  0  0  0  0  0  0  0
  152.4649  142.2052  157.6122 H   0  0  0  0  0  0  0  0  0  0  0  0
  152.3257  143.9281  157.8219 H   0  0  0  0  0  0  0  0  0  0  0  0
  151.3880  144.5985  160.3831 H   0  0  0  0  0  0  0  0  0  0  0  0
  152.2024  144.2916  162.7329 H   0  0  0  0  0  0  0  0  0  0  0  0
  153.7211  142.3588  163.2435 H   0  0  0  0  0  0  0  0  0  0  0  0
  154.3580  140.8101  161.3772 H   0  0  0  0  0  0  0  0  0  0  0  0
  150.2520  141.8378  154.0642 H   0  0  0  0  0  0  0  0  0  0  0  0
  148.0220  142.6325  155.0648 H   0  0  0  0  0  0  0  0  0  0  0  0
  147.9879  141.9327  153.4734 H   0  0  0  0  0  0  0  0  0  0  0  0
  147.1002  140.5781  156.0619 H   0  0  0  0  0  0  0  0  0  0  0  0
  146.1096  141.0136  154.6944 H   0  0  0  0  0  0  0  0  0  0  0  0
  146.6081  138.5775  154.6150 H   0  0  0  0  0  0  0  0  0  0  0  0
  147.3153  139.3740  153.2569 H   0  0  0  0  0  0  0  0  0  0  0  0
  151.2563  138.0127  155.1993 H   0  0  0  0  0  0  0  0  0  0  0  0
  149.8503  135.3532  154.4235 H   0  0  0  0  0  0  0  0  0  0  0  0
  151.6193  135.7889  154.2198 H   0  0  0  0  0  0  0  0  0  0  0  0
  151.8164  136.0952  156.7233 H   0  0  0  0  0  0  0  0  0  0  0  0
  150.0386  135.6723  156.9031 H   0  0  0  0  0  0  0  0  0  0  0  0
  149.6276  139.7634  153.0289 H   0  0  0  0  0  0  0  0  0  0  0  0
  150.7748  139.3913  154.2758 H   0  0  0  0  0  0  0  0  0  0  0  0
  1  2  2  0  0  0  0
  2  3  1  0  0  0  0
  2 12  1  0  0  0  0
  3  4  1  0  0  0  0
  3 23  1  0  0  0  0
  4  5  1  0  0  0  0
  4 24  1  0  0  0  0
  4 25  1  0  0  0  0
  5  6  1  0  0  0  0
  5 26  1  0  0  0  0
  5 27  1  0  0  0  0
  6 11  1  0  0  0  0
  6  7  2  0  0  0  0
  7  8  1  0  0  0  0
  7 28  1  0  0  0  0
  8  9  2  0  0  0  0
  8 29  1  0  0  0  0
  9 10  1  0  0  0  0
  9 30  1  0  0  0  0
 10 11  2  0  0  0  0
 10 31  1  0  0  0  0
 12 22  1  0  0  0  0
 12 13  1  0  0  0  0
 12 32  1  0  0  0  0
 13 14  1  0  0  0  0
 13 33  1  0  0  0  0
 13 34  1  0  0  0  0
 14 15  1  0  0  0  0
 14 35  1  0  0  0  0
 14 36  1  0  0  0  0
 15 16  1  0  0  0  0
 15 37  1  0  0  0  0
 15 38  1  0  0  0  0
 16 17  1  0  0  0  0
 16 22  1  0  0  0  0
 17 18  2  0  0  0  0
 17 19  1  0  0  0  0
 19 21  1  0  0  0  0
 19 20  1  0  0  0  0
 19 39  1  0  0  0  0
 20 21  1  0  0  0  0
 20 40  1  0  0  0  0
 20 41  1  0  0  0  0
 21 42  1  0  0  0  0
 21 43  1  0  0  0  0
 22 44  1  0  0  0  0
 22 45  1  0  0  0  0
M  END
> <s_m_source_file>
AV-unprocessed.smi

> <i_m_source_file_index>
1859

> <i_lp_mmshare_version>
43012

> <i_f3d_flags>
0

> <s_epik_input>
W0NIMl0xW0NIMl1bQ0hdMUMoPU8pTihbQ0gyXTIpW0NIMl1bQ0gyXVtDSDJdW0NASF0yQyg9TylbTkhdW0NIMl1bQ0gyXWMzW2NIXVtjSF1bY0hdW2NIXW4z

> <s_epik_cmdline>
J2VwaWtfcHl0aG9uJywgJy1waCcsICc3LjAnLCAnLXRuJywgJzgnLCAnLW1hJywgJzIwMCcsICctbWV0YWxfYmluZGluZycsICctaW1hZScsICc8aW5maWxlLm1hZT4nLCAnLW9tYWUnLCAnPG91dGZpbGUubWFlPic=

> <r_epik_Ionization_Penalty>
0.0268048

> <r_epik_Ionization_Penalty_Charging>
0

> <r_epik_Ionization_Penalty_Neutral>
0.0268048

> <r_epik_State_Penalty>
0.0219025

> <r_epik_Charging_Adjusted_Penalty>
0.0219025

> <i_epik_Tot_Q>
0

> <i_epik_Tot_abs_Q>
0

> <r_epik_Metal_State_Penalty>
0.020951

> <b_epik_Metal_Only>
0

> <s_lp_Force_Field>
OPLS_2005

> <r_lp_Energy>
24.9831

> <b_lp_Chiralities_Consistent>
1

> <s_lp_Variant>
AV-unprocessed.smi:1859-1

> <Gold.Version>
5.8.1

> <Gold.Id.Protein>
6NUR|6NUR_protein|mol2

> <Gold.PLP.Fitness>
44.9681

> <Gold.PLP.PLP>
-42.3953

> <Gold.PLP.part.hbond>
-1.0000

> <Gold.PLP.part.metal>
0.0000

> <Gold.PLP.part.buried>
-2.4195

> <Gold.PLP.part.nonpolar>
-36.7345

> <Gold.PLP.part.repulsive>
0.0736

> <Gold.PLP.ligand.clash>
0.0000

> <Gold.PLP.ligand.torsion>
0.3969

> <Gold.PLP.Chemscore.Hbond>
1.0000

> <Gold.PLP.Chemscore.CHOScore>
0.0000

> <Gold.PLP.Chemscore.Metal>
0.0000

> <Gold.Chemscore.Hbonds>
donor molecule, donor type, donor heavy atom, donor atom, acceptor molecule, acceptor atom, score
      L1  H     3    23       P1  8028  1.00

> <Gold.PLP.Chemscore.Internal.Correction>
0.3665

> <Gold.Rescore>
     Score         DG    S(hbond)    S(metal)    S(lipo)     H(rot)  DE(clash)    DE(int)     intcor
     17.94     -18.95       1.00        0.00     121.58       1.59       0.55       0.46       ----

> <Gold.Chemscore.Fitness>
17.9441

> <Gold.Chemscore.DG>
-18.9528

> <Gold.Chemscore.ZeroCoef>
-5.4800

> <Gold.Chemscore.Hbond>
0.9968

> <Gold.Chemscore.Metal>
0.0000

> <Gold.Chemscore.Lipo>
121.5797

> <Gold.Chemscore.Internal_Hbond>
0.0000

> <Gold.Chemscore.DEClash>
0.5472

> <Gold.Chemscore.DEInternal>
0.4616

> <Gold.Chemscore.Rot>
1.5943

> <Gold.Chemscore.Internal.Correction>
   9.000000E+99

> <Gold.Chemscore.Hbonds>
donor molecule, donor type, donor heavy atom, donor atom, acceptor molecule, acceptor atom, score
      L1  H     3    23       P1  8028  1.00

> <Gold.Chemscore.Hbond.Weighted>
-3.3294

> <Gold.Chemscore.Metal.Weighted>
-0.0000

> <Gold.Chemscore.Lipo.Weighted>
-14.2248

> <Gold.Chemscore.Internal_Hbond.Weighted>
0.0000

> <Gold.Chemscore.DEClash.Weighted>
0.5472

> <Gold.Chemscore.DEInternal.Weighted>
0.4616

> <Gold.Chemscore.Rot.Weighted>
4.0814

> <Gold.Chemscore.Internal.Correction.Weighted>
   9.000000E+99

> <Gold.Protein.RotatedTorsions>
[ 6907 6896 6895 6894 ] final -125.19 input  -60.11 | X-H torsion
[ 7974 7965 7964 7962 ] final   -1.41 input  175.53 | X-H torsion
[ 8008 7997 7996 7995 ] final   13.47 input   59.86 | X-H torsion
[ 10167 10162 10161 10158 ] final   21.93 input  -65.29 | X-H torsion
[ 10718 10713 10712 10709 ] final -116.54 input   66.30 | X-H torsion
[ 10763 10752 10751 10750 ] final  -33.06 input  -60.55 | X-H torsion
[ 11005 11000 10999 10996 ] final  -51.81 input  -57.11 | X-H torsion

> <Gold.Protein.ActiveResidues>
 VAL166  LYS551  ARG553  GLY616  TRP617  ASP618  TYR619  PRO620  LYS621  CYS622 
 ASP623  PHE694  ASN695  SER759  ASP760  ASP761  ALA762  ILE779  LEU786  VAL792 
 PHE793  MET794  SER795  GLU796  ALA797  LYS798  CYS799  TRP800  GLU811  SER814 

> <Gold.Protein.RotatedAtoms>
  150.8843  133.7329  159.2922 H   0  0  0  0  0  0  0  0  0  0  0  0  # atno 6907 bound_to 6896
  151.4900  135.1055  159.9810 H   0  0  0  0  0  0  0  0  0  0  0  0  # atno 6908 bound_to 6896
  152.4780  133.8138  159.7073 H   0  0  0  0  0  0  0  0  0  0  0  0  # atno 6909 bound_to 6896
  146.2417  140.1416  142.8335 H   0  0  0  0  0  0  0  0  0  0  0  0  # atno 7974 bound_to 7965
  154.8349  140.2905  155.5697 H   0  0  0  0  0  0  0  0  0  0  0  0  # atno 8008 bound_to 7997
  156.3008  140.2525  156.3213 H   0  0  0  0  0  0  0  0  0  0  0  0  # atno 8009 bound_to 7997
  154.9189  140.0386  157.1976 H   0  0  0  0  0  0  0  0  0  0  0  0  # atno 8010 bound_to 7997
  140.5388  143.9714  150.6507 H   0  0  0  0  0  0  0  0  0  0  0  0  # atno 10167 bound_to 10162
  156.0970  130.6141  150.9048 H   0  0  0  0  0  0  0  0  0  0  0  0  # atno 10718 bound_to 10713
  153.8240  135.6872  153.4823 H   0  0  0  0  0  0  0  0  0  0  0  0  # atno 10763 bound_to 10752
  153.1551  135.4602  154.9691 H   0  0  0  0  0  0  0  0  0  0  0  0  # atno 10764 bound_to 10752
  154.7915  135.3303  154.7710 H   0  0  0  0  0  0  0  0  0  0  0  0  # atno 10765 bound_to 10752
  141.0891  133.6636  156.3931 H   0  0  0  0  0  0  0  0  0  0  0  0  # atno 11005 bound_to 11000
  145.0242  140.8818  143.5149 LP  0  0  0  0  0  0  0  0  0  0  0  0  # atno 17320 bound_to 7965
  145.1470  139.2537  143.5461 LP  0  0  0  0  0  0  0  0  0  0  0  0  # atno 17321 bound_to 7965
  140.3108  143.3199  152.0880 LP  0  0  0  0  0  0  0  0  0  0  0  0  # atno 17342 bound_to 10162
  139.4981  144.6637  151.6406 LP  0  0  0  0  0  0  0  0  0  0  0  0  # atno 17343 bound_to 10162
  157.6133  131.0935  150.8755 LP  0  0  0  0  0  0  0  0  0  0  0  0  # atno 17370 bound_to 10713
  156.8891  130.5206  149.5287 LP  0  0  0  0  0  0  0  0  0  0  0  0  # atno 17371 bound_to 10713
  140.5294  134.6227  157.5345 LP  0  0  0  0  0  0  0  0  0  0  0  0  # atno 17394 bound_to 11000
  139.9713  134.7287  156.0035 LP  0  0  0  0  0  0  0  0  0  0  0  0  # atno 17395 bound_to 11000

$$$$
