AV-unprocessed.smi:859|AV-procd|sdf|3964|dock6
  -GOLD-   22720 1433D 1   1.00000     0.00000
 Structure written by MMmdl.
 35 36  0  0  0  0  0  0  0  0  1 V2000
  152.7649  140.0858  157.8651 O   0  0  0  0  0  0  0  0  0  0  0  0
  151.7139  140.7250  157.8080 C   0  0  0  0  0  0  0  0  0  0  0  0
  150.6857  140.3816  157.0163 N   0  0  0  0  0  0  0  0  0  0  0  0
  150.6843  139.2667  156.0734 C   0  0  0  0  0  0  0  0  0  0  0  0
  150.5281  139.7484  154.6188 C   0  0  0  0  0  0  0  0  0  0  0  0
  149.1753  140.1774  154.3138 N   0  0  0  0  0  0  0  0  0  0  0  0
  148.1764  139.4299  153.7035 C   0  0  0  0  0  0  0  0  0  0  0  0
  147.0657  140.2401  153.6341 C   0  0  0  0  0  0  0  0  0  0  0  0
  147.3591  141.4856  154.1844 N   0  0  0  0  0  0  0  0  0  0  0  0
  148.6253  141.3735  154.5646 C   0  0  0  0  0  0  0  0  0  0  0  0
  151.5385  141.9990  158.6444 C   0  0  0  0  0  0  0  0  0  0  0  0
  151.3091  143.2205  157.7281 C   0  0  0  0  0  0  0  0  0  0  0  0
  151.1515  144.5137  158.5440 C   0  0  0  0  0  0  0  0  0  0  0  0
  152.3614  144.7418  159.4637 C   0  0  0  0  0  0  0  0  0  0  0  0
  152.6005  143.5303  160.3785 C   0  0  0  0  0  0  0  0  0  0  0  0
  152.7579  142.2374  159.5610 C   0  0  0  0  0  0  0  0  0  0  0  0
  149.8590  140.9610  157.0377 H   0  0  0  0  0  0  0  0  0  0  0  0
  151.5807  138.6535  156.1814 H   0  0  0  0  0  0  0  0  0  0  0  0
  149.8448  138.6202  156.3292 H   0  0  0  0  0  0  0  0  0  0  0  0
  151.1996  140.5872  154.4323 H   0  0  0  0  0  0  0  0  0  0  0  0
  150.8137  138.9589  153.9225 H   0  0  0  0  0  0  0  0  0  0  0  0
  148.3316  138.4094  153.3860 H   0  0  0  0  0  0  0  0  0  0  0  0
  146.0864  140.0245  153.2332 H   0  0  0  0  0  0  0  0  0  0  0  0
  149.1641  142.1787  155.0421 H   0  0  0  0  0  0  0  0  0  0  0  0
  150.6570  141.8776  159.2768 H   0  0  0  0  0  0  0  0  0  0  0  0
  152.1446  143.3341  157.0353 H   0  0  0  0  0  0  0  0  0  0  0  0
  150.4207  143.0677  157.1136 H   0  0  0  0  0  0  0  0  0  0  0  0
  151.0301  145.3640  157.8722 H   0  0  0  0  0  0  0  0  0  0  0  0
  150.2416  144.4608  159.1432 H   0  0  0  0  0  0  0  0  0  0  0  0
  153.2504  144.9233  158.8585 H   0  0  0  0  0  0  0  0  0  0  0  0
  152.2081  145.6382  160.0653 H   0  0  0  0  0  0  0  0  0  0  0  0
  153.4902  143.6948  160.9870 H   0  0  0  0  0  0  0  0  0  0  0  0
  151.7658  143.4257  161.0727 H   0  0  0  0  0  0  0  0  0  0  0  0
  152.8901  141.3924  160.2380 H   0  0  0  0  0  0  0  0  0  0  0  0
  153.6701  142.3015  158.9656 H   0  0  0  0  0  0  0  0  0  0  0  0
  1  2  2  0  0  0  0
  2  3  1  0  0  0  0
  2 11  1  0  0  0  0
  3  4  1  0  0  0  0
  3 17  1  0  0  0  0
  4  5  1  0  0  0  0
  4 18  1  0  0  0  0
  4 19  1  0  0  0  0
  5  6  1  0  0  0  0
  5 20  1  0  0  0  0
  5 21  1  0  0  0  0
  6 10  1  0  0  0  0
  6  7  1  0  0  0  0
  7  8  2  0  0  0  0
  7 22  1  0  0  0  0
  8  9  1  0  0  0  0
  8 23  1  0  0  0  0
  9 10  2  0  0  0  0
 10 24  1  0  0  0  0
 11 16  1  0  0  0  0
 11 12  1  0  0  0  0
 11 25  1  0  0  0  0
 12 13  1  0  0  0  0
 12 26  1  0  0  0  0
 12 27  1  0  0  0  0
 13 14  1  0  0  0  0
 13 28  1  0  0  0  0
 13 29  1  0  0  0  0
 14 15  1  0  0  0  0
 14 30  1  0  0  0  0
 14 31  1  0  0  0  0
 15 16  1  0  0  0  0
 15 32  1  0  0  0  0
 15 33  1  0  0  0  0
 16 34  1  0  0  0  0
 16 35  1  0  0  0  0
M  END
> <s_m_source_file>
AV-unprocessed.smi

> <i_m_source_file_index>
859

> <i_lp_mmshare_version>
43012

> <i_f3d_flags>
0

> <s_epik_input>
W0NIMl0xW0NIMl1bQ0gyXVtDSDJdW0NIMl1bQ0hdMUMoPU8pW05IXVtDSDJdW0NIMl1uMltjSF1bY0hdbltjSF0y

> <s_epik_cmdline>
J2VwaWtfcHl0aG9uJywgJy1waCcsICc3LjAnLCAnLXRuJywgJzgnLCAnLW1hJywgJzIwMCcsICctbWV0YWxfYmluZGluZycsICctaW1hZScsICc8aW5maWxlLm1hZT4nLCAnLW9tYWUnLCAnPG91dGZpbGUubWFlPic=

> <r_lp_tautomer_probability>
1

> <r_epik_Ionization_Penalty>
0.600603

> <r_epik_Ionization_Penalty_Charging>
0.600603

> <r_epik_Ionization_Penalty_Neutral>
2.01201e-08

> <r_epik_State_Penalty>
0.614954

> <r_epik_Charging_Adjusted_Penalty>
1.21556

> <i_epik_Tot_Q>
0

> <i_epik_Tot_abs_Q>
0

> <r_epik_Metal_State_Penalty>
0.301281

> <b_epik_Metal_Only>
0

> <s_lp_Force_Field>
OPLS_2005

> <r_lp_Energy>
12.3333

> <b_lp_Chiralities_Consistent>
1

> <s_lp_Variant>
AV-unprocessed.smi:859-2

> <Gold.Version>
5.8.1

> <Gold.Id.Protein>
6NUR|6NUR_protein|mol2

> <Gold.PLP.Fitness>
43.4546

> <Gold.PLP.PLP>
-34.2774

> <Gold.PLP.part.hbond>
-1.0000

> <Gold.PLP.part.metal>
0.0000

> <Gold.PLP.part.buried>
-0.2762

> <Gold.PLP.part.nonpolar>
-33.2840

> <Gold.PLP.part.repulsive>
0.1939

> <Gold.PLP.ligand.clash>
0.0000

> <Gold.PLP.ligand.torsion>
0.3984

> <Gold.PLP.Chemscore.Hbond>
1.0000

> <Gold.PLP.Chemscore.CHOScore>
2.3188

> <Gold.PLP.Chemscore.Metal>
0.0000

> <Gold.Chemscore.Hbonds>
donor molecule, donor type, donor heavy atom, donor atom, acceptor molecule, acceptor atom, score
      P1  H  7997  8010       L1     1  1.00
      L1  C     7    22       P1  7948  0.55
      L1  C     8    23       P1 10175  0.93
      L1  C    10    24       P1  8028  0.77

> <Gold.PLP.Chemscore.Internal.Correction>
0.0176

> <Gold.Rescore>
     Score         DG    S(hbond)    S(metal)    S(lipo)     H(rot)  DE(clash)    DE(int)     intcor
     15.11     -15.31       0.97        0.00      95.41       1.79       0.02       0.18       ----

> <Gold.Chemscore.Fitness>
15.1076

> <Gold.Chemscore.DG>
-15.3057

> <Gold.Chemscore.ZeroCoef>
-5.4800

> <Gold.Chemscore.Hbond>
0.9693

> <Gold.Chemscore.Metal>
0.0000

> <Gold.Chemscore.Lipo>
95.4142

> <Gold.Chemscore.Internal_Hbond>
0.0000

> <Gold.Chemscore.DEClash>
0.0220

> <Gold.Chemscore.DEInternal>
0.1760

> <Gold.Chemscore.Rot>
1.7872

> <Gold.Chemscore.Internal.Correction>
   9.000000E+99

> <Gold.Chemscore.Hbonds>
donor molecule, donor type, donor heavy atom, donor atom, acceptor molecule, acceptor atom, score
      P1  H  7997  8010       L1     1  0.94

> <Gold.Chemscore.Hbond.Weighted>
-3.2373

> <Gold.Chemscore.Metal.Weighted>
-0.0000

> <Gold.Chemscore.Lipo.Weighted>
-11.1635

> <Gold.Chemscore.Internal_Hbond.Weighted>
0.0000

> <Gold.Chemscore.DEClash.Weighted>
0.0220

> <Gold.Chemscore.DEInternal.Weighted>
0.1760

> <Gold.Chemscore.Rot.Weighted>
4.5751

> <Gold.Chemscore.Internal.Correction.Weighted>
   9.000000E+99

> <Gold.Protein.RotatedTorsions>
[ 6907 6896 6895 6894 ] final -121.54 input  -60.11 | X-H torsion
[ 7974 7965 7964 7962 ] final -126.88 input  175.53 | X-H torsion
[ 8008 7997 7996 7995 ] final   50.76 input   59.86 | X-H torsion
[ 10167 10162 10161 10158 ] final   70.26 input  -65.29 | X-H torsion
[ 10718 10713 10712 10709 ] final  166.72 input   66.30 | X-H torsion
[ 10763 10752 10751 10750 ] final   46.64 input  -60.55 | X-H torsion
[ 11005 11000 10999 10996 ] final   30.88 input  -57.11 | X-H torsion

> <Gold.Protein.ActiveResidues>
 VAL166  LYS551  ARG553  GLY616  TRP617  ASP618  TYR619  PRO620  LYS621  CYS622 
 ASP623  PHE694  ASN695  SER759  ASP760  ASP761  ALA762  ILE779  LEU786  VAL792 
 PHE793  MET794  SER795  GLU796  ALA797  LYS798  CYS799  TRP800  GLU811  SER814 

> <Gold.Protein.RotatedAtoms>
  150.8493  133.7812  159.3031 H   0  0  0  0  0  0  0  0  0  0  0  0  # atno 6907 bound_to 6896
  151.5490  135.1066  159.9954 H   0  0  0  0  0  0  0  0  0  0  0  0  # atno 6908 bound_to 6896
  152.4539  133.7641  159.6819 H   0  0  0  0  0  0  0  0  0  0  0  0  # atno 6909 bound_to 6896
  144.9828  140.7657  143.4602 H   0  0  0  0  0  0  0  0  0  0  0  0  # atno 7974 bound_to 7965
  155.4241  140.3448  155.4274 H   0  0  0  0  0  0  0  0  0  0  0  0  # atno 8008 bound_to 7997
  156.1376  140.1532  156.9002 H   0  0  0  0  0  0  0  0  0  0  0  0  # atno 8009 bound_to 7997
  154.4944  140.0832  156.7645 H   0  0  0  0  0  0  0  0  0  0  0  0  # atno 8010 bound_to 7997
  140.0589  144.5249  150.7309 H   0  0  0  0  0  0  0  0  0  0  0  0  # atno 10167 bound_to 10162
  157.0618  131.0342  151.2644 H   0  0  0  0  0  0  0  0  0  0  0  0  # atno 10718 bound_to 10713
  152.9808  135.6001  154.3633 H   0  0  0  0  0  0  0  0  0  0  0  0  # atno 10763 bound_to 10752
  154.3313  135.2768  155.2472 H   0  0  0  0  0  0  0  0  0  0  0  0  # atno 10764 bound_to 10752
  154.4595  135.5969  153.6301 H   0  0  0  0  0  0  0  0  0  0  0  0  # atno 10765 bound_to 10752
  140.2897  134.2878  155.7779 H   0  0  0  0  0  0  0  0  0  0  0  0  # atno 11005 bound_to 11000
  145.2397  139.2078  143.4999 LP  0  0  0  0  0  0  0  0  0  0  0  0  # atno 17320 bound_to 7965
  146.3412  140.2290  142.8593 LP  0  0  0  0  0  0  0  0  0  0  0  0  # atno 17321 bound_to 7965
  140.7181  143.2563  151.4367 LP  0  0  0  0  0  0  0  0  0  0  0  0  # atno 17342 bound_to 10162
  139.5906  144.1507  152.2083 LP  0  0  0  0  0  0  0  0  0  0  0  0  # atno 17343 bound_to 10162
  157.4949  130.7844  149.7545 LP  0  0  0  0  0  0  0  0  0  0  0  0  # atno 17370 bound_to 10713
  155.9976  130.3899  150.2733 LP  0  0  0  0  0  0  0  0  0  0  0  0  # atno 17371 bound_to 10713
  141.2148  133.7577  156.9606 LP  0  0  0  0  0  0  0  0  0  0  0  0  # atno 17394 bound_to 11000
  140.1207  134.9419  157.2199 LP  0  0  0  0  0  0  0  0  0  0  0  0  # atno 17395 bound_to 11000

$$$$
