AV-unprocessed.smi:2050|AV-procd|sdf|8324|dock1
  -GOLD-   2272010593D 1   1.00000     0.00000
 Structure written by MMmdl.
 33 34  0  0  0  0  0  0  0  0  1 V2000
  144.0752  134.0145  150.6826 C   0  0  0  0  0  0  0  0  0  0  0  0
  144.6306  135.2199  151.3612 C   0  0  0  0  0  0  0  0  0  0  0  0
  145.6786  136.0484  151.0739 C   0  0  0  0  0  0  0  0  0  0  0  0
  145.6425  136.9902  152.1365 C   0  0  0  0  0  0  0  0  0  0  0  0
  146.5878  138.0452  152.2068 N   0  0  0  0  0  0  0  0  0  0  0  0
  146.7403  138.9434  153.1951 C   0  0  0  0  0  0  0  0  0  0  0  0
  146.0671  138.9867  154.2251 O   0  0  0  0  0  0  0  0  0  0  0  0
  147.7300  139.8058  152.9224 N   0  0  0  0  0  0  0  0  0  0  0  0
  148.1496  140.8997  153.7923 C   0  0  0  0  0  0  0  0  0  0  0  0
  149.0583  140.4235  154.9438 C   0  0  2  0  0  0  0  0  0  0  0  0
  149.8306  141.5671  155.6353 C   0  0  0  0  0  0  0  0  0  0  0  0
  150.8997  140.9542  156.5449 C   0  0  0  0  0  0  0  0  0  0  0  0
  151.4627  139.4369  155.6889 S   0  0  0  0  0  0  0  0  0  0  0  0
  152.7144  139.7164  154.9691 O   0  0  0  0  0  0  0  0  0  0  0  0
  151.3590  138.2980  156.6138 O   0  0  0  0  0  0  0  0  0  0  0  0
  150.0842  139.3769  154.4814 C   0  0  0  0  0  0  0  0  0  0  0  0
  144.6616  136.7574  152.9951 N   0  0  0  0  0  0  0  0  0  0  0  0
  144.0089  135.6208  152.5035 O   0  0  0  0  0  0  0  0  0  0  0  0
  144.3398  134.0070  149.6251 H   0  0  0  0  0  0  0  0  0  0  0  0
  142.9878  133.9918  150.7576 H   0  0  0  0  0  0  0  0  0  0  0  0
  144.4651  133.1031  151.1359 H   0  0  0  0  0  0  0  0  0  0  0  0
  146.3588  135.9875  150.2376 H   0  0  0  0  0  0  0  0  0  0  0  0
  147.2137  138.1250  151.4192 H   0  0  0  0  0  0  0  0  0  0  0  0
  148.2318  139.6979  152.0531 H   0  0  0  0  0  0  0  0  0  0  0  0
  148.6578  141.6640  153.2018 H   0  0  0  0  0  0  0  0  0  0  0  0
  147.2525  141.3706  154.1955 H   0  0  0  0  0  0  0  0  0  0  0  0
  148.4384  139.9471  155.7049 H   0  0  0  0  0  0  0  0  0  0  0  0
  150.3211  142.1788  154.8768 H   0  0  0  0  0  0  0  0  0  0  0  0
  149.1678  142.2257  156.1974 H   0  0  0  0  0  0  0  0  0  0  0  0
  151.7420  141.6212  156.7281 H   0  0  0  0  0  0  0  0  0  0  0  0
  150.4702  140.6610  157.5032 H   0  0  0  0  0  0  0  0  0  0  0  0
  149.6689  138.3700  154.4345 H   0  0  0  0  0  0  0  0  0  0  0  0
  150.4912  139.6288  153.5018 H   0  0  0  0  0  0  0  0  0  0  0  0
  1  2  1  0  0  0  0
  1 19  1  0  0  0  0
  1 20  1  0  0  0  0
  1 21  1  0  0  0  0
  2 18  1  0  0  0  0
  2  3  2  0  0  0  0
  3  4  1  0  0  0  0
  3 22  1  0  0  0  0
  4  5  1  0  0  0  0
  4 17  2  0  0  0  0
  5  6  1  0  0  0  0
  5 23  1  0  0  0  0
  6  7  2  0  0  0  0
  6  8  1  0  0  0  0
  8  9  1  0  0  0  0
  8 24  1  0  0  0  0
  9 10  1  0  0  0  0
  9 25  1  0  0  0  0
  9 26  1  0  0  0  0
 10 16  1  0  0  0  0
 10 11  1  0  0  0  0
 10 27  1  0  0  0  0
 11 12  1  0  0  0  0
 11 28  1  0  0  0  0
 11 29  1  0  0  0  0
 12 13  1  0  0  0  0
 12 30  1  0  0  0  0
 12 31  1  0  0  0  0
 13 14  2  0  0  0  0
 13 15  2  0  0  0  0
 13 16  1  0  0  0  0
 16 32  1  0  0  0  0
 16 33  1  0  0  0  0
 17 18  1  0  0  0  0
M  END
> <s_m_source_file>
AV-unprocessed.smi

> <i_m_source_file_index>
2050

> <i_lp_mmshare_version>
43012

> <i_f3d_flags>
0

> <s_epik_input>
W0NIM11jMVtjSF1jKG5vMSlbTkhdQyg9TylbTkhdW0NIMl1bQ0BASF0oW0NIMl0yKVtDSDJdW0NIMl1TMig9Tyk9Tw==

> <s_epik_cmdline>
J2VwaWtfcHl0aG9uJywgJy1waCcsICc3LjAnLCAnLXRuJywgJzgnLCAnLW1hJywgJzIwMCcsICctbWV0YWxfYmluZGluZycsICctaW1hZScsICc8aW5maWxlLm1hZT4nLCAnLW9tYWUnLCAnPG91dGZpbGUubWFlPic=

> <r_lp_tautomer_probability>
1

> <r_epik_Ionization_Penalty>
2.22143e-05

> <r_epik_Ionization_Penalty_Charging>
0

> <r_epik_Ionization_Penalty_Neutral>
2.22143e-05

> <r_epik_State_Penalty>
-0

> <r_epik_Charging_Adjusted_Penalty>
0

> <i_epik_Tot_Q>
0

> <i_epik_Tot_abs_Q>
0

> <r_epik_Metal_State_Penalty>
-0

> <b_epik_Metal_Only>
0

> <s_lp_Force_Field>
OPLS_2005

> <r_lp_Energy>
2.27669

> <b_lp_Chiralities_Consistent>
1

> <s_lp_Variant>
AV-unprocessed.smi:2050-1

> <Gold.Version>
5.8.1

> <Gold.Id.Protein>
6NUR|6NUR_protein|mol2

> <Gold.PLP.Fitness>
37.6237

> <Gold.PLP.PLP>
-31.6281

> <Gold.PLP.part.hbond>
-4.0000

> <Gold.PLP.part.metal>
0.0000

> <Gold.PLP.part.buried>
-4.6592

> <Gold.PLP.part.nonpolar>
-26.0239

> <Gold.PLP.part.repulsive>
0.5333

> <Gold.PLP.ligand.clash>
0.0000

> <Gold.PLP.ligand.torsion>
0.2921

> <Gold.PLP.Chemscore.Hbond>
2.1900

> <Gold.PLP.Chemscore.CHOScore>
0.0000

> <Gold.PLP.Chemscore.Metal>
0.0000

> <Gold.Chemscore.Hbonds>
donor molecule, donor type, donor heavy atom, donor atom, acceptor molecule, acceptor atom, score
      L1  H     8    24       P1  7957  0.99
      P1  H  7989  7998       L1    14  0.24
      P1  H  7997  8008       L1    14  1.00

> <Gold.PLP.Chemscore.Internal.Correction>
0.0099

> <Gold.Rescore>
     Score         DG    S(hbond)    S(metal)    S(lipo)     H(rot)  DE(clash)    DE(int)     intcor
     13.52     -15.03       1.98        0.00      54.72       1.36       0.02       1.50       ----

> <Gold.Chemscore.Fitness>
13.5151

> <Gold.Chemscore.DG>
-15.0322

> <Gold.Chemscore.ZeroCoef>
-5.4800

> <Gold.Chemscore.Hbond>
1.9829

> <Gold.Chemscore.Metal>
0.0000

> <Gold.Chemscore.Lipo>
54.7240

> <Gold.Chemscore.Internal_Hbond>
0.0000

> <Gold.Chemscore.DEClash>
0.0174

> <Gold.Chemscore.DEInternal>
1.4997

> <Gold.Chemscore.Rot>
1.3567

> <Gold.Chemscore.Internal.Correction>
   9.000000E+99

> <Gold.Chemscore.Hbonds>
donor molecule, donor type, donor heavy atom, donor atom, acceptor molecule, acceptor atom, score
      L1  H     8    24       P1  7957  0.93
      P1  H  7989  7998       L1    14  0.02
      P1  H  7997  8008       L1    14  0.93

> <Gold.Chemscore.Hbond.Weighted>
-6.6228

> <Gold.Chemscore.Metal.Weighted>
-0.0000

> <Gold.Chemscore.Lipo.Weighted>
-6.4027

> <Gold.Chemscore.Internal_Hbond.Weighted>
0.0000

> <Gold.Chemscore.DEClash.Weighted>
0.0174

> <Gold.Chemscore.DEInternal.Weighted>
1.4997

> <Gold.Chemscore.Rot.Weighted>
3.4732

> <Gold.Chemscore.Internal.Correction.Weighted>
   9.000000E+99

> <Gold.Protein.RotatedTorsions>
[ 6907 6896 6895 6894 ] final   22.19 input  -60.11 | X-H torsion
[ 7974 7965 7964 7962 ] final   -2.34 input  175.53 | X-H torsion
[ 8008 7997 7996 7995 ] final  -11.65 input   59.86 | X-H torsion
[ 10167 10162 10161 10158 ] final  158.18 input  -65.29 | X-H torsion
[ 10718 10713 10712 10709 ] final -109.74 input   66.30 | X-H torsion
[ 10763 10752 10751 10750 ] final  179.99 input  -60.55 | X-H torsion
[ 11005 11000 10999 10996 ] final   -8.09 input  -57.11 | X-H torsion

> <Gold.Protein.ActiveResidues>
 VAL166  LYS551  ARG553  GLY616  TRP617  ASP618  TYR619  PRO620  LYS621  CYS622 
 ASP623  PHE694  ASN695  SER759  ASP760  ASP761  ALA762  ILE779  LEU786  VAL792 
 PHE793  MET794  SER795  GLU796  ALA797  LYS798  CYS799  TRP800  GLU811  SER814 

> <Gold.Protein.RotatedAtoms>
  151.9233  135.0289  160.0523 H   0  0  0  0  0  0  0  0  0  0  0  0  # atno 6907 bound_to 6896
  152.2181  133.4958  159.5155 H   0  0  0  0  0  0  0  0  0  0  0  0  # atno 6908 bound_to 6896
  150.6993  134.1295  159.4107 H   0  0  0  0  0  0  0  0  0  0  0  0  # atno 6909 bound_to 6896
  146.2406  140.1556  142.8333 H   0  0  0  0  0  0  0  0  0  0  0  0  # atno 7974 bound_to 7965
  154.5445  140.2297  155.8585 H   0  0  0  0  0  0  0  0  0  0  0  0  # atno 8008 bound_to 7997
  156.1890  140.3082  155.9257 H   0  0  0  0  0  0  0  0  0  0  0  0  # atno 8009 bound_to 7997
  155.3191  140.0439  157.3029 H   0  0  0  0  0  0  0  0  0  0  0  0  # atno 8010 bound_to 7997
  139.4826  144.4848  151.8392 H   0  0  0  0  0  0  0  0  0  0  0  0  # atno 10167 bound_to 10162
  156.0553  130.5779  150.8142 H   0  0  0  0  0  0  0  0  0  0  0  0  # atno 10718 bound_to 10713
  154.5277  135.2798  155.1207 H   0  0  0  0  0  0  0  0  0  0  0  0  # atno 10763 bound_to 10752
  154.2739  135.6298  153.5324 H   0  0  0  0  0  0  0  0  0  0  0  0  # atno 10764 bound_to 10752
  152.9950  135.5635  154.5783 H   0  0  0  0  0  0  0  0  0  0  0  0  # atno 10765 bound_to 10752
  140.7198  133.8838  155.8812 H   0  0  0  0  0  0  0  0  0  0  0  0  # atno 11005 bound_to 11000
  145.0131  140.8731  143.5212 LP  0  0  0  0  0  0  0  0  0  0  0  0  # atno 17320 bound_to 7965
  145.1593  139.2468  143.5400 LP  0  0  0  0  0  0  0  0  0  0  0  0  # atno 17321 bound_to 7965
  140.4327  144.2093  150.5888 LP  0  0  0  0  0  0  0  0  0  0  0  0  # atno 17342 bound_to 10162
  140.4763  143.2395  151.9019 LP  0  0  0  0  0  0  0  0  0  0  0  0  # atno 17343 bound_to 10162
  157.5517  131.0944  150.9685 LP  0  0  0  0  0  0  0  0  0  0  0  0  # atno 17370 bound_to 10713
  156.9944  130.5575  149.5306 LP  0  0  0  0  0  0  0  0  0  0  0  0  # atno 17371 bound_to 10713
  141.0013  134.1146  157.4314 LP  0  0  0  0  0  0  0  0  0  0  0  0  # atno 17394 bound_to 11000
  139.8851  135.0069  156.6412 LP  0  0  0  0  0  0  0  0  0  0  0  0  # atno 17395 bound_to 11000

$$$$
