AV-unprocessed.smi:601|AV-procd|sdf|3033|dock10
  -GOLD-   2262023553D 1   1.00000     0.00000
 Structure written by MMmdl.
 49 50  0  0  0  0  0  0  0  0  2 V2000
  147.9089  134.8997  161.3175 C   0  0  0  0  0  0  0  0  0  0  0  0
  147.3140  136.0243  160.4594 C   0  0  0  0  0  0  0  0  0  0  0  0
  148.2331  136.4808  159.3153 C   0  0  0  0  0  0  0  0  0  0  0  0
  147.7427  137.7541  158.5987 C   0  0  0  0  0  0  0  0  0  0  0  0
  148.2281  137.8253  157.2121 N   0  0  0  0  0  0  0  0  0  0  0  0
  149.5465  138.0202  156.9432 C   0  0  0  0  0  0  0  0  0  0  0  0
  150.3654  138.2341  157.8402 O   0  0  0  0  0  0  0  0  0  0  0  0
  150.0484  137.9297  155.4780 C   0  0  2  0  0  0  0  0  0  0  0  0
  151.1384  136.8767  155.2359 C   0  0  0  0  0  0  0  0  0  0  0  0
  152.4441  137.5971  155.5507 C   0  0  0  0  0  0  0  0  0  0  0  0
  152.0585  139.0784  155.5955 C   0  0  0  0  0  0  0  0  0  0  0  0
  150.7222  139.1274  155.1097 O   0  0  0  0  0  0  0  0  0  0  0  0
  147.2761  137.6191  156.1968 C   0  0  0  0  0  0  0  0  0  0  0  0
  147.0152  138.5627  155.2538 C   0  0  0  0  0  0  0  0  0  0  0  0
  147.6675  139.7875  155.2751 N   0  0  0  0  0  0  0  0  0  0  0  0
  146.0636  138.3008  154.2320 N   0  0  0  0  0  0  0  0  0  0  0  0
  145.7685  139.3535  153.2368 C   0  0  0  0  0  0  0  0  0  0  0  0
  144.4705  140.1046  153.5801 C   0  0  0  0  0  0  0  0  0  0  0  0
  144.4907  141.5588  153.0979 C   0  0  0  0  0  0  0  0  0  0  0  0
  145.4417  137.0842  154.1512 C   0  0  0  0  0  0  0  0  0  0  0  0
  144.6515  136.8707  153.2305 O   0  0  0  0  0  0  0  0  0  0  0  0
  145.7162  136.1358  155.0922 N   0  5  0  0  0  0  0  0  0  0  0  0
  146.5942  136.3223  156.1129 C   0  0  0  0  0  0  0  0  0  0  0  0
  146.8294  135.4438  156.9430 O   0  0  0  0  0  0  0  0  0  0  0  0
  147.2500  134.6632  162.1531 H   0  0  0  0  0  0  0  0  0  0  0  0
  148.8760  135.1887  161.7300 H   0  0  0  0  0  0  0  0  0  0  0  0
  148.0486  133.9850  160.7419 H   0  0  0  0  0  0  0  0  0  0  0  0
  146.3485  135.7136  160.0588 H   0  0  0  0  0  0  0  0  0  0  0  0
  147.1118  136.8795  161.1049 H   0  0  0  0  0  0  0  0  0  0  0  0
  149.2245  136.6714  159.7275 H   0  0  0  0  0  0  0  0  0  0  0  0
  148.3567  135.6652  158.6021 H   0  0  0  0  0  0  0  0  0  0  0  0
  146.6534  137.8103  158.6105 H   0  0  0  0  0  0  0  0  0  0  0  0
  148.0841  138.6287  159.1549 H   0  0  0  0  0  0  0  0  0  0  0  0
  149.2061  137.7478  154.8100 H   0  0  0  0  0  0  0  0  0  0  0  0
  151.0072  135.9664  155.8223 H   0  0  0  0  0  0  0  0  0  0  0  0
  151.1280  136.5848  154.1852 H   0  0  0  0  0  0  0  0  0  0  0  0
  152.8530  137.2794  156.5104 H   0  0  0  0  0  0  0  0  0  0  0  0
  153.1935  137.3974  154.7842 H   0  0  0  0  0  0  0  0  0  0  0  0
  152.0885  139.4559  156.6186 H   0  0  0  0  0  0  0  0  0  0  0  0
  152.7153  139.7000  154.9871 H   0  0  0  0  0  0  0  0  0  0  0  0
  148.3496  140.0148  155.9841 H   0  0  0  0  0  0  0  0  0  0  0  0
  147.5505  140.4621  154.5329 H   0  0  0  0  0  0  0  0  0  0  0  0
  146.5918  140.0659  153.1625 H   0  0  0  0  0  0  0  0  0  0  0  0
  145.7060  138.9355  152.2321 H   0  0  0  0  0  0  0  0  0  0  0  0
  143.6171  139.5920  153.1350 H   0  0  0  0  0  0  0  0  0  0  0  0
  144.3109  140.0868  154.6588 H   0  0  0  0  0  0  0  0  0  0  0  0
  143.5653  142.0700  153.3638 H   0  0  0  0  0  0  0  0  0  0  0  0
  144.6015  141.6115  152.0145 H   0  0  0  0  0  0  0  0  0  0  0  0
  145.3167  142.1106  153.5475 H   0  0  0  0  0  0  0  0  0  0  0  0
  1  2  1  0  0  0  0
  1 25  1  0  0  0  0
  1 26  1  0  0  0  0
  1 27  1  0  0  0  0
  2  3  1  0  0  0  0
  2 28  1  0  0  0  0
  2 29  1  0  0  0  0
  3  4  1  0  0  0  0
  3 30  1  0  0  0  0
  3 31  1  0  0  0  0
  4  5  1  0  0  0  0
  4 32  1  0  0  0  0
  4 33  1  0  0  0  0
  5  6  1  0  0  0  0
  5 13  1  0  0  0  0
  6  7  2  0  0  0  0
  6  8  1  0  0  0  0
  8 12  1  0  0  0  0
  8  9  1  0  0  0  0
  8 34  1  0  0  0  0
  9 10  1  0  0  0  0
  9 35  1  0  0  0  0
  9 36  1  0  0  0  0
 10 11  1  0  0  0  0
 10 37  1  0  0  0  0
 10 38  1  0  0  0  0
 11 12  1  0  0  0  0
 11 39  1  0  0  0  0
 11 40  1  0  0  0  0
 13 23  1  0  0  0  0
 13 14  2  0  0  0  0
 14 15  1  0  0  0  0
 14 16  1  0  0  0  0
 15 41  1  0  0  0  0
 15 42  1  0  0  0  0
 16 17  1  0  0  0  0
 16 20  1  0  0  0  0
 17 18  1  0  0  0  0
 17 43  1  0  0  0  0
 17 44  1  0  0  0  0
 18 19  1  0  0  0  0
 18 45  1  0  0  0  0
 18 46  1  0  0  0  0
 19 47  1  0  0  0  0
 19 48  1  0  0  0  0
 19 49  1  0  0  0  0
 20 21  2  0  0  0  0
 20 22  1  0  0  0  0
 22 23  1  0  0  0  0
 23 24  2  0  0  0  0
M  CHG  1  22  -1
M  END
> <s_m_source_file>
AV-unprocessed.smi

> <i_m_source_file_index>
601

> <i_lp_mmshare_version>
43012

> <i_f3d_flags>
0

> <s_epik_input>
TzFbQ0gyXVtDSDJdW0NIMl1bQ0BIXTFDKD1PKU4oW0NIMl1bQ0gyXVtDSDJdW0NIM10pYzJjKFtOSDJdKW4oW0NIMl1bQ0gyXVtDSDNdKWMoPU8pW25IXWMyPU8=

> <s_epik_cmdline>
J2VwaWtfcHl0aG9uJywgJy1waCcsICc3LjAnLCAnLXRuJywgJzgnLCAnLW1hJywgJzIwMCcsICctbWV0YWxfYmluZGluZycsICctaW1hZScsICc8aW5maWxlLm1hZT4nLCAnLW9tYWUnLCAnPG91dGZpbGUubWFlPic=

> <r_lp_tautomer_probability>
1

> <r_epik_Ionization_Penalty>
5.90608

> <r_epik_Ionization_Penalty_Charging>
4.55687e-07

> <r_epik_Ionization_Penalty_Neutral>
5.90608

> <r_epik_State_Penalty>
5.90604

> <r_epik_Charging_Adjusted_Penalty>
5.90604

> <i_epik_Tot_Q>
-1

> <i_epik_Tot_abs_Q>
1

> <r_epik_Metal_State_Penalty>
1.84043

> <b_epik_Metal_Only>
1

> <s_lp_Force_Field>
OPLS_2005

> <r_lp_Energy>
51.8523

> <b_lp_Chiralities_Consistent>
1

> <s_lp_Variant>
AV-unprocessed.smi:601-3

> <Gold.Version>
5.8.1

> <Gold.Id.Protein>
6NUR|6NUR_protein|mol2

> <Gold.PLP.Fitness>
-35.3069

> <Gold.PLP.PLP>
33.6618

> <Gold.PLP.part.hbond>
0.0000

> <Gold.PLP.part.metal>
0.0000

> <Gold.PLP.part.buried>
31.4753

> <Gold.PLP.part.nonpolar>
2.0284

> <Gold.PLP.part.repulsive>
0.2247

> <Gold.PLP.ligand.clash>
0.0000

> <Gold.PLP.ligand.torsion>
1.9589

> <Gold.PLP.Chemscore.Hbond>
0.0000

> <Gold.PLP.Chemscore.CHOScore>
0.0000

> <Gold.PLP.Chemscore.Metal>
0.0000

> <Gold.PLP.Chemscore.Internal.Correction>
2.2727

> <Gold.Rescore>
     Score         DG    S(hbond)    S(metal)    S(lipo)     H(rot)  DE(clash)    DE(int)     intcor
     -0.45      -5.37       0.00        0.00      41.08       1.92       0.49       5.33       ----

> <Gold.Chemscore.Fitness>
-0.4497

> <Gold.Chemscore.DG>
-5.3713

> <Gold.Chemscore.ZeroCoef>
-5.4800

> <Gold.Chemscore.Hbond>
0.0000

> <Gold.Chemscore.Metal>
0.0000

> <Gold.Chemscore.Lipo>
41.0830

> <Gold.Chemscore.Internal_Hbond>
0.0000

> <Gold.Chemscore.DEClash>
0.4862

> <Gold.Chemscore.DEInternal>
5.3347

> <Gold.Chemscore.Rot>
1.9201

> <Gold.Chemscore.Internal.Correction>
   9.000000E+99

> <Gold.Chemscore.Hbond.Weighted>
-0.0000

> <Gold.Chemscore.Metal.Weighted>
-0.0000

> <Gold.Chemscore.Lipo.Weighted>
-4.8067

> <Gold.Chemscore.Internal_Hbond.Weighted>
0.0000

> <Gold.Chemscore.DEClash.Weighted>
0.4862

> <Gold.Chemscore.DEInternal.Weighted>
5.3347

> <Gold.Chemscore.Rot.Weighted>
4.9154

> <Gold.Chemscore.Internal.Correction.Weighted>
   9.000000E+99

> <Gold.Protein.RotatedTorsions>
[ 6907 6896 6895 6894 ] final  -81.21 input  -60.11 | X-H torsion
[ 7974 7965 7964 7962 ] final  102.40 input  175.53 | X-H torsion
[ 8008 7997 7996 7995 ] final   37.36 input   59.86 | X-H torsion
[ 10167 10162 10161 10158 ] final  144.24 input  -65.29 | X-H torsion
[ 10718 10713 10712 10709 ] final  145.05 input   66.30 | X-H torsion
[ 10763 10752 10751 10750 ] final   15.38 input  -60.55 | X-H torsion
[ 11005 11000 10999 10996 ] final   18.83 input  -57.11 | X-H torsion

> <Gold.Protein.ActiveResidues>
 VAL166  LYS551  ARG553  GLY616  TRP617  ASP618  TYR619  PRO620  LYS621  CYS622 
 ASP623  PHE694  ASN695  SER759  ASP760  ASP761  ALA762  ILE779  LEU786  VAL792 
 PHE793  MET794  SER795  GLU796  ALA797  LYS798  CYS799  TRP800  GLU811  SER814 

> <Gold.Protein.RotatedAtoms>
  150.6916  134.3853  159.5051 H   0  0  0  0  0  0  0  0  0  0  0  0  # atno 6907 bound_to 6896
  152.1649  134.8879  160.0548 H   0  0  0  0  0  0  0  0  0  0  0  0  # atno 6908 bound_to 6896
  151.9927  133.3762  159.4187 H   0  0  0  0  0  0  0  0  0  0  0  0  # atno 6909 bound_to 6896
  145.3596  139.2421  143.3514 H   0  0  0  0  0  0  0  0  0  0  0  0  # atno 7974 bound_to 7965
  155.2025  140.3317  155.4341 H   0  0  0  0  0  0  0  0  0  0  0  0  # atno 8008 bound_to 7997
  156.2401  140.1891  156.7061 H   0  0  0  0  0  0  0  0  0  0  0  0  # atno 8009 bound_to 7997
  154.6132  140.0606  156.9506 H   0  0  0  0  0  0  0  0  0  0  0  0  # atno 8010 bound_to 7997
  139.4951  144.5985  151.6531 H   0  0  0  0  0  0  0  0  0  0  0  0  # atno 10167 bound_to 10162
  157.3499  131.0949  151.1009 H   0  0  0  0  0  0  0  0  0  0  0  0  # atno 10718 bound_to 10713
  153.1530  135.6782  153.8853 H   0  0  0  0  0  0  0  0  0  0  0  0  # atno 10763 bound_to 10752
  153.8273  135.3122  155.3417 H   0  0  0  0  0  0  0  0  0  0  0  0  # atno 10764 bound_to 10752
  154.7877  135.4853  154.0069 H   0  0  0  0  0  0  0  0  0  0  0  0  # atno 10765 bound_to 10752
  140.4205  134.1524  155.7672 H   0  0  0  0  0  0  0  0  0  0  0  0  # atno 11005 bound_to 11000
  146.2933  140.4227  142.8731 LP  0  0  0  0  0  0  0  0  0  0  0  0  # atno 17320 bound_to 7965
  144.8656  140.7202  143.6079 LP  0  0  0  0  0  0  0  0  0  0  0  0  # atno 17321 bound_to 7965
  140.5629  144.0238  150.6178 LP  0  0  0  0  0  0  0  0  0  0  0  0  # atno 17342 bound_to 10162
  140.3330  143.3066  152.0668 LP  0  0  0  0  0  0  0  0  0  0  0  0  # atno 17343 bound_to 10162
  157.2188  130.6472  149.5803 LP  0  0  0  0  0  0  0  0  0  0  0  0  # atno 17370 bound_to 10713
  155.9720  130.4636  150.6187 LP  0  0  0  0  0  0  0  0  0  0  0  0  # atno 17371 bound_to 10713
  141.1786  133.8462  157.1336 LP  0  0  0  0  0  0  0  0  0  0  0  0  # atno 17394 bound_to 11000
  140.0204  134.9948  157.0579 LP  0  0  0  0  0  0  0  0  0  0  0  0  # atno 17395 bound_to 11000

$$$$
