AV-unprocessed.smi:2740|AV-procd|sdf|10554|dock5
  -GOLD-   2272015 03D 1   1.00000     0.00000
 Structure written by MMmdl.
 31 32  0  0  0  0  0  0  0  0  1 V2000
  144.6334  131.1748  150.8220 C   0  0  0  0  0  0  0  0  0  0  0  0
  144.7965  132.6278  151.1146 C   0  0  0  0  0  0  0  0  0  0  0  0
  143.8090  133.5774  151.2189 C   0  0  0  0  0  0  0  0  0  0  0  0
  144.2844  134.8595  151.5037 N   0  0  0  0  0  0  0  0  0  0  0  0
  145.6169  134.8863  151.6161 C   0  0  0  0  0  0  0  0  0  0  0  0
  146.3742  136.0537  151.8973 N   0  0  0  0  0  0  0  0  0  0  0  0
  145.9317  137.2471  152.3309 C   0  0  0  0  0  0  0  0  0  0  0  0
  144.7575  137.5248  152.5770 O   0  0  0  0  0  0  0  0  0  0  0  0
  146.9409  138.1187  152.4683 N   0  0  0  0  0  0  0  0  0  0  0  0
  146.7989  139.4965  152.9247 C   0  0  0  0  0  0  0  0  0  0  0  0
  147.7466  139.8072  154.0947 C   0  0  2  0  0  0  0  0  0  0  0  0
  148.2990  141.2298  154.0759 C   0  0  0  0  0  0  0  0  0  0  0  0
  149.5506  141.0777  154.9100 C   0  0  0  0  0  0  0  0  0  0  0  0
  150.0506  139.6986  154.4859 C   0  0  0  0  0  0  0  0  0  0  0  0
  148.9036  138.9770  154.0408 O   0  0  0  0  0  0  0  0  0  0  0  0
  146.3767  133.3205  151.3787 S   0  0  0  0  0  0  0  0  0  0  0  0
  143.6854  130.9810  150.3196 H   0  0  0  0  0  0  0  0  0  0  0  0
  144.6531  130.5916  151.7427 H   0  0  0  0  0  0  0  0  0  0  0  0
  145.4344  130.8149  150.1759 H   0  0  0  0  0  0  0  0  0  0  0  0
  142.7452  133.4295  151.1056 H   0  0  0  0  0  0  0  0  0  0  0  0
  147.3684  135.9732  151.7432 H   0  0  0  0  0  0  0  0  0  0  0  0
  147.8758  137.8068  152.2500 H   0  0  0  0  0  0  0  0  0  0  0  0
  147.0080  140.1612  152.0859 H   0  0  0  0  0  0  0  0  0  0  0  0
  145.7644  139.6835  153.2173 H   0  0  0  0  0  0  0  0  0  0  0  0
  147.2487  139.6350  155.0504 H   0  0  0  0  0  0  0  0  0  0  0  0
  148.5606  141.5298  153.0600 H   0  0  0  0  0  0  0  0  0  0  0  0
  147.6004  141.9622  154.4812 H   0  0  0  0  0  0  0  0  0  0  0  0
  150.2818  141.8681  154.7386 H   0  0  0  0  0  0  0  0  0  0  0  0
  149.2929  141.0738  155.9701 H   0  0  0  0  0  0  0  0  0  0  0  0
  150.7499  139.7835  153.6535 H   0  0  0  0  0  0  0  0  0  0  0  0
  150.5549  139.1771  155.2997 H   0  0  0  0  0  0  0  0  0  0  0  0
  1  2  1  0  0  0  0
  1 17  1  0  0  0  0
  1 18  1  0  0  0  0
  1 19  1  0  0  0  0
  2 16  1  0  0  0  0
  2  3  2  0  0  0  0
  3  4  1  0  0  0  0
  3 20  1  0  0  0  0
  4  5  2  0  0  0  0
  5  6  1  0  0  0  0
  5 16  1  0  0  0  0
  6  7  1  0  0  0  0
  6 21  1  0  0  0  0
  7  8  2  0  0  0  0
  7  9  1  0  0  0  0
  9 10  1  0  0  0  0
  9 22  1  0  0  0  0
 10 11  1  0  0  0  0
 10 23  1  0  0  0  0
 10 24  1  0  0  0  0
 11 15  1  0  0  0  0
 11 12  1  0  0  0  0
 11 25  1  0  0  0  0
 12 13  1  0  0  0  0
 12 26  1  0  0  0  0
 12 27  1  0  0  0  0
 13 14  1  0  0  0  0
 13 28  1  0  0  0  0
 13 29  1  0  0  0  0
 14 15  1  0  0  0  0
 14 30  1  0  0  0  0
 14 31  1  0  0  0  0
M  END
> <s_m_source_file>
AV-unprocessed.smi

> <i_m_source_file_index>
2740

> <i_lp_mmshare_version>
43012

> <i_f3d_flags>
0

> <s_epik_input>
W0NIM11jMVtjSF1uYyhzMSlbTkhdQyg9TylbTkhdW0NIMl1bQ0BASF0yW0NIMl1bQ0gyXVtDSDJdTzI=

> <s_epik_cmdline>
J2VwaWtfcHl0aG9uJywgJy1waCcsICc3LjAnLCAnLXRuJywgJzgnLCAnLW1hJywgJzIwMCcsICctbWV0YWxfYmluZGluZycsICctaW1hZScsICc8aW5maWxlLm1hZT4nLCAnLW9tYWUnLCAnPG91dGZpbGUubWFlPic=

> <r_lp_tautomer_probability>
0.999

> <r_epik_Ionization_Penalty>
0.000387528

> <r_epik_Ionization_Penalty_Charging>
0

> <r_epik_Ionization_Penalty_Neutral>
0.000387528

> <r_epik_State_Penalty>
0.000177984

> <r_epik_Charging_Adjusted_Penalty>
0.000177984

> <i_epik_Tot_Q>
0

> <i_epik_Tot_abs_Q>
0

> <r_epik_Metal_State_Penalty>
0.00626158

> <b_epik_Metal_Only>
0

> <s_lp_Force_Field>
OPLS_2005

> <r_lp_Energy>
15.1526

> <b_lp_Chiralities_Consistent>
1

> <s_lp_Variant>
AV-unprocessed.smi:2740-1

> <Gold.Version>
5.8.1

> <Gold.Id.Protein>
6NUR|6NUR_protein|mol2

> <Gold.PLP.Fitness>
36.2363

> <Gold.PLP.PLP>
-28.5841

> <Gold.PLP.part.hbond>
-2.0000

> <Gold.PLP.part.metal>
0.0000

> <Gold.PLP.part.buried>
-4.8569

> <Gold.PLP.part.nonpolar>
-23.7476

> <Gold.PLP.part.repulsive>
0.9225

> <Gold.PLP.ligand.clash>
0.0000

> <Gold.PLP.ligand.torsion>
0.5192

> <Gold.PLP.Chemscore.Hbond>
1.8960

> <Gold.PLP.Chemscore.CHOScore>
1.0000

> <Gold.PLP.Chemscore.Metal>
0.0000

> <Gold.Chemscore.Hbonds>
donor molecule, donor type, donor heavy atom, donor atom, acceptor molecule, acceptor atom, score
      L1  H     6    21       P1  7948  1.00
      L1  H     9    22       P1  7948  0.90
      L1  C     3    20       P1 10186  1.00

> <Gold.PLP.Chemscore.Internal.Correction>
0.0026

> <Gold.Rescore>
     Score         DG    S(hbond)    S(metal)    S(lipo)     H(rot)  DE(clash)    DE(int)     intcor
     14.58     -16.17       1.94        0.00      63.64       1.27       0.15       1.43       ----

> <Gold.Chemscore.Fitness>
14.5813

> <Gold.Chemscore.DG>
-16.1690

> <Gold.Chemscore.ZeroCoef>
-5.4800

> <Gold.Chemscore.Hbond>
1.9427

> <Gold.Chemscore.Metal>
0.0000

> <Gold.Chemscore.Lipo>
63.6410

> <Gold.Chemscore.Internal_Hbond>
0.0000

> <Gold.Chemscore.DEClash>
0.1547

> <Gold.Chemscore.DEInternal>
1.4330

> <Gold.Chemscore.Rot>
1.2678

> <Gold.Chemscore.Internal.Correction>
   9.000000E+99

> <Gold.Chemscore.Hbonds>
donor molecule, donor type, donor heavy atom, donor atom, acceptor molecule, acceptor atom, score
      L1  H     6    21       P1  7948  0.97
      L1  H     9    22       P1  7948  0.88

> <Gold.Chemscore.Hbond.Weighted>
-6.4885

> <Gold.Chemscore.Metal.Weighted>
-0.0000

> <Gold.Chemscore.Lipo.Weighted>
-7.4460

> <Gold.Chemscore.Internal_Hbond.Weighted>
0.0000

> <Gold.Chemscore.DEClash.Weighted>
0.1547

> <Gold.Chemscore.DEInternal.Weighted>
1.4330

> <Gold.Chemscore.Rot.Weighted>
3.2455

> <Gold.Chemscore.Internal.Correction.Weighted>
   9.000000E+99

> <Gold.Protein.RotatedTorsions>
[ 6907 6896 6895 6894 ] final  158.39 input  -60.11 | X-H torsion
[ 7974 7965 7964 7962 ] final   84.03 input  175.53 | X-H torsion
[ 8008 7997 7996 7995 ] final   24.77 input   59.86 | X-H torsion
[ 10167 10162 10161 10158 ] final  151.59 input  -65.29 | X-H torsion
[ 10718 10713 10712 10709 ] final   21.94 input   66.30 | X-H torsion
[ 10763 10752 10751 10750 ] final   94.55 input  -60.55 | X-H torsion
[ 11005 11000 10999 10996 ] final  -37.69 input  -57.11 | X-H torsion

> <Gold.Protein.ActiveResidues>
 VAL166  LYS551  ARG553  GLY616  TRP617  ASP618  TYR619  PRO620  LYS621  CYS622 
 ASP623  PHE694  ASN695  SER759  ASP760  ASP761  ALA762  ILE779  LEU786  VAL792 
 PHE793  MET794  SER795  GLU796  ALA797  LYS798  CYS799  TRP800  GLU811  SER814 

> <Gold.Protein.RotatedAtoms>
  152.0011  133.3826  159.4181 H   0  0  0  0  0  0  0  0  0  0  0  0  # atno 6907 bound_to 6896
  150.6910  134.3832  159.5053 H   0  0  0  0  0  0  0  0  0  0  0  0  # atno 6908 bound_to 6896
  152.1580  134.8935  160.0594 H   0  0  0  0  0  0  0  0  0  0  0  0  # atno 6909 bound_to 6896
  145.6041  139.2357  143.2229 H   0  0  0  0  0  0  0  0  0  0  0  0  # atno 7974 bound_to 7965
  155.0015  140.3126  155.4865 H   0  0  0  0  0  0  0  0  0  0  0  0  # atno 8008 bound_to 7997
  156.2924  140.2231  156.5066 H   0  0  0  0  0  0  0  0  0  0  0  0  # atno 8009 bound_to 7997
  154.7614  140.0459  157.0965 H   0  0  0  0  0  0  0  0  0  0  0  0  # atno 8010 bound_to 7997
  139.4839  144.5428  151.7535 H   0  0  0  0  0  0  0  0  0  0  0  0  # atno 10167 bound_to 10162
  157.1455  130.6651  149.5994 H   0  0  0  0  0  0  0  0  0  0  0  0  # atno 10718 bound_to 10713
  153.2429  135.4285  155.0717 H   0  0  0  0  0  0  0  0  0  0  0  0  # atno 10763 bound_to 10752
  154.8348  135.3407  154.6623 H   0  0  0  0  0  0  0  0  0  0  0  0  # atno 10764 bound_to 10752
  153.7046  135.7026  153.5110 H   0  0  0  0  0  0  0  0  0  0  0  0  # atno 10765 bound_to 10752
  140.9971  133.6975  156.1954 H   0  0  0  0  0  0  0  0  0  0  0  0  # atno 11005 bound_to 11000
  146.1554  140.6866  142.9302 LP  0  0  0  0  0  0  0  0  0  0  0  0  # atno 17320 bound_to 7965
  144.7297  140.4635  143.6947 LP  0  0  0  0  0  0  0  0  0  0  0  0  # atno 17321 bound_to 7965
  140.4970  144.1225  150.5962 LP  0  0  0  0  0  0  0  0  0  0  0  0  # atno 17342 bound_to 10162
  140.4105  143.2659  151.9838 LP  0  0  0  0  0  0  0  0  0  0  0  0  # atno 17343 bound_to 10162
  155.9780  130.4763  150.6630 LP  0  0  0  0  0  0  0  0  0  0  0  0  # atno 17370 bound_to 10713
  157.4268  131.0844  151.1077 LP  0  0  0  0  0  0  0  0  0  0  0  0  # atno 17371 bound_to 10713
  140.6949  134.4626  157.5588 LP  0  0  0  0  0  0  0  0  0  0  0  0  # atno 17394 bound_to 11000
  139.9020  134.8535  156.1858 LP  0  0  0  0  0  0  0  0  0  0  0  0  # atno 17395 bound_to 11000

$$$$
