AV-unprocessed.smi:848|AV-procd|sdf|3942|dock1
  -GOLD-   22720 1413D 1   1.00000     0.00000
 Structure written by MMmdl.
 47 49  0  0  0  0  0  0  0  0  2 V2000
  145.1154  138.0384  158.1680 C   0  0  0  0  0  0  0  0  0  0  0  0
  146.1705  137.3958  159.0448 C   0  0  0  0  0  0  0  0  0  0  0  0
  145.8051  136.7690  160.2528 C   0  0  0  0  0  0  0  0  0  0  0  0
  146.7895  136.1743  161.0653 C   0  0  0  0  0  0  0  0  0  0  0  0
  146.3918  135.5027  162.3637 C   0  0  0  0  0  0  0  0  0  0  0  0
  148.1412  136.2108  160.6664 C   0  0  0  0  0  0  0  0  0  0  0  0
  148.5238  136.8331  159.4606 C   0  0  0  0  0  0  0  0  0  0  0  0
  149.8668  136.8178  159.1503 O   0  0  0  0  0  0  0  0  0  0  0  0
  150.2916  137.4573  157.9541 C   0  0  0  0  0  0  0  0  0  0  0  0
  150.6591  138.9137  158.2793 C   0  0  1  0  0  0  0  0  0  0  0  0
  151.4933  138.9189  159.4208 O   0  0  0  0  0  0  0  0  0  0  0  0
  151.3930  139.5979  157.1083 C   0  0  0  0  0  0  0  0  0  0  0  0
  151.1210  141.0433  157.0255 N   0  0  0  0  0  0  0  0  0  0  0  0
  150.3412  141.7418  156.1496 C   0  0  0  0  0  0  0  0  0  0  0  0
  149.5400  141.1873  155.0177 C   0  0  0  0  0  0  0  0  0  0  0  0
  148.8866  142.1941  154.2771 O   0  0  0  0  0  0  0  0  0  0  0  0
  150.4174  143.0564  156.5007 N   0  3  0  0  0  0  0  0  0  0  0  0
  151.2524  143.2027  157.6084 C   0  0  0  0  0  0  0  0  0  0  0  0
  151.6323  144.3379  158.3180 C   0  0  0  0  0  0  0  0  0  0  0  0
  152.5007  144.1398  159.4114 C   0  0  0  0  0  0  0  0  0  0  0  0
  152.9564  142.8526  159.7625 C   0  0  0  0  0  0  0  0  0  0  0  0
  152.5650  141.7096  159.0349 C   0  0  0  0  0  0  0  0  0  0  0  0
  151.7076  141.9134  157.9533 C   0  0  0  0  0  0  0  0  0  0  0  0
  147.5239  137.4286  158.6509 C   0  0  0  0  0  0  0  0  0  0  0  0
  144.1101  137.7903  158.5094 H   0  0  0  0  0  0  0  0  0  0  0  0
  145.2169  137.6962  157.1378 H   0  0  0  0  0  0  0  0  0  0  0  0
  145.2239  139.1230  158.1827 H   0  0  0  0  0  0  0  0  0  0  0  0
  144.7692  136.7434  160.5587 H   0  0  0  0  0  0  0  0  0  0  0  0
  147.2127  134.9131  162.7730 H   0  0  0  0  0  0  0  0  0  0  0  0
  145.5437  134.8362  162.2031 H   0  0  0  0  0  0  0  0  0  0  0  0
  146.1061  136.2513  163.1028 H   0  0  0  0  0  0  0  0  0  0  0  0
  148.8978  135.7571  161.2899 H   0  0  0  0  0  0  0  0  0  0  0  0
  151.1347  136.9389  157.4934 H   0  0  0  0  0  0  0  0  0  0  0  0
  149.4623  137.4425  157.2448 H   0  0  0  0  0  0  0  0  0  0  0  0
  149.7523  139.4753  158.5053 H   0  0  0  0  0  0  0  0  0  0  0  0
  151.5137  138.0436  159.7775 H   0  0  0  0  0  0  0  0  0  0  0  0
  152.4692  139.4345  157.1660 H   0  0  0  0  0  0  0  0  0  0  0  0
  151.0754  139.1560  156.1637 H   0  0  0  0  0  0  0  0  0  0  0  0
  150.1950  140.6271  154.3498 H   0  0  0  0  0  0  0  0  0  0  0  0
  148.7995  140.4854  155.4009 H   0  0  0  0  0  0  0  0  0  0  0  0
  148.9385  143.0050  154.7600 H   0  0  0  0  0  0  0  0  0  0  0  0
  151.2826  145.3248  158.0524 H   0  0  0  0  0  0  0  0  0  0  0  0
  152.8215  144.9915  159.9938 H   0  0  0  0  0  0  0  0  0  0  0  0
  153.6185  142.7388  160.6086 H   0  0  0  0  0  0  0  0  0  0  0  0
  152.9144  140.7281  159.3192 H   0  0  0  0  0  0  0  0  0  0  0  0
  147.7719  137.9179  157.7212 H   0  0  0  0  0  0  0  0  0  0  0  0
  149.9269  143.7979  156.0175 H   0  0  0  0  0  0  0  0  0  0  0  0
  1  2  1  0  0  0  0
  1 25  1  0  0  0  0
  1 26  1  0  0  0  0
  1 27  1  0  0  0  0
  2 24  1  0  0  0  0
  2  3  2  0  0  0  0
  3  4  1  0  0  0  0
  3 28  1  0  0  0  0
  4  5  1  0  0  0  0
  4  6  2  0  0  0  0
  5 29  1  0  0  0  0
  5 30  1  0  0  0  0
  5 31  1  0  0  0  0
  6  7  1  0  0  0  0
  6 32  1  0  0  0  0
  7  8  1  0  0  0  0
  7 24  2  0  0  0  0
  8  9  1  0  0  0  0
  9 10  1  0  0  0  0
  9 33  1  0  0  0  0
  9 34  1  0  0  0  0
 10 11  1  0  0  0  0
 10 12  1  0  0  0  0
 10 35  1  0  0  0  0
 11 36  1  0  0  0  0
 12 13  1  0  0  0  0
 12 37  1  0  0  0  0
 12 38  1  0  0  0  0
 13 23  1  0  0  0  0
 13 14  1  0  0  0  0
 14 15  1  0  0  0  0
 14 17  2  0  0  0  0
 15 16  1  0  0  0  0
 15 39  1  0  0  0  0
 15 40  1  0  0  0  0
 16 41  1  0  0  0  0
 17 18  1  0  0  0  0
 17 47  1  0  0  0  0
 18 23  2  0  0  0  0
 18 19  1  0  0  0  0
 19 20  2  0  0  0  0
 19 42  1  0  0  0  0
 20 21  1  0  0  0  0
 20 43  1  0  0  0  0
 21 22  2  0  0  0  0
 21 44  1  0  0  0  0
 22 23  1  0  0  0  0
 22 45  1  0  0  0  0
 24 46  1  0  0  0  0
M  CHG  1  17   1
M  END
> <s_m_source_file>
AV-unprocessed.smi

> <i_m_source_file_index>
848

> <i_lp_mmshare_version>
43012

> <i_f3d_flags>
0

> <s_epik_input>
W0NIM11jMVtjSF1jKFtDSDNdKVtjSF1jKFtjSF0xKU9bQ0gyXVtDQEhdKFtPSF0pW0NIMl1uKGMobjIpW0NIMl1bT0hdKWMoYzIzKVtjSF1bY0hdW2NIXVtjSF0z

> <s_epik_cmdline>
J2VwaWtfcHl0aG9uJywgJy1waCcsICc3LjAnLCAnLXRuJywgJzgnLCAnLW1hJywgJzIwMCcsICctbWV0YWxfYmluZGluZycsICctaW1hZScsICc8aW5maWxlLm1hZT4nLCAnLW9tYWUnLCAnPG91dGZpbGUubWFlPic=

> <r_lp_tautomer_probability>
1

> <r_epik_Ionization_Penalty>
1.43292

> <r_epik_Ionization_Penalty_Charging>
1.43206

> <r_epik_Ionization_Penalty_Neutral>
0.000858184

> <r_epik_State_Penalty>
1.51673

> <r_epik_Charging_Adjusted_Penalty>
2.94879

> <i_epik_Tot_Q>
1

> <i_epik_Tot_abs_Q>
1

> <r_epik_Metal_State_Penalty>
5.56186

> <b_epik_Metal_Only>
0

> <s_lp_Force_Field>
OPLS_2005

> <r_lp_Energy>
19.6511

> <b_lp_Chiralities_Consistent>
1

> <s_lp_Variant>
AV-unprocessed.smi:848-4

> <Gold.Version>
5.8.1

> <Gold.Id.Protein>
6NUR|6NUR_protein|mol2

> <Gold.PLP.Fitness>
58.2192

> <Gold.PLP.PLP>
-46.8515

> <Gold.PLP.part.hbond>
-4.2361

> <Gold.PLP.part.metal>
0.0000

> <Gold.PLP.part.buried>
-4.3211

> <Gold.PLP.part.nonpolar>
-38.0318

> <Gold.PLP.part.repulsive>
0.0683

> <Gold.PLP.ligand.clash>
0.0000

> <Gold.PLP.ligand.torsion>
0.8519

> <Gold.PLP.Chemscore.Hbond>
4.2675

> <Gold.PLP.Chemscore.CHOScore>
0.0000

> <Gold.PLP.Chemscore.Metal>
0.0000

> <Gold.Chemscore.Hbonds>
donor molecule, donor type, donor heavy atom, donor atom, acceptor molecule, acceptor atom, score
      L1  H    16    41       P1  8028  1.00
      L1  H    17    47       P1  8028  1.50
      P1  H  6896  6907       L1     8  0.50
      P1  H  8011  8017       L1    16  0.21

> <Gold.PLP.Chemscore.Internal.Correction>
0.2688

> <Gold.Rescore>
     Score         DG    S(hbond)    S(metal)    S(lipo)     H(rot)  DE(clash)    DE(int)     intcor
     20.64     -21.81       2.78        0.00     126.81       3.05       0.26       0.91       ----

> <Gold.Chemscore.Fitness>
20.6400

> <Gold.Chemscore.DG>
-21.8111

> <Gold.Chemscore.ZeroCoef>
-5.4800

> <Gold.Chemscore.Hbond>
2.7832

> <Gold.Chemscore.Metal>
0.0000

> <Gold.Chemscore.Lipo>
126.8129

> <Gold.Chemscore.Internal_Hbond>
0.0000

> <Gold.Chemscore.DEClash>
0.2564

> <Gold.Chemscore.DEInternal>
0.9148

> <Gold.Chemscore.Rot>
3.0476

> <Gold.Chemscore.Internal.Correction>
   9.000000E+99

> <Gold.Chemscore.Hbonds>
donor molecule, donor type, donor heavy atom, donor atom, acceptor molecule, acceptor atom, score
      L1  H    16    41       P1  8028  1.00
      L1  H    17    47       P1  8028  0.75
      P1  H  6896  6907       L1     8  0.44
      P1  H  8011  8017       L1    16  0.11

> <Gold.Chemscore.Hbond.Weighted>
-9.2958

> <Gold.Chemscore.Metal.Weighted>
-0.0000

> <Gold.Chemscore.Lipo.Weighted>
-14.8371

> <Gold.Chemscore.Internal_Hbond.Weighted>
0.0000

> <Gold.Chemscore.DEClash.Weighted>
0.2564

> <Gold.Chemscore.DEInternal.Weighted>
0.9148

> <Gold.Chemscore.Rot.Weighted>
7.8018

> <Gold.Chemscore.Internal.Correction.Weighted>
   9.000000E+99

> <Gold.Protein.RotatedTorsions>
[ 6907 6896 6895 6894 ] final  -34.89 input  -60.11 | X-H torsion
[ 7974 7965 7964 7962 ] final  103.70 input  175.53 | X-H torsion
[ 8008 7997 7996 7995 ] final   -7.33 input   59.86 | X-H torsion
[ 10167 10162 10161 10158 ] final   54.19 input  -65.29 | X-H torsion
[ 10718 10713 10712 10709 ] final  -95.42 input   66.30 | X-H torsion
[ 10763 10752 10751 10750 ] final   45.70 input  -60.55 | X-H torsion
[ 11005 11000 10999 10996 ] final   53.89 input  -57.11 | X-H torsion

> <Gold.Protein.ActiveResidues>
 VAL166  LYS551  ARG553  GLY616  TRP617  ASP618  TYR619  PRO620  LYS621  CYS622 
 ASP623  PHE694  ASN695  SER759  ASP760  ASP761  ALA762  ILE779  LEU786  VAL792 
 PHE793  MET794  SER795  GLU796  ALA797  LYS798  CYS799  TRP800  GLU811  SER814 

> <Gold.Protein.RotatedAtoms>
  151.0467  134.9645  159.8190 H   0  0  0  0  0  0  0  0  0  0  0  0  # atno 6907 bound_to 6896
  152.5374  134.2588  159.8937 H   0  0  0  0  0  0  0  0  0  0  0  0  # atno 6908 bound_to 6896
  151.2603  133.4263  159.2649 H   0  0  0  0  0  0  0  0  0  0  0  0  # atno 6909 bound_to 6896
  145.3425  139.2459  143.3602 H   0  0  0  0  0  0  0  0  0  0  0  0  # atno 7974 bound_to 7965
  154.5849  140.2410  155.8001 H   0  0  0  0  0  0  0  0  0  0  0  0  # atno 8008 bound_to 7997
  156.2206  140.2998  155.9899 H   0  0  0  0  0  0  0  0  0  0  0  0  # atno 8009 bound_to 7997
  155.2475  140.0409  157.2973 H   0  0  0  0  0  0  0  0  0  0  0  0  # atno 8010 bound_to 7997
  140.2328  144.3668  150.6408 H   0  0  0  0  0  0  0  0  0  0  0  0  # atno 10167 bound_to 10162
  156.0043  130.5108  150.6074 H   0  0  0  0  0  0  0  0  0  0  0  0  # atno 10718 bound_to 10713
  152.9820  135.6031  154.3480 H   0  0  0  0  0  0  0  0  0  0  0  0  # atno 10763 bound_to 10752
  154.3172  135.2770  155.2539 H   0  0  0  0  0  0  0  0  0  0  0  0  # atno 10764 bound_to 10752
  154.4722  135.5939  153.6385 H   0  0  0  0  0  0  0  0  0  0  0  0  # atno 10765 bound_to 10752
  140.0731  134.5442  155.9025 H   0  0  0  0  0  0  0  0  0  0  0  0  # atno 11005 bound_to 11000
  146.3001  140.4025  142.8707 LP  0  0  0  0  0  0  0  0  0  0  0  0  # atno 17320 bound_to 7965
  144.8779  140.7362  143.6005 LP  0  0  0  0  0  0  0  0  0  0  0  0  # atno 17321 bound_to 7965
  140.6172  143.2173  151.6767 LP  0  0  0  0  0  0  0  0  0  0  0  0  # atno 17342 bound_to 10162
  139.5104  144.3544  152.0622 LP  0  0  0  0  0  0  0  0  0  0  0  0  # atno 17343 bound_to 10162
  157.3912  131.0796  151.1392 LP  0  0  0  0  0  0  0  0  0  0  0  0  # atno 17370 bound_to 10713
  157.2083  130.6426  149.5764 LP  0  0  0  0  0  0  0  0  0  0  0  0  # atno 17371 bound_to 10713
  141.2019  133.6621  156.5977 LP  0  0  0  0  0  0  0  0  0  0  0  0  # atno 17394 bound_to 11000
  140.3598  134.7697  157.4526 LP  0  0  0  0  0  0  0  0  0  0  0  0  # atno 17395 bound_to 11000

$$$$
