AV-unprocessed.smi:3149|AV-procd|sdf|12001|dock9
  -GOLD-   2272017403D 1   1.00000     0.00000
 Structure written by MMmdl.
 38 39  0  0  0  0  0  0  0  0  2 V2000
  150.5848  138.0675  154.6464 C   0  0  0  0  0  0  0  0  0  0  0  0
  149.3272  138.9518  154.5062 C   0  0  2  0  0  0  0  0  0  0  0  0
  148.6767  138.7148  153.1970 N   0  3  0  0  0  0  0  0  0  0  0  0
  147.2056  138.8623  153.1817 C   0  0  0  0  0  0  0  0  0  0  0  0
  146.5866  138.1911  151.9518 C   0  0  0  0  0  0  0  0  0  0  0  0
  146.7890  138.6416  150.8235 O   0  0  0  0  0  0  0  0  0  0  0  0
  145.7129  137.1243  152.1726 N   0  0  0  0  0  0  0  0  0  0  0  0
  145.6398  135.9957  151.2565 C   0  0  0  0  0  0  0  0  0  0  0  0
  145.2603  135.1626  152.4851 C   0  0  0  0  0  0  0  0  0  0  0  0
  145.8347  136.2853  153.3553 C   0  0  0  0  0  0  0  0  0  0  0  0
  149.6303  140.4654  154.6722 C   0  0  1  0  0  0  0  0  0  0  0  0
  148.3819  141.3440  154.4587 C   0  0  0  0  0  0  0  0  0  0  0  0
  150.2397  140.7690  155.9610 N   0  0  0  0  0  0  0  0  0  0  0  0
  149.8141  141.6695  156.9162 C   0  0  0  0  0  0  0  0  0  0  0  0
  150.7012  141.6158  157.9525 C   0  0  0  0  0  0  0  0  0  0  0  0
  151.6469  140.6372  157.5385 C   0  0  0  0  0  0  0  0  0  0  0  0
  151.3684  140.1316  156.3477 N   0  0  0  0  0  0  0  0  0  0  0  0
  151.0442  138.1692  155.6296 H   0  0  0  0  0  0  0  0  0  0  0  0
  151.3367  138.3296  153.9015 H   0  0  0  0  0  0  0  0  0  0  0  0
  150.3526  137.0099  154.5252 H   0  0  0  0  0  0  0  0  0  0  0  0
  148.6233  138.6658  155.2896 H   0  0  0  0  0  0  0  0  0  0  0  0
  149.0429  139.3964  152.5474 H   0  0  0  0  0  0  0  0  0  0  0  0
  146.7840  138.4256  154.0870 H   0  0  0  0  0  0  0  0  0  0  0  0
  146.9425  139.9205  153.1693 H   0  0  0  0  0  0  0  0  0  0  0  0
  144.8532  136.0808  150.5061 H   0  0  0  0  0  0  0  0  0  0  0  0
  146.6041  135.7135  150.8291 H   0  0  0  0  0  0  0  0  0  0  0  0
  144.1831  135.0316  152.6034 H   0  0  0  0  0  0  0  0  0  0  0  0
  145.7948  134.2155  152.5659 H   0  0  0  0  0  0  0  0  0  0  0  0
  146.8672  136.1049  153.6620 H   0  0  0  0  0  0  0  0  0  0  0  0
  145.1954  136.5908  154.1843 H   0  0  0  0  0  0  0  0  0  0  0  0
  150.3617  140.7454  153.9119 H   0  0  0  0  0  0  0  0  0  0  0  0
  147.9814  141.2361  153.4506 H   0  0  0  0  0  0  0  0  0  0  0  0
  148.6186  142.3992  154.5995 H   0  0  0  0  0  0  0  0  0  0  0  0
  147.5866  141.0874  155.1594 H   0  0  0  0  0  0  0  0  0  0  0  0
  148.9264  142.2697  156.7802 H   0  0  0  0  0  0  0  0  0  0  0  0
  150.6778  142.1878  158.8683 H   0  0  0  0  0  0  0  0  0  0  0  0
  152.5215  140.2819  158.0634 H   0  0  0  0  0  0  0  0  0  0  0  0
  148.9246  137.7947  152.8625 H   0  0  0  0  0  0  0  0  0  0  0  0
  1  2  1  0  0  0  0
  1 18  1  0  0  0  0
  1 19  1  0  0  0  0
  1 20  1  0  0  0  0
  2  3  1  0  0  0  0
  2 11  1  0  0  0  0
  2 21  1  0  0  0  0
  3  4  1  0  0  0  0
  3 22  1  0  0  0  0
  3 38  1  0  0  0  0
  4  5  1  0  0  0  0
  4 23  1  0  0  0  0
  4 24  1  0  0  0  0
  5  6  2  0  0  0  0
  5  7  1  0  0  0  0
  7 10  1  0  0  0  0
  7  8  1  0  0  0  0
  8  9  1  0  0  0  0
  8 25  1  0  0  0  0
  8 26  1  0  0  0  0
  9 10  1  0  0  0  0
  9 27  1  0  0  0  0
  9 28  1  0  0  0  0
 10 29  1  0  0  0  0
 10 30  1  0  0  0  0
 11 12  1  0  0  0  0
 11 13  1  0  0  0  0
 11 31  1  0  0  0  0
 12 32  1  0  0  0  0
 12 33  1  0  0  0  0
 12 34  1  0  0  0  0
 13 17  1  0  0  0  0
 13 14  1  0  0  0  0
 14 15  2  0  0  0  0
 14 35  1  0  0  0  0
 15 16  1  0  0  0  0
 15 36  1  0  0  0  0
 16 17  2  0  0  0  0
 16 37  1  0  0  0  0
M  CHG  1   3   1
M  END
> <s_m_source_file>
AV-unprocessed.smi

> <i_m_source_file_index>
3149

> <i_lp_mmshare_version>
43012

> <i_f3d_flags>
0

> <s_epik_input>
bjFbY0hdW2NIXVtjSF1uMVtDQEBIXShbQ0gzXSlbQ0BIXShbQ0gzXSlbTkhdW0NIMl1DKD1PKU4yW0NIMl1bQ0gyXVtDSDJdMg==

> <s_epik_cmdline>
J2VwaWtfcHl0aG9uJywgJy1waCcsICc3LjAnLCAnLXRuJywgJzgnLCAnLW1hJywgJzIwMCcsICctbWV0YWxfYmluZGluZycsICctaW1hZScsICc8aW5maWxlLm1hZT4nLCAnLW9tYWUnLCAnPG91dGZpbGUubWFlPic=

> <r_lp_tautomer_probability>
1

> <r_epik_Ionization_Penalty>
0.141739

> <r_epik_Ionization_Penalty_Charging>
0.141731

> <r_epik_Ionization_Penalty_Neutral>
8.82171e-06

> <r_epik_State_Penalty>
0.131043

> <r_epik_Charging_Adjusted_Penalty>
0.272773

> <i_epik_Tot_Q>
1

> <i_epik_Tot_abs_Q>
1

> <r_epik_Metal_State_Penalty>
0.131384

> <b_epik_Metal_Only>
0

> <s_lp_Force_Field>
OPLS_2005

> <r_lp_Energy>
21.3939

> <b_lp_Chiralities_Consistent>
1

> <s_lp_Variant>
AV-unprocessed.smi:3149-3

> <Gold.Version>
5.8.1

> <Gold.Id.Protein>
6NUR|6NUR_protein|mol2

> <Gold.PLP.Fitness>
47.0980

> <Gold.PLP.PLP>
-33.3257

> <Gold.PLP.part.hbond>
-3.0000

> <Gold.PLP.part.metal>
0.0000

> <Gold.PLP.part.buried>
-2.0966

> <Gold.PLP.part.nonpolar>
-29.4295

> <Gold.PLP.part.repulsive>
1.0803

> <Gold.PLP.ligand.clash>
0.0000

> <Gold.PLP.ligand.torsion>
0.9199

> <Gold.PLP.Chemscore.Hbond>
3.8960

> <Gold.PLP.Chemscore.CHOScore>
1.0000

> <Gold.PLP.Chemscore.Metal>
0.0000

> <Gold.Chemscore.Hbonds>
donor molecule, donor type, donor heavy atom, donor atom, acceptor molecule, acceptor atom, score
      L1  H     3    22       P1  7957  1.00
      L1  H     3    38       P1  7948  2.00
      P1  H  7954  7966       L1     6  0.91
      L1  C    14    35       P1  8028  0.54

> <Gold.PLP.Chemscore.Internal.Correction>
0.9241

> <Gold.Rescore>
     Score         DG    S(hbond)    S(metal)    S(lipo)     H(rot)  DE(clash)    DE(int)     intcor
     14.75     -18.13       2.94        0.00      64.64       1.85       0.77       2.61       ----

> <Gold.Chemscore.Fitness>
14.7505

> <Gold.Chemscore.DG>
-18.1307

> <Gold.Chemscore.ZeroCoef>
-5.4800

> <Gold.Chemscore.Hbond>
2.9447

> <Gold.Chemscore.Metal>
0.0000

> <Gold.Chemscore.Lipo>
64.6369

> <Gold.Chemscore.Internal_Hbond>
0.0000

> <Gold.Chemscore.DEClash>
0.7695

> <Gold.Chemscore.DEInternal>
2.6107

> <Gold.Chemscore.Rot>
1.8544

> <Gold.Chemscore.Internal.Correction>
   9.000000E+99

> <Gold.Chemscore.Hbonds>
donor molecule, donor type, donor heavy atom, donor atom, acceptor molecule, acceptor atom, score
      L1  H     3    22       P1  7957  0.99
      L1  H     3    38       P1  7948  1.00
      P1  H  7954  7966       L1     6  0.83

> <Gold.Chemscore.Hbond.Weighted>
-9.8353

> <Gold.Chemscore.Metal.Weighted>
-0.0000

> <Gold.Chemscore.Lipo.Weighted>
-7.5625

> <Gold.Chemscore.Internal_Hbond.Weighted>
0.0000

> <Gold.Chemscore.DEClash.Weighted>
0.7695

> <Gold.Chemscore.DEInternal.Weighted>
2.6107

> <Gold.Chemscore.Rot.Weighted>
4.7472

> <Gold.Chemscore.Internal.Correction.Weighted>
   9.000000E+99

> <Gold.Protein.RotatedTorsions>
[ 6907 6896 6895 6894 ] final  111.18 input  -60.11 | X-H torsion
[ 7974 7965 7964 7962 ] final  158.96 input  175.53 | X-H torsion
[ 8008 7997 7996 7995 ] final   60.71 input   59.86 | X-H torsion
[ 10167 10162 10161 10158 ] final  -96.72 input  -65.29 | X-H torsion
[ 10718 10713 10712 10709 ] final   86.73 input   66.30 | X-H torsion
[ 10763 10752 10751 10750 ] final   59.69 input  -60.55 | X-H torsion
[ 11005 11000 10999 10996 ] final  118.27 input  -57.11 | X-H torsion

> <Gold.Protein.ActiveResidues>
 VAL166  LYS551  ARG553  GLY616  TRP617  ASP618  TYR619  PRO620  LYS621  CYS622 
 ASP623  PHE694  ASN695  SER759  ASP760  ASP761  ALA762  ILE779  LEU786  VAL792 
 PHE793  MET794  SER795  GLU796  ALA797  LYS798  CYS799  TRP800  GLU811  SER814 

> <Gold.Protein.RotatedAtoms>
  152.4982  133.8694  159.7290 H   0  0  0  0  0  0  0  0  0  0  0  0  # atno 6907 bound_to 6896
  150.9185  133.6901  159.2844 H   0  0  0  0  0  0  0  0  0  0  0  0  # atno 6908 bound_to 6896
  151.4286  135.1011  159.9688 H   0  0  0  0  0  0  0  0  0  0  0  0  # atno 6909 bound_to 6896
  144.7817  139.7551  143.6257 H   0  0  0  0  0  0  0  0  0  0  0  0  # atno 7974 bound_to 7965
  155.5867  140.3492  155.4555 H   0  0  0  0  0  0  0  0  0  0  0  0  # atno 8008 bound_to 7997
  156.0333  140.1279  157.0260 H   0  0  0  0  0  0  0  0  0  0  0  0  # atno 8009 bound_to 7997
  154.4361  140.1039  156.6116 H   0  0  0  0  0  0  0  0  0  0  0  0  # atno 8010 bound_to 7997
  140.2908  143.3222  152.0347 H   0  0  0  0  0  0  0  0  0  0  0  0  # atno 10167 bound_to 10162
  157.6932  131.0227  150.3017 H   0  0  0  0  0  0  0  0  0  0  0  0  # atno 10718 bound_to 10713
  152.9901  135.5563  154.5753 H   0  0  0  0  0  0  0  0  0  0  0  0  # atno 10763 bound_to 10752
  154.5145  135.2804  155.1316 H   0  0  0  0  0  0  0  0  0  0  0  0  # atno 10764 bound_to 10752
  154.2694  135.6366  153.5357 H   0  0  0  0  0  0  0  0  0  0  0  0  # atno 10765 bound_to 10752
  139.9104  134.9618  156.7478 H   0  0  0  0  0  0  0  0  0  0  0  0  # atno 11005 bound_to 11000
  146.2028  139.5333  142.9732 LP  0  0  0  0  0  0  0  0  0  0  0  0  # atno 17320 bound_to 7965
  145.6033  141.0351  143.2006 LP  0  0  0  0  0  0  0  0  0  0  0  0  # atno 17321 bound_to 7965
  139.4938  144.6526  151.6643 LP  0  0  0  0  0  0  0  0  0  0  0  0  # atno 17342 bound_to 10162
  140.5733  144.0071  150.6228 LP  0  0  0  0  0  0  0  0  0  0  0  0  # atno 17343 bound_to 10162
  156.3532  130.3834  149.7312 LP  0  0  0  0  0  0  0  0  0  0  0  0  # atno 17370 bound_to 10713
  156.4783  130.8029  151.3044 LP  0  0  0  0  0  0  0  0  0  0  0  0  # atno 17371 bound_to 10713
  140.6798  133.9485  155.7904 LP  0  0  0  0  0  0  0  0  0  0  0  0  # atno 17394 bound_to 11000
  141.0518  134.0473  157.3773 LP  0  0  0  0  0  0  0  0  0  0  0  0  # atno 17395 bound_to 11000

$$$$
