AV-unprocessed.smi:798|AV-procd|sdf|3773|dock3
  -GOLD-   22720 1203D 1   1.00000     0.00000
 Structure written by MMmdl.
 34 36  0  0  0  0  0  0  0  0  1 V2000
  150.4033  136.2770  158.8957 O   0  0  0  0  0  0  0  0  0  0  0  0
  149.4267  136.8697  158.4366 C   0  0  0  0  0  0  0  0  0  0  0  0
  148.2347  136.9949  159.0459 N   0  0  0  0  0  0  0  0  0  0  0  0
  147.8347  136.4871  160.3103 C   0  0  0  0  0  0  0  0  0  0  0  0
  147.5766  137.2611  161.3761 N   0  0  0  0  0  0  0  0  0  0  0  0
  147.2073  136.5114  162.4856 N   0  0  0  0  0  0  0  0  0  0  0  0
  147.2017  135.2034  162.2133 C   0  0  0  0  0  0  0  0  0  0  0  0
  147.6471  134.7593  160.5746 S   0  0  0  0  0  0  0  0  0  0  0  0
  149.4232  137.4727  157.2392 N   0  0  0  0  0  0  0  0  0  0  0  0
  150.5588  137.5320  156.3166 C   0  0  2  0  0  0  0  0  0  0  0  0
  151.6611  138.5066  156.8011 C   0  0  2  0  0  0  0  0  0  0  0  0
  151.0742  139.8888  157.1598 C   0  0  0  0  0  0  0  0  0  0  0  0
  150.6856  140.4558  155.7827 C   0  0  0  0  0  0  0  0  0  0  0  0
  151.1287  139.3405  154.8125 C   0  0  1  0  0  0  0  0  0  0  0  0
  152.3897  138.8325  155.5014 C   0  0  0  0  0  0  0  0  0  0  0  0
  150.2170  138.0920  154.9047 C   0  0  2  0  0  0  0  0  0  0  0  0
  148.7257  138.3180  154.5665 C   0  0  0  0  0  0  0  0  0  0  0  0
  148.5785  138.6796  153.2098 O   0  0  0  0  0  0  0  0  0  0  0  0
  147.5276  137.5112  158.5440 H   0  0  0  0  0  0  0  0  0  0  0  0
  146.9336  134.4949  162.9830 H   0  0  0  0  0  0  0  0  0  0  0  0
  148.5754  137.9320  156.9401 H   0  0  0  0  0  0  0  0  0  0  0  0
  150.9976  136.5376  156.2115 H   0  0  0  0  0  0  0  0  0  0  0  0
  152.2942  138.0895  157.5848 H   0  0  0  0  0  0  0  0  0  0  0  0
  150.2320  139.8455  157.8501 H   0  0  0  0  0  0  0  0  0  0  0  0
  151.8370  140.5160  157.6228 H   0  0  0  0  0  0  0  0  0  0  0  0
  149.6261  140.6965  155.7097 H   0  0  0  0  0  0  0  0  0  0  0  0
  151.2389  141.3748  155.5847 H   0  0  0  0  0  0  0  0  0  0  0  0
  151.2835  139.6901  153.7912 H   0  0  0  0  0  0  0  0  0  0  0  0
  153.1608  139.5968  155.6148 H   0  0  0  0  0  0  0  0  0  0  0  0
  152.8272  137.9568  155.0185 H   0  0  0  0  0  0  0  0  0  0  0  0
  150.5898  137.3678  154.1777 H   0  0  0  0  0  0  0  0  0  0  0  0
  148.1625  137.3989  154.7302 H   0  0  0  0  0  0  0  0  0  0  0  0
  148.2703  139.0829  155.1943 H   0  0  0  0  0  0  0  0  0  0  0  0
  148.9400  137.9899  152.6742 H   0  0  0  0  0  0  0  0  0  0  0  0
  1  2  2  0  0  0  0
  2  3  1  0  0  0  0
  2  9  1  0  0  0  0
  3  4  1  0  0  0  0
  3 19  1  0  0  0  0
  4  8  1  0  0  0  0
  4  5  2  0  0  0  0
  5  6  1  0  0  0  0
  6  7  2  0  0  0  0
  7  8  1  0  0  0  0
  7 20  1  0  0  0  0
  9 10  1  0  0  0  0
  9 21  1  0  0  0  0
 10 16  1  0  0  0  0
 10 11  1  0  0  0  0
 10 22  1  0  0  0  0
 11 15  1  0  0  0  0
 11 12  1  0  0  0  0
 11 23  1  0  0  0  0
 12 13  1  0  0  0  0
 12 24  1  0  0  0  0
 12 25  1  0  0  0  0
 13 14  1  0  0  0  0
 13 26  1  0  0  0  0
 13 27  1  0  0  0  0
 14 15  1  0  0  0  0
 14 16  1  0  0  0  0
 14 28  1  0  0  0  0
 15 29  1  0  0  0  0
 15 30  1  0  0  0  0
 16 17  1  0  0  0  0
 16 31  1  0  0  0  0
 17 18  1  0  0  0  0
 17 32  1  0  0  0  0
 17 33  1  0  0  0  0
 18 34  1  0  0  0  0
M  END
> <s_m_source_file>
AV-unprocessed.smi

> <i_m_source_file_index>
798

> <i_lp_mmshare_version>
43012

> <i_f3d_flags>
0

> <s_epik_input>
W0NIMl0xW0NIMl1bQ0BASF0oW0NIMl0yKVtDQEBIXShbQ0gyXVtPSF0pW0NAQEhdKFtDQEhdMTIpW05IXUMoPU8pW05IXWMzbm5bY0hdczM=

> <s_epik_cmdline>
J2VwaWtfcHl0aG9uJywgJy1waCcsICc3LjAnLCAnLXRuJywgJzgnLCAnLW1hJywgJzIwMCcsICctbWV0YWxfYmluZGluZycsICctaW1hZScsICc8aW5maWxlLm1hZT4nLCAnLW9tYWUnLCAnPG91dGZpbGUubWFlPic=

> <r_lp_tautomer_probability>
1

> <r_epik_Ionization_Penalty>
0.000329046

> <r_epik_Ionization_Penalty_Charging>
0

> <r_epik_Ionization_Penalty_Neutral>
0.000329046

> <r_epik_State_Penalty>
-0

> <r_epik_Charging_Adjusted_Penalty>
0

> <i_epik_Tot_Q>
0

> <i_epik_Tot_abs_Q>
0

> <r_epik_Metal_State_Penalty>
0.173433

> <b_epik_Metal_Only>
0

> <s_lp_Force_Field>
OPLS_2005

> <r_lp_Energy>
50.5105

> <b_lp_Chiralities_Consistent>
1

> <s_lp_Variant>
AV-unprocessed.smi:798-5

> <Gold.Version>
5.8.1

> <Gold.Id.Protein>
6NUR|6NUR_protein|mol2

> <Gold.PLP.Fitness>
39.3202

> <Gold.PLP.PLP>
-29.4993

> <Gold.PLP.part.hbond>
-5.0000

> <Gold.PLP.part.metal>
0.0000

> <Gold.PLP.part.buried>
-3.7718

> <Gold.PLP.part.nonpolar>
-21.1269

> <Gold.PLP.part.repulsive>
0.1719

> <Gold.PLP.ligand.clash>
0.0000

> <Gold.PLP.ligand.torsion>
0.7819

> <Gold.PLP.Chemscore.Hbond>
3.7920

> <Gold.PLP.Chemscore.CHOScore>
0.0000

> <Gold.PLP.Chemscore.Metal>
0.0000

> <Gold.Chemscore.Hbonds>
donor molecule, donor type, donor heavy atom, donor atom, acceptor molecule, acceptor atom, score
      L1  H    18    34       P1  7948  1.00
      P1  H  6896  6909       L1     1  1.00
      P1  H  6931  6943       L1     5  0.91
      P1  H  6934  6947       L1     5  0.85

> <Gold.PLP.Chemscore.Internal.Correction>
0.0087

> <Gold.Rescore>
     Score         DG    S(hbond)    S(metal)    S(lipo)     H(rot)  DE(clash)    DE(int)     intcor
     17.48     -18.44       3.38        0.00      56.77       1.94       0.07       0.89       ----

> <Gold.Chemscore.Fitness>
17.4843

> <Gold.Chemscore.DG>
-18.4437

> <Gold.Chemscore.ZeroCoef>
-5.4800

> <Gold.Chemscore.Hbond>
3.3827

> <Gold.Chemscore.Metal>
0.0000

> <Gold.Chemscore.Lipo>
56.7745

> <Gold.Chemscore.Internal_Hbond>
0.0000

> <Gold.Chemscore.DEClash>
0.0699

> <Gold.Chemscore.DEInternal>
0.8895

> <Gold.Chemscore.Rot>
1.9442

> <Gold.Chemscore.Internal.Correction>
   9.000000E+99

> <Gold.Chemscore.Hbonds>
donor molecule, donor type, donor heavy atom, donor atom, acceptor molecule, acceptor atom, score
      L1  H    18    34       P1  7948  0.98
      P1  H  6896  6909       L1     1  0.97
      P1  H  6931  6943       L1     5  0.42
      P1  H  6934  6947       L1     5  0.75

> <Gold.Chemscore.Hbond.Weighted>
-11.2981

> <Gold.Chemscore.Metal.Weighted>
-0.0000

> <Gold.Chemscore.Lipo.Weighted>
-6.6426

> <Gold.Chemscore.Internal_Hbond.Weighted>
0.0000

> <Gold.Chemscore.DEClash.Weighted>
0.0699

> <Gold.Chemscore.DEInternal.Weighted>
0.8895

> <Gold.Chemscore.Rot.Weighted>
4.9771

> <Gold.Chemscore.Internal.Correction.Weighted>
   9.000000E+99

> <Gold.Protein.RotatedTorsions>
[ 6907 6896 6895 6894 ] final   71.98 input  -60.11 | X-H torsion
[ 7974 7965 7964 7962 ] final   46.52 input  175.53 | X-H torsion
[ 8008 7997 7996 7995 ] final -153.06 input   59.86 | X-H torsion
[ 10167 10162 10161 10158 ] final   30.32 input  -65.29 | X-H torsion
[ 10718 10713 10712 10709 ] final -124.72 input   66.30 | X-H torsion
[ 10763 10752 10751 10750 ] final  174.22 input  -60.55 | X-H torsion
[ 11005 11000 10999 10996 ] final    3.71 input  -57.11 | X-H torsion

> <Gold.Protein.ActiveResidues>
 VAL166  LYS551  ARG553  GLY616  TRP617  ASP618  TYR619  PRO620  LYS621  CYS622 
 ASP623  PHE694  ASN695  SER759  ASP760  ASP761  ALA762  ILE779  LEU786  VAL792 
 PHE793  MET794  SER795  GLU796  ALA797  LYS798  CYS799  TRP800  GLU811  SER814 

> <Gold.Protein.RotatedAtoms>
  152.4842  134.4639  159.9613 H   0  0  0  0  0  0  0  0  0  0  0  0  # atno 6907 bound_to 6896
  151.4639  133.3580  159.2821 H   0  0  0  0  0  0  0  0  0  0  0  0  # atno 6908 bound_to 6896
  150.8938  134.8369  159.7372 H   0  0  0  0  0  0  0  0  0  0  0  0  # atno 6909 bound_to 6896
  146.0382  139.4847  142.9795 H   0  0  0  0  0  0  0  0  0  0  0  0  # atno 7974 bound_to 7965
  155.6649  140.0726  157.2541 H   0  0  0  0  0  0  0  0  0  0  0  0  # atno 8008 bound_to 7997
  154.4135  140.1709  156.1867 H   0  0  0  0  0  0  0  0  0  0  0  0  # atno 8009 bound_to 7997
  155.9666  140.3365  155.6541 H   0  0  0  0  0  0  0  0  0  0  0  0  # atno 8010 bound_to 7997
  140.4688  144.0794  150.6231 H   0  0  0  0  0  0  0  0  0  0  0  0  # atno 10167 bound_to 10162
  156.1612  130.6603  151.0052 H   0  0  0  0  0  0  0  0  0  0  0  0  # atno 10718 bound_to 10713
  154.4509  135.2764  155.1782 H   0  0  0  0  0  0  0  0  0  0  0  0  # atno 10763 bound_to 10752
  154.3609  135.6129  153.5694 H   0  0  0  0  0  0  0  0  0  0  0  0  # atno 10764 bound_to 10752
  152.9847  135.5834  154.4853 H   0  0  0  0  0  0  0  0  0  0  0  0  # atno 10765 bound_to 10752
  140.5901  133.9932  155.8085 H   0  0  0  0  0  0  0  0  0  0  0  0  # atno 11005 bound_to 11000
  145.6928  141.0159  143.1546 LP  0  0  0  0  0  0  0  0  0  0  0  0  # atno 17320 bound_to 7965
  144.7062  139.8553  143.7429 LP  0  0  0  0  0  0  0  0  0  0  0  0  # atno 17321 bound_to 7965
  140.4003  143.2707  151.9956 LP  0  0  0  0  0  0  0  0  0  0  0  0  # atno 17342 bound_to 10162
  139.4815  144.6003  151.7617 LP  0  0  0  0  0  0  0  0  0  0  0  0  # atno 17343 bound_to 10162
  157.6734  131.0856  150.7556 LP  0  0  0  0  0  0  0  0  0  0  0  0  # atno 17370 bound_to 10713
  156.7619  130.4801  149.5435 LP  0  0  0  0  0  0  0  0  0  0  0  0  # atno 17371 bound_to 10713
  141.0941  133.9871  157.3190 LP  0  0  0  0  0  0  0  0  0  0  0  0  # atno 17394 bound_to 11000
  139.9278  135.0201  156.8295 LP  0  0  0  0  0  0  0  0  0  0  0  0  # atno 17395 bound_to 11000

$$$$
