AV-unprocessed.smi:1096|AV-procd|sdf|4749|dock7
  -GOLD-   22720 3283D 1   1.00000     0.00000
 Structure written by MMmdl.
 48 50  0  0  0  0  0  0  0  0  1 V2000
  150.3124  134.0329  155.5580 O   0  0  0  0  0  0  0  0  0  0  0  0
  149.8463  134.7547  154.6758 C   0  0  0  0  0  0  0  0  0  0  0  0
  148.9883  134.3592  153.7187 N   0  0  0  0  0  0  0  0  0  0  0  0
  148.4616  133.0596  153.4938 C   0  0  0  0  0  0  0  0  0  0  0  0
  149.2190  132.0027  154.0482 C   0  0  0  0  0  0  0  0  0  0  0  0
  148.7795  130.6749  153.8839 C   0  0  0  0  0  0  0  0  0  0  0  0
  147.5917  130.4375  153.1694 C   0  0  0  0  0  0  0  0  0  0  0  0
  146.8975  131.5457  152.6503 C   0  0  0  0  0  0  0  0  0  0  0  0
  147.3171  132.8191  152.8060 N   0  0  0  0  0  0  0  0  0  0  0  0
  150.1392  136.0579  154.5549 N   0  0  0  0  0  0  0  0  0  0  0  0
  151.0265  136.8094  155.4377 C   0  0  2  0  0  0  0  0  0  0  0  0
  150.3989  136.8986  156.8410 C   0  0  0  0  0  0  0  0  0  0  0  0
  151.2654  137.7392  157.7925 C   0  0  0  0  0  0  0  0  0  0  0  0
  151.5051  139.1569  157.2259 C   0  0  1  0  0  0  0  0  0  0  0  0
  152.3647  140.0205  158.1744 C   0  0  0  0  0  0  0  0  0  0  0  0
  153.4841  139.6092  158.4845 O   0  0  0  0  0  0  0  0  0  0  0  0
  151.8663  141.1806  158.6723 N   0  0  0  0  0  0  0  0  0  0  0  0
  150.6253  141.7807  158.1675 C   0  0  0  0  0  0  0  0  0  0  0  0
  150.9831  142.9287  157.2076 C   0  0  0  0  0  0  0  0  0  0  0  0
  151.9097  144.2414  158.0658 S   0  0  0  0  0  0  0  0  0  0  0  0
  153.1764  143.2343  158.9003 C   0  0  0  0  0  0  0  0  0  0  0  0
  152.5314  142.0552  159.6460 C   0  0  0  0  0  0  0  0  0  0  0  0
  152.1598  139.0549  155.8329 C   0  0  0  0  0  0  0  0  0  0  0  0
  151.3002  138.2182  154.8715 C   0  0  0  0  0  0  0  0  0  0  0  0
  148.6796  135.0701  153.0723 H   0  0  0  0  0  0  0  0  0  0  0  0
  150.1293  132.2028  154.5948 H   0  0  0  0  0  0  0  0  0  0  0  0
  149.3446  129.8536  154.2996 H   0  0  0  0  0  0  0  0  0  0  0  0
  147.2226  129.4332  153.0229 H   0  0  0  0  0  0  0  0  0  0  0  0
  145.9808  131.4071  152.0964 H   0  0  0  0  0  0  0  0  0  0  0  0
  149.7106  136.5728  153.7997 H   0  0  0  0  0  0  0  0  0  0  0  0
  151.9742  136.2741  155.5241 H   0  0  0  0  0  0  0  0  0  0  0  0
  149.4033  137.3401  156.7752 H   0  0  0  0  0  0  0  0  0  0  0  0
  150.2664  135.8982  157.2549 H   0  0  0  0  0  0  0  0  0  0  0  0
  150.7804  137.8012  158.7676 H   0  0  0  0  0  0  0  0  0  0  0  0
  152.2148  137.2248  157.9505 H   0  0  0  0  0  0  0  0  0  0  0  0
  150.5168  139.6040  157.1260 H   0  0  0  0  0  0  0  0  0  0  0  0
  149.9921  141.0556  157.6544 H   0  0  0  0  0  0  0  0  0  0  0  0
  150.0216  142.1550  158.9953 H   0  0  0  0  0  0  0  0  0  0  0  0
  151.5841  142.5554  156.3774 H   0  0  0  0  0  0  0  0  0  0  0  0
  150.0794  143.3615  156.7782 H   0  0  0  0  0  0  0  0  0  0  0  0
  153.8913  142.8735  158.1601 H   0  0  0  0  0  0  0  0  0  0  0  0
  153.7271  143.8690  159.5947 H   0  0  0  0  0  0  0  0  0  0  0  0
  151.8029  142.4293  160.3667 H   0  0  0  0  0  0  0  0  0  0  0  0
  153.2682  141.5312  160.2526 H   0  0  0  0  0  0  0  0  0  0  0  0
  152.3118  140.0481  155.4089 H   0  0  0  0  0  0  0  0  0  0  0  0
  153.1499  138.6042  155.9183 H   0  0  0  0  0  0  0  0  0  0  0  0
  151.8015  138.1468  153.9057 H   0  0  0  0  0  0  0  0  0  0  0  0
  150.3561  138.7341  154.6907 H   0  0  0  0  0  0  0  0  0  0  0  0
  1  2  2  0  0  0  0
  2  3  1  0  0  0  0
  2 10  1  0  0  0  0
  3  4  1  0  0  0  0
  3 25  1  0  0  0  0
  4  9  1  0  0  0  0
  4  5  2  0  0  0  0
  5  6  1  0  0  0  0
  5 26  1  0  0  0  0
  6  7  2  0  0  0  0
  6 27  1  0  0  0  0
  7  8  1  0  0  0  0
  7 28  1  0  0  0  0
  8  9  2  0  0  0  0
  8 29  1  0  0  0  0
 10 11  1  0  0  0  0
 10 30  1  0  0  0  0
 11 24  1  0  0  0  0
 11 12  1  0  0  0  0
 11 31  1  0  0  0  0
 12 13  1  0  0  0  0
 12 32  1  0  0  0  0
 12 33  1  0  0  0  0
 13 14  1  0  0  0  0
 13 34  1  0  0  0  0
 13 35  1  0  0  0  0
 14 15  1  0  0  0  0
 14 23  1  0  0  0  0
 14 36  1  0  0  0  0
 15 16  2  0  0  0  0
 15 17  1  0  0  0  0
 17 22  1  0  0  0  0
 17 18  1  0  0  0  0
 18 19  1  0  0  0  0
 18 37  1  0  0  0  0
 18 38  1  0  0  0  0
 19 20  1  0  0  0  0
 19 39  1  0  0  0  0
 19 40  1  0  0  0  0
 20 21  1  0  0  0  0
 21 22  1  0  0  0  0
 21 41  1  0  0  0  0
 21 42  1  0  0  0  0
 22 43  1  0  0  0  0
 22 44  1  0  0  0  0
 23 24  1  0  0  0  0
 23 45  1  0  0  0  0
 23 46  1  0  0  0  0
 24 47  1  0  0  0  0
 24 48  1  0  0  0  0
M  END
> <s_m_source_file>
AV-unprocessed.smi

> <i_m_source_file_index>
1096

> <i_lp_mmshare_version>
43012

> <i_f3d_flags>
0

> <s_epik_input>
bjFbY0hdW2NIXVtjSF1bY0hdYzFbTkhdQyg9TylbTkhdW0NAQEhdMltDSDJdW0NIMl1bQ0BIXShbQ0gyXVtDSDJdMilDKD1PKU4zW0NIMl1bQ0gyXVNbQ0gyXVtDSDJdMw==

> <s_epik_cmdline>
J2VwaWtfcHl0aG9uJywgJy1waCcsICc3LjAnLCAnLXRuJywgJzgnLCAnLW1hJywgJzIwMCcsICctbWV0YWxfYmluZGluZycsICctaW1hZScsICc8aW5maWxlLm1hZT4nLCAnLW9tYWUnLCAnPG91dGZpbGUubWFlPic=

> <r_lp_tautomer_probability>
1

> <r_epik_Ionization_Penalty>
5.08504e-05

> <r_epik_Ionization_Penalty_Charging>
0

> <r_epik_Ionization_Penalty_Neutral>
5.08504e-05

> <r_epik_State_Penalty>
-0

> <r_epik_Charging_Adjusted_Penalty>
0

> <i_epik_Tot_Q>
0

> <i_epik_Tot_abs_Q>
0

> <r_epik_Metal_State_Penalty>
-0

> <b_epik_Metal_Only>
0

> <s_lp_Force_Field>
OPLS_2005

> <r_lp_Energy>
29.3602

> <b_lp_Chiralities_Consistent>
1

> <s_lp_Variant>
AV-unprocessed.smi:1096-1

> <Gold.Version>
5.8.1

> <Gold.Id.Protein>
6NUR|6NUR_protein|mol2

> <Gold.PLP.Fitness>
51.6089

> <Gold.PLP.PLP>
-44.0041

> <Gold.PLP.part.hbond>
-3.2815

> <Gold.PLP.part.metal>
0.0000

> <Gold.PLP.part.buried>
-3.2621

> <Gold.PLP.part.nonpolar>
-37.3494

> <Gold.PLP.part.repulsive>
0.2381

> <Gold.PLP.ligand.clash>
0.0000

> <Gold.PLP.ligand.torsion>
0.2043

> <Gold.PLP.Chemscore.Hbond>
2.6490

> <Gold.PLP.Chemscore.CHOScore>
0.0000

> <Gold.PLP.Chemscore.Metal>
0.0000

> <Gold.Chemscore.Hbonds>
donor molecule, donor type, donor heavy atom, donor atom, acceptor molecule, acceptor atom, score
      L1  H     3    25       P1  7948  1.00
      L1  H    10    30       P1  7948  0.69
      P1  H  7997  8009       L1    16  1.00

> <Gold.PLP.Chemscore.Internal.Correction>
0.0664

> <Gold.Rescore>
     Score         DG    S(hbond)    S(metal)    S(lipo)     H(rot)  DE(clash)    DE(int)     intcor
     19.90     -21.60       2.02        0.00     107.75       1.26       0.07       1.64       ----

> <Gold.Chemscore.Fitness>
19.8955

> <Gold.Chemscore.DG>
-21.6036

> <Gold.Chemscore.ZeroCoef>
-5.4800

> <Gold.Chemscore.Hbond>
2.0169

> <Gold.Chemscore.Metal>
0.0000

> <Gold.Chemscore.Lipo>
107.7522

> <Gold.Chemscore.Internal_Hbond>
0.0000

> <Gold.Chemscore.DEClash>
0.0710

> <Gold.Chemscore.DEInternal>
1.6371

> <Gold.Chemscore.Rot>
1.2578

> <Gold.Chemscore.Internal.Correction>
   9.000000E+99

> <Gold.Chemscore.Hbonds>
donor molecule, donor type, donor heavy atom, donor atom, acceptor molecule, acceptor atom, score
      L1  H     3    25       P1  7948  0.53
      L1  H    10    30       P1  7948  0.37
      P1  H  7997  8009       L1    16  0.90

> <Gold.Chemscore.Hbond.Weighted>
-6.7366

> <Gold.Chemscore.Metal.Weighted>
-0.0000

> <Gold.Chemscore.Lipo.Weighted>
-12.6070

> <Gold.Chemscore.Internal_Hbond.Weighted>
0.0000

> <Gold.Chemscore.DEClash.Weighted>
0.0710

> <Gold.Chemscore.DEInternal.Weighted>
1.6371

> <Gold.Chemscore.Rot.Weighted>
3.2200

> <Gold.Chemscore.Internal.Correction.Weighted>
   9.000000E+99

> <Gold.Protein.RotatedTorsions>
[ 6907 6896 6895 6894 ] final   90.92 input  -60.11 | X-H torsion
[ 7974 7965 7964 7962 ] final   57.38 input  175.53 | X-H torsion
[ 8008 7997 7996 7995 ] final  131.44 input   59.86 | X-H torsion
[ 10167 10162 10161 10158 ] final  100.93 input  -65.29 | X-H torsion
[ 10718 10713 10712 10709 ] final  -72.77 input   66.30 | X-H torsion
[ 10763 10752 10751 10750 ] final  163.98 input  -60.55 | X-H torsion
[ 11005 11000 10999 10996 ] final -165.96 input  -57.11 | X-H torsion

> <Gold.Protein.ActiveResidues>
 VAL166  LYS551  ARG553  GLY616  TRP617  ASP618  TYR619  PRO620  LYS621  CYS622 
 ASP623  PHE694  ASN695  SER759  ASP760  ASP761  ALA762  ILE779  LEU786  VAL792 
 PHE793  MET794  SER795  GLU796  ALA797  LYS798  CYS799  TRP800  GLU811  SER814 

> <Gold.Protein.RotatedAtoms>
  152.5447  134.1736  159.8606 H   0  0  0  0  0  0  0  0  0  0  0  0  # atno 6907 bound_to 6896
  151.1745  133.4757  159.2601 H   0  0  0  0  0  0  0  0  0  0  0  0  # atno 6908 bound_to 6896
  151.1241  135.0107  159.8607 H   0  0  0  0  0  0  0  0  0  0  0  0  # atno 6909 bound_to 6896
  145.9297  139.3797  143.0429 H   0  0  0  0  0  0  0  0  0  0  0  0  # atno 7974 bound_to 7965
  156.2970  140.2571  156.2926 H   0  0  0  0  0  0  0  0  0  0  0  0  # atno 8008 bound_to 7997
  154.9495  140.0394  157.2155 H   0  0  0  0  0  0  0  0  0  0  0  0  # atno 8009 bound_to 7997
  154.8049  140.2834  155.5899 H   0  0  0  0  0  0  0  0  0  0  0  0  # atno 8010 bound_to 7997
  139.7483  144.6991  151.0470 H   0  0  0  0  0  0  0  0  0  0  0  0  # atno 10167 bound_to 10162
  156.0307  130.4379  150.2642 H   0  0  0  0  0  0  0  0  0  0  0  0  # atno 10718 bound_to 10713
  154.3019  135.2759  155.2607 H   0  0  0  0  0  0  0  0  0  0  0  0  # atno 10763 bound_to 10752
  154.5040  135.5800  153.6556 H   0  0  0  0  0  0  0  0  0  0  0  0  # atno 10764 bound_to 10752
  152.9899  135.6165  154.3190 H   0  0  0  0  0  0  0  0  0  0  0  0  # atno 10765 bound_to 10752
  140.5699  134.5248  157.5160 H   0  0  0  0  0  0  0  0  0  0  0  0  # atno 11005 bound_to 11000
  145.8443  140.9564  143.0783 LP  0  0  0  0  0  0  0  0  0  0  0  0  # atno 17320 bound_to 7965
  144.6763  140.0324  143.7482 LP  0  0  0  0  0  0  0  0  0  0  0  0  # atno 17321 bound_to 7965
  140.7795  143.4839  150.9981 LP  0  0  0  0  0  0  0  0  0  0  0  0  # atno 17342 bound_to 10162
  139.8527  143.7417  152.3177 LP  0  0  0  0  0  0  0  0  0  0  0  0  # atno 17343 bound_to 10162
  157.0744  131.0126  151.3179 LP  0  0  0  0  0  0  0  0  0  0  0  0  # atno 17370 bound_to 10713
  157.4975  130.7859  149.7570 LP  0  0  0  0  0  0  0  0  0  0  0  0  # atno 17371 bound_to 10713
  139.9367  134.7862  156.0785 LP  0  0  0  0  0  0  0  0  0  0  0  0  # atno 17394 bound_to 11000
  141.1063  133.6659  156.2871 LP  0  0  0  0  0  0  0  0  0  0  0  0  # atno 17395 bound_to 11000

$$$$
