AV-unprocessed.smi:1044|AV-procd|sdf|4543|dock3
  -GOLD-   22720 2573D 1   1.00000     0.00000
 Structure written by MMmdl.
 45 46  0  0  0  0  0  0  0  0  1 V2000
  152.3299  141.9167  159.2301 C   0  0  0  0  0  0  0  0  0  0  0  0
  152.5678  141.0799  157.9706 C   0  0  0  0  0  0  0  0  0  0  0  0
  151.5987  140.0371  157.9265 O   0  0  0  0  0  0  0  0  0  0  0  0
  151.3724  139.3903  156.7263 C   0  0  0  0  0  0  0  0  0  0  0  0
  152.0984  139.7663  155.6437 N   0  0  0  0  0  0  0  0  0  0  0  0
  151.8831  139.1322  154.4732 C   0  0  0  0  0  0  0  0  0  0  0  0
  150.9458  138.0944  154.3210 C   0  0  0  0  0  0  0  0  0  0  0  0
  150.1905  137.7030  155.4422 C   0  0  0  0  0  0  0  0  0  0  0  0
  150.3954  138.3687  156.6754 C   0  0  0  0  0  0  0  0  0  0  0  0
  149.7050  138.0430  157.8760 N   0  0  0  0  0  0  0  0  0  0  0  0
  149.3718  136.8329  158.3562 C   0  0  0  0  0  0  0  0  0  0  0  0
  149.5920  135.7577  157.7990 O   0  0  0  0  0  0  0  0  0  0  0  0
  148.7392  136.9394  159.5334 N   0  0  0  0  0  0  0  0  0  0  0  0
  148.2406  135.8194  160.3250 C   0  0  1  0  0  0  0  0  0  0  0  0
  147.6629  136.3352  161.6503 C   0  0  0  0  0  0  0  0  0  0  0  0
  147.1148  135.1595  162.4665 C   0  0  0  0  0  0  0  0  0  0  0  0
  146.0686  134.3648  161.6661 C   0  0  0  0  0  0  0  0  0  0  0  0
  146.5915  133.9411  160.3507 N   0  0  0  0  0  0  0  0  0  0  0  0
  147.1251  132.3021  160.1109 S   0  0  0  0  0  0  0  0  0  0  0  0
  148.4664  132.0811  161.3496 C   0  0  0  0  0  0  0  0  0  0  0  0
  146.0136  131.4089  160.4717 O   0  0  0  0  0  0  0  0  0  0  0  0
  147.7226  132.2164  158.7697 O   0  0  0  0  0  0  0  0  0  0  0  0
  147.1732  135.0283  159.5378 C   0  0  0  0  0  0  0  0  0  0  0  0
  153.0546  142.7281  159.3005 H   0  0  0  0  0  0  0  0  0  0  0  0
  152.4224  141.3067  160.1291 H   0  0  0  0  0  0  0  0  0  0  0  0
  151.3330  142.3581  159.2241 H   0  0  0  0  0  0  0  0  0  0  0  0
  152.4843  141.7165  157.0882 H   0  0  0  0  0  0  0  0  0  0  0  0
  153.5757  140.6624  157.9935 H   0  0  0  0  0  0  0  0  0  0  0  0
  152.4803  139.4576  153.6343 H   0  0  0  0  0  0  0  0  0  0  0  0
  150.8120  137.6061  153.3671 H   0  0  0  0  0  0  0  0  0  0  0  0
  149.4848  136.8939  155.3353 H   0  0  0  0  0  0  0  0  0  0  0  0
  149.3786  138.8356  158.4094 H   0  0  0  0  0  0  0  0  0  0  0  0
  148.5943  137.8636  159.9127 H   0  0  0  0  0  0  0  0  0  0  0  0
  149.0792  135.1638  160.5601 H   0  0  0  0  0  0  0  0  0  0  0  0
  148.4302  136.8587  162.2218 H   0  0  0  0  0  0  0  0  0  0  0  0
  146.8655  137.0551  161.4599 H   0  0  0  0  0  0  0  0  0  0  0  0
  147.9338  134.5065  162.7655 H   0  0  0  0  0  0  0  0  0  0  0  0
  146.6681  135.5287  163.3900 H   0  0  0  0  0  0  0  0  0  0  0  0
  145.7293  133.5016  162.2381 H   0  0  0  0  0  0  0  0  0  0  0  0
  145.1886  134.9871  161.5006 H   0  0  0  0  0  0  0  0  0  0  0  0
  148.8426  131.0606  161.2871 H   0  0  0  0  0  0  0  0  0  0  0  0
  148.0800  132.2551  162.3522 H   0  0  0  0  0  0  0  0  0  0  0  0
  149.2828  132.7701  161.1382 H   0  0  0  0  0  0  0  0  0  0  0  0
  146.3666  135.6967  159.2340 H   0  0  0  0  0  0  0  0  0  0  0  0
  147.5959  134.6219  158.6188 H   0  0  0  0  0  0  0  0  0  0  0  0
  1  2  1  0  0  0  0
  1 24  1  0  0  0  0
  1 25  1  0  0  0  0
  1 26  1  0  0  0  0
  2  3  1  0  0  0  0
  2 27  1  0  0  0  0
  2 28  1  0  0  0  0
  3  4  1  0  0  0  0
  4  9  1  0  0  0  0
  4  5  2  0  0  0  0
  5  6  1  0  0  0  0
  6  7  2  0  0  0  0
  6 29  1  0  0  0  0
  7  8  1  0  0  0  0
  7 30  1  0  0  0  0
  8  9  2  0  0  0  0
  8 31  1  0  0  0  0
  9 10  1  0  0  0  0
 10 11  1  0  0  0  0
 10 32  1  0  0  0  0
 11 12  2  0  0  0  0
 11 13  1  0  0  0  0
 13 14  1  0  0  0  0
 13 33  1  0  0  0  0
 14 23  1  0  0  0  0
 14 15  1  0  0  0  0
 14 34  1  0  0  0  0
 15 16  1  0  0  0  0
 15 35  1  0  0  0  0
 15 36  1  0  0  0  0
 16 17  1  0  0  0  0
 16 37  1  0  0  0  0
 16 38  1  0  0  0  0
 17 18  1  0  0  0  0
 17 39  1  0  0  0  0
 17 40  1  0  0  0  0
 18 19  1  0  0  0  0
 18 23  1  0  0  0  0
 19 20  1  0  0  0  0
 19 21  2  0  0  0  0
 19 22  2  0  0  0  0
 20 41  1  0  0  0  0
 20 42  1  0  0  0  0
 20 43  1  0  0  0  0
 23 44  1  0  0  0  0
 23 45  1  0  0  0  0
M  END
> <s_m_source_file>
AV-unprocessed.smi

> <i_m_source_file_index>
1044

> <i_lp_mmshare_version>
43012

> <i_f3d_flags>
0

> <s_epik_input>
W0NIM11bQ0gyXU9jMW5bY0hdW2NIXVtjSF1jMVtOSF1DKD1PKVtOSF1bQ0BASF0yW0NIMl1bQ0gyXVtDSDJdTihbQ0gyXTIpUyg9TykoPU8pW0NIM10=

> <s_epik_cmdline>
J2VwaWtfcHl0aG9uJywgJy1waCcsICc3LjAnLCAnLXRuJywgJzgnLCAnLW1hJywgJzIwMCcsICctbWV0YWxfYmluZGluZycsICctaW1hZScsICc8aW5maWxlLm1hZT4nLCAnLW9tYWUnLCAnPG91dGZpbGUubWFlPic=

> <r_lp_tautomer_probability>
1

> <r_epik_Ionization_Penalty>
0.000106941

> <r_epik_Ionization_Penalty_Charging>
0

> <r_epik_Ionization_Penalty_Neutral>
0.000106941

> <r_epik_State_Penalty>
-0

> <r_epik_Charging_Adjusted_Penalty>
0

> <i_epik_Tot_Q>
0

> <i_epik_Tot_abs_Q>
0

> <r_epik_Metal_State_Penalty>
-0

> <b_epik_Metal_Only>
0

> <s_lp_Force_Field>
OPLS_2005

> <r_lp_Energy>
2.58549

> <b_lp_Chiralities_Consistent>
1

> <s_lp_Variant>
AV-unprocessed.smi:1044-2

> <Gold.Version>
5.8.1

> <Gold.Id.Protein>
6NUR|6NUR_protein|mol2

> <Gold.PLP.Fitness>
39.7728

> <Gold.PLP.PLP>
-34.9282

> <Gold.PLP.part.hbond>
-2.0000

> <Gold.PLP.part.metal>
0.0000

> <Gold.PLP.part.buried>
-5.8992

> <Gold.PLP.part.nonpolar>
-28.0285

> <Gold.PLP.part.repulsive>
0.8025

> <Gold.PLP.ligand.clash>
0.0000

> <Gold.PLP.ligand.torsion>
1.4468

> <Gold.PLP.Chemscore.Hbond>
1.8800

> <Gold.PLP.Chemscore.CHOScore>
0.0000

> <Gold.PLP.Chemscore.Metal>
0.0000

> <Gold.Chemscore.Hbonds>
donor molecule, donor type, donor heavy atom, donor atom, acceptor molecule, acceptor atom, score
      P1  H  6896  6907       L1    12  0.06
      P1  H  7997  8010       L1     5  0.21

> <Gold.PLP.Chemscore.Internal.Correction>
2.0982

> <Gold.Rescore>
     Score         DG    S(hbond)    S(metal)    S(lipo)     H(rot)  DE(clash)    DE(int)     intcor
     14.33     -17.19       1.82        0.00      80.09       1.45       0.08       2.78       ----

> <Gold.Chemscore.Fitness>
14.3301

> <Gold.Chemscore.DG>
-17.1900

> <Gold.Chemscore.ZeroCoef>
-5.4800

> <Gold.Chemscore.Hbond>
1.8155

> <Gold.Chemscore.Metal>
0.0000

> <Gold.Chemscore.Lipo>
80.0915

> <Gold.Chemscore.Internal_Hbond>
0.0000

> <Gold.Chemscore.DEClash>
0.0765

> <Gold.Chemscore.DEInternal>
2.7835

> <Gold.Chemscore.Rot>
1.4549

> <Gold.Chemscore.Internal.Correction>
   9.000000E+99

> <Gold.Chemscore.Hbonds>
donor molecule, donor type, donor heavy atom, donor atom, acceptor molecule, acceptor atom, score
      P1  H  6896  6907       L1    12  0.06
      P1  H  7997  8010       L1     5  0.18

> <Gold.Chemscore.Hbond.Weighted>
-6.0638

> <Gold.Chemscore.Metal.Weighted>
-0.0000

> <Gold.Chemscore.Lipo.Weighted>
-9.3707

> <Gold.Chemscore.Internal_Hbond.Weighted>
0.0000

> <Gold.Chemscore.DEClash.Weighted>
0.0765

> <Gold.Chemscore.DEInternal.Weighted>
2.7835

> <Gold.Chemscore.Rot.Weighted>
3.7244

> <Gold.Chemscore.Internal.Correction.Weighted>
   9.000000E+99

> <Gold.Protein.RotatedTorsions>
[ 6907 6896 6895 6894 ] final  -86.50 input  -60.11 | X-H torsion
[ 7974 7965 7964 7962 ] final -118.34 input  175.53 | X-H torsion
[ 8008 7997 7996 7995 ] final   85.51 input   59.86 | X-H torsion
[ 10167 10162 10161 10158 ] final -121.25 input  -65.29 | X-H torsion
[ 10718 10713 10712 10709 ] final   42.53 input   66.30 | X-H torsion
[ 10763 10752 10751 10750 ] final   67.19 input  -60.55 | X-H torsion
[ 11005 11000 10999 10996 ] final   -0.31 input  -57.11 | X-H torsion

> <Gold.Protein.ActiveResidues>
 VAL166  LYS551  ARG553  GLY616  TRP617  ASP618  TYR619  PRO620  LYS621  CYS622 
 ASP623  PHE694  ASN695  SER759  ASP760  ASP761  ALA762  ILE779  LEU786  VAL792 
 PHE793  MET794  SER795  GLU796  ALA797  LYS798  CYS799  TRP800  GLU811  SER814 

> <Gold.Protein.RotatedAtoms>
  150.6867  134.3041  159.4718 H   0  0  0  0  0  0  0  0  0  0  0  0  # atno 6907 bound_to 6896
  152.0933  134.9389  160.0580 H   0  0  0  0  0  0  0  0  0  0  0  0  # atno 6908 bound_to 6896
  152.0697  133.4066  159.4490 H   0  0  0  0  0  0  0  0  0  0  0  0  # atno 6909 bound_to 6896
  145.0749  140.8385  143.4073 H   0  0  0  0  0  0  0  0  0  0  0  0  # atno 7974 bound_to 7965
  155.9509  140.3401  155.6407 H   0  0  0  0  0  0  0  0  0  0  0  0  # atno 8008 bound_to 7997
  155.6921  140.0750  157.2462 H   0  0  0  0  0  0  0  0  0  0  0  0  # atno 8009 bound_to 7997
  154.4122  140.1655  156.2085 H   0  0  0  0  0  0  0  0  0  0  0  0  # atno 8010 bound_to 7997
  140.0271  143.5286  152.2194 H   0  0  0  0  0  0  0  0  0  0  0  0  # atno 10167 bound_to 10162
  157.4058  130.7886  149.7388 H   0  0  0  0  0  0  0  0  0  0  0  0  # atno 10718 bound_to 10713
  153.0174  135.5293  154.6940 H   0  0  0  0  0  0  0  0  0  0  0  0  # atno 10763 bound_to 10752
  154.6067  135.2874  155.0479 H   0  0  0  0  0  0  0  0  0  0  0  0  # atno 10764 bound_to 10752
  154.1516  135.6562  153.5017 H   0  0  0  0  0  0  0  0  0  0  0  0  # atno 10765 bound_to 10752
  140.6349  133.9542  155.8294 H   0  0  0  0  0  0  0  0  0  0  0  0  # atno 11005 bound_to 11000
  145.1248  139.2670  143.5570 LP  0  0  0  0  0  0  0  0  0  0  0  0  # atno 17320 bound_to 7965
  146.3530  140.0882  142.8614 LP  0  0  0  0  0  0  0  0  0  0  0  0  # atno 17321 bound_to 7965
  139.6101  144.7606  151.2972 LP  0  0  0  0  0  0  0  0  0  0  0  0  # atno 17342 bound_to 10162
  140.7318  143.6842  150.7976 LP  0  0  0  0  0  0  0  0  0  0  0  0  # atno 17343 bound_to 10162
  155.9836  130.3999  150.3354 LP  0  0  0  0  0  0  0  0  0  0  0  0  # atno 17370 bound_to 10713
  157.1487  131.0315  151.2895 LP  0  0  0  0  0  0  0  0  0  0  0  0  # atno 17371 bound_to 10713
  141.0649  134.0292  157.3608 LP  0  0  0  0  0  0  0  0  0  0  0  0  # atno 17394 bound_to 11000
  139.9102  135.0188  156.7659 LP  0  0  0  0  0  0  0  0  0  0  0  0  # atno 17395 bound_to 11000

$$$$
