AV-unprocessed.smi:2253|AV-procd|sdf|9121|dock2
  -GOLD-   2272012323D 1   1.00000     0.00000
 Structure written by MMmdl.
 51 53  0  0  0  0  0  0  0  0  2 V2000
  151.6909  144.6210  160.5582 C   0  0  0  0  0  0  0  0  0  0  0  0
  151.4799  143.4200  159.7622 N   0  0  0  0  0  0  0  0  0  0  0  0
  152.5468  142.4620  160.0402 C   0  0  0  0  0  0  0  0  0  0  0  0
  152.3050  141.1585  159.2599 C   0  0  0  0  0  0  0  0  0  0  0  0
  152.2353  141.4003  157.7318 C   0  0  0  0  0  0  0  0  0  0  0  0
  151.8944  140.1765  156.9341 N   0  3  2  0  0  0  0  0  0  0  0  0
  152.0917  140.3046  155.4601 C   0  0  0  0  0  0  0  0  0  0  0  0
  151.8345  138.9754  154.7294 C   0  0  0  0  0  0  0  0  0  0  0  0
  150.4321  138.4294  155.0259 C   0  0  1  0  0  0  0  0  0  0  0  0
  150.2595  137.1295  154.3841 N   0  0  0  0  0  0  0  0  0  0  0  0
  150.8345  135.9870  154.7871 C   0  0  0  0  0  0  0  0  0  0  0  0
  151.5840  135.9153  155.7606 O   0  0  0  0  0  0  0  0  0  0  0  0
  150.4711  134.9589  154.0014 N   0  0  0  0  0  0  0  0  0  0  0  0
  150.8529  133.5911  154.0797 C   0  0  0  0  0  0  0  0  0  0  0  0
  151.8947  133.0972  154.9021 C   0  0  0  0  0  0  0  0  0  0  0  0
  152.1812  131.7173  154.8725 C   0  0  0  0  0  0  0  0  0  0  0  0
  151.5193  130.8358  154.0933 N   0  0  0  0  0  0  0  0  0  0  0  0
  150.5357  131.3121  153.3011 C   0  0  0  0  0  0  0  0  0  0  0  0
  150.1695  132.6723  153.2553 C   0  0  0  0  0  0  0  0  0  0  0  0
  149.1743  133.0847  152.4330 F   0  0  0  0  0  0  0  0  0  0  0  0
  150.2500  138.3209  156.5476 C   0  0  0  0  0  0  0  0  0  0  0  0
  150.5242  139.6684  157.2337 C   0  0  0  0  0  0  0  0  0  0  0  0
  151.2025  142.5261  157.4896 C   0  0  0  0  0  0  0  0  0  0  0  0
  151.4941  143.7711  158.3446 C   0  0  0  0  0  0  0  0  0  0  0  0
  151.6743  144.3823  161.6221 H   0  0  0  0  0  0  0  0  0  0  0  0
  150.9002  145.3484  160.3705 H   0  0  0  0  0  0  0  0  0  0  0  0
  152.6486  145.0900  160.3278 H   0  0  0  0  0  0  0  0  0  0  0  0
  153.5170  142.8878  159.7787 H   0  0  0  0  0  0  0  0  0  0  0  0
  152.5698  142.2448  161.1089 H   0  0  0  0  0  0  0  0  0  0  0  0
  153.1190  140.4765  159.5063 H   0  0  0  0  0  0  0  0  0  0  0  0
  151.3819  140.6937  159.6102 H   0  0  0  0  0  0  0  0  0  0  0  0
  153.2191  141.7483  157.4116 H   0  0  0  0  0  0  0  0  0  0  0  0
  151.4371  141.0856  155.0697 H   0  0  0  0  0  0  0  0  0  0  0  0
  153.1154  140.5930  155.2262 H   0  0  0  0  0  0  0  0  0  0  0  0
  151.9598  139.1178  153.6553 H   0  0  0  0  0  0  0  0  0  0  0  0
  152.5880  138.2468  155.0334 H   0  0  0  0  0  0  0  0  0  0  0  0
  149.6966  139.1291  154.6233 H   0  0  0  0  0  0  0  0  0  0  0  0
  149.6530  137.0961  153.5774 H   0  0  0  0  0  0  0  0  0  0  0  0
  149.7932  135.1695  153.2833 H   0  0  0  0  0  0  0  0  0  0  0  0
  152.4832  133.7381  155.5396 H   0  0  0  0  0  0  0  0  0  0  0  0
  152.9698  131.3112  155.4885 H   0  0  0  0  0  0  0  0  0  0  0  0
  150.0262  130.5876  152.6832 H   0  0  0  0  0  0  0  0  0  0  0  0
  149.2370  137.9923  156.7835 H   0  0  0  0  0  0  0  0  0  0  0  0
  150.9223  137.5627  156.9521 H   0  0  0  0  0  0  0  0  0  0  0  0
  150.3801  139.5320  158.3034 H   0  0  0  0  0  0  0  0  0  0  0  0
  149.7859  140.4051  156.9127 H   0  0  0  0  0  0  0  0  0  0  0  0
  151.1900  142.8377  156.4470 H   0  0  0  0  0  0  0  0  0  0  0  0
  150.1986  142.1612  157.7123 H   0  0  0  0  0  0  0  0  0  0  0  0
  150.7337  144.5289  158.1511 H   0  0  0  0  0  0  0  0  0  0  0  0
  152.4568  144.2057  158.0695 H   0  0  0  0  0  0  0  0  0  0  0  0
  152.5423  139.4620  157.2342 H   0  0  0  0  0  0  0  0  0  0  0  0
  1  2  1  0  0  0  0
  1 25  1  0  0  0  0
  1 26  1  0  0  0  0
  1 27  1  0  0  0  0
  2 24  1  0  0  0  0
  2  3  1  0  0  0  0
  3  4  1  0  0  0  0
  3 28  1  0  0  0  0
  3 29  1  0  0  0  0
  4  5  1  0  0  0  0
  4 30  1  0  0  0  0
  4 31  1  0  0  0  0
  5  6  1  0  0  0  0
  5 23  1  0  0  0  0
  5 32  1  0  0  0  0
  6 22  1  0  0  0  0
  6  7  1  0  0  0  0
  6 51  1  0  0  0  0
  7  8  1  0  0  0  0
  7 33  1  0  0  0  0
  7 34  1  0  0  0  0
  8  9  1  0  0  0  0
  8 35  1  0  0  0  0
  8 36  1  0  0  0  0
  9 10  1  0  0  0  0
  9 21  1  0  0  0  0
  9 37  1  0  0  0  0
 10 11  1  0  0  0  0
 10 38  1  0  0  0  0
 11 12  2  0  0  0  0
 11 13  1  0  0  0  0
 13 14  1  0  0  0  0
 13 39  1  0  0  0  0
 14 19  1  0  0  0  0
 14 15  2  0  0  0  0
 15 16  1  0  0  0  0
 15 40  1  0  0  0  0
 16 17  2  0  0  0  0
 16 41  1  0  0  0  0
 17 18  1  0  0  0  0
 18 19  2  0  0  0  0
 18 42  1  0  0  0  0
 19 20  1  0  0  0  0
 21 22  1  0  0  0  0
 21 43  1  0  0  0  0
 21 44  1  0  0  0  0
 22 45  1  0  0  0  0
 22 46  1  0  0  0  0
 23 24  1  0  0  0  0
 23 47  1  0  0  0  0
 23 48  1  0  0  0  0
 24 49  1  0  0  0  0
 24 50  1  0  0  0  0
M  CHG  1   6   1
M  END
> <s_m_source_file>
AV-unprocessed.smi

> <i_m_source_file_index>
2253

> <i_lp_mmshare_version>
43012

> <i_f3d_flags>
0

> <s_epik_input>
W0NIM11OMVtDSDJdW0NIMl1bQ0hdKFtDSDJdW0NIMl0xKU4yW0NIMl1bQ0gyXVtDSF0oW0NIMl1bQ0gyXTIpW05IXUMoPU8pW05IXWMzW2NIXVtjSF1uW2NIXWMzRg==

> <s_epik_cmdline>
J2VwaWtfcHl0aG9uJywgJy1waCcsICc3LjAnLCAnLXRuJywgJzgnLCAnLW1hJywgJzIwMCcsICctbWV0YWxfYmluZGluZycsICctaW1hZScsICc8aW5maWxlLm1hZT4nLCAnLW9tYWUnLCAnPG91dGZpbGUubWFlPic=

> <r_epik_Ionization_Penalty>
1.37522

> <r_epik_Ionization_Penalty_Charging>
0.00081195

> <r_epik_Ionization_Penalty_Neutral>
1.3744

> <r_epik_State_Penalty>
1.55149

> <r_epik_Charging_Adjusted_Penalty>
1.5523

> <i_epik_Tot_Q>
1

> <i_epik_Tot_abs_Q>
1

> <r_epik_Metal_State_Penalty>
1.55158

> <b_epik_Metal_Only>
0

> <s_lp_Force_Field>
OPLS_2005

> <r_lp_Energy>
37.061

> <b_lp_Chiralities_Consistent>
1

> <s_lp_Variant>
AV-unprocessed.smi:2253-7

> <Gold.Version>
5.8.1

> <Gold.Id.Protein>
6NUR|6NUR_protein|mol2

> <Gold.PLP.Fitness>
50.7979

> <Gold.PLP.PLP>
-45.3334

> <Gold.PLP.part.hbond>
-2.0000

> <Gold.PLP.part.metal>
0.0000

> <Gold.PLP.part.buried>
-6.2332

> <Gold.PLP.part.nonpolar>
-37.3057

> <Gold.PLP.part.repulsive>
0.2326

> <Gold.PLP.ligand.clash>
0.0000

> <Gold.PLP.ligand.torsion>
0.2357

> <Gold.PLP.Chemscore.Hbond>
1.9680

> <Gold.PLP.Chemscore.CHOScore>
0.0000

> <Gold.PLP.Chemscore.Metal>
0.0000

> <Gold.Chemscore.Hbonds>
donor molecule, donor type, donor heavy atom, donor atom, acceptor molecule, acceptor atom, score
      L1  H    10    38       P1  7948  1.00
      L1  H    13    39       P1  7948  0.15
      P1  H 10752 10764       L1    12  1.00

> <Gold.PLP.Chemscore.Internal.Correction>
0.0319

> <Gold.Rescore>
     Score         DG    S(hbond)    S(metal)    S(lipo)     H(rot)  DE(clash)    DE(int)     intcor
     17.61     -20.78       1.72        0.00     108.74       1.24       0.08       3.09       ----

> <Gold.Chemscore.Fitness>
17.6081

> <Gold.Chemscore.DG>
-20.7780

> <Gold.Chemscore.ZeroCoef>
-5.4800

> <Gold.Chemscore.Hbond>
1.7198

> <Gold.Chemscore.Metal>
0.0000

> <Gold.Chemscore.Lipo>
108.7385

> <Gold.Chemscore.Internal_Hbond>
0.0000

> <Gold.Chemscore.DEClash>
0.0824

> <Gold.Chemscore.DEInternal>
3.0875

> <Gold.Chemscore.Rot>
1.2377

> <Gold.Chemscore.Internal.Correction>
   9.000000E+99

> <Gold.Chemscore.Hbonds>
donor molecule, donor type, donor heavy atom, donor atom, acceptor molecule, acceptor atom, score
      L1  H    10    38       P1  7948  0.68
      P1  H 10752 10764       L1    12  0.54

> <Gold.Chemscore.Hbond.Weighted>
-5.7441

> <Gold.Chemscore.Metal.Weighted>
-0.0000

> <Gold.Chemscore.Lipo.Weighted>
-12.7224

> <Gold.Chemscore.Internal_Hbond.Weighted>
0.0000

> <Gold.Chemscore.DEClash.Weighted>
0.0824

> <Gold.Chemscore.DEInternal.Weighted>
3.0875

> <Gold.Chemscore.Rot.Weighted>
3.1685

> <Gold.Chemscore.Internal.Correction.Weighted>
   9.000000E+99

> <Gold.Protein.RotatedTorsions>
[ 6907 6896 6895 6894 ] final -125.72 input  -60.11 | X-H torsion
[ 7974 7965 7964 7962 ] final  146.46 input  175.53 | X-H torsion
[ 8008 7997 7996 7995 ] final  -26.80 input   59.86 | X-H torsion
[ 10167 10162 10161 10158 ] final -136.23 input  -65.29 | X-H torsion
[ 10718 10713 10712 10709 ] final   76.44 input   66.30 | X-H torsion
[ 10763 10752 10751 10750 ] final  -23.19 input  -60.55 | X-H torsion
[ 11005 11000 10999 10996 ] final  151.28 input  -57.11 | X-H torsion

> <Gold.Protein.ActiveResidues>
 VAL166  LYS551  ARG553  GLY616  TRP617  ASP618  TYR619  PRO620  LYS621  CYS622 
 ASP623  PHE694  ASN695  SER759  ASP760  ASP761  ALA762  ILE779  LEU786  VAL792 
 PHE793  MET794  SER795  GLU796  ALA797  LYS798  CYS799  TRP800  GLU811  SER814 

> <Gold.Protein.RotatedAtoms>
  150.8896  133.7261  159.2908 H   0  0  0  0  0  0  0  0  0  0  0  0  # atno 6907 bound_to 6896
  151.4816  135.1051  159.9789 H   0  0  0  0  0  0  0  0  0  0  0  0  # atno 6908 bound_to 6896
  152.4812  133.8211  159.7109 H   0  0  0  0  0  0  0  0  0  0  0  0  # atno 6909 bound_to 6896
  144.8670  139.5907  143.5904 H   0  0  0  0  0  0  0  0  0  0  0  0  # atno 7974 bound_to 7965
  154.4407  140.1889  156.0832 H   0  0  0  0  0  0  0  0  0  0  0  0  # atno 8008 bound_to 7997
  156.0422  140.3318  155.7230 H   0  0  0  0  0  0  0  0  0  0  0  0  # atno 8009 bound_to 7997
  155.5682  140.0610  157.2803 H   0  0  0  0  0  0  0  0  0  0  0  0  # atno 8010 bound_to 7997
  139.8699  143.6970  152.2641 H   0  0  0  0  0  0  0  0  0  0  0  0  # atno 10167 bound_to 10162
  157.6673  130.9774  150.1497 H   0  0  0  0  0  0  0  0  0  0  0  0  # atno 10718 bound_to 10713
  153.6639  135.6975  153.5168 H   0  0  0  0  0  0  0  0  0  0  0  0  # atno 10763 bound_to 10752
  153.2610  135.4244  155.0893 H   0  0  0  0  0  0  0  0  0  0  0  0  # atno 10764 bound_to 10752
  154.8445  135.3555  154.6183 H   0  0  0  0  0  0  0  0  0  0  0  0  # atno 10765 bound_to 10752
  140.1205  134.8866  157.2065 H   0  0  0  0  0  0  0  0  0  0  0  0  # atno 11005 bound_to 11000
  146.2902  139.7119  142.9166 LP  0  0  0  0  0  0  0  0  0  0  0  0  # atno 17320 bound_to 7965
  145.4203  141.0406  143.2967 LP  0  0  0  0  0  0  0  0  0  0  0  0  # atno 17321 bound_to 7965
  139.7294  144.7586  151.0827 LP  0  0  0  0  0  0  0  0  0  0  0  0  # atno 17342 bound_to 10162
  140.7762  143.5108  150.9655 LP  0  0  0  0  0  0  0  0  0  0  0  0  # atno 17343 bound_to 10162
  156.2300  130.3681  149.8456 LP  0  0  0  0  0  0  0  0  0  0  0  0  # atno 17370 bound_to 10713
  156.6286  130.8656  151.3490 LP  0  0  0  0  0  0  0  0  0  0  0  0  # atno 17371 bound_to 10713
  140.2971  134.3174  155.7299 LP  0  0  0  0  0  0  0  0  0  0  0  0  # atno 17394 bound_to 11000
  141.2150  133.7569  156.9587 LP  0  0  0  0  0  0  0  0  0  0  0  0  # atno 17395 bound_to 11000

$$$$
