AV-unprocessed.smi:1240|AV-procd|sdf|5201|dock6
  -GOLD-   22720 4293D 1   1.00000     0.00000
 Structure written by MMmdl.
 48 50  0  0  0  0  0  0  0  0  2 V2000
  145.1262  134.4402  153.9368 O   0  0  0  0  0  0  0  0  0  0  0  0
  146.1272  134.8228  153.3320 C   0  0  0  0  0  0  0  0  0  0  0  0
  147.0225  135.6690  153.8569 N   0  0  0  0  0  0  0  0  0  0  0  0
  146.9156  136.2570  155.1884 C   0  0  0  0  0  0  0  0  0  0  0  0
  148.2956  136.3492  155.8872 C   0  0  2  0  0  0  0  0  0  0  0  0
  148.1441  136.4169  157.4430 C   0  0  1  0  0  0  0  0  0  0  0  0
  147.4841  135.1897  158.0628 C   0  0  0  0  0  0  0  0  0  0  0  0
  147.9641  135.2423  159.5033 C   0  0  0  0  0  0  0  0  0  0  0  0
  149.3247  135.6070  159.3677 O   0  0  0  0  0  0  0  0  0  0  0  0
  149.4677  136.4605  158.2369 C   0  0  0  0  0  0  0  0  0  0  0  0
  149.0597  137.4778  155.2543 N   0  3  0  0  0  0  0  0  0  0  0  0
  148.5401  138.8605  155.4203 C   0  0  0  0  0  0  0  0  0  0  0  0
  149.3792  139.8526  154.5965 C   0  0  0  0  0  0  0  0  0  0  0  0
  150.7416  139.7739  154.9924 O   0  0  0  0  0  0  0  0  0  0  0  0
  151.2833  138.4801  154.7642 C   0  0  0  0  0  0  0  0  0  0  0  0
  150.5062  137.4447  155.5938 C   0  0  0  0  0  0  0  0  0  0  0  0
  146.4821  134.4454  152.0917 N   0  0  0  0  0  0  0  0  0  0  0  0
  145.7920  133.5800  151.2009 C   0  0  0  0  0  0  0  0  0  0  0  0
  144.3844  133.5434  151.2766 C   0  0  0  0  0  0  0  0  0  0  0  0
  143.6810  132.6789  150.4142 C   0  0  0  0  0  0  0  0  0  0  0  0
  144.2866  131.8690  149.5205 N   0  0  0  0  0  0  0  0  0  0  0  0
  145.6348  131.8935  149.4611 C   0  0  0  0  0  0  0  0  0  0  0  0
  146.4328  132.7218  150.2756 C   0  0  0  0  0  0  0  0  0  0  0  0
  147.8135  135.9410  153.2919 H   0  0  0  0  0  0  0  0  0  0  0  0
  146.4454  137.2377  155.1128 H   0  0  0  0  0  0  0  0  0  0  0  0
  146.2265  135.6563  155.7824 H   0  0  0  0  0  0  0  0  0  0  0  0
  148.8288  135.4221  155.6700 H   0  0  0  0  0  0  0  0  0  0  0  0
  147.5311  137.2746  157.7234 H   0  0  0  0  0  0  0  0  0  0  0  0
  146.3961  135.2040  157.9888 H   0  0  0  0  0  0  0  0  0  0  0  0
  147.8481  134.2756  157.5912 H   0  0  0  0  0  0  0  0  0  0  0  0
  147.4320  136.0116  160.0649 H   0  0  0  0  0  0  0  0  0  0  0  0
  147.8518  134.2909  160.0236 H   0  0  0  0  0  0  0  0  0  0  0  0
  150.3129  136.1091  157.6443 H   0  0  0  0  0  0  0  0  0  0  0  0
  149.6945  137.4702  158.5789 H   0  0  0  0  0  0  0  0  0  0  0  0
  147.5080  138.9337  155.0814 H   0  0  0  0  0  0  0  0  0  0  0  0
  148.5734  139.1472  156.4717 H   0  0  0  0  0  0  0  0  0  0  0  0
  149.2856  139.6504  153.5283 H   0  0  0  0  0  0  0  0  0  0  0  0
  149.0233  140.8701  154.7591 H   0  0  0  0  0  0  0  0  0  0  0  0
  151.2465  138.2366  153.7011 H   0  0  0  0  0  0  0  0  0  0  0  0
  152.3339  138.4819  155.0549 H   0  0  0  0  0  0  0  0  0  0  0  0
  150.6355  137.6490  156.6579 H   0  0  0  0  0  0  0  0  0  0  0  0
  150.9238  136.4554  155.4104 H   0  0  0  0  0  0  0  0  0  0  0  0
  147.3785  134.7740  151.7642 H   0  0  0  0  0  0  0  0  0  0  0  0
  143.8476  134.1682  151.9755 H   0  0  0  0  0  0  0  0  0  0  0  0
  142.6023  132.6361  150.4449 H   0  0  0  0  0  0  0  0  0  0  0  0
  146.0941  131.2270  148.7462 H   0  0  0  0  0  0  0  0  0  0  0  0
  147.5069  132.6721  150.1839 H   0  0  0  0  0  0  0  0  0  0  0  0
  149.0027  137.3007  154.2614 H   0  0  0  0  0  0  0  0  0  0  0  0
  1  2  2  0  0  0  0
  2  3  1  0  0  0  0
  2 17  1  0  0  0  0
  3  4  1  0  0  0  0
  3 24  1  0  0  0  0
  4  5  1  0  0  0  0
  4 25  1  0  0  0  0
  4 26  1  0  0  0  0
  5  6  1  0  0  0  0
  5 11  1  0  0  0  0
  5 27  1  0  0  0  0
  6 10  1  0  0  0  0
  6  7  1  0  0  0  0
  6 28  1  0  0  0  0
  7  8  1  0  0  0  0
  7 29  1  0  0  0  0
  7 30  1  0  0  0  0
  8  9  1  0  0  0  0
  8 31  1  0  0  0  0
  8 32  1  0  0  0  0
  9 10  1  0  0  0  0
 10 33  1  0  0  0  0
 10 34  1  0  0  0  0
 11 16  1  0  0  0  0
 11 12  1  0  0  0  0
 11 48  1  0  0  0  0
 12 13  1  0  0  0  0
 12 35  1  0  0  0  0
 12 36  1  0  0  0  0
 13 14  1  0  0  0  0
 13 37  1  0  0  0  0
 13 38  1  0  0  0  0
 14 15  1  0  0  0  0
 15 16  1  0  0  0  0
 15 39  1  0  0  0  0
 15 40  1  0  0  0  0
 16 41  1  0  0  0  0
 16 42  1  0  0  0  0
 17 18  1  0  0  0  0
 17 43  1  0  0  0  0
 18 23  1  0  0  0  0
 18 19  2  0  0  0  0
 19 20  1  0  0  0  0
 19 44  1  0  0  0  0
 20 21  2  0  0  0  0
 20 45  1  0  0  0  0
 21 22  1  0  0  0  0
 22 23  2  0  0  0  0
 22 46  1  0  0  0  0
 23 47  1  0  0  0  0
M  CHG  1  11   1
M  END
> <s_m_source_file>
AV-unprocessed.smi

> <i_m_source_file_index>
1240

> <i_lp_mmshare_version>
43012

> <i_f3d_flags>
0

> <s_epik_input>
W2NIXTFbY0hdbltjSF1bY0hdYzFbTkhdQyg9TylbTkhdW0NIMl1bQ0BIXShbQ0BASF0yW0NIMl1bQ0gyXU9bQ0gyXTIpTjNbQ0gyXVtDSDJdT1tDSDJdW0NIMl0z

> <s_epik_cmdline>
J2VwaWtfcHl0aG9uJywgJy1waCcsICc3LjAnLCAnLXRuJywgJzgnLCAnLW1hJywgJzIwMCcsICctbWV0YWxfYmluZGluZycsICctaW1hZScsICc8aW5maWxlLm1hZT4nLCAnLW9tYWUnLCAnPG91dGZpbGUubWFlPic=

> <r_epik_Ionization_Penalty>
1.08433

> <r_epik_Ionization_Penalty_Charging>
0.98326

> <r_epik_Ionization_Penalty_Neutral>
0.10107

> <r_epik_State_Penalty>
1.11265

> <r_epik_Charging_Adjusted_Penalty>
2.09591

> <i_epik_Tot_Q>
1

> <i_epik_Tot_abs_Q>
1

> <r_epik_Metal_State_Penalty>
1.10731

> <b_epik_Metal_Only>
0

> <s_lp_Force_Field>
OPLS_2005

> <r_lp_Energy>
52.9252

> <b_lp_Chiralities_Consistent>
1

> <s_lp_Variant>
AV-unprocessed.smi:1240-7

> <Gold.Version>
5.8.1

> <Gold.Id.Protein>
6NUR|6NUR_protein|mol2

> <Gold.PLP.Fitness>
46.0703

> <Gold.PLP.PLP>
-31.9104

> <Gold.PLP.part.hbond>
-4.7026

> <Gold.PLP.part.metal>
0.0000

> <Gold.PLP.part.buried>
-5.0037

> <Gold.PLP.part.nonpolar>
-22.3344

> <Gold.PLP.part.repulsive>
0.3380

> <Gold.PLP.ligand.clash>
0.0000

> <Gold.PLP.ligand.torsion>
0.6244

> <Gold.PLP.Chemscore.Hbond>
4.0988

> <Gold.PLP.Chemscore.CHOScore>
1.0000

> <Gold.PLP.Chemscore.Metal>
0.0000

> <Gold.Chemscore.Hbonds>
donor molecule, donor type, donor heavy atom, donor atom, acceptor molecule, acceptor atom, score
      L1  H     3    24       P1  7948  1.00
      L1  H    17    43       P1  7948  0.83
      P1  H  6896  6908       L1     9  1.00
      P1  H  7989  7998       L1    14  0.94
      P1  H 10785 10796       L1    21  0.39
      L1  C    20    45       P1 10186  0.88

> <Gold.PLP.Chemscore.Internal.Correction>
0.1122

> <Gold.Rescore>
     Score         DG    S(hbond)    S(metal)    S(lipo)     H(rot)  DE(clash)    DE(int)     intcor
     21.46     -24.86       4.21        0.00      82.73       1.70       1.44       1.96       ----

> <Gold.Chemscore.Fitness>
21.4633

> <Gold.Chemscore.DG>
-24.8583

> <Gold.Chemscore.ZeroCoef>
-5.4800

> <Gold.Chemscore.Hbond>
4.2086

> <Gold.Chemscore.Metal>
0.0000

> <Gold.Chemscore.Lipo>
82.7274

> <Gold.Chemscore.Internal_Hbond>
0.0000

> <Gold.Chemscore.DEClash>
1.4377

> <Gold.Chemscore.DEInternal>
1.9573

> <Gold.Chemscore.Rot>
1.7021

> <Gold.Chemscore.Internal.Correction>
   9.000000E+99

> <Gold.Chemscore.Hbonds>
donor molecule, donor type, donor heavy atom, donor atom, acceptor molecule, acceptor atom, score
      L1  H     3    24       P1  7948  1.00
      L1  H    17    43       P1  7948  0.55
      P1  H  6896  6908       L1     9  0.81
      P1  H  7989  7998       L1    14  0.09
      P1  H 10785 10796       L1    21  0.36

> <Gold.Chemscore.Hbond.Weighted>
-14.0567

> <Gold.Chemscore.Metal.Weighted>
-0.0000

> <Gold.Chemscore.Lipo.Weighted>
-9.6791

> <Gold.Chemscore.Internal_Hbond.Weighted>
0.0000

> <Gold.Chemscore.DEClash.Weighted>
1.4377

> <Gold.Chemscore.DEInternal.Weighted>
1.9573

> <Gold.Chemscore.Rot.Weighted>
4.3575

> <Gold.Chemscore.Internal.Correction.Weighted>
   9.000000E+99

> <Gold.Protein.RotatedTorsions>
[ 6907 6896 6895 6894 ] final  165.92 input  -60.11 | X-H torsion
[ 7974 7965 7964 7962 ] final   57.81 input  175.53 | X-H torsion
[ 8008 7997 7996 7995 ] final -121.60 input   59.86 | X-H torsion
[ 10167 10162 10161 10158 ] final    5.96 input  -65.29 | X-H torsion
[ 10718 10713 10712 10709 ] final  -13.41 input   66.30 | X-H torsion
[ 10763 10752 10751 10750 ] final   -9.62 input  -60.55 | X-H torsion
[ 11005 11000 10999 10996 ] final -155.86 input  -57.11 | X-H torsion

> <Gold.Protein.ActiveResidues>
 VAL166  LYS551  ARG553  GLY616  TRP617  ASP618  TYR619  PRO620  LYS621  CYS622 
 ASP623  PHE694  ASN695  SER759  ASP760  ASP761  ALA762  ILE779  LEU786  VAL792 
 PHE793  MET794  SER795  GLU796  ALA797  LYS798  CYS799  TRP800  GLU811  SER814 

> <Gold.Protein.RotatedAtoms>
  151.8869  133.3507  159.3784 H   0  0  0  0  0  0  0  0  0  0  0  0  # atno 6907 bound_to 6896
  150.7113  134.4963  159.5549 H   0  0  0  0  0  0  0  0  0  0  0  0  # atno 6908 bound_to 6896
  152.2525  134.8118  160.0494 H   0  0  0  0  0  0  0  0  0  0  0  0  # atno 6909 bound_to 6896
  145.9250  139.3760  143.0455 H   0  0  0  0  0  0  0  0  0  0  0  0  # atno 7974 bound_to 7965
  155.1507  140.0404  157.2820 H   0  0  0  0  0  0  0  0  0  0  0  0  # atno 8008 bound_to 7997
  154.6406  140.2546  155.7299 H   0  0  0  0  0  0  0  0  0  0  0  0  # atno 8009 bound_to 7997
  156.2530  140.2856  156.0798 H   0  0  0  0  0  0  0  0  0  0  0  0  # atno 8010 bound_to 7997
  140.6454  143.7675  150.7491 H   0  0  0  0  0  0  0  0  0  0  0  0  # atno 10167 bound_to 10162
  156.6307  130.4901  149.6130 H   0  0  0  0  0  0  0  0  0  0  0  0  # atno 10718 bound_to 10713
  153.4573  135.7015  153.6072 H   0  0  0  0  0  0  0  0  0  0  0  0  # atno 10763 bound_to 10752
  153.4381  135.3786  155.2211 H   0  0  0  0  0  0  0  0  0  0  0  0  # atno 10764 bound_to 10752
  154.8728  135.3967  154.3994 H   0  0  0  0  0  0  0  0  0  0  0  0  # atno 10765 bound_to 10752
  140.6818  134.4136  157.5226 H   0  0  0  0  0  0  0  0  0  0  0  0  # atno 11005 bound_to 11000
  145.8501  140.9533  143.0754 LP  0  0  0  0  0  0  0  0  0  0  0  0  # atno 17320 bound_to 7965
  144.6757  140.0396  143.7481 LP  0  0  0  0  0  0  0  0  0  0  0  0  # atno 17321 bound_to 7965
  140.1315  143.4522  152.2251 LP  0  0  0  0  0  0  0  0  0  0  0  0  # atno 17342 bound_to 10162
  139.5664  144.7438  151.4010 LP  0  0  0  0  0  0  0  0  0  0  0  0  # atno 17343 bound_to 10162
  156.2237  130.6753  151.1394 LP  0  0  0  0  0  0  0  0  0  0  0  0  # atno 17370 bound_to 10713
  157.7201  131.0687  150.6171 LP  0  0  0  0  0  0  0  0  0  0  0  0  # atno 17371 bound_to 10713
  139.8949  134.8695  156.2154 LP  0  0  0  0  0  0  0  0  0  0  0  0  # atno 17394 bound_to 11000
  141.0311  133.6988  156.1432 LP  0  0  0  0  0  0  0  0  0  0  0  0  # atno 17395 bound_to 11000

$$$$
