AV-unprocessed.smi:1244|AV-procd|sdf|5228|dock3
  -GOLD-   22720 4333D 1   1.00000     0.00000
 Structure written by MMmdl.
 55 57  0  0  0  0  0  0  0  0  2 V2000
  153.7126  142.0858  160.9703 C   0  0  0  0  0  0  0  0  0  0  0  0
  152.5455  142.5908  160.1156 C   0  0  2  0  0  0  0  0  0  0  0  0
  152.1094  141.5560  159.0632 C   0  0  0  0  0  0  0  0  0  0  0  0
  151.0589  142.0712  158.1954 N   0  0  0  0  0  0  0  0  0  0  0  0
  150.6241  141.0556  157.2359 C   0  0  0  0  0  0  0  0  0  0  0  0
  150.3134  139.6676  157.8337 C   0  0  0  0  0  0  0  0  0  0  0  0
  149.7820  138.7399  156.8401 N   0  0  0  0  0  0  0  0  0  0  0  0
  148.5235  138.7379  156.3807 C   0  0  0  0  0  0  0  0  0  0  0  0
  147.6487  139.5062  156.7803 O   0  0  0  0  0  0  0  0  0  0  0  0
  148.3590  137.8115  155.4222 N   0  0  0  0  0  0  0  0  0  0  0  0
  147.2143  137.6041  154.6036 C   0  0  0  0  0  0  0  0  0  0  0  0
  146.8534  136.3026  154.1699 C   0  0  0  0  0  0  0  0  0  0  0  0
  145.7571  136.1289  153.3048 C   0  0  0  0  0  0  0  0  0  0  0  0
  145.0473  137.2616  152.8713 C   0  0  0  0  0  0  0  0  0  0  0  0
  145.4236  138.4873  153.2906 N   0  3  0  0  0  0  0  0  0  0  0  0
  146.4595  138.7190  154.1357 C   0  0  0  0  0  0  0  0  0  0  0  0
  146.7284  140.0598  154.4956 N   0  0  0  0  0  0  0  0  0  0  0  0
  147.3863  140.9597  153.5558 C   0  0  0  0  0  0  0  0  0  0  0  0
  147.2020  142.3541  154.1482 C   0  0  0  0  0  0  0  0  0  0  0  0
  145.8227  142.2581  154.7938 C   0  0  0  0  0  0  0  0  0  0  0  0
  145.7467  140.8058  155.2775 C   0  0  0  0  0  0  0  0  0  0  0  0
  151.5324  143.2912  157.5468 C   0  0  0  0  0  0  0  0  0  0  0  0
  152.0063  144.3530  158.5593 C   0  0  1  0  0  0  0  0  0  0  0  0
  150.8494  145.0334  159.3106 C   0  0  0  0  0  0  0  0  0  0  0  0
  152.9610  143.7877  159.4596 O   0  0  0  0  0  0  0  0  0  0  0  0
  153.4407  141.1764  161.5070 H   0  0  0  0  0  0  0  0  0  0  0  0
  154.0063  142.8321  161.7087 H   0  0  0  0  0  0  0  0  0  0  0  0
  154.5853  141.8637  160.3556 H   0  0  0  0  0  0  0  0  0  0  0  0
  151.7074  142.8126  160.7768 H   0  0  0  0  0  0  0  0  0  0  0  0
  152.9713  141.2600  158.4627 H   0  0  0  0  0  0  0  0  0  0  0  0
  151.7600  140.6557  159.5700 H   0  0  0  0  0  0  0  0  0  0  0  0
  149.7504  141.4144  156.6897 H   0  0  0  0  0  0  0  0  0  0  0  0
  151.4052  140.9267  156.4853 H   0  0  0  0  0  0  0  0  0  0  0  0
  151.2129  139.2280  158.2640 H   0  0  0  0  0  0  0  0  0  0  0  0
  149.6051  139.7680  158.6573 H   0  0  0  0  0  0  0  0  0  0  0  0
  150.4330  138.0729  156.4526 H   0  0  0  0  0  0  0  0  0  0  0  0
  149.1888  137.3066  155.1475 H   0  0  0  0  0  0  0  0  0  0  0  0
  147.4177  135.4330  154.4716 H   0  0  0  0  0  0  0  0  0  0  0  0
  145.4743  135.1420  152.9693 H   0  0  0  0  0  0  0  0  0  0  0  0
  144.1993  137.2267  152.2025 H   0  0  0  0  0  0  0  0  0  0  0  0
  148.4403  140.7082  153.4328 H   0  0  0  0  0  0  0  0  0  0  0  0
  146.9028  140.9091  152.5792 H   0  0  0  0  0  0  0  0  0  0  0  0
  147.9585  142.5390  154.9125 H   0  0  0  0  0  0  0  0  0  0  0  0
  147.2718  143.1462  153.4023 H   0  0  0  0  0  0  0  0  0  0  0  0
  145.6779  142.9805  155.5975 H   0  0  0  0  0  0  0  0  0  0  0  0
  145.0530  142.4351  154.0411 H   0  0  0  0  0  0  0  0  0  0  0  0
  144.7386  140.4038  155.1677 H   0  0  0  0  0  0  0  0  0  0  0  0
  146.0221  140.7509  156.3311 H   0  0  0  0  0  0  0  0  0  0  0  0
  152.3590  143.0473  156.8777 H   0  0  0  0  0  0  0  0  0  0  0  0
  150.7489  143.7209  156.9233 H   0  0  0  0  0  0  0  0  0  0  0  0
  152.5301  145.1333  158.0067 H   0  0  0  0  0  0  0  0  0  0  0  0
  150.1900  145.5559  158.6175 H   0  0  0  0  0  0  0  0  0  0  0  0
  151.2264  145.7660  160.0246 H   0  0  0  0  0  0  0  0  0  0  0  0
  150.2410  144.3150  159.8588 H   0  0  0  0  0  0  0  0  0  0  0  0
  144.8895  139.2896  152.9563 H   0  0  0  0  0  0  0  0  0  0  0  0
  1  2  1  0  0  0  0
  1 26  1  0  0  0  0
  1 27  1  0  0  0  0
  1 28  1  0  0  0  0
  2 25  1  0  0  0  0
  2  3  1  0  0  0  0
  2 29  1  0  0  0  0
  3  4  1  0  0  0  0
  3 30  1  0  0  0  0
  3 31  1  0  0  0  0
  4  5  1  0  0  0  0
  4 22  1  0  0  0  0
  5  6  1  0  0  0  0
  5 32  1  0  0  0  0
  5 33  1  0  0  0  0
  6  7  1  0  0  0  0
  6 34  1  0  0  0  0
  6 35  1  0  0  0  0
  7  8  1  0  0  0  0
  7 36  1  0  0  0  0
  8  9  2  0  0  0  0
  8 10  1  0  0  0  0
 10 11  1  0  0  0  0
 10 37  1  0  0  0  0
 11 16  1  0  0  0  0
 11 12  2  0  0  0  0
 12 13  1  0  0  0  0
 12 38  1  0  0  0  0
 13 14  2  0  0  0  0
 13 39  1  0  0  0  0
 14 15  1  0  0  0  0
 14 40  1  0  0  0  0
 15 16  2  0  0  0  0
 15 55  1  0  0  0  0
 16 17  1  0  0  0  0
 17 21  1  0  0  0  0
 17 18  1  0  0  0  0
 18 19  1  0  0  0  0
 18 41  1  0  0  0  0
 18 42  1  0  0  0  0
 19 20  1  0  0  0  0
 19 43  1  0  0  0  0
 19 44  1  0  0  0  0
 20 21  1  0  0  0  0
 20 45  1  0  0  0  0
 20 46  1  0  0  0  0
 21 47  1  0  0  0  0
 21 48  1  0  0  0  0
 22 23  1  0  0  0  0
 22 49  1  0  0  0  0
 22 50  1  0  0  0  0
 23 24  1  0  0  0  0
 23 25  1  0  0  0  0
 23 51  1  0  0  0  0
 24 52  1  0  0  0  0
 24 53  1  0  0  0  0
 24 54  1  0  0  0  0
M  CHG  1  15   1
M  END
> <s_m_source_file>
AV-unprocessed.smi

> <i_m_source_file_index>
1244

> <i_lp_mmshare_version>
43012

> <i_f3d_flags>
0

> <s_epik_input>
W0NIM11bQ0BASF0xW0NIMl1OKFtDSDJdW0NASF0oTzEpW0NIM10pW0NIMl1bQ0gyXVtOSF1DKD1PKVtOSF1jMltjSF1bY0hdW2NIXW5jMk4zW0NIMl1bQ0gyXVtDSDJdW0NIMl0z

> <s_epik_cmdline>
J2VwaWtfcHl0aG9uJywgJy1waCcsICc3LjAnLCAnLXRuJywgJzgnLCAnLW1hJywgJzIwMCcsICctbWV0YWxfYmluZGluZycsICctaW1hZScsICc8aW5maWxlLm1hZT4nLCAnLW9tYWUnLCAnPG91dGZpbGUubWFlPic=

> <r_epik_Ionization_Penalty>
1.38385

> <r_epik_Ionization_Penalty_Charging>
1.11784

> <r_epik_Ionization_Penalty_Neutral>
0.26601

> <r_epik_State_Penalty>
1.46794

> <r_epik_Charging_Adjusted_Penalty>
2.58578

> <i_epik_Tot_Q>
1

> <i_epik_Tot_abs_Q>
1

> <r_epik_Metal_State_Penalty>
1.54908

> <b_epik_Metal_Only>
0

> <s_lp_Force_Field>
OPLS_2005

> <r_lp_Energy>
60.0137

> <b_lp_Chiralities_Consistent>
1

> <s_lp_Variant>
AV-unprocessed.smi:1244-8

> <Gold.Version>
5.8.1

> <Gold.Id.Protein>
6NUR|6NUR_protein|mol2

> <Gold.PLP.Fitness>
43.6384

> <Gold.PLP.PLP>
-38.4784

> <Gold.PLP.part.hbond>
-1.0000

> <Gold.PLP.part.metal>
0.0000

> <Gold.PLP.part.buried>
-5.7731

> <Gold.PLP.part.nonpolar>
-31.6894

> <Gold.PLP.part.repulsive>
0.1444

> <Gold.PLP.ligand.clash>
0.0000

> <Gold.PLP.ligand.torsion>
0.6574

> <Gold.PLP.Chemscore.Hbond>
2.0000

> <Gold.PLP.Chemscore.CHOScore>
0.0000

> <Gold.PLP.Chemscore.Metal>
0.0000

> <Gold.Chemscore.Hbonds>
donor molecule, donor type, donor heavy atom, donor atom, acceptor molecule, acceptor atom, score
      L1  H    15    55       P1 10175  2.00

> <Gold.PLP.Chemscore.Internal.Correction>
0.4748

> <Gold.Rescore>
     Score         DG    S(hbond)    S(metal)    S(lipo)     H(rot)  DE(clash)    DE(int)     intcor
     11.37     -17.21       1.00        0.00     106.33       1.58       0.04       5.80       ----

> <Gold.Chemscore.Fitness>
11.3718

> <Gold.Chemscore.DG>
-17.2148

> <Gold.Chemscore.ZeroCoef>
-5.4800

> <Gold.Chemscore.Hbond>
0.9994

> <Gold.Chemscore.Metal>
0.0000

> <Gold.Chemscore.Lipo>
106.3293

> <Gold.Chemscore.Internal_Hbond>
0.0000

> <Gold.Chemscore.DEClash>
0.0405

> <Gold.Chemscore.DEInternal>
5.8024

> <Gold.Chemscore.Rot>
1.5797

> <Gold.Chemscore.Internal.Correction>
   9.000000E+99

> <Gold.Chemscore.Hbonds>
donor molecule, donor type, donor heavy atom, donor atom, acceptor molecule, acceptor atom, score
      L1  H    15    55       P1 10175  1.00

> <Gold.Chemscore.Hbond.Weighted>
-3.3381

> <Gold.Chemscore.Metal.Weighted>
-0.0000

> <Gold.Chemscore.Lipo.Weighted>
-12.4405

> <Gold.Chemscore.Internal_Hbond.Weighted>
0.0000

> <Gold.Chemscore.DEClash.Weighted>
0.0405

> <Gold.Chemscore.DEInternal.Weighted>
5.8024

> <Gold.Chemscore.Rot.Weighted>
4.0439

> <Gold.Chemscore.Internal.Correction.Weighted>
   9.000000E+99

> <Gold.Protein.RotatedTorsions>
[ 6907 6896 6895 6894 ] final  123.44 input  -60.11 | X-H torsion
[ 7974 7965 7964 7962 ] final   78.66 input  175.53 | X-H torsion
[ 8008 7997 7996 7995 ] final   67.51 input   59.86 | X-H torsion
[ 10167 10162 10161 10158 ] final  107.06 input  -65.29 | X-H torsion
[ 10718 10713 10712 10709 ] final   25.97 input   66.30 | X-H torsion
[ 10763 10752 10751 10750 ] final   35.62 input  -60.55 | X-H torsion
[ 11005 11000 10999 10996 ] final   28.13 input  -57.11 | X-H torsion

> <Gold.Protein.ActiveResidues>
 VAL166  LYS551  ARG553  GLY616  TRP617  ASP618  TYR619  PRO620  LYS621  CYS622 
 ASP623  PHE694  ASN695  SER759  ASP760  ASP761  ALA762  ILE779  LEU786  VAL792 
 PHE793  MET794  SER795  GLU796  ALA797  LYS798  CYS799  TRP800  GLU811  SER814 

> <Gold.Protein.RotatedAtoms>
  152.4161  133.7041  159.6440 H   0  0  0  0  0  0  0  0  0  0  0  0  # atno 6907 bound_to 6896
  150.8038  133.8537  159.3221 H   0  0  0  0  0  0  0  0  0  0  0  0  # atno 6908 bound_to 6896
  151.6266  135.1029  160.0164 H   0  0  0  0  0  0  0  0  0  0  0  0  # atno 6909 bound_to 6896
  145.6743  139.2505  143.1850 H   0  0  0  0  0  0  0  0  0  0  0  0  # atno 7974 bound_to 7965
  155.6939  140.3496  155.4905 H   0  0  0  0  0  0  0  0  0  0  0  0  # atno 8008 bound_to 7997
  155.9500  140.1117  157.1007 H   0  0  0  0  0  0  0  0  0  0  0  0  # atno 8009 bound_to 7997
  154.4120  140.1196  156.5026 H   0  0  0  0  0  0  0  0  0  0  0  0  # atno 8010 bound_to 7997
  139.6958  144.7101  151.1269 H   0  0  0  0  0  0  0  0  0  0  0  0  # atno 10167 bound_to 10162
  157.2005  130.6888  149.6186 H   0  0  0  0  0  0  0  0  0  0  0  0  # atno 10718 bound_to 10713
  153.0111  135.6328  154.1855 H   0  0  0  0  0  0  0  0  0  0  0  0  # atno 10763 bound_to 10752
  154.1597  135.2824  155.3114 H   0  0  0  0  0  0  0  0  0  0  0  0  # atno 10764 bound_to 10752
  154.5991  135.5593  153.7416 H   0  0  0  0  0  0  0  0  0  0  0  0  # atno 10765 bound_to 10752
  140.3188  134.2566  155.7721 H   0  0  0  0  0  0  0  0  0  0  0  0  # atno 11005 bound_to 11000
  146.1019  140.7534  142.9545 LP  0  0  0  0  0  0  0  0  0  0  0  0  # atno 17320 bound_to 7965
  144.7047  140.3801  143.7128 LP  0  0  0  0  0  0  0  0  0  0  0  0  # atno 17321 bound_to 7965
  140.7696  143.5493  150.9222 LP  0  0  0  0  0  0  0  0  0  0  0  0  # atno 17342 bound_to 10162
  139.9173  143.6648  152.3104 LP  0  0  0  0  0  0  0  0  0  0  0  0  # atno 17343 bound_to 10162
  155.9701  130.4584  150.5998 LP  0  0  0  0  0  0  0  0  0  0  0  0  # atno 17370 bound_to 10713
  157.3771  131.0775  151.1508 LP  0  0  0  0  0  0  0  0  0  0  0  0  # atno 17371 bound_to 10713
  141.2091  133.7758  157.0016 LP  0  0  0  0  0  0  0  0  0  0  0  0  # atno 17394 bound_to 11000
  140.0960  134.9564  157.1850 LP  0  0  0  0  0  0  0  0  0  0  0  0  # atno 17395 bound_to 11000

$$$$
