AV-unprocessed.smi:3303|AV-procd|sdf|12673|dock5
  -GOLD-   2272019 03D 1   1.00000     0.00000
 Structure written by MMmdl.
 44 45  0  0  0  0  0  0  0  0  2 V2000
  151.6038  144.8238  158.5267 C   0  0  0  0  0  0  0  0  0  0  0  0
  151.5755  143.3815  159.0613 C   0  0  2  0  0  0  0  0  0  0  0  0
  152.9638  142.9909  159.6046 C   0  0  0  0  0  0  0  0  0  0  0  0
  152.9629  141.6375  160.1664 N   0  0  0  0  0  0  0  0  0  0  0  0
  154.2823  141.4106  160.7500 C   0  0  0  0  0  0  0  0  0  0  0  0
  152.6451  140.6515  159.1193 C   0  0  1  0  0  0  0  0  0  0  0  0
  152.6891  139.2039  159.6502 C   0  0  0  0  0  0  0  0  0  0  0  0
  151.2389  140.9497  158.5579 C   0  0  0  0  0  0  0  0  0  0  0  0
  151.1310  142.3703  157.9869 C   0  0  1  0  0  0  0  0  0  0  0  0
  149.7376  142.6292  157.5597 N   0  3  0  0  0  0  0  0  0  0  0  0
  149.0618  141.4818  156.9218 C   0  0  0  0  0  0  0  0  0  0  0  0
  149.4309  141.3829  155.4354 C   0  0  0  0  0  0  0  0  0  0  0  0
  150.3599  140.2184  155.1502 C   0  0  0  0  0  0  0  0  0  0  0  0
  151.6688  140.1944  155.6770 C   0  0  0  0  0  0  0  0  0  0  0  0
  152.4881  139.0860  155.3871 C   0  0  0  0  0  0  0  0  0  0  0  0
  151.9695  138.0503  154.5862 C   0  0  0  0  0  0  0  0  0  0  0  0
  150.6488  138.1688  154.1094 C   0  0  0  0  0  0  0  0  0  0  0  0
  149.8539  139.2262  154.3838 N   0  0  0  0  0  0  0  0  0  0  0  0
  152.2801  144.9186  157.6763 H   0  0  0  0  0  0  0  0  0  0  0  0
  151.9402  145.5193  159.2960 H   0  0  0  0  0  0  0  0  0  0  0  0
  150.6156  145.1527  158.2047 H   0  0  0  0  0  0  0  0  0  0  0  0
  150.8673  143.3457  159.8913 H   0  0  0  0  0  0  0  0  0  0  0  0
  153.7150  143.0664  158.8162 H   0  0  0  0  0  0  0  0  0  0  0  0
  153.2503  143.7008  160.3822 H   0  0  0  0  0  0  0  0  0  0  0  0
  154.3177  140.4725  161.3029 H   0  0  0  0  0  0  0  0  0  0  0  0
  154.5289  142.1989  161.4623 H   0  0  0  0  0  0  0  0  0  0  0  0
  155.0589  141.3905  159.9839 H   0  0  0  0  0  0  0  0  0  0  0  0
  153.3743  140.7446  158.3125 H   0  0  0  0  0  0  0  0  0  0  0  0
  152.3262  138.5038  158.8971 H   0  0  0  0  0  0  0  0  0  0  0  0
  152.0656  139.0842  160.5370 H   0  0  0  0  0  0  0  0  0  0  0  0
  153.7013  138.8874  159.9013 H   0  0  0  0  0  0  0  0  0  0  0  0
  150.9948  140.2284  157.7766 H   0  0  0  0  0  0  0  0  0  0  0  0
  150.4962  140.8104  159.3456 H   0  0  0  0  0  0  0  0  0  0  0  0
  151.8034  142.4465  157.1302 H   0  0  0  0  0  0  0  0  0  0  0  0
  149.2019  142.9062  158.3700 H   0  0  0  0  0  0  0  0  0  0  0  0
  149.3486  140.5634  157.4359 H   0  0  0  0  0  0  0  0  0  0  0  0
  147.9830  141.5952  157.0366 H   0  0  0  0  0  0  0  0  0  0  0  0
  148.5289  141.2708  154.8318 H   0  0  0  0  0  0  0  0  0  0  0  0
  149.9071  142.3078  155.1071 H   0  0  0  0  0  0  0  0  0  0  0  0
  152.0390  141.0037  156.2892 H   0  0  0  0  0  0  0  0  0  0  0  0
  153.4956  139.0311  155.7724 H   0  0  0  0  0  0  0  0  0  0  0  0
  152.5695  137.1859  154.3430 H   0  0  0  0  0  0  0  0  0  0  0  0
  150.2190  137.3933  153.4926 H   0  0  0  0  0  0  0  0  0  0  0  0
  149.7479  143.3984  156.9054 H   0  0  0  0  0  0  0  0  0  0  0  0
  1  2  1  0  0  0  0
  1 19  1  0  0  0  0
  1 20  1  0  0  0  0
  1 21  1  0  0  0  0
  2  9  1  0  0  0  0
  2  3  1  0  0  0  0
  2 22  1  0  0  0  0
  3  4  1  0  0  0  0
  3 23  1  0  0  0  0
  3 24  1  0  0  0  0
  4  5  1  0  0  0  0
  4  6  1  0  0  0  0
  5 25  1  0  0  0  0
  5 26  1  0  0  0  0
  5 27  1  0  0  0  0
  6  7  1  0  0  0  0
  6  8  1  0  0  0  0
  6 28  1  0  0  0  0
  7 29  1  0  0  0  0
  7 30  1  0  0  0  0
  7 31  1  0  0  0  0
  8  9  1  0  0  0  0
  8 32  1  0  0  0  0
  8 33  1  0  0  0  0
  9 10  1  0  0  0  0
  9 34  1  0  0  0  0
 10 11  1  0  0  0  0
 10 35  1  0  0  0  0
 10 44  1  0  0  0  0
 11 12  1  0  0  0  0
 11 36  1  0  0  0  0
 11 37  1  0  0  0  0
 12 13  1  0  0  0  0
 12 38  1  0  0  0  0
 12 39  1  0  0  0  0
 13 18  1  0  0  0  0
 13 14  2  0  0  0  0
 14 15  1  0  0  0  0
 14 40  1  0  0  0  0
 15 16  2  0  0  0  0
 15 41  1  0  0  0  0
 16 17  1  0  0  0  0
 16 42  1  0  0  0  0
 17 18  2  0  0  0  0
 17 43  1  0  0  0  0
M  CHG  1  10   1
M  END
> <s_m_source_file>
AV-unprocessed.smi

> <i_m_source_file_index>
3303

> <i_lp_mmshare_version>
43012

> <i_f3d_flags>
0

> <s_epik_input>
W0NIM11bQ0BASF0xW0NIMl1OKFtDSDNdKVtDQEBIXShbQ0gzXSlbQ0gyXVtDQEhdMVtOSF1bQ0gyXVtDSDJdYzJbY0hdW2NIXVtjSF1bY0hdbjI=

> <s_epik_cmdline>
J2VwaWtfcHl0aG9uJywgJy1waCcsICc3LjAnLCAnLXRuJywgJzgnLCAnLW1hJywgJzIwMCcsICctbWV0YWxfYmluZGluZycsICctaW1hZScsICc8aW5maWxlLm1hZT4nLCAnLW9tYWUnLCAnPG91dGZpbGUubWFlPic=

> <r_epik_Ionization_Penalty>
1.37325

> <r_epik_Ionization_Penalty_Charging>
0.000251572

> <r_epik_Ionization_Penalty_Neutral>
1.373

> <r_epik_State_Penalty>
1.46343

> <r_epik_Charging_Adjusted_Penalty>
1.46368

> <i_epik_Tot_Q>
1

> <i_epik_Tot_abs_Q>
1

> <r_epik_Metal_State_Penalty>
1.46331

> <b_epik_Metal_Only>
0

> <s_lp_Force_Field>
OPLS_2005

> <r_lp_Energy>
21.6133

> <b_lp_Chiralities_Consistent>
1

> <s_lp_Variant>
AV-unprocessed.smi:3303-17

> <Gold.Version>
5.8.1

> <Gold.Id.Protein>
6NUR|6NUR_protein|mol2

> <Gold.PLP.Fitness>
49.2694

> <Gold.PLP.PLP>
-41.2809

> <Gold.PLP.part.hbond>
-1.0000

> <Gold.PLP.part.metal>
0.0000

> <Gold.PLP.part.buried>
-3.9570

> <Gold.PLP.part.nonpolar>
-37.1239

> <Gold.PLP.part.repulsive>
0.2011

> <Gold.PLP.ligand.clash>
0.0000

> <Gold.PLP.ligand.torsion>
0.6893

> <Gold.PLP.Chemscore.Hbond>
2.0000

> <Gold.PLP.Chemscore.CHOScore>
1.1142

> <Gold.PLP.Chemscore.Metal>
0.0000

> <Gold.Chemscore.Hbonds>
donor molecule, donor type, donor heavy atom, donor atom, acceptor molecule, acceptor atom, score
      L1  H    10    44       P1  8028  2.00
      L1  C    17    43       P1  7948  0.93
      L1  C    17    43       P1  7949  0.18

> <Gold.PLP.Chemscore.Internal.Correction>
0.0244

> <Gold.Rescore>
     Score         DG    S(hbond)    S(metal)    S(lipo)     H(rot)  DE(clash)    DE(int)     intcor
     18.98     -19.90       0.98        0.00     124.43       1.33       0.18       0.74       ----

> <Gold.Chemscore.Fitness>
18.9796

> <Gold.Chemscore.DG>
-19.9006

> <Gold.Chemscore.ZeroCoef>
-5.4800

> <Gold.Chemscore.Hbond>
0.9779

> <Gold.Chemscore.Metal>
0.0000

> <Gold.Chemscore.Lipo>
124.4330

> <Gold.Chemscore.Internal_Hbond>
0.0000

> <Gold.Chemscore.DEClash>
0.1784

> <Gold.Chemscore.DEInternal>
0.7426

> <Gold.Chemscore.Rot>
1.3298

> <Gold.Chemscore.Internal.Correction>
   9.000000E+99

> <Gold.Chemscore.Hbonds>
donor molecule, donor type, donor heavy atom, donor atom, acceptor molecule, acceptor atom, score
      L1  H    10    44       P1  8028  0.93

> <Gold.Chemscore.Hbond.Weighted>
-3.2662

> <Gold.Chemscore.Metal.Weighted>
-0.0000

> <Gold.Chemscore.Lipo.Weighted>
-14.5587

> <Gold.Chemscore.Internal_Hbond.Weighted>
0.0000

> <Gold.Chemscore.DEClash.Weighted>
0.1784

> <Gold.Chemscore.DEInternal.Weighted>
0.7426

> <Gold.Chemscore.Rot.Weighted>
3.4043

> <Gold.Chemscore.Internal.Correction.Weighted>
   9.000000E+99

> <Gold.Protein.RotatedTorsions>
[ 6907 6896 6895 6894 ] final -168.75 input  -60.11 | X-H torsion
[ 7974 7965 7964 7962 ] final   77.60 input  175.53 | X-H torsion
[ 8008 7997 7996 7995 ] final -134.63 input   59.86 | X-H torsion
[ 10167 10162 10161 10158 ] final  -95.06 input  -65.29 | X-H torsion
[ 10718 10713 10712 10709 ] final   -9.21 input   66.30 | X-H torsion
[ 10763 10752 10751 10750 ] final -169.92 input  -60.55 | X-H torsion
[ 11005 11000 10999 10996 ] final    1.79 input  -57.11 | X-H torsion

> <Gold.Protein.ActiveResidues>
 VAL166  LYS551  ARG553  GLY616  TRP617  ASP618  TYR619  PRO620  LYS621  CYS622 
 ASP623  PHE694  ASN695  SER759  ASP760  ASP761  ALA762  ILE779  LEU786  VAL792 
 PHE793  MET794  SER795  GLU796  ALA797  LYS798  CYS799  TRP800  GLU811  SER814 

> <Gold.Protein.RotatedAtoms>
  151.4807  133.3547  159.2837 H   0  0  0  0  0  0  0  0  0  0  0  0  # atno 6907 bound_to 6896
  150.8899  134.8304  159.7297 H   0  0  0  0  0  0  0  0  0  0  0  0  # atno 6908 bound_to 6896
  152.4816  134.4715  159.9689 H   0  0  0  0  0  0  0  0  0  0  0  0  # atno 6909 bound_to 6896
  145.6880  139.2543  143.1776 H   0  0  0  0  0  0  0  0  0  0  0  0  # atno 7974 bound_to 7965
  155.3653  140.0485  157.3046 H   0  0  0  0  0  0  0  0  0  0  0  0  # atno 8008 bound_to 7997
  154.5157  140.2207  155.9033 H   0  0  0  0  0  0  0  0  0  0  0  0  # atno 8009 bound_to 7997
  156.1634  140.3111  155.8852 H   0  0  0  0  0  0  0  0  0  0  0  0  # atno 8010 bound_to 7997
  140.3081  143.3122  152.0178 H   0  0  0  0  0  0  0  0  0  0  0  0  # atno 10167 bound_to 10162
  156.6914  130.5066  149.5942 H   0  0  0  0  0  0  0  0  0  0  0  0  # atno 10718 bound_to 10713
  154.6471  135.2906  155.0033 H   0  0  0  0  0  0  0  0  0  0  0  0  # atno 10763 bound_to 10752
  154.1139  135.6558  153.4894 H   0  0  0  0  0  0  0  0  0  0  0  0  # atno 10764 bound_to 10752
  153.0356  135.5271  154.7362 H   0  0  0  0  0  0  0  0  0  0  0  0  # atno 10765 bound_to 10752
  140.6115  133.9744  155.8180 H   0  0  0  0  0  0  0  0  0  0  0  0  # atno 11005 bound_to 11000
  146.0907  140.7659  142.9597 LP  0  0  0  0  0  0  0  0  0  0  0  0  # atno 17320 bound_to 7965
  144.7005  140.3633  143.7159 LP  0  0  0  0  0  0  0  0  0  0  0  0  # atno 17321 bound_to 7965
  139.4900  144.6406  151.6885 LP  0  0  0  0  0  0  0  0  0  0  0  0  # atno 17342 bound_to 10162
  140.5593  144.0296  150.6162 LP  0  0  0  0  0  0  0  0  0  0  0  0  # atno 17343 bound_to 10162
  156.1795  130.6489  151.0934 LP  0  0  0  0  0  0  0  0  0  0  0  0  # atno 17370 bound_to 10713
  157.7007  131.0777  150.6828 LP  0  0  0  0  0  0  0  0  0  0  0  0  # atno 17371 bound_to 10713
  141.0805  134.0070  157.3393 LP  0  0  0  0  0  0  0  0  0  0  0  0  # atno 17394 bound_to 11000
  139.9190  135.0199  156.7993 LP  0  0  0  0  0  0  0  0  0  0  0  0  # atno 17395 bound_to 11000

$$$$
