AV-unprocessed.smi:1533|AV-procd|sdf|6163|dock5
  -GOLD-   22720 6313D 1   1.00000     0.00000
 Structure written by MMmdl.
 37 39  0  0  0  0  0  0  0  0  1 V2000
  153.2544  130.9561  157.1407 C   0  0  0  0  0  0  0  0  0  0  0  0
  151.9807  131.6855  156.8838 C   0  0  0  0  0  0  0  0  0  0  0  0
  151.5508  132.6268  157.7151 N   0  0  0  0  0  0  0  0  0  0  0  0
  150.3549  133.0580  157.1237 O   0  0  0  0  0  0  0  0  0  0  0  0
  150.2053  132.3097  156.0037 C   0  0  0  0  0  0  0  0  0  0  0  0
  149.0437  132.5789  155.1024 C   0  0  0  0  0  0  0  0  0  0  0  0
  149.4395  133.1009  153.7078 C   0  0  0  0  0  0  0  0  0  0  0  0
  148.5284  132.6479  152.6590 N   0  0  0  0  0  0  0  0  0  0  0  0
  147.2304  132.9752  152.5570 C   0  0  0  0  0  0  0  0  0  0  0  0
  146.6604  133.7172  153.3580 O   0  0  0  0  0  0  0  0  0  0  0  0
  146.4618  132.3281  151.3916 C   0  0  1  0  0  0  0  0  0  0  0  0
  145.2247  131.4991  151.8171 C   0  0  0  0  0  0  0  0  0  0  0  0
  144.0975  132.0905  150.9496 C   0  0  1  0  0  0  0  0  0  0  0  0
  143.7189  133.4861  151.4794 C   0  0  0  0  0  0  0  0  0  0  0  0
  144.9065  134.3548  151.0260 C   0  0  0  0  0  0  0  0  0  0  0  0
  145.8513  133.3239  150.3697 C   0  0  2  0  0  0  0  0  0  0  0  0
  144.8385  132.4295  149.6608 C   0  0  0  0  0  0  0  0  0  0  0  0
  151.1930  131.4415  155.8006 N   0  0  0  0  0  0  0  0  0  0  0  0
  153.2135  130.4525  158.1069 H   0  0  0  0  0  0  0  0  0  0  0  0
  154.0934  131.6522  157.1457 H   0  0  0  0  0  0  0  0  0  0  0  0
  153.4328  130.2068  156.3690 H   0  0  0  0  0  0  0  0  0  0  0  0
  148.4687  131.6583  154.9979 H   0  0  0  0  0  0  0  0  0  0  0  0
  148.3851  133.2967  155.5924 H   0  0  0  0  0  0  0  0  0  0  0  0
  149.5028  134.1905  153.7198 H   0  0  0  0  0  0  0  0  0  0  0  0
  150.4388  132.7438  153.4588 H   0  0  0  0  0  0  0  0  0  0  0  0
  148.9119  132.0257  151.9623 H   0  0  0  0  0  0  0  0  0  0  0  0
  147.1469  131.6644  150.8603 H   0  0  0  0  0  0  0  0  0  0  0  0
  145.3784  130.4463  151.5765 H   0  0  0  0  0  0  0  0  0  0  0  0
  144.9896  131.5533  152.8811 H   0  0  0  0  0  0  0  0  0  0  0  0
  143.2438  131.4229  150.8298 H   0  0  0  0  0  0  0  0  0  0  0  0
  142.7909  133.8388  151.0278 H   0  0  0  0  0  0  0  0  0  0  0  0
  143.5891  133.4935  152.5624 H   0  0  0  0  0  0  0  0  0  0  0  0
  144.5748  135.0837  150.2855 H   0  0  0  0  0  0  0  0  0  0  0  0
  145.3591  134.9171  151.8415 H   0  0  0  0  0  0  0  0  0  0  0  0
  146.5919  133.7715  149.7062 H   0  0  0  0  0  0  0  0  0  0  0  0
  145.2878  131.5599  149.1777 H   0  0  0  0  0  0  0  0  0  0  0  0
  144.2217  132.9617  148.9340 H   0  0  0  0  0  0  0  0  0  0  0  0
  1  2  1  0  0  0  0
  1 19  1  0  0  0  0
  1 20  1  0  0  0  0
  1 21  1  0  0  0  0
  2 18  1  0  0  0  0
  2  3  2  0  0  0  0
  3  4  1  0  0  0  0
  4  5  1  0  0  0  0
  5  6  1  0  0  0  0
  5 18  2  0  0  0  0
  6  7  1  0  0  0  0
  6 22  1  0  0  0  0
  6 23  1  0  0  0  0
  7  8  1  0  0  0  0
  7 24  1  0  0  0  0
  7 25  1  0  0  0  0
  8  9  1  0  0  0  0
  8 26  1  0  0  0  0
  9 10  2  0  0  0  0
  9 11  1  0  0  0  0
 11 16  1  0  0  0  0
 11 12  1  0  0  0  0
 11 27  1  0  0  0  0
 12 13  1  0  0  0  0
 12 28  1  0  0  0  0
 12 29  1  0  0  0  0
 13 17  1  0  0  0  0
 13 14  1  0  0  0  0
 13 30  1  0  0  0  0
 14 15  1  0  0  0  0
 14 31  1  0  0  0  0
 14 32  1  0  0  0  0
 15 16  1  0  0  0  0
 15 33  1  0  0  0  0
 15 34  1  0  0  0  0
 16 17  1  0  0  0  0
 16 35  1  0  0  0  0
 17 36  1  0  0  0  0
 17 37  1  0  0  0  0
M  END
> <s_m_source_file>
AV-unprocessed.smi

> <i_m_source_file_index>
1533

> <i_lp_mmshare_version>
43012

> <i_f3d_flags>
0

> <s_epik_input>
W0NIM11jMW5vYyhuMSlbQ0gyXVtDSDJdW05IXUMoPU8pW0NASF0oW0NIMl1bQ0BASF0yMylbQ0BASF0oW0NIMl0zKVtDSDJdW0NIMl0y

> <s_epik_cmdline>
J2VwaWtfcHl0aG9uJywgJy1waCcsICc3LjAnLCAnLXRuJywgJzgnLCAnLW1hJywgJzIwMCcsICctbWV0YWxfYmluZGluZycsICctaW1hZScsICc8aW5maWxlLm1hZT4nLCAnLW9tYWUnLCAnPG91dGZpbGUubWFlPic=

> <r_lp_tautomer_probability>
1

> <r_epik_Ionization_Penalty>
1.90116e-08

> <r_epik_Ionization_Penalty_Charging>
0

> <r_epik_Ionization_Penalty_Neutral>
1.90116e-08

> <r_epik_State_Penalty>
-0

> <r_epik_Charging_Adjusted_Penalty>
0

> <i_epik_Tot_Q>
0

> <i_epik_Tot_abs_Q>
0

> <r_epik_Metal_State_Penalty>
-0

> <b_epik_Metal_Only>
0

> <s_lp_Force_Field>
OPLS_2005

> <r_lp_Energy>
44.7071

> <b_lp_Chiralities_Consistent>
1

> <s_lp_Variant>
AV-unprocessed.smi:1533-2

> <Gold.Version>
5.8.1

> <Gold.Id.Protein>
6NUR|6NUR_protein|mol2

> <Gold.PLP.Fitness>
38.4484

> <Gold.PLP.PLP>
-32.9713

> <Gold.PLP.part.hbond>
-2.3784

> <Gold.PLP.part.metal>
0.0000

> <Gold.PLP.part.buried>
-4.2435

> <Gold.PLP.part.nonpolar>
-25.6480

> <Gold.PLP.part.repulsive>
0.0910

> <Gold.PLP.ligand.clash>
0.0000

> <Gold.PLP.ligand.torsion>
0.2596

> <Gold.PLP.Chemscore.Hbond>
1.9920

> <Gold.PLP.Chemscore.CHOScore>
0.0000

> <Gold.PLP.Chemscore.Metal>
0.0000

> <Gold.Chemscore.Hbonds>
donor molecule, donor type, donor heavy atom, donor atom, acceptor molecule, acceptor atom, score
      L1  H     8    26       P1 10747  1.00
      P1  H  6896  6909       L1     3  1.00

> <Gold.PLP.Chemscore.Internal.Correction>
0.0202

> <Gold.Rescore>
     Score         DG    S(hbond)    S(metal)    S(lipo)     H(rot)  DE(clash)    DE(int)     intcor
     14.13     -15.01       1.68        0.00      74.09       1.85       0.21       0.67       ----

> <Gold.Chemscore.Fitness>
14.1281

> <Gold.Chemscore.DG>
-15.0095

> <Gold.Chemscore.ZeroCoef>
-5.4800

> <Gold.Chemscore.Hbond>
1.6751

> <Gold.Chemscore.Metal>
0.0000

> <Gold.Chemscore.Lipo>
74.0857

> <Gold.Chemscore.Internal_Hbond>
0.0000

> <Gold.Chemscore.DEClash>
0.2064

> <Gold.Chemscore.DEInternal>
0.6750

> <Gold.Chemscore.Rot>
1.8490

> <Gold.Chemscore.Internal.Correction>
   9.000000E+99

> <Gold.Chemscore.Hbonds>
donor molecule, donor type, donor heavy atom, donor atom, acceptor molecule, acceptor atom, score
      L1  H     8    26       P1 10747  0.86
      P1  H  6896  6909       L1     3  0.67

> <Gold.Chemscore.Hbond.Weighted>
-5.5948

> <Gold.Chemscore.Metal.Weighted>
-0.0000

> <Gold.Chemscore.Lipo.Weighted>
-8.6680

> <Gold.Chemscore.Internal_Hbond.Weighted>
0.0000

> <Gold.Chemscore.DEClash.Weighted>
0.2064

> <Gold.Chemscore.DEInternal.Weighted>
0.6750

> <Gold.Chemscore.Rot.Weighted>
4.7334

> <Gold.Chemscore.Internal.Correction.Weighted>
   9.000000E+99

> <Gold.Protein.RotatedTorsions>
[ 6907 6896 6895 6894 ] final  -60.35 input  -60.11 | X-H torsion
[ 7974 7965 7964 7962 ] final -151.20 input  175.53 | X-H torsion
[ 8008 7997 7996 7995 ] final   50.91 input   59.86 | X-H torsion
[ 10167 10162 10161 10158 ] final  -78.29 input  -65.29 | X-H torsion
[ 10718 10713 10712 10709 ] final   -4.01 input   66.30 | X-H torsion
[ 10763 10752 10751 10750 ] final  -88.42 input  -60.55 | X-H torsion
[ 11005 11000 10999 10996 ] final   79.02 input  -57.11 | X-H torsion

> <Gold.Protein.ActiveResidues>
 VAL166  LYS551  ARG553  GLY616  TRP617  ASP618  TYR619  PRO620  LYS621  CYS622 
 ASP623  PHE694  ASN695  SER759  ASP760  ASP761  ALA762  ILE779  LEU786  VAL792 
 PHE793  MET794  SER795  GLU796  ALA797  LYS798  CYS799  TRP800  GLU811  SER814 

> <Gold.Protein.RotatedAtoms>
  150.7862  134.6848  159.6463 H   0  0  0  0  0  0  0  0  0  0  0  0  # atno 6907 bound_to 6896
  152.3959  134.6363  160.0098 H   0  0  0  0  0  0  0  0  0  0  0  0  # atno 6908 bound_to 6896
  151.6649  133.3279  159.3219 H   0  0  0  0  0  0  0  0  0  0  0  0  # atno 6909 bound_to 6896
  144.7863  140.4830  143.5804 H   0  0  0  0  0  0  0  0  0  0  0  0  # atno 7974 bound_to 7965
  155.4266  140.3449  155.4276 H   0  0  0  0  0  0  0  0  0  0  0  0  # atno 8008 bound_to 7997
  156.1361  140.1528  156.9023 H   0  0  0  0  0  0  0  0  0  0  0  0  # atno 8009 bound_to 7997
  154.4933  140.0835  156.7622 H   0  0  0  0  0  0  0  0  0  0  0  0  # atno 8010 bound_to 7997
  140.4696  143.2430  151.8226 H   0  0  0  0  0  0  0  0  0  0  0  0  # atno 10167 bound_to 10162
  156.7676  130.5289  149.5773 H   0  0  0  0  0  0  0  0  0  0  0  0  # atno 10718 bound_to 10713
  154.6444  135.5377  153.7827 H   0  0  0  0  0  0  0  0  0  0  0  0  # atno 10763 bound_to 10752
  153.0351  135.6467  154.1111 H   0  0  0  0  0  0  0  0  0  0  0  0  # atno 10764 bound_to 10752
  154.1033  135.2931  155.3226 H   0  0  0  0  0  0  0  0  0  0  0  0  # atno 10765 bound_to 10752
  139.9189  134.7809  156.1725 H   0  0  0  0  0  0  0  0  0  0  0  0  # atno 11005 bound_to 11000
  145.5912  139.1496  143.3181 LP  0  0  0  0  0  0  0  0  0  0  0  0  # atno 17320 bound_to 7965
  146.2097  140.6038  142.9065 LP  0  0  0  0  0  0  0  0  0  0  0  0  # atno 17321 bound_to 7965
  139.4816  144.4909  151.9187 LP  0  0  0  0  0  0  0  0  0  0  0  0  # atno 17342 bound_to 10162
  140.3994  144.2513  150.5894 LP  0  0  0  0  0  0  0  0  0  0  0  0  # atno 17343 bound_to 10162
  156.1299  130.6170  151.0318 LP  0  0  0  0  0  0  0  0  0  0  0  0  # atno 17370 bound_to 10713
  157.6706  131.0862  150.7622 LP  0  0  0  0  0  0  0  0  0  0  0  0  # atno 17371 bound_to 10713
  141.0692  133.6805  156.2106 LP  0  0  0  0  0  0  0  0  0  0  0  0  # atno 17394 bound_to 11000
  140.6535  134.5042  157.5579 LP  0  0  0  0  0  0  0  0  0  0  0  0  # atno 17395 bound_to 11000

$$$$
