AV-unprocessed.smi:2451|AV-procd|sdf|9681|dock6
  -GOLD-   2272013323D 1   1.00000     0.00000
 Structure written by MMmdl.
 37 38  0  0  0  0  0  0  0  0  2 V2000
  152.2908  142.9703  161.2507 C   0  0  0  0  0  0  0  0  0  0  0  0
  153.1046  143.1410  159.9461 C   0  0  2  0  0  0  0  0  0  0  0  0
  152.5190  144.2687  159.0615 C   0  0  0  0  0  0  0  0  0  0  0  0
  151.2553  143.7795  158.3252 C   0  0  0  0  0  0  0  0  0  0  0  0
  151.5154  142.4963  157.5023 C   0  0  0  0  0  0  0  0  0  0  0  0
  152.0945  141.3296  158.3387 C   0  0  1  0  0  0  0  0  0  0  0  0
  152.4474  140.2330  157.4471 N   0  5  0  0  0  0  0  0  0  0  0  0
  151.2841  139.4886  156.5988 S   0  0  0  0  0  0  0  0  0  0  0  0
  150.0740  139.2319  157.3972 O   0  0  0  0  0  0  0  0  0  0  0  0
  151.0903  140.0838  155.2663 O   0  0  0  0  0  0  0  0  0  0  0  0
  152.0697  137.8446  156.3192 C   0  0  0  0  0  0  0  0  0  0  0  0
  151.1794  136.7512  156.8388 C   0  0  0  0  0  0  0  0  0  0  0  0
  150.5562  135.6980  156.1134 C   0  0  0  0  0  0  0  0  0  0  0  0
  149.8763  135.0072  157.0743 C   0  0  0  0  0  0  0  0  0  0  0  0
  150.0677  135.5733  158.2923 O   0  0  0  0  0  0  0  0  0  0  0  0
  150.9039  136.6841  158.1325 N   0  0  0  0  0  0  0  0  0  0  0  0
  153.3487  141.8208  159.1352 C   0  0  2  0  0  0  0  0  0  0  0  0
  153.9890  140.7248  160.0217 C   0  0  0  0  0  0  0  0  0  0  0  0
  151.2878  142.5862  161.0660 H   0  0  0  0  0  0  0  0  0  0  0  0
  152.1830  143.9241  161.7672 H   0  0  0  0  0  0  0  0  0  0  0  0
  152.7828  142.2907  161.9458 H   0  0  0  0  0  0  0  0  0  0  0  0
  154.0866  143.4922  160.2663 H   0  0  0  0  0  0  0  0  0  0  0  0
  152.2965  145.1550  159.6565 H   0  0  0  0  0  0  0  0  0  0  0  0
  153.2642  144.5733  158.3255 H   0  0  0  0  0  0  0  0  0  0  0  0
  150.4476  143.6143  159.0405 H   0  0  0  0  0  0  0  0  0  0  0  0
  150.9007  144.5667  157.6594 H   0  0  0  0  0  0  0  0  0  0  0  0
  150.5876  142.1801  157.0238 H   0  0  0  0  0  0  0  0  0  0  0  0
  152.2049  142.7407  156.6925 H   0  0  0  0  0  0  0  0  0  0  0  0
  151.3357  141.0327  159.0638 H   0  0  0  0  0  0  0  0  0  0  0  0
  152.2482  137.7290  155.2506 H   0  0  0  0  0  0  0  0  0  0  0  0
  153.0380  137.8418  156.8204 H   0  0  0  0  0  0  0  0  0  0  0  0
  150.5972  135.4899  155.0546 H   0  0  0  0  0  0  0  0  0  0  0  0
  149.2437  134.1323  157.0516 H   0  0  0  0  0  0  0  0  0  0  0  0
  154.1036  142.0765  158.3890 H   0  0  0  0  0  0  0  0  0  0  0  0
  153.2913  140.3202  160.7567 H   0  0  0  0  0  0  0  0  0  0  0  0
  154.8429  141.1237  160.5696 H   0  0  0  0  0  0  0  0  0  0  0  0
  154.3640  139.8856  159.4332 H   0  0  0  0  0  0  0  0  0  0  0  0
  1  2  1  0  0  0  0
  1 19  1  0  0  0  0
  1 20  1  0  0  0  0
  1 21  1  0  0  0  0
  2 17  1  0  0  0  0
  2  3  1  0  0  0  0
  2 22  1  0  0  0  0
  3  4  1  0  0  0  0
  3 23  1  0  0  0  0
  3 24  1  0  0  0  0
  4  5  1  0  0  0  0
  4 25  1  0  0  0  0
  4 26  1  0  0  0  0
  5  6  1  0  0  0  0
  5 27  1  0  0  0  0
  5 28  1  0  0  0  0
  6  7  1  0  0  0  0
  6 17  1  0  0  0  0
  6 29  1  0  0  0  0
  7  8  1  0  0  0  0
  8  9  2  0  0  0  0
  8 10  2  0  0  0  0
  8 11  1  0  0  0  0
 11 12  1  0  0  0  0
 11 30  1  0  0  0  0
 11 31  1  0  0  0  0
 12 16  2  0  0  0  0
 12 13  1  0  0  0  0
 13 14  2  0  0  0  0
 13 32  1  0  0  0  0
 14 15  1  0  0  0  0
 14 33  1  0  0  0  0
 15 16  1  0  0  0  0
 17 18  1  0  0  0  0
 17 34  1  0  0  0  0
 18 35  1  0  0  0  0
 18 36  1  0  0  0  0
 18 37  1  0  0  0  0
M  CHG  1   7  -1
M  END
> <s_m_source_file>
AV-unprocessed.smi

> <i_m_source_file_index>
2451

> <i_lp_mmshare_version>
43012

> <i_f3d_flags>
0

> <s_epik_input>
W0NIM11bQ0BASF0xW0NIMl1bQ0gyXVtDSDJdW0NASF0oW0NASF0xW0NIM10pW05IXVMoPU8pKD1PKVtDSDJdYzJbY0hdW2NIXW9uMg==

> <s_epik_cmdline>
J2VwaWtfcHl0aG9uJywgJy1waCcsICc3LjAnLCAnLXRuJywgJzgnLCAnLW1hJywgJzIwMCcsICctbWV0YWxfYmluZGluZycsICctaW1hZScsICc8aW5maWxlLm1hZT4nLCAnLW9tYWUnLCAnPG91dGZpbGUubWFlPic=

> <r_lp_tautomer_probability>
1

> <r_epik_Ionization_Penalty>
5.22693

> <r_epik_Ionization_Penalty_Charging>
5.22693

> <r_epik_Ionization_Penalty_Neutral>
2.67702e-10

> <r_epik_State_Penalty>
5.22685

> <r_epik_Charging_Adjusted_Penalty>
10.4538

> <i_epik_Tot_Q>
-1

> <i_epik_Tot_abs_Q>
1

> <r_epik_Metal_State_Penalty>
1.28716

> <b_epik_Metal_Only>
1

> <s_lp_Force_Field>
OPLS_2005

> <r_lp_Energy>
14.4343

> <b_lp_Chiralities_Consistent>
1

> <s_lp_Variant>
AV-unprocessed.smi:2451-13

> <Gold.Version>
5.8.1

> <Gold.Id.Protein>
6NUR|6NUR_protein|mol2

> <Gold.PLP.Fitness>
44.0733

> <Gold.PLP.PLP>
-32.8688

> <Gold.PLP.part.hbond>
-3.0585

> <Gold.PLP.part.metal>
0.0000

> <Gold.PLP.part.buried>
-4.4070

> <Gold.PLP.part.nonpolar>
-24.6774

> <Gold.PLP.part.repulsive>
0.0339

> <Gold.PLP.ligand.clash>
0.0000

> <Gold.PLP.ligand.torsion>
0.6680

> <Gold.PLP.Chemscore.Hbond>
3.8480

> <Gold.PLP.Chemscore.CHOScore>
0.0000

> <Gold.PLP.Chemscore.Metal>
0.0000

> <Gold.Chemscore.Hbonds>
donor molecule, donor type, donor heavy atom, donor atom, acceptor molecule, acceptor atom, score
      P1  H  6896  6909       L1    15  0.93
      P1  H  7989  7998       L1    10  1.00
      P1  H  7997  8008       L1     7  1.72

> <Gold.PLP.Chemscore.Internal.Correction>
0.9965

> <Gold.Rescore>
     Score         DG    S(hbond)    S(metal)    S(lipo)     H(rot)  DE(clash)    DE(int)     intcor
     19.98     -22.10       2.57        0.00      99.40       1.40       0.00       2.12       ----

> <Gold.Chemscore.Fitness>
19.9810

> <Gold.Chemscore.DG>
-22.0986

> <Gold.Chemscore.ZeroCoef>
-5.4800

> <Gold.Chemscore.Hbond>
2.5655

> <Gold.Chemscore.Metal>
0.0000

> <Gold.Chemscore.Lipo>
99.4039

> <Gold.Chemscore.Internal_Hbond>
0.0000

> <Gold.Chemscore.DEClash>
0.0021

> <Gold.Chemscore.DEInternal>
2.1154

> <Gold.Chemscore.Rot>
1.3986

> <Gold.Chemscore.Internal.Correction>
   9.000000E+99

> <Gold.Chemscore.Hbonds>
donor molecule, donor type, donor heavy atom, donor atom, acceptor molecule, acceptor atom, score
      P1  H  6896  6909       L1    15  0.59
      P1  H  7989  7998       L1    10  0.94
      P1  H  7997  8008       L1     7  0.73

> <Gold.Chemscore.Hbond.Weighted>
-8.5687

> <Gold.Chemscore.Metal.Weighted>
-0.0000

> <Gold.Chemscore.Lipo.Weighted>
-11.6303

> <Gold.Chemscore.Internal_Hbond.Weighted>
0.0000

> <Gold.Chemscore.DEClash.Weighted>
0.0021

> <Gold.Chemscore.DEInternal.Weighted>
2.1154

> <Gold.Chemscore.Rot.Weighted>
3.5804

> <Gold.Chemscore.Internal.Correction.Weighted>
   9.000000E+99

> <Gold.Protein.RotatedTorsions>
[ 6907 6896 6895 6894 ] final   48.55 input  -60.11 | X-H torsion
[ 7974 7965 7964 7962 ] final    8.97 input  175.53 | X-H torsion
[ 8008 7997 7996 7995 ] final  -64.18 input   59.86 | X-H torsion
[ 10167 10162 10161 10158 ] final  142.24 input  -65.29 | X-H torsion
[ 10718 10713 10712 10709 ] final   86.73 input   66.30 | X-H torsion
[ 10763 10752 10751 10750 ] final  -37.54 input  -60.55 | X-H torsion
[ 11005 11000 10999 10996 ] final   30.47 input  -57.11 | X-H torsion

> <Gold.Protein.ActiveResidues>
 VAL166  LYS551  ARG553  GLY616  TRP617  ASP618  TYR619  PRO620  LYS621  CYS622 
 ASP623  PHE694  ASN695  SER759  ASP760  ASP761  ALA762  ILE779  LEU786  VAL792 
 PHE793  MET794  SER795  GLU796  ALA797  LYS798  CYS799  TRP800  GLU811  SER814 

> <Gold.Protein.RotatedAtoms>
  152.2808  134.7831  160.0396 H   0  0  0  0  0  0  0  0  0  0  0  0  # atno 6907 bound_to 6896
  151.8410  133.3418  159.3651 H   0  0  0  0  0  0  0  0  0  0  0  0  # atno 6908 bound_to 6896
  150.7189  134.5319  159.5749 H   0  0  0  0  0  0  0  0  0  0  0  0  # atno 6909 bound_to 6896
  146.2409  139.9854  142.8431 H   0  0  0  0  0  0  0  0  0  0  0  0  # atno 7974 bound_to 7965
  154.4596  140.0959  156.6857 H   0  0  0  0  0  0  0  0  0  0  0  0  # atno 8008 bound_to 7997
  155.5033  140.3474  155.4356 H   0  0  0  0  0  0  0  0  0  0  0  0  # atno 8009 bound_to 7997
  156.0846  140.1381  156.9659 H   0  0  0  0  0  0  0  0  0  0  0  0  # atno 8010 bound_to 7997
  139.4999  144.6120  151.6251 H   0  0  0  0  0  0  0  0  0  0  0  0  # atno 10167 bound_to 10162
  157.6932  131.0227  150.3017 H   0  0  0  0  0  0  0  0  0  0  0  0  # atno 10718 bound_to 10713
  153.8980  135.6805  153.4757 H   0  0  0  0  0  0  0  0  0  0  0  0  # atno 10763 bound_to 10752
  153.1144  135.4768  154.9088 H   0  0  0  0  0  0  0  0  0  0  0  0  # atno 10764 bound_to 10752
  154.7589  135.3205  154.8370 H   0  0  0  0  0  0  0  0  0  0  0  0  # atno 10765 bound_to 10752
  140.2941  134.2831  155.7769 H   0  0  0  0  0  0  0  0  0  0  0  0  # atno 11005 bound_to 11000
  145.1553  140.9644  143.4409 LP  0  0  0  0  0  0  0  0  0  0  0  0  # atno 17320 bound_to 7965
  145.0167  139.3461  143.6093 LP  0  0  0  0  0  0  0  0  0  0  0  0  # atno 17321 bound_to 7965
  140.5797  143.9967  150.6261 LP  0  0  0  0  0  0  0  0  0  0  0  0  # atno 17342 bound_to 10162
  140.3112  143.3197  152.0877 LP  0  0  0  0  0  0  0  0  0  0  0  0  # atno 17343 bound_to 10162
  156.3532  130.3834  149.7312 LP  0  0  0  0  0  0  0  0  0  0  0  0  # atno 17370 bound_to 10713
  156.4783  130.8029  151.3044 LP  0  0  0  0  0  0  0  0  0  0  0  0  # atno 17371 bound_to 10713
  141.2141  133.7604  156.9669 LP  0  0  0  0  0  0  0  0  0  0  0  0  # atno 17394 bound_to 11000
  140.1169  134.9442  157.2147 LP  0  0  0  0  0  0  0  0  0  0  0  0  # atno 17395 bound_to 11000

$$$$
