AV-unprocessed.smi:1762|AV-procd|sdf|7117|dock5
  -GOLD-   22720 8343D 1   1.00000     0.00000
 Structure written by MMmdl.
 53 54  0  0  0  0  0  0  0  0  2 V2000
  152.5494  134.7044  154.9327 C   0  0  0  0  0  0  0  0  0  0  0  0
  151.1355  135.0332  154.4405 C   0  0  2  0  0  0  0  0  0  0  0  0
  150.6083  136.3542  155.0291 C   0  0  0  0  0  0  0  0  0  0  0  0
  149.2125  136.6258  154.5790 N   0  3  2  0  0  0  0  0  0  0  0  0
  148.6933  137.9568  155.0489 C   0  0  1  0  0  0  0  0  0  0  0  0
  149.8354  138.9907  155.1575 C   0  0  0  0  0  0  0  0  0  0  0  0
  150.6133  139.1548  154.2167 O   0  0  0  0  0  0  0  0  0  0  0  0
  149.9209  139.6766  156.3073 N   0  0  0  0  0  0  0  0  0  0  0  0
  150.9190  140.6984  156.5950 C   0  0  0  0  0  0  0  0  0  0  0  0
  151.5775  140.4382  157.9568 C   0  0  0  0  0  0  0  0  0  0  0  0
  151.8666  141.7228  158.7108 C   0  0  0  0  0  0  0  0  0  0  0  0
  151.4142  142.9654  158.2180 C   0  0  0  0  0  0  0  0  0  0  0  0
  151.7017  144.1266  158.9613 C   0  0  0  0  0  0  0  0  0  0  0  0
  152.4254  144.0010  160.1626 C   0  0  0  0  0  0  0  0  0  0  0  0
  152.8320  142.7145  160.5688 C   0  0  0  0  0  0  0  0  0  0  0  0
  152.5622  141.5949  159.8633 N   0  0  0  0  0  0  0  0  0  0  0  0
  147.5121  138.5279  154.1926 C   0  0  0  0  0  0  0  0  0  0  0  0
  146.8955  139.8241  154.7593 C   0  0  0  0  0  0  0  0  0  0  0  0
  146.4033  137.4932  153.9155 C   0  0  0  0  0  0  0  0  0  0  0  0
  148.3599  135.4535  154.9216 C   0  0  0  0  0  0  0  0  0  0  0  0
  148.9507  134.1495  154.3517 C   0  0  2  0  0  0  0  0  0  0  0  0
  148.1308  132.9197  154.7574 C   0  0  0  0  0  0  0  0  0  0  0  0
  150.2735  133.9772  154.8408 O   0  0  0  0  0  0  0  0  0  0  0  0
  153.2570  135.4825  154.6449 H   0  0  0  0  0  0  0  0  0  0  0  0
  152.9006  133.7637  154.5078 H   0  0  0  0  0  0  0  0  0  0  0  0
  152.5783  134.6105  156.0186 H   0  0  0  0  0  0  0  0  0  0  0  0
  151.1536  135.0958  153.3510 H   0  0  0  0  0  0  0  0  0  0  0  0
  150.6346  136.3141  156.1194 H   0  0  0  0  0  0  0  0  0  0  0  0
  151.2850  137.1540  154.7294 H   0  0  0  0  0  0  0  0  0  0  0  0
  148.3031  137.7908  156.0551 H   0  0  0  0  0  0  0  0  0  0  0  0
  149.2418  139.4856  157.0299 H   0  0  0  0  0  0  0  0  0  0  0  0
  151.6701  140.6890  155.8040 H   0  0  0  0  0  0  0  0  0  0  0  0
  150.4606  141.6890  156.5926 H   0  0  0  0  0  0  0  0  0  0  0  0
  150.9308  139.8076  158.5692 H   0  0  0  0  0  0  0  0  0  0  0  0
  152.5077  139.8846  157.8220 H   0  0  0  0  0  0  0  0  0  0  0  0
  150.8593  143.0303  157.2936 H   0  0  0  0  0  0  0  0  0  0  0  0
  151.3719  145.0954  158.6168 H   0  0  0  0  0  0  0  0  0  0  0  0
  152.6633  144.8698  160.7587 H   0  0  0  0  0  0  0  0  0  0  0  0
  153.3878  142.5813  161.4852 H   0  0  0  0  0  0  0  0  0  0  0  0
  147.9001  138.7570  153.2013 H   0  0  0  0  0  0  0  0  0  0  0  0
  146.3737  139.6450  155.6996 H   0  0  0  0  0  0  0  0  0  0  0  0
  146.1692  140.2436  154.0625 H   0  0  0  0  0  0  0  0  0  0  0  0
  147.6479  140.5908  154.9420 H   0  0  0  0  0  0  0  0  0  0  0  0
  145.8373  137.2452  154.8136 H   0  0  0  0  0  0  0  0  0  0  0  0
  146.8182  136.5684  153.5137 H   0  0  0  0  0  0  0  0  0  0  0  0
  145.6914  137.8749  153.1832 H   0  0  0  0  0  0  0  0  0  0  0  0
  148.2567  135.3838  156.0057 H   0  0  0  0  0  0  0  0  0  0  0  0
  147.3594  135.5562  154.5065 H   0  0  0  0  0  0  0  0  0  0  0  0
  148.9743  134.2038  153.2617 H   0  0  0  0  0  0  0  0  0  0  0  0
  147.1042  132.9956  154.3984 H   0  0  0  0  0  0  0  0  0  0  0  0
  148.0988  132.8062  155.8416 H   0  0  0  0  0  0  0  0  0  0  0  0
  148.5610  132.0091  154.3399 H   0  0  0  0  0  0  0  0  0  0  0  0
  149.2362  136.6770  153.5701 H   0  0  0  0  0  0  0  0  0  0  0  0
  1  2  1  0  0  0  0
  1 24  1  0  0  0  0
  1 25  1  0  0  0  0
  1 26  1  0  0  0  0
  2 23  1  0  0  0  0
  2  3  1  0  0  0  0
  2 27  1  0  0  0  0
  3  4  1  0  0  0  0
  3 28  1  0  0  0  0
  3 29  1  0  0  0  0
  4  5  1  0  0  0  0
  4 20  1  0  0  0  0
  4 53  1  0  0  0  0
  5  6  1  0  0  0  0
  5 17  1  0  0  0  0
  5 30  1  0  0  0  0
  6  7  2  0  0  0  0
  6  8  1  0  0  0  0
  8  9  1  0  0  0  0
  8 31  1  0  0  0  0
  9 10  1  0  0  0  0
  9 32  1  0  0  0  0
  9 33  1  0  0  0  0
 10 11  1  0  0  0  0
 10 34  1  0  0  0  0
 10 35  1  0  0  0  0
 11 16  1  0  0  0  0
 11 12  2  0  0  0  0
 12 13  1  0  0  0  0
 12 36  1  0  0  0  0
 13 14  2  0  0  0  0
 13 37  1  0  0  0  0
 14 15  1  0  0  0  0
 14 38  1  0  0  0  0
 15 16  2  0  0  0  0
 15 39  1  0  0  0  0
 17 18  1  0  0  0  0
 17 19  1  0  0  0  0
 17 40  1  0  0  0  0
 18 41  1  0  0  0  0
 18 42  1  0  0  0  0
 18 43  1  0  0  0  0
 19 44  1  0  0  0  0
 19 45  1  0  0  0  0
 19 46  1  0  0  0  0
 20 21  1  0  0  0  0
 20 47  1  0  0  0  0
 20 48  1  0  0  0  0
 21 22  1  0  0  0  0
 21 23  1  0  0  0  0
 21 49  1  0  0  0  0
 22 50  1  0  0  0  0
 22 51  1  0  0  0  0
 22 52  1  0  0  0  0
M  CHG  1   4   1
M  END
> <s_m_source_file>
AV-unprocessed.smi

> <i_m_source_file_index>
1762

> <i_lp_mmshare_version>
43012

> <i_f3d_flags>
0

> <s_epik_input>
W0NIM11bQ0BASF0xW0NIMl1OKFtDSDJdW0NASF0oTzEpW0NIM10pW0NAQEhdKFtDSF0oW0NIM10pW0NIM10pQyg9TylbTkhdW0NIMl1bQ0gyXWMyW2NIXVtjSF1bY0hdW2NIXW4y

> <s_epik_cmdline>
J2VwaWtfcHl0aG9uJywgJy1waCcsICc3LjAnLCAnLXRuJywgJzgnLCAnLW1hJywgJzIwMCcsICctbWV0YWxfYmluZGluZycsICctaW1hZScsICc8aW5maWxlLm1hZT4nLCAnLW9tYWUnLCAnPG91dGZpbGUubWFlPic=

> <r_epik_Ionization_Penalty>
2.27005

> <r_epik_Ionization_Penalty_Charging>
2.24983

> <r_epik_Ionization_Penalty_Neutral>
0.0202209

> <r_epik_State_Penalty>
2.40228

> <r_epik_Charging_Adjusted_Penalty>
4.65211

> <i_epik_Tot_Q>
1

> <i_epik_Tot_abs_Q>
1

> <r_epik_Metal_State_Penalty>
2.40762

> <b_epik_Metal_Only>
0

> <s_lp_Force_Field>
OPLS_2005

> <r_lp_Energy>
21.958

> <b_lp_Chiralities_Consistent>
1

> <s_lp_Variant>
AV-unprocessed.smi:1762-19

> <Gold.Version>
5.8.1

> <Gold.Id.Protein>
6NUR|6NUR_protein|mol2

> <Gold.PLP.Fitness>
45.8989

> <Gold.PLP.PLP>
-38.9818

> <Gold.PLP.part.hbond>
-2.0000

> <Gold.PLP.part.metal>
0.0000

> <Gold.PLP.part.buried>
-2.7658

> <Gold.PLP.part.nonpolar>
-34.6000

> <Gold.PLP.part.repulsive>
0.3204

> <Gold.PLP.ligand.clash>
0.0000

> <Gold.PLP.ligand.torsion>
1.2126

> <Gold.PLP.Chemscore.Hbond>
3.0000

> <Gold.PLP.Chemscore.CHOScore>
0.0000

> <Gold.PLP.Chemscore.Metal>
0.0000

> <Gold.Chemscore.Hbonds>
donor molecule, donor type, donor heavy atom, donor atom, acceptor molecule, acceptor atom, score
      L1  H     4    53       P1  7948  2.00
      P1  H  7989  7998       L1     7  0.80

> <Gold.PLP.Chemscore.Internal.Correction>
0.3422

> <Gold.Rescore>
     Score         DG    S(hbond)    S(metal)    S(lipo)     H(rot)  DE(clash)    DE(int)     intcor
     17.87     -20.72       1.93        0.00     111.60       1.66       0.52       2.34       ----

> <Gold.Chemscore.Fitness>
17.8669

> <Gold.Chemscore.DG>
-20.7185

> <Gold.Chemscore.ZeroCoef>
-5.4800

> <Gold.Chemscore.Hbond>
1.9281

> <Gold.Chemscore.Metal>
0.0000

> <Gold.Chemscore.Lipo>
111.6010

> <Gold.Chemscore.Internal_Hbond>
0.0000

> <Gold.Chemscore.DEClash>
0.5157

> <Gold.Chemscore.DEInternal>
2.3359

> <Gold.Chemscore.Rot>
1.6635

> <Gold.Chemscore.Internal.Correction>
   9.000000E+99

> <Gold.Chemscore.Hbonds>
donor molecule, donor type, donor heavy atom, donor atom, acceptor molecule, acceptor atom, score
      L1  H     4    53       P1  7948  0.96
      P1  H  7989  7998       L1     7  0.78

> <Gold.Chemscore.Hbond.Weighted>
-6.4398

> <Gold.Chemscore.Metal.Weighted>
-0.0000

> <Gold.Chemscore.Lipo.Weighted>
-13.0573

> <Gold.Chemscore.Internal_Hbond.Weighted>
0.0000

> <Gold.Chemscore.DEClash.Weighted>
0.5157

> <Gold.Chemscore.DEInternal.Weighted>
2.3359

> <Gold.Chemscore.Rot.Weighted>
4.2586

> <Gold.Chemscore.Internal.Correction.Weighted>
   9.000000E+99

> <Gold.Protein.RotatedTorsions>
[ 6907 6896 6895 6894 ] final    1.00 input  -60.11 | X-H torsion
[ 7974 7965 7964 7962 ] final  -64.28 input  175.53 | X-H torsion
[ 8008 7997 7996 7995 ] final -108.07 input   59.86 | X-H torsion
[ 10167 10162 10161 10158 ] final  -53.22 input  -65.29 | X-H torsion
[ 10718 10713 10712 10709 ] final   40.69 input   66.30 | X-H torsion
[ 10763 10752 10751 10750 ] final   86.79 input  -60.55 | X-H torsion
[ 11005 11000 10999 10996 ] final -132.04 input  -57.11 | X-H torsion

> <Gold.Protein.ActiveResidues>
 VAL166  LYS551  ARG553  GLY616  TRP617  ASP618  TYR619  PRO620  LYS621  CYS622 
 ASP623  PHE694  ASN695  SER759  ASP760  ASP761  ALA762  ILE779  LEU786  VAL792 
 PHE793  MET794  SER795  GLU796  ALA797  LYS798  CYS799  TRP800  GLU811  SER814 

> <Gold.Protein.RotatedAtoms>
  151.5855  135.1056  160.0026 H   0  0  0  0  0  0  0  0  0  0  0  0  # atno 6907 bound_to 6896
  152.4332  133.7311  159.6598 H   0  0  0  0  0  0  0  0  0  0  0  0  # atno 6908 bound_to 6896
  150.8227  133.8154  159.3155 H   0  0  0  0  0  0  0  0  0  0  0  0  # atno 6909 bound_to 6896
  145.7687  140.8824  143.0391 H   0  0  0  0  0  0  0  0  0  0  0  0  # atno 7974 bound_to 7965
  154.9388  140.0403  157.2086 H   0  0  0  0  0  0  0  0  0  0  0  0  # atno 8008 bound_to 7997
  154.8089  140.2864  155.5846 H   0  0  0  0  0  0  0  0  0  0  0  0  # atno 8009 bound_to 7997
  156.2969  140.2541  156.2973 H   0  0  0  0  0  0  0  0  0  0  0  0  # atno 8010 bound_to 7997
  140.6496  143.2557  151.4761 H   0  0  0  0  0  0  0  0  0  0  0  0  # atno 10167 bound_to 10162
  157.3850  130.7775  149.7223 H   0  0  0  0  0  0  0  0  0  0  0  0  # atno 10718 bound_to 10713
  153.1604  135.4567  154.9764 H   0  0  0  0  0  0  0  0  0  0  0  0  # atno 10763 bound_to 10752
  154.7893  135.3215  154.7816 H   0  0  0  0  0  0  0  0  0  0  0  0  # atno 10764 bound_to 10752
  153.8307  135.6939  153.4869 H   0  0  0  0  0  0  0  0  0  0  0  0  # atno 10765 bound_to 10752
  140.9205  134.1450  157.4317 H   0  0  0  0  0  0  0  0  0  0  0  0  # atno 11005 bound_to 11000
  144.6816  139.9825  143.7483 LP  0  0  0  0  0  0  0  0  0  0  0  0  # atno 17320 bound_to 7965
  146.0192  139.3236  143.0823 LP  0  0  0  0  0  0  0  0  0  0  0  0  # atno 17321 bound_to 7965
  139.5710  144.1929  152.1836 LP  0  0  0  0  0  0  0  0  0  0  0  0  # atno 17342 bound_to 10162
  140.1225  144.5360  150.6853 LP  0  0  0  0  0  0  0  0  0  0  0  0  # atno 17343 bound_to 10162
  155.9784  130.4051  150.3647 LP  0  0  0  0  0  0  0  0  0  0  0  0  # atno 17370 bound_to 10713
  157.1756  131.0379  151.2774 LP  0  0  0  0  0  0  0  0  0  0  0  0  # atno 17371 bound_to 10713
  139.8774  134.9970  156.5822 LP  0  0  0  0  0  0  0  0  0  0  0  0  # atno 17394 bound_to 11000
  140.7993  133.8518  155.8713 LP  0  0  0  0  0  0  0  0  0  0  0  0  # atno 17395 bound_to 11000

$$$$
