AV-unprocessed.smi:1413|AV-procd|sdf|5752|dock9
  -GOLD-   22720 5393D 1   1.00000     0.00000
 Structure written by MMmdl.
 53 55  0  0  0  0  0  0  0  0  1 V2000
  151.5328  144.4856  158.0488 C   0  0  0  0  0  0  0  0  0  0  0  0
  152.1435  143.0946  158.2481 C   0  0  2  0  0  0  0  0  0  0  0  0
  151.3508  142.0071  157.5002 C   0  0  0  0  0  0  0  0  0  0  0  0
  151.8973  140.6926  157.8054 N   0  0  0  0  0  0  0  0  0  0  0  0
  151.3336  139.6667  157.0339 C   0  0  0  0  0  0  0  0  0  0  0  0
  151.3021  139.8051  155.6312 C   0  0  0  0  0  0  0  0  0  0  0  0
  150.7369  138.7709  154.8617 C   0  0  0  0  0  0  0  0  0  0  0  0
  150.2093  137.6384  155.5137 C   0  0  0  0  0  0  0  0  0  0  0  0
  149.6655  136.5982  154.7131 N   0  0  0  0  0  0  0  0  0  0  0  0
  149.1147  135.4401  155.1143 C   0  0  0  0  0  0  0  0  0  0  0  0
  148.9507  135.1018  156.2862 O   0  0  0  0  0  0  0  0  0  0  0  0
  148.7348  134.6987  154.0635 N   0  0  0  0  0  0  0  0  0  0  0  0
  148.0450  133.4121  154.1279 C   0  0  2  0  0  0  0  0  0  0  0  0
  149.0386  132.2981  153.7637 C   0  0  0  0  0  0  0  0  0  0  0  0
  146.8238  133.4422  153.1878 C   0  0  1  0  0  0  0  0  0  0  0  0
  147.1621  133.5359  151.6966 C   0  0  0  0  0  0  0  0  0  0  0  0
  146.0210  132.8008  151.0059 C   0  0  0  0  0  0  0  0  0  0  0  0
  145.2139  132.1973  152.1557 C   0  0  0  0  0  0  0  0  0  0  0  0
  146.1048  132.2199  153.2590 O   0  0  0  0  0  0  0  0  0  0  0  0
  150.2951  137.5907  156.9262 C   0  0  0  0  0  0  0  0  0  0  0  0
  150.8400  138.5776  157.6695 N   0  0  0  0  0  0  0  0  0  0  0  0
  151.9103  140.4173  159.2370 C   0  0  0  0  0  0  0  0  0  0  0  0
  152.6679  141.5233  159.9985 C   0  0  1  0  0  0  0  0  0  0  0  0
  154.1955  141.4525  159.8244 C   0  0  0  0  0  0  0  0  0  0  0  0
  152.1448  142.8077  159.6475 O   0  0  0  0  0  0  0  0  0  0  0  0
  151.5162  144.7595  156.9935 H   0  0  0  0  0  0  0  0  0  0  0  0
  152.1090  145.2440  158.5796 H   0  0  0  0  0  0  0  0  0  0  0  0
  150.5086  144.5238  158.4212 H   0  0  0  0  0  0  0  0  0  0  0  0
  153.1688  143.1193  157.8782 H   0  0  0  0  0  0  0  0  0  0  0  0
  150.2997  142.0425  157.7914 H   0  0  0  0  0  0  0  0  0  0  0  0
  151.3939  142.1842  156.4247 H   0  0  0  0  0  0  0  0  0  0  0  0
  151.7070  140.6845  155.1521 H   0  0  0  0  0  0  0  0  0  0  0  0
  150.7073  138.8509  153.7847 H   0  0  0  0  0  0  0  0  0  0  0  0
  149.6426  136.7810  153.7206 H   0  0  0  0  0  0  0  0  0  0  0  0
  148.9092  135.0679  153.1405 H   0  0  0  0  0  0  0  0  0  0  0  0
  147.6929  133.2230  155.1435 H   0  0  0  0  0  0  0  0  0  0  0  0
  148.5757  131.3139  153.8364 H   0  0  0  0  0  0  0  0  0  0  0  0
  149.8965  132.3032  154.4370 H   0  0  0  0  0  0  0  0  0  0  0  0
  149.4130  132.4153  152.7462 H   0  0  0  0  0  0  0  0  0  0  0  0
  146.1515  134.2573  153.4642 H   0  0  0  0  0  0  0  0  0  0  0  0
  147.2594  134.5692  151.3617 H   0  0  0  0  0  0  0  0  0  0  0  0
  148.1026  133.0261  151.4834 H   0  0  0  0  0  0  0  0  0  0  0  0
  145.4077  133.4668  150.3984 H   0  0  0  0  0  0  0  0  0  0  0  0
  146.4153  132.0201  150.3546 H   0  0  0  0  0  0  0  0  0  0  0  0
  144.3446  132.8161  152.3836 H   0  0  0  0  0  0  0  0  0  0  0  0
  144.8672  131.1859  151.9428 H   0  0  0  0  0  0  0  0  0  0  0  0
  149.9458  136.7404  157.4910 H   0  0  0  0  0  0  0  0  0  0  0  0
  150.8838  140.3657  159.6028 H   0  0  0  0  0  0  0  0  0  0  0  0
  152.3656  139.4446  159.4271 H   0  0  0  0  0  0  0  0  0  0  0  0
  152.4656  141.3926  161.0619 H   0  0  0  0  0  0  0  0  0  0  0  0
  154.5847  140.5127  160.2169 H   0  0  0  0  0  0  0  0  0  0  0  0
  154.6861  142.2635  160.3631 H   0  0  0  0  0  0  0  0  0  0  0  0
  154.4962  141.5147  158.7788 H   0  0  0  0  0  0  0  0  0  0  0  0
  1  2  1  0  0  0  0
  1 26  1  0  0  0  0
  1 27  1  0  0  0  0
  1 28  1  0  0  0  0
  2 25  1  0  0  0  0
  2  3  1  0  0  0  0
  2 29  1  0  0  0  0
  3  4  1  0  0  0  0
  3 30  1  0  0  0  0
  3 31  1  0  0  0  0
  4  5  1  0  0  0  0
  4 22  1  0  0  0  0
  5 21  1  0  0  0  0
  5  6  2  0  0  0  0
  6  7  1  0  0  0  0
  6 32  1  0  0  0  0
  7  8  2  0  0  0  0
  7 33  1  0  0  0  0
  8  9  1  0  0  0  0
  8 20  1  0  0  0  0
  9 10  1  0  0  0  0
  9 34  1  0  0  0  0
 10 11  2  0  0  0  0
 10 12  1  0  0  0  0
 12 13  1  0  0  0  0
 12 35  1  0  0  0  0
 13 14  1  0  0  0  0
 13 15  1  0  0  0  0
 13 36  1  0  0  0  0
 14 37  1  0  0  0  0
 14 38  1  0  0  0  0
 14 39  1  0  0  0  0
 15 19  1  0  0  0  0
 15 16  1  0  0  0  0
 15 40  1  0  0  0  0
 16 17  1  0  0  0  0
 16 41  1  0  0  0  0
 16 42  1  0  0  0  0
 17 18  1  0  0  0  0
 17 43  1  0  0  0  0
 17 44  1  0  0  0  0
 18 19  1  0  0  0  0
 18 45  1  0  0  0  0
 18 46  1  0  0  0  0
 20 21  2  0  0  0  0
 20 47  1  0  0  0  0
 22 23  1  0  0  0  0
 22 48  1  0  0  0  0
 22 49  1  0  0  0  0
 23 24  1  0  0  0  0
 23 25  1  0  0  0  0
 23 50  1  0  0  0  0
 24 51  1  0  0  0  0
 24 52  1  0  0  0  0
 24 53  1  0  0  0  0
M  END
> <s_m_source_file>
AV-unprocessed.smi

> <i_m_source_file_index>
1413

> <i_lp_mmshare_version>
43012

> <i_f3d_flags>
0

> <s_epik_input>
W0NIM11bQ0BASF0xW0NIMl1OKFtDSDJdW0NASF0oTzEpW0NIM10pYzJbY0hdW2NIXWMoW2NIXW4yKVtOSF1DKD1PKVtOSF1bQ0BIXShbQ0gzXSlbQ0BASF0zW0NIMl1bQ0gyXVtDSDJdTzM=

> <s_epik_cmdline>
J2VwaWtfcHl0aG9uJywgJy1waCcsICc3LjAnLCAnLXRuJywgJzgnLCAnLW1hJywgJzIwMCcsICctbWV0YWxfYmluZGluZycsICctaW1hZScsICc8aW5maWxlLm1hZT4nLCAnLW9tYWUnLCAnPG91dGZpbGUubWFlPic=

> <r_lp_tautomer_probability>
1

> <r_epik_Ionization_Penalty>
0.00271172

> <r_epik_Ionization_Penalty_Charging>
0

> <r_epik_Ionization_Penalty_Neutral>
0.00271172

> <r_epik_State_Penalty>
0.00186503

> <r_epik_Charging_Adjusted_Penalty>
0.00186503

> <i_epik_Tot_Q>
0

> <i_epik_Tot_abs_Q>
0

> <r_epik_Metal_State_Penalty>
-0

> <b_epik_Metal_Only>
0

> <s_lp_Force_Field>
OPLS_2005

> <r_lp_Energy>
38.8739

> <b_lp_Chiralities_Consistent>
1

> <s_lp_Variant>
AV-unprocessed.smi:1413-5

> <Gold.Version>
5.8.1

> <Gold.Id.Protein>
6NUR|6NUR_protein|mol2

> <Gold.PLP.Fitness>
47.2109

> <Gold.PLP.PLP>
-41.6015

> <Gold.PLP.part.hbond>
-2.0000

> <Gold.PLP.part.metal>
0.0000

> <Gold.PLP.part.buried>
-6.3182

> <Gold.PLP.part.nonpolar>
-33.3568

> <Gold.PLP.part.repulsive>
0.1921

> <Gold.PLP.ligand.clash>
0.0000

> <Gold.PLP.ligand.torsion>
0.2209

> <Gold.PLP.Chemscore.Hbond>
1.9760

> <Gold.PLP.Chemscore.CHOScore>
0.0000

> <Gold.PLP.Chemscore.Metal>
0.0000

> <Gold.Chemscore.Hbonds>
donor molecule, donor type, donor heavy atom, donor atom, acceptor molecule, acceptor atom, score
      L1  H     9    34       P1  7948  0.98
      L1  H    12    35       P1  7948  1.00

> <Gold.PLP.Chemscore.Internal.Correction>
0.1231

> <Gold.Rescore>
     Score         DG    S(hbond)    S(metal)    S(lipo)     H(rot)  DE(clash)    DE(int)     intcor
     18.69     -20.20       1.67        0.00     107.72       1.35       0.08       1.44       ----

> <Gold.Chemscore.Fitness>
18.6853

> <Gold.Chemscore.DG>
-20.1984

> <Gold.Chemscore.ZeroCoef>
-5.4800

> <Gold.Chemscore.Hbond>
1.6658

> <Gold.Chemscore.Metal>
0.0000

> <Gold.Chemscore.Lipo>
107.7178

> <Gold.Chemscore.Internal_Hbond>
0.0000

> <Gold.Chemscore.DEClash>
0.0761

> <Gold.Chemscore.DEInternal>
1.4370

> <Gold.Chemscore.Rot>
1.3471

> <Gold.Chemscore.Internal.Correction>
   9.000000E+99

> <Gold.Chemscore.Hbonds>
donor molecule, donor type, donor heavy atom, donor atom, acceptor molecule, acceptor atom, score
      L1  H     9    34       P1  7948  0.61
      L1  H    12    35       P1  7948  0.30

> <Gold.Chemscore.Hbond.Weighted>
-5.5639

> <Gold.Chemscore.Metal.Weighted>
-0.0000

> <Gold.Chemscore.Lipo.Weighted>
-12.6030

> <Gold.Chemscore.Internal_Hbond.Weighted>
0.0000

> <Gold.Chemscore.DEClash.Weighted>
0.0761

> <Gold.Chemscore.DEInternal.Weighted>
1.4370

> <Gold.Chemscore.Rot.Weighted>
3.4485

> <Gold.Chemscore.Internal.Correction.Weighted>
   9.000000E+99

> <Gold.Protein.RotatedTorsions>
[ 6907 6896 6895 6894 ] final   87.44 input  -60.11 | X-H torsion
[ 7974 7965 7964 7962 ] final -152.68 input  175.53 | X-H torsion
[ 8008 7997 7996 7995 ] final   72.26 input   59.86 | X-H torsion
[ 10167 10162 10161 10158 ] final -127.62 input  -65.29 | X-H torsion
[ 10718 10713 10712 10709 ] final  -89.23 input   66.30 | X-H torsion
[ 10763 10752 10751 10750 ] final   27.10 input  -60.55 | X-H torsion
[ 11005 11000 10999 10996 ] final  -87.67 input  -57.11 | X-H torsion

> <Gold.Protein.ActiveResidues>
 VAL166  LYS551  ARG553  GLY616  TRP617  ASP618  TYR619  PRO620  LYS621  CYS622 
 ASP623  PHE694  ASN695  SER759  ASP760  ASP761  ALA762  ILE779  LEU786  VAL792 
 PHE793  MET794  SER795  GLU796  ALA797  LYS798  CYS799  TRP800  GLU811  SER814 

> <Gold.Protein.RotatedAtoms>
  152.5411  134.2276  159.8811 H   0  0  0  0  0  0  0  0  0  0  0  0  # atno 6907 bound_to 6896
  151.2249  133.4475  159.2609 H   0  0  0  0  0  0  0  0  0  0  0  0  # atno 6908 bound_to 6896
  151.0770  134.9847  159.8393 H   0  0  0  0  0  0  0  0  0  0  0  0  # atno 6909 bound_to 6896
  144.7781  140.4629  143.5859 H   0  0  0  0  0  0  0  0  0  0  0  0  # atno 7974 bound_to 7965
  155.7662  140.3485  155.5223 H   0  0  0  0  0  0  0  0  0  0  0  0  # atno 8008 bound_to 7997
  155.8866  140.1011  157.1469 H   0  0  0  0  0  0  0  0  0  0  0  0  # atno 8009 bound_to 7997
  154.4029  140.1312  156.4250 H   0  0  0  0  0  0  0  0  0  0  0  0  # atno 8010 bound_to 7997
  139.9589  143.5972  152.2451 H   0  0  0  0  0  0  0  0  0  0  0  0  # atno 10167 bound_to 10162
  155.9984  130.4864  150.5139 H   0  0  0  0  0  0  0  0  0  0  0  0  # atno 10718 bound_to 10713
  153.0578  135.6545  154.0536 H   0  0  0  0  0  0  0  0  0  0  0  0  # atno 10763 bound_to 10752
  154.0210  135.2920  155.3382 H   0  0  0  0  0  0  0  0  0  0  0  0  # atno 10764 bound_to 10752
  154.6901  135.5286  153.8449 H   0  0  0  0  0  0  0  0  0  0  0  0  # atno 10765 bound_to 10752
  141.1613  133.7525  156.9340 H   0  0  0  0  0  0  0  0  0  0  0  0  # atno 11005 bound_to 11000
  145.6127  139.1515  143.3066 LP  0  0  0  0  0  0  0  0  0  0  0  0  # atno 17320 bound_to 7965
  146.1973  140.6242  142.9118 LP  0  0  0  0  0  0  0  0  0  0  0  0  # atno 17321 bound_to 7965
  139.6569  144.7662  151.2038 LP  0  0  0  0  0  0  0  0  0  0  0  0  # atno 17342 bound_to 10162
  140.7559  143.6071  150.8642 LP  0  0  0  0  0  0  0  0  0  0  0  0  # atno 17343 bound_to 10162
  157.3109  131.0663  151.2002 LP  0  0  0  0  0  0  0  0  0  0  0  0  # atno 17370 bound_to 10713
  157.2948  130.6814  149.6133 LP  0  0  0  0  0  0  0  0  0  0  0  0  # atno 17371 bound_to 10713
  140.1367  134.9320  157.2411 LP  0  0  0  0  0  0  0  0  0  0  0  0  # atno 17394 bound_to 11000
  140.2887  134.3266  155.7321 LP  0  0  0  0  0  0  0  0  0  0  0  0  # atno 17395 bound_to 11000

$$$$
