AV-unprocessed.smi:786|AV-procd|sdf|3724|dock10
  -GOLD-   22720 1153D 1   1.00000     0.00000
 Structure written by MMmdl.
 39 40  0  0  0  0  0  0  0  0  3 V2000
  152.0608  137.4394  155.3481 O   0  0  0  0  0  0  0  0  0  0  0  0
  151.8352  138.8752  155.1184 S   0  0  0  0  0  0  0  0  0  0  0  0
  152.9684  139.6437  154.5787 O   0  0  0  0  0  0  0  0  0  0  0  0
  150.4974  139.0108  153.8434 C   0  0  0  0  0  0  0  0  0  0  0  0
  149.2409  139.8049  154.2773 C   0  0  0  0  0  0  0  0  0  0  0  0
  148.0290  139.6617  153.3372 C   0  0  0  0  0  0  0  0  0  0  0  0
  146.8746  140.5788  153.7750 C   0  0  0  0  0  0  0  0  0  0  0  0
  147.3143  141.9297  153.8477 O   0  0  0  0  0  0  0  0  0  0  0  0
  148.3424  142.1184  154.8123 C   0  0  0  0  0  0  0  0  0  0  0  0
  149.5812  141.2988  154.4185 C   0  0  0  0  0  0  0  0  0  0  0  0
  151.1441  139.6199  156.3847 N   0  5  0  0  0  0  0  0  0  0  0  0
  151.6676  140.8881  156.8761 C   0  0  0  0  0  0  0  0  0  0  0  0
  150.6350  141.6534  157.7390 C   0  0  0  0  0  0  0  0  0  0  0  0
  151.2190  142.7403  158.6360 C   0  0  0  0  0  0  0  0  0  0  0  0
  152.1516  142.4521  159.6585 C   0  0  0  0  0  0  0  0  0  0  0  0
  152.6562  143.5043  160.4508 C   0  0  0  0  0  0  0  0  0  0  0  0
  152.2242  144.8239  160.2043 C   0  0  0  0  0  0  0  0  0  0  0  0
  151.2972  145.0587  159.1688 C   0  0  0  0  0  0  0  0  0  0  0  0
  150.8376  144.0245  158.4320 N   0  3  0  0  0  0  0  0  0  0  0  0
  150.9423  139.4804  152.9663 H   0  0  0  0  0  0  0  0  0  0  0  0
  150.2241  137.9962  153.5535 H   0  0  0  0  0  0  0  0  0  0  0  0
  148.9382  139.4495  155.2628 H   0  0  0  0  0  0  0  0  0  0  0  0
  148.3210  139.9012  152.3141 H   0  0  0  0  0  0  0  0  0  0  0  0
  147.6619  138.6370  153.3326 H   0  0  0  0  0  0  0  0  0  0  0  0
  146.0552  140.5140  153.0591 H   0  0  0  0  0  0  0  0  0  0  0  0
  146.4762  140.2641  154.7408 H   0  0  0  0  0  0  0  0  0  0  0  0
  148.5937  143.1782  154.8561 H   0  0  0  0  0  0  0  0  0  0  0  0
  147.9854  141.8345  155.8036 H   0  0  0  0  0  0  0  0  0  0  0  0
  150.3654  141.4377  155.1634 H   0  0  0  0  0  0  0  0  0  0  0  0
  149.9770  141.6782  153.4754 H   0  0  0  0  0  0  0  0  0  0  0  0
  152.5643  140.7294  157.4759 H   0  0  0  0  0  0  0  0  0  0  0  0
  151.9833  141.5316  156.0547 H   0  0  0  0  0  0  0  0  0  0  0  0
  149.9068  142.1215  157.0759 H   0  0  0  0  0  0  0  0  0  0  0  0
  150.0590  140.9575  158.3495 H   0  0  0  0  0  0  0  0  0  0  0  0
  152.4722  141.4362  159.8369 H   0  0  0  0  0  0  0  0  0  0  0  0
  153.3663  143.3009  161.2389 H   0  0  0  0  0  0  0  0  0  0  0  0
  152.5975  145.6430  160.8011 H   0  0  0  0  0  0  0  0  0  0  0  0
  150.9099  146.0331  158.9099 H   0  0  0  0  0  0  0  0  0  0  0  0
  150.1598  144.2142  157.6915 H   0  0  0  0  0  0  0  0  0  0  0  0
  1  2  2  0  0  0  0
  2  3  2  0  0  0  0
  2  4  1  0  0  0  0
  2 11  1  0  0  0  0
  4  5  1  0  0  0  0
  4 20  1  0  0  0  0
  4 21  1  0  0  0  0
  5 10  1  0  0  0  0
  5  6  1  0  0  0  0
  5 22  1  0  0  0  0
  6  7  1  0  0  0  0
  6 23  1  0  0  0  0
  6 24  1  0  0  0  0
  7  8  1  0  0  0  0
  7 25  1  0  0  0  0
  7 26  1  0  0  0  0
  8  9  1  0  0  0  0
  9 10  1  0  0  0  0
  9 27  1  0  0  0  0
  9 28  1  0  0  0  0
 10 29  1  0  0  0  0
 10 30  1  0  0  0  0
 11 12  1  0  0  0  0
 12 13  1  0  0  0  0
 12 31  1  0  0  0  0
 12 32  1  0  0  0  0
 13 14  1  0  0  0  0
 13 33  1  0  0  0  0
 13 34  1  0  0  0  0
 14 19  1  0  0  0  0
 14 15  2  0  0  0  0
 15 16  1  0  0  0  0
 15 35  1  0  0  0  0
 16 17  2  0  0  0  0
 16 36  1  0  0  0  0
 17 18  1  0  0  0  0
 17 37  1  0  0  0  0
 18 19  2  0  0  0  0
 18 38  1  0  0  0  0
 19 39  1  0  0  0  0
M  CHG  1  11  -1
M  CHG  1  19   1
M  END
> <s_m_source_file>
AV-unprocessed.smi

> <i_m_source_file_index>
786

> <i_lp_mmshare_version>
43012

> <i_f3d_flags>
0

> <s_epik_input>
W0NIMl0xW0NIMl1PW0NIMl1bQ0gyXVtDSF0xW0NIMl1TKD1PKSg9TylbTkhdW0NIMl1bQ0gyXWMyW2NIXVtjSF1bY0hdW2NIXW4y

> <s_epik_cmdline>
J2VwaWtfcHl0aG9uJywgJy1waCcsICc3LjAnLCAnLXRuJywgJzgnLCAnLW1hJywgJzIwMCcsICctbWV0YWxfYmluZGluZycsICctaW1hZScsICc8aW5maWxlLm1hZT4nLCAnLW9tYWUnLCAnPG91dGZpbGUubWFlPic=

> <r_epik_Ionization_Penalty>
7.39271

> <r_epik_Ionization_Penalty_Charging>
7.39271

> <r_epik_Ionization_Penalty_Neutral>
5.66014e-11

> <r_epik_State_Penalty>
8.23716

> <r_epik_Charging_Adjusted_Penalty>
15.6299

> <i_epik_Tot_Q>
0

> <i_epik_Tot_abs_Q>
2

> <r_epik_Metal_State_Penalty>
4.19267

> <b_epik_Metal_Only>
1

> <s_lp_Force_Field>
OPLS_2005

> <r_lp_Energy>
3.22126

> <b_lp_Chiralities_Consistent>
1

> <s_lp_Variant>
AV-unprocessed.smi:786-4

> <Gold.Version>
5.8.1

> <Gold.Id.Protein>
6NUR|6NUR_protein|mol2

> <Gold.PLP.Fitness>
51.7768

> <Gold.PLP.PLP>
-40.9221

> <Gold.PLP.part.hbond>
-3.9521

> <Gold.PLP.part.metal>
0.0000

> <Gold.PLP.part.buried>
-3.1732

> <Gold.PLP.part.nonpolar>
-33.2731

> <Gold.PLP.part.repulsive>
0.2708

> <Gold.PLP.ligand.clash>
0.0000

> <Gold.PLP.ligand.torsion>
0.8235

> <Gold.PLP.Chemscore.Hbond>
3.8136

> <Gold.PLP.Chemscore.CHOScore>
0.0000

> <Gold.PLP.Chemscore.Metal>
0.0000

> <Gold.Chemscore.Hbonds>
donor molecule, donor type, donor heavy atom, donor atom, acceptor molecule, acceptor atom, score
      L1  H    19    39       P1  8028  0.03
      P1  H  7989  7998       L1     3  0.20
      P1  H  7997  8010       L1     3  0.96
      P1  H 10752 10763       L1     1  0.50

> <Gold.PLP.Chemscore.Internal.Correction>
1.0608

> <Gold.Rescore>
     Score         DG    S(hbond)    S(metal)    S(lipo)     H(rot)  DE(clash)    DE(int)     intcor
     18.98     -21.87       2.44        0.00     107.33       1.68       1.78       1.10       ----

> <Gold.Chemscore.Fitness>
18.9845

> <Gold.Chemscore.DG>
-21.8683

> <Gold.Chemscore.ZeroCoef>
-5.4800

> <Gold.Chemscore.Hbond>
2.4366

> <Gold.Chemscore.Metal>
0.0000

> <Gold.Chemscore.Lipo>
107.3262

> <Gold.Chemscore.Internal_Hbond>
0.0000

> <Gold.Chemscore.DEClash>
1.7807

> <Gold.Chemscore.DEInternal>
1.1032

> <Gold.Chemscore.Rot>
1.6824

> <Gold.Chemscore.Internal.Correction>
   9.000000E+99

> <Gold.Chemscore.Hbonds>
donor molecule, donor type, donor heavy atom, donor atom, acceptor molecule, acceptor atom, score
      L1  H    19    39       P1  8028  0.04
      P1  H  7989  7998       L1     3  0.01
      P1  H  7997  8010       L1     3  0.88
      P1  H 10752 10763       L1     1  0.50

> <Gold.Chemscore.Hbond.Weighted>
-8.1382

> <Gold.Chemscore.Metal.Weighted>
-0.0000

> <Gold.Chemscore.Lipo.Weighted>
-12.5572

> <Gold.Chemscore.Internal_Hbond.Weighted>
0.0000

> <Gold.Chemscore.DEClash.Weighted>
1.7807

> <Gold.Chemscore.DEInternal.Weighted>
1.1032

> <Gold.Chemscore.Rot.Weighted>
4.3070

> <Gold.Chemscore.Internal.Correction.Weighted>
   9.000000E+99

> <Gold.Protein.RotatedTorsions>
[ 6907 6896 6895 6894 ] final   -1.63 input  -60.11 | X-H torsion
[ 7974 7965 7964 7962 ] final  -28.65 input  175.53 | X-H torsion
[ 8008 7997 7996 7995 ] final  106.30 input   59.86 | X-H torsion
[ 10167 10162 10161 10158 ] final   18.55 input  -65.29 | X-H torsion
[ 10718 10713 10712 10709 ] final -164.56 input   66.30 | X-H torsion
[ 10763 10752 10751 10750 ] final   75.83 input  -60.55 | X-H torsion
[ 11005 11000 10999 10996 ] final  -38.78 input  -57.11 | X-H torsion

> <Gold.Protein.ActiveResidues>
 VAL166  LYS551  ARG553  GLY616  TRP617  ASP618  TYR619  PRO620  LYS621  CYS622 
 ASP623  PHE694  ASN695  SER759  ASP760  ASP761  ALA762  ILE779  LEU786  VAL792 
 PHE793  MET794  SER795  GLU796  ALA797  LYS798  CYS799  TRP800  GLU811  SER814 

> <Gold.Protein.RotatedAtoms>
  151.5430  135.1068  159.9930 H   0  0  0  0  0  0  0  0  0  0  0  0  # atno 6907 bound_to 6896
  152.4527  133.7656  159.6781 H   0  0  0  0  0  0  0  0  0  0  0  0  # atno 6908 bound_to 6896
  150.8460  133.7795  159.3067 H   0  0  0  0  0  0  0  0  0  0  0  0  # atno 6909 bound_to 6896
  146.1273  140.5310  142.8709 H   0  0  0  0  0  0  0  0  0  0  0  0  # atno 7974 bound_to 7965
  156.1732  140.3115  155.9011 H   0  0  0  0  0  0  0  0  0  0  0  0  # atno 8008 bound_to 7997
  155.3543  140.0473  157.3063 H   0  0  0  0  0  0  0  0  0  0  0  0  # atno 8009 bound_to 7997
  154.5262  140.2215  155.8896 H   0  0  0  0  0  0  0  0  0  0  0  0  # atno 8010 bound_to 7997
  140.5645  143.9276  150.6666 H   0  0  0  0  0  0  0  0  0  0  0  0  # atno 10167 bound_to 10162
  156.6407  130.8967  151.2995 H   0  0  0  0  0  0  0  0  0  0  0  0  # atno 10718 bound_to 10713
  153.0682  135.4974  154.8247 H   0  0  0  0  0  0  0  0  0  0  0  0  # atno 10763 bound_to 10752
  154.6984  135.2997  154.9379 H   0  0  0  0  0  0  0  0  0  0  0  0  # atno 10764 bound_to 10752
  154.0111  135.6754  153.4818 H   0  0  0  0  0  0  0  0  0  0  0  0  # atno 10765 bound_to 10752
  141.0053  133.6935  156.2099 H   0  0  0  0  0  0  0  0  0  0  0  0  # atno 11005 bound_to 11000
  144.7655  140.5521  143.6706 LP  0  0  0  0  0  0  0  0  0  0  0  0  # atno 17320 bound_to 7965
  145.5337  139.1475  143.3485 LP  0  0  0  0  0  0  0  0  0  0  0  0  # atno 17321 bound_to 7965
  140.2736  143.3439  152.1216 LP  0  0  0  0  0  0  0  0  0  0  0  0  # atno 17342 bound_to 10162
  139.5086  144.6853  151.5904 LP  0  0  0  0  0  0  0  0  0  0  0  0  # atno 17343 bound_to 10162
  157.7172  130.9512  150.1299 LP  0  0  0  0  0  0  0  0  0  0  0  0  # atno 17370 bound_to 10713
  156.2161  130.3670  149.8612 LP  0  0  0  0  0  0  0  0  0  0  0  0  # atno 17371 bound_to 10713
  140.6823  134.4754  157.5589 LP  0  0  0  0  0  0  0  0  0  0  0  0  # atno 17394 bound_to 11000
  139.9060  134.8448  156.1705 LP  0  0  0  0  0  0  0  0  0  0  0  0  # atno 17395 bound_to 11000

$$$$
