AV-unprocessed.smi:2083|AV-procd|sdf|8498|dock9
  -GOLD-   2272011203D 1   1.00000     0.00000
 Structure written by MMmdl.
 44 45  0  0  0  0  0  0  0  0  3 V2000
  146.1709  135.2380  162.8032 C   0  0  0  0  0  0  0  0  0  0  0  0
  147.0919  135.6728  161.7147 C   0  0  0  0  0  0  0  0  0  0  0  0
  147.5581  135.0517  160.5908 C   0  0  0  0  0  0  0  0  0  0  0  0
  148.3934  136.0374  159.9973 C   0  0  0  0  0  0  0  0  0  0  0  0
  149.1022  135.8974  158.8665 N   0  5  0  0  0  0  0  0  0  0  0  0
  148.4731  135.7973  157.6736 C   0  0  0  0  0  0  0  0  0  0  0  0
  147.2990  135.4701  157.4873 O   0  0  0  0  0  0  0  0  0  0  0  0
  149.2555  136.0960  156.6287 N   0  0  0  0  0  0  0  0  0  0  0  0
  148.8398  136.0854  155.2313 C   0  0  0  0  0  0  0  0  0  0  0  0
  148.4645  134.6634  154.7506 C   0  0  2  0  0  0  0  0  0  0  0  0
  149.7324  133.7785  154.6559 C   0  0  0  0  0  0  0  0  0  0  0  0
  147.6831  134.7513  153.4729 N   0  3  1  0  0  0  0  0  0  0  0  0
  147.5194  133.4765  152.7149 C   0  0  0  0  0  0  0  0  0  0  0  0
  146.8243  133.7088  151.3631 C   0  0  0  0  0  0  0  0  0  0  0  0
  145.4708  134.4017  151.5441 C   0  0  0  0  0  0  0  0  0  0  0  0
  145.6530  135.7058  152.3342 C   0  0  1  0  0  0  0  0  0  0  0  0
  144.3109  136.4190  152.5517 C   0  0  0  0  0  0  0  0  0  0  0  0
  146.3637  135.4184  153.6715 C   0  0  0  0  0  0  0  0  0  0  0  0
  148.4417  137.1521  160.7066 N   0  0  0  0  0  0  0  0  0  0  0  0
  147.6052  136.9288  161.8067 O   0  0  0  0  0  0  0  0  0  0  0  0
  146.5754  134.3718  163.3270 H   0  0  0  0  0  0  0  0  0  0  0  0
  145.1972  134.9639  162.3972 H   0  0  0  0  0  0  0  0  0  0  0  0
  146.0204  136.0338  163.5331 H   0  0  0  0  0  0  0  0  0  0  0  0
  147.3355  134.0534  160.2455 H   0  0  0  0  0  0  0  0  0  0  0  0
  150.2102  136.3594  156.8247 H   0  0  0  0  0  0  0  0  0  0  0  0
  148.0042  136.7775  155.1356 H   0  0  0  0  0  0  0  0  0  0  0  0
  149.6446  136.4786  154.6075 H   0  0  0  0  0  0  0  0  0  0  0  0
  147.8216  134.2015  155.5019 H   0  0  0  0  0  0  0  0  0  0  0  0
  150.2764  133.7504  155.6000 H   0  0  0  0  0  0  0  0  0  0  0  0
  150.4228  134.1487  153.8972 H   0  0  0  0  0  0  0  0  0  0  0  0
  149.4908  132.7409  154.4254 H   0  0  0  0  0  0  0  0  0  0  0  0
  148.4863  133.0247  152.4971 H   0  0  0  0  0  0  0  0  0  0  0  0
  146.9531  132.7623  153.3152 H   0  0  0  0  0  0  0  0  0  0  0  0
  147.4645  134.3180  150.7235 H   0  0  0  0  0  0  0  0  0  0  0  0
  146.6883  132.7582  150.8467 H   0  0  0  0  0  0  0  0  0  0  0  0
  145.0249  134.6058  150.5699 H   0  0  0  0  0  0  0  0  0  0  0  0
  144.7840  133.7370  152.0699 H   0  0  0  0  0  0  0  0  0  0  0  0
  146.2884  136.3730  151.7496 H   0  0  0  0  0  0  0  0  0  0  0  0
  143.6249  135.8059  153.1372 H   0  0  0  0  0  0  0  0  0  0  0  0
  143.8268  136.6431  151.6006 H   0  0  0  0  0  0  0  0  0  0  0  0
  144.4482  137.3624  153.0808 H   0  0  0  0  0  0  0  0  0  0  0  0
  145.7333  134.7875  154.3007 H   0  0  0  0  0  0  0  0  0  0  0  0
  146.4879  136.3585  154.2068 H   0  0  0  0  0  0  0  0  0  0  0  0
  148.2237  135.3532  152.8682 H   0  0  0  0  0  0  0  0  0  0  0  0
  1  2  1  0  0  0  0
  1 21  1  0  0  0  0
  1 22  1  0  0  0  0
  1 23  1  0  0  0  0
  2 20  1  0  0  0  0
  2  3  2  0  0  0  0
  3  4  1  0  0  0  0
  3 24  1  0  0  0  0
  4  5  1  0  0  0  0
  4 19  2  0  0  0  0
  5  6  1  0  0  0  0
  6  7  2  0  0  0  0
  6  8  1  0  0  0  0
  8  9  1  0  0  0  0
  8 25  1  0  0  0  0
  9 10  1  0  0  0  0
  9 26  1  0  0  0  0
  9 27  1  0  0  0  0
 10 11  1  0  0  0  0
 10 12  1  0  0  0  0
 10 28  1  0  0  0  0
 11 29  1  0  0  0  0
 11 30  1  0  0  0  0
 11 31  1  0  0  0  0
 12 18  1  0  0  0  0
 12 13  1  0  0  0  0
 12 44  1  0  0  0  0
 13 14  1  0  0  0  0
 13 32  1  0  0  0  0
 13 33  1  0  0  0  0
 14 15  1  0  0  0  0
 14 34  1  0  0  0  0
 14 35  1  0  0  0  0
 15 16  1  0  0  0  0
 15 36  1  0  0  0  0
 15 37  1  0  0  0  0
 16 17  1  0  0  0  0
 16 18  1  0  0  0  0
 16 38  1  0  0  0  0
 17 39  1  0  0  0  0
 17 40  1  0  0  0  0
 17 41  1  0  0  0  0
 18 42  1  0  0  0  0
 18 43  1  0  0  0  0
 19 20  1  0  0  0  0
M  CHG  1   5  -1
M  CHG  1  12   1
M  END
> <s_m_source_file>
AV-unprocessed.smi

> <i_m_source_file_index>
2083

> <i_lp_mmshare_version>
43012

> <i_f3d_flags>
0

> <s_epik_input>
W0NIM11jMVtjSF1jKG5vMSlbTkhdQyg9TylbTkhdW0NIMl1bQ0BIXShbQ0gzXSlOMltDSDJdW0NIMl1bQ0gyXVtDQEBIXShbQ0gzXSlbQ0gyXTI=

> <s_epik_cmdline>
J2VwaWtfcHl0aG9uJywgJy1waCcsICc3LjAnLCAnLXRuJywgJzgnLCAnLW1hJywgJzIwMCcsICctbWV0YWxfYmluZGluZycsICctaW1hZScsICc8aW5maWxlLm1hZT4nLCAnLW9tYWUnLCAnPG91dGZpbGUubWFlPic=

> <r_epik_Ionization_Penalty>
6.22434

> <r_epik_Ionization_Penalty_Charging>
6.22425

> <r_epik_Ionization_Penalty_Neutral>
9.62407e-05

> <r_epik_State_Penalty>
6.22423

> <r_epik_Charging_Adjusted_Penalty>
12.4485

> <i_epik_Tot_Q>
0

> <i_epik_Tot_abs_Q>
2

> <r_epik_Metal_State_Penalty>
2.16764

> <b_epik_Metal_Only>
1

> <s_lp_Force_Field>
OPLS_2005

> <r_lp_Energy>
12.4443

> <b_lp_Chiralities_Consistent>
1

> <s_lp_Variant>
AV-unprocessed.smi:2083-9

> <Gold.Version>
5.8.1

> <Gold.Id.Protein>
6NUR|6NUR_protein|mol2

> <Gold.PLP.Fitness>
41.4099

> <Gold.PLP.PLP>
-31.3218

> <Gold.PLP.part.hbond>
-5.4467

> <Gold.PLP.part.metal>
0.0000

> <Gold.PLP.part.buried>
-2.8032

> <Gold.PLP.part.nonpolar>
-22.6572

> <Gold.PLP.part.repulsive>
0.0360

> <Gold.PLP.ligand.clash>
0.0000

> <Gold.PLP.ligand.torsion>
0.9871

> <Gold.PLP.Chemscore.Hbond>
4.0000

> <Gold.PLP.Chemscore.CHOScore>
0.0000

> <Gold.PLP.Chemscore.Metal>
0.0000

> <Gold.Chemscore.Hbonds>
donor molecule, donor type, donor heavy atom, donor atom, acceptor molecule, acceptor atom, score
      L1  H    12    44       P1  7948  1.85
      P1  H  6896  6909       L1     5  1.11

> <Gold.PLP.Chemscore.Internal.Correction>
0.0624

> <Gold.Rescore>
     Score         DG    S(hbond)    S(metal)    S(lipo)     H(rot)  DE(clash)    DE(int)     intcor
     14.42     -15.75       2.19        0.00      58.54       1.52       0.02       1.31       ----

> <Gold.Chemscore.Fitness>
14.4190

> <Gold.Chemscore.DG>
-15.7462

> <Gold.Chemscore.ZeroCoef>
-5.4800

> <Gold.Chemscore.Hbond>
2.1872

> <Gold.Chemscore.Metal>
0.0000

> <Gold.Chemscore.Lipo>
58.5449

> <Gold.Chemscore.Internal_Hbond>
0.0000

> <Gold.Chemscore.DEClash>
0.0174

> <Gold.Chemscore.DEInternal>
1.3098

> <Gold.Chemscore.Rot>
1.5190

> <Gold.Chemscore.Internal.Correction>
   9.000000E+99

> <Gold.Chemscore.Hbonds>
donor molecule, donor type, donor heavy atom, donor atom, acceptor molecule, acceptor atom, score
      L1  H    12    44       P1  7948  0.88
      P1  H  6896  6909       L1     5  0.16

> <Gold.Chemscore.Hbond.Weighted>
-7.3051

> <Gold.Chemscore.Metal.Weighted>
-0.0000

> <Gold.Chemscore.Lipo.Weighted>
-6.8498

> <Gold.Chemscore.Internal_Hbond.Weighted>
0.0000

> <Gold.Chemscore.DEClash.Weighted>
0.0174

> <Gold.Chemscore.DEInternal.Weighted>
1.3098

> <Gold.Chemscore.Rot.Weighted>
3.8886

> <Gold.Chemscore.Internal.Correction.Weighted>
   9.000000E+99

> <Gold.Protein.RotatedTorsions>
[ 6907 6896 6895 6894 ] final   39.61 input  -60.11 | X-H torsion
[ 7974 7965 7964 7962 ] final  122.96 input  175.53 | X-H torsion
[ 8008 7997 7996 7995 ] final -134.19 input   59.86 | X-H torsion
[ 10167 10162 10161 10158 ] final  -50.34 input  -65.29 | X-H torsion
[ 10718 10713 10712 10709 ] final  -90.81 input   66.30 | X-H torsion
[ 10763 10752 10751 10750 ] final  -18.11 input  -60.55 | X-H torsion
[ 11005 11000 10999 10996 ] final -117.01 input  -57.11 | X-H torsion

> <Gold.Protein.ActiveResidues>
 VAL166  LYS551  ARG553  GLY616  TRP617  ASP618  TYR619  PRO620  LYS621  CYS622 
 ASP623  PHE694  ASN695  SER759  ASP760  ASP761  ALA762  ILE779  LEU786  VAL792 
 PHE793  MET794  SER795  GLU796  ALA797  LYS798  CYS799  TRP800  GLU811  SER814 

> <Gold.Protein.RotatedAtoms>
  152.1718  134.8828  160.0533 H   0  0  0  0  0  0  0  0  0  0  0  0  # atno 6907 bound_to 6896
  151.9785  133.3744  159.4106 H   0  0  0  0  0  0  0  0  0  0  0  0  # atno 6908 bound_to 6896
  150.6903  134.3987  159.5153 H   0  0  0  0  0  0  0  0  0  0  0  0  # atno 6909 bound_to 6896
  145.1015  139.3516  143.4810 H   0  0  0  0  0  0  0  0  0  0  0  0  # atno 7974 bound_to 7965
  155.3580  140.0481  157.3046 H   0  0  0  0  0  0  0  0  0  0  0  0  # atno 8008 bound_to 7997
  154.5193  140.2219  155.8970 H   0  0  0  0  0  0  0  0  0  0  0  0  # atno 8009 bound_to 7997
  156.1671  140.3104  155.8914 H   0  0  0  0  0  0  0  0  0  0  0  0  # atno 8010 bound_to 7997
  140.6642  143.2662  151.4345 H   0  0  0  0  0  0  0  0  0  0  0  0  # atno 10167 bound_to 10162
  155.9990  130.4924  150.5379 H   0  0  0  0  0  0  0  0  0  0  0  0  # atno 10718 bound_to 10713
  153.5842  135.7004  153.5450 H   0  0  0  0  0  0  0  0  0  0  0  0  # atno 10763 bound_to 10752
  153.3234  135.4067  155.1435 H   0  0  0  0  0  0  0  0  0  0  0  0  # atno 10764 bound_to 10752
  154.8612  135.3701  154.5371 H   0  0  0  0  0  0  0  0  0  0  0  0  # atno 10765 bound_to 10752
  141.0383  133.9875  157.3035 H   0  0  0  0  0  0  0  0  0  0  0  0  # atno 11005 bound_to 11000
  146.3529  140.0894  142.8613 LP  0  0  0  0  0  0  0  0  0  0  0  0  # atno 17320 bound_to 7965
  145.0951  140.9309  143.4746 LP  0  0  0  0  0  0  0  0  0  0  0  0  # atno 17321 bound_to 7965
  139.5886  144.1550  152.2060 LP  0  0  0  0  0  0  0  0  0  0  0  0  # atno 17342 bound_to 10162
  140.0897  144.5631  150.7063 LP  0  0  0  0  0  0  0  0  0  0  0  0  # atno 17343 bound_to 10162
  157.3319  131.0701  151.1854 LP  0  0  0  0  0  0  0  0  0  0  0  0  # atno 17370 bound_to 10713
  157.2732  130.6714  149.6029 LP  0  0  0  0  0  0  0  0  0  0  0  0  # atno 17371 bound_to 10713
  139.9257  135.0201  156.8225 LP  0  0  0  0  0  0  0  0  0  0  0  0  # atno 17394 bound_to 11000
  140.6281  133.9931  155.7649 LP  0  0  0  0  0  0  0  0  0  0  0  0  # atno 17395 bound_to 11000

$$$$
