AV-unprocessed.smi:2021|AV-procd|sdf|8185|dock2
  -GOLD-   2272010443D 1   1.00000     0.00000
 Structure written by MMmdl.
 40 41  0  0  0  0  0  0  0  0  2 V2000
  153.0982  144.5370  158.4327 C   0  0  0  0  0  0  0  0  0  0  0  0
  151.8900  143.8929  157.7376 C   0  0  0  0  0  0  0  0  0  0  0  0
  150.5883  144.5917  158.1623 C   0  0  0  0  0  0  0  0  0  0  0  0
  151.8477  142.3772  158.0276 C   0  0  0  0  0  0  0  0  0  0  0  0
  150.9446  141.5902  157.1864 N   0  0  0  0  0  0  0  0  0  0  0  0
  151.3999  141.4946  155.8012 C   0  0  0  0  0  0  0  0  0  0  0  0
  150.4585  140.6296  154.9459 C   0  0  0  0  0  0  0  0  0  0  0  0
  150.3296  139.3411  155.5355 O   0  0  0  0  0  0  0  0  0  0  0  0
  149.8209  139.3894  156.8666 C   0  0  1  0  0  0  0  0  0  0  0  0
  149.7020  137.9517  157.4007 C   0  0  0  0  0  0  0  0  0  0  0  0
  148.8328  137.8779  158.5706 N   0  0  0  0  0  0  0  0  0  0  0  0
  148.9080  136.9633  159.5477 C   0  0  0  0  0  0  0  0  0  0  0  0
  149.7680  136.0808  159.4998 O   0  0  0  0  0  0  0  0  0  0  0  0
  147.9837  137.1290  160.5212 N   0  5  0  0  0  0  0  0  0  0  0  0
  147.6178  136.0863  161.2850 C   0  0  0  0  0  0  0  0  0  0  0  0
  147.0660  136.2425  162.4992 N   0  0  0  0  0  0  0  0  0  0  0  0
  146.7695  135.0381  163.1232 N   0  0  0  0  0  0  0  0  0  0  0  0
  147.1150  133.9993  162.3630 C   0  0  0  0  0  0  0  0  0  0  0  0
  147.8350  134.3974  160.8174 S   0  0  0  0  0  0  0  0  0  0  0  0
  150.7757  140.2436  157.7233 C   0  0  0  0  0  0  0  0  0  0  0  0
  153.0356  144.4315  159.5161 H   0  0  0  0  0  0  0  0  0  0  0  0
  153.1623  145.6014  158.2049 H   0  0  0  0  0  0  0  0  0  0  0  0
  154.0308  144.0754  158.1069 H   0  0  0  0  0  0  0  0  0  0  0  0
  152.0264  144.0522  156.6686 H   0  0  0  0  0  0  0  0  0  0  0  0
  150.4011  144.4674  159.2291 H   0  0  0  0  0  0  0  0  0  0  0  0
  149.7291  144.1902  157.6247 H   0  0  0  0  0  0  0  0  0  0  0  0
  150.6308  145.6610  157.9540 H   0  0  0  0  0  0  0  0  0  0  0  0
  152.8561  141.9681  157.9482 H   0  0  0  0  0  0  0  0  0  0  0  0
  151.5595  142.2482  159.0719 H   0  0  0  0  0  0  0  0  0  0  0  0
  151.4604  142.4845  155.3513 H   0  0  0  0  0  0  0  0  0  0  0  0
  152.4054  141.0724  155.7699 H   0  0  0  0  0  0  0  0  0  0  0  0
  149.4763  141.0967  154.8572 H   0  0  0  0  0  0  0  0  0  0  0  0
  150.8547  140.5220  153.9363 H   0  0  0  0  0  0  0  0  0  0  0  0
  148.8346  139.8570  156.8573 H   0  0  0  0  0  0  0  0  0  0  0  0
  149.2947  137.2983  156.6289 H   0  0  0  0  0  0  0  0  0  0  0  0
  150.6877  137.5560  157.6507 H   0  0  0  0  0  0  0  0  0  0  0  0
  148.1180  138.5857  158.6522 H   0  0  0  0  0  0  0  0  0  0  0  0
  146.9480  132.9925  162.7158 H   0  0  0  0  0  0  0  0  0  0  0  0
  151.7458  139.7480  157.7881 H   0  0  0  0  0  0  0  0  0  0  0  0
  150.3878  140.3011  158.7411 H   0  0  0  0  0  0  0  0  0  0  0  0
  1  2  1  0  0  0  0
  1 21  1  0  0  0  0
  1 22  1  0  0  0  0
  1 23  1  0  0  0  0
  2  3  1  0  0  0  0
  2  4  1  0  0  0  0
  2 24  1  0  0  0  0
  3 25  1  0  0  0  0
  3 26  1  0  0  0  0
  3 27  1  0  0  0  0
  4  5  1  0  0  0  0
  4 28  1  0  0  0  0
  4 29  1  0  0  0  0
  5 20  1  0  0  0  0
  5  6  1  0  0  0  0
  6  7  1  0  0  0  0
  6 30  1  0  0  0  0
  6 31  1  0  0  0  0
  7  8  1  0  0  0  0
  7 32  1  0  0  0  0
  7 33  1  0  0  0  0
  8  9  1  0  0  0  0
  9 10  1  0  0  0  0
  9 20  1  0  0  0  0
  9 34  1  0  0  0  0
 10 11  1  0  0  0  0
 10 35  1  0  0  0  0
 10 36  1  0  0  0  0
 11 12  1  0  0  0  0
 11 37  1  0  0  0  0
 12 13  2  0  0  0  0
 12 14  1  0  0  0  0
 14 15  1  0  0  0  0
 15 19  1  0  0  0  0
 15 16  2  0  0  0  0
 16 17  1  0  0  0  0
 17 18  2  0  0  0  0
 18 19  1  0  0  0  0
 18 38  1  0  0  0  0
 20 39  1  0  0  0  0
 20 40  1  0  0  0  0
M  CHG  1  14  -1
M  END
> <s_m_source_file>
AV-unprocessed.smi

> <i_m_source_file_index>
2021

> <i_lp_mmshare_version>
43012

> <i_f3d_flags>
0

> <s_epik_input>
W0NIM11bQ0hdKFtDSDNdKVtDSDJdTjFbQ0gyXVtDSDJdT1tDQEhdKFtDSDJdMSlbQ0gyXVtOSF1DKD1PKVtOSF1jMm5uW2NIXXMy

> <s_epik_cmdline>
J2VwaWtfcHl0aG9uJywgJy1waCcsICc3LjAnLCAnLXRuJywgJzgnLCAnLW1hJywgJzIwMCcsICctbWV0YWxfYmluZGluZycsICctaW1hZScsICc8aW5maWxlLm1hZT4nLCAnLW9tYWUnLCAnPG91dGZpbGUubWFlPic=

> <r_lp_tautomer_probability>
1

> <r_epik_Ionization_Penalty>
4.44864

> <r_epik_Ionization_Penalty_Charging>
3.27383

> <r_epik_Ionization_Penalty_Neutral>
1.17482

> <r_epik_State_Penalty>
4.44168

> <r_epik_Charging_Adjusted_Penalty>
7.7155

> <i_epik_Tot_Q>
-1

> <i_epik_Tot_abs_Q>
1

> <r_epik_Metal_State_Penalty>
1.66628

> <b_epik_Metal_Only>
1

> <s_lp_Force_Field>
OPLS_2005

> <r_lp_Energy>
21.1827

> <b_lp_Chiralities_Consistent>
1

> <s_lp_Variant>
AV-unprocessed.smi:2021-11

> <Gold.Version>
5.8.1

> <Gold.Id.Protein>
6NUR|6NUR_protein|mol2

> <Gold.PLP.Fitness>
47.1911

> <Gold.PLP.PLP>
-35.3462

> <Gold.PLP.part.hbond>
-4.1250

> <Gold.PLP.part.metal>
0.0000

> <Gold.PLP.part.buried>
-6.2822

> <Gold.PLP.part.nonpolar>
-26.1093

> <Gold.PLP.part.repulsive>
0.4456

> <Gold.PLP.ligand.clash>
0.0000

> <Gold.PLP.ligand.torsion>
0.6779

> <Gold.PLP.Chemscore.Hbond>
4.3208

> <Gold.PLP.Chemscore.CHOScore>
0.0000

> <Gold.PLP.Chemscore.Metal>
0.0000

> <Gold.Chemscore.Hbonds>
donor molecule, donor type, donor heavy atom, donor atom, acceptor molecule, acceptor atom, score
      P1  H  6896  6907       L1    13  0.91
      P1  H  6931  6943       L1    14  1.48
      P1  H  6934  6947       L1    14  1.32

> <Gold.PLP.Chemscore.Internal.Correction>
0.2383

> <Gold.Rescore>
     Score         DG    S(hbond)    S(metal)    S(lipo)     H(rot)  DE(clash)    DE(int)     intcor
     14.69     -16.63       1.79        0.00      83.69       1.81       0.20       1.74       ----

> <Gold.Chemscore.Fitness>
14.6939

> <Gold.Chemscore.DG>
-16.6298

> <Gold.Chemscore.ZeroCoef>
-5.4800

> <Gold.Chemscore.Hbond>
1.7904

> <Gold.Chemscore.Metal>
0.0000

> <Gold.Chemscore.Lipo>
83.6948

> <Gold.Chemscore.Internal_Hbond>
0.0000

> <Gold.Chemscore.DEClash>
0.1995

> <Gold.Chemscore.DEInternal>
1.7364

> <Gold.Chemscore.Rot>
1.8056

> <Gold.Chemscore.Internal.Correction>
   9.000000E+99

> <Gold.Chemscore.Hbonds>
donor molecule, donor type, donor heavy atom, donor atom, acceptor molecule, acceptor atom, score
      P1  H  6896  6907       L1    13  0.90
      P1  H  6931  6943       L1    14  0.06
      P1  H  6934  6947       L1    14  0.62

> <Gold.Chemscore.Hbond.Weighted>
-5.9799

> <Gold.Chemscore.Metal.Weighted>
-0.0000

> <Gold.Chemscore.Lipo.Weighted>
-9.7923

> <Gold.Chemscore.Internal_Hbond.Weighted>
0.0000

> <Gold.Chemscore.DEClash.Weighted>
0.1995

> <Gold.Chemscore.DEInternal.Weighted>
1.7364

> <Gold.Chemscore.Rot.Weighted>
4.6224

> <Gold.Chemscore.Internal.Correction.Weighted>
   9.000000E+99

> <Gold.Protein.RotatedTorsions>
[ 6907 6896 6895 6894 ] final  -70.10 input  -60.11 | X-H torsion
[ 7974 7965 7964 7962 ] final -153.70 input  175.53 | X-H torsion
[ 8008 7997 7996 7995 ] final  116.48 input   59.86 | X-H torsion
[ 10167 10162 10161 10158 ] final  126.22 input  -65.29 | X-H torsion
[ 10718 10713 10712 10709 ] final  133.64 input   66.30 | X-H torsion
[ 10763 10752 10751 10750 ] final -167.47 input  -60.55 | X-H torsion
[ 11005 11000 10999 10996 ] final  120.16 input  -57.11 | X-H torsion

> <Gold.Protein.ActiveResidues>
 VAL166  LYS551  ARG553  GLY616  TRP617  ASP618  TYR619  PRO620  LYS621  CYS622 
 ASP623  PHE694  ASN695  SER759  ASP760  ASP761  ALA762  ILE779  LEU786  VAL792 
 PHE793  MET794  SER795  GLU796  ALA797  LYS798  CYS799  TRP800  GLU811  SER814 

> <Gold.Protein.RotatedAtoms>
  150.7273  134.5501  159.5790 H   0  0  0  0  0  0  0  0  0  0  0  0  # atno 6907 bound_to 6896
  152.2991  134.7630  160.0371 H   0  0  0  0  0  0  0  0  0  0  0  0  # atno 6908 bound_to 6896
  151.8217  133.3360  159.3623 H   0  0  0  0  0  0  0  0  0  0  0  0  # atno 6909 bound_to 6896
  144.7727  140.4490  143.5895 H   0  0  0  0  0  0  0  0  0  0  0  0  # atno 7974 bound_to 7965
  156.2441  140.2916  156.0530 H   0  0  0  0  0  0  0  0  0  0  0  0  # atno 8008 bound_to 7997
  155.1860  140.0405  157.2908 H   0  0  0  0  0  0  0  0  0  0  0  0  # atno 8009 bound_to 7997
  154.6227  140.2480  155.7537 H   0  0  0  0  0  0  0  0  0  0  0  0  # atno 8010 bound_to 7997
  139.5643  144.6901  151.3955 H   0  0  0  0  0  0  0  0  0  0  0  0  # atno 10167 bound_to 10162
  157.4753  131.1082  150.9751 H   0  0  0  0  0  0  0  0  0  0  0  0  # atno 10718 bound_to 10713
  154.6728  135.2942  154.9719 H   0  0  0  0  0  0  0  0  0  0  0  0  # atno 10763 bound_to 10752
  154.0740  135.6614  153.4832 H   0  0  0  0  0  0  0  0  0  0  0  0  # atno 10764 bound_to 10752
  153.0497  135.5181  154.7732 H   0  0  0  0  0  0  0  0  0  0  0  0  # atno 10765 bound_to 10752
  139.9174  134.9633  156.7765 H   0  0  0  0  0  0  0  0  0  0  0  0  # atno 11005 bound_to 11000
  145.6276  139.1532  143.2987 LP  0  0  0  0  0  0  0  0  0  0  0  0  # atno 17320 bound_to 7965
  146.1885  140.6382  142.9156 LP  0  0  0  0  0  0  0  0  0  0  0  0  # atno 17321 bound_to 7965
  140.6925  143.7827  150.7277 LP  0  0  0  0  0  0  0  0  0  0  0  0  # atno 17342 bound_to 10162
  140.1314  143.4522  152.2252 LP  0  0  0  0  0  0  0  0  0  0  0  0  # atno 17343 bound_to 10162
  157.0503  130.5784  149.5369 LP  0  0  0  0  0  0  0  0  0  0  0  0  # atno 17370 bound_to 10713
  156.0093  130.5184  150.7937 LP  0  0  0  0  0  0  0  0  0  0  0  0  # atno 17371 bound_to 10713
  140.6579  133.9672  155.7789 LP  0  0  0  0  0  0  0  0  0  0  0  0  # atno 17394 bound_to 11000
  141.0664  134.0271  157.3588 LP  0  0  0  0  0  0  0  0  0  0  0  0  # atno 17395 bound_to 11000

$$$$
