AV-unprocessed.smi:1944|AV-procd|sdf|7855|dock2
  -GOLD-   2272010 03D 1   1.00000     0.00000
 Structure written by MMmdl.
 46 47  0  0  0  0  0  0  0  0  2 V2000
  151.6879  138.1986  154.5431 C   0  0  0  0  0  0  0  0  0  0  0  0
  150.3674  138.2963  154.0200 O   0  0  0  0  0  0  0  0  0  0  0  0
  149.6776  139.4819  154.1881 C   0  0  0  0  0  0  0  0  0  0  0  0
  150.2618  140.4711  154.9101 N   0  0  0  0  0  0  0  0  0  0  0  0
  149.5922  141.6306  155.0720 C   0  0  0  0  0  0  0  0  0  0  0  0
  148.3189  141.8676  154.5228 C   0  0  0  0  0  0  0  0  0  0  0  0
  147.7106  140.8434  153.7739 C   0  0  0  0  0  0  0  0  0  0  0  0
  148.3943  139.6144  153.6075 C   0  0  0  0  0  0  0  0  0  0  0  0
  147.8801  138.5227  152.8541 N   0  0  0  0  0  0  0  0  0  0  0  0
  146.8850  138.5238  151.9513 C   0  0  0  0  0  0  0  0  0  0  0  0
  146.2149  139.5046  151.6285 O   0  0  0  0  0  0  0  0  0  0  0  0
  146.6840  137.2981  151.4468 N   0  0  0  0  0  0  0  0  0  0  0  0
  145.6724  136.9630  150.4512 C   0  0  0  0  0  0  0  0  0  0  0  0
  144.7546  135.8247  150.9401 C   0  0  0  0  0  0  0  0  0  0  0  0
  145.0973  134.4970  150.3622 N   0  3  2  0  0  0  0  0  0  0  0  0
  143.9511  133.5498  150.4299 C   0  0  0  0  0  0  0  0  0  0  0  0
  144.2366  132.2630  149.6398 C   0  0  0  0  0  0  0  0  0  0  0  0
  145.5262  131.5934  150.1257 C   0  0  0  0  0  0  0  0  0  0  0  0
  146.6880  132.5940  150.0604 C   0  0  0  0  0  0  0  0  0  0  0  0
  146.3838  133.8941  150.8355 C   0  0  2  0  0  0  0  0  0  0  0  0
  146.4464  133.6893  152.3644 C   0  0  0  0  0  0  0  0  0  0  0  0
  152.0844  137.2044  154.3377 H   0  0  0  0  0  0  0  0  0  0  0  0
  151.7009  138.3425  155.6246 H   0  0  0  0  0  0  0  0  0  0  0  0
  152.3561  138.9241  154.0769 H   0  0  0  0  0  0  0  0  0  0  0  0
  150.0892  142.3949  155.6509 H   0  0  0  0  0  0  0  0  0  0  0  0
  147.8221  142.8156  154.6676 H   0  0  0  0  0  0  0  0  0  0  0  0
  146.7436  141.0269  153.3321 H   0  0  0  0  0  0  0  0  0  0  0  0
  148.2779  137.6222  153.0787 H   0  0  0  0  0  0  0  0  0  0  0  0
  147.2773  136.5468  151.7684 H   0  0  0  0  0  0  0  0  0  0  0  0
  145.0873  137.8493  150.1991 H   0  0  0  0  0  0  0  0  0  0  0  0
  146.2057  136.6702  149.5474 H   0  0  0  0  0  0  0  0  0  0  0  0
  144.7491  135.7753  152.0292 H   0  0  0  0  0  0  0  0  0  0  0  0
  143.7305  136.0615  150.6485 H   0  0  0  0  0  0  0  0  0  0  0  0
  143.7199  133.3149  151.4694 H   0  0  0  0  0  0  0  0  0  0  0  0
  143.0605  134.0235  150.0149 H   0  0  0  0  0  0  0  0  0  0  0  0
  143.3984  131.5723  149.7371 H   0  0  0  0  0  0  0  0  0  0  0  0
  144.3230  132.4969  148.5776 H   0  0  0  0  0  0  0  0  0  0  0  0
  145.3969  131.2318  151.1462 H   0  0  0  0  0  0  0  0  0  0  0  0
  145.7491  130.7192  149.5132 H   0  0  0  0  0  0  0  0  0  0  0  0
  147.6013  132.1318  150.4372 H   0  0  0  0  0  0  0  0  0  0  0  0
  146.8845  132.8388  149.0154 H   0  0  0  0  0  0  0  0  0  0  0  0
  147.1875  134.5821  150.5758 H   0  0  0  0  0  0  0  0  0  0  0  0
  147.3915  133.2273  152.6516 H   0  0  0  0  0  0  0  0  0  0  0  0
  145.6477  133.0450  152.7304 H   0  0  0  0  0  0  0  0  0  0  0  0
  146.3854  134.6348  152.9026 H   0  0  0  0  0  0  0  0  0  0  0  0
  145.2331  134.6683  149.3758 H   0  0  0  0  0  0  0  0  0  0  0  0
  1  2  1  0  0  0  0
  1 22  1  0  0  0  0
  1 23  1  0  0  0  0
  1 24  1  0  0  0  0
  2  3  1  0  0  0  0
  3  8  1  0  0  0  0
  3  4  2  0  0  0  0
  4  5  1  0  0  0  0
  5  6  2  0  0  0  0
  5 25  1  0  0  0  0
  6  7  1  0  0  0  0
  6 26  1  0  0  0  0
  7  8  2  0  0  0  0
  7 27  1  0  0  0  0
  8  9  1  0  0  0  0
  9 10  1  0  0  0  0
  9 28  1  0  0  0  0
 10 11  2  0  0  0  0
 10 12  1  0  0  0  0
 12 13  1  0  0  0  0
 12 29  1  0  0  0  0
 13 14  1  0  0  0  0
 13 30  1  0  0  0  0
 13 31  1  0  0  0  0
 14 15  1  0  0  0  0
 14 32  1  0  0  0  0
 14 33  1  0  0  0  0
 15 20  1  0  0  0  0
 15 16  1  0  0  0  0
 15 46  1  0  0  0  0
 16 17  1  0  0  0  0
 16 34  1  0  0  0  0
 16 35  1  0  0  0  0
 17 18  1  0  0  0  0
 17 36  1  0  0  0  0
 17 37  1  0  0  0  0
 18 19  1  0  0  0  0
 18 38  1  0  0  0  0
 18 39  1  0  0  0  0
 19 20  1  0  0  0  0
 19 40  1  0  0  0  0
 19 41  1  0  0  0  0
 20 21  1  0  0  0  0
 20 42  1  0  0  0  0
 21 43  1  0  0  0  0
 21 44  1  0  0  0  0
 21 45  1  0  0  0  0
M  CHG  1  15   1
M  END
> <s_m_source_file>
AV-unprocessed.smi

> <i_m_source_file_index>
1944

> <i_lp_mmshare_version>
43012

> <i_f3d_flags>
0

> <s_epik_input>
W0NIM11PYzFuW2NIXVtjSF1bY0hdYzFbTkhdQyg9TylbTkhdW0NIMl1bQ0gyXU4yW0NIMl1bQ0gyXVtDSDJdW0NIMl1bQ0BIXTJbQ0gzXQ==

> <s_epik_cmdline>
J2VwaWtfcHl0aG9uJywgJy1waCcsICc3LjAnLCAnLXRuJywgJzgnLCAnLW1hJywgJzIwMCcsICctbWV0YWxfYmluZGluZycsICctaW1hZScsICc8aW5maWxlLm1hZT4nLCAnLW9tYWUnLCAnPG91dGZpbGUubWFlPic=

> <r_lp_tautomer_probability>
1

> <r_epik_Ionization_Penalty>
0.00219525

> <r_epik_Ionization_Penalty_Charging>
0.00211816

> <r_epik_Ionization_Penalty_Neutral>
7.7088e-05

> <r_epik_State_Penalty>
0.00145254

> <r_epik_Charging_Adjusted_Penalty>
0.0035707

> <i_epik_Tot_Q>
1

> <i_epik_Tot_abs_Q>
1

> <r_epik_Metal_State_Penalty>
-0

> <b_epik_Metal_Only>
0

> <s_lp_Force_Field>
OPLS_2005

> <r_lp_Energy>
23.2027

> <b_lp_Chiralities_Consistent>
1

> <s_lp_Variant>
AV-unprocessed.smi:1944-3

> <Gold.Version>
5.8.1

> <Gold.Id.Protein>
6NUR|6NUR_protein|mol2

> <Gold.PLP.Fitness>
46.3895

> <Gold.PLP.PLP>
-36.5726

> <Gold.PLP.part.hbond>
-4.6420

> <Gold.PLP.part.metal>
0.0000

> <Gold.PLP.part.buried>
8.0560

> <Gold.PLP.part.nonpolar>
-43.2290

> <Gold.PLP.part.repulsive>
2.7433

> <Gold.PLP.ligand.clash>
0.0000

> <Gold.PLP.ligand.torsion>
0.5098

> <Gold.PLP.Chemscore.Hbond>
2.8616

> <Gold.PLP.Chemscore.CHOScore>
0.7205

> <Gold.PLP.Chemscore.Metal>
0.0000

> <Gold.Chemscore.Hbonds>
donor molecule, donor type, donor heavy atom, donor atom, acceptor molecule, acceptor atom, score
      L1  H     9    28       P1  7948  0.56
      L1  H    12    29       P1  7948  0.74
      L1  H    15    46       P1  7921  1.00
      P1  H  7989  7998       L1     4  0.69
      L1  C     5    25       P1  8028  0.55

> <Gold.PLP.Chemscore.Internal.Correction>
0.0901

> <Gold.Rescore>
     Score         DG    S(hbond)    S(metal)    S(lipo)     H(rot)  DE(clash)    DE(int)     intcor
     13.21     -20.87       2.05        0.00     110.28       1.71       5.82       1.83       ----

> <Gold.Chemscore.Fitness>
13.2114

> <Gold.Chemscore.DG>
-20.8672

> <Gold.Chemscore.ZeroCoef>
-5.4800

> <Gold.Chemscore.Hbond>
2.0550

> <Gold.Chemscore.Metal>
0.0000

> <Gold.Chemscore.Lipo>
110.2825

> <Gold.Chemscore.Internal_Hbond>
0.0000

> <Gold.Chemscore.DEClash>
5.8218

> <Gold.Chemscore.DEInternal>
1.8340

> <Gold.Chemscore.Rot>
1.7107

> <Gold.Chemscore.Internal.Correction>
   9.000000E+99

> <Gold.Chemscore.Hbonds>
donor molecule, donor type, donor heavy atom, donor atom, acceptor molecule, acceptor atom, score
      L1  H     9    28       P1  7948  0.55
      L1  H    12    29       P1  7948  0.72
      L1  H    15    46       P1  7921  0.98
      P1  H  7989  7998       L1     4  0.03

> <Gold.Chemscore.Hbond.Weighted>
-6.8635

> <Gold.Chemscore.Metal.Weighted>
-0.0000

> <Gold.Chemscore.Lipo.Weighted>
-12.9031

> <Gold.Chemscore.Internal_Hbond.Weighted>
0.0000

> <Gold.Chemscore.DEClash.Weighted>
5.8218

> <Gold.Chemscore.DEInternal.Weighted>
1.8340

> <Gold.Chemscore.Rot.Weighted>
4.3794

> <Gold.Chemscore.Internal.Correction.Weighted>
   9.000000E+99

> <Gold.Protein.RotatedTorsions>
[ 6907 6896 6895 6894 ] final  -78.45 input  -60.11 | X-H torsion
[ 7974 7965 7964 7962 ] final -136.59 input  175.53 | X-H torsion
[ 8008 7997 7996 7995 ] final  -15.04 input   59.86 | X-H torsion
[ 10167 10162 10161 10158 ] final   62.48 input  -65.29 | X-H torsion
[ 10718 10713 10712 10709 ] final -128.60 input   66.30 | X-H torsion
[ 10763 10752 10751 10750 ] final -168.49 input  -60.55 | X-H torsion
[ 11005 11000 10999 10996 ] final   72.44 input  -57.11 | X-H torsion

> <Gold.Protein.ActiveResidues>
 VAL166  LYS551  ARG553  GLY616  TRP617  ASP618  TYR619  PRO620  LYS621  CYS622 
 ASP623  PHE694  ASN695  SER759  ASP760  ASP761  ALA762  ILE779  LEU786  VAL792 
 PHE793  MET794  SER795  GLU796  ALA797  LYS798  CYS799  TRP800  GLU811  SER814 

> <Gold.Protein.RotatedAtoms>
  150.6972  134.4270  159.5230 H   0  0  0  0  0  0  0  0  0  0  0  0  # atno 6907 bound_to 6896
  152.2003  134.8591  160.0517 H   0  0  0  0  0  0  0  0  0  0  0  0  # atno 6908 bound_to 6896
  151.9513  133.3632  159.4038 H   0  0  0  0  0  0  0  0  0  0  0  0  # atno 6909 bound_to 6896
  144.8914  140.6647  143.5143 H   0  0  0  0  0  0  0  0  0  0  0  0  # atno 7974 bound_to 7965
  154.5162  140.2207  155.9062 H   0  0  0  0  0  0  0  0  0  0  0  0  # atno 8008 bound_to 7997
  156.1610  140.3142  155.8773 H   0  0  0  0  0  0  0  0  0  0  0  0  # atno 8009 bound_to 7997
  155.3751  140.0469  157.3035 H   0  0  0  0  0  0  0  0  0  0  0  0  # atno 8010 bound_to 7997
  140.1434  144.4531  150.6798 H   0  0  0  0  0  0  0  0  0  0  0  0  # atno 10167 bound_to 10162
  156.1966  130.6830  151.0489 H   0  0  0  0  0  0  0  0  0  0  0  0  # atno 10718 bound_to 10713
  154.6623  135.2927  154.9851 H   0  0  0  0  0  0  0  0  0  0  0  0  # atno 10763 bound_to 10752
  154.0906  135.6591  153.4856 H   0  0  0  0  0  0  0  0  0  0  0  0  # atno 10764 bound_to 10752
  153.0437  135.5219  154.7579 H   0  0  0  0  0  0  0  0  0  0  0  0  # atno 10765 bound_to 10752
  139.9491  134.7260  156.0907 H   0  0  0  0  0  0  0  0  0  0  0  0  # atno 11005 bound_to 11000
  145.3777  139.1644  143.4298 LP  0  0  0  0  0  0  0  0  0  0  0  0  # atno 17320 bound_to 7965
  146.3056  140.3854  142.8688 LP  0  0  0  0  0  0  0  0  0  0  0  0  # atno 17321 bound_to 7965
  140.6746  143.2300  151.5539 LP  0  0  0  0  0  0  0  0  0  0  0  0  # atno 17342 bound_to 10162
  139.5461  144.2518  152.1444 LP  0  0  0  0  0  0  0  0  0  0  0  0  # atno 17343 bound_to 10162
  157.6961  131.0793  150.6963 LP  0  0  0  0  0  0  0  0  0  0  0  0  # atno 17370 bound_to 10713
  156.7020  130.4626  149.5570 LP  0  0  0  0  0  0  0  0  0  0  0  0  # atno 17371 bound_to 10713
  141.1149  133.6631  156.3069 LP  0  0  0  0  0  0  0  0  0  0  0  0  # atno 17394 bound_to 11000
  140.5763  134.5790  157.5469 LP  0  0  0  0  0  0  0  0  0  0  0  0  # atno 17395 bound_to 11000

$$$$
