AV-unprocessed.smi:610|AV-procd|sdf|3059|dock3
  -GOLD-   2262023583D 1   1.00000     0.00000
 Structure written by MMmdl.
 37 38  0  0  0  0  0  0  0  0  1 V2000
  152.0382  140.5260  158.0363 C   0  0  0  0  0  0  0  0  0  0  0  0
  151.0825  141.4324  157.2457 C   0  0  2  0  0  0  0  0  0  0  0  0
  150.2216  142.3014  158.1818 C   0  0  0  0  0  0  0  0  0  0  0  0
  151.0061  143.3088  158.8720 N   0  0  0  0  0  0  0  0  0  0  0  0
  150.8435  144.6869  158.8112 C   0  0  0  0  0  0  0  0  0  0  0  0
  151.8140  145.2328  159.6207 C   0  0  0  0  0  0  0  0  0  0  0  0
  152.5792  144.2158  160.1867 N   0  0  0  0  0  0  0  0  0  0  0  0
  152.0416  143.1057  159.6979 C   0  0  0  0  0  0  0  0  0  0  0  0
  150.2213  140.6193  156.3903 N   0  0  0  0  0  0  0  0  0  0  0  0
  150.6175  139.9059  155.3221 C   0  0  0  0  0  0  0  0  0  0  0  0
  151.7971  139.8471  154.9723 O   0  0  0  0  0  0  0  0  0  0  0  0
  149.5385  139.1334  154.5201 C   0  0  0  0  0  0  0  0  0  0  0  0
  150.1128  138.3971  153.4003 N   0  0  0  0  0  0  0  0  0  0  0  0
  148.7578  138.1391  155.4233 C   0  0  0  0  0  0  0  0  0  0  0  0
  147.2870  138.5743  155.4062 C   0  0  0  0  0  0  0  0  0  0  0  0
  147.3056  140.0363  154.9733 C   0  0  0  0  0  0  0  0  0  0  0  0
  148.4645  140.1070  153.9802 C   0  0  0  0  0  0  0  0  0  0  0  0
  152.7006  141.1152  158.6707 H   0  0  0  0  0  0  0  0  0  0  0  0
  152.6655  139.9348  157.3683 H   0  0  0  0  0  0  0  0  0  0  0  0
  151.4906  139.8350  158.6779 H   0  0  0  0  0  0  0  0  0  0  0  0
  151.6845  142.0997  156.6257 H   0  0  0  0  0  0  0  0  0  0  0  0
  149.4239  142.7964  157.6256 H   0  0  0  0  0  0  0  0  0  0  0  0
  149.7375  141.6779  158.9348 H   0  0  0  0  0  0  0  0  0  0  0  0
  150.0745  145.1518  158.2119 H   0  0  0  0  0  0  0  0  0  0  0  0
  152.0190  146.2710  159.8373 H   0  0  0  0  0  0  0  0  0  0  0  0
  152.4118  142.1210  159.9436 H   0  0  0  0  0  0  0  0  0  0  0  0
  149.2370  140.6042  156.6165 H   0  0  0  0  0  0  0  0  0  0  0  0
  149.4643  137.6794  153.1102 H   0  0  0  0  0  0  0  0  0  0  0  0
  150.2140  139.0201  152.6120 H   0  0  0  0  0  0  0  0  0  0  0  0
  148.8495  137.1027  155.0945 H   0  0  0  0  0  0  0  0  0  0  0  0
  149.1239  138.1564  156.4513 H   0  0  0  0  0  0  0  0  0  0  0  0
  146.7422  137.9856  154.6672 H   0  0  0  0  0  0  0  0  0  0  0  0
  146.7967  138.4303  156.3696 H   0  0  0  0  0  0  0  0  0  0  0  0
  146.3592  140.3582  154.5383 H   0  0  0  0  0  0  0  0  0  0  0  0
  147.5118  140.6751  155.8331 H   0  0  0  0  0  0  0  0  0  0  0  0
  148.8277  141.1293  153.8619 H   0  0  0  0  0  0  0  0  0  0  0  0
  148.1062  139.7882  152.9996 H   0  0  0  0  0  0  0  0  0  0  0  0
  1  2  1  0  0  0  0
  1 18  1  0  0  0  0
  1 19  1  0  0  0  0
  1 20  1  0  0  0  0
  2  3  1  0  0  0  0
  2  9  1  0  0  0  0
  2 21  1  0  0  0  0
  3  4  1  0  0  0  0
  3 22  1  0  0  0  0
  3 23  1  0  0  0  0
  4  8  1  0  0  0  0
  4  5  1  0  0  0  0
  5  6  2  0  0  0  0
  5 24  1  0  0  0  0
  6  7  1  0  0  0  0
  6 25  1  0  0  0  0
  7  8  2  0  0  0  0
  8 26  1  0  0  0  0
  9 10  1  0  0  0  0
  9 27  1  0  0  0  0
 10 11  2  0  0  0  0
 10 12  1  0  0  0  0
 12 17  1  0  0  0  0
 12 13  1  0  0  0  0
 12 14  1  0  0  0  0
 13 28  1  0  0  0  0
 13 29  1  0  0  0  0
 14 15  1  0  0  0  0
 14 30  1  0  0  0  0
 14 31  1  0  0  0  0
 15 16  1  0  0  0  0
 15 32  1  0  0  0  0
 15 33  1  0  0  0  0
 16 17  1  0  0  0  0
 16 34  1  0  0  0  0
 16 35  1  0  0  0  0
 17 36  1  0  0  0  0
 17 37  1  0  0  0  0
M  END
> <s_m_source_file>
AV-unprocessed.smi

> <i_m_source_file_index>
610

> <i_lp_mmshare_version>
43012

> <i_f3d_flags>
0

> <s_epik_input>
W2NIXTFuW2NIXVtjSF1uMVtDSDJdW0NAQEhdKFtDSDNdKVtOSF1DKD1PKUMyKFtOSDJdKVtDSDJdW0NIMl1bQ0gyXVtDSDJdMg==

> <s_epik_cmdline>
J2VwaWtfcHl0aG9uJywgJy1waCcsICc3LjAnLCAnLXRuJywgJzgnLCAnLW1hJywgJzIwMCcsICctbWV0YWxfYmluZGluZycsICctaW1hZScsICc8aW5maWxlLm1hZT4nLCAnLW9tYWUnLCAnPG91dGZpbGUubWFlPic=

> <r_lp_tautomer_probability>
1

> <r_epik_Ionization_Penalty>
1.91974

> <r_epik_Ionization_Penalty_Charging>
0.644069

> <r_epik_Ionization_Penalty_Neutral>
1.27567

> <r_epik_State_Penalty>
1.9806

> <r_epik_Charging_Adjusted_Penalty>
2.62467

> <i_epik_Tot_Q>
0

> <i_epik_Tot_abs_Q>
0

> <r_epik_Metal_State_Penalty>
1.61835

> <b_epik_Metal_Only>
0

> <s_lp_Force_Field>
OPLS_2005

> <r_lp_Energy>
21.9363

> <b_lp_Chiralities_Consistent>
1

> <s_lp_Variant>
AV-unprocessed.smi:610-7

> <Gold.Version>
5.8.1

> <Gold.Id.Protein>
6NUR|6NUR_protein|mol2

> <Gold.PLP.Fitness>
41.9841

> <Gold.PLP.PLP>
-30.2037

> <Gold.PLP.part.hbond>
-3.2390

> <Gold.PLP.part.metal>
0.0000

> <Gold.PLP.part.buried>
-3.1833

> <Gold.PLP.part.nonpolar>
-24.3843

> <Gold.PLP.part.repulsive>
0.1251

> <Gold.PLP.ligand.clash>
0.0000

> <Gold.PLP.ligand.torsion>
0.1423

> <Gold.PLP.Chemscore.Hbond>
2.9520

> <Gold.PLP.Chemscore.CHOScore>
1.0539

> <Gold.PLP.Chemscore.Metal>
0.0000

> <Gold.Chemscore.Hbonds>
donor molecule, donor type, donor heavy atom, donor atom, acceptor molecule, acceptor atom, score
      L1  H    13    28       P1  7948  0.96
      L1  H    13    29       P1  7957  1.00
      P1  H  7989  7998       L1    11  0.89
      L1  C     5    24       P1  8028  0.08
      L1  C     5    24       P1  8029  0.95

> <Gold.PLP.Chemscore.Internal.Correction>
0.0473

> <Gold.Rescore>
     Score         DG    S(hbond)    S(metal)    S(lipo)     H(rot)  DE(clash)    DE(int)     intcor
     15.14     -15.34       2.46        0.00      56.81       1.95       0.04       0.17       ----

> <Gold.Chemscore.Fitness>
15.1354

> <Gold.Chemscore.DG>
-15.3422

> <Gold.Chemscore.ZeroCoef>
-5.4800

> <Gold.Chemscore.Hbond>
2.4559

> <Gold.Chemscore.Metal>
0.0000

> <Gold.Chemscore.Lipo>
56.8055

> <Gold.Chemscore.Internal_Hbond>
0.0000

> <Gold.Chemscore.DEClash>
0.0354

> <Gold.Chemscore.DEInternal>
0.1715

> <Gold.Chemscore.Rot>
1.9480

> <Gold.Chemscore.Internal.Correction>
   9.000000E+99

> <Gold.Chemscore.Hbonds>
donor molecule, donor type, donor heavy atom, donor atom, acceptor molecule, acceptor atom, score
      L1  H    13    28       P1  7948  0.83
      L1  H    13    29       P1  7957  0.49
      P1  H  7989  7998       L1    11  0.17

> <Gold.Chemscore.Hbond.Weighted>
-8.2028

> <Gold.Chemscore.Metal.Weighted>
-0.0000

> <Gold.Chemscore.Lipo.Weighted>
-6.6462

> <Gold.Chemscore.Internal_Hbond.Weighted>
0.0000

> <Gold.Chemscore.DEClash.Weighted>
0.0354

> <Gold.Chemscore.DEInternal.Weighted>
0.1715

> <Gold.Chemscore.Rot.Weighted>
4.9869

> <Gold.Chemscore.Internal.Correction.Weighted>
   9.000000E+99

> <Gold.Protein.RotatedTorsions>
[ 6907 6896 6895 6894 ] final   61.89 input  -60.11 | X-H torsion
[ 7974 7965 7964 7962 ] final -176.03 input  175.53 | X-H torsion
[ 8008 7997 7996 7995 ] final   41.37 input   59.86 | X-H torsion
[ 10167 10162 10161 10158 ] final  -16.29 input  -65.29 | X-H torsion
[ 10718 10713 10712 10709 ] final  179.94 input   66.30 | X-H torsion
[ 10763 10752 10751 10750 ] final  -86.01 input  -60.55 | X-H torsion
[ 11005 11000 10999 10996 ] final  109.58 input  -57.11 | X-H torsion

> <Gold.Protein.ActiveResidues>
 VAL166  LYS551  ARG553  GLY616  TRP617  ASP618  TYR619  PRO620  LYS621  CYS622 
 ASP623  PHE694  ASN695  SER759  ASP760  ASP761  ALA762  ILE779  LEU786  VAL792 
 PHE793  MET794  SER795  GLU796  ALA797  LYS798  CYS799  TRP800  GLU811  SER814 

> <Gold.Protein.RotatedAtoms>
  152.4126  134.6097  160.0022 H   0  0  0  0  0  0  0  0  0  0  0  0  # atno 6907 bound_to 6896
  151.6269  133.3329  159.3108 H   0  0  0  0  0  0  0  0  0  0  0  0  # atno 6908 bound_to 6896
  150.8016  134.7154  159.6672 H   0  0  0  0  0  0  0  0  0  0  0  0  # atno 6909 bound_to 6896
  144.7127  140.1231  143.6404 H   0  0  0  0  0  0  0  0  0  0  0  0  # atno 7974 bound_to 7965
  155.2685  140.3364  155.4267 H   0  0  0  0  0  0  0  0  0  0  0  0  # atno 8008 bound_to 7997
  156.2143  140.1782  156.7666 H   0  0  0  0  0  0  0  0  0  0  0  0  # atno 8009 bound_to 7997
  154.5731  140.0666  156.8979 H   0  0  0  0  0  0  0  0  0  0  0  0  # atno 8010 bound_to 7997
  140.7231  143.5131  150.9725 H   0  0  0  0  0  0  0  0  0  0  0  0  # atno 10167 bound_to 10162
  156.8684  130.9775  151.3076 H   0  0  0  0  0  0  0  0  0  0  0  0  # atno 10718 bound_to 10713
  154.6176  135.5464  153.7540 H   0  0  0  0  0  0  0  0  0  0  0  0  # atno 10763 bound_to 10752
  153.0223  135.6405  154.1488 H   0  0  0  0  0  0  0  0  0  0  0  0  # atno 10764 bound_to 10752
  154.1423  135.2907  155.3137 H   0  0  0  0  0  0  0  0  0  0  0  0  # atno 10765 bound_to 10752
  139.8865  134.9462  156.6147 H   0  0  0  0  0  0  0  0  0  0  0  0  # atno 11005 bound_to 11000
  145.9353  139.2633  143.1301 LP  0  0  0  0  0  0  0  0  0  0  0  0  # atno 17320 bound_to 7965
  145.9480  140.8930  143.0273 LP  0  0  0  0  0  0  0  0  0  0  0  0  # atno 17321 bound_to 7965
  139.8845  143.7030  152.3153 LP  0  0  0  0  0  0  0  0  0  0  0  0  # atno 17342 bound_to 10162
  139.7324  144.7579  151.0781 LP  0  0  0  0  0  0  0  0  0  0  0  0  # atno 17343 bound_to 10162
  157.6210  130.8655  149.9108 LP  0  0  0  0  0  0  0  0  0  0  0  0  # atno 17370 bound_to 10713
  156.0739  130.3681  150.0717 LP  0  0  0  0  0  0  0  0  0  0  0  0  # atno 17371 bound_to 10713
  140.7785  133.8680  155.8548 LP  0  0  0  0  0  0  0  0  0  0  0  0  # atno 17394 bound_to 11000
  140.9781  134.1442  157.4518 LP  0  0  0  0  0  0  0  0  0  0  0  0  # atno 17395 bound_to 11000

$$$$
