AV-unprocessed.smi:2453|AV-procd|sdf|9691|dock3
  -GOLD-   2272013333D 1   1.00000     0.00000
 Structure written by MMmdl.
 41 42  0  0  0  0  0  0  0  0  2 V2000
  146.0353  142.9903  156.9668 C   0  0  0  0  0  0  0  0  0  0  0  0
  146.5861  142.2360  155.7690 C   0  0  0  0  0  0  0  0  0  0  0  0
  145.7196  141.8825  154.7115 C   0  0  0  0  0  0  0  0  0  0  0  0
  146.1954  141.2159  153.6388 N   0  3  0  0  0  0  0  0  0  0  0  0
  147.4913  140.8617  153.5156 C   0  0  0  0  0  0  0  0  0  0  0  0
  148.4078  141.1844  154.5360 C   0  0  0  0  0  0  0  0  0  0  0  0
  147.9553  141.8719  155.6916 C   0  0  0  0  0  0  0  0  0  0  0  0
  148.8244  142.2549  156.7524 N   0  0  0  0  0  0  0  0  0  0  0  0
  150.0769  141.8362  157.0033 C   0  0  0  0  0  0  0  0  0  0  0  0
  150.6799  140.9789  156.3584 O   0  0  0  0  0  0  0  0  0  0  0  0
  150.5917  142.4668  158.0693 N   0  0  0  0  0  0  0  0  0  0  0  0
  151.9321  142.2679  158.6208 C   0  0  2  0  0  0  0  0  0  0  0  0
  152.2151  140.7537  158.6900 C   0  0  0  0  0  0  0  0  0  0  0  0
  153.5790  140.4570  159.3273 C   0  0  0  0  0  0  0  0  0  0  0  0
  153.6784  141.0928  160.7192 C   0  0  0  0  0  0  0  0  0  0  0  0
  153.4235  142.6053  160.6515 C   0  0  0  0  0  0  0  0  0  0  0  0
  152.0555  142.9405  160.0141 C   0  0  1  0  0  0  0  0  0  0  0  0
  151.8403  144.4693  159.9434 C   0  0  0  0  0  0  0  0  0  0  0  0
  151.9012  145.0474  161.2305 O   0  0  0  0  0  0  0  0  0  0  0  0
  144.9657  143.1747  156.8620 H   0  0  0  0  0  0  0  0  0  0  0  0
  146.5343  143.9540  157.0728 H   0  0  0  0  0  0  0  0  0  0  0  0
  146.1901  142.4176  157.8817 H   0  0  0  0  0  0  0  0  0  0  0  0
  144.6643  142.1137  154.6887 H   0  0  0  0  0  0  0  0  0  0  0  0
  147.7573  140.3410  152.6073 H   0  0  0  0  0  0  0  0  0  0  0  0
  149.4434  140.9104  154.4054 H   0  0  0  0  0  0  0  0  0  0  0  0
  148.4266  142.8896  157.4290 H   0  0  0  0  0  0  0  0  0  0  0  0
  150.0144  143.1498  158.5378 H   0  0  0  0  0  0  0  0  0  0  0  0
  152.6808  142.7177  157.9662 H   0  0  0  0  0  0  0  0  0  0  0  0
  151.4338  140.2572  159.2676 H   0  0  0  0  0  0  0  0  0  0  0  0
  152.1796  140.3214  157.6892 H   0  0  0  0  0  0  0  0  0  0  0  0
  153.7312  139.3796  159.3977 H   0  0  0  0  0  0  0  0  0  0  0  0
  154.3748  140.8422  158.6886 H   0  0  0  0  0  0  0  0  0  0  0  0
  152.9541  140.6280  161.3894 H   0  0  0  0  0  0  0  0  0  0  0  0
  154.6632  140.9008  161.1463 H   0  0  0  0  0  0  0  0  0  0  0  0
  153.4829  143.0199  161.6582 H   0  0  0  0  0  0  0  0  0  0  0  0
  154.2211  143.0797  160.0782 H   0  0  0  0  0  0  0  0  0  0  0  0
  151.2763  142.5216  160.6539 H   0  0  0  0  0  0  0  0  0  0  0  0
  152.5888  144.9357  159.3021 H   0  0  0  0  0  0  0  0  0  0  0  0
  150.8648  144.7140  159.5242 H   0  0  0  0  0  0  0  0  0  0  0  0
  151.4104  144.5038  161.8279 H   0  0  0  0  0  0  0  0  0  0  0  0
  145.5494  140.9746  152.8866 H   0  0  0  0  0  0  0  0  0  0  0  0
  1  2  1  0  0  0  0
  1 20  1  0  0  0  0
  1 21  1  0  0  0  0
  1 22  1  0  0  0  0
  2  7  1  0  0  0  0
  2  3  2  0  0  0  0
  3  4  1  0  0  0  0
  3 23  1  0  0  0  0
  4  5  2  0  0  0  0
  4 41  1  0  0  0  0
  5  6  1  0  0  0  0
  5 24  1  0  0  0  0
  6  7  2  0  0  0  0
  6 25  1  0  0  0  0
  7  8  1  0  0  0  0
  8  9  1  0  0  0  0
  8 26  1  0  0  0  0
  9 10  2  0  0  0  0
  9 11  1  0  0  0  0
 11 12  1  0  0  0  0
 11 27  1  0  0  0  0
 12 17  1  0  0  0  0
 12 13  1  0  0  0  0
 12 28  1  0  0  0  0
 13 14  1  0  0  0  0
 13 29  1  0  0  0  0
 13 30  1  0  0  0  0
 14 15  1  0  0  0  0
 14 31  1  0  0  0  0
 14 32  1  0  0  0  0
 15 16  1  0  0  0  0
 15 33  1  0  0  0  0
 15 34  1  0  0  0  0
 16 17  1  0  0  0  0
 16 35  1  0  0  0  0
 16 36  1  0  0  0  0
 17 18  1  0  0  0  0
 17 37  1  0  0  0  0
 18 19  1  0  0  0  0
 18 38  1  0  0  0  0
 18 39  1  0  0  0  0
 19 40  1  0  0  0  0
M  CHG  1   4   1
M  END
> <s_m_source_file>
AV-unprocessed.smi

> <i_m_source_file_index>
2453

> <i_lp_mmshare_version>
43012

> <i_f3d_flags>
0

> <s_epik_input>
W0NIM11jMVtjSF1uW2NIXVtjSF1jMVtOSF1DKD1PKVtOSF1bQ0BASF0yW0NIMl1bQ0gyXVtDSDJdW0NIMl1bQ0BIXTJbQ0gyXVtPSF0=

> <s_epik_cmdline>
J2VwaWtfcHl0aG9uJywgJy1waCcsICc3LjAnLCAnLXRuJywgJzgnLCAnLW1hJywgJzIwMCcsICctbWV0YWxfYmluZGluZycsICctaW1hZScsICc8aW5maWxlLm1hZT4nLCAnLW9tYWUnLCAnPG91dGZpbGUubWFlPic=

> <r_epik_Ionization_Penalty>
0.71493

> <r_epik_Ionization_Penalty_Charging>
0.714909

> <r_epik_Ionization_Penalty_Neutral>
2.10174e-05

> <r_epik_State_Penalty>
0.738815

> <r_epik_Charging_Adjusted_Penalty>
1.45372

> <i_epik_Tot_Q>
1

> <i_epik_Tot_abs_Q>
1

> <r_epik_Metal_State_Penalty>
0.896004

> <b_epik_Metal_Only>
0

> <s_lp_Force_Field>
OPLS_2005

> <r_lp_Energy>
24.2673

> <b_lp_Chiralities_Consistent>
1

> <s_lp_Variant>
AV-unprocessed.smi:2453-5

> <Gold.Version>
5.8.1

> <Gold.Id.Protein>
6NUR|6NUR_protein|mol2

> <Gold.PLP.Fitness>
41.2122

> <Gold.PLP.PLP>
-36.2324

> <Gold.PLP.part.hbond>
-3.0000

> <Gold.PLP.part.metal>
0.0000

> <Gold.PLP.part.buried>
-4.0719

> <Gold.PLP.part.nonpolar>
-29.9762

> <Gold.PLP.part.repulsive>
0.1126

> <Gold.PLP.ligand.clash>
0.0000

> <Gold.PLP.ligand.torsion>
0.2034

> <Gold.PLP.Chemscore.Hbond>
1.7920

> <Gold.PLP.Chemscore.CHOScore>
0.0000

> <Gold.PLP.Chemscore.Metal>
0.0000

> <Gold.Chemscore.Hbonds>
donor molecule, donor type, donor heavy atom, donor atom, acceptor molecule, acceptor atom, score
      L1  H     4    41       P1 10175  1.79

> <Gold.PLP.Chemscore.Internal.Correction>
0.0106

> <Gold.Rescore>
     Score         DG    S(hbond)    S(metal)    S(lipo)     H(rot)  DE(clash)    DE(int)     intcor
     12.18     -15.20       0.94        0.00      95.06       1.77       0.22       2.80       ----

> <Gold.Chemscore.Fitness>
12.1775

> <Gold.Chemscore.DG>
-15.1959

> <Gold.Chemscore.ZeroCoef>
-5.4800

> <Gold.Chemscore.Hbond>
0.9389

> <Gold.Chemscore.Metal>
0.0000

> <Gold.Chemscore.Lipo>
95.0595

> <Gold.Chemscore.Internal_Hbond>
0.0000

> <Gold.Chemscore.DEClash>
0.2201

> <Gold.Chemscore.DEInternal>
2.7983

> <Gold.Chemscore.Rot>
1.7742

> <Gold.Chemscore.Internal.Correction>
   9.000000E+99

> <Gold.Chemscore.Hbonds>
donor molecule, donor type, donor heavy atom, donor atom, acceptor molecule, acceptor atom, score
      L1  H     4    41       P1 10175  0.22

> <Gold.Chemscore.Hbond.Weighted>
-3.1359

> <Gold.Chemscore.Metal.Weighted>
-0.0000

> <Gold.Chemscore.Lipo.Weighted>
-11.1220

> <Gold.Chemscore.Internal_Hbond.Weighted>
0.0000

> <Gold.Chemscore.DEClash.Weighted>
0.2201

> <Gold.Chemscore.DEInternal.Weighted>
2.7983

> <Gold.Chemscore.Rot.Weighted>
4.5419

> <Gold.Chemscore.Internal.Correction.Weighted>
   9.000000E+99

> <Gold.Protein.RotatedTorsions>
[ 6907 6896 6895 6894 ] final   49.35 input  -60.11 | X-H torsion
[ 7974 7965 7964 7962 ] final   52.67 input  175.53 | X-H torsion
[ 8008 7997 7996 7995 ] final   86.88 input   59.86 | X-H torsion
[ 10167 10162 10161 10158 ] final  -94.74 input  -65.29 | X-H torsion
[ 10718 10713 10712 10709 ] final  174.76 input   66.30 | X-H torsion
[ 10763 10752 10751 10750 ] final  -38.30 input  -60.55 | X-H torsion
[ 11005 11000 10999 10996 ] final   18.46 input  -57.11 | X-H torsion

> <Gold.Protein.ActiveResidues>
 VAL166  LYS551  ARG553  GLY616  TRP617  ASP618  TYR619  PRO620  LYS621  CYS622 
 ASP623  PHE694  ASN695  SER759  ASP760  ASP761  ALA762  ILE779  LEU786  VAL792 
 PHE793  MET794  SER795  GLU796  ALA797  LYS798  CYS799  TRP800  GLU811  SER814 

> <Gold.Protein.RotatedAtoms>
  152.2898  134.7734  160.0379 H   0  0  0  0  0  0  0  0  0  0  0  0  # atno 6907 bound_to 6896
  151.8284  133.3399  159.3614 H   0  0  0  0  0  0  0  0  0  0  0  0  # atno 6908 bound_to 6896
  150.7225  134.5435  159.5803 H   0  0  0  0  0  0  0  0  0  0  0  0  # atno 6909 bound_to 6896
  145.9790  139.4223  143.0144 H   0  0  0  0  0  0  0  0  0  0  0  0  # atno 7974 bound_to 7965
  155.9684  140.3387  155.6553 H   0  0  0  0  0  0  0  0  0  0  0  0  # atno 8008 bound_to 7997
  155.6707  140.0726  157.2539 H   0  0  0  0  0  0  0  0  0  0  0  0  # atno 8009 bound_to 7997
  154.4160  140.1692  156.1863 H   0  0  0  0  0  0  0  0  0  0  0  0  # atno 8010 bound_to 7997
  140.3113  143.3103  152.0145 H   0  0  0  0  0  0  0  0  0  0  0  0  # atno 10167 bound_to 10162
  156.9448  131.0012  151.2961 H   0  0  0  0  0  0  0  0  0  0  0  0  # atno 10718 bound_to 10713
  153.9105  135.6793  153.4751 H   0  0  0  0  0  0  0  0  0  0  0  0  # atno 10763 bound_to 10752
  153.1081  135.4796  154.8984 H   0  0  0  0  0  0  0  0  0  0  0  0  # atno 10764 bound_to 10752
  154.7529  135.3189  154.8479 H   0  0  0  0  0  0  0  0  0  0  0  0  # atno 10765 bound_to 10752
  140.4245  134.1484  155.7675 H   0  0  0  0  0  0  0  0  0  0  0  0  # atno 11005 bound_to 11000
  145.7797  140.9861  143.1106 LP  0  0  0  0  0  0  0  0  0  0  0  0  # atno 17320 bound_to 7965
  144.6856  139.9549  143.7479 LP  0  0  0  0  0  0  0  0  0  0  0  0  # atno 17321 bound_to 7965
  139.4893  144.6382  151.6931 LP  0  0  0  0  0  0  0  0  0  0  0  0  # atno 17342 bound_to 10162
  140.5566  144.0338  150.6150 LP  0  0  0  0  0  0  0  0  0  0  0  0  # atno 17343 bound_to 10162
  157.5761  130.8344  149.8458 LP  0  0  0  0  0  0  0  0  0  0  0  0  # atno 17370 bound_to 10713
  156.0388  130.3744  150.1488 LP  0  0  0  0  0  0  0  0  0  0  0  0  # atno 17371 bound_to 10713
  141.1770  133.8492  157.1386 LP  0  0  0  0  0  0  0  0  0  0  0  0  # atno 17394 bound_to 11000
  140.0177  134.9960  157.0527 LP  0  0  0  0  0  0  0  0  0  0  0  0  # atno 17395 bound_to 11000

$$$$
