AV-unprocessed.smi:1386|AV-procd|sdf|5638|dock4
  -GOLD-   22720 5253D 1   1.00000     0.00000
 Structure written by MMmdl.
 35 36  0  0  0  0  0  0  0  0  1 V2000
  150.3062  139.8349  157.7239 C   0  0  0  0  0  0  0  0  0  0  0  0
  150.8408  140.8995  156.7545 C   0  0  2  0  0  0  0  0  0  0  0  0
  151.8085  140.2913  155.7215 C   0  0  0  0  0  0  0  0  0  0  0  0
  151.3785  138.9793  155.2737 N   0  0  0  0  0  0  0  0  0  0  0  0
  150.2221  138.6711  154.5698 C   0  0  0  0  0  0  0  0  0  0  0  0
  150.2430  137.3113  154.3561 C   0  0  0  0  0  0  0  0  0  0  0  0
  151.3950  136.7657  154.9176 N   0  0  0  0  0  0  0  0  0  0  0  0
  152.0163  137.8128  155.4444 C   0  0  0  0  0  0  0  0  0  0  0  0
  151.5144  141.9585  157.5030 N   0  0  0  0  0  0  0  0  0  0  0  0
  152.3168  141.7851  158.5669 C   0  0  0  0  0  0  0  0  0  0  0  0
  152.6061  140.6670  158.9952 O   0  0  0  0  0  0  0  0  0  0  0  0
  152.7642  142.9358  159.1310 N   0  0  0  0  0  0  0  0  0  0  0  0
  153.0965  143.1325  160.5520 C   0  0  0  0  0  0  0  0  0  0  0  0
  151.8992  143.7863  161.2612 C   0  0  0  0  0  0  0  0  0  0  0  0
  151.5541  145.4337  160.5684 S   0  0  0  0  0  0  0  0  0  0  0  0
  151.5245  145.0218  158.7955 C   0  0  0  0  0  0  0  0  0  0  0  0
  152.7654  144.2057  158.3952 C   0  0  0  0  0  0  0  0  0  0  0  0
  149.7805  139.0449  157.1871 H   0  0  0  0  0  0  0  0  0  0  0  0
  149.6050  140.2677  158.4383 H   0  0  0  0  0  0  0  0  0  0  0  0
  151.1147  139.3708  158.2900 H   0  0  0  0  0  0  0  0  0  0  0  0
  149.9919  141.3198  156.2115 H   0  0  0  0  0  0  0  0  0  0  0  0
  151.9086  140.9447  154.8535 H   0  0  0  0  0  0  0  0  0  0  0  0
  152.8049  140.1900  156.1531 H   0  0  0  0  0  0  0  0  0  0  0  0
  149.5024  139.4240  154.2844 H   0  0  0  0  0  0  0  0  0  0  0  0
  149.5237  136.6889  153.8449 H   0  0  0  0  0  0  0  0  0  0  0  0
  152.9618  137.7309  155.9601 H   0  0  0  0  0  0  0  0  0  0  0  0
  151.3275  142.9062  157.2101 H   0  0  0  0  0  0  0  0  0  0  0  0
  153.3734  142.2088  161.0603 H   0  0  0  0  0  0  0  0  0  0  0  0
  153.9754  143.7726  160.6419 H   0  0  0  0  0  0  0  0  0  0  0  0
  151.0100  143.1629  161.1613 H   0  0  0  0  0  0  0  0  0  0  0  0
  152.0986  143.8909  162.3277 H   0  0  0  0  0  0  0  0  0  0  0  0
  150.6143  144.4630  158.5748 H   0  0  0  0  0  0  0  0  0  0  0  0
  151.4776  145.9477  158.2221 H   0  0  0  0  0  0  0  0  0  0  0  0
  153.6736  144.7682  158.6159 H   0  0  0  0  0  0  0  0  0  0  0  0
  152.7767  144.0528  157.3150 H   0  0  0  0  0  0  0  0  0  0  0  0
  1  2  1  0  0  0  0
  1 18  1  0  0  0  0
  1 19  1  0  0  0  0
  1 20  1  0  0  0  0
  2  3  1  0  0  0  0
  2  9  1  0  0  0  0
  2 21  1  0  0  0  0
  3  4  1  0  0  0  0
  3 22  1  0  0  0  0
  3 23  1  0  0  0  0
  4  8  1  0  0  0  0
  4  5  1  0  0  0  0
  5  6  2  0  0  0  0
  5 24  1  0  0  0  0
  6  7  1  0  0  0  0
  6 25  1  0  0  0  0
  7  8  2  0  0  0  0
  8 26  1  0  0  0  0
  9 10  1  0  0  0  0
  9 27  1  0  0  0  0
 10 11  2  0  0  0  0
 10 12  1  0  0  0  0
 12 17  1  0  0  0  0
 12 13  1  0  0  0  0
 13 14  1  0  0  0  0
 13 28  1  0  0  0  0
 13 29  1  0  0  0  0
 14 15  1  0  0  0  0
 14 30  1  0  0  0  0
 14 31  1  0  0  0  0
 15 16  1  0  0  0  0
 16 17  1  0  0  0  0
 16 32  1  0  0  0  0
 16 33  1  0  0  0  0
 17 34  1  0  0  0  0
 17 35  1  0  0  0  0
M  END
> <s_m_source_file>
AV-unprocessed.smi

> <i_m_source_file_index>
1386

> <i_lp_mmshare_version>
43012

> <i_f3d_flags>
0

> <s_epik_input>
W2NIXTFuW2NIXVtjSF1uMVtDSDJdW0NAQEhdKFtDSDNdKVtOSF1DKD1PKU4yW0NIMl1bQ0gyXVNbQ0gyXVtDSDJdMg==

> <s_epik_cmdline>
J2VwaWtfcHl0aG9uJywgJy1waCcsICc3LjAnLCAnLXRuJywgJzgnLCAnLW1hJywgJzIwMCcsICctbWV0YWxfYmluZGluZycsICctaW1hZScsICc8aW5maWxlLm1hZT4nLCAnLW9tYWUnLCAnPG91dGZpbGUubWFlPic=

> <r_lp_tautomer_probability>
1

> <r_epik_Ionization_Penalty>
0.622677

> <r_epik_Ionization_Penalty_Charging>
0.62263

> <r_epik_Ionization_Penalty_Neutral>
4.67019e-05

> <r_epik_State_Penalty>
0.63879

> <r_epik_Charging_Adjusted_Penalty>
1.26142

> <i_epik_Tot_Q>
0

> <i_epik_Tot_abs_Q>
0

> <r_epik_Metal_State_Penalty>
0.307117

> <b_epik_Metal_Only>
0

> <s_lp_Force_Field>
OPLS_2005

> <r_lp_Energy>
25.5009

> <b_lp_Chiralities_Consistent>
1

> <s_lp_Variant>
AV-unprocessed.smi:1386-3

> <Gold.Version>
5.8.1

> <Gold.Id.Protein>
6NUR|6NUR_protein|mol2

> <Gold.PLP.Fitness>
42.5296

> <Gold.PLP.PLP>
-39.0569

> <Gold.PLP.part.hbond>
-1.0000

> <Gold.PLP.part.metal>
0.0000

> <Gold.PLP.part.buried>
-1.3862

> <Gold.PLP.part.nonpolar>
-36.7631

> <Gold.PLP.part.repulsive>
0.1803

> <Gold.PLP.ligand.clash>
1.0008

> <Gold.PLP.ligand.torsion>
0.7815

> <Gold.PLP.Chemscore.Hbond>
1.0000

> <Gold.PLP.Chemscore.CHOScore>
1.0000

> <Gold.PLP.Chemscore.Metal>
0.0000

> <Gold.Chemscore.Hbonds>
donor molecule, donor type, donor heavy atom, donor atom, acceptor molecule, acceptor atom, score
      P1  H 10752 10764       L1     7  0.90
      L1  C     6    25       P1  7948  1.00

> <Gold.PLP.Chemscore.Internal.Correction>
0.0366

> <Gold.Rescore>
     Score         DG    S(hbond)    S(metal)    S(lipo)     H(rot)  DE(clash)    DE(int)     intcor
     12.91     -15.23       0.93        0.00      91.60       1.59       0.21       2.12       ----

> <Gold.Chemscore.Fitness>
12.9072

> <Gold.Chemscore.DG>
-15.2322

> <Gold.Chemscore.ZeroCoef>
-5.4800

> <Gold.Chemscore.Hbond>
0.9299

> <Gold.Chemscore.Metal>
0.0000

> <Gold.Chemscore.Lipo>
91.5985

> <Gold.Chemscore.Internal_Hbond>
0.0000

> <Gold.Chemscore.DEClash>
0.2053

> <Gold.Chemscore.DEInternal>
2.1197

> <Gold.Chemscore.Rot>
1.5901

> <Gold.Chemscore.Internal.Correction>
   9.000000E+99

> <Gold.Chemscore.Hbonds>
donor molecule, donor type, donor heavy atom, donor atom, acceptor molecule, acceptor atom, score
      P1  H 10752 10764       L1     7  0.17

> <Gold.Chemscore.Hbond.Weighted>
-3.1057

> <Gold.Chemscore.Metal.Weighted>
-0.0000

> <Gold.Chemscore.Lipo.Weighted>
-10.7170

> <Gold.Chemscore.Internal_Hbond.Weighted>
0.0000

> <Gold.Chemscore.DEClash.Weighted>
0.2053

> <Gold.Chemscore.DEInternal.Weighted>
2.1197

> <Gold.Chemscore.Rot.Weighted>
4.0706

> <Gold.Chemscore.Internal.Correction.Weighted>
   9.000000E+99

> <Gold.Protein.RotatedTorsions>
[ 6907 6896 6895 6894 ] final   86.57 input  -60.11 | X-H torsion
[ 7974 7965 7964 7962 ] final  161.24 input  175.53 | X-H torsion
[ 8008 7997 7996 7995 ] final  -36.48 input   59.86 | X-H torsion
[ 10167 10162 10161 10158 ] final   61.63 input  -65.29 | X-H torsion
[ 10718 10713 10712 10709 ] final  109.31 input   66.30 | X-H torsion
[ 10763 10752 10751 10750 ] final  -50.85 input  -60.55 | X-H torsion
[ 11005 11000 10999 10996 ] final  -49.70 input  -57.11 | X-H torsion

> <Gold.Protein.ActiveResidues>
 VAL166  LYS551  ARG553  GLY616  TRP617  ASP618  TYR619  PRO620  LYS621  CYS622 
 ASP623  PHE694  ASN695  SER759  ASP760  ASP761  ALA762  ILE779  LEU786  VAL792 
 PHE793  MET794  SER795  GLU796  ALA797  LYS798  CYS799  TRP800  GLU811  SER814 

> <Gold.Protein.RotatedAtoms>
  152.5396  134.2410  159.8861 H   0  0  0  0  0  0  0  0  0  0  0  0  # atno 6907 bound_to 6896
  151.2378  133.4409  159.2614 H   0  0  0  0  0  0  0  0  0  0  0  0  # atno 6908 bound_to 6896
  151.0655  134.9778  159.8338 H   0  0  0  0  0  0  0  0  0  0  0  0  # atno 6909 bound_to 6896
  144.7696  139.7870  143.6302 H   0  0  0  0  0  0  0  0  0  0  0  0  # atno 7974 bound_to 7965
  154.4072  140.1629  156.2381 H   0  0  0  0  0  0  0  0  0  0  0  0  # atno 8008 bound_to 7997
  155.9224  140.3420  155.6161 H   0  0  0  0  0  0  0  0  0  0  0  0  # atno 8009 bound_to 7997
  155.7205  140.0768  157.2323 H   0  0  0  0  0  0  0  0  0  0  0  0  # atno 8010 bound_to 7997
  140.1527  144.4447  150.6750 H   0  0  0  0  0  0  0  0  0  0  0  0  # atno 10167 bound_to 10162
  157.6547  131.0911  150.6434 H   0  0  0  0  0  0  0  0  0  0  0  0  # atno 10718 bound_to 10713
  154.1171  135.6540  153.4896 H   0  0  0  0  0  0  0  0  0  0  0  0  # atno 10763 bound_to 10752
  153.0237  135.5261  154.7134 H   0  0  0  0  0  0  0  0  0  0  0  0  # atno 10764 bound_to 10752
  154.6331  135.2978  155.0163 H   0  0  0  0  0  0  0  0  0  0  0  0  # atno 10765 bound_to 10752
  141.0774  133.6662  156.3624 H   0  0  0  0  0  0  0  0  0  0  0  0  # atno 11005 bound_to 11000
  146.1831  139.5033  142.9853 LP  0  0  0  0  0  0  0  0  0  0  0  0  # atno 17320 bound_to 7965
  145.6365  141.0293  143.1835 LP  0  0  0  0  0  0  0  0  0  0  0  0  # atno 17321 bound_to 7965
  140.6692  143.2279  151.5667 LP  0  0  0  0  0  0  0  0  0  0  0  0  # atno 17342 bound_to 10162
  139.5418  144.2627  152.1365 LP  0  0  0  0  0  0  0  0  0  0  0  0  # atno 17343 bound_to 10162
  156.6742  130.4548  149.5647 LP  0  0  0  0  0  0  0  0  0  0  0  0  # atno 17370 bound_to 10713
  156.1976  130.6599  151.1131 LP  0  0  0  0  0  0  0  0  0  0  0  0  # atno 17371 bound_to 10713
  140.5543  134.5997  157.5416 LP  0  0  0  0  0  0  0  0  0  0  0  0  # atno 17394 bound_to 11000
  139.9587  134.7490  156.0285 LP  0  0  0  0  0  0  0  0  0  0  0  0  # atno 17395 bound_to 11000

$$$$
