AV-unprocessed.smi:1452|AV-procd|sdf|5909|dock6
  -GOLD-   22720 5593D 1   1.00000     0.00000
 Structure written by MMmdl.
 40 42  0  0  0  0  0  0  0  0  2 V2000
  144.7422  136.8422  152.4116 O   0  0  0  0  0  0  0  0  0  0  0  0
  145.9439  136.6192  152.2765 C   0  0  0  0  0  0  0  0  0  0  0  0
  146.3833  135.4868  151.6879 N   0  0  0  0  0  0  0  0  0  0  0  0
  145.6719  134.3823  151.1331 C   0  0  0  0  0  0  0  0  0  0  0  0
  146.4908  133.3911  150.5462 C   0  0  0  0  0  0  0  0  0  0  0  0
  145.8977  132.2606  149.9516 C   0  0  0  0  0  0  0  0  0  0  0  0
  144.4960  132.1504  149.9545 C   0  0  0  0  0  0  0  0  0  0  0  0
  143.7518  133.1822  150.5542 C   0  0  0  0  0  0  0  0  0  0  0  0
  144.3187  134.2665  151.1248 N   0  0  0  0  0  0  0  0  0  0  0  0
  146.8935  137.4711  152.6976 N   0  0  0  0  0  0  0  0  0  0  0  0
  146.6640  138.7284  153.4052 C   0  0  2  0  0  0  0  0  0  0  0  0
  146.5745  139.9388  152.4553 C   0  0  0  0  0  0  0  0  0  0  0  0
  147.3806  141.0406  153.1503 C   0  0  0  0  0  0  0  0  0  0  0  0
  148.4276  140.2891  153.8518 N   0  3  1  0  0  0  0  0  0  0  0  0
  149.2625  140.9994  154.8415 C   0  0  0  0  0  0  0  0  0  0  0  0
  150.3913  140.0508  155.2987 C   0  0  0  0  0  0  0  0  0  0  0  0
  149.8491  138.6870  155.7842 C   0  0  0  0  0  0  0  0  0  0  0  0
  148.8820  138.0576  154.7588 C   0  0  0  0  0  0  0  0  0  0  0  0
  147.7888  139.0828  154.4055 C   0  0  2  0  0  0  0  0  0  0  0  0
  147.3827  135.4489  151.5484 H   0  0  0  0  0  0  0  0  0  0  0  0
  147.5665  133.4916  150.5493 H   0  0  0  0  0  0  0  0  0  0  0  0
  146.5086  131.4930  149.5001 H   0  0  0  0  0  0  0  0  0  0  0  0
  144.0044  131.2989  149.5075 H   0  0  0  0  0  0  0  0  0  0  0  0
  142.6730  133.1376  150.5759 H   0  0  0  0  0  0  0  0  0  0  0  0
  147.8556  137.2060  152.5392 H   0  0  0  0  0  0  0  0  0  0  0  0
  145.7231  138.6647  153.9553 H   0  0  0  0  0  0  0  0  0  0  0  0
  147.0408  139.7040  151.4969 H   0  0  0  0  0  0  0  0  0  0  0  0
  145.5459  140.2403  152.2543 H   0  0  0  0  0  0  0  0  0  0  0  0
  147.7966  141.7646  152.4492 H   0  0  0  0  0  0  0  0  0  0  0  0
  146.7607  141.5724  153.8739 H   0  0  0  0  0  0  0  0  0  0  0  0
  149.6852  141.8977  154.3902 H   0  0  0  0  0  0  0  0  0  0  0  0
  148.6532  141.3177  155.6889 H   0  0  0  0  0  0  0  0  0  0  0  0
  151.0753  139.8836  154.4656 H   0  0  0  0  0  0  0  0  0  0  0  0
  150.9796  140.5218  156.0868 H   0  0  0  0  0  0  0  0  0  0  0  0
  150.6759  138.0053  155.9866 H   0  0  0  0  0  0  0  0  0  0  0  0
  149.3274  138.8254  156.7321 H   0  0  0  0  0  0  0  0  0  0  0  0
  149.4300  137.7599  153.8636 H   0  0  0  0  0  0  0  0  0  0  0  0
  148.4388  137.1532  155.1765 H   0  0  0  0  0  0  0  0  0  0  0  0
  147.2912  139.3734  155.3336 H   0  0  0  0  0  0  0  0  0  0  0  0
  149.0538  139.9639  153.1292 H   0  0  0  0  0  0  0  0  0  0  0  0
  1  2  2  0  0  0  0
  2  3  1  0  0  0  0
  2 10  1  0  0  0  0
  3  4  1  0  0  0  0
  3 20  1  0  0  0  0
  4  9  1  0  0  0  0
  4  5  2  0  0  0  0
  5  6  1  0  0  0  0
  5 21  1  0  0  0  0
  6  7  2  0  0  0  0
  6 22  1  0  0  0  0
  7  8  1  0  0  0  0
  7 23  1  0  0  0  0
  8  9  2  0  0  0  0
  8 24  1  0  0  0  0
 10 11  1  0  0  0  0
 10 25  1  0  0  0  0
 11 19  1  0  0  0  0
 11 12  1  0  0  0  0
 11 26  1  0  0  0  0
 12 13  1  0  0  0  0
 12 27  1  0  0  0  0
 12 28  1  0  0  0  0
 13 14  1  0  0  0  0
 13 29  1  0  0  0  0
 13 30  1  0  0  0  0
 14 19  1  0  0  0  0
 14 15  1  0  0  0  0
 14 40  1  0  0  0  0
 15 16  1  0  0  0  0
 15 31  1  0  0  0  0
 15 32  1  0  0  0  0
 16 17  1  0  0  0  0
 16 33  1  0  0  0  0
 16 34  1  0  0  0  0
 17 18  1  0  0  0  0
 17 35  1  0  0  0  0
 17 36  1  0  0  0  0
 18 19  1  0  0  0  0
 18 37  1  0  0  0  0
 18 38  1  0  0  0  0
 19 39  1  0  0  0  0
M  CHG  1  14   1
M  END
> <s_m_source_file>
AV-unprocessed.smi

> <i_m_source_file_index>
1452

> <i_lp_mmshare_version>
43012

> <i_f3d_flags>
0

> <s_epik_input>
W0NIMl0xW0NIMl1bQ0gyXVtDSDJdW0NASF0oTjEyKVtDQEBIXShbQ0gyXVtDSDJdMilbTkhdQyg9TylbTkhdYzNbY0hdW2NIXVtjSF1bY0hdbjM=

> <s_epik_cmdline>
J2VwaWtfcHl0aG9uJywgJy1waCcsICc3LjAnLCAnLXRuJywgJzgnLCAnLW1hJywgJzIwMCcsICctbWV0YWxfYmluZGluZycsICctaW1hZScsICc8aW5maWxlLm1hZT4nLCAnLW9tYWUnLCAnPG91dGZpbGUubWFlPic=

> <r_epik_Ionization_Penalty>
0.00100813

> <r_epik_Ionization_Penalty_Charging>
0.000974069

> <r_epik_Ionization_Penalty_Neutral>
3.40643e-05

> <r_epik_State_Penalty>
0.000633842

> <r_epik_Charging_Adjusted_Penalty>
0.00160791

> <i_epik_Tot_Q>
1

> <i_epik_Tot_abs_Q>
1

> <r_epik_Metal_State_Penalty>
-0

> <b_epik_Metal_Only>
0

> <s_lp_Force_Field>
OPLS_2005

> <r_lp_Energy>
45.6992

> <b_lp_Chiralities_Consistent>
1

> <s_lp_Variant>
AV-unprocessed.smi:1452-7

> <Gold.Version>
5.8.1

> <Gold.Id.Protein>
6NUR|6NUR_protein|mol2

> <Gold.PLP.Fitness>
41.7007

> <Gold.PLP.PLP>
-30.5804

> <Gold.PLP.part.hbond>
-3.0000

> <Gold.PLP.part.metal>
0.0000

> <Gold.PLP.part.buried>
-1.0387

> <Gold.PLP.part.nonpolar>
-27.2523

> <Gold.PLP.part.repulsive>
0.5713

> <Gold.PLP.ligand.clash>
0.0000

> <Gold.PLP.ligand.torsion>
0.3698

> <Gold.PLP.Chemscore.Hbond>
2.9600

> <Gold.PLP.Chemscore.CHOScore>
0.9931

> <Gold.PLP.Chemscore.Metal>
0.0000

> <Gold.Chemscore.Hbonds>
donor molecule, donor type, donor heavy atom, donor atom, acceptor molecule, acceptor atom, score
      L1  H     3    20       P1  7948  0.96
      L1  H    10    25       P1  7948  1.00
      L1  H    14    40       P1  7957  0.91
      L1  C     8    24       P1 10186  1.00

> <Gold.PLP.Chemscore.Internal.Correction>
0.0006

> <Gold.Rescore>
     Score         DG    S(hbond)    S(metal)    S(lipo)     H(rot)  DE(clash)    DE(int)     intcor
     19.26     -22.39       2.86        0.00      84.72       1.00       1.51       1.62       ----

> <Gold.Chemscore.Fitness>
19.2624

> <Gold.Chemscore.DG>
-22.3925

> <Gold.Chemscore.ZeroCoef>
-5.4800

> <Gold.Chemscore.Hbond>
2.8623

> <Gold.Chemscore.Metal>
0.0000

> <Gold.Chemscore.Lipo>
84.7205

> <Gold.Chemscore.Internal_Hbond>
0.0000

> <Gold.Chemscore.DEClash>
1.5124

> <Gold.Chemscore.DEInternal>
1.6177

> <Gold.Chemscore.Rot>
1.0000

> <Gold.Chemscore.Internal.Correction>
   9.000000E+99

> <Gold.Chemscore.Hbonds>
donor molecule, donor type, donor heavy atom, donor atom, acceptor molecule, acceptor atom, score
      L1  H     3    20       P1  7948  0.88
      L1  H    10    25       P1  7948  0.94
      L1  H    14    40       P1  7957  0.84

> <Gold.Chemscore.Hbond.Weighted>
-9.5602

> <Gold.Chemscore.Metal.Weighted>
-0.0000

> <Gold.Chemscore.Lipo.Weighted>
-9.9123

> <Gold.Chemscore.Internal_Hbond.Weighted>
0.0000

> <Gold.Chemscore.DEClash.Weighted>
1.5124

> <Gold.Chemscore.DEInternal.Weighted>
1.6177

> <Gold.Chemscore.Rot.Weighted>
2.5600

> <Gold.Chemscore.Internal.Correction.Weighted>
   9.000000E+99

> <Gold.Protein.RotatedTorsions>
[ 6907 6896 6895 6894 ] final  -78.24 input  -60.11 | X-H torsion
[ 7974 7965 7964 7962 ] final  -72.87 input  175.53 | X-H torsion
[ 8008 7997 7996 7995 ] final   70.63 input   59.86 | X-H torsion
[ 10167 10162 10161 10158 ] final  176.25 input  -65.29 | X-H torsion
[ 10718 10713 10712 10709 ] final  -24.28 input   66.30 | X-H torsion
[ 10763 10752 10751 10750 ] final   61.29 input  -60.55 | X-H torsion
[ 11005 11000 10999 10996 ] final  -39.82 input  -57.11 | X-H torsion

> <Gold.Protein.ActiveResidues>
 VAL166  LYS551  ARG553  GLY616  TRP617  ASP618  TYR619  PRO620  LYS621  CYS622 
 ASP623  PHE694  ASN695  SER759  ASP760  ASP761  ALA762  ILE779  LEU786  VAL792 
 PHE793  MET794  SER795  GLU796  ALA797  LYS798  CYS799  TRP800  GLU811  SER814 

> <Gold.Protein.RotatedAtoms>
  150.6978  134.4301  159.5244 H   0  0  0  0  0  0  0  0  0  0  0  0  # atno 6907 bound_to 6896
  152.2029  134.8568  160.0515 H   0  0  0  0  0  0  0  0  0  0  0  0  # atno 6908 bound_to 6896
  151.9482  133.3623  159.4027 H   0  0  0  0  0  0  0  0  0  0  0  0  # atno 6909 bound_to 6896
  145.6596  140.9257  143.0941 H   0  0  0  0  0  0  0  0  0  0  0  0  # atno 7974 bound_to 7965
  155.7418  140.3490  155.5108 H   0  0  0  0  0  0  0  0  0  0  0  0  # atno 8008 bound_to 7997
  155.9087  140.1046  157.1317 H   0  0  0  0  0  0  0  0  0  0  0  0  # atno 8009 bound_to 7997
  154.4053  140.1272  156.4516 H   0  0  0  0  0  0  0  0  0  0  0  0  # atno 8010 bound_to 7997
  139.5207  144.2937  152.0441 H   0  0  0  0  0  0  0  0  0  0  0  0  # atno 10167 bound_to 10162
  156.4797  130.4542  149.6819 H   0  0  0  0  0  0  0  0  0  0  0  0  # atno 10718 bound_to 10713
  152.9946  135.5506  154.6011 H   0  0  0  0  0  0  0  0  0  0  0  0  # atno 10763 bound_to 10752
  154.5352  135.2816  155.1147 H   0  0  0  0  0  0  0  0  0  0  0  0  # atno 10764 bound_to 10752
  154.2446  135.6410  153.5272 H   0  0  0  0  0  0  0  0  0  0  0  0  # atno 10765 bound_to 10752
  141.0130  133.6899  156.2238 H   0  0  0  0  0  0  0  0  0  0  0  0  # atno 11005 bound_to 11000
  144.7094  139.8431  143.7419 LP  0  0  0  0  0  0  0  0  0  0  0  0  # atno 17320 bound_to 7965
  146.1137  139.4145  143.0272 LP  0  0  0  0  0  0  0  0  0  0  0  0  # atno 17321 bound_to 7965
  140.2387  144.4292  150.6269 LP  0  0  0  0  0  0  0  0  0  0  0  0  # atno 17342 bound_to 10162
  140.6305  143.2187  151.6505 LP  0  0  0  0  0  0  0  0  0  0  0  0  # atno 17343 bound_to 10162
  156.3534  130.7444  151.2406 LP  0  0  0  0  0  0  0  0  0  0  0  0  # atno 17370 bound_to 10713
  157.7484  131.0371  150.4438 LP  0  0  0  0  0  0  0  0  0  0  0  0  # atno 17371 bound_to 10713
  140.6702  134.4876  157.5587 LP  0  0  0  0  0  0  0  0  0  0  0  0  # atno 17394 bound_to 11000
  139.9101  134.8364  156.1561 LP  0  0  0  0  0  0  0  0  0  0  0  0  # atno 17395 bound_to 11000

$$$$
