AV-unprocessed.smi:878|AV-procd|sdf|4032|dock4
  -GOLD-   22720 1523D 1   1.00000     0.00000
 Structure written by MMmdl.
 32 33  0  0  0  0  0  0  0  0  2 V2000
  151.8489  145.6723  158.9279 C   0  0  0  0  0  0  0  0  0  0  0  0
  151.4122  143.9123  158.9088 S   0  0  0  0  0  0  0  0  0  0  0  0
  152.4262  143.0793  160.0966 C   0  0  0  0  0  0  0  0  0  0  0  0
  152.4231  143.4475  161.4586 C   0  0  0  0  0  0  0  0  0  0  0  0
  153.2451  142.7660  162.3777 C   0  0  0  0  0  0  0  0  0  0  0  0
  154.0801  141.7048  161.9467 C   0  0  0  0  0  0  0  0  0  0  0  0
  154.9102  140.9841  162.7767 O   0  0  0  0  0  0  0  0  0  0  0  0
  154.9432  141.3182  164.1575 C   0  0  0  0  0  0  0  0  0  0  0  0
  156.4008  141.3351  164.6451 C   0  0  0  0  0  0  0  0  0  0  0  0
  156.5732  142.1999  165.8213 N   0  0  0  0  0  0  0  0  0  0  0  0
  156.0625  141.7343  167.0447 C   0  0  0  0  0  0  0  0  0  0  0  0
  156.1613  142.4510  168.1810 C   0  0  0  0  0  0  0  0  0  0  0  0
  155.5208  141.8533  169.6703 Cl  0  0  0  0  0  0  0  0  0  0  0  0
  156.8244  143.7517  168.1157 C   0  0  0  0  0  0  0  0  0  0  0  0
  156.9347  144.4311  169.1354 O   0  0  0  0  0  0  0  0  0  0  0  0
  157.2994  144.1606  166.9029 N   0  5  0  0  0  0  0  0  0  0  0  0
  157.1878  143.4187  165.7579 C   0  0  0  0  0  0  0  0  0  0  0  0
  157.6224  143.8131  164.6756 O   0  0  0  0  0  0  0  0  0  0  0  0
  154.0733  141.3458  160.5839 C   0  0  0  0  0  0  0  0  0  0  0  0
  153.2561  142.0282  159.6629 C   0  0  0  0  0  0  0  0  0  0  0  0
  151.1967  146.2246  158.2513 H   0  0  0  0  0  0  0  0  0  0  0  0
  152.8789  145.8180  158.6027 H   0  0  0  0  0  0  0  0  0  0  0  0
  151.7319  146.0839  159.9305 H   0  0  0  0  0  0  0  0  0  0  0  0
  151.8002  144.2515  161.8175 H   0  0  0  0  0  0  0  0  0  0  0  0
  153.2152  143.0757  163.4112 H   0  0  0  0  0  0  0  0  0  0  0  0
  154.4786  142.2906  164.3301 H   0  0  0  0  0  0  0  0  0  0  0  0
  154.3858  140.5742  164.7280 H   0  0  0  0  0  0  0  0  0  0  0  0
  156.7024  140.3191  164.9037 H   0  0  0  0  0  0  0  0  0  0  0  0
  157.0656  141.6258  163.8304 H   0  0  0  0  0  0  0  0  0  0  0  0
  155.5848  140.7663  167.0002 H   0  0  0  0  0  0  0  0  0  0  0  0
  154.7054  140.5397  160.2408 H   0  0  0  0  0  0  0  0  0  0  0  0
  153.2675  141.7402  158.6220 H   0  0  0  0  0  0  0  0  0  0  0  0
  1  2  1  0  0  0  0
  1 21  1  0  0  0  0
  1 22  1  0  0  0  0
  1 23  1  0  0  0  0
  2  3  1  0  0  0  0
  3 20  1  0  0  0  0
  3  4  2  0  0  0  0
  4  5  1  0  0  0  0
  4 24  1  0  0  0  0
  5  6  2  0  0  0  0
  5 25  1  0  0  0  0
  6  7  1  0  0  0  0
  6 19  1  0  0  0  0
  7  8  1  0  0  0  0
  8  9  1  0  0  0  0
  8 26  1  0  0  0  0
  8 27  1  0  0  0  0
  9 10  1  0  0  0  0
  9 28  1  0  0  0  0
  9 29  1  0  0  0  0
 10 17  1  0  0  0  0
 10 11  1  0  0  0  0
 11 12  2  0  0  0  0
 11 30  1  0  0  0  0
 12 13  1  0  0  0  0
 12 14  1  0  0  0  0
 14 15  2  0  0  0  0
 14 16  1  0  0  0  0
 16 17  1  0  0  0  0
 17 18  2  0  0  0  0
 19 20  2  0  0  0  0
 19 31  1  0  0  0  0
 20 32  1  0  0  0  0
M  CHG  1  16  -1
M  END
> <s_m_source_file>
AV-unprocessed.smi

> <i_m_source_file_index>
878

> <i_lp_mmshare_version>
43012

> <i_f3d_flags>
0

> <s_epik_input>
W0NIM11TYzFbY0hdW2NIXWMoW2NIXVtjSF0xKU9bQ0gyXVtDSDJdbjJbY0hdYyhDbCljKD1PKVtuSF1jMj1P

> <s_epik_cmdline>
J2VwaWtfcHl0aG9uJywgJy1waCcsICc3LjAnLCAnLXRuJywgJzgnLCAnLW1hJywgJzIwMCcsICctbWV0YWxfYmluZGluZycsICctaW1hZScsICc8aW5maWxlLm1hZT4nLCAnLW9tYWUnLCAnPG91dGZpbGUubWFlPic=

> <r_lp_tautomer_probability>
1

> <r_epik_Ionization_Penalty>
1.65349

> <r_epik_Ionization_Penalty_Charging>
1.22116e-08

> <r_epik_Ionization_Penalty_Neutral>
1.65349

> <r_epik_State_Penalty>
1.75578

> <r_epik_Charging_Adjusted_Penalty>
1.75578

> <i_epik_Tot_Q>
-1

> <i_epik_Tot_abs_Q>
1

> <r_epik_Metal_State_Penalty>
0.0107816

> <b_epik_Metal_Only>
0

> <s_lp_Force_Field>
OPLS_2005

> <r_lp_Energy>
23.8138

> <b_lp_Chiralities_Consistent>
1

> <s_lp_Variant>
AV-unprocessed.smi:878-2

> <Gold.Version>
5.8.1

> <Gold.Id.Protein>
6NUR|6NUR_protein|mol2

> <Gold.PLP.Fitness>
42.3501

> <Gold.PLP.PLP>
-43.5288

> <Gold.PLP.part.hbond>
-4.0000

> <Gold.PLP.part.metal>
0.0000

> <Gold.PLP.part.buried>
-1.7824

> <Gold.PLP.part.nonpolar>
-36.9107

> <Gold.PLP.part.repulsive>
0.2196

> <Gold.PLP.ligand.clash>
0.0000

> <Gold.PLP.ligand.torsion>
0.6041

> <Gold.PLP.Chemscore.Hbond>
0.0000

> <Gold.PLP.Chemscore.CHOScore>
0.0000

> <Gold.PLP.Chemscore.Metal>
0.0000

> <Gold.PLP.Chemscore.Internal.Correction>
0.0296

> <Gold.Rescore>
     Score         DG    S(hbond)    S(metal)    S(lipo)     H(rot)  DE(clash)    DE(int)     intcor
     12.93     -14.16       0.00        0.00     115.92       1.91       0.78       0.45       ----

> <Gold.Chemscore.Fitness>
12.9287

> <Gold.Chemscore.DG>
-14.1596

> <Gold.Chemscore.ZeroCoef>
-5.4800

> <Gold.Chemscore.Hbond>
0.0000

> <Gold.Chemscore.Metal>
0.0000

> <Gold.Chemscore.Lipo>
115.9158

> <Gold.Chemscore.Internal_Hbond>
0.0000

> <Gold.Chemscore.DEClash>
0.7763

> <Gold.Chemscore.DEInternal>
0.4546

> <Gold.Chemscore.Rot>
1.9073

> <Gold.Chemscore.Internal.Correction>
   9.000000E+99

> <Gold.Chemscore.Hbond.Weighted>
-0.0000

> <Gold.Chemscore.Metal.Weighted>
-0.0000

> <Gold.Chemscore.Lipo.Weighted>
-13.5622

> <Gold.Chemscore.Internal_Hbond.Weighted>
0.0000

> <Gold.Chemscore.DEClash.Weighted>
0.7763

> <Gold.Chemscore.DEInternal.Weighted>
0.4546

> <Gold.Chemscore.Rot.Weighted>
4.8826

> <Gold.Chemscore.Internal.Correction.Weighted>
   9.000000E+99

> <Gold.Protein.RotatedTorsions>
[ 6907 6896 6895 6894 ] final -115.12 input  -60.11 | X-H torsion
[ 7974 7965 7964 7962 ] final  129.21 input  175.53 | X-H torsion
[ 8008 7997 7996 7995 ] final -126.41 input   59.86 | X-H torsion
[ 10167 10162 10161 10158 ] final  178.71 input  -65.29 | X-H torsion
[ 10718 10713 10712 10709 ] final -177.21 input   66.30 | X-H torsion
[ 10763 10752 10751 10750 ] final   12.34 input  -60.55 | X-H torsion
[ 11005 11000 10999 10996 ] final  -34.65 input  -57.11 | X-H torsion

> <Gold.Protein.ActiveResidues>
 VAL166  LYS551  ARG553  GLY616  TRP617  ASP618  TYR619  PRO620  LYS621  CYS622 
 ASP623  PHE694  ASN695  SER759  ASP760  ASP761  ALA762  ILE779  LEU786  VAL792 
 PHE793  MET794  SER795  GLU796  ALA797  LYS798  CYS799  TRP800  GLU811  SER814 

> <Gold.Protein.RotatedAtoms>
  150.7954  133.8703  159.3256 H   0  0  0  0  0  0  0  0  0  0  0  0  # atno 6907 bound_to 6896
  151.6530  135.0997  160.0174 H   0  0  0  0  0  0  0  0  0  0  0  0  # atno 6908 bound_to 6896
  152.4035  133.6814  159.6371 H   0  0  0  0  0  0  0  0  0  0  0  0  # atno 6909 bound_to 6896
  145.0311  139.4045  143.5149 H   0  0  0  0  0  0  0  0  0  0  0  0  # atno 7974 bound_to 7965
  155.2292  140.0424  157.2959 H   0  0  0  0  0  0  0  0  0  0  0  0  # atno 8008 bound_to 7997
  154.5899  140.2424  155.7905 H   0  0  0  0  0  0  0  0  0  0  0  0  # atno 8009 bound_to 7997
  156.2252  140.2957  156.0058 H   0  0  0  0  0  0  0  0  0  0  0  0  # atno 8010 bound_to 7997
  139.5305  144.2648  152.0677 H   0  0  0  0  0  0  0  0  0  0  0  0  # atno 10167 bound_to 10162
  156.8260  130.9636  151.3109 H   0  0  0  0  0  0  0  0  0  0  0  0  # atno 10718 bound_to 10713
  153.1832  135.6831  153.8450 H   0  0  0  0  0  0  0  0  0  0  0  0  # atno 10763 bound_to 10752
  153.7775  135.3187  155.3362 H   0  0  0  0  0  0  0  0  0  0  0  0  # atno 10764 bound_to 10752
  154.8072  135.4740  154.0519 H   0  0  0  0  0  0  0  0  0  0  0  0  # atno 10765 bound_to 10752
  140.9733  133.7097  156.1560 H   0  0  0  0  0  0  0  0  0  0  0  0  # atno 11005 bound_to 11000
  146.3498  139.9862  142.8690 LP  0  0  0  0  0  0  0  0  0  0  0  0  # atno 17320 bound_to 7965
  145.1769  140.9748  143.4289 LP  0  0  0  0  0  0  0  0  0  0  0  0  # atno 17321 bound_to 7965
  140.2110  144.4562  150.6386 LP  0  0  0  0  0  0  0  0  0  0  0  0  # atno 17342 bound_to 10162
  140.6480  143.2218  151.6142 LP  0  0  0  0  0  0  0  0  0  0  0  0  # atno 17343 bound_to 10162
  157.6432  130.8822  149.9487 LP  0  0  0  0  0  0  0  0  0  0  0  0  # atno 17370 bound_to 10713
  156.0961  130.3659  150.0304 LP  0  0  0  0  0  0  0  0  0  0  0  0  # atno 17371 bound_to 10713
  140.7296  134.4269  157.5567 LP  0  0  0  0  0  0  0  0  0  0  0  0  # atno 17394 bound_to 11000
  139.8921  134.8764  156.2289 LP  0  0  0  0  0  0  0  0  0  0  0  0  # atno 17395 bound_to 11000

$$$$
