AV-unprocessed.smi:1231|AV-procd|sdf|5163|dock9
  -GOLD-   22720 4233D 1   1.00000     0.00000
 Structure written by MMmdl.
 43 44  0  0  0  0  0  0  0  0  2 V2000
  145.9266  136.7697  151.4317 C   0  0  0  0  0  0  0  0  0  0  0  0
  145.6303  137.8239  152.5039 C   0  0  2  0  0  0  0  0  0  0  0  0
  146.6542  138.9730  152.4812 C   0  0  0  0  0  0  0  0  0  0  0  0
  146.3904  139.9243  153.5851 N   0  3  2  0  0  0  0  0  0  0  0  0
  147.2867  141.1058  153.5400 C   0  0  0  0  0  0  0  0  0  0  0  0
  148.6970  140.7950  154.0791 C   0  0  0  0  0  0  0  0  0  0  0  0
  149.1739  141.8427  154.9745 N   0  0  0  0  0  0  0  0  0  0  0  0
  150.1080  141.6730  155.9216 C   0  0  0  0  0  0  0  0  0  0  0  0
  150.6714  140.5976  156.1288 O   0  0  0  0  0  0  0  0  0  0  0  0
  150.3348  142.8144  156.5953 N   0  0  0  0  0  0  0  0  0  0  0  0
  151.2647  143.0436  157.6443 C   0  0  0  0  0  0  0  0  0  0  0  0
  151.5635  144.4023  157.8931 C   0  0  0  0  0  0  0  0  0  0  0  0
  152.4773  144.7353  158.9119 C   0  0  0  0  0  0  0  0  0  0  0  0
  153.0706  143.6994  159.6552 C   0  0  0  0  0  0  0  0  0  0  0  0
  152.7190  142.3734  159.3427 C   0  0  0  0  0  0  0  0  0  0  0  0
  151.8431  142.0521  158.3671 N   0  0  0  0  0  0  0  0  0  0  0  0
  146.4088  139.2144  154.8881 C   0  0  0  0  0  0  0  0  0  0  0  0
  145.4190  138.0333  154.8899 C   0  0  1  0  0  0  0  0  0  0  0  0
  143.9454  138.4694  154.9748 C   0  0  0  0  0  0  0  0  0  0  0  0
  145.6685  137.1786  153.7739 O   0  0  0  0  0  0  0  0  0  0  0  0
  145.8941  137.2048  150.4326 H   0  0  0  0  0  0  0  0  0  0  0  0
  145.1942  135.9629  151.4665 H   0  0  0  0  0  0  0  0  0  0  0  0
  146.9138  136.3289  151.5733 H   0  0  0  0  0  0  0  0  0  0  0  0
  144.6309  138.2194  152.3212 H   0  0  0  0  0  0  0  0  0  0  0  0
  147.6690  138.5814  152.5728 H   0  0  0  0  0  0  0  0  0  0  0  0
  146.5971  139.4924  151.5237 H   0  0  0  0  0  0  0  0  0  0  0  0
  147.3289  141.4907  152.5199 H   0  0  0  0  0  0  0  0  0  0  0  0
  146.8593  141.9017  154.1519 H   0  0  0  0  0  0  0  0  0  0  0  0
  148.6846  139.8558  154.6325 H   0  0  0  0  0  0  0  0  0  0  0  0
  149.4166  140.6689  153.2698 H   0  0  0  0  0  0  0  0  0  0  0  0
  148.7581  142.7571  154.8718 H   0  0  0  0  0  0  0  0  0  0  0  0
  149.7831  143.6145  156.3232 H   0  0  0  0  0  0  0  0  0  0  0  0
  151.0994  145.1854  157.3116 H   0  0  0  0  0  0  0  0  0  0  0  0
  152.7188  145.7676  159.1180 H   0  0  0  0  0  0  0  0  0  0  0  0
  153.7761  143.9149  160.4440 H   0  0  0  0  0  0  0  0  0  0  0  0
  153.1519  141.5489  159.8893 H   0  0  0  0  0  0  0  0  0  0  0  0
  147.4180  138.8455  155.0782 H   0  0  0  0  0  0  0  0  0  0  0  0
  146.1655  139.8917  155.7060 H   0  0  0  0  0  0  0  0  0  0  0  0
  145.6201  137.4338  155.7782 H   0  0  0  0  0  0  0  0  0  0  0  0
  143.7553  139.0055  155.9048 H   0  0  0  0  0  0  0  0  0  0  0  0
  143.2822  137.6046  154.9525 H   0  0  0  0  0  0  0  0  0  0  0  0
  143.6605  139.1312  154.1572 H   0  0  0  0  0  0  0  0  0  0  0  0
  145.4511  140.2684  153.4459 H   0  0  0  0  0  0  0  0  0  0  0  0
  1  2  1  0  0  0  0
  1 21  1  0  0  0  0
  1 22  1  0  0  0  0
  1 23  1  0  0  0  0
  2 20  1  0  0  0  0
  2  3  1  0  0  0  0
  2 24  1  0  0  0  0
  3  4  1  0  0  0  0
  3 25  1  0  0  0  0
  3 26  1  0  0  0  0
  4  5  1  0  0  0  0
  4 17  1  0  0  0  0
  4 43  1  0  0  0  0
  5  6  1  0  0  0  0
  5 27  1  0  0  0  0
  5 28  1  0  0  0  0
  6  7  1  0  0  0  0
  6 29  1  0  0  0  0
  6 30  1  0  0  0  0
  7  8  1  0  0  0  0
  7 31  1  0  0  0  0
  8  9  2  0  0  0  0
  8 10  1  0  0  0  0
 10 11  1  0  0  0  0
 10 32  1  0  0  0  0
 11 16  1  0  0  0  0
 11 12  2  0  0  0  0
 12 13  1  0  0  0  0
 12 33  1  0  0  0  0
 13 14  2  0  0  0  0
 13 34  1  0  0  0  0
 14 15  1  0  0  0  0
 14 35  1  0  0  0  0
 15 16  2  0  0  0  0
 15 36  1  0  0  0  0
 17 18  1  0  0  0  0
 17 37  1  0  0  0  0
 17 38  1  0  0  0  0
 18 19  1  0  0  0  0
 18 20  1  0  0  0  0
 18 39  1  0  0  0  0
 19 40  1  0  0  0  0
 19 41  1  0  0  0  0
 19 42  1  0  0  0  0
M  CHG  1   4   1
M  END
> <s_m_source_file>
AV-unprocessed.smi

> <i_m_source_file_index>
1231

> <i_lp_mmshare_version>
43012

> <i_f3d_flags>
0

> <s_epik_input>
W0NIM11bQ0BASF0xW0NIMl1OKFtDSDJdW0NASF0oTzEpW0NIM10pW0NIMl1bQ0gyXVtOSF1DKD1PKVtOSF1jMltjSF1bY0hdW2NIXVtjSF1uMg==

> <s_epik_cmdline>
J2VwaWtfcHl0aG9uJywgJy1waCcsICc3LjAnLCAnLXRuJywgJzgnLCAnLW1hJywgJzIwMCcsICctbWV0YWxfYmluZGluZycsICctaW1hZScsICc8aW5maWxlLm1hZT4nLCAnLW9tYWUnLCAnPG91dGZpbGUubWFlPic=

> <r_epik_Ionization_Penalty>
0.602565

> <r_epik_Ionization_Penalty_Charging>
0.602531

> <r_epik_Ionization_Penalty_Neutral>
3.43186e-05

> <r_epik_State_Penalty>
0.617039

> <r_epik_Charging_Adjusted_Penalty>
1.21957

> <i_epik_Tot_Q>
1

> <i_epik_Tot_abs_Q>
1

> <r_epik_Metal_State_Penalty>
0.617041

> <b_epik_Metal_Only>
0

> <s_lp_Force_Field>
OPLS_2005

> <r_lp_Energy>
18.1203

> <b_lp_Chiralities_Consistent>
1

> <s_lp_Variant>
AV-unprocessed.smi:1231-4

> <Gold.Version>
5.8.1

> <Gold.Id.Protein>
6NUR|6NUR_protein|mol2

> <Gold.PLP.Fitness>
48.1331

> <Gold.PLP.PLP>
-38.3019

> <Gold.PLP.part.hbond>
-3.0000

> <Gold.PLP.part.metal>
0.0000

> <Gold.PLP.part.buried>
-2.1150

> <Gold.PLP.part.nonpolar>
-33.7581

> <Gold.PLP.part.repulsive>
0.4206

> <Gold.PLP.ligand.clash>
0.0000

> <Gold.PLP.ligand.torsion>
0.6680

> <Gold.PLP.Chemscore.Hbond>
3.7166

> <Gold.PLP.Chemscore.CHOScore>
0.0000

> <Gold.PLP.Chemscore.Metal>
0.0000

> <Gold.Chemscore.Hbonds>
donor molecule, donor type, donor heavy atom, donor atom, acceptor molecule, acceptor atom, score
      L1  H     4    43       P1 10175  2.00
      L1  H     7    31       P1  8028  0.70
      L1  H    10    32       P1  8028  1.00

> <Gold.PLP.Chemscore.Internal.Correction>
0.0177

> <Gold.Rescore>
     Score         DG    S(hbond)    S(metal)    S(lipo)     H(rot)  DE(clash)    DE(int)     intcor
     19.17     -21.24       2.69        0.00      91.96       1.55       0.21       1.86       ----

> <Gold.Chemscore.Fitness>
19.1700

> <Gold.Chemscore.DG>
-21.2409

> <Gold.Chemscore.ZeroCoef>
-5.4800

> <Gold.Chemscore.Hbond>
2.6889

> <Gold.Chemscore.Metal>
0.0000

> <Gold.Chemscore.Lipo>
91.9633

> <Gold.Chemscore.Internal_Hbond>
0.0000

> <Gold.Chemscore.DEClash>
0.2094

> <Gold.Chemscore.DEInternal>
1.8615

> <Gold.Chemscore.Rot>
1.5546

> <Gold.Chemscore.Internal.Correction>
   9.000000E+99

> <Gold.Chemscore.Hbonds>
donor molecule, donor type, donor heavy atom, donor atom, acceptor molecule, acceptor atom, score
      L1  H     4    43       P1 10175  0.92
      L1  H     7    31       P1  8028  0.67
      L1  H    10    32       P1  8028  0.97

> <Gold.Chemscore.Hbond.Weighted>
-8.9809

> <Gold.Chemscore.Metal.Weighted>
-0.0000

> <Gold.Chemscore.Lipo.Weighted>
-10.7597

> <Gold.Chemscore.Internal_Hbond.Weighted>
0.0000

> <Gold.Chemscore.DEClash.Weighted>
0.2094

> <Gold.Chemscore.DEInternal.Weighted>
1.8615

> <Gold.Chemscore.Rot.Weighted>
3.9797

> <Gold.Chemscore.Internal.Correction.Weighted>
   9.000000E+99

> <Gold.Protein.RotatedTorsions>
[ 6907 6896 6895 6894 ] final  -57.09 input  -60.11 | X-H torsion
[ 7974 7965 7964 7962 ] final  -15.58 input  175.53 | X-H torsion
[ 8008 7997 7996 7995 ] final   18.61 input   59.86 | X-H torsion
[ 10167 10162 10161 10158 ] final   21.19 input  -65.29 | X-H torsion
[ 10718 10713 10712 10709 ] final   42.44 input   66.30 | X-H torsion
[ 10763 10752 10751 10750 ] final  -40.13 input  -60.55 | X-H torsion
[ 11005 11000 10999 10996 ] final   92.70 input  -57.11 | X-H torsion

> <Gold.Protein.ActiveResidues>
 VAL166  LYS551  ARG553  GLY616  TRP617  ASP618  TYR619  PRO620  LYS621  CYS622 
 ASP623  PHE694  ASN695  SER759  ASP760  ASP761  ALA762  ILE779  LEU786  VAL792 
 PHE793  MET794  SER795  GLU796  ALA797  LYS798  CYS799  TRP800  GLU811  SER814 

> <Gold.Protein.RotatedAtoms>
  150.8114  134.7271  159.6691 H   0  0  0  0  0  0  0  0  0  0  0  0  # atno 6907 bound_to 6896
  152.4234  134.5910  159.9984 H   0  0  0  0  0  0  0  0  0  0  0  0  # atno 6908 bound_to 6896
  151.6119  133.3309  159.3105 H   0  0  0  0  0  0  0  0  0  0  0  0  # atno 6909 bound_to 6896
  146.2026  140.3512  142.8418 H   0  0  0  0  0  0  0  0  0  0  0  0  # atno 7974 bound_to 7965
  154.9085  140.3010  155.5279 H   0  0  0  0  0  0  0  0  0  0  0  0  # atno 8008 bound_to 7997
  156.3016  140.2393  156.4057 H   0  0  0  0  0  0  0  0  0  0  0  0  # atno 8009 bound_to 7997
  154.8449  140.0412  157.1555 H   0  0  0  0  0  0  0  0  0  0  0  0  # atno 8010 bound_to 7997
  140.5445  143.9618  150.6539 H   0  0  0  0  0  0  0  0  0  0  0  0  # atno 10167 bound_to 10162
  157.4048  130.7880  149.7379 H   0  0  0  0  0  0  0  0  0  0  0  0  # atno 10718 bound_to 10713
  153.9409  135.6761  153.4744 H   0  0  0  0  0  0  0  0  0  0  0  0  # atno 10763 bound_to 10752
  153.0932  135.4864  154.8727 H   0  0  0  0  0  0  0  0  0  0  0  0  # atno 10764 bound_to 10752
  154.7378  135.3153  154.8740 H   0  0  0  0  0  0  0  0  0  0  0  0  # atno 10765 bound_to 10752
  139.8820  134.8748  156.3611 H   0  0  0  0  0  0  0  0  0  0  0  0  # atno 11005 bound_to 11000
  144.8717  140.7282  143.6042 LP  0  0  0  0  0  0  0  0  0  0  0  0  # atno 17320 bound_to 7965
  145.3432  139.1726  143.4474 LP  0  0  0  0  0  0  0  0  0  0  0  0  # atno 17321 bound_to 7965
  140.3028  143.3249  152.0955 LP  0  0  0  0  0  0  0  0  0  0  0  0  # atno 17342 bound_to 10162
  139.5002  144.6686  151.6297 LP  0  0  0  0  0  0  0  0  0  0  0  0  # atno 17343 bound_to 10162
  155.9833  130.4001  150.3369 LP  0  0  0  0  0  0  0  0  0  0  0  0  # atno 17370 bound_to 10713
  157.1501  131.0318  151.2889 LP  0  0  0  0  0  0  0  0  0  0  0  0  # atno 17371 bound_to 10713
  140.9529  133.7439  156.0296 LP  0  0  0  0  0  0  0  0  0  0  0  0  # atno 17394 bound_to 11000
  140.8084  134.3428  157.5419 LP  0  0  0  0  0  0  0  0  0  0  0  0  # atno 17395 bound_to 11000

$$$$
