AV-unprocessed.smi:2724|AV-procd|sdf|10514|dock1
  -GOLD-   2272014553D 1   1.00000     0.00000
 Structure written by MMmdl.
 26 27  0  0  0  0  0  0  0  0  2 V2000
  152.1944  140.0720  157.8556 O   0  0  0  0  0  0  0  0  0  0  0  0
  152.5060  140.4512  159.1802 C   0  0  1  0  0  0  0  0  0  0  0  0
  153.4634  139.4509  159.8280 C   0  0  0  0  0  0  0  0  0  0  0  0
  154.1346  140.2329  160.9596 C   0  0  0  0  0  0  0  0  0  0  0  0
  154.0733  141.7143  160.5543 C   0  0  0  0  0  0  0  0  0  0  0  0
  153.2766  141.7775  159.2371 C   0  0  2  0  0  0  0  0  0  0  0  0
  152.3957  143.0147  159.1127 C   0  0  0  0  0  0  0  0  0  0  0  0
  152.4368  144.0185  160.1067 C   0  0  0  0  0  0  0  0  0  0  0  0
  151.6201  145.1608  159.9760 C   0  0  0  0  0  0  0  0  0  0  0  0
  150.7765  145.2768  158.8530 C   0  0  0  0  0  0  0  0  0  0  0  0
  150.7619  144.2993  157.9207 N   0  3  0  0  0  0  0  0  0  0  0  0
  151.5299  143.1914  158.0089 C   0  0  0  0  0  0  0  0  0  0  0  0
  151.2629  140.1619  157.7256 H   0  0  0  0  0  0  0  0  0  0  0  0
  151.5925  140.5031  159.7740 H   0  0  0  0  0  0  0  0  0  0  0  0
  152.9582  138.5508  160.1801 H   0  0  0  0  0  0  0  0  0  0  0  0
  154.2235  139.1420  159.1083 H   0  0  0  0  0  0  0  0  0  0  0  0
  153.5842  140.0837  161.8893 H   0  0  0  0  0  0  0  0  0  0  0  0
  155.1573  139.8952  161.1298 H   0  0  0  0  0  0  0  0  0  0  0  0
  153.5796  142.2716  161.3512 H   0  0  0  0  0  0  0  0  0  0  0  0
  155.0660  142.1492  160.4336 H   0  0  0  0  0  0  0  0  0  0  0  0
  154.0039  141.7802  158.4229 H   0  0  0  0  0  0  0  0  0  0  0  0
  153.0884  143.9190  160.9629 H   0  0  0  0  0  0  0  0  0  0  0  0
  151.6417  145.9371  160.7271 H   0  0  0  0  0  0  0  0  0  0  0  0
  150.1186  146.1146  158.6733 H   0  0  0  0  0  0  0  0  0  0  0  0
  151.4275  142.4841  157.1987 H   0  0  0  0  0  0  0  0  0  0  0  0
  150.1442  144.4024  157.1150 H   0  0  0  0  0  0  0  0  0  0  0  0
  1  2  1  0  0  0  0
  1 13  1  0  0  0  0
  2  6  1  0  0  0  0
  2  3  1  0  0  0  0
  2 14  1  0  0  0  0
  3  4  1  0  0  0  0
  3 15  1  0  0  0  0
  3 16  1  0  0  0  0
  4  5  1  0  0  0  0
  4 17  1  0  0  0  0
  4 18  1  0  0  0  0
  5  6  1  0  0  0  0
  5 19  1  0  0  0  0
  5 20  1  0  0  0  0
  6  7  1  0  0  0  0
  6 21  1  0  0  0  0
  7 12  1  0  0  0  0
  7  8  2  0  0  0  0
  8  9  1  0  0  0  0
  8 22  1  0  0  0  0
  9 10  2  0  0  0  0
  9 23  1  0  0  0  0
 10 11  1  0  0  0  0
 10 24  1  0  0  0  0
 11 12  2  0  0  0  0
 11 26  1  0  0  0  0
 12 25  1  0  0  0  0
M  CHG  1  11   1
M  END
> <s_m_source_file>
AV-unprocessed.smi

> <i_m_source_file_index>
2724

> <i_lp_mmshare_version>
43012

> <i_f3d_flags>
0

> <s_epik_input>
W09IXVtDQEBIXTFbQ0gyXVtDSDJdW0NIMl1bQ0BIXTFjMltjSF1bY0hdW2NIXW5bY0hdMg==

> <s_epik_cmdline>
J2VwaWtfcHl0aG9uJywgJy1waCcsICc3LjAnLCAnLXRuJywgJzgnLCAnLW1hJywgJzIwMCcsICctbWV0YWxfYmluZGluZycsICctaW1hZScsICc8aW5maWxlLm1hZT4nLCAnLW9tYWUnLCAnPG91dGZpbGUubWFlPic=

> <r_epik_Ionization_Penalty>
2.09455

> <r_epik_Ionization_Penalty_Charging>
2.09455

> <r_epik_Ionization_Penalty_Neutral>
5.26757e-08

> <r_epik_State_Penalty>
2.23025

> <r_epik_Charging_Adjusted_Penalty>
4.3248

> <i_epik_Tot_Q>
1

> <i_epik_Tot_abs_Q>
1

> <r_epik_Metal_State_Penalty>
6.30911

> <b_epik_Metal_Only>
0

> <s_lp_Force_Field>
OPLS_2005

> <r_lp_Energy>
27.5939

> <b_lp_Chiralities_Consistent>
1

> <s_lp_Variant>
AV-unprocessed.smi:2724-8

> <Gold.Version>
5.8.1

> <Gold.Id.Protein>
6NUR|6NUR_protein|mol2

> <Gold.PLP.Fitness>
40.5530

> <Gold.PLP.PLP>
-31.6539

> <Gold.PLP.part.hbond>
-2.0000

> <Gold.PLP.part.metal>
0.0000

> <Gold.PLP.part.buried>
-3.4622

> <Gold.PLP.part.nonpolar>
-25.9141

> <Gold.PLP.part.repulsive>
0.0641

> <Gold.PLP.ligand.clash>
0.0000

> <Gold.PLP.ligand.torsion>
0.0386

> <Gold.PLP.Chemscore.Hbond>
2.9920

> <Gold.PLP.Chemscore.CHOScore>
0.0000

> <Gold.PLP.Chemscore.Metal>
0.0000

> <Gold.Chemscore.Hbonds>
donor molecule, donor type, donor heavy atom, donor atom, acceptor molecule, acceptor atom, score
      L1  H    11    26       P1  8028  2.00

> <Gold.PLP.Chemscore.Internal.Correction>
0.0001

> <Gold.Rescore>
     Score         DG    S(hbond)    S(metal)    S(lipo)     H(rot)  DE(clash)    DE(int)     intcor
     19.97     -20.30       1.89        0.00     102.33       1.35       0.04       0.29       ----

> <Gold.Chemscore.Fitness>
19.9733

> <Gold.Chemscore.DG>
-20.3040

> <Gold.Chemscore.ZeroCoef>
-5.4800

> <Gold.Chemscore.Hbond>
1.8883

> <Gold.Chemscore.Metal>
0.0000

> <Gold.Chemscore.Lipo>
102.3258

> <Gold.Chemscore.Internal_Hbond>
0.0000

> <Gold.Chemscore.DEClash>
0.0389

> <Gold.Chemscore.DEInternal>
0.2919

> <Gold.Chemscore.Rot>
1.3496

> <Gold.Chemscore.Internal.Correction>
   9.000000E+99

> <Gold.Chemscore.Hbonds>
donor molecule, donor type, donor heavy atom, donor atom, acceptor molecule, acceptor atom, score
      L1  H    11    26       P1  8028  0.70
      P1  H  7997  8008       L1     1  0.01

> <Gold.Chemscore.Hbond.Weighted>
-6.3069

> <Gold.Chemscore.Metal.Weighted>
-0.0000

> <Gold.Chemscore.Lipo.Weighted>
-11.9721

> <Gold.Chemscore.Internal_Hbond.Weighted>
0.0000

> <Gold.Chemscore.DEClash.Weighted>
0.0389

> <Gold.Chemscore.DEInternal.Weighted>
0.2919

> <Gold.Chemscore.Rot.Weighted>
3.4550

> <Gold.Chemscore.Internal.Correction.Weighted>
   9.000000E+99

> <Gold.Protein.RotatedTorsions>
[ 6907 6896 6895 6894 ] final -109.62 input  -60.11 | X-H torsion
[ 7974 7965 7964 7962 ] final    5.48 input  175.53 | X-H torsion
[ 8008 7997 7996 7995 ] final  -66.92 input   59.86 | X-H torsion
[ 10167 10162 10161 10158 ] final  -15.61 input  -65.29 | X-H torsion
[ 10718 10713 10712 10709 ] final  -70.09 input   66.30 | X-H torsion
[ 10763 10752 10751 10750 ] final  179.29 input  -60.55 | X-H torsion
[ 11005 11000 10999 10996 ] final   65.05 input  -57.11 | X-H torsion

> <Gold.Protein.ActiveResidues>
 VAL166  LYS551  ARG553  GLY616  TRP617  ASP618  TYR619  PRO620  LYS621  CYS622 
 ASP623  PHE694  ASN695  SER759  ASP760  ASP761  ALA762  ILE779  LEU786  VAL792 
 PHE793  MET794  SER795  GLU796  ALA797  LYS798  CYS799  TRP800  GLU811  SER814 

> <Gold.Protein.RotatedAtoms>
  150.7573  133.9503  159.3483 H   0  0  0  0  0  0  0  0  0  0  0  0  # atno 6907 bound_to 6896
  151.7419  135.0850  160.0326 H   0  0  0  0  0  0  0  0  0  0  0  0  # atno 6908 bound_to 6896
  152.3523  133.6157  159.5989 H   0  0  0  0  0  0  0  0  0  0  0  0  # atno 6909 bound_to 6896
  146.2440  140.0377  142.8384 H   0  0  0  0  0  0  0  0  0  0  0  0  # atno 7974 bound_to 7965
  154.4766  140.0903  156.7276 H   0  0  0  0  0  0  0  0  0  0  0  0  # atno 8008 bound_to 7997
  155.4581  140.3460  155.4291 H   0  0  0  0  0  0  0  0  0  0  0  0  # atno 8009 bound_to 7997
  156.1126  140.1452  156.9306 H   0  0  0  0  0  0  0  0  0  0  0  0  # atno 8010 bound_to 7997
  140.7221  143.5200  150.9645 H   0  0  0  0  0  0  0  0  0  0  0  0  # atno 10167 bound_to 10162
  156.0424  130.4325  150.2244 H   0  0  0  0  0  0  0  0  0  0  0  0  # atno 10718 bound_to 10713
  154.5188  135.2792  155.1280 H   0  0  0  0  0  0  0  0  0  0  0  0  # atno 10763 bound_to 10752
  154.2846  135.6279  153.5364 H   0  0  0  0  0  0  0  0  0  0  0  0  # atno 10764 bound_to 10752
  152.9933  135.5659  154.5672 H   0  0  0  0  0  0  0  0  0  0  0  0  # atno 10765 bound_to 10752
  139.9919  134.6578  156.0076 H   0  0  0  0  0  0  0  0  0  0  0  0  # atno 11005 bound_to 11000
  145.1097  140.9397  143.4663 LP  0  0  0  0  0  0  0  0  0  0  0  0  # atno 17320 bound_to 7965
  145.0588  139.3122  143.5891 LP  0  0  0  0  0  0  0  0  0  0  0  0  # atno 17321 bound_to 7965
  139.8917  143.6944  152.3144 LP  0  0  0  0  0  0  0  0  0  0  0  0  # atno 17342 bound_to 10162
  139.7263  144.7592  151.0874 LP  0  0  0  0  0  0  0  0  0  0  0  0  # atno 17343 bound_to 10162
  157.0337  131.0015  151.3304 LP  0  0  0  0  0  0  0  0  0  0  0  0  # atno 17370 bound_to 10713
  157.5259  130.8027  149.7861 LP  0  0  0  0  0  0  0  0  0  0  0  0  # atno 17371 bound_to 10713
  141.1573  133.6541  156.4202 LP  0  0  0  0  0  0  0  0  0  0  0  0  # atno 17394 bound_to 11000
  140.4892  134.6591  157.5203 LP  0  0  0  0  0  0  0  0  0  0  0  0  # atno 17395 bound_to 11000

$$$$
