AV-unprocessed.smi:1088|AV-procd|sdf|4729|dock10
  -GOLD-   22720 3263D 1   1.00000     0.00000
 Structure written by MMmdl.
 48 49  0  0  0  0  0  0  0  0  2 V2000
  147.0104  133.1091  153.3903 C   0  0  0  0  0  0  0  0  0  0  0  0
  147.4188  134.4157  153.7557 O   0  0  0  0  0  0  0  0  0  0  0  0
  146.3244  135.3034  153.9116 C   0  0  0  0  0  0  0  0  0  0  0  0
  146.8509  136.6684  154.3834 C   0  0  0  0  0  0  0  0  0  0  0  0
  147.2415  137.5526  153.2519 N   0  3  1  0  0  0  0  0  0  0  0  0
  146.1110  137.9709  152.3882 C   0  0  0  0  0  0  0  0  0  0  0  0
  146.5066  139.3201  151.7993 C   0  0  0  0  0  0  0  0  0  0  0  0
  147.2795  139.9541  152.9439 C   0  0  0  0  0  0  0  0  0  0  0  0
  148.0460  138.7748  153.5643 C   0  0  1  0  0  0  0  0  0  0  0  0
  148.4323  138.9884  155.0501 C   0  0  0  0  0  0  0  0  0  0  0  0
  149.3810  140.0877  155.2035 N   0  0  0  0  0  0  0  0  0  0  0  0
  149.9197  140.4936  156.3635 C   0  0  0  0  0  0  0  0  0  0  0  0
  149.7107  139.9317  157.4393 O   0  0  0  0  0  0  0  0  0  0  0  0
  150.8345  141.7232  156.2936 C   0  0  0  0  0  0  0  0  0  0  0  0
  151.3732  142.0999  157.6072 N   0  0  0  0  0  0  0  0  0  0  0  0
  150.9860  143.2924  158.1911 C   0  0  0  0  0  0  0  0  0  0  0  0
  151.4518  143.7233  159.3835 C   0  0  0  0  0  0  0  0  0  0  0  0
  152.4124  142.9318  160.1420 C   0  0  0  0  0  0  0  0  0  0  0  0
  152.8838  143.2961  161.2200 O   0  0  0  0  0  0  0  0  0  0  0  0
  152.7777  141.7084  159.5325 N   0  0  0  0  0  0  0  0  0  0  0  0
  153.7498  140.8809  160.2171 C   0  0  0  0  0  0  0  0  0  0  0  0
  152.2997  141.2702  158.2764 C   0  0  0  0  0  0  0  0  0  0  0  0
  152.6750  140.2125  157.7641 O   0  0  0  0  0  0  0  0  0  0  0  0
  147.8855  132.4694  153.2776 H   0  0  0  0  0  0  0  0  0  0  0  0
  146.4737  133.1144  152.4406 H   0  0  0  0  0  0  0  0  0  0  0  0
  146.3675  132.6685  154.1536 H   0  0  0  0  0  0  0  0  0  0  0  0
  145.7619  135.3923  152.9813 H   0  0  0  0  0  0  0  0  0  0  0  0
  145.6383  134.9044  154.6603 H   0  0  0  0  0  0  0  0  0  0  0  0
  146.0919  137.1637  154.9905 H   0  0  0  0  0  0  0  0  0  0  0  0
  147.7103  136.4852  155.0277 H   0  0  0  0  0  0  0  0  0  0  0  0
  145.8991  137.2306  151.6160 H   0  0  0  0  0  0  0  0  0  0  0  0
  145.2104  138.0950  152.9920 H   0  0  0  0  0  0  0  0  0  0  0  0
  147.1602  139.1800  150.9371 H   0  0  0  0  0  0  0  0  0  0  0  0
  145.6489  139.9151  151.4843 H   0  0  0  0  0  0  0  0  0  0  0  0
  147.9355  140.7601  152.6137 H   0  0  0  0  0  0  0  0  0  0  0  0
  146.5748  140.3700  153.6657 H   0  0  0  0  0  0  0  0  0  0  0  0
  148.9708  138.6552  152.9978 H   0  0  0  0  0  0  0  0  0  0  0  0
  147.5465  139.1595  155.6640 H   0  0  0  0  0  0  0  0  0  0  0  0
  148.9208  138.0985  155.4462 H   0  0  0  0  0  0  0  0  0  0  0  0
  149.6189  140.6036  154.3686 H   0  0  0  0  0  0  0  0  0  0  0  0
  151.6476  141.5037  155.6006 H   0  0  0  0  0  0  0  0  0  0  0  0
  150.2961  142.5685  155.8606 H   0  0  0  0  0  0  0  0  0  0  0  0
  150.2798  143.9186  157.6656 H   0  0  0  0  0  0  0  0  0  0  0  0
  151.1129  144.6693  159.7797 H   0  0  0  0  0  0  0  0  0  0  0  0
  153.5962  139.8339  159.9535 H   0  0  0  0  0  0  0  0  0  0  0  0
  153.6120  140.9784  161.2949 H   0  0  0  0  0  0  0  0  0  0  0  0
  154.7354  141.2297  159.9069 H   0  0  0  0  0  0  0  0  0  0  0  0
  147.8438  136.9920  152.6658 H   0  0  0  0  0  0  0  0  0  0  0  0
  1  2  1  0  0  0  0
  1 24  1  0  0  0  0
  1 25  1  0  0  0  0
  1 26  1  0  0  0  0
  2  3  1  0  0  0  0
  3  4  1  0  0  0  0
  3 27  1  0  0  0  0
  3 28  1  0  0  0  0
  4  5  1  0  0  0  0
  4 29  1  0  0  0  0
  4 30  1  0  0  0  0
  5  9  1  0  0  0  0
  5  6  1  0  0  0  0
  5 48  1  0  0  0  0
  6  7  1  0  0  0  0
  6 31  1  0  0  0  0
  6 32  1  0  0  0  0
  7  8  1  0  0  0  0
  7 33  1  0  0  0  0
  7 34  1  0  0  0  0
  8  9  1  0  0  0  0
  8 35  1  0  0  0  0
  8 36  1  0  0  0  0
  9 10  1  0  0  0  0
  9 37  1  0  0  0  0
 10 11  1  0  0  0  0
 10 38  1  0  0  0  0
 10 39  1  0  0  0  0
 11 12  1  0  0  0  0
 11 40  1  0  0  0  0
 12 13  2  0  0  0  0
 12 14  1  0  0  0  0
 14 15  1  0  0  0  0
 14 41  1  0  0  0  0
 14 42  1  0  0  0  0
 15 22  1  0  0  0  0
 15 16  1  0  0  0  0
 16 17  2  0  0  0  0
 16 43  1  0  0  0  0
 17 18  1  0  0  0  0
 17 44  1  0  0  0  0
 18 19  2  0  0  0  0
 18 20  1  0  0  0  0
 20 21  1  0  0  0  0
 20 22  1  0  0  0  0
 21 45  1  0  0  0  0
 21 46  1  0  0  0  0
 21 47  1  0  0  0  0
 22 23  2  0  0  0  0
M  CHG  1   5   1
M  END
> <s_m_source_file>
AV-unprocessed.smi

> <i_m_source_file_index>
1088

> <i_lp_mmshare_version>
43012

> <i_f3d_flags>
0

> <s_epik_input>
W0NIM11PW0NIMl1bQ0gyXU4xW0NIMl1bQ0gyXVtDSDJdW0NASF0xW0NIMl1bTkhdQyg9TylbQ0gyXW4yW2NIXVtjSF1jKD1PKW4oW0NIM10pYzI9Tw==

> <s_epik_cmdline>
J2VwaWtfcHl0aG9uJywgJy1waCcsICc3LjAnLCAnLXRuJywgJzgnLCAnLW1hJywgJzIwMCcsICctbWV0YWxfYmluZGluZycsICctaW1hZScsICc8aW5maWxlLm1hZT4nLCAnLW9tYWUnLCAnPG91dGZpbGUubWFlPic=

> <r_lp_tautomer_probability>
1

> <r_epik_Ionization_Penalty>
0.0127388

> <r_epik_Ionization_Penalty_Charging>
0.0127387

> <r_epik_Ionization_Penalty_Neutral>
8.26414e-08

> <r_epik_State_Penalty>
0.00987716

> <r_epik_Charging_Adjusted_Penalty>
0.0226159

> <i_epik_Tot_Q>
1

> <i_epik_Tot_abs_Q>
1

> <r_epik_Metal_State_Penalty>
0.00987836

> <b_epik_Metal_Only>
0

> <s_lp_Force_Field>
OPLS_2005

> <r_lp_Energy>
40.5069

> <b_lp_Chiralities_Consistent>
1

> <s_lp_Variant>
AV-unprocessed.smi:1088-2

> <Gold.Version>
5.8.1

> <Gold.Id.Protein>
6NUR|6NUR_protein|mol2

> <Gold.PLP.Fitness>
45.9751

> <Gold.PLP.PLP>
-34.4215

> <Gold.PLP.part.hbond>
-2.0000

> <Gold.PLP.part.metal>
0.0000

> <Gold.PLP.part.buried>
0.8956

> <Gold.PLP.part.nonpolar>
-34.0285

> <Gold.PLP.part.repulsive>
0.9746

> <Gold.PLP.ligand.clash>
0.0000

> <Gold.PLP.ligand.torsion>
0.2974

> <Gold.PLP.Chemscore.Hbond>
2.9833

> <Gold.PLP.Chemscore.CHOScore>
1.0000

> <Gold.PLP.Chemscore.Metal>
0.0000

> <Gold.Chemscore.Hbonds>
donor molecule, donor type, donor heavy atom, donor atom, acceptor molecule, acceptor atom, score
      L1  H     5    48       P1  7948  2.00
      P1  H  7997  8010       L1    23  0.99
      L1  C    16    43       P1  8028  0.96

> <Gold.PLP.Chemscore.Internal.Correction>
0.1984

> <Gold.Rescore>
     Score         DG    S(hbond)    S(metal)    S(lipo)     H(rot)  DE(clash)    DE(int)     intcor
     12.55     -14.03       1.93        0.00      74.08       2.57       0.92       0.56       ----

> <Gold.Chemscore.Fitness>
12.5514

> <Gold.Chemscore.DG>
-14.0264

> <Gold.Chemscore.ZeroCoef>
-5.4800

> <Gold.Chemscore.Hbond>
1.9330

> <Gold.Chemscore.Metal>
0.0000

> <Gold.Chemscore.Lipo>
74.0803

> <Gold.Chemscore.Internal_Hbond>
0.0000

> <Gold.Chemscore.DEClash>
0.9162

> <Gold.Chemscore.DEInternal>
0.5589

> <Gold.Chemscore.Rot>
2.5692

> <Gold.Chemscore.Internal.Correction>
   9.000000E+99

> <Gold.Chemscore.Hbonds>
donor molecule, donor type, donor heavy atom, donor atom, acceptor molecule, acceptor atom, score
      L1  H     5    48       P1  7948  0.96
      P1  H  7997  8010       L1    23  0.89

> <Gold.Chemscore.Hbond.Weighted>
-6.4562

> <Gold.Chemscore.Metal.Weighted>
-0.0000

> <Gold.Chemscore.Lipo.Weighted>
-8.6674

> <Gold.Chemscore.Internal_Hbond.Weighted>
0.0000

> <Gold.Chemscore.DEClash.Weighted>
0.9162

> <Gold.Chemscore.DEInternal.Weighted>
0.5589

> <Gold.Chemscore.Rot.Weighted>
6.5772

> <Gold.Chemscore.Internal.Correction.Weighted>
   9.000000E+99

> <Gold.Protein.RotatedTorsions>
[ 6907 6896 6895 6894 ] final   84.69 input  -60.11 | X-H torsion
[ 7974 7965 7964 7962 ] final -146.28 input  175.53 | X-H torsion
[ 8008 7997 7996 7995 ] final   49.22 input   59.86 | X-H torsion
[ 10167 10162 10161 10158 ] final  -84.63 input  -65.29 | X-H torsion
[ 10718 10713 10712 10709 ] final   -2.62 input   66.30 | X-H torsion
[ 10763 10752 10751 10750 ] final  138.98 input  -60.55 | X-H torsion
[ 11005 11000 10999 10996 ] final   99.14 input  -57.11 | X-H torsion

> <Gold.Protein.ActiveResidues>
 VAL166  LYS551  ARG553  GLY616  TRP617  ASP618  TYR619  PRO620  LYS621  CYS622 
 ASP623  PHE694  ASN695  SER759  ASP760  ASP761  ALA762  ILE779  LEU786  VAL792 
 PHE793  MET794  SER795  GLU796  ALA797  LYS798  CYS799  TRP800  GLU811  SER814 

> <Gold.Protein.RotatedAtoms>
  152.5358  134.2701  159.8967 H   0  0  0  0  0  0  0  0  0  0  0  0  # atno 6907 bound_to 6896
  151.2658  133.4273  159.2626 H   0  0  0  0  0  0  0  0  0  0  0  0  # atno 6908 bound_to 6896
  151.0412  134.9623  159.8219 H   0  0  0  0  0  0  0  0  0  0  0  0  # atno 6909 bound_to 6896
  144.8170  140.5476  143.5604 H   0  0  0  0  0  0  0  0  0  0  0  0  # atno 7974 bound_to 7965
  155.3985  140.3437  155.4255 H   0  0  0  0  0  0  0  0  0  0  0  0  # atno 8008 bound_to 7997
  156.1517  140.1573  156.8791 H   0  0  0  0  0  0  0  0  0  0  0  0  # atno 8009 bound_to 7997
  154.5058  140.0802  156.7872 H   0  0  0  0  0  0  0  0  0  0  0  0  # atno 8010 bound_to 7997
  140.4114  143.2621  151.9012 H   0  0  0  0  0  0  0  0  0  0  0  0  # atno 10167 bound_to 10162
  156.7881  130.5352  149.5740 H   0  0  0  0  0  0  0  0  0  0  0  0  # atno 10718 bound_to 10713
  153.8985  135.3025  155.3448 H   0  0  0  0  0  0  0  0  0  0  0  0  # atno 10763 bound_to 10752
  154.7682  135.4900  153.9599 H   0  0  0  0  0  0  0  0  0  0  0  0  # atno 10764 bound_to 10752
  153.1258  135.6792  153.9359 H   0  0  0  0  0  0  0  0  0  0  0  0  # atno 10765 bound_to 10752
  139.8771  134.9082  156.4561 H   0  0  0  0  0  0  0  0  0  0  0  0  # atno 11005 bound_to 11000
  145.5191  139.1477  143.3562 LP  0  0  0  0  0  0  0  0  0  0  0  0  # atno 17320 bound_to 7965
  146.2474  140.5332  142.8908 LP  0  0  0  0  0  0  0  0  0  0  0  0  # atno 17321 bound_to 7965
  139.4782  144.5533  151.8353 LP  0  0  0  0  0  0  0  0  0  0  0  0  # atno 17342 bound_to 10162
  140.4633  144.1690  150.5909 LP  0  0  0  0  0  0  0  0  0  0  0  0  # atno 17343 bound_to 10162
  156.1176  130.6086  151.0144 LP  0  0  0  0  0  0  0  0  0  0  0  0  # atno 17370 bound_to 10713
  157.6614  131.0880  150.7830 LP  0  0  0  0  0  0  0  0  0  0  0  0  # atno 17371 bound_to 10713
  140.8897  133.7857  155.9558 LP  0  0  0  0  0  0  0  0  0  0  0  0  # atno 17394 bound_to 11000
  140.8766  134.2662  157.5165 LP  0  0  0  0  0  0  0  0  0  0  0  0  # atno 17395 bound_to 11000

$$$$
