AV-unprocessed.smi:2061|AV-procd|sdf|8375|dock6
  -GOLD-   2272011 53D 1   1.00000     0.00000
 Structure written by MMmdl.
 44 45  0  0  0  0  0  0  0  0  2 V2000
  147.1420  133.8725  162.4952 C   0  0  0  0  0  0  0  0  0  0  0  0
  147.5460  134.9866  161.5913 C   0  0  0  0  0  0  0  0  0  0  0  0
  148.0728  135.0138  160.3314 C   0  0  0  0  0  0  0  0  0  0  0  0
  148.2105  136.4041  160.0672 C   0  0  0  0  0  0  0  0  0  0  0  0
  148.7054  136.9489  158.9452 N   0  5  0  0  0  0  0  0  0  0  0  0
  149.9996  137.3402  158.8906 C   0  0  0  0  0  0  0  0  0  0  0  0
  150.8719  137.0952  159.7268 O   0  0  0  0  0  0  0  0  0  0  0  0
  150.2942  138.0679  157.8028 N   0  0  0  0  0  0  0  0  0  0  0  0
  151.5964  138.6378  157.4606 C   0  0  0  0  0  0  0  0  0  0  0  0
  151.5255  140.1541  157.1208 C   0  0  1  0  0  0  0  0  0  0  0  0
  150.2620  140.4235  156.2639 C   0  0  0  0  0  0  0  0  0  0  0  0
  151.6015  141.0266  158.3175 N   0  0  0  0  0  0  0  0  0  0  0  0
  151.6747  142.4506  157.9720 C   0  0  0  0  0  0  0  0  0  0  0  0
  151.7736  143.3653  159.2076 C   0  0  2  0  0  0  0  0  0  0  0  0
  151.9269  144.8413  158.8250 C   0  0  0  0  0  0  0  0  0  0  0  0
  152.9062  142.9864  159.9790 O   0  0  0  0  0  0  0  0  0  0  0  0
  152.8465  141.6325  160.4093 C   0  0  2  0  0  0  0  0  0  0  0  0
  154.0940  141.3407  161.2500 C   0  0  0  0  0  0  0  0  0  0  0  0
  152.7476  140.7122  159.1775 C   0  0  0  0  0  0  0  0  0  0  0  0
  147.8182  137.1535  161.0839 N   0  0  0  0  0  0  0  0  0  0  0  0
  147.3848  136.2520  162.0633 O   0  0  0  0  0  0  0  0  0  0  0  0
  148.0187  133.3437  162.8695 H   0  0  0  0  0  0  0  0  0  0  0  0
  146.5143  133.1553  161.9662 H   0  0  0  0  0  0  0  0  0  0  0  0
  146.5800  134.2451  163.3518 H   0  0  0  0  0  0  0  0  0  0  0  0
  148.3174  134.1751  159.6970 H   0  0  0  0  0  0  0  0  0  0  0  0
  149.5425  138.2407  157.1519 H   0  0  0  0  0  0  0  0  0  0  0  0
  152.3342  138.4634  158.2452 H   0  0  0  0  0  0  0  0  0  0  0  0
  151.9231  138.0563  156.6009 H   0  0  0  0  0  0  0  0  0  0  0  0
  152.3877  140.3763  156.4897 H   0  0  0  0  0  0  0  0  0  0  0  0
  150.1988  139.7642  155.3994 H   0  0  0  0  0  0  0  0  0  0  0  0
  150.2471  141.4291  155.8469 H   0  0  0  0  0  0  0  0  0  0  0  0
  149.3524  140.2847  156.8489 H   0  0  0  0  0  0  0  0  0  0  0  0
  152.5299  142.6269  157.3175 H   0  0  0  0  0  0  0  0  0  0  0  0
  150.7868  142.7561  157.4217 H   0  0  0  0  0  0  0  0  0  0  0  0
  150.8749  143.2546  159.8170 H   0  0  0  0  0  0  0  0  0  0  0  0
  151.0746  145.1854  158.2386 H   0  0  0  0  0  0  0  0  0  0  0  0
  152.8285  145.0037  158.2335 H   0  0  0  0  0  0  0  0  0  0  0  0
  151.9938  145.4693  159.7137 H   0  0  0  0  0  0  0  0  0  0  0  0
  151.9635  141.4982  161.0367 H   0  0  0  0  0  0  0  0  0  0  0  0
  154.0878  140.3145  161.6180 H   0  0  0  0  0  0  0  0  0  0  0  0
  154.1456  142.0036  162.1141 H   0  0  0  0  0  0  0  0  0  0  0  0
  155.0044  141.4817  160.6667 H   0  0  0  0  0  0  0  0  0  0  0  0
  152.6761  139.6935  159.5531 H   0  0  0  0  0  0  0  0  0  0  0  0
  153.6702  140.7743  158.5979 H   0  0  0  0  0  0  0  0  0  0  0  0
  1  2  1  0  0  0  0
  1 22  1  0  0  0  0
  1 23  1  0  0  0  0
  1 24  1  0  0  0  0
  2 21  1  0  0  0  0
  2  3  2  0  0  0  0
  3  4  1  0  0  0  0
  3 25  1  0  0  0  0
  4  5  1  0  0  0  0
  4 20  2  0  0  0  0
  5  6  1  0  0  0  0
  6  7  2  0  0  0  0
  6  8  1  0  0  0  0
  8  9  1  0  0  0  0
  8 26  1  0  0  0  0
  9 10  1  0  0  0  0
  9 27  1  0  0  0  0
  9 28  1  0  0  0  0
 10 11  1  0  0  0  0
 10 12  1  0  0  0  0
 10 29  1  0  0  0  0
 11 30  1  0  0  0  0
 11 31  1  0  0  0  0
 11 32  1  0  0  0  0
 12 19  1  0  0  0  0
 12 13  1  0  0  0  0
 13 14  1  0  0  0  0
 13 33  1  0  0  0  0
 13 34  1  0  0  0  0
 14 15  1  0  0  0  0
 14 16  1  0  0  0  0
 14 35  1  0  0  0  0
 15 36  1  0  0  0  0
 15 37  1  0  0  0  0
 15 38  1  0  0  0  0
 16 17  1  0  0  0  0
 17 18  1  0  0  0  0
 17 19  1  0  0  0  0
 17 39  1  0  0  0  0
 18 40  1  0  0  0  0
 18 41  1  0  0  0  0
 18 42  1  0  0  0  0
 19 43  1  0  0  0  0
 19 44  1  0  0  0  0
 20 21  1  0  0  0  0
M  CHG  1   5  -1
M  END
> <s_m_source_file>
AV-unprocessed.smi

> <i_m_source_file_index>
2061

> <i_lp_mmshare_version>
43012

> <i_f3d_flags>
0

> <s_epik_input>
W0NIM11jMVtjSF1jKG5vMSlbTkhdQyg9TylbTkhdW0NIMl1bQ0BIXShbQ0gzXSlOMltDSDJdW0NAQEhdKFtDSDNdKU9bQ0BASF0oW0NIM10pW0NIMl0y

> <s_epik_cmdline>
J2VwaWtfcHl0aG9uJywgJy1waCcsICc3LjAnLCAnLXRuJywgJzgnLCAnLW1hJywgJzIwMCcsICctbWV0YWxfYmluZGluZycsICctaW1hZScsICc8aW5maWxlLm1hZT4nLCAnLW9tYWUnLCAnPG91dGZpbGUubWFlPic=

> <r_epik_Ionization_Penalty>
6.88367

> <r_epik_Ionization_Penalty_Charging>
6.57198

> <r_epik_Ionization_Penalty_Neutral>
0.311681

> <r_epik_State_Penalty>
6.77619

> <r_epik_Charging_Adjusted_Penalty>
13.3482

> <i_epik_Tot_Q>
-1

> <i_epik_Tot_abs_Q>
1

> <r_epik_Metal_State_Penalty>
2.70524

> <b_epik_Metal_Only>
1

> <s_lp_Force_Field>
OPLS_2005

> <r_lp_Energy>
21.0449

> <b_lp_Chiralities_Consistent>
1

> <s_lp_Variant>
AV-unprocessed.smi:2061-16

> <Gold.Version>
5.8.1

> <Gold.Id.Protein>
6NUR|6NUR_protein|mol2

> <Gold.PLP.Fitness>
46.7352

> <Gold.PLP.PLP>
-40.4659

> <Gold.PLP.part.hbond>
-3.0000

> <Gold.PLP.part.metal>
0.0000

> <Gold.PLP.part.buried>
-6.7904

> <Gold.PLP.part.nonpolar>
-31.4606

> <Gold.PLP.part.repulsive>
0.0645

> <Gold.PLP.ligand.clash>
0.0000

> <Gold.PLP.ligand.torsion>
1.0573

> <Gold.PLP.Chemscore.Hbond>
2.7673

> <Gold.PLP.Chemscore.CHOScore>
0.0000

> <Gold.PLP.Chemscore.Metal>
0.0000

> <Gold.Chemscore.Hbonds>
donor molecule, donor type, donor heavy atom, donor atom, acceptor molecule, acceptor atom, score
      P1  H  6896  6907       L1     7  1.00
      P1  H  6931  6943       L1    20  0.96
      P1  H  6934  6947       L1    20  0.82

> <Gold.PLP.Chemscore.Internal.Correction>
0.0822

> <Gold.Rescore>
     Score         DG    S(hbond)    S(metal)    S(lipo)     H(rot)  DE(clash)    DE(int)     intcor
     20.28     -21.36       2.54        0.00      96.54       1.52       0.00       1.08       ----

> <Gold.Chemscore.Fitness>
20.2788

> <Gold.Chemscore.DG>
-21.3630

> <Gold.Chemscore.ZeroCoef>
-5.4800

> <Gold.Chemscore.Hbond>
2.5377

> <Gold.Chemscore.Metal>
0.0000

> <Gold.Chemscore.Lipo>
96.5446

> <Gold.Chemscore.Internal_Hbond>
0.0000

> <Gold.Chemscore.DEClash>
0.0009

> <Gold.Chemscore.DEInternal>
1.0832

> <Gold.Chemscore.Rot>
1.5190

> <Gold.Chemscore.Internal.Correction>
   9.000000E+99

> <Gold.Chemscore.Hbonds>
donor molecule, donor type, donor heavy atom, donor atom, acceptor molecule, acceptor atom, score
      P1  H  6896  6907       L1     7  0.70
      P1  H  6931  6943       L1    20  0.49
      P1  H  6934  6947       L1    20  0.79

> <Gold.Chemscore.Hbond.Weighted>
-8.4759

> <Gold.Chemscore.Metal.Weighted>
-0.0000

> <Gold.Chemscore.Lipo.Weighted>
-11.2957

> <Gold.Chemscore.Internal_Hbond.Weighted>
0.0000

> <Gold.Chemscore.DEClash.Weighted>
0.0009

> <Gold.Chemscore.DEInternal.Weighted>
1.0832

> <Gold.Chemscore.Rot.Weighted>
3.8886

> <Gold.Chemscore.Internal.Correction.Weighted>
   9.000000E+99

> <Gold.Protein.RotatedTorsions>
[ 6907 6896 6895 6894 ] final  -25.78 input  -60.11 | X-H torsion
[ 7974 7965 7964 7962 ] final   13.59 input  175.53 | X-H torsion
[ 8008 7997 7996 7995 ] final   83.61 input   59.86 | X-H torsion
[ 10167 10162 10161 10158 ] final  -83.79 input  -65.29 | X-H torsion
[ 10718 10713 10712 10709 ] final  165.16 input   66.30 | X-H torsion
[ 10763 10752 10751 10750 ] final  -45.02 input  -60.55 | X-H torsion
[ 11005 11000 10999 10996 ] final  -97.51 input  -57.11 | X-H torsion

> <Gold.Protein.ActiveResidues>
 VAL166  LYS551  ARG553  GLY616  TRP617  ASP618  TYR619  PRO620  LYS621  CYS622 
 ASP623  PHE694  ASN695  SER759  ASP760  ASP761  ALA762  ILE779  LEU786  VAL792 
 PHE793  MET794  SER795  GLU796  ALA797  LYS798  CYS799  TRP800  GLU811  SER814 

> <Gold.Protein.RotatedAtoms>
  151.1703  135.0314  159.8748 H   0  0  0  0  0  0  0  0  0  0  0  0  # atno 6907 bound_to 6896
  152.5449  134.1179  159.8396 H   0  0  0  0  0  0  0  0  0  0  0  0  # atno 6908 bound_to 6896
  151.1284  133.5008  159.2632 H   0  0  0  0  0  0  0  0  0  0  0  0  # atno 6909 bound_to 6896
  146.2326  139.9166  142.8516 H   0  0  0  0  0  0  0  0  0  0  0  0  # atno 7974 bound_to 7965
  155.9261  140.3418  155.6212 H   0  0  0  0  0  0  0  0  0  0  0  0  # atno 8008 bound_to 7997
  155.7214  140.0784  157.2347 H   0  0  0  0  0  0  0  0  0  0  0  0  # atno 8009 bound_to 7997
  154.4077  140.1605  156.2393 H   0  0  0  0  0  0  0  0  0  0  0  0  # atno 8010 bound_to 7997
  140.4193  143.2591  151.8912 H   0  0  0  0  0  0  0  0  0  0  0  0  # atno 10167 bound_to 10162
  157.0840  131.0400  151.2563 H   0  0  0  0  0  0  0  0  0  0  0  0  # atno 10718 bound_to 10713
  154.0216  135.6668  153.4773 H   0  0  0  0  0  0  0  0  0  0  0  0  # atno 10763 bound_to 10752
  153.0577  135.5046  154.8017 H   0  0  0  0  0  0  0  0  0  0  0  0  # atno 10764 bound_to 10752
  154.6933  135.3065  154.9412 H   0  0  0  0  0  0  0  0  0  0  0  0  # atno 10765 bound_to 10752
  141.1376  133.8176  157.0716 H   0  0  0  0  0  0  0  0  0  0  0  0  # atno 11005 bound_to 11000
  145.2177  140.9922  143.4064 LP  0  0  0  0  0  0  0  0  0  0  0  0  # atno 17320 bound_to 7965
  144.9637  139.3953  143.6343 LP  0  0  0  0  0  0  0  0  0  0  0  0  # atno 17321 bound_to 7965
  139.4782  144.5454  151.8466 LP  0  0  0  0  0  0  0  0  0  0  0  0  # atno 17342 bound_to 10162
  140.4551  144.1800  150.5901 LP  0  0  0  0  0  0  0  0  0  0  0  0  # atno 17343 bound_to 10162
  157.4776  130.7746  149.7383 LP  0  0  0  0  0  0  0  0  0  0  0  0  # atno 17370 bound_to 10713
  155.9916  130.3937  150.2979 LP  0  0  0  0  0  0  0  0  0  0  0  0  # atno 17371 bound_to 10713
  140.0508  134.9807  157.1132 LP  0  0  0  0  0  0  0  0  0  0  0  0  # atno 17394 bound_to 11000
  140.3993  134.2099  155.7164 LP  0  0  0  0  0  0  0  0  0  0  0  0  # atno 17395 bound_to 11000

$$$$
