AV-unprocessed.smi:294|AV-procd|sdf|2253|dock1
  -GOLD-   2262022133D 1   1.00000     0.00000
 Structure written by MMmdl.
 29 30  0  0  0  0  0  0  0  0  1 V2000
  143.5438  132.1049  149.0386 N   0  0  0  0  0  0  0  0  0  0  0  0
  144.0823  132.9262  149.6508 C   0  0  0  0  0  0  0  0  0  0  0  0
  144.7584  133.9575  150.4193 C   0  0  0  0  0  0  0  0  0  0  0  0
  146.0471  133.8032  150.8411 N   0  0  0  0  0  0  0  0  0  0  0  0
  146.1984  134.9620  151.4704 C   0  0  0  0  0  0  0  0  0  0  0  0
  145.1152  135.7456  151.4337 N   0  0  0  0  0  0  0  0  0  0  0  0
  144.8904  137.0698  151.9849 C   0  0  0  0  0  0  0  0  0  0  0  0
  146.1815  137.8897  151.9960 C   0  0  0  0  0  0  0  0  0  0  0  0
  146.7995  138.0787  150.9487 O   0  0  0  0  0  0  0  0  0  0  0  0
  146.5766  138.3692  153.1857 N   0  0  0  0  0  0  0  0  0  0  0  0
  147.7615  139.1900  153.4089 C   0  0  1  0  0  0  0  0  0  0  0  0
  147.3739  140.6308  153.7891 C   0  0  0  0  0  0  0  0  0  0  0  0
  148.6123  141.3389  154.3519 C   0  0  0  0  0  0  0  0  0  0  0  0
  149.6099  140.0389  155.1736 S   0  0  0  0  0  0  0  0  0  0  0  0
  150.9551  140.0230  154.5792 O   0  0  0  0  0  0  0  0  0  0  0  0
  149.4262  140.1242  156.6303 O   0  0  0  0  0  0  0  0  0  0  0  0
  148.6417  138.6216  154.5330 C   0  0  0  0  0  0  0  0  0  0  0  0
  144.1480  135.0968  150.7399 N   0  0  0  0  0  0  0  0  0  0  0  0
  147.1166  135.2481  151.9629 H   0  0  0  0  0  0  0  0  0  0  0  0
  144.1266  137.5863  151.4013 H   0  0  0  0  0  0  0  0  0  0  0  0
  144.5045  136.9643  152.9997 H   0  0  0  0  0  0  0  0  0  0  0  0
  146.0046  138.1630  153.9923 H   0  0  0  0  0  0  0  0  0  0  0  0
  148.3532  139.2371  152.4925 H   0  0  0  0  0  0  0  0  0  0  0  0
  146.9523  141.1748  152.9433 H   0  0  0  0  0  0  0  0  0  0  0  0
  146.6069  140.6038  154.5645 H   0  0  0  0  0  0  0  0  0  0  0  0
  149.2130  141.7643  153.5477 H   0  0  0  0  0  0  0  0  0  0  0  0
  148.3661  142.1307  155.0596 H   0  0  0  0  0  0  0  0  0  0  0  0
  148.0365  138.2354  155.3540 H   0  0  0  0  0  0  0  0  0  0  0  0
  149.3114  137.8315  154.1923 H   0  0  0  0  0  0  0  0  0  0  0  0
  1  2  3  0  0  0  0
  2  3  1  0  0  0  0
  3 18  2  0  0  0  0
  3  4  1  0  0  0  0
  4  5  2  0  0  0  0
  5  6  1  0  0  0  0
  5 19  1  0  0  0  0
  6  7  1  0  0  0  0
  6 18  1  0  0  0  0
  7  8  1  0  0  0  0
  7 20  1  0  0  0  0
  7 21  1  0  0  0  0
  8  9  2  0  0  0  0
  8 10  1  0  0  0  0
 10 11  1  0  0  0  0
 10 22  1  0  0  0  0
 11 17  1  0  0  0  0
 11 12  1  0  0  0  0
 11 23  1  0  0  0  0
 12 13  1  0  0  0  0
 12 24  1  0  0  0  0
 12 25  1  0  0  0  0
 13 14  1  0  0  0  0
 13 26  1  0  0  0  0
 13 27  1  0  0  0  0
 14 15  2  0  0  0  0
 14 16  2  0  0  0  0
 14 17  1  0  0  0  0
 17 28  1  0  0  0  0
 17 29  1  0  0  0  0
M  END
> <s_m_source_file>
AV-unprocessed.smi

> <i_m_source_file_index>
294

> <i_lp_mmshare_version>
43012

> <i_f3d_flags>
0

> <s_epik_input>
TiNDYzFuW2NIXW4objEpW0NIMl1DKD1PKVtOSF1bQ0BASF0oW0NIMl0yKVtDSDJdW0NIMl1TMig9Tyk9Tw==

> <s_epik_cmdline>
J2VwaWtfcHl0aG9uJywgJy1waCcsICc3LjAnLCAnLXRuJywgJzgnLCAnLW1hJywgJzIwMCcsICctbWV0YWxfYmluZGluZycsICctaW1hZScsICc8aW5maWxlLm1hZT4nLCAnLW9tYWUnLCAnPG91dGZpbGUubWFlPic=

> <r_lp_tautomer_probability>
1

> <r_epik_Ionization_Penalty>
6.08231e-07

> <r_epik_Ionization_Penalty_Charging>
0

> <r_epik_Ionization_Penalty_Neutral>
6.08231e-07

> <r_epik_State_Penalty>
-0

> <r_epik_Charging_Adjusted_Penalty>
0

> <i_epik_Tot_Q>
0

> <i_epik_Tot_abs_Q>
0

> <r_epik_Metal_State_Penalty>
-0

> <b_epik_Metal_Only>
0

> <s_lp_Force_Field>
OPLS_2005

> <r_lp_Energy>
6.26763

> <b_lp_Chiralities_Consistent>
1

> <s_lp_Variant>
AV-unprocessed.smi:294-2

> <Gold.Version>
5.8.1

> <Gold.Id.Protein>
6NUR|6NUR_protein|mol2

> <Gold.PLP.Fitness>
37.0717

> <Gold.PLP.PLP>
-26.2901

> <Gold.PLP.part.hbond>
-3.0000

> <Gold.PLP.part.metal>
0.0000

> <Gold.PLP.part.buried>
-1.2295

> <Gold.PLP.part.nonpolar>
-24.3884

> <Gold.PLP.part.repulsive>
2.3796

> <Gold.PLP.ligand.clash>
0.0000

> <Gold.PLP.ligand.torsion>
0.4547

> <Gold.PLP.Chemscore.Hbond>
2.8960

> <Gold.PLP.Chemscore.CHOScore>
1.0000

> <Gold.PLP.Chemscore.Metal>
0.0000

> <Gold.Chemscore.Hbonds>
donor molecule, donor type, donor heavy atom, donor atom, acceptor molecule, acceptor atom, score
      P1  H  7954  7966       L1     9  1.00
      P1  H  7989  7998       L1    15  1.00
      P1  H 10785 10796       L1     1  0.90
      L1  C     5    19       P1  7948  1.00

> <Gold.PLP.Chemscore.Internal.Correction>
0.0030

> <Gold.Rescore>
     Score         DG    S(hbond)    S(metal)    S(lipo)     H(rot)  DE(clash)    DE(int)     intcor
     11.13     -12.91       2.94        0.00      26.87       2.15       1.38       0.41       ----

> <Gold.Chemscore.Fitness>
11.1268

> <Gold.Chemscore.DG>
-12.9130

> <Gold.Chemscore.ZeroCoef>
-5.4800

> <Gold.Chemscore.Hbond>
2.9355

> <Gold.Chemscore.Metal>
0.0000

> <Gold.Chemscore.Lipo>
26.8722

> <Gold.Chemscore.Internal_Hbond>
0.0000

> <Gold.Chemscore.DEClash>
1.3779

> <Gold.Chemscore.DEInternal>
0.4083

> <Gold.Chemscore.Rot>
2.1546

> <Gold.Chemscore.Internal.Correction>
   9.000000E+99

> <Gold.Chemscore.Hbonds>
donor molecule, donor type, donor heavy atom, donor atom, acceptor molecule, acceptor atom, score
      P1  H  7954  7966       L1     9  1.00
      P1  H  7989  7998       L1    15  0.93
      P1  H 10785 10796       L1     1  0.82

> <Gold.Chemscore.Hbond.Weighted>
-9.8047

> <Gold.Chemscore.Metal.Weighted>
-0.0000

> <Gold.Chemscore.Lipo.Weighted>
-3.1440

> <Gold.Chemscore.Internal_Hbond.Weighted>
0.0000

> <Gold.Chemscore.DEClash.Weighted>
1.3779

> <Gold.Chemscore.DEInternal.Weighted>
0.4083

> <Gold.Chemscore.Rot.Weighted>
5.5158

> <Gold.Chemscore.Internal.Correction.Weighted>
   9.000000E+99

> <Gold.Protein.RotatedTorsions>
[ 6907 6896 6895 6894 ] final   19.46 input  -60.11 | X-H torsion
[ 7974 7965 7964 7962 ] final   76.77 input  175.53 | X-H torsion
[ 8008 7997 7996 7995 ] final  -26.01 input   59.86 | X-H torsion
[ 10167 10162 10161 10158 ] final   27.49 input  -65.29 | X-H torsion
[ 10718 10713 10712 10709 ] final -151.04 input   66.30 | X-H torsion
[ 10763 10752 10751 10750 ] final  -33.91 input  -60.55 | X-H torsion
[ 11005 11000 10999 10996 ] final  170.12 input  -57.11 | X-H torsion

> <Gold.Protein.ActiveResidues>
 VAL166  LYS551  ARG553  GLY616  TRP617  ASP618  TYR619  PRO620  LYS621  CYS622 
 ASP623  PHE694  ASN695  SER759  ASP760  ASP761  ALA762  ILE779  LEU786  VAL792 
 PHE793  MET794  SER795  GLU796  ALA797  LYS798  CYS799  TRP800  GLU811  SER814 

> <Gold.Protein.RotatedAtoms>
  151.8812  135.0453  160.0488 H   0  0  0  0  0  0  0  0  0  0  0  0  # atno 6907 bound_to 6896
  152.2511  133.5211  159.5334 H   0  0  0  0  0  0  0  0  0  0  0  0  # atno 6908 bound_to 6896
  150.7084  134.0875  159.3962 H   0  0  0  0  0  0  0  0  0  0  0  0  # atno 6909 bound_to 6896
  145.6986  139.2575  143.1718 H   0  0  0  0  0  0  0  0  0  0  0  0  # atno 7974 bound_to 7965
  154.4446  140.1911  156.0709 H   0  0  0  0  0  0  0  0  0  0  0  0  # atno 8008 bound_to 7997
  156.0512  140.3308  155.7326 H   0  0  0  0  0  0  0  0  0  0  0  0  # atno 8009 bound_to 7997
  155.5554  140.0599  157.2831 H   0  0  0  0  0  0  0  0  0  0  0  0  # atno 8010 bound_to 7997
  140.4934  144.0431  150.6305 H   0  0  0  0  0  0  0  0  0  0  0  0  # atno 10167 bound_to 10162
  156.4540  130.8181  151.2412 H   0  0  0  0  0  0  0  0  0  0  0  0  # atno 10718 bound_to 10713
  153.8381  135.6860  153.4806 H   0  0  0  0  0  0  0  0  0  0  0  0  # atno 10763 bound_to 10752
  153.1470  135.4633  154.9579 H   0  0  0  0  0  0  0  0  0  0  0  0  # atno 10764 bound_to 10752
  154.7857  135.3284  154.7837 H   0  0  0  0  0  0  0  0  0  0  0  0  # atno 10765 bound_to 10752
  140.3050  134.7564  157.3946 H   0  0  0  0  0  0  0  0  0  0  0  0  # atno 11005 bound_to 11000
  146.0818  140.7756  142.9638 LP  0  0  0  0  0  0  0  0  0  0  0  0  # atno 17320 bound_to 7965
  144.6975  140.3500  143.7183 LP  0  0  0  0  0  0  0  0  0  0  0  0  # atno 17321 bound_to 7965
  140.3706  143.2856  152.0282 LP  0  0  0  0  0  0  0  0  0  0  0  0  # atno 17342 bound_to 10162
  139.4856  144.6233  151.7214 LP  0  0  0  0  0  0  0  0  0  0  0  0  # atno 17343 bound_to 10162
  157.7501  131.0128  150.3401 LP  0  0  0  0  0  0  0  0  0  0  0  0  # atno 17370 bound_to 10713
  156.3786  130.3876  149.7119 LP  0  0  0  0  0  0  0  0  0  0  0  0  # atno 17371 bound_to 10713
  140.1075  134.5389  155.8296 LP  0  0  0  0  0  0  0  0  0  0  0  0  # atno 17394 bound_to 11000
  141.2120  133.6714  156.6627 LP  0  0  0  0  0  0  0  0  0  0  0  0  # atno 17395 bound_to 11000

$$$$
