AV-unprocessed.smi:3311|AV-procd|sdf|12722|dock1
  -GOLD-   2272019 63D 1   1.00000     0.00000
 Structure written by MMmdl.
 44 45  0  0  0  0  0  0  0  0  2 V2000
  144.9532  134.9295  153.9778 C   0  0  0  0  0  0  0  0  0  0  0  0
  145.9485  135.4036  152.9059 C   0  0  1  0  0  0  0  0  0  0  0  0
  146.9858  136.2359  153.5569 N   0  3  0  0  0  0  0  0  0  0  0  0
  146.5179  137.5437  154.0656 C   0  0  0  0  0  0  0  0  0  0  0  0
  147.5057  138.6826  153.7318 C   0  0  0  0  0  0  0  0  0  0  0  0
  147.8368  138.5646  152.3595 O   0  0  0  0  0  0  0  0  0  0  0  0
  146.8821  140.0760  153.9979 C   0  0  0  0  0  0  0  0  0  0  0  0
  147.8831  141.2285  153.8054 C   0  0  0  0  0  0  0  0  0  0  0  0
  149.1410  141.0265  154.6609 C   0  0  0  0  0  0  0  0  0  0  0  0
  149.7977  139.6721  154.3596 C   0  0  0  0  0  0  0  0  0  0  0  0
  148.8053  138.5112  154.5534 C   0  0  0  0  0  0  0  0  0  0  0  0
  146.6129  134.2284  152.1390 C   0  0  1  0  0  0  0  0  0  0  0  0
  147.4192  133.2852  153.0519 C   0  0  0  0  0  0  0  0  0  0  0  0
  145.6309  133.4622  151.3787 N   0  0  0  0  0  0  0  0  0  0  0  0
  145.8572  132.4453  150.4736 C   0  0  0  0  0  0  0  0  0  0  0  0
  144.6417  132.0383  150.0033 C   0  0  0  0  0  0  0  0  0  0  0  0
  143.7165  132.8723  150.6901 C   0  0  0  0  0  0  0  0  0  0  0  0
  144.3105  133.7235  151.5102 N   0  0  0  0  0  0  0  0  0  0  0  0
  144.1079  134.4008  153.5380 H   0  0  0  0  0  0  0  0  0  0  0  0
  144.5438  135.7750  154.5314 H   0  0  0  0  0  0  0  0  0  0  0  0
  145.4295  134.2620  154.6968 H   0  0  0  0  0  0  0  0  0  0  0  0
  145.3926  136.0160  152.1936 H   0  0  0  0  0  0  0  0  0  0  0  0
  147.3865  135.7209  154.3280 H   0  0  0  0  0  0  0  0  0  0  0  0
  145.5458  137.7719  153.6272 H   0  0  0  0  0  0  0  0  0  0  0  0
  146.3663  137.4671  155.1433 H   0  0  0  0  0  0  0  0  0  0  0  0
  147.9539  137.6484  152.1572 H   0  0  0  0  0  0  0  0  0  0  0  0
  146.0180  140.2424  153.3536 H   0  0  0  0  0  0  0  0  0  0  0  0
  146.5052  140.1101  155.0212 H   0  0  0  0  0  0  0  0  0  0  0  0
  148.1632  141.3043  152.7540 H   0  0  0  0  0  0  0  0  0  0  0  0
  147.4088  142.1756  154.0639 H   0  0  0  0  0  0  0  0  0  0  0  0
  149.8504  141.8338  154.4756 H   0  0  0  0  0  0  0  0  0  0  0  0
  148.8787  141.0811  155.7184 H   0  0  0  0  0  0  0  0  0  0  0  0
  150.1774  139.6690  153.3373 H   0  0  0  0  0  0  0  0  0  0  0  0
  150.6634  139.5300  155.0073 H   0  0  0  0  0  0  0  0  0  0  0  0
  148.5541  138.4449  155.6131 H   0  0  0  0  0  0  0  0  0  0  0  0
  149.2919  137.5679  154.3010 H   0  0  0  0  0  0  0  0  0  0  0  0
  147.3101  134.6512  151.4135 H   0  0  0  0  0  0  0  0  0  0  0  0
  148.2782  133.7888  153.4942 H   0  0  0  0  0  0  0  0  0  0  0  0
  147.8047  132.4345  152.4891 H   0  0  0  0  0  0  0  0  0  0  0  0
  146.8066  132.8936  153.8647 H   0  0  0  0  0  0  0  0  0  0  0  0
  146.8534  132.1003  150.2389 H   0  0  0  0  0  0  0  0  0  0  0  0
  144.4428  131.2613  149.2801 H   0  0  0  0  0  0  0  0  0  0  0  0
  142.6389  132.8854  150.6171 H   0  0  0  0  0  0  0  0  0  0  0  0
  147.7132  136.4097  152.8786 H   0  0  0  0  0  0  0  0  0  0  0  0
  1  2  1  0  0  0  0
  1 19  1  0  0  0  0
  1 20  1  0  0  0  0
  1 21  1  0  0  0  0
  2  3  1  0  0  0  0
  2 12  1  0  0  0  0
  2 22  1  0  0  0  0
  3  4  1  0  0  0  0
  3 23  1  0  0  0  0
  3 44  1  0  0  0  0
  4  5  1  0  0  0  0
  4 24  1  0  0  0  0
  4 25  1  0  0  0  0
  5 11  1  0  0  0  0
  5  6  1  0  0  0  0
  5  7  1  0  0  0  0
  6 26  1  0  0  0  0
  7  8  1  0  0  0  0
  7 27  1  0  0  0  0
  7 28  1  0  0  0  0
  8  9  1  0  0  0  0
  8 29  1  0  0  0  0
  8 30  1  0  0  0  0
  9 10  1  0  0  0  0
  9 31  1  0  0  0  0
  9 32  1  0  0  0  0
 10 11  1  0  0  0  0
 10 33  1  0  0  0  0
 10 34  1  0  0  0  0
 11 35  1  0  0  0  0
 11 36  1  0  0  0  0
 12 13  1  0  0  0  0
 12 14  1  0  0  0  0
 12 37  1  0  0  0  0
 13 38  1  0  0  0  0
 13 39  1  0  0  0  0
 13 40  1  0  0  0  0
 14 18  1  0  0  0  0
 14 15  1  0  0  0  0
 15 16  2  0  0  0  0
 15 41  1  0  0  0  0
 16 17  1  0  0  0  0
 16 42  1  0  0  0  0
 17 18  2  0  0  0  0
 17 43  1  0  0  0  0
M  CHG  1   3   1
M  END
> <s_m_source_file>
AV-unprocessed.smi

> <i_m_source_file_index>
3311

> <i_lp_mmshare_version>
43012

> <i_f3d_flags>
0

> <s_epik_input>
bjFbY0hdW2NIXVtjSF1uMVtDQEBIXShbQ0gzXSlbQ0BIXShbQ0gzXSlbTkhdW0NIMl1DMihbT0hdKVtDSDJdW0NIMl1bQ0gyXVtDSDJdW0NIMl0y

> <s_epik_cmdline>
J2VwaWtfcHl0aG9uJywgJy1waCcsICc3LjAnLCAnLXRuJywgJzgnLCAnLW1hJywgJzIwMCcsICctbWV0YWxfYmluZGluZycsICctaW1hZScsICc8aW5maWxlLm1hZT4nLCAnLW9tYWUnLCAnPG91dGZpbGUubWFlPic=

> <r_lp_tautomer_probability>
1

> <r_epik_Ionization_Penalty>
0.0141403

> <r_epik_Ionization_Penalty_Charging>
0.0141276

> <r_epik_Ionization_Penalty_Neutral>
1.27139e-05

> <r_epik_State_Penalty>
0.0110334

> <r_epik_Charging_Adjusted_Penalty>
0.025161

> <i_epik_Tot_Q>
1

> <i_epik_Tot_abs_Q>
1

> <r_epik_Metal_State_Penalty>
0.0110573

> <b_epik_Metal_Only>
0

> <s_lp_Force_Field>
OPLS_2005

> <r_lp_Energy>
21.4013

> <b_lp_Chiralities_Consistent>
1

> <s_lp_Variant>
AV-unprocessed.smi:3311-4

> <Gold.Version>
5.8.1

> <Gold.Id.Protein>
6NUR|6NUR_protein|mol2

> <Gold.PLP.Fitness>
46.6335

> <Gold.PLP.PLP>
-32.5595

> <Gold.PLP.part.hbond>
-3.0000

> <Gold.PLP.part.metal>
0.0000

> <Gold.PLP.part.buried>
-3.4215

> <Gold.PLP.part.nonpolar>
-26.6418

> <Gold.PLP.part.repulsive>
0.1326

> <Gold.PLP.ligand.clash>
0.0000

> <Gold.PLP.ligand.torsion>
0.5273

> <Gold.PLP.Chemscore.Hbond>
3.0000

> <Gold.PLP.Chemscore.CHOScore>
2.0000

> <Gold.PLP.Chemscore.Metal>
0.0000

> <Gold.Chemscore.Hbonds>
donor molecule, donor type, donor heavy atom, donor atom, acceptor molecule, acceptor atom, score
      L1  H     3    44       P1  7948  2.00
      L1  H     6    26       P1  7948  1.00
      L1  C    15    41       P1 10747  1.00
      L1  C    17    43       P1 10186  1.00

> <Gold.PLP.Chemscore.Internal.Correction>
0.1286

> <Gold.Rescore>
     Score         DG    S(hbond)    S(metal)    S(lipo)     H(rot)  DE(clash)    DE(int)     intcor
     15.88     -16.57       1.98        0.00      85.09       2.14       0.01       0.68       ----

> <Gold.Chemscore.Fitness>
15.8831

> <Gold.Chemscore.DG>
-16.5684

> <Gold.Chemscore.ZeroCoef>
-5.4800

> <Gold.Chemscore.Hbond>
1.9812

> <Gold.Chemscore.Metal>
0.0000

> <Gold.Chemscore.Lipo>
85.0918

> <Gold.Chemscore.Internal_Hbond>
0.0000

> <Gold.Chemscore.DEClash>
0.0060

> <Gold.Chemscore.DEInternal>
0.6793

> <Gold.Chemscore.Rot>
2.1424

> <Gold.Chemscore.Internal.Correction>
   9.000000E+99

> <Gold.Chemscore.Hbonds>
donor molecule, donor type, donor heavy atom, donor atom, acceptor molecule, acceptor atom, score
      L1  H     3    44       P1  7948  0.99
      L1  H     6    26       P1  7948  0.96

> <Gold.Chemscore.Hbond.Weighted>
-6.6173

> <Gold.Chemscore.Metal.Weighted>
-0.0000

> <Gold.Chemscore.Lipo.Weighted>
-9.9557

> <Gold.Chemscore.Internal_Hbond.Weighted>
0.0000

> <Gold.Chemscore.DEClash.Weighted>
0.0060

> <Gold.Chemscore.DEInternal.Weighted>
0.6793

> <Gold.Chemscore.Rot.Weighted>
5.4846

> <Gold.Chemscore.Internal.Correction.Weighted>
   9.000000E+99

> <Gold.Protein.RotatedTorsions>
[ 6907 6896 6895 6894 ] final   53.98 input  -60.11 | X-H torsion
[ 7974 7965 7964 7962 ] final   84.43 input  175.53 | X-H torsion
[ 8008 7997 7996 7995 ] final   74.73 input   59.86 | X-H torsion
[ 10167 10162 10161 10158 ] final  175.48 input  -65.29 | X-H torsion
[ 10718 10713 10712 10709 ] final  -67.28 input   66.30 | X-H torsion
[ 10763 10752 10751 10750 ] final -169.62 input  -60.55 | X-H torsion
[ 11005 11000 10999 10996 ] final  105.09 input  -57.11 | X-H torsion

> <Gold.Protein.ActiveResidues>
 VAL166  LYS551  ARG553  GLY616  TRP617  ASP618  TYR619  PRO620  LYS621  CYS622 
 ASP623  PHE694  ASN695  SER759  ASP760  ASP761  ALA762  ILE779  LEU786  VAL792 
 PHE793  MET794  SER795  GLU796  ALA797  LYS798  CYS799  TRP800  GLU811  SER814 

> <Gold.Protein.RotatedAtoms>
  152.3392  134.7157  160.0268 H   0  0  0  0  0  0  0  0  0  0  0  0  # atno 6907 bound_to 6896
  151.7547  133.3324  159.3409 H   0  0  0  0  0  0  0  0  0  0  0  0  # atno 6908 bound_to 6896
  150.7469  134.6092  159.6122 H   0  0  0  0  0  0  0  0  0  0  0  0  # atno 6909 bound_to 6896
  145.5988  139.2349  143.2257 H   0  0  0  0  0  0  0  0  0  0  0  0  # atno 7974 bound_to 7965
  155.8026  140.3476  155.5411 H   0  0  0  0  0  0  0  0  0  0  0  0  # atno 8008 bound_to 7997
  155.8523  140.0958  157.1687 H   0  0  0  0  0  0  0  0  0  0  0  0  # atno 8009 bound_to 7997
  154.4008  140.1374  156.3846 H   0  0  0  0  0  0  0  0  0  0  0  0  # atno 8010 bound_to 7997
  139.5178  144.3027  152.0364 H   0  0  0  0  0  0  0  0  0  0  0  0  # atno 10167 bound_to 10162
  156.0566  130.4275  150.1832 H   0  0  0  0  0  0  0  0  0  0  0  0  # atno 10718 bound_to 10713
  154.6503  135.2910  154.9995 H   0  0  0  0  0  0  0  0  0  0  0  0  # atno 10763 bound_to 10752
  154.1090  135.6565  153.4885 H   0  0  0  0  0  0  0  0  0  0  0  0  # atno 10764 bound_to 10752
  153.0373  135.5260  154.7408 H   0  0  0  0  0  0  0  0  0  0  0  0  # atno 10765 bound_to 10752
  139.8798  134.9323  156.5460 H   0  0  0  0  0  0  0  0  0  0  0  0  # atno 11005 bound_to 11000
  146.1591  140.6814  142.9286 LP  0  0  0  0  0  0  0  0  0  0  0  0  # atno 17320 bound_to 7965
  144.7319  140.4695  143.6932 LP  0  0  0  0  0  0  0  0  0  0  0  0  # atno 17321 bound_to 7965
  140.2474  144.4205  150.6235 LP  0  0  0  0  0  0  0  0  0  0  0  0  # atno 17342 bound_to 10162
  140.6248  143.2180  151.6618 LP  0  0  0  0  0  0  0  0  0  0  0  0  # atno 17343 bound_to 10162
  156.9907  130.9892  151.3415 LP  0  0  0  0  0  0  0  0  0  0  0  0  # atno 17370 bound_to 10713
  157.5541  130.8202  149.8182 LP  0  0  0  0  0  0  0  0  0  0  0  0  # atno 17371 bound_to 10713
  140.8275  133.8305  155.8953 LP  0  0  0  0  0  0  0  0  0  0  0  0  # atno 17394 bound_to 11000
  140.9360  134.1961  157.4831 LP  0  0  0  0  0  0  0  0  0  0  0  0  # atno 17395 bound_to 11000

$$$$
