AV-unprocessed.smi:1867|AV-procd|sdf|7564|dock6
  -GOLD-   22720 9283D 1   1.00000     0.00000
 Structure written by MMmdl.
 52 55  0  0  0  0  0  0  0  0  2 V2000
  147.9924  135.5686  155.9367 O   0  0  0  0  0  0  0  0  0  0  0  0
  148.3615  135.7506  154.7792 C   0  0  0  0  0  0  0  0  0  0  0  0
  149.1097  136.7914  154.3641 N   0  0  0  0  0  0  0  0  0  0  0  0
  149.6633  137.8524  155.1294 C   0  0  0  0  0  0  0  0  0  0  0  0
  149.8529  137.8159  156.5307 C   0  0  0  0  0  0  0  0  0  0  0  0
  150.4302  138.9301  157.1695 C   0  0  0  0  0  0  0  0  0  0  0  0
  150.8146  140.0495  156.3938 C   0  0  0  0  0  0  0  0  0  0  0  0
  151.3897  141.1861  156.9959 N   0  0  0  0  0  0  0  0  0  0  0  0
  151.8548  141.1712  158.3742 C   0  0  0  0  0  0  0  0  0  0  0  0
  152.2669  142.6146  158.6581 C   0  0  0  0  0  0  0  0  0  0  0  0
  151.2957  143.4268  157.8017 C   0  0  0  0  0  0  0  0  0  0  0  0
  151.0373  142.5368  156.5801 C   0  0  0  0  0  0  0  0  0  0  0  0
  150.6384  140.0783  155.0512 N   0  0  0  0  0  0  0  0  0  0  0  0
  150.0855  139.0084  154.4437 C   0  0  0  0  0  0  0  0  0  0  0  0
  148.0143  134.8970  153.7990 N   0  0  0  0  0  0  0  0  0  0  0  0
  147.2129  133.6752  153.9048 C   0  0  2  0  0  0  0  0  0  0  0  0
  147.9564  132.4319  153.4329 C   0  0  0  0  0  0  0  0  0  0  0  0
  146.8282  131.4270  153.1811 C   0  0  0  0  0  0  0  0  0  0  0  0
  145.6148  132.2166  152.8569 N   0  3  2  0  0  0  0  0  0  0  0  0
  144.9942  131.8621  151.5522 C   0  0  0  0  0  0  0  0  0  0  0  0
  144.0070  132.9482  151.1005 C   0  0  0  0  0  0  0  0  0  0  0  0
  144.7140  134.3001  150.8872 C   0  0  0  0  0  0  0  0  0  0  0  0
  146.0217  134.4157  151.6937 C   0  0  0  0  0  0  0  0  0  0  0  0
  145.9340  133.6611  153.0431 C   0  0  2  0  0  0  0  0  0  0  0  0
  149.2603  136.8570  153.3683 H   0  0  0  0  0  0  0  0  0  0  0  0
  149.5811  136.9587  157.1264 H   0  0  0  0  0  0  0  0  0  0  0  0
  150.5665  138.9109  158.2406 H   0  0  0  0  0  0  0  0  0  0  0  0
  151.0382  140.8682  159.0308 H   0  0  0  0  0  0  0  0  0  0  0  0
  152.6862  140.4795  158.5131 H   0  0  0  0  0  0  0  0  0  0  0  0
  152.2193  142.8691  159.7172 H   0  0  0  0  0  0  0  0  0  0  0  0
  153.2887  142.7820  158.3149 H   0  0  0  0  0  0  0  0  0  0  0  0
  150.3642  143.5733  158.3501 H   0  0  0  0  0  0  0  0  0  0  0  0
  151.6847  144.4094  157.5342 H   0  0  0  0  0  0  0  0  0  0  0  0
  151.6784  142.8274  155.7470 H   0  0  0  0  0  0  0  0  0  0  0  0
  149.9983  142.6118  156.2574 H   0  0  0  0  0  0  0  0  0  0  0  0
  149.9733  139.0817  153.3718 H   0  0  0  0  0  0  0  0  0  0  0  0
  148.3367  135.1308  152.8707 H   0  0  0  0  0  0  0  0  0  0  0  0
  146.9399  133.5117  154.9495 H   0  0  0  0  0  0  0  0  0  0  0  0
  148.4832  132.6365  152.4993 H   0  0  0  0  0  0  0  0  0  0  0  0
  148.6867  132.0720  154.1584 H   0  0  0  0  0  0  0  0  0  0  0  0
  147.0957  130.7093  152.4042 H   0  0  0  0  0  0  0  0  0  0  0  0
  146.6241  130.8591  154.0895 H   0  0  0  0  0  0  0  0  0  0  0  0
  145.7649  131.7393  150.7889 H   0  0  0  0  0  0  0  0  0  0  0  0
  144.4901  130.9001  151.6486 H   0  0  0  0  0  0  0  0  0  0  0  0
  143.4974  132.6458  150.1851 H   0  0  0  0  0  0  0  0  0  0  0  0
  143.2305  133.0579  151.8589 H   0  0  0  0  0  0  0  0  0  0  0  0
  144.9374  134.4432  149.8293 H   0  0  0  0  0  0  0  0  0  0  0  0
  144.0318  135.1046  151.1639 H   0  0  0  0  0  0  0  0  0  0  0  0
  146.8457  134.0084  151.1060 H   0  0  0  0  0  0  0  0  0  0  0  0
  146.2509  135.4708  151.8449 H   0  0  0  0  0  0  0  0  0  0  0  0
  145.1207  134.1107  153.6148 H   0  0  0  0  0  0  0  0  0  0  0  0
  144.9342  131.9921  153.5686 H   0  0  0  0  0  0  0  0  0  0  0  0
  1  2  2  0  0  0  0
  2  3  1  0  0  0  0
  2 15  1  0  0  0  0
  3  4  1  0  0  0  0
  3 25  1  0  0  0  0
  4 14  1  0  0  0  0
  4  5  2  0  0  0  0
  5  6  1  0  0  0  0
  5 26  1  0  0  0  0
  6  7  2  0  0  0  0
  6 27  1  0  0  0  0
  7  8  1  0  0  0  0
  7 13  1  0  0  0  0
  8 12  1  0  0  0  0
  8  9  1  0  0  0  0
  9 10  1  0  0  0  0
  9 28  1  0  0  0  0
  9 29  1  0  0  0  0
 10 11  1  0  0  0  0
 10 30  1  0  0  0  0
 10 31  1  0  0  0  0
 11 12  1  0  0  0  0
 11 32  1  0  0  0  0
 11 33  1  0  0  0  0
 12 34  1  0  0  0  0
 12 35  1  0  0  0  0
 13 14  2  0  0  0  0
 14 36  1  0  0  0  0
 15 16  1  0  0  0  0
 15 37  1  0  0  0  0
 16 24  1  0  0  0  0
 16 17  1  0  0  0  0
 16 38  1  0  0  0  0
 17 18  1  0  0  0  0
 17 39  1  0  0  0  0
 17 40  1  0  0  0  0
 18 19  1  0  0  0  0
 18 41  1  0  0  0  0
 18 42  1  0  0  0  0
 19 24  1  0  0  0  0
 19 20  1  0  0  0  0
 19 52  1  0  0  0  0
 20 21  1  0  0  0  0
 20 43  1  0  0  0  0
 20 44  1  0  0  0  0
 21 22  1  0  0  0  0
 21 45  1  0  0  0  0
 21 46  1  0  0  0  0
 22 23  1  0  0  0  0
 22 47  1  0  0  0  0
 22 48  1  0  0  0  0
 23 24  1  0  0  0  0
 23 49  1  0  0  0  0
 23 50  1  0  0  0  0
 24 51  1  0  0  0  0
M  CHG  1  19   1
M  END
> <s_m_source_file>
AV-unprocessed.smi

> <i_m_source_file_index>
1867

> <i_lp_mmshare_version>
43012

> <i_f3d_flags>
0

> <s_epik_input>
W0NIMl0xW0NIMl1bQ0gyXVtDSDJdW0NASF0oTjEyKVtDQEBIXShbQ0gyXVtDSDJdMilbTkhdQyg9TylbTkhdYzNbY0hdW2NIXWMobltjSF0zKU40W0NIMl1bQ0gyXVtDSDJdW0NIMl00

> <s_epik_cmdline>
J2VwaWtfcHl0aG9uJywgJy1waCcsICc3LjAnLCAnLXRuJywgJzgnLCAnLW1hJywgJzIwMCcsICctbWV0YWxfYmluZGluZycsICctaW1hZScsICc8aW5maWxlLm1hZT4nLCAnLW9tYWUnLCAnPG91dGZpbGUubWFlPic=

> <r_lp_tautomer_probability>
1

> <r_epik_Ionization_Penalty>
0.0751123

> <r_epik_Ionization_Penalty_Charging>
0.000974069

> <r_epik_Ionization_Penalty_Neutral>
0.0741382

> <r_epik_State_Penalty>
0.0647261

> <r_epik_Charging_Adjusted_Penalty>
0.0657002

> <i_epik_Tot_Q>
1

> <i_epik_Tot_abs_Q>
1

> <r_epik_Metal_State_Penalty>
0.0580571

> <b_epik_Metal_Only>
0

> <s_lp_Force_Field>
OPLS_2005

> <r_lp_Energy>
76.8202

> <b_lp_Chiralities_Consistent>
1

> <s_lp_Variant>
AV-unprocessed.smi:1867-5

> <Gold.Version>
5.8.1

> <Gold.Id.Protein>
6NUR|6NUR_protein|mol2

> <Gold.PLP.Fitness>
46.6973

> <Gold.PLP.PLP>
-35.4260

> <Gold.PLP.part.hbond>
-2.9356

> <Gold.PLP.part.metal>
0.0000

> <Gold.PLP.part.buried>
-4.6034

> <Gold.PLP.part.nonpolar>
-28.7117

> <Gold.PLP.part.repulsive>
0.0891

> <Gold.PLP.ligand.clash>
0.0000

> <Gold.PLP.ligand.torsion>
0.4217

> <Gold.PLP.Chemscore.Hbond>
2.9760

> <Gold.PLP.Chemscore.CHOScore>
1.0000

> <Gold.PLP.Chemscore.Metal>
0.0000

> <Gold.Chemscore.Hbonds>
donor molecule, donor type, donor heavy atom, donor atom, acceptor molecule, acceptor atom, score
      L1  H     3    25       P1  7948  0.98
      L1  H    15    37       P1  7948  1.00
      P1  H  7989  7998       L1    13  1.00
      L1  C    14    36       P1  7957  1.00

> <Gold.PLP.Chemscore.Internal.Correction>
0.1867

> <Gold.Rescore>
     Score         DG    S(hbond)    S(metal)    S(lipo)     H(rot)  DE(clash)    DE(int)     intcor
     19.92     -21.73       2.25        0.00      96.66       1.00       0.21       1.60       ----

> <Gold.Chemscore.Fitness>
19.9194

> <Gold.Chemscore.DG>
-21.7334

> <Gold.Chemscore.ZeroCoef>
-5.4800

> <Gold.Chemscore.Hbond>
2.2468

> <Gold.Chemscore.Metal>
0.0000

> <Gold.Chemscore.Lipo>
96.6580

> <Gold.Chemscore.Internal_Hbond>
0.0000

> <Gold.Chemscore.DEClash>
0.2122

> <Gold.Chemscore.DEInternal>
1.6019

> <Gold.Chemscore.Rot>
1.0000

> <Gold.Chemscore.Internal.Correction>
   9.000000E+99

> <Gold.Chemscore.Hbonds>
donor molecule, donor type, donor heavy atom, donor atom, acceptor molecule, acceptor atom, score
      L1  H     3    25       P1  7948  0.90
      L1  H    15    37       P1  7948  0.81
      P1  H  7989  7998       L1    13  0.24

> <Gold.Chemscore.Hbond.Weighted>
-7.5044

> <Gold.Chemscore.Metal.Weighted>
-0.0000

> <Gold.Chemscore.Lipo.Weighted>
-11.3090

> <Gold.Chemscore.Internal_Hbond.Weighted>
0.0000

> <Gold.Chemscore.DEClash.Weighted>
0.2122

> <Gold.Chemscore.DEInternal.Weighted>
1.6019

> <Gold.Chemscore.Rot.Weighted>
2.5600

> <Gold.Chemscore.Internal.Correction.Weighted>
   9.000000E+99

> <Gold.Protein.RotatedTorsions>
[ 6907 6896 6895 6894 ] final  -14.40 input  -60.11 | X-H torsion
[ 7974 7965 7964 7962 ] final  138.34 input  175.53 | X-H torsion
[ 8008 7997 7996 7995 ] final  147.32 input   59.86 | X-H torsion
[ 10167 10162 10161 10158 ] final  -19.45 input  -65.29 | X-H torsion
[ 10718 10713 10712 10709 ] final   75.49 input   66.30 | X-H torsion
[ 10763 10752 10751 10750 ] final  135.28 input  -60.55 | X-H torsion
[ 11005 11000 10999 10996 ] final -158.10 input  -57.11 | X-H torsion

> <Gold.Protein.ActiveResidues>
 VAL166  LYS551  ARG553  GLY616  TRP617  ASP618  TYR619  PRO620  LYS621  CYS622 
 ASP623  PHE694  ASN695  SER759  ASP760  ASP761  ALA762  ILE779  LEU786  VAL792 
 PHE793  MET794  SER795  GLU796  ALA797  LYS798  CYS799  TRP800  GLU811  SER814 

> <Gold.Protein.RotatedAtoms>
  151.3399  135.0861  159.9367 H   0  0  0  0  0  0  0  0  0  0  0  0  # atno 6907 bound_to 6896
  152.5214  133.9457  159.7658 H   0  0  0  0  0  0  0  0  0  0  0  0  # atno 6908 bound_to 6896
  150.9812  133.6190  159.2752 H   0  0  0  0  0  0  0  0  0  0  0  0  # atno 6909 bound_to 6896
  144.9382  139.4964  143.5585 H   0  0  0  0  0  0  0  0  0  0  0  0  # atno 7974 bound_to 7965
  156.2828  140.2158  156.5519 H   0  0  0  0  0  0  0  0  0  0  0  0  # atno 8008 bound_to 7997
  154.7284  140.0497  157.0726 H   0  0  0  0  0  0  0  0  0  0  0  0  # atno 8009 bound_to 7997
  155.0386  140.3143  155.4736 H   0  0  0  0  0  0  0  0  0  0  0  0  # atno 8010 bound_to 7997
  140.7268  143.4818  151.0108 H   0  0  0  0  0  0  0  0  0  0  0  0  # atno 10167 bound_to 10162
  157.6636  130.9729  150.1362 H   0  0  0  0  0  0  0  0  0  0  0  0  # atno 10718 bound_to 10713
  153.8375  135.3096  155.3423 H   0  0  0  0  0  0  0  0  0  0  0  0  # atno 10763 bound_to 10752
  154.7947  135.4762  154.0136 H   0  0  0  0  0  0  0  0  0  0  0  0  # atno 10764 bound_to 10752
  153.1596  135.6858  153.8853 H   0  0  0  0  0  0  0  0  0  0  0  0  # atno 10765 bound_to 10752
  140.6573  134.4386  157.5235 H   0  0  0  0  0  0  0  0  0  0  0  0  # atno 11005 bound_to 11000
  146.3275  139.8381  142.8895 LP  0  0  0  0  0  0  0  0  0  0  0  0  # atno 17320 bound_to 7965
  145.3034  141.0200  143.3596 LP  0  0  0  0  0  0  0  0  0  0  0  0  # atno 17321 bound_to 7965
  139.8516  143.7430  152.3177 LP  0  0  0  0  0  0  0  0  0  0  0  0  # atno 17342 bound_to 10162
  139.7614  144.7505  151.0358 LP  0  0  0  0  0  0  0  0  0  0  0  0  # atno 17343 bound_to 10162
  156.2196  130.3673  149.8572 LP  0  0  0  0  0  0  0  0  0  0  0  0  # atno 17370 bound_to 10713
  156.6429  130.8712  151.3517 LP  0  0  0  0  0  0  0  0  0  0  0  0  # atno 17371 bound_to 10713
  139.9025  134.8524  156.1838 LP  0  0  0  0  0  0  0  0  0  0  0  0  # atno 17394 bound_to 11000
  141.0491  133.6898  156.1739 LP  0  0  0  0  0  0  0  0  0  0  0  0  # atno 17395 bound_to 11000

$$$$
