AV-unprocessed.smi:1592|AV-procd|sdf|6401|dock2
  -GOLD-   22720 7 33D 1   1.00000     0.00000
 Structure written by MMmdl.
 27 28  0  0  0  0  0  0  0  0  1 V2000
  150.3497  140.3687  156.6211 O   0  0  0  0  0  0  0  0  0  0  0  0
  150.0737  141.5081  156.2444 C   0  0  0  0  0  0  0  0  0  0  0  0
  150.4387  142.6316  156.8907 N   0  0  0  0  0  0  0  0  0  0  0  0
  151.2208  142.7656  158.0709 C   0  0  0  0  0  0  0  0  0  0  0  0
  151.8416  141.7186  158.6708 N   0  0  0  0  0  0  0  0  0  0  0  0
  152.5674  141.9305  159.7883 C   0  0  0  0  0  0  0  0  0  0  0  0
  152.7204  143.1981  160.3775 C   0  0  0  0  0  0  0  0  0  0  0  0
  152.0834  144.2924  159.7672 C   0  0  0  0  0  0  0  0  0  0  0  0
  151.3238  144.0777  158.5997 C   0  0  0  0  0  0  0  0  0  0  0  0
  150.7022  145.1386  158.0010 O   0  0  0  0  0  0  0  0  0  0  0  0
  149.2321  141.7126  154.9692 C   0  0  2  0  0  0  0  0  0  0  0  0
  147.8136  141.1387  155.0461 C   0  0  0  0  0  0  0  0  0  0  0  0
  148.0100  139.6639  154.7361 C   0  0  0  0  0  0  0  0  0  0  0  0
  149.3090  139.6292  153.9240 C   0  0  0  0  0  0  0  0  0  0  0  0
  149.7850  140.9737  153.8829 O   0  0  0  0  0  0  0  0  0  0  0  0
  150.1335  143.5006  156.4761 H   0  0  0  0  0  0  0  0  0  0  0  0
  153.0406  141.0635  160.2246 H   0  0  0  0  0  0  0  0  0  0  0  0
  153.3106  143.3266  161.2727 H   0  0  0  0  0  0  0  0  0  0  0  0
  152.1775  145.2820  160.1898 H   0  0  0  0  0  0  0  0  0  0  0  0
  150.2791  144.9099  157.1875 H   0  0  0  0  0  0  0  0  0  0  0  0
  149.2176  142.7767  154.7318 H   0  0  0  0  0  0  0  0  0  0  0  0
  147.3142  141.3060  156.0012 H   0  0  0  0  0  0  0  0  0  0  0  0
  147.1970  141.5980  154.2727 H   0  0  0  0  0  0  0  0  0  0  0  0
  148.1302  139.0941  155.6584 H   0  0  0  0  0  0  0  0  0  0  0  0
  147.1644  139.2448  154.1900 H   0  0  0  0  0  0  0  0  0  0  0  0
  150.0493  138.9875  154.4032 H   0  0  0  0  0  0  0  0  0  0  0  0
  149.1484  139.2610  152.9105 H   0  0  0  0  0  0  0  0  0  0  0  0
  1  2  2  0  0  0  0
  2  3  1  0  0  0  0
  2 11  1  0  0  0  0
  3  4  1  0  0  0  0
  3 16  1  0  0  0  0
  4  9  1  0  0  0  0
  4  5  2  0  0  0  0
  5  6  1  0  0  0  0
  6  7  2  0  0  0  0
  6 17  1  0  0  0  0
  7  8  1  0  0  0  0
  7 18  1  0  0  0  0
  8  9  2  0  0  0  0
  8 19  1  0  0  0  0
  9 10  1  0  0  0  0
 10 20  1  0  0  0  0
 11 15  1  0  0  0  0
 11 12  1  0  0  0  0
 11 21  1  0  0  0  0
 12 13  1  0  0  0  0
 12 22  1  0  0  0  0
 12 23  1  0  0  0  0
 13 14  1  0  0  0  0
 13 24  1  0  0  0  0
 13 25  1  0  0  0  0
 14 15  1  0  0  0  0
 14 26  1  0  0  0  0
 14 27  1  0  0  0  0
M  END
> <s_m_source_file>
AV-unprocessed.smi

> <i_m_source_file_index>
1592

> <i_lp_mmshare_version>
43012

> <i_f3d_flags>
0

> <s_epik_input>
TzFbQ0gyXVtDSDJdW0NIMl1bQ0BIXTFDKD1PKVtOSF1jMm5bY0hdW2NIXVtjSF1jMltPSF0=

> <s_epik_cmdline>
J2VwaWtfcHl0aG9uJywgJy1waCcsICc3LjAnLCAnLXRuJywgJzgnLCAnLW1hJywgJzIwMCcsICctbWV0YWxfYmluZGluZycsICctaW1hZScsICc8aW5maWxlLm1hZT4nLCAnLW9tYWUnLCAnPG91dGZpbGUubWFlPic=

> <r_lp_tautomer_probability>
0.43658

> <r_epik_Ionization_Penalty>
0.0209102

> <r_epik_Ionization_Penalty_Charging>
0

> <r_epik_Ionization_Penalty_Neutral>
0.0209102

> <r_epik_State_Penalty>
0.412899

> <r_epik_Charging_Adjusted_Penalty>
0.412899

> <i_epik_Tot_Q>
0

> <i_epik_Tot_abs_Q>
0

> <r_epik_Metal_State_Penalty>
0.372161

> <b_epik_Metal_Only>
0

> <s_lp_Force_Field>
OPLS_2005

> <r_lp_Energy>
20.4398

> <b_lp_Chiralities_Consistent>
1

> <s_lp_Variant>
AV-unprocessed.smi:1592-1

> <Gold.Version>
5.8.1

> <Gold.Id.Protein>
6NUR|6NUR_protein|mol2

> <Gold.PLP.Fitness>
37.1824

> <Gold.PLP.PLP>
-27.9560

> <Gold.PLP.part.hbond>
-5.0000

> <Gold.PLP.part.metal>
0.0000

> <Gold.PLP.part.buried>
1.1864

> <Gold.PLP.part.nonpolar>
-25.7483

> <Gold.PLP.part.repulsive>
1.7765

> <Gold.PLP.ligand.clash>
0.0000

> <Gold.PLP.ligand.torsion>
0.1016

> <Gold.PLP.Chemscore.Hbond>
3.1309

> <Gold.PLP.Chemscore.CHOScore>
0.0000

> <Gold.PLP.Chemscore.Metal>
0.0000

> <Gold.Chemscore.Hbonds>
donor molecule, donor type, donor heavy atom, donor atom, acceptor molecule, acceptor atom, score
      L1  H     3    16       P1  8028  1.00
      L1  H    10    20       P1  8028  0.95
      P1  H  7989  7998       L1    15  0.42
      P1  H  8011  8017       L1    15  0.71

> <Gold.PLP.Chemscore.Internal.Correction>
0.0370

> <Gold.Rescore>
     Score         DG    S(hbond)    S(metal)    S(lipo)     H(rot)  DE(clash)    DE(int)     intcor
     13.00     -16.73       2.13        0.00      67.73       1.47       0.67       3.06       ----

> <Gold.Chemscore.Fitness>
12.9967

> <Gold.Chemscore.DG>
-16.7317

> <Gold.Chemscore.ZeroCoef>
-5.4800

> <Gold.Chemscore.Hbond>
2.1262

> <Gold.Chemscore.Metal>
0.0000

> <Gold.Chemscore.Lipo>
67.7284

> <Gold.Chemscore.Internal_Hbond>
0.0000

> <Gold.Chemscore.DEClash>
0.6705

> <Gold.Chemscore.DEInternal>
3.0645

> <Gold.Chemscore.Rot>
1.4742

> <Gold.Chemscore.Internal.Correction>
   9.000000E+99

> <Gold.Chemscore.Hbonds>
donor molecule, donor type, donor heavy atom, donor atom, acceptor molecule, acceptor atom, score
      L1  H     3    16       P1  8028  0.99
      L1  H    10    20       P1  8028  0.20
      P1  H  7989  7998       L1    15  0.25
      P1  H  8011  8017       L1    15  0.24

> <Gold.Chemscore.Hbond.Weighted>
-7.1014

> <Gold.Chemscore.Metal.Weighted>
-0.0000

> <Gold.Chemscore.Lipo.Weighted>
-7.9242

> <Gold.Chemscore.Internal_Hbond.Weighted>
0.0000

> <Gold.Chemscore.DEClash.Weighted>
0.6705

> <Gold.Chemscore.DEInternal.Weighted>
3.0645

> <Gold.Chemscore.Rot.Weighted>
3.7739

> <Gold.Chemscore.Internal.Correction.Weighted>
   9.000000E+99

> <Gold.Protein.RotatedTorsions>
[ 6907 6896 6895 6894 ] final -168.89 input  -60.11 | X-H torsion
[ 7974 7965 7964 7962 ] final  137.42 input  175.53 | X-H torsion
[ 8008 7997 7996 7995 ] final -108.38 input   59.86 | X-H torsion
[ 10167 10162 10161 10158 ] final -106.34 input  -65.29 | X-H torsion
[ 10718 10713 10712 10709 ] final   35.15 input   66.30 | X-H torsion
[ 10763 10752 10751 10750 ] final  -49.26 input  -60.55 | X-H torsion
[ 11005 11000 10999 10996 ] final -107.78 input  -57.11 | X-H torsion

> <Gold.Protein.ActiveResidues>
 VAL166  LYS551  ARG553  GLY616  TRP617  ASP618  TYR619  PRO620  LYS621  CYS622 
 ASP623  PHE694  ASN695  SER759  ASP760  ASP761  ALA762  ILE779  LEU786  VAL792 
 PHE793  MET794  SER795  GLU796  ALA797  LYS798  CYS799  TRP800  GLU811  SER814 

> <Gold.Protein.RotatedAtoms>
  151.4829  133.3542  159.2840 H   0  0  0  0  0  0  0  0  0  0  0  0  # atno 6907 bound_to 6896
  150.8885  134.8288  159.7287 H   0  0  0  0  0  0  0  0  0  0  0  0  # atno 6908 bound_to 6896
  152.4808  134.4736  159.9695 H   0  0  0  0  0  0  0  0  0  0  0  0  # atno 6909 bound_to 6896
  144.9470  139.4863  143.5544 H   0  0  0  0  0  0  0  0  0  0  0  0  # atno 7974 bound_to 7965
  154.9434  140.0402  157.2108 H   0  0  0  0  0  0  0  0  0  0  0  0  # atno 8008 bound_to 7997
  154.8047  140.2858  155.5874 H   0  0  0  0  0  0  0  0  0  0  0  0  # atno 8009 bound_to 7997
  156.2965  140.2548  156.2923 H   0  0  0  0  0  0  0  0  0  0  0  0  # atno 8010 bound_to 7997
  140.1889  143.3908  152.1222 H   0  0  0  0  0  0  0  0  0  0  0  0  # atno 10167 bound_to 10162
  157.3191  130.7439  149.6773 H   0  0  0  0  0  0  0  0  0  0  0  0  # atno 10718 bound_to 10713
  154.0911  135.6577  153.4853 H   0  0  0  0  0  0  0  0  0  0  0  0  # atno 10763 bound_to 10752
  153.0321  135.5203  154.7379 H   0  0  0  0  0  0  0  0  0  0  0  0  # atno 10764 bound_to 10752
  154.6503  135.3000  154.9963 H   0  0  0  0  0  0  0  0  0  0  0  0  # atno 10765 bound_to 10752
  141.0936  133.9011  157.2017 H   0  0  0  0  0  0  0  0  0  0  0  0  # atno 11005 bound_to 11000
  146.3307  139.8529  142.8870 LP  0  0  0  0  0  0  0  0  0  0  0  0  # atno 17320 bound_to 7965
  145.2903  141.0165  143.3667 LP  0  0  0  0  0  0  0  0  0  0  0  0  # atno 17321 bound_to 7965
  139.5264  144.7108  151.5213 LP  0  0  0  0  0  0  0  0  0  0  0  0  # atno 17342 bound_to 10162
  140.6469  143.8775  150.6746 LP  0  0  0  0  0  0  0  0  0  0  0  0  # atno 17343 bound_to 10162
  155.9684  130.4228  150.4535 LP  0  0  0  0  0  0  0  0  0  0  0  0  # atno 17370 bound_to 10713
  157.2547  131.0554  151.2357 LP  0  0  0  0  0  0  0  0  0  0  0  0  # atno 17371 bound_to 10713
  139.9767  135.0111  156.9649 LP  0  0  0  0  0  0  0  0  0  0  0  0  # atno 17394 bound_to 11000
  140.5194  134.0923  155.7288 LP  0  0  0  0  0  0  0  0  0  0  0  0  # atno 17395 bound_to 11000

$$$$
