AV-unprocessed.smi:3337|AV-procd|sdf|12864|dock6
  -GOLD-   2272019263D 1   1.00000     0.00000
 Structure written by MMmdl.
 46 47  0  0  0  0  0  0  0  0  2 V2000
  146.0955  136.8787  150.6953 C   0  0  0  0  0  0  0  0  0  0  0  0
  145.0671  136.0419  151.4765 C   0  0  1  0  0  0  0  0  0  0  0  0
  144.9182  134.6101  150.9297 C   0  0  0  0  0  0  0  0  0  0  0  0
  146.1260  133.7308  151.3000 C   0  0  2  0  0  0  0  0  0  0  0  0
  145.9372  132.2880  150.8105 C   0  0  0  0  0  0  0  0  0  0  0  0
  146.3777  133.7806  152.8195 C   0  0  0  0  0  0  0  0  0  0  0  0
  146.5571  135.1764  153.2965 N   0  3  2  0  0  0  0  0  0  0  0  0
  146.9553  135.2315  154.7253 C   0  0  0  0  0  0  0  0  0  0  0  0
  148.4394  134.8744  154.9401 C   0  0  0  0  0  0  0  0  0  0  0  0
  149.3202  135.8957  154.3854 N   0  0  0  0  0  0  0  0  0  0  0  0
  150.0352  136.7686  155.1130 C   0  0  0  0  0  0  0  0  0  0  0  0
  150.0173  136.7852  156.3444 O   0  0  0  0  0  0  0  0  0  0  0  0
  150.8978  137.7701  154.3301 C   0  0  2  0  0  0  0  0  0  0  0  0
  152.3859  137.6951  154.7278 C   0  0  0  0  0  0  0  0  0  0  0  0
  150.3552  139.1160  154.4678 N   0  0  0  0  0  0  0  0  0  0  0  0
  149.1077  139.5591  154.2959 C   0  0  0  0  0  0  0  0  0  0  0  0
  148.9539  140.8505  154.5518 N   0  0  0  0  0  0  0  0  0  0  0  0
  150.2333  141.1652  154.9126 C   0  0  0  0  0  0  0  0  0  0  0  0
  151.1093  140.1609  154.8918 N   0  0  0  0  0  0  0  0  0  0  0  0
  145.3663  136.0135  152.9883 C   0  0  0  0  0  0  0  0  0  0  0  0
  147.1050  136.4780  150.7873 H   0  0  0  0  0  0  0  0  0  0  0  0
  146.1174  137.9067  151.0579 H   0  0  0  0  0  0  0  0  0  0  0  0
  145.8475  136.9125  149.6341 H   0  0  0  0  0  0  0  0  0  0  0  0
  144.1054  136.5393  151.3443 H   0  0  0  0  0  0  0  0  0  0  0  0
  144.0112  134.1659  151.3422 H   0  0  0  0  0  0  0  0  0  0  0  0
  144.7802  134.6323  149.8480 H   0  0  0  0  0  0  0  0  0  0  0  0
  147.0085  134.1279  150.7973 H   0  0  0  0  0  0  0  0  0  0  0  0
  145.0763  131.8162  151.2854 H   0  0  0  0  0  0  0  0  0  0  0  0
  146.8144  131.6796  151.0322 H   0  0  0  0  0  0  0  0  0  0  0  0
  145.7804  132.2575  149.7320 H   0  0  0  0  0  0  0  0  0  0  0  0
  145.5502  133.3170  153.3593 H   0  0  0  0  0  0  0  0  0  0  0  0
  147.2713  133.1994  153.0505 H   0  0  0  0  0  0  0  0  0  0  0  0
  146.7224  136.2188  155.1273 H   0  0  0  0  0  0  0  0  0  0  0  0
  146.3554  134.5202  155.2951 H   0  0  0  0  0  0  0  0  0  0  0  0
  148.6499  134.7870  156.0064 H   0  0  0  0  0  0  0  0  0  0  0  0
  148.6912  133.9113  154.4953 H   0  0  0  0  0  0  0  0  0  0  0  0
  149.3870  135.9475  153.3790 H   0  0  0  0  0  0  0  0  0  0  0  0
  150.8346  137.5083  153.2722 H   0  0  0  0  0  0  0  0  0  0  0  0
  152.7851  136.6933  154.5658 H   0  0  0  0  0  0  0  0  0  0  0  0
  152.5456  137.9472  155.7769 H   0  0  0  0  0  0  0  0  0  0  0  0
  152.9825  138.3840  154.1291 H   0  0  0  0  0  0  0  0  0  0  0  0
  148.2938  138.9232  153.9794 H   0  0  0  0  0  0  0  0  0  0  0  0
  150.5261  142.1626  155.2058 H   0  0  0  0  0  0  0  0  0  0  0  0
  145.5067  137.0335  153.3439 H   0  0  0  0  0  0  0  0  0  0  0  0
  144.5043  135.6163  153.5269 H   0  0  0  0  0  0  0  0  0  0  0  0
  147.3299  135.5566  152.7689 H   0  0  0  0  0  0  0  0  0  0  0  0
  1  2  1  0  0  0  0
  1 21  1  0  0  0  0
  1 22  1  0  0  0  0
  1 23  1  0  0  0  0
  2 20  1  0  0  0  0
  2  3  1  0  0  0  0
  2 24  1  0  0  0  0
  3  4  1  0  0  0  0
  3 25  1  0  0  0  0
  3 26  1  0  0  0  0
  4  5  1  0  0  0  0
  4  6  1  0  0  0  0
  4 27  1  0  0  0  0
  5 28  1  0  0  0  0
  5 29  1  0  0  0  0
  5 30  1  0  0  0  0
  6  7  1  0  0  0  0
  6 31  1  0  0  0  0
  6 32  1  0  0  0  0
  7  8  1  0  0  0  0
  7 20  1  0  0  0  0
  7 46  1  0  0  0  0
  8  9  1  0  0  0  0
  8 33  1  0  0  0  0
  8 34  1  0  0  0  0
  9 10  1  0  0  0  0
  9 35  1  0  0  0  0
  9 36  1  0  0  0  0
 10 11  1  0  0  0  0
 10 37  1  0  0  0  0
 11 12  2  0  0  0  0
 11 13  1  0  0  0  0
 13 14  1  0  0  0  0
 13 15  1  0  0  0  0
 13 38  1  0  0  0  0
 14 39  1  0  0  0  0
 14 40  1  0  0  0  0
 14 41  1  0  0  0  0
 15 19  1  0  0  0  0
 15 16  1  0  0  0  0
 16 17  2  0  0  0  0
 16 42  1  0  0  0  0
 17 18  1  0  0  0  0
 18 19  2  0  0  0  0
 18 43  1  0  0  0  0
 20 44  1  0  0  0  0
 20 45  1  0  0  0  0
M  CHG  1   7   1
M  END
> <s_m_source_file>
AV-unprocessed.smi

> <i_m_source_file_index>
3337

> <i_lp_mmshare_version>
43012

> <i_f3d_flags>
0

> <s_epik_input>
W0NIM11bQ0BASF0xW0NIMl1bQ0BASF0oW0NIM10pW0NIMl1OKFtDSDJdMSlbQ0gyXVtDSDJdW05IXUMoPU8pW0NASF0oW0NIM10pbjJbY0hdbltjSF1uMg==

> <s_epik_cmdline>
J2VwaWtfcHl0aG9uJywgJy1waCcsICc3LjAnLCAnLXRuJywgJzgnLCAnLW1hJywgJzIwMCcsICctbWV0YWxfYmluZGluZycsICctaW1hZScsICc8aW5maWxlLm1hZT4nLCAnLW9tYWUnLCAnPG91dGZpbGUubWFlPic=

> <r_lp_tautomer_probability>
1

> <r_epik_Ionization_Penalty>
0.00175613

> <r_epik_Ionization_Penalty_Charging>
0.00174812

> <r_epik_Ionization_Penalty_Neutral>
8.01354e-06

> <r_epik_State_Penalty>
0.00118332

> <r_epik_Charging_Adjusted_Penalty>
0.00293143

> <i_epik_Tot_Q>
1

> <i_epik_Tot_abs_Q>
1

> <r_epik_Metal_State_Penalty>
-0

> <b_epik_Metal_Only>
0

> <s_lp_Force_Field>
OPLS_2005

> <r_lp_Energy>
24.6468

> <b_lp_Chiralities_Consistent>
1

> <s_lp_Variant>
AV-unprocessed.smi:3337-4

> <Gold.Version>
5.8.1

> <Gold.Id.Protein>
6NUR|6NUR_protein|mol2

> <Gold.PLP.Fitness>
46.4833

> <Gold.PLP.PLP>
-32.2615

> <Gold.PLP.part.hbond>
-2.9633

> <Gold.PLP.part.metal>
0.0000

> <Gold.PLP.part.buried>
-0.9455

> <Gold.PLP.part.nonpolar>
-29.6092

> <Gold.PLP.part.repulsive>
0.2220

> <Gold.PLP.ligand.clash>
0.0000

> <Gold.PLP.ligand.torsion>
0.4471

> <Gold.PLP.Chemscore.Hbond>
4.0000

> <Gold.PLP.Chemscore.CHOScore>
0.9948

> <Gold.PLP.Chemscore.Metal>
0.0000

> <Gold.Chemscore.Hbonds>
donor molecule, donor type, donor heavy atom, donor atom, acceptor molecule, acceptor atom, score
      L1  H     7    46       P1  7948  2.00
      L1  H    10    37       P1  7948  1.00
      P1  H  7989  7998       L1    19  0.20

> <Gold.PLP.Chemscore.Internal.Correction>
0.1317

> <Gold.Rescore>
     Score         DG    S(hbond)    S(metal)    S(lipo)     H(rot)  DE(clash)    DE(int)     intcor
     13.35     -15.09       2.60        0.00      62.82       2.51       0.74       1.00       ----

> <Gold.Chemscore.Fitness>
13.3512

> <Gold.Chemscore.DG>
-15.0944

> <Gold.Chemscore.ZeroCoef>
-5.4800

> <Gold.Chemscore.Hbond>
2.6039

> <Gold.Chemscore.Metal>
0.0000

> <Gold.Chemscore.Lipo>
62.8248

> <Gold.Chemscore.Internal_Hbond>
0.0000

> <Gold.Chemscore.DEClash>
0.7383

> <Gold.Chemscore.DEInternal>
1.0049

> <Gold.Chemscore.Rot>
2.5129

> <Gold.Chemscore.Internal.Correction>
   9.000000E+99

> <Gold.Chemscore.Hbonds>
donor molecule, donor type, donor heavy atom, donor atom, acceptor molecule, acceptor atom, score
      L1  H     7    46       P1  7948  0.98
      L1  H    10    37       P1  7948  0.48

> <Gold.Chemscore.Hbond.Weighted>
-8.6970

> <Gold.Chemscore.Metal.Weighted>
-0.0000

> <Gold.Chemscore.Lipo.Weighted>
-7.3505

> <Gold.Chemscore.Internal_Hbond.Weighted>
0.0000

> <Gold.Chemscore.DEClash.Weighted>
0.7383

> <Gold.Chemscore.DEInternal.Weighted>
1.0049

> <Gold.Chemscore.Rot.Weighted>
6.4331

> <Gold.Chemscore.Internal.Correction.Weighted>
   9.000000E+99

> <Gold.Protein.RotatedTorsions>
[ 6907 6896 6895 6894 ] final  -59.33 input  -60.11 | X-H torsion
[ 7974 7965 7964 7962 ] final  -79.17 input  175.53 | X-H torsion
[ 8008 7997 7996 7995 ] final   75.63 input   59.86 | X-H torsion
[ 10167 10162 10161 10158 ] final   -1.88 input  -65.29 | X-H torsion
[ 10718 10713 10712 10709 ] final   72.53 input   66.30 | X-H torsion
[ 10763 10752 10751 10750 ] final  -33.05 input  -60.55 | X-H torsion
[ 11005 11000 10999 10996 ] final  -59.75 input  -57.11 | X-H torsion

> <Gold.Protein.ActiveResidues>
 VAL166  LYS551  ARG553  GLY616  TRP617  ASP618  TYR619  PRO620  LYS621  CYS622 
 ASP623  PHE694  ASN695  SER759  ASP760  ASP761  ALA762  ILE779  LEU786  VAL792 
 PHE793  MET794  SER795  GLU796  ALA797  LYS798  CYS799  TRP800  GLU811  SER814 

> <Gold.Protein.RotatedAtoms>
  150.7938  134.6983  159.6535 H   0  0  0  0  0  0  0  0  0  0  0  0  # atno 6907 bound_to 6896
  152.4048  134.6222  160.0063 H   0  0  0  0  0  0  0  0  0  0  0  0  # atno 6908 bound_to 6896
  151.6483  133.3285  159.3182 H   0  0  0  0  0  0  0  0  0  0  0  0  # atno 6909 bound_to 6896
  145.5768  140.9456  143.1366 H   0  0  0  0  0  0  0  0  0  0  0  0  # atno 7974 bound_to 7965
  155.8157  140.3471  155.5484 H   0  0  0  0  0  0  0  0  0  0  0  0  # atno 8008 bound_to 7997
  155.8395  140.0939  157.1763 H   0  0  0  0  0  0  0  0  0  0  0  0  # atno 8009 bound_to 7997
  154.4005  140.1397  156.3698 H   0  0  0  0  0  0  0  0  0  0  0  0  # atno 8010 bound_to 7997
  140.6828  143.6723  150.8175 H   0  0  0  0  0  0  0  0  0  0  0  0  # atno 10167 bound_to 10162
  157.6505  130.9583  150.0942 H   0  0  0  0  0  0  0  0  0  0  0  0  # atno 10718 bound_to 10713
  153.8238  135.6872  153.4823 H   0  0  0  0  0  0  0  0  0  0  0  0  # atno 10763 bound_to 10752
  153.1553  135.4601  154.9693 H   0  0  0  0  0  0  0  0  0  0  0  0  # atno 10764 bound_to 10752
  154.7916  135.3304  154.7708 H   0  0  0  0  0  0  0  0  0  0  0  0  # atno 10765 bound_to 10752
  141.1260  133.6618  156.5119 H   0  0  0  0  0  0  0  0  0  0  0  0  # atno 11005 bound_to 11000
  144.7412  139.7443  143.7310 LP  0  0  0  0  0  0  0  0  0  0  0  0  # atno 17320 bound_to 7965
  146.1745  139.4910  142.9906 LP  0  0  0  0  0  0  0  0  0  0  0  0  # atno 17321 bound_to 7965
  140.0426  143.5331  152.2711 LP  0  0  0  0  0  0  0  0  0  0  0  0  # atno 17342 bound_to 10162
  139.6163  144.7620  151.2838 LP  0  0  0  0  0  0  0  0  0  0  0  0  # atno 17343 bound_to 10162
  156.1883  130.3653  149.8944 LP  0  0  0  0  0  0  0  0  0  0  0  0  # atno 17370 bound_to 10713
  156.6879  130.8884  151.3584 LP  0  0  0  0  0  0  0  0  0  0  0  0  # atno 17371 bound_to 10713
  140.4362  134.7057  157.4968 LP  0  0  0  0  0  0  0  0  0  0  0  0  # atno 17394 bound_to 11000
  140.0260  134.6476  155.9172 LP  0  0  0  0  0  0  0  0  0  0  0  0  # atno 17395 bound_to 11000

$$$$
