AV-unprocessed.smi:1244|AV-procd|sdf|5227|dock2
  -GOLD-   22720 4323D 1   1.00000     0.00000
 Structure written by MMmdl.
 55 57  0  0  0  0  0  0  0  0  2 V2000
  147.8836  137.1315  163.4779 C   0  0  0  0  0  0  0  0  0  0  0  0
  147.2148  136.1698  162.4893 C   0  0  1  0  0  0  0  0  0  0  0  0
  147.7501  136.3505  161.0577 C   0  0  0  0  0  0  0  0  0  0  0  0
  147.1491  135.3489  160.1467 N   0  3  1  0  0  0  0  0  0  0  0  0
  147.5612  135.5522  158.7355 C   0  0  0  0  0  0  0  0  0  0  0  0
  149.0919  135.6141  158.5713 C   0  0  0  0  0  0  0  0  0  0  0  0
  149.5381  136.9622  158.2405 N   0  0  0  0  0  0  0  0  0  0  0  0
  150.5219  137.6179  158.8722 C   0  0  0  0  0  0  0  0  0  0  0  0
  151.1649  137.1394  159.8068 O   0  0  0  0  0  0  0  0  0  0  0  0
  150.7206  138.8342  158.3380 N   0  0  0  0  0  0  0  0  0  0  0  0
  151.6958  139.8011  158.7114 C   0  0  0  0  0  0  0  0  0  0  0  0
  152.7081  139.4996  159.6548 C   0  0  0  0  0  0  0  0  0  0  0  0
  153.6063  140.5061  160.0485 C   0  0  0  0  0  0  0  0  0  0  0  0
  153.4505  141.7883  159.4963 C   0  0  0  0  0  0  0  0  0  0  0  0
  152.4844  142.0950  158.6077 N   0  0  0  0  0  0  0  0  0  0  0  0
  151.6195  141.1308  158.2061 C   0  0  0  0  0  0  0  0  0  0  0  0
  150.6403  141.5051  157.2572 N   0  0  0  0  0  0  0  0  0  0  0  0
  150.7236  141.0276  155.8806 C   0  0  0  0  0  0  0  0  0  0  0  0
  149.3415  141.2856  155.2878 C   0  0  0  0  0  0  0  0  0  0  0  0
  148.4229  141.0278  156.4782 C   0  0  0  0  0  0  0  0  0  0  0  0
  149.2428  141.5074  157.6806 C   0  0  0  0  0  0  0  0  0  0  0  0
  147.4047  133.9764  160.6498 C   0  0  0  0  0  0  0  0  0  0  0  0
  146.9181  133.8159  162.1039 C   0  0  2  0  0  0  0  0  0  0  0  0
  145.3867  133.7319  162.2341 C   0  0  0  0  0  0  0  0  0  0  0  0
  147.4759  134.8393  162.9280 O   0  0  0  0  0  0  0  0  0  0  0  0
  147.7053  138.1701  163.1981 H   0  0  0  0  0  0  0  0  0  0  0  0
  148.9621  136.9746  163.5134 H   0  0  0  0  0  0  0  0  0  0  0  0
  147.4935  136.9883  164.4859 H   0  0  0  0  0  0  0  0  0  0  0  0
  146.1415  136.3609  162.5069 H   0  0  0  0  0  0  0  0  0  0  0  0
  147.5148  137.3561  160.7069 H   0  0  0  0  0  0  0  0  0  0  0  0
  148.8368  136.2516  161.0417 H   0  0  0  0  0  0  0  0  0  0  0  0
  147.1838  134.7205  158.1388 H   0  0  0  0  0  0  0  0  0  0  0  0
  147.0920  136.4534  158.3378 H   0  0  0  0  0  0  0  0  0  0  0  0
  149.5940  135.3259  159.4939 H   0  0  0  0  0  0  0  0  0  0  0  0
  149.4235  134.9126  157.8038 H   0  0  0  0  0  0  0  0  0  0  0  0
  149.0635  137.4295  157.4814 H   0  0  0  0  0  0  0  0  0  0  0  0
  150.1890  139.0539  157.5082 H   0  0  0  0  0  0  0  0  0  0  0  0
  152.7949  138.5199  160.0997 H   0  0  0  0  0  0  0  0  0  0  0  0
  154.3868  140.3029  160.7666 H   0  0  0  0  0  0  0  0  0  0  0  0
  154.1147  142.5911  159.7798 H   0  0  0  0  0  0  0  0  0  0  0  0
  151.5060  141.5473  155.3267 H   0  0  0  0  0  0  0  0  0  0  0  0
  150.9350  139.9577  155.8522 H   0  0  0  0  0  0  0  0  0  0  0  0
  149.2579  142.3262  154.9709 H   0  0  0  0  0  0  0  0  0  0  0  0
  149.1208  140.6490  154.4309 H   0  0  0  0  0  0  0  0  0  0  0  0
  147.4611  141.5339  156.3920 H   0  0  0  0  0  0  0  0  0  0  0  0
  148.2326  139.9573  156.5675 H   0  0  0  0  0  0  0  0  0  0  0  0
  149.0757  140.8748  158.5537 H   0  0  0  0  0  0  0  0  0  0  0  0
  148.9566  142.5266  157.9412 H   0  0  0  0  0  0  0  0  0  0  0  0
  146.9160  133.2337  160.0202 H   0  0  0  0  0  0  0  0  0  0  0  0
  148.4758  133.7741  160.5998 H   0  0  0  0  0  0  0  0  0  0  0  0
  147.3169  132.8746  162.4835 H   0  0  0  0  0  0  0  0  0  0  0  0
  145.0018  132.8589  161.7065 H   0  0  0  0  0  0  0  0  0  0  0  0
  144.8861  134.6066  161.8195 H   0  0  0  0  0  0  0  0  0  0  0  0
  145.0907  133.6404  163.2794 H   0  0  0  0  0  0  0  0  0  0  0  0
  146.1507  135.4989  160.1804 H   0  0  0  0  0  0  0  0  0  0  0  0
  1  2  1  0  0  0  0
  1 26  1  0  0  0  0
  1 27  1  0  0  0  0
  1 28  1  0  0  0  0
  2 25  1  0  0  0  0
  2  3  1  0  0  0  0
  2 29  1  0  0  0  0
  3  4  1  0  0  0  0
  3 30  1  0  0  0  0
  3 31  1  0  0  0  0
  4  5  1  0  0  0  0
  4 22  1  0  0  0  0
  4 55  1  0  0  0  0
  5  6  1  0  0  0  0
  5 32  1  0  0  0  0
  5 33  1  0  0  0  0
  6  7  1  0  0  0  0
  6 34  1  0  0  0  0
  6 35  1  0  0  0  0
  7  8  1  0  0  0  0
  7 36  1  0  0  0  0
  8  9  2  0  0  0  0
  8 10  1  0  0  0  0
 10 11  1  0  0  0  0
 10 37  1  0  0  0  0
 11 16  1  0  0  0  0
 11 12  2  0  0  0  0
 12 13  1  0  0  0  0
 12 38  1  0  0  0  0
 13 14  2  0  0  0  0
 13 39  1  0  0  0  0
 14 15  1  0  0  0  0
 14 40  1  0  0  0  0
 15 16  2  0  0  0  0
 16 17  1  0  0  0  0
 17 21  1  0  0  0  0
 17 18  1  0  0  0  0
 18 19  1  0  0  0  0
 18 41  1  0  0  0  0
 18 42  1  0  0  0  0
 19 20  1  0  0  0  0
 19 43  1  0  0  0  0
 19 44  1  0  0  0  0
 20 21  1  0  0  0  0
 20 45  1  0  0  0  0
 20 46  1  0  0  0  0
 21 47  1  0  0  0  0
 21 48  1  0  0  0  0
 22 23  1  0  0  0  0
 22 49  1  0  0  0  0
 22 50  1  0  0  0  0
 23 24  1  0  0  0  0
 23 25  1  0  0  0  0
 23 51  1  0  0  0  0
 24 52  1  0  0  0  0
 24 53  1  0  0  0  0
 24 54  1  0  0  0  0
M  CHG  1   4   1
M  END
> <s_m_source_file>
AV-unprocessed.smi

> <i_m_source_file_index>
1244

> <i_lp_mmshare_version>
43012

> <i_f3d_flags>
0

> <s_epik_input>
W0NIM11bQ0BASF0xW0NIMl1OKFtDSDJdW0NASF0oTzEpW0NIM10pW0NIMl1bQ0gyXVtOSF1DKD1PKVtOSF1jMltjSF1bY0hdW2NIXW5jMk4zW0NIMl1bQ0gyXVtDSDJdW0NIMl0z

> <s_epik_cmdline>
J2VwaWtfcHl0aG9uJywgJy1waCcsICc3LjAnLCAnLXRuJywgJzgnLCAnLW1hJywgJzIwMCcsICctbWV0YWxfYmluZGluZycsICctaW1hZScsICc8aW5maWxlLm1hZT4nLCAnLW9tYWUnLCAnPG91dGZpbGUubWFlPic=

> <r_lp_tautomer_probability>
1

> <r_epik_Ionization_Penalty>
0.684913

> <r_epik_Ionization_Penalty_Charging>
0.602531

> <r_epik_Ionization_Penalty_Neutral>
0.0823829

> <r_epik_State_Penalty>
0.678827

> <r_epik_Charging_Adjusted_Penalty>
1.28136

> <i_epik_Tot_Q>
1

> <i_epik_Tot_abs_Q>
1

> <r_epik_Metal_State_Penalty>
0.67806

> <b_epik_Metal_Only>
0

> <s_lp_Force_Field>
OPLS_2005

> <r_lp_Energy>
45.4089

> <b_lp_Chiralities_Consistent>
1

> <s_lp_Variant>
AV-unprocessed.smi:1244-7

> <Gold.Version>
5.8.1

> <Gold.Id.Protein>
6NUR|6NUR_protein|mol2

> <Gold.PLP.Fitness>
44.1019

> <Gold.PLP.PLP>
-42.0101

> <Gold.PLP.part.hbond>
-0.9284

> <Gold.PLP.part.metal>
0.0000

> <Gold.PLP.part.buried>
-5.4792

> <Gold.PLP.part.nonpolar>
-35.9976

> <Gold.PLP.part.repulsive>
0.3337

> <Gold.PLP.ligand.clash>
0.0000

> <Gold.PLP.ligand.torsion>
0.6253

> <Gold.PLP.Chemscore.Hbond>
0.9750

> <Gold.PLP.Chemscore.CHOScore>
0.0000

> <Gold.PLP.Chemscore.Metal>
0.0000

> <Gold.Chemscore.Hbonds>
donor molecule, donor type, donor heavy atom, donor atom, acceptor molecule, acceptor atom, score
      P1  H  6896  6909       L1     9  1.00

> <Gold.PLP.Chemscore.Internal.Correction>
0.4173

> <Gold.Rescore>
     Score         DG    S(hbond)    S(metal)    S(lipo)     H(rot)  DE(clash)    DE(int)     intcor
     15.04     -17.07       0.96        0.00     106.52       1.60       0.04       1.99       ----

> <Gold.Chemscore.Fitness>
15.0449

> <Gold.Chemscore.DG>
-17.0725

> <Gold.Chemscore.ZeroCoef>
-5.4800

> <Gold.Chemscore.Hbond>
0.9641

> <Gold.Chemscore.Metal>
0.0000

> <Gold.Chemscore.Lipo>
106.5210

> <Gold.Chemscore.Internal_Hbond>
0.0000

> <Gold.Chemscore.DEClash>
0.0385

> <Gold.Chemscore.DEInternal>
1.9891

> <Gold.Chemscore.Rot>
1.5978

> <Gold.Chemscore.Internal.Correction>
   9.000000E+99

> <Gold.Chemscore.Hbonds>
donor molecule, donor type, donor heavy atom, donor atom, acceptor molecule, acceptor atom, score
      P1  H  6896  6909       L1     9  0.94

> <Gold.Chemscore.Hbond.Weighted>
-3.2200

> <Gold.Chemscore.Metal.Weighted>
-0.0000

> <Gold.Chemscore.Lipo.Weighted>
-12.4630

> <Gold.Chemscore.Internal_Hbond.Weighted>
0.0000

> <Gold.Chemscore.DEClash.Weighted>
0.0385

> <Gold.Chemscore.DEInternal.Weighted>
1.9891

> <Gold.Chemscore.Rot.Weighted>
4.0905

> <Gold.Chemscore.Internal.Correction.Weighted>
   9.000000E+99

> <Gold.Protein.RotatedTorsions>
[ 6907 6896 6895 6894 ] final  107.43 input  -60.11 | X-H torsion
[ 7974 7965 7964 7962 ] final  -96.28 input  175.53 | X-H torsion
[ 8008 7997 7996 7995 ] final   59.04 input   59.86 | X-H torsion
[ 10167 10162 10161 10158 ] final -106.30 input  -65.29 | X-H torsion
[ 10718 10713 10712 10709 ] final -152.17 input   66.30 | X-H torsion
[ 10763 10752 10751 10750 ] final  -88.17 input  -60.55 | X-H torsion
[ 11005 11000 10999 10996 ] final   69.67 input  -57.11 | X-H torsion

> <Gold.Protein.ActiveResidues>
 VAL166  LYS551  ARG553  GLY616  TRP617  ASP618  TYR619  PRO620  LYS621  CYS622 
 ASP623  PHE694  ASN695  SER759  ASP760  ASP761  ALA762  ILE779  LEU786  VAL792 
 PHE793  MET794  SER795  GLU796  ALA797  LYS798  CYS799  TRP800  GLU811  SER814 

> <Gold.Protein.RotatedAtoms>
  152.5154  133.9236  159.7546 H   0  0  0  0  0  0  0  0  0  0  0  0  # atno 6907 bound_to 6896
  150.9602  133.6445  159.2762 H   0  0  0  0  0  0  0  0  0  0  0  0  # atno 6908 bound_to 6896
  151.3693  135.0924  159.9513 H   0  0  0  0  0  0  0  0  0  0  0  0  # atno 6909 bound_to 6896
  145.3490  140.9473  143.2565 H   0  0  0  0  0  0  0  0  0  0  0  0  # atno 7974 bound_to 7965
  155.5597  140.3488  155.4488 H   0  0  0  0  0  0  0  0  0  0  0  0  # atno 8008 bound_to 7997
  156.0523  140.1320  157.0062 H   0  0  0  0  0  0  0  0  0  0  0  0  # atno 8009 bound_to 7997
  154.4440  140.1002  156.6379 H   0  0  0  0  0  0  0  0  0  0  0  0  # atno 8010 bound_to 7997
  140.1893  143.3905  152.1219 H   0  0  0  0  0  0  0  0  0  0  0  0  # atno 10167 bound_to 10162
  156.4690  130.8249  151.2479 H   0  0  0  0  0  0  0  0  0  0  0  0  # atno 10718 bound_to 10713
  154.6416  135.5387  153.7796 H   0  0  0  0  0  0  0  0  0  0  0  0  # atno 10763 bound_to 10752
  153.0337  135.6460  154.1151 H   0  0  0  0  0  0  0  0  0  0  0  0  # atno 10764 bound_to 10752
  154.1075  135.2929  155.3218 H   0  0  0  0  0  0  0  0  0  0  0  0  # atno 10765 bound_to 10752
  139.9640  134.7012  156.0584 H   0  0  0  0  0  0  0  0  0  0  0  0  # atno 11005 bound_to 11000
  144.8732  139.5008  143.6758 LP  0  0  0  0  0  0  0  0  0  0  0  0  # atno 17320 bound_to 7965
  146.2976  139.7326  142.9115 LP  0  0  0  0  0  0  0  0  0  0  0  0  # atno 17321 bound_to 7965
  139.5263  144.7106  151.5219 LP  0  0  0  0  0  0  0  0  0  0  0  0  # atno 17342 bound_to 10162
  140.6467  143.8780  150.6744 LP  0  0  0  0  0  0  0  0  0  0  0  0  # atno 17343 bound_to 10162
  157.7492  131.0082  150.3221 LP  0  0  0  0  0  0  0  0  0  0  0  0  # atno 17370 bound_to 10713
  156.3638  130.3851  149.7230 LP  0  0  0  0  0  0  0  0  0  0  0  0  # atno 17371 bound_to 10713
  141.1319  133.6584  156.3488 LP  0  0  0  0  0  0  0  0  0  0  0  0  # atno 17394 bound_to 11000
  140.5436  134.6096  157.5387 LP  0  0  0  0  0  0  0  0  0  0  0  0  # atno 17395 bound_to 11000

$$$$
