AV-unprocessed.smi:249|AV-procd|sdf|1920|dock9
  -GOLD-   2262021 23D 1   1.00000     0.00000
 Structure written by MMmdl.
 64 67  0  0  0  0  0  0  0  0  2 V2000
  146.4117  129.5218  152.0402 C   0  0  0  0  0  0  0  0  0  0  0  0
  146.3854  130.8916  152.7356 C   0  0  0  0  0  0  0  0  0  0  0  0
  147.0693  131.9605  151.9492 N   0  3  2  0  0  0  0  0  0  0  0  0
  147.6877  133.0287  152.7849 C   0  0  0  0  0  0  0  0  0  0  0  0
  146.6300  133.9662  153.3992 C   0  0  0  0  0  0  0  0  0  0  0  0
  145.7355  134.5773  152.3027 C   0  0  2  0  0  0  0  0  0  0  0  0
  144.7133  135.4772  152.8488 N   0  0  0  0  0  0  0  0  0  0  0  0
  143.3660  134.9753  153.1169 C   0  0  0  0  0  0  0  0  0  0  0  0
  145.1772  136.4453  153.6803 C   0  0  0  0  0  0  0  0  0  0  0  0
  144.9586  136.3443  155.0187 N   0  0  0  0  0  0  0  0  0  0  0  0
  145.4251  137.2794  155.8513 C   0  0  0  0  0  0  0  0  0  0  0  0
  146.1201  138.3812  155.5627 N   0  0  0  0  0  0  0  0  0  0  0  0
  146.3325  138.4950  154.2209 C   0  0  0  0  0  0  0  0  0  0  0  0
  145.9039  137.5792  153.2189 C   0  0  0  0  0  0  0  0  0  0  0  0
  146.3048  138.0276  151.9655 N   0  0  0  0  0  0  0  0  0  0  0  0
  146.9397  139.1407  152.2129 C   0  0  0  0  0  0  0  0  0  0  0  0
  146.9868  139.5065  153.5394 N   0  0  0  0  0  0  0  0  0  0  0  0
  147.6264  140.6879  154.0911 C   0  0  0  0  0  0  0  0  0  0  0  0
  148.7691  140.3954  155.0994 C   0  0  1  0  0  0  0  0  0  0  0  0
  149.9207  139.6684  154.3671 C   0  0  0  0  0  0  0  0  0  0  0  0
  149.4682  138.4998  153.7128 O   0  0  0  0  0  0  0  0  0  0  0  0
  149.2597  141.6400  155.8960 C   0  0  2  0  0  0  0  0  0  0  0  0
  150.7399  141.6260  156.2456 C   0  0  0  0  0  0  0  0  0  0  0  0
  150.8172  142.6570  157.3618 C   0  0  0  0  0  0  0  0  0  0  0  0
  149.6293  142.4549  158.1111 O   0  0  0  0  0  0  0  0  0  0  0  0
  148.6459  141.8267  157.2936 C   0  0  0  0  0  0  0  0  0  0  0  0
  145.1373  133.4685  151.4149 C   0  0  0  0  0  0  0  0  0  0  0  0
  146.2531  132.5643  150.8510 C   0  0  2  0  0  0  0  0  0  0  0  0
  145.7242  131.5342  149.8364 C   0  0  0  0  0  0  0  0  0  0  0  0
  145.7769  128.8130  152.5725 H   0  0  0  0  0  0  0  0  0  0  0  0
  147.4121  129.0911  152.0130 H   0  0  0  0  0  0  0  0  0  0  0  0
  146.0413  129.5903  151.0170 H   0  0  0  0  0  0  0  0  0  0  0  0
  145.3359  131.1456  152.8692 H   0  0  0  0  0  0  0  0  0  0  0  0
  146.8071  130.8119  153.7373 H   0  0  0  0  0  0  0  0  0  0  0  0
  148.3224  132.6086  153.5632 H   0  0  0  0  0  0  0  0  0  0  0  0
  148.3575  133.6126  152.1519 H   0  0  0  0  0  0  0  0  0  0  0  0
  146.0295  133.4206  154.1270 H   0  0  0  0  0  0  0  0  0  0  0  0
  147.1302  134.7605  153.9544 H   0  0  0  0  0  0  0  0  0  0  0  0
  146.3955  135.1567  151.6577 H   0  0  0  0  0  0  0  0  0  0  0  0
  142.6862  135.7978  153.3442 H   0  0  0  0  0  0  0  0  0  0  0  0
  143.3645  134.2887  153.9638 H   0  0  0  0  0  0  0  0  0  0  0  0
  142.9581  134.4528  152.2530 H   0  0  0  0  0  0  0  0  0  0  0  0
  145.2109  137.1224  156.8982 H   0  0  0  0  0  0  0  0  0  0  0  0
  147.3815  139.7371  151.4278 H   0  0  0  0  0  0  0  0  0  0  0  0
  148.0110  141.2660  153.2501 H   0  0  0  0  0  0  0  0  0  0  0  0
  146.8610  141.3067  154.5612 H   0  0  0  0  0  0  0  0  0  0  0  0
  148.3884  139.6790  155.8278 H   0  0  0  0  0  0  0  0  0  0  0  0
  150.3961  140.3207  153.6348 H   0  0  0  0  0  0  0  0  0  0  0  0
  150.7028  139.3895  155.0740 H   0  0  0  0  0  0  0  0  0  0  0  0
  149.4405  138.6680  152.7831 H   0  0  0  0  0  0  0  0  0  0  0  0
  149.0629  142.5404  155.3118 H   0  0  0  0  0  0  0  0  0  0  0  0
  151.0359  140.6459  156.6230 H   0  0  0  0  0  0  0  0  0  0  0  0
  151.3841  141.8790  155.4031 H   0  0  0  0  0  0  0  0  0  0  0  0
  151.7072  142.5447  157.9815 H   0  0  0  0  0  0  0  0  0  0  0  0
  150.8100  143.6676  156.9515 H   0  0  0  0  0  0  0  0  0  0  0  0
  147.7428  142.4351  157.2653 H   0  0  0  0  0  0  0  0  0  0  0  0
  148.3954  140.8682  157.7491 H   0  0  0  0  0  0  0  0  0  0  0  0
  144.4224  132.8625  151.9706 H   0  0  0  0  0  0  0  0  0  0  0  0
  144.5819  133.9240  150.5939 H   0  0  0  0  0  0  0  0  0  0  0  0
  146.9356  133.2039  150.2888 H   0  0  0  0  0  0  0  0  0  0  0  0
  145.3296  132.0370  148.9530 H   0  0  0  0  0  0  0  0  0  0  0  0
  144.9132  130.9308  150.2437 H   0  0  0  0  0  0  0  0  0  0  0  0
  146.5164  130.8632  149.5031 H   0  0  0  0  0  0  0  0  0  0  0  0
  147.8367  131.4935  151.4873 H   0  0  0  0  0  0  0  0  0  0  0  0
  1  2  1  0  0  0  0
  1 30  1  0  0  0  0
  1 31  1  0  0  0  0
  1 32  1  0  0  0  0
  2  3  1  0  0  0  0
  2 33  1  0  0  0  0
  2 34  1  0  0  0  0
  3 28  1  0  0  0  0
  3  4  1  0  0  0  0
  3 64  1  0  0  0  0
  4  5  1  0  0  0  0
  4 35  1  0  0  0  0
  4 36  1  0  0  0  0
  5  6  1  0  0  0  0
  5 37  1  0  0  0  0
  5 38  1  0  0  0  0
  6  7  1  0  0  0  0
  6 27  1  0  0  0  0
  6 39  1  0  0  0  0
  7  8  1  0  0  0  0
  7  9  1  0  0  0  0
  8 40  1  0  0  0  0
  8 41  1  0  0  0  0
  8 42  1  0  0  0  0
  9 14  1  0  0  0  0
  9 10  2  0  0  0  0
 10 11  1  0  0  0  0
 11 12  2  0  0  0  0
 11 43  1  0  0  0  0
 12 13  1  0  0  0  0
 13 17  1  0  0  0  0
 13 14  2  0  0  0  0
 14 15  1  0  0  0  0
 15 16  2  0  0  0  0
 16 17  1  0  0  0  0
 16 44  1  0  0  0  0
 17 18  1  0  0  0  0
 18 19  1  0  0  0  0
 18 45  1  0  0  0  0
 18 46  1  0  0  0  0
 19 20  1  0  0  0  0
 19 22  1  0  0  0  0
 19 47  1  0  0  0  0
 20 21  1  0  0  0  0
 20 48  1  0  0  0  0
 20 49  1  0  0  0  0
 21 50  1  0  0  0  0
 22 26  1  0  0  0  0
 22 23  1  0  0  0  0
 22 51  1  0  0  0  0
 23 24  1  0  0  0  0
 23 52  1  0  0  0  0
 23 53  1  0  0  0  0
 24 25  1  0  0  0  0
 24 54  1  0  0  0  0
 24 55  1  0  0  0  0
 25 26  1  0  0  0  0
 26 56  1  0  0  0  0
 26 57  1  0  0  0  0
 27 28  1  0  0  0  0
 27 58  1  0  0  0  0
 27 59  1  0  0  0  0
 28 29  1  0  0  0  0
 28 60  1  0  0  0  0
 29 61  1  0  0  0  0
 29 62  1  0  0  0  0
 29 63  1  0  0  0  0
M  CHG  1   3   1
M  END
> <s_m_source_file>
AV-unprocessed.smi

> <i_m_source_file_index>
249

> <i_lp_mmshare_version>
43012

> <i_f3d_flags>
0

> <s_epik_input>
W0NIM11bQ0gyXU4xW0NIMl1bQ0gyXVtDQEhdKFtDSDJdW0NASF0xW0NIM10pTihbQ0gzXSljKG5bY0hdbjIpYyhjMjMpbltjSF1uM1tDSDJdW0NASF0oW0NIMl1bT0hdKVtDQEBIXTRbQ0gyXVtDSDJdT1tDSDJdNA==

> <s_epik_cmdline>
J2VwaWtfcHl0aG9uJywgJy1waCcsICc3LjAnLCAnLXRuJywgJzgnLCAnLW1hJywgJzIwMCcsICctbWV0YWxfYmluZGluZycsICctaW1hZScsICc8aW5maWxlLm1hZT4nLCAnLW9tYWUnLCAnPG91dGZpbGUubWFlPic=

> <r_lp_tautomer_probability>
1

> <r_epik_Ionization_Penalty>
0.00294688

> <r_epik_Ionization_Penalty_Charging>
0.00169971

> <r_epik_Ionization_Penalty_Neutral>
0.00124717

> <r_epik_State_Penalty>
-0

> <r_epik_Charging_Adjusted_Penalty>
0.00169971

> <i_epik_Tot_Q>
1

> <i_epik_Tot_abs_Q>
1

> <r_epik_Metal_State_Penalty>
-0

> <b_epik_Metal_Only>
0

> <s_lp_Force_Field>
OPLS_2005

> <r_lp_Energy>
55.0731

> <b_lp_Chiralities_Consistent>
1

> <s_lp_Variant>
AV-unprocessed.smi:249-23

> <Gold.Version>
5.8.1

> <Gold.Id.Protein>
6NUR|6NUR_protein|mol2

> <Gold.PLP.Fitness>
51.1129

> <Gold.PLP.PLP>
-46.9881

> <Gold.PLP.part.hbond>
-3.0000

> <Gold.PLP.part.metal>
0.0000

> <Gold.PLP.part.buried>
-3.6630

> <Gold.PLP.part.nonpolar>
-43.0906

> <Gold.PLP.part.repulsive>
0.5902

> <Gold.PLP.ligand.clash>
0.0000

> <Gold.PLP.ligand.torsion>
2.7893

> <Gold.PLP.Chemscore.Hbond>
2.0000

> <Gold.PLP.Chemscore.CHOScore>
0.8112

> <Gold.PLP.Chemscore.Metal>
0.0000

> <Gold.Chemscore.Hbonds>
donor molecule, donor type, donor heavy atom, donor atom, acceptor molecule, acceptor atom, score
      L1  H     3    64       P1 10747  1.00
      L1  H    21    50       P1  7957  0.78
      L1  C    16    44       P1  7957  0.91

> <Gold.PLP.Chemscore.Internal.Correction>
1.2698

> <Gold.Rescore>
     Score         DG    S(hbond)    S(metal)    S(lipo)     H(rot)  DE(clash)    DE(int)     intcor
     12.10     -17.39       1.84        0.00     107.32       2.65       0.86       4.43       ----

> <Gold.Chemscore.Fitness>
12.0990

> <Gold.Chemscore.DG>
-17.3905

> <Gold.Chemscore.ZeroCoef>
-5.4800

> <Gold.Chemscore.Hbond>
1.8390

> <Gold.Chemscore.Metal>
0.0000

> <Gold.Chemscore.Lipo>
107.3185

> <Gold.Chemscore.Internal_Hbond>
0.0000

> <Gold.Chemscore.DEClash>
0.8581

> <Gold.Chemscore.DEInternal>
4.4334

> <Gold.Chemscore.Rot>
2.6515

> <Gold.Chemscore.Internal.Correction>
   9.000000E+99

> <Gold.Chemscore.Hbonds>
donor molecule, donor type, donor heavy atom, donor atom, acceptor molecule, acceptor atom, score
      L1  H     3    64       P1 10747  1.00
      L1  H    21    50       P1  7957  0.62

> <Gold.Chemscore.Hbond.Weighted>
-6.1422

> <Gold.Chemscore.Metal.Weighted>
-0.0000

> <Gold.Chemscore.Lipo.Weighted>
-12.5563

> <Gold.Chemscore.Internal_Hbond.Weighted>
0.0000

> <Gold.Chemscore.DEClash.Weighted>
0.8581

> <Gold.Chemscore.DEInternal.Weighted>
4.4334

> <Gold.Chemscore.Rot.Weighted>
6.7880

> <Gold.Chemscore.Internal.Correction.Weighted>
   9.000000E+99

> <Gold.Protein.RotatedTorsions>
[ 6907 6896 6895 6894 ] final  125.13 input  -60.11 | X-H torsion
[ 7974 7965 7964 7962 ] final -124.26 input  175.53 | X-H torsion
[ 8008 7997 7996 7995 ] final  -46.66 input   59.86 | X-H torsion
[ 10167 10162 10161 10158 ] final -107.63 input  -65.29 | X-H torsion
[ 10718 10713 10712 10709 ] final -118.32 input   66.30 | X-H torsion
[ 10763 10752 10751 10750 ] final -173.98 input  -60.55 | X-H torsion
[ 11005 11000 10999 10996 ] final  -32.67 input  -57.11 | X-H torsion

> <Gold.Protein.ActiveResidues>
 VAL166  LYS551  ARG553  GLY616  TRP617  ASP618  TYR619  PRO620  LYS621  CYS622 
 ASP623  PHE694  ASN695  SER759  ASP760  ASP761  ALA762  ILE779  LEU786  VAL792 
 PHE793  MET794  SER795  GLU796  ALA797  LYS798  CYS799  TRP800  GLU811  SER814 

> <Gold.Protein.RotatedAtoms>
  152.4019  133.6830  159.6323 H   0  0  0  0  0  0  0  0  0  0  0  0  # atno 6907 bound_to 6896
  150.7909  133.8776  159.3285 H   0  0  0  0  0  0  0  0  0  0  0  0  # atno 6908 bound_to 6896
  151.6540  135.0999  160.0218 H   0  0  0  0  0  0  0  0  0  0  0  0  # atno 6909 bound_to 6896
  145.0099  140.7896  143.4445 H   0  0  0  0  0  0  0  0  0  0  0  0  # atno 7974 bound_to 7965
  154.4009  140.1366  156.4047 H   0  0  0  0  0  0  0  0  0  0  0  0  # atno 8008 bound_to 7997
  155.7791  140.3482  155.5267 H   0  0  0  0  0  0  0  0  0  0  0  0  # atno 8009 bound_to 7997
  155.8692  140.0969  157.1552 H   0  0  0  0  0  0  0  0  0  0  0  0  # atno 8010 bound_to 7997
  140.1749  143.4013  152.1326 H   0  0  0  0  0  0  0  0  0  0  0  0  # atno 10167 bound_to 10162
  156.1098  130.6239  150.9276 H   0  0  0  0  0  0  0  0  0  0  0  0  # atno 10718 bound_to 10713
  154.6015  135.2855  155.0530 H   0  0  0  0  0  0  0  0  0  0  0  0  # atno 10763 bound_to 10752
  154.1793  135.6459  153.5033 H   0  0  0  0  0  0  0  0  0  0  0  0  # atno 10764 bound_to 10752
  153.0159  135.5419  154.6736 H   0  0  0  0  0  0  0  0  0  0  0  0  # atno 10765 bound_to 10752
  140.9571  133.7186  156.1311 H   0  0  0  0  0  0  0  0  0  0  0  0  # atno 11005 bound_to 11000
  145.2037  139.2239  143.5179 LP  0  0  0  0  0  0  0  0  0  0  0  0  # atno 17320 bound_to 7965
  146.3468  140.1860  142.8589 LP  0  0  0  0  0  0  0  0  0  0  0  0  # atno 17321 bound_to 7965
  139.5321  144.7171  151.5018 LP  0  0  0  0  0  0  0  0  0  0  0  0  # atno 17342 bound_to 10162
  140.6558  143.8603  150.6833 LP  0  0  0  0  0  0  0  0  0  0  0  0  # atno 17343 bound_to 10162
  157.6278  131.0924  150.8500 LP  0  0  0  0  0  0  0  0  0  0  0  0  # atno 17370 bound_to 10713
  156.8613  130.5114  149.5303 LP  0  0  0  0  0  0  0  0  0  0  0  0  # atno 17371 bound_to 10713
  140.7520  134.4034  157.5540 LP  0  0  0  0  0  0  0  0  0  0  0  0  # atno 17394 bound_to 11000
  139.8866  134.8906  156.2577 LP  0  0  0  0  0  0  0  0  0  0  0  0  # atno 17395 bound_to 11000

$$$$
