AV-unprocessed.smi:3248|AV-procd|sdf|12415|dock7
  -GOLD-   2272018293D 1   1.00000     0.00000
 Structure written by MMmdl.
 38 39  0  0  0  0  0  0  0  0  1 V2000
  147.0353  134.8869  153.9634 C   0  0  0  0  0  0  0  0  0  0  0  0
  146.6713  136.2604  154.5465 C   0  0  2  0  0  0  0  0  0  0  0  0
  145.3048  136.7510  154.0310 C   0  0  0  0  0  0  0  0  0  0  0  0
  144.9419  136.1377  152.7649 N   0  0  0  0  0  0  0  0  0  0  0  0
  145.5992  136.2182  151.5553 C   0  0  0  0  0  0  0  0  0  0  0  0
  144.8920  135.4700  150.6582 C   0  0  0  0  0  0  0  0  0  0  0  0
  143.8041  134.9637  151.4232 C   0  0  0  0  0  0  0  0  0  0  0  0
  143.8361  135.3656  152.6837 N   0  0  0  0  0  0  0  0  0  0  0  0
  147.7098  137.2318  154.2106 N   0  0  0  0  0  0  0  0  0  0  0  0
  147.7893  138.4900  154.6746 C   0  0  0  0  0  0  0  0  0  0  0  0
  146.9590  138.9608  155.4520 O   0  0  0  0  0  0  0  0  0  0  0  0
  148.7863  139.2077  154.1009 N   0  0  0  0  0  0  0  0  0  0  0  0
  150.1285  138.6345  153.9203 C   0  0  0  0  0  0  0  0  0  0  0  0
  151.0025  139.0604  155.1165 C   0  0  0  0  0  0  0  0  0  0  0  0
  151.0474  140.4831  155.2041 O   0  0  0  0  0  0  0  0  0  0  0  0
  149.7599  141.0851  155.3242 C   0  0  0  0  0  0  0  0  0  0  0  0
  148.8938  140.6797  154.1147 C   0  0  2  0  0  0  0  0  0  0  0  0
  147.5558  141.4466  154.0549 C   0  0  0  0  0  0  0  0  0  0  0  0
  146.2795  134.1422  154.2141 H   0  0  0  0  0  0  0  0  0  0  0  0
  147.9885  134.5314  154.3565 H   0  0  0  0  0  0  0  0  0  0  0  0
  147.1164  134.9259  152.8767 H   0  0  0  0  0  0  0  0  0  0  0  0
  146.6035  136.1610  155.6315 H   0  0  0  0  0  0  0  0  0  0  0  0
  144.5209  136.5523  154.7642 H   0  0  0  0  0  0  0  0  0  0  0  0
  145.3260  137.8316  153.8847 H   0  0  0  0  0  0  0  0  0  0  0  0
  146.5066  136.7922  151.4366 H   0  0  0  0  0  0  0  0  0  0  0  0
  145.1178  135.3077  149.6146 H   0  0  0  0  0  0  0  0  0  0  0  0
  142.9980  134.3206  151.1024 H   0  0  0  0  0  0  0  0  0  0  0  0
  148.4017  136.9375  153.5366 H   0  0  0  0  0  0  0  0  0  0  0  0
  150.1266  137.5466  153.8423 H   0  0  0  0  0  0  0  0  0  0  0  0
  150.5625  138.9958  152.9869 H   0  0  0  0  0  0  0  0  0  0  0  0
  150.6162  138.6441  156.0484 H   0  0  0  0  0  0  0  0  0  0  0  0
  152.0179  138.6828  154.9951 H   0  0  0  0  0  0  0  0  0  0  0  0
  149.2913  140.7881  156.2637 H   0  0  0  0  0  0  0  0  0  0  0  0
  149.8860  142.1676  155.3570 H   0  0  0  0  0  0  0  0  0  0  0  0
  149.4306  140.9684  153.2091 H   0  0  0  0  0  0  0  0  0  0  0  0
  147.7331  142.5040  153.8575 H   0  0  0  0  0  0  0  0  0  0  0  0
  147.0002  141.3927  154.9906 H   0  0  0  0  0  0  0  0  0  0  0  0
  146.9183  141.0691  153.2547 H   0  0  0  0  0  0  0  0  0  0  0  0
  1  2  1  0  0  0  0
  1 19  1  0  0  0  0
  1 20  1  0  0  0  0
  1 21  1  0  0  0  0
  2  3  1  0  0  0  0
  2  9  1  0  0  0  0
  2 22  1  0  0  0  0
  3  4  1  0  0  0  0
  3 23  1  0  0  0  0
  3 24  1  0  0  0  0
  4  8  1  0  0  0  0
  4  5  1  0  0  0  0
  5  6  2  0  0  0  0
  5 25  1  0  0  0  0
  6  7  1  0  0  0  0
  6 26  1  0  0  0  0
  7  8  2  0  0  0  0
  7 27  1  0  0  0  0
  9 10  1  0  0  0  0
  9 28  1  0  0  0  0
 10 11  2  0  0  0  0
 10 12  1  0  0  0  0
 12 17  1  0  0  0  0
 12 13  1  0  0  0  0
 13 14  1  0  0  0  0
 13 29  1  0  0  0  0
 13 30  1  0  0  0  0
 14 15  1  0  0  0  0
 14 31  1  0  0  0  0
 14 32  1  0  0  0  0
 15 16  1  0  0  0  0
 16 17  1  0  0  0  0
 16 33  1  0  0  0  0
 16 34  1  0  0  0  0
 17 18  1  0  0  0  0
 17 35  1  0  0  0  0
 18 36  1  0  0  0  0
 18 37  1  0  0  0  0
 18 38  1  0  0  0  0
M  END
> <s_m_source_file>
AV-unprocessed.smi

> <i_m_source_file_index>
3248

> <i_lp_mmshare_version>
43012

> <i_f3d_flags>
0

> <s_epik_input>
bjFbY0hdW2NIXVtjSF1uMVtDSDJdW0NAQEhdKFtDSDNdKVtOSF1DKD1PKU4yW0NIMl1bQ0gyXU9bQ0gyXVtDQEhdMltDSDNd

> <s_epik_cmdline>
J2VwaWtfcHl0aG9uJywgJy1waCcsICc3LjAnLCAnLXRuJywgJzgnLCAnLW1hJywgJzIwMCcsICctbWV0YWxfYmluZGluZycsICctaW1hZScsICc8aW5maWxlLm1hZT4nLCAnLW9tYWUnLCAnPG91dGZpbGUubWFlPic=

> <r_lp_tautomer_probability>
1

> <r_epik_Ionization_Penalty>
4.45233e-05

> <r_epik_Ionization_Penalty_Charging>
0

> <r_epik_Ionization_Penalty_Neutral>
4.45233e-05

> <r_epik_State_Penalty>
-0

> <r_epik_Charging_Adjusted_Penalty>
0

> <i_epik_Tot_Q>
0

> <i_epik_Tot_abs_Q>
0

> <r_epik_Metal_State_Penalty>
-0

> <b_epik_Metal_Only>
0

> <s_lp_Force_Field>
OPLS_2005

> <r_lp_Energy>
31.9687

> <b_lp_Chiralities_Consistent>
1

> <s_lp_Variant>
AV-unprocessed.smi:3248-3

> <Gold.Version>
5.8.1

> <Gold.Id.Protein>
6NUR|6NUR_protein|mol2

> <Gold.PLP.Fitness>
37.7762

> <Gold.PLP.PLP>
-27.2284

> <Gold.PLP.part.hbond>
-2.0000

> <Gold.PLP.part.metal>
0.0000

> <Gold.PLP.part.buried>
-0.8832

> <Gold.PLP.part.nonpolar>
-24.6360

> <Gold.PLP.part.repulsive>
0.1609

> <Gold.PLP.ligand.clash>
0.0000

> <Gold.PLP.ligand.torsion>
0.9420

> <Gold.PLP.Chemscore.Hbond>
1.9920

> <Gold.PLP.Chemscore.CHOScore>
2.0000

> <Gold.PLP.Chemscore.Metal>
0.0000

> <Gold.Chemscore.Hbonds>
donor molecule, donor type, donor heavy atom, donor atom, acceptor molecule, acceptor atom, score
      L1  H     9    28       P1  7948  1.00
      P1  H  7989  7998       L1    15  0.99
      L1  C     5    25       P1  7948  1.00
      L1  C     7    27       P1 10186  1.00

> <Gold.PLP.Chemscore.Internal.Correction>
0.4558

> <Gold.Rescore>
     Score         DG    S(hbond)    S(metal)    S(lipo)     H(rot)  DE(clash)    DE(int)     intcor
     10.60     -13.07       1.22        0.00      61.07       1.42       0.32       2.15       ----

> <Gold.Chemscore.Fitness>
10.6001

> <Gold.Chemscore.DG>
-13.0713

> <Gold.Chemscore.ZeroCoef>
-5.4800

> <Gold.Chemscore.Hbond>
1.2215

> <Gold.Chemscore.Metal>
0.0000

> <Gold.Chemscore.Lipo>
61.0650

> <Gold.Chemscore.Internal_Hbond>
0.0000

> <Gold.Chemscore.DEClash>
0.3163

> <Gold.Chemscore.DEInternal>
2.1549

> <Gold.Chemscore.Rot>
1.4191

> <Gold.Chemscore.Internal.Correction>
   9.000000E+99

> <Gold.Chemscore.Hbonds>
donor molecule, donor type, donor heavy atom, donor atom, acceptor molecule, acceptor atom, score
      L1  H     9    28       P1  7948  0.97
      P1  H  7989  7998       L1    15  0.13

> <Gold.Chemscore.Hbond.Weighted>
-4.0797

> <Gold.Chemscore.Metal.Weighted>
-0.0000

> <Gold.Chemscore.Lipo.Weighted>
-7.1446

> <Gold.Chemscore.Internal_Hbond.Weighted>
0.0000

> <Gold.Chemscore.DEClash.Weighted>
0.3163

> <Gold.Chemscore.DEInternal.Weighted>
2.1549

> <Gold.Chemscore.Rot.Weighted>
3.6330

> <Gold.Chemscore.Internal.Correction.Weighted>
   9.000000E+99

> <Gold.Protein.RotatedTorsions>
[ 6907 6896 6895 6894 ] final   49.92 input  -60.11 | X-H torsion
[ 7974 7965 7964 7962 ] final -148.30 input  175.53 | X-H torsion
[ 8008 7997 7996 7995 ] final  116.04 input   59.86 | X-H torsion
[ 10167 10162 10161 10158 ] final  170.27 input  -65.29 | X-H torsion
[ 10718 10713 10712 10709 ] final  -27.21 input   66.30 | X-H torsion
[ 10763 10752 10751 10750 ] final  -54.51 input  -60.55 | X-H torsion
[ 11005 11000 10999 10996 ] final    4.31 input  -57.11 | X-H torsion

> <Gold.Protein.ActiveResidues>
 VAL166  LYS551  ARG553  GLY616  TRP617  ASP618  TYR619  PRO620  LYS621  CYS622 
 ASP623  PHE694  ASN695  SER759  ASP760  ASP761  ALA762  ILE779  LEU786  VAL792 
 PHE793  MET794  SER795  GLU796  ALA797  LYS798  CYS799  TRP800  GLU811  SER814 

> <Gold.Protein.RotatedAtoms>
  152.2961  134.7665  160.0367 H   0  0  0  0  0  0  0  0  0  0  0  0  # atno 6907 bound_to 6896
  151.8194  133.3387  159.3587 H   0  0  0  0  0  0  0  0  0  0  0  0  # atno 6908 bound_to 6896
  150.7252  134.5517  159.5842 H   0  0  0  0  0  0  0  0  0  0  0  0  # atno 6909 bound_to 6896
  144.8038  140.5214  143.5689 H   0  0  0  0  0  0  0  0  0  0  0  0  # atno 7974 bound_to 7965
  156.2416  140.2926  156.0461 H   0  0  0  0  0  0  0  0  0  0  0  0  # atno 8008 bound_to 7997
  155.1933  140.0407  157.2921 H   0  0  0  0  0  0  0  0  0  0  0  0  # atno 8009 bound_to 7997
  154.6180  140.2468  155.7592 H   0  0  0  0  0  0  0  0  0  0  0  0  # atno 8010 bound_to 7997
  139.5014  144.3615  151.9820 H   0  0  0  0  0  0  0  0  0  0  0  0  # atno 10167 bound_to 10162
  156.4411  130.4464  149.7052 H   0  0  0  0  0  0  0  0  0  0  0  0  # atno 10718 bound_to 10713
  154.1761  135.6451  153.5022 H   0  0  0  0  0  0  0  0  0  0  0  0  # atno 10763 bound_to 10752
  153.0071  135.5395  154.6563 H   0  0  0  0  0  0  0  0  0  0  0  0  # atno 10764 bound_to 10752
  154.5915  135.2934  155.0603 H   0  0  0  0  0  0  0  0  0  0  0  0  # atno 10765 bound_to 10752
  140.5833  133.9992  155.8057 H   0  0  0  0  0  0  0  0  0  0  0  0  # atno 11005 bound_to 11000
  145.5488  139.1476  143.3406 LP  0  0  0  0  0  0  0  0  0  0  0  0  # atno 17320 bound_to 7965
  146.2325  140.5627  142.8969 LP  0  0  0  0  0  0  0  0  0  0  0  0  # atno 17321 bound_to 7965
  140.3051  144.3602  150.6049 LP  0  0  0  0  0  0  0  0  0  0  0  0  # atno 17342 bound_to 10162
  140.5843  143.2171  151.7371 LP  0  0  0  0  0  0  0  0  0  0  0  0  # atno 17343 bound_to 10162
  156.3916  130.7630  151.2631 LP  0  0  0  0  0  0  0  0  0  0  0  0  # atno 17370 bound_to 10713
  157.7506  131.0266  150.3969 LP  0  0  0  0  0  0  0  0  0  0  0  0  # atno 17371 bound_to 10713
  141.0982  133.9810  157.3124 LP  0  0  0  0  0  0  0  0  0  0  0  0  # atno 17394 bound_to 11000
  139.9307  135.0200  156.8390 LP  0  0  0  0  0  0  0  0  0  0  0  0  # atno 17395 bound_to 11000

$$$$
