AV-unprocessed.smi:224|AV-procd|sdf|1717|dock5
  -GOLD-   2262020193D 1   1.00000     0.00000
 Structure written by MMmdl.
 56 59  0  0  0  0  0  0  0  0  2 V2000
  144.6194  132.7292  149.5630 C   0  0  0  0  0  0  0  0  0  0  0  0
  143.8072  132.7254  150.8646 C   0  0  2  0  0  0  0  0  0  0  0  0
  142.4471  132.9095  150.5254 O   0  0  0  0  0  0  0  0  0  0  0  0
  144.2505  133.8503  151.8213 C   0  0  0  0  0  0  0  0  0  0  0  0
  144.7493  133.3220  153.1229 N   0  3  1  0  0  0  0  0  0  0  0  0
  145.8282  132.3155  152.9117 C   0  0  0  0  0  0  0  0  0  0  0  0
  146.3138  131.7053  154.2328 C   0  0  0  0  0  0  0  0  0  0  0  0
  146.7504  132.7582  155.1387 N   0  0  0  0  0  0  0  0  0  0  0  0
  148.0453  133.1573  155.0224 C   0  0  0  0  0  0  0  0  0  0  0  0
  148.9678  132.3142  154.4863 N   0  0  0  0  0  0  0  0  0  0  0  0
  150.2466  132.6863  154.3819 C   0  0  0  0  0  0  0  0  0  0  0  0
  150.8104  133.8399  154.7415 N   0  0  0  0  0  0  0  0  0  0  0  0
  149.8899  134.6998  155.2633 C   0  0  0  0  0  0  0  0  0  0  0  0
  148.5012  134.4402  155.4419 C   0  0  0  0  0  0  0  0  0  0  0  0
  147.8833  135.5527  156.0012 N   0  0  0  0  0  0  0  0  0  0  0  0
  148.8514  136.4139  156.1549 C   0  0  0  0  0  0  0  0  0  0  0  0
  150.0886  135.9894  155.7265 N   0  0  0  0  0  0  0  0  0  0  0  0
  151.3351  136.7393  155.7781 C   0  0  0  0  0  0  0  0  0  0  0  0
  151.5098  137.7672  154.6304 C   0  0  1  0  0  0  0  0  0  0  0  0
  152.0505  137.1163  153.4955 O   0  0  0  0  0  0  0  0  0  0  0  0
  150.2189  138.4841  154.2269 C   0  0  0  0  0  0  0  0  0  0  0  0
  150.3248  139.8178  154.9519 C   0  0  0  0  0  0  0  0  0  0  0  0
  151.7008  140.1242  154.8199 O   0  0  0  0  0  0  0  0  0  0  0  0
  152.4360  138.9282  155.0478 C   0  0  0  0  0  0  0  0  0  0  0  0
  145.7155  133.7519  155.4075 C   0  0  0  0  0  0  0  0  0  0  0  0
  145.1306  134.3776  154.1158 C   0  0  2  0  0  0  0  0  0  0  0  0
  143.9405  135.2720  154.5211 C   0  0  0  0  0  0  0  0  0  0  0  0
  145.6791  132.5661  149.7619 H   0  0  0  0  0  0  0  0  0  0  0  0
  144.5223  133.6786  149.0348 H   0  0  0  0  0  0  0  0  0  0  0  0
  144.2870  131.9385  148.8895 H   0  0  0  0  0  0  0  0  0  0  0  0
  143.9153  131.7477  151.3331 H   0  0  0  0  0  0  0  0  0  0  0  0
  142.2440  133.8315  150.5524 H   0  0  0  0  0  0  0  0  0  0  0  0
  145.0333  134.4539  151.3587 H   0  0  0  0  0  0  0  0  0  0  0  0
  143.4109  134.5295  151.9466 H   0  0  0  0  0  0  0  0  0  0  0  0
  145.4784  131.5145  152.2616 H   0  0  0  0  0  0  0  0  0  0  0  0
  146.6689  132.7877  152.4002 H   0  0  0  0  0  0  0  0  0  0  0  0
  145.5037  131.1509  154.7080 H   0  0  0  0  0  0  0  0  0  0  0  0
  147.1034  130.9821  154.0341 H   0  0  0  0  0  0  0  0  0  0  0  0
  150.9137  131.9560  153.9481 H   0  0  0  0  0  0  0  0  0  0  0  0
  148.6865  137.3920  156.5835 H   0  0  0  0  0  0  0  0  0  0  0  0
  151.3853  137.2445  156.7437 H   0  0  0  0  0  0  0  0  0  0  0  0
  152.1592  136.0244  155.7670 H   0  0  0  0  0  0  0  0  0  0  0  0
  151.3502  136.9514  152.8830 H   0  0  0  0  0  0  0  0  0  0  0  0
  150.2021  138.6736  153.1522 H   0  0  0  0  0  0  0  0  0  0  0  0
  149.3050  137.9465  154.4733 H   0  0  0  0  0  0  0  0  0  0  0  0
  149.6948  140.5906  154.5109 H   0  0  0  0  0  0  0  0  0  0  0  0
  150.0653  139.7156  156.0069 H   0  0  0  0  0  0  0  0  0  0  0  0
  152.6837  138.8748  156.1089 H   0  0  0  0  0  0  0  0  0  0  0  0
  153.3766  138.9508  154.4959 H   0  0  0  0  0  0  0  0  0  0  0  0
  144.9200  133.2494  155.9595 H   0  0  0  0  0  0  0  0  0  0  0  0
  146.0939  134.5269  156.0759 H   0  0  0  0  0  0  0  0  0  0  0  0
  145.8936  135.0057  153.6544 H   0  0  0  0  0  0  0  0  0  0  0  0
  144.2151  135.9259  155.3496 H   0  0  0  0  0  0  0  0  0  0  0  0
  143.0882  134.6742  154.8460 H   0  0  0  0  0  0  0  0  0  0  0  0
  143.6057  135.9289  153.7203 H   0  0  0  0  0  0  0  0  0  0  0  0
  143.9752  132.8289  153.5439 H   0  0  0  0  0  0  0  0  0  0  0  0
  1  2  1  0  0  0  0
  1 28  1  0  0  0  0
  1 29  1  0  0  0  0
  1 30  1  0  0  0  0
  2  3  1  0  0  0  0
  2  4  1  0  0  0  0
  2 31  1  0  0  0  0
  3 32  1  0  0  0  0
  4  5  1  0  0  0  0
  4 33  1  0  0  0  0
  4 34  1  0  0  0  0
  5 26  1  0  0  0  0
  5  6  1  0  0  0  0
  5 56  1  0  0  0  0
  6  7  1  0  0  0  0
  6 35  1  0  0  0  0
  6 36  1  0  0  0  0
  7  8  1  0  0  0  0
  7 37  1  0  0  0  0
  7 38  1  0  0  0  0
  8  9  1  0  0  0  0
  8 25  1  0  0  0  0
  9 14  1  0  0  0  0
  9 10  2  0  0  0  0
 10 11  1  0  0  0  0
 11 12  2  0  0  0  0
 11 39  1  0  0  0  0
 12 13  1  0  0  0  0
 13 17  1  0  0  0  0
 13 14  2  0  0  0  0
 14 15  1  0  0  0  0
 15 16  2  0  0  0  0
 16 17  1  0  0  0  0
 16 40  1  0  0  0  0
 17 18  1  0  0  0  0
 18 19  1  0  0  0  0
 18 41  1  0  0  0  0
 18 42  1  0  0  0  0
 19 24  1  0  0  0  0
 19 20  1  0  0  0  0
 19 21  1  0  0  0  0
 20 43  1  0  0  0  0
 21 22  1  0  0  0  0
 21 44  1  0  0  0  0
 21 45  1  0  0  0  0
 22 23  1  0  0  0  0
 22 46  1  0  0  0  0
 22 47  1  0  0  0  0
 23 24  1  0  0  0  0
 24 48  1  0  0  0  0
 24 49  1  0  0  0  0
 25 26  1  0  0  0  0
 25 50  1  0  0  0  0
 25 51  1  0  0  0  0
 26 27  1  0  0  0  0
 26 52  1  0  0  0  0
 27 53  1  0  0  0  0
 27 54  1  0  0  0  0
 27 55  1  0  0  0  0
M  CHG  1   5   1
M  END
> <s_m_source_file>
AV-unprocessed.smi

> <i_m_source_file_index>
224

> <i_lp_mmshare_version>
43012

> <i_f3d_flags>
0

> <s_epik_input>
W0NIM11bQ0BIXShbT0hdKVtDSDJdTjFbQ0gyXVtDSDJdTihbQ0gyXVtDQEhdMVtDSDNdKWMobltjSF1uMiljKGMyMyluW2NIXW4zW0NIMl1bQ0BAXTQoW09IXSlbQ0gyXVtDSDJdT1tDSDJdNA==

> <s_epik_cmdline>
J2VwaWtfcHl0aG9uJywgJy1waCcsICc3LjAnLCAnLXRuJywgJzgnLCAnLW1hJywgJzIwMCcsICctbWV0YWxfYmluZGluZycsICctaW1hZScsICc8aW5maWxlLm1hZT4nLCAnLW9tYWUnLCAnPG91dGZpbGUubWFlPic=

> <r_lp_tautomer_probability>
1

> <r_epik_Ionization_Penalty>
0.00516958

> <r_epik_Ionization_Penalty_Charging>
0.00509693

> <r_epik_Ionization_Penalty_Neutral>
7.26542e-05

> <r_epik_State_Penalty>
-0

> <r_epik_Charging_Adjusted_Penalty>
0.00509693

> <i_epik_Tot_Q>
1

> <i_epik_Tot_abs_Q>
1

> <r_epik_Metal_State_Penalty>
-0

> <b_epik_Metal_Only>
0

> <s_lp_Force_Field>
OPLS_2005

> <r_lp_Energy>
50.0315

> <b_lp_Chiralities_Consistent>
1

> <s_lp_Variant>
AV-unprocessed.smi:224-11

> <Gold.Version>
5.8.1

> <Gold.Id.Protein>
6NUR|6NUR_protein|mol2

> <Gold.PLP.Fitness>
50.6085

> <Gold.PLP.PLP>
-37.2386

> <Gold.PLP.part.hbond>
-5.8763

> <Gold.PLP.part.metal>
0.0000

> <Gold.PLP.part.buried>
-7.0138

> <Gold.PLP.part.nonpolar>
-24.8130

> <Gold.PLP.part.repulsive>
0.2229

> <Gold.PLP.ligand.clash>
0.0000

> <Gold.PLP.ligand.torsion>
1.9644

> <Gold.PLP.Chemscore.Hbond>
5.5840

> <Gold.PLP.Chemscore.CHOScore>
0.0000

> <Gold.PLP.Chemscore.Metal>
0.0000

> <Gold.Chemscore.Hbonds>
donor molecule, donor type, donor heavy atom, donor atom, acceptor molecule, acceptor atom, score
      L1  H     3    32       P1 10186  0.38
      L1  H     5    56       P1 10957  1.72
      L1  H    20    43       P1  7949  0.70
      P1  H  7989  7998       L1    23  0.93
      P1  H 10752 10764       L1    20  1.00

> <Gold.PLP.Chemscore.Internal.Correction>
0.5466

> <Gold.Rescore>
     Score         DG    S(hbond)    S(metal)    S(lipo)     H(rot)  DE(clash)    DE(int)     intcor
     13.87     -17.29       3.59        0.00      72.04       3.36       0.15       3.27       ----

> <Gold.Chemscore.Fitness>
13.8735

> <Gold.Chemscore.DG>
-17.2912

> <Gold.Chemscore.ZeroCoef>
-5.4800

> <Gold.Chemscore.Hbond>
3.5890

> <Gold.Chemscore.Metal>
0.0000

> <Gold.Chemscore.Lipo>
72.0384

> <Gold.Chemscore.Internal_Hbond>
0.0000

> <Gold.Chemscore.DEClash>
0.1470

> <Gold.Chemscore.DEInternal>
3.2707

> <Gold.Chemscore.Rot>
3.3611

> <Gold.Chemscore.Internal.Correction>
   9.000000E+99

> <Gold.Chemscore.Hbonds>
donor molecule, donor type, donor heavy atom, donor atom, acceptor molecule, acceptor atom, score
      L1  H     3    32       P1 10186  0.32
      L1  H     5    56       P1 10957  0.59
      L1  H    20    43       P1  7949  0.55
      P1  H  7989  7998       L1    23  0.22
      P1  H 10752 10764       L1    20  0.65

> <Gold.Chemscore.Hbond.Weighted>
-11.9872

> <Gold.Chemscore.Metal.Weighted>
-0.0000

> <Gold.Chemscore.Lipo.Weighted>
-8.4285

> <Gold.Chemscore.Internal_Hbond.Weighted>
0.0000

> <Gold.Chemscore.DEClash.Weighted>
0.1470

> <Gold.Chemscore.DEInternal.Weighted>
3.2707

> <Gold.Chemscore.Rot.Weighted>
8.6045

> <Gold.Chemscore.Internal.Correction.Weighted>
   9.000000E+99

> <Gold.Protein.RotatedTorsions>
[ 6907 6896 6895 6894 ] final -172.80 input  -60.11 | X-H torsion
[ 7974 7965 7964 7962 ] final  135.02 input  175.53 | X-H torsion
[ 8008 7997 7996 7995 ] final -122.78 input   59.86 | X-H torsion
[ 10167 10162 10161 10158 ] final -121.63 input  -65.29 | X-H torsion
[ 10718 10713 10712 10709 ] final  -95.07 input   66.30 | X-H torsion
[ 10763 10752 10751 10750 ] final  -92.98 input  -60.55 | X-H torsion
[ 11005 11000 10999 10996 ] final  -86.12 input  -57.11 | X-H torsion

> <Gold.Protein.ActiveResidues>
 VAL166  LYS551  ARG553  GLY616  TRP617  ASP618  TYR619  PRO620  LYS621  CYS622 
 ASP623  PHE694  ASN695  SER759  ASP760  ASP761  ALA762  ILE779  LEU786  VAL792 
 PHE793  MET794  SER795  GLU796  ALA797  LYS798  CYS799  TRP800  GLU811  SER814 

> <Gold.Protein.RotatedAtoms>
  151.5459  133.3425  159.2943 H   0  0  0  0  0  0  0  0  0  0  0  0  # atno 6907 bound_to 6896
  150.8507  134.7834  159.7018 H   0  0  0  0  0  0  0  0  0  0  0  0  # atno 6908 bound_to 6896
  152.4554  134.5311  159.9863 H   0  0  0  0  0  0  0  0  0  0  0  0  # atno 6909 bound_to 6896
  144.9705  139.4611  143.5435 H   0  0  0  0  0  0  0  0  0  0  0  0  # atno 7974 bound_to 7965
  155.1698  140.0408  157.2860 H   0  0  0  0  0  0  0  0  0  0  0  0  # atno 8008 bound_to 7997
  154.6278  140.2516  155.7444 H   0  0  0  0  0  0  0  0  0  0  0  0  # atno 8009 bound_to 7997
  156.2468  140.2881  156.0615 H   0  0  0  0  0  0  0  0  0  0  0  0  # atno 8010 bound_to 7997
  140.0229  143.5326  152.2212 H   0  0  0  0  0  0  0  0  0  0  0  0  # atno 10167 bound_to 10162
  156.0037  130.5094  150.6022 H   0  0  0  0  0  0  0  0  0  0  0  0  # atno 10718 bound_to 10713
  154.6914  135.5211  153.8397 H   0  0  0  0  0  0  0  0  0  0  0  0  # atno 10763 bound_to 10752
  153.0635  135.6576  154.0418 H   0  0  0  0  0  0  0  0  0  0  0  0  # atno 10764 bound_to 10752
  154.0291  135.2987  155.3350 H   0  0  0  0  0  0  0  0  0  0  0  0  # atno 10765 bound_to 10752
  141.1634  133.7437  156.9114 H   0  0  0  0  0  0  0  0  0  0  0  0  # atno 11005 bound_to 11000
  146.3380  139.8914  142.8808 LP  0  0  0  0  0  0  0  0  0  0  0  0  # atno 17320 bound_to 7965
  145.2566  141.0062  143.3850 LP  0  0  0  0  0  0  0  0  0  0  0  0  # atno 17321 bound_to 7965
  139.6127  144.7612  151.2915 LP  0  0  0  0  0  0  0  0  0  0  0  0  # atno 17342 bound_to 10162
  140.7335  143.6794  150.8014 LP  0  0  0  0  0  0  0  0  0  0  0  0  # atno 17343 bound_to 10162
  157.3869  131.0789  151.1428 LP  0  0  0  0  0  0  0  0  0  0  0  0  # atno 17370 bound_to 10713
  157.2133  130.6447  149.5782 LP  0  0  0  0  0  0  0  0  0  0  0  0  # atno 17371 bound_to 10713
  140.1514  134.9227  157.2597 LP  0  0  0  0  0  0  0  0  0  0  0  0  # atno 17394 bound_to 11000
  140.2718  134.3451  155.7371 LP  0  0  0  0  0  0  0  0  0  0  0  0  # atno 17395 bound_to 11000

$$$$
