AV-unprocessed.smi:1659|AV-procd|sdf|6651|dock8
  -GOLD-   22720 7353D 1   1.00000     0.00000
 Structure written by MMmdl.
 42 43  0  0  0  0  0  0  0  0  2 V2000
  153.7154  131.8314  164.2811 C   0  0  0  0  0  0  0  0  0  0  0  0
  153.9525  133.2481  163.8841 C   0  0  0  0  0  0  0  0  0  0  0  0
  153.9341  134.4225  164.5817 C   0  0  0  0  0  0  0  0  0  0  0  0
  154.2573  135.3925  163.5935 C   0  0  0  0  0  0  0  0  0  0  0  0
  154.3520  136.7168  163.7883 N   0  5  0  0  0  0  0  0  0  0  0  0
  154.4341  137.5574  162.7311 C   0  0  0  0  0  0  0  0  0  0  0  0
  153.9283  137.3858  161.6193 O   0  0  0  0  0  0  0  0  0  0  0  0
  155.1463  138.6658  162.9747 N   0  0  0  0  0  0  0  0  0  0  0  0
  155.3878  139.7367  162.0149 C   0  0  0  0  0  0  0  0  0  0  0  0
  154.0730  140.2781  161.4333 C   0  0  0  0  0  0  0  0  0  0  0  0
  154.2744  141.4335  160.4343 C   0  0  0  0  0  0  0  0  0  0  0  0
  152.9966  141.8941  159.8776 N   0  0  0  0  0  0  0  0  0  0  0  0
  152.4017  143.0752  160.5225 C   0  0  0  0  0  0  0  0  0  0  0  0
  152.4492  144.3504  159.6496 C   0  0  0  0  0  0  0  0  0  0  0  0
  152.3755  144.1339  158.1250 C   0  0  0  0  0  0  0  0  0  0  0  0
  151.2055  143.2494  157.6451 C   0  0  0  0  0  0  0  0  0  0  0  0
  151.0875  141.8463  158.2884 C   0  0  0  0  0  0  0  0  0  0  0  0
  152.4112  141.2748  158.8232 C   0  0  0  0  0  0  0  0  0  0  0  0
  152.8894  140.2799  158.2782 O   0  0  0  0  0  0  0  0  0  0  0  0
  154.4373  134.8556  162.3982 N   0  0  0  0  0  0  0  0  0  0  0  0
  154.2506  133.4798  162.5775 O   0  0  0  0  0  0  0  0  0  0  0  0
  152.8235  131.7488  164.9020 H   0  0  0  0  0  0  0  0  0  0  0  0
  154.5611  131.4452  164.8499 H   0  0  0  0  0  0  0  0  0  0  0  0
  153.5770  131.1956  163.4063 H   0  0  0  0  0  0  0  0  0  0  0  0
  153.7286  134.5666  165.6318 H   0  0  0  0  0  0  0  0  0  0  0  0
  155.5465  138.7728  163.8954 H   0  0  0  0  0  0  0  0  0  0  0  0
  155.9285  140.5421  162.5137 H   0  0  0  0  0  0  0  0  0  0  0  0
  156.0282  139.3729  161.2097 H   0  0  0  0  0  0  0  0  0  0  0  0
  153.5270  139.4629  160.9569 H   0  0  0  0  0  0  0  0  0  0  0  0
  153.4451  140.6234  162.2555 H   0  0  0  0  0  0  0  0  0  0  0  0
  154.7912  142.2597  160.9244 H   0  0  0  0  0  0  0  0  0  0  0  0
  154.9386  141.1240  159.6253 H   0  0  0  0  0  0  0  0  0  0  0  0
  151.3694  142.8529  160.7925 H   0  0  0  0  0  0  0  0  0  0  0  0
  152.8826  143.2786  161.4803 H   0  0  0  0  0  0  0  0  0  0  0  0
  151.6487  145.0212  159.9633 H   0  0  0  0  0  0  0  0  0  0  0  0
  153.3775  144.8815  159.8637 H   0  0  0  0  0  0  0  0  0  0  0  0
  152.3052  145.1061  157.6360 H   0  0  0  0  0  0  0  0  0  0  0  0
  153.3180  143.7106  157.7741 H   0  0  0  0  0  0  0  0  0  0  0  0
  150.2691  143.7843  157.8069 H   0  0  0  0  0  0  0  0  0  0  0  0
  151.2902  143.1320  156.5642 H   0  0  0  0  0  0  0  0  0  0  0  0
  150.3596  141.8662  159.0994 H   0  0  0  0  0  0  0  0  0  0  0  0
  150.6691  141.1527  157.5578 H   0  0  0  0  0  0  0  0  0  0  0  0
  1  2  1  0  0  0  0
  1 22  1  0  0  0  0
  1 23  1  0  0  0  0
  1 24  1  0  0  0  0
  2 21  1  0  0  0  0
  2  3  2  0  0  0  0
  3  4  1  0  0  0  0
  3 25  1  0  0  0  0
  4  5  1  0  0  0  0
  4 20  2  0  0  0  0
  5  6  1  0  0  0  0
  6  7  2  0  0  0  0
  6  8  1  0  0  0  0
  8  9  1  0  0  0  0
  8 26  1  0  0  0  0
  9 10  1  0  0  0  0
  9 27  1  0  0  0  0
  9 28  1  0  0  0  0
 10 11  1  0  0  0  0
 10 29  1  0  0  0  0
 10 30  1  0  0  0  0
 11 12  1  0  0  0  0
 11 31  1  0  0  0  0
 11 32  1  0  0  0  0
 12 18  1  0  0  0  0
 12 13  1  0  0  0  0
 13 14  1  0  0  0  0
 13 33  1  0  0  0  0
 13 34  1  0  0  0  0
 14 15  1  0  0  0  0
 14 35  1  0  0  0  0
 14 36  1  0  0  0  0
 15 16  1  0  0  0  0
 15 37  1  0  0  0  0
 15 38  1  0  0  0  0
 16 17  1  0  0  0  0
 16 39  1  0  0  0  0
 16 40  1  0  0  0  0
 17 18  1  0  0  0  0
 17 41  1  0  0  0  0
 17 42  1  0  0  0  0
 18 19  2  0  0  0  0
 20 21  1  0  0  0  0
M  CHG  1   5  -1
M  END
> <s_m_source_file>
AV-unprocessed.smi

> <i_m_source_file_index>
1659

> <i_lp_mmshare_version>
43012

> <i_f3d_flags>
0

> <s_epik_input>
W0NIM11jMVtjSF1jKG5vMSlbTkhdQyg9TylbTkhdW0NIMl1bQ0gyXVtDSDJdTjJbQ0gyXVtDSDJdW0NIMl1bQ0gyXVtDSDJdQzI9Tw==

> <s_epik_cmdline>
J2VwaWtfcHl0aG9uJywgJy1waCcsICc3LjAnLCAnLXRuJywgJzgnLCAnLW1hJywgJzIwMCcsICctbWV0YWxfYmluZGluZycsICctaW1hZScsICc8aW5maWxlLm1hZT4nLCAnLW9tYWUnLCAnPG91dGZpbGUubWFlPic=

> <r_lp_tautomer_probability>
1

> <r_epik_Ionization_Penalty>
6.59786

> <r_epik_Ionization_Penalty_Charging>
6.59773

> <r_epik_Ionization_Penalty_Neutral>
0.00012688

> <r_epik_State_Penalty>
6.59772

> <r_epik_Charging_Adjusted_Penalty>
13.1954

> <i_epik_Tot_Q>
-1

> <i_epik_Tot_abs_Q>
1

> <r_epik_Metal_State_Penalty>
2.522

> <b_epik_Metal_Only>
1

> <s_lp_Force_Field>
OPLS_2005

> <r_lp_Energy>
19.1909

> <b_lp_Chiralities_Consistent>
1

> <s_lp_Variant>
AV-unprocessed.smi:1659-2

> <Gold.Version>
5.8.1

> <Gold.Id.Protein>
6NUR|6NUR_protein|mol2

> <Gold.PLP.Fitness>
46.5225

> <Gold.PLP.PLP>
-44.8194

> <Gold.PLP.part.hbond>
-1.0000

> <Gold.PLP.part.metal>
0.0000

> <Gold.PLP.part.buried>
-4.7312

> <Gold.PLP.part.nonpolar>
-39.0690

> <Gold.PLP.part.repulsive>
0.0541

> <Gold.PLP.ligand.clash>
0.0000

> <Gold.PLP.ligand.torsion>
0.5740

> <Gold.PLP.Chemscore.Hbond>
0.9280

> <Gold.PLP.Chemscore.CHOScore>
0.0000

> <Gold.PLP.Chemscore.Metal>
0.0000

> <Gold.Chemscore.Hbonds>
donor molecule, donor type, donor heavy atom, donor atom, acceptor molecule, acceptor atom, score
      P1  H  7997  8008       L1    19  0.70

> <Gold.PLP.Chemscore.Internal.Correction>
0.0671

> <Gold.Rescore>
     Score         DG    S(hbond)    S(metal)    S(lipo)     H(rot)  DE(clash)    DE(int)     intcor
     12.68     -15.97       0.89        0.00     104.41       1.84       0.06       3.23       ----

> <Gold.Chemscore.Fitness>
12.6843

> <Gold.Chemscore.DG>
-15.9711

> <Gold.Chemscore.ZeroCoef>
-5.4800

> <Gold.Chemscore.Hbond>
0.8933

> <Gold.Chemscore.Metal>
0.0000

> <Gold.Chemscore.Lipo>
104.4086

> <Gold.Chemscore.Internal_Hbond>
0.0000

> <Gold.Chemscore.DEClash>
0.0590

> <Gold.Chemscore.DEInternal>
3.2279

> <Gold.Chemscore.Rot>
1.8391

> <Gold.Chemscore.Internal.Correction>
   9.000000E+99

> <Gold.Chemscore.Hbonds>
donor molecule, donor type, donor heavy atom, donor atom, acceptor molecule, acceptor atom, score
      P1  H  7997  8008       L1    19  0.67

> <Gold.Chemscore.Hbond.Weighted>
-2.9835

> <Gold.Chemscore.Metal.Weighted>
-0.0000

> <Gold.Chemscore.Lipo.Weighted>
-12.2158

> <Gold.Chemscore.Internal_Hbond.Weighted>
0.0000

> <Gold.Chemscore.DEClash.Weighted>
0.0590

> <Gold.Chemscore.DEInternal.Weighted>
3.2279

> <Gold.Chemscore.Rot.Weighted>
4.7082

> <Gold.Chemscore.Internal.Correction.Weighted>
   9.000000E+99

> <Gold.Protein.RotatedTorsions>
[ 6907 6896 6895 6894 ] final  -54.36 input  -60.11 | X-H torsion
[ 7974 7965 7964 7962 ] final  -17.95 input  175.53 | X-H torsion
[ 8008 7997 7996 7995 ] final  -88.00 input   59.86 | X-H torsion
[ 10167 10162 10161 10158 ] final -130.65 input  -65.29 | X-H torsion
[ 10718 10713 10712 10709 ] final -157.81 input   66.30 | X-H torsion
[ 10763 10752 10751 10750 ] final -109.89 input  -60.55 | X-H torsion
[ 11005 11000 10999 10996 ] final   -6.04 input  -57.11 | X-H torsion

> <Gold.Protein.ActiveResidues>
 VAL166  LYS551  ARG553  GLY616  TRP617  ASP618  TYR619  PRO620  LYS621  CYS622 
 ASP623  PHE694  ASN695  SER759  ASP760  ASP761  ALA762  ILE779  LEU786  VAL792 
 PHE793  MET794  SER795  GLU796  ALA797  LYS798  CYS799  TRP800  GLU811  SER814 

> <Gold.Protein.RotatedAtoms>
  150.8345  134.7612  159.6880 H   0  0  0  0  0  0  0  0  0  0  0  0  # atno 6907 bound_to 6896
  152.4444  134.5522  159.9880 H   0  0  0  0  0  0  0  0  0  0  0  0  # atno 6908 bound_to 6896
  151.5676  133.3357  159.3019 H   0  0  0  0  0  0  0  0  0  0  0  0  # atno 6909 bound_to 6896
  146.1916  140.3852  142.8456 H   0  0  0  0  0  0  0  0  0  0  0  0  # atno 7974 bound_to 7965
  154.6697  140.0559  157.0152 H   0  0  0  0  0  0  0  0  0  0  0  0  # atno 8008 bound_to 7997
  155.1106  140.3238  155.4504 H   0  0  0  0  0  0  0  0  0  0  0  0  # atno 8009 bound_to 7997
  156.2652  140.2015  156.6231 H   0  0  0  0  0  0  0  0  0  0  0  0  # atno 8010 bound_to 7997
  139.9271  143.6314  152.2539 H   0  0  0  0  0  0  0  0  0  0  0  0  # atno 10167 bound_to 10162
  156.5455  130.8582  151.2763 H   0  0  0  0  0  0  0  0  0  0  0  0  # atno 10718 bound_to 10713
  154.8218  135.4584  154.0801 H   0  0  0  0  0  0  0  0  0  0  0  0  # atno 10763 bound_to 10752
  153.2149  135.6886  153.8076 H   0  0  0  0  0  0  0  0  0  0  0  0  # atno 10764 bound_to 10752
  153.7514  135.3297  155.3298 H   0  0  0  0  0  0  0  0  0  0  0  0  # atno 10765 bound_to 10752
  140.6977  133.9017  155.8661 H   0  0  0  0  0  0  0  0  0  0  0  0  # atno 11005 bound_to 11000
  144.8498  140.6984  143.6176 LP  0  0  0  0  0  0  0  0  0  0  0  0  # atno 17320 bound_to 7965
  145.3775  139.1644  143.4299 LP  0  0  0  0  0  0  0  0  0  0  0  0  # atno 17321 bound_to 7965
  139.6813  144.7655  151.1604 LP  0  0  0  0  0  0  0  0  0  0  0  0  # atno 17342 bound_to 10162
  140.7647  143.5721  150.8984 LP  0  0  0  0  0  0  0  0  0  0  0  0  # atno 17343 bound_to 10162
  157.7397  130.9837  150.2333 LP  0  0  0  0  0  0  0  0  0  0  0  0  # atno 17370 bound_to 10713
  156.2933  130.3748  149.7821 LP  0  0  0  0  0  0  0  0  0  0  0  0  # atno 17371 bound_to 10713
  141.0190  134.0916  157.4141 LP  0  0  0  0  0  0  0  0  0  0  0  0  # atno 17394 bound_to 11000
  139.8905  135.0113  156.6742 LP  0  0  0  0  0  0  0  0  0  0  0  0  # atno 17395 bound_to 11000

$$$$
