AV-unprocessed.smi:1000|AV-procd|sdf|4355|dock10
  -GOLD-   22720 2253D 1   1.00000     0.00000
 Structure written by MMmdl.
 40 41  0  0  0  0  0  0  0  0  1 V2000
  154.3147  136.7189  164.1457 C   0  0  0  0  0  0  0  0  0  0  0  0
  155.8842  137.0455  163.2135 S   0  0  2  0  0  0  0  0  0  0  0  0
  156.0983  138.5603  163.2049 O   0  0  0  0  0  0  0  0  0  0  0  0
  155.1674  136.6820  161.5723 C   0  0  0  0  0  0  0  0  0  0  0  0
  154.1804  135.8045  161.3691 N   0  0  0  0  0  0  0  0  0  0  0  0
  153.9481  135.8388  160.0071 N   0  0  0  0  0  0  0  0  0  0  0  0
  154.8200  136.7329  159.5368 C   0  0  0  0  0  0  0  0  0  0  0  0
  155.6112  137.2998  160.4613 N   0  0  0  0  0  0  0  0  0  0  0  0
  156.6494  138.3017  160.2814 C   0  0  0  0  0  0  0  0  0  0  0  0
  156.1000  139.5675  159.6205 C   0  0  0  0  0  0  0  0  0  0  0  0
  156.5054  139.9013  158.5076 O   0  0  0  0  0  0  0  0  0  0  0  0
  155.1921  140.2681  160.3179 N   0  0  0  0  0  0  0  0  0  0  0  0
  154.6154  141.5390  159.8986 C   0  0  0  0  0  0  0  0  0  0  0  0
  153.0777  141.4806  159.9097 C   0  0  0  0  0  0  0  0  0  0  0  0
  152.4345  142.8456  159.7323 C   0  0  0  0  0  0  0  0  0  0  0  0
  151.9685  143.2640  158.5393 C   0  0  0  0  0  0  0  0  0  0  0  0
  151.3045  144.6098  158.3065 C   0  0  0  0  0  0  0  0  0  0  0  0
  150.9087  145.3040  159.6205 C   0  0  0  0  0  0  0  0  0  0  0  0
  152.0243  145.1871  160.6666 C   0  0  0  0  0  0  0  0  0  0  0  0
  152.3454  143.7149  160.9816 C   0  0  0  0  0  0  0  0  0  0  0  0
  153.7139  135.9568  163.6488 H   0  0  0  0  0  0  0  0  0  0  0  0
  153.7246  137.6322  164.2216 H   0  0  0  0  0  0  0  0  0  0  0  0
  154.5450  136.3709  165.1524 H   0  0  0  0  0  0  0  0  0  0  0  0
  154.8796  136.9831  158.4877 H   0  0  0  0  0  0  0  0  0  0  0  0
  157.0831  138.5381  161.2540 H   0  0  0  0  0  0  0  0  0  0  0  0
  157.4471  137.8848  159.6654 H   0  0  0  0  0  0  0  0  0  0  0  0
  154.9128  139.9174  161.2228 H   0  0  0  0  0  0  0  0  0  0  0  0
  154.9735  142.3463  160.5400 H   0  0  0  0  0  0  0  0  0  0  0  0
  154.9796  141.7542  158.8940 H   0  0  0  0  0  0  0  0  0  0  0  0
  152.7206  140.8205  159.1181 H   0  0  0  0  0  0  0  0  0  0  0  0
  152.7340  141.0434  160.8485 H   0  0  0  0  0  0  0  0  0  0  0  0
  152.0656  142.6279  157.6717 H   0  0  0  0  0  0  0  0  0  0  0  0
  151.9992  145.2345  157.7445 H   0  0  0  0  0  0  0  0  0  0  0  0
  150.4231  144.4722  157.6799 H   0  0  0  0  0  0  0  0  0  0  0  0
  150.6709  146.3513  159.4320 H   0  0  0  0  0  0  0  0  0  0  0  0
  150.0003  144.8470  160.0152 H   0  0  0  0  0  0  0  0  0  0  0  0
  152.9205  145.6826  160.2909 H   0  0  0  0  0  0  0  0  0  0  0  0
  151.7435  145.7102  161.5813 H   0  0  0  0  0  0  0  0  0  0  0  0
  151.5711  143.3019  161.6287 H   0  0  0  0  0  0  0  0  0  0  0  0
  153.2836  143.6578  161.5348 H   0  0  0  0  0  0  0  0  0  0  0  0
  1  2  1  0  0  0  0
  1 21  1  0  0  0  0
  1 22  1  0  0  0  0
  1 23  1  0  0  0  0
  2  3  2  0  0  0  0
  2  4  1  0  0  0  0
  4  8  1  0  0  0  0
  4  5  2  0  0  0  0
  5  6  1  0  0  0  0
  6  7  2  0  0  0  0
  7  8  1  0  0  0  0
  7 24  1  0  0  0  0
  8  9  1  0  0  0  0
  9 10  1  0  0  0  0
  9 25  1  0  0  0  0
  9 26  1  0  0  0  0
 10 11  2  0  0  0  0
 10 12  1  0  0  0  0
 12 13  1  0  0  0  0
 12 27  1  0  0  0  0
 13 14  1  0  0  0  0
 13 28  1  0  0  0  0
 13 29  1  0  0  0  0
 14 15  1  0  0  0  0
 14 30  1  0  0  0  0
 14 31  1  0  0  0  0
 15 20  1  0  0  0  0
 15 16  2  0  0  0  0
 16 17  1  0  0  0  0
 16 32  1  0  0  0  0
 17 18  1  0  0  0  0
 17 33  1  0  0  0  0
 17 34  1  0  0  0  0
 18 19  1  0  0  0  0
 18 35  1  0  0  0  0
 18 36  1  0  0  0  0
 19 20  1  0  0  0  0
 19 37  1  0  0  0  0
 19 38  1  0  0  0  0
 20 39  1  0  0  0  0
 20 40  1  0  0  0  0
M  END
> <s_m_source_file>
AV-unprocessed.smi

> <i_m_source_file_index>
1000

> <i_lp_mmshare_version>
43012

> <i_f3d_flags>
0

> <s_epik_input>
W0NIM11bU0BdKD1PKWMxbm5bY0hdbjFbQ0gyXUMoPU8pW05IXVtDSDJdW0NIMl1DMj1bQ0hdW0NIMl1bQ0gyXVtDSDJdW0NIMl0y

> <s_epik_cmdline>
J2VwaWtfcHl0aG9uJywgJy1waCcsICc3LjAnLCAnLXRuJywgJzgnLCAnLW1hJywgJzIwMCcsICctbWV0YWxfYmluZGluZycsICctaW1hZScsICc8aW5maWxlLm1hZT4nLCAnLW9tYWUnLCAnPG91dGZpbGUubWFlPic=

> <r_lp_tautomer_probability>
1

> <r_epik_Ionization_Penalty>
9.22166e-08

> <r_epik_Ionization_Penalty_Charging>
0

> <r_epik_Ionization_Penalty_Neutral>
9.22166e-08

> <r_epik_State_Penalty>
-0

> <r_epik_Charging_Adjusted_Penalty>
0

> <i_epik_Tot_Q>
0

> <i_epik_Tot_abs_Q>
0

> <r_epik_Metal_State_Penalty>
-0

> <b_epik_Metal_Only>
0

> <s_lp_Force_Field>
OPLS_2005

> <r_lp_Energy>
5.87902

> <b_lp_Chiralities_Consistent>
1

> <s_lp_Variant>
AV-unprocessed.smi:1000-1

> <Gold.Version>
5.8.1

> <Gold.Id.Protein>
6NUR|6NUR_protein|mol2

> <Gold.PLP.Fitness>
45.3720

> <Gold.PLP.PLP>
-40.0336

> <Gold.PLP.part.hbond>
-2.0000

> <Gold.PLP.part.metal>
0.0000

> <Gold.PLP.part.buried>
-5.4554

> <Gold.PLP.part.nonpolar>
-33.0496

> <Gold.PLP.part.repulsive>
0.1010

> <Gold.PLP.ligand.clash>
0.0000

> <Gold.PLP.ligand.torsion>
0.8833

> <Gold.PLP.Chemscore.Hbond>
2.0000

> <Gold.PLP.Chemscore.CHOScore>
0.0000

> <Gold.PLP.Chemscore.Metal>
0.0000

> <Gold.Chemscore.Hbonds>
donor molecule, donor type, donor heavy atom, donor atom, acceptor molecule, acceptor atom, score
      P1  H  6896  6908       L1     6  0.80
      P1  H  7997  8010       L1    11  0.75

> <Gold.PLP.Chemscore.Internal.Correction>
1.1050

> <Gold.Rescore>
     Score         DG    S(hbond)    S(metal)    S(lipo)     H(rot)  DE(clash)    DE(int)     intcor
     16.48     -18.37       1.98        0.00     103.28       2.26       0.11       1.78       ----

> <Gold.Chemscore.Fitness>
16.4804

> <Gold.Chemscore.DG>
-18.3683

> <Gold.Chemscore.ZeroCoef>
-5.4800

> <Gold.Chemscore.Hbond>
1.9760

> <Gold.Chemscore.Metal>
0.0000

> <Gold.Chemscore.Lipo>
103.2847

> <Gold.Chemscore.Internal_Hbond>
0.0000

> <Gold.Chemscore.DEClash>
0.1068

> <Gold.Chemscore.DEInternal>
1.7810

> <Gold.Chemscore.Rot>
2.2640

> <Gold.Chemscore.Internal.Correction>
   9.000000E+99

> <Gold.Chemscore.Hbonds>
donor molecule, donor type, donor heavy atom, donor atom, acceptor molecule, acceptor atom, score
      P1  H  6896  6908       L1     6  0.12
      P1  H  7997  8010       L1    11  0.75

> <Gold.Chemscore.Hbond.Weighted>
-6.5997

> <Gold.Chemscore.Metal.Weighted>
-0.0000

> <Gold.Chemscore.Lipo.Weighted>
-12.0843

> <Gold.Chemscore.Internal_Hbond.Weighted>
0.0000

> <Gold.Chemscore.DEClash.Weighted>
0.1068

> <Gold.Chemscore.DEInternal.Weighted>
1.7810

> <Gold.Chemscore.Rot.Weighted>
5.7957

> <Gold.Chemscore.Internal.Correction.Weighted>
   9.000000E+99

> <Gold.Protein.RotatedTorsions>
[ 6907 6896 6895 6894 ] final  -70.78 input  -60.11 | X-H torsion
[ 7974 7965 7964 7962 ] final  -20.01 input  175.53 | X-H torsion
[ 8008 7997 7996 7995 ] final  -42.05 input   59.86 | X-H torsion
[ 10167 10162 10161 10158 ] final  -72.51 input  -65.29 | X-H torsion
[ 10718 10713 10712 10709 ] final  -36.86 input   66.30 | X-H torsion
[ 10763 10752 10751 10750 ] final    3.94 input  -60.55 | X-H torsion
[ 11005 11000 10999 10996 ] final   58.64 input  -57.11 | X-H torsion

> <Gold.Protein.ActiveResidues>
 VAL166  LYS551  ARG553  GLY616  TRP617  ASP618  TYR619  PRO620  LYS621  CYS622 
 ASP623  PHE694  ASN695  SER759  ASP760  ASP761  ALA762  ILE779  LEU786  VAL792 
 PHE793  MET794  SER795  GLU796  ALA797  LYS798  CYS799  TRP800  GLU811  SER814 

> <Gold.Protein.RotatedAtoms>
  150.7242  134.5404  159.5744 H   0  0  0  0  0  0  0  0  0  0  0  0  # atno 6907 bound_to 6896
  152.2916  134.7712  160.0385 H   0  0  0  0  0  0  0  0  0  0  0  0  # atno 6908 bound_to 6896
  151.8323  133.3375  159.3654 H   0  0  0  0  0  0  0  0  0  0  0  0  # atno 6909 bound_to 6896
  146.1811  140.4142  142.8494 H   0  0  0  0  0  0  0  0  0  0  0  0  # atno 7974 bound_to 7965
  154.4001  140.1483  156.3291 H   0  0  0  0  0  0  0  0  0  0  0  0  # atno 8008 bound_to 7997
  155.8460  140.3460  155.5641 H   0  0  0  0  0  0  0  0  0  0  0  0  # atno 8009 bound_to 7997
  155.8036  140.0874  157.1934 H   0  0  0  0  0  0  0  0  0  0  0  0  # atno 8010 bound_to 7997
  140.5187  143.2334  151.7468 H   0  0  0  0  0  0  0  0  0  0  0  0  # atno 10167 bound_to 10162
  156.3220  130.4267  149.7952 H   0  0  0  0  0  0  0  0  0  0  0  0  # atno 10718 bound_to 10713
  153.2773  135.6937  153.7421 H   0  0  0  0  0  0  0  0  0  0  0  0  # atno 10763 bound_to 10752
  153.6421  135.3391  155.3075 H   0  0  0  0  0  0  0  0  0  0  0  0  # atno 10764 bound_to 10752
  154.8484  135.4434  154.1815 H   0  0  0  0  0  0  0  0  0  0  0  0  # atno 10765 bound_to 10752
  140.0363  134.5939  155.9440 H   0  0  0  0  0  0  0  0  0  0  0  0  # atno 11005 bound_to 11000
  144.8317  140.6717  143.6287 LP  0  0  0  0  0  0  0  0  0  0  0  0  # atno 17320 bound_to 7965
  145.4073  139.1586  143.4145 LP  0  0  0  0  0  0  0  0  0  0  0  0  # atno 17321 bound_to 7965
  139.4917  144.4287  151.9897 LP  0  0  0  0  0  0  0  0  0  0  0  0  # atno 17342 bound_to 10162
  140.3382  144.3235  150.5972 LP  0  0  0  0  0  0  0  0  0  0  0  0  # atno 17343 bound_to 10162
  156.5256  130.8235  151.3219 LP  0  0  0  0  0  0  0  0  0  0  0  0  # atno 17370 bound_to 10713
  157.7413  130.9868  150.2440 LP  0  0  0  0  0  0  0  0  0  0  0  0  # atno 17371 bound_to 10713
  141.1859  133.6556  156.5216 LP  0  0  0  0  0  0  0  0  0  0  0  0  # atno 17394 bound_to 11000
  140.4143  134.7245  157.4853 LP  0  0  0  0  0  0  0  0  0  0  0  0  # atno 17395 bound_to 11000

$$$$
