AV-unprocessed.smi:1316|AV-procd|sdf|5455|dock1
  -GOLD-   22720 5 23D 1   1.00000     0.00000
 Structure written by MMmdl.
 21 21  0  0  0  0  0  0  0  0  1 V2000
  147.5752  127.8913  151.0493 C   0  0  0  0  0  0  0  0  0  0  0  0
  147.2029  129.2340  151.4682 N   0  0  0  0  0  0  0  0  0  0  0  0
  146.2831  129.5036  152.4054 C   0  0  0  0  0  0  0  0  0  0  0  0
  145.6597  128.6255  153.0041 O   0  0  0  0  0  0  0  0  0  0  0  0
  146.0400  130.9912  152.6924 C   0  0  0  0  0  0  0  0  0  0  0  0
  145.4337  131.6938  151.5727 N   0  0  0  0  0  0  0  0  0  0  0  0
  144.1929  131.4908  151.0043 C   0  0  0  0  0  0  0  0  0  0  0  0
  144.0604  132.3915  149.9867 C   0  0  0  0  0  0  0  0  0  0  0  0
  142.9478  132.5444  149.1381 N   0  0  0  0  0  0  0  0  0  0  0  0
  145.2892  133.1094  150.0070 C   0  0  0  0  0  0  0  0  0  0  0  0
  146.1097  132.6885  150.9564 N   0  0  0  0  0  0  0  0  0  0  0  0
  148.3181  127.9420  150.2536 H   0  0  0  0  0  0  0  0  0  0  0  0
  146.7086  127.3469  150.6720 H   0  0  0  0  0  0  0  0  0  0  0  0
  148.0040  127.3308  151.8812 H   0  0  0  0  0  0  0  0  0  0  0  0
  147.6736  130.0062  151.0187 H   0  0  0  0  0  0  0  0  0  0  0  0
  145.4003  131.0948  153.5706 H   0  0  0  0  0  0  0  0  0  0  0  0
  146.9898  131.4725  152.9279 H   0  0  0  0  0  0  0  0  0  0  0  0
  143.5154  130.7343  151.3722 H   0  0  0  0  0  0  0  0  0  0  0  0
  142.1251  131.9654  149.2292 H   0  0  0  0  0  0  0  0  0  0  0  0
  142.9540  133.1896  148.3611 H   0  0  0  0  0  0  0  0  0  0  0  0
  145.6074  133.9184  149.3658 H   0  0  0  0  0  0  0  0  0  0  0  0
  1  2  1  0  0  0  0
  1 12  1  0  0  0  0
  1 13  1  0  0  0  0
  1 14  1  0  0  0  0
  2  3  1  0  0  0  0
  2 15  1  0  0  0  0
  3  4  2  0  0  0  0
  3  5  1  0  0  0  0
  5  6  1  0  0  0  0
  5 16  1  0  0  0  0
  5 17  1  0  0  0  0
  6 11  1  0  0  0  0
  6  7  1  0  0  0  0
  7  8  2  0  0  0  0
  7 18  1  0  0  0  0
  8  9  1  0  0  0  0
  8 10  1  0  0  0  0
  9 19  1  0  0  0  0
  9 20  1  0  0  0  0
 10 11  2  0  0  0  0
 10 21  1  0  0  0  0
M  END
> <s_m_source_file>
AV-unprocessed.smi

> <i_m_source_file_index>
1316

> <i_lp_mmshare_version>
43012

> <i_f3d_flags>
0

> <s_epik_input>
W0NIM11bTkhdQyg9TylbQ0gyXW4xW2NIXWMoW05IMl0pW2NIXW4x

> <s_epik_cmdline>
J2VwaWtfcHl0aG9uJywgJy1waCcsICc3LjAnLCAnLXRuJywgJzgnLCAnLW1hJywgJzIwMCcsICctbWV0YWxfYmluZGluZycsICctaW1hZScsICc8aW5maWxlLm1hZT4nLCAnLW9tYWUnLCAnPG91dGZpbGUubWFlPic=

> <r_epik_Ionization_Penalty>
0.000718132

> <r_epik_Ionization_Penalty_Charging>
0

> <r_epik_Ionization_Penalty_Neutral>
0.000718132

> <r_epik_State_Penalty>
0.00299677

> <r_epik_Charging_Adjusted_Penalty>
0.00299677

> <i_epik_Tot_Q>
0

> <i_epik_Tot_abs_Q>
0

> <r_epik_Metal_State_Penalty>
-0

> <b_epik_Metal_Only>
0

> <s_lp_Force_Field>
OPLS_2005

> <r_lp_Energy>
5.45355

> <b_lp_Chiralities_Consistent>
1

> <s_lp_Variant>
AV-unprocessed.smi:1316-1

> <Gold.Version>
5.8.1

> <Gold.Id.Protein>
6NUR|6NUR_protein|mol2

> <Gold.PLP.Fitness>
33.6277

> <Gold.PLP.PLP>
-24.7549

> <Gold.PLP.part.hbond>
-3.0000

> <Gold.PLP.part.metal>
0.0000

> <Gold.PLP.part.buried>
-4.3262

> <Gold.PLP.part.nonpolar>
-18.0805

> <Gold.PLP.part.repulsive>
0.5199

> <Gold.PLP.ligand.clash>
0.0000

> <Gold.PLP.ligand.torsion>
0.0638

> <Gold.PLP.Chemscore.Hbond>
2.0000

> <Gold.PLP.Chemscore.CHOScore>
1.0000

> <Gold.PLP.Chemscore.Metal>
0.0000

> <Gold.Chemscore.Hbonds>
donor molecule, donor type, donor heavy atom, donor atom, acceptor molecule, acceptor atom, score
      L1  H     2    15       P1 10747  1.00
      L1  H     9    19       P1 10952  0.84
      L1  C    10    21       P1  7921  0.96

> <Gold.PLP.Chemscore.Internal.Correction>
0.0003

> <Gold.Rescore>
     Score         DG    S(hbond)    S(metal)    S(lipo)     H(rot)  DE(clash)    DE(int)     intcor
     13.97     -14.19       1.96        0.00      49.80       1.44       0.08       0.13       ----

> <Gold.Chemscore.Fitness>
13.9724

> <Gold.Chemscore.DG>
-14.1874

> <Gold.Chemscore.ZeroCoef>
-5.4800

> <Gold.Chemscore.Hbond>
1.9638

> <Gold.Chemscore.Metal>
0.0000

> <Gold.Chemscore.Lipo>
49.8049

> <Gold.Chemscore.Internal_Hbond>
0.0000

> <Gold.Chemscore.DEClash>
0.0818

> <Gold.Chemscore.DEInternal>
0.1332

> <Gold.Chemscore.Rot>
1.4371

> <Gold.Chemscore.Internal.Correction>
   9.000000E+99

> <Gold.Chemscore.Hbonds>
donor molecule, donor type, donor heavy atom, donor atom, acceptor molecule, acceptor atom, score
      L1  H     2    15       P1 10747  0.98
      L1  H     9    19       P1 10952  0.82

> <Gold.Chemscore.Hbond.Weighted>
-6.5591

> <Gold.Chemscore.Metal.Weighted>
-0.0000

> <Gold.Chemscore.Lipo.Weighted>
-5.8272

> <Gold.Chemscore.Internal_Hbond.Weighted>
0.0000

> <Gold.Chemscore.DEClash.Weighted>
0.0818

> <Gold.Chemscore.DEInternal.Weighted>
0.1332

> <Gold.Chemscore.Rot.Weighted>
3.6789

> <Gold.Chemscore.Internal.Correction.Weighted>
   9.000000E+99

> <Gold.Protein.RotatedTorsions>
[ 6907 6896 6895 6894 ] final -128.71 input  -60.11 | X-H torsion
[ 7974 7965 7964 7962 ] final   60.15 input  175.53 | X-H torsion
[ 8008 7997 7996 7995 ] final   67.10 input   59.86 | X-H torsion
[ 10167 10162 10161 10158 ] final  -32.03 input  -65.29 | X-H torsion
[ 10718 10713 10712 10709 ] final   25.77 input   66.30 | X-H torsion
[ 10763 10752 10751 10750 ] final  172.35 input  -60.55 | X-H torsion
[ 11005 11000 10999 10996 ] final  161.70 input  -57.11 | X-H torsion

> <Gold.Protein.ActiveResidues>
 VAL166  LYS551  ARG553  GLY616  TRP617  ASP618  TYR619  PRO620  LYS621  CYS622 
 ASP623  PHE694  ASN695  SER759  ASP760  ASP761  ALA762  ILE779  LEU786  VAL792 
 PHE793  MET794  SER795  GLU796  ALA797  LYS798  CYS799  TRP800  GLU811  SER814 

> <Gold.Protein.RotatedAtoms>
  150.9209  133.6882  159.2832 H   0  0  0  0  0  0  0  0  0  0  0  0  # atno 6907 bound_to 6896
  151.4337  135.1011  159.9659 H   0  0  0  0  0  0  0  0  0  0  0  0  # atno 6908 bound_to 6896
  152.4979  133.8633  159.7316 H   0  0  0  0  0  0  0  0  0  0  0  0  # atno 6909 bound_to 6896
  145.8992  139.3569  143.0602 H   0  0  0  0  0  0  0  0  0  0  0  0  # atno 7974 bound_to 7965
  155.6876  140.3496  155.4880 H   0  0  0  0  0  0  0  0  0  0  0  0  # atno 8008 bound_to 7997
  155.9552  140.1127  157.0965 H   0  0  0  0  0  0  0  0  0  0  0  0  # atno 8009 bound_to 7997
  154.4130  140.1186  156.5091 H   0  0  0  0  0  0  0  0  0  0  0  0  # atno 8010 bound_to 7997
  140.7227  143.3725  151.1750 H   0  0  0  0  0  0  0  0  0  0  0  0  # atno 10167 bound_to 10162
  157.1978  130.6876  149.6176 H   0  0  0  0  0  0  0  0  0  0  0  0  # atno 10718 bound_to 10713
  154.4249  135.2758  155.1951 H   0  0  0  0  0  0  0  0  0  0  0  0  # atno 10763 bound_to 10752
  154.3881  135.6072  153.5831 H   0  0  0  0  0  0  0  0  0  0  0  0  # atno 10764 bound_to 10752
  152.9834  135.5897  154.4551 H   0  0  0  0  0  0  0  0  0  0  0  0  # atno 10765 bound_to 10752
  140.2184  134.8215  157.3194 H   0  0  0  0  0  0  0  0  0  0  0  0  # atno 11005 bound_to 11000
  145.8812  140.9362  143.0600 LP  0  0  0  0  0  0  0  0  0  0  0  0  # atno 17320 bound_to 7965
  144.6735  140.0782  143.7470 LP  0  0  0  0  0  0  0  0  0  0  0  0  # atno 17321 bound_to 7965
  139.7300  143.9088  152.3016 LP  0  0  0  0  0  0  0  0  0  0  0  0  # atno 17342 bound_to 10162
  139.8874  144.6984  150.8809 LP  0  0  0  0  0  0  0  0  0  0  0  0  # atno 17343 bound_to 10162
  155.9704  130.4593  150.6031 LP  0  0  0  0  0  0  0  0  0  0  0  0  # atno 17370 bound_to 10713
  157.3797  131.0779  151.1487 LP  0  0  0  0  0  0  0  0  0  0  0  0  # atno 17371 bound_to 10713
  140.1876  134.4411  155.7734 LP  0  0  0  0  0  0  0  0  0  0  0  0  # atno 17394 bound_to 11000
  141.2224  133.7012  156.7973 LP  0  0  0  0  0  0  0  0  0  0  0  0  # atno 17395 bound_to 11000

$$$$
