AV-unprocessed.smi:39|AV-procd|sdf|360|dock5
  -GOLD-   2262016203D 1   1.00000     0.00000
 Structure written by MMmdl.
 31 32  0  0  0  0  0  0  0  0  4 V2000
  150.6432  142.9278  159.0029 C   0  0  0  0  0  0  0  0  0  0  0  0
  150.9589  141.9803  157.8586 C   0  0  0  0  0  0  0  0  0  0  0  0
  150.2309  141.9566  156.7198 C   0  0  0  0  0  0  0  0  0  0  0  0
  150.5237  141.0918  155.6780 N   0  0  0  0  0  0  0  0  0  0  0  0
  149.7073  141.0708  154.4006 C   0  0  2  0  0  0  0  0  0  0  0  0
  148.4744  141.9798  154.5329 C   0  0  0  0  0  0  0  0  0  0  0  0
  147.3429  141.0717  154.0790 C   0  0  2  0  0  0  0  0  0  0  0  0
  146.0565  141.4113  154.6918 N   0  0  0  0  0  0  0  0  0  0  0  0
  145.5997  142.5315  154.4289 N   0  3  0  0  0  0  0  0  0  0  0  0
  145.2344  143.6008  154.2936 N   0  5  0  0  0  0  0  0  0  0  0  0
  147.8557  139.7000  154.5177 C   0  0  1  0  0  0  0  0  0  0  0  0
  147.1936  138.5265  153.7807 C   0  0  0  0  0  0  0  0  0  0  0  0
  147.5581  138.5491  152.4175 O   0  0  0  0  0  0  0  0  0  0  0  0
  149.2308  139.7782  154.1575 O   0  0  0  0  0  0  0  0  0  0  0  0
  151.6125  140.1895  155.8038 C   0  0  0  0  0  0  0  0  0  0  0  0
  151.8424  139.4275  154.8641 O   0  0  0  0  0  0  0  0  0  0  0  0
  152.3524  140.2063  156.9485 N   0  5  0  0  0  0  0  0  0  0  0  0
  152.0902  141.0538  157.9842 C   0  0  0  0  0  0  0  0  0  0  0  0
  152.7694  141.0616  159.0103 O   0  0  0  0  0  0  0  0  0  0  0  0
  150.3950  141.3581  153.6035 H   0  0  0  0  0  0  0  0  0  0  0  0
  147.2786  141.0954  152.9889 H   0  0  0  0  0  0  0  0  0  0  0  0
  147.7524  139.5960  155.5998 H   0  0  0  0  0  0  0  0  0  0  0  0
  149.7852  143.5589  158.7704 H   0  0  0  0  0  0  0  0  0  0  0  0
  151.4953  143.5773  159.2053 H   0  0  0  0  0  0  0  0  0  0  0  0
  150.4143  142.3672  159.9096 H   0  0  0  0  0  0  0  0  0  0  0  0
  149.3991  142.6386  156.6362 H   0  0  0  0  0  0  0  0  0  0  0  0
  148.3419  142.2802  155.5741 H   0  0  0  0  0  0  0  0  0  0  0  0
  148.5814  142.8742  153.9185 H   0  0  0  0  0  0  0  0  0  0  0  0
  147.5363  137.5784  154.1960 H   0  0  0  0  0  0  0  0  0  0  0  0
  146.1086  138.5532  153.8850 H   0  0  0  0  0  0  0  0  0  0  0  0
  147.9669  137.7236  152.2055 H   0  0  0  0  0  0  0  0  0  0  0  0
  1  2  1  0  0  0  0
  1 23  1  0  0  0  0
  1 24  1  0  0  0  0
  1 25  1  0  0  0  0
  2 18  1  0  0  0  0
  2  3  2  0  0  0  0
  3  4  1  0  0  0  0
  3 26  1  0  0  0  0
  4  5  1  0  0  0  0
  4 15  1  0  0  0  0
  5 20  1  0  0  0  0
  5 14  1  0  0  0  0
  5  6  1  0  0  0  0
  6  7  1  0  0  0  0
  6 27  1  0  0  0  0
  6 28  1  0  0  0  0
  7 21  1  0  0  0  0
  7  8  1  0  0  0  0
  7 11  1  0  0  0  0
  8  9  2  0  0  0  0
  9 10  2  0  0  0  0
 11 22  1  0  0  0  0
 11 12  1  0  0  0  0
 11 14  1  0  0  0  0
 12 13  1  0  0  0  0
 12 29  1  0  0  0  0
 12 30  1  0  0  0  0
 13 31  1  0  0  0  0
 15 16  2  0  0  0  0
 15 17  1  0  0  0  0
 17 18  1  0  0  0  0
 18 19  2  0  0  0  0
M  CHG  1   9   1
M  CHG  1  10  -1
M  CHG  1  17  -1
M  END
> <s_m_source_file>
AV-unprocessed.smi

> <i_m_source_file_index>
39

> <i_lp_mmshare_version>
43012

> <i_f3d_flags>
0

> <s_epik_input>
Tz1jMVtuSF1jKD1PKW4oW2NIXWMxW0NIM10pW0NASF0yW0NIMl1bQ0BIXShOPVtOK109W04tXSlbQ0BIXShPMilbQ0gyXVtPSF0=

> <s_epik_cmdline>
J2VwaWtfcHl0aG9uJywgJy1waCcsICc3LjAnLCAnLXRuJywgJzgnLCAnLW1hJywgJzIwMCcsICctbWV0YWxfYmluZGluZycsICctaW1hZScsICc8aW5maWxlLm1hZT4nLCAnLW9tYWUnLCAnPG91dGZpbGUubWFlPic=

> <r_lp_tautomer_probability>
0.999537

> <r_epik_Ionization_Penalty>
3.6393

> <r_epik_Ionization_Penalty_Charging>
9.76484e-08

> <r_epik_Ionization_Penalty_Neutral>
3.6393

> <r_epik_State_Penalty>
3.63887

> <r_epik_Charging_Adjusted_Penalty>
3.63887

> <i_epik_Tot_Q>
-1

> <i_epik_Tot_abs_Q>
3

> <r_epik_Metal_State_Penalty>
0.225911

> <b_epik_Metal_Only>
1

> <s_epik_Chemistry_Notes>
This compound contains an acetal/aminal-like group ( X-CH(R)-Y where X, Y are N, S, or O) that may be acid/base labile, releasing an aldehyde.

> <s_lp_Force_Field>
OPLS_2005

> <r_lp_Energy>
32.3737

> <b_lp_Chiralities_Consistent>
1

> <s_lp_Variant>
AV-unprocessed.smi:39-10

> <Gold.Version>
5.8.1

> <Gold.Id.Protein>
6NUR|6NUR_protein|mol2

> <Gold.PLP.Fitness>
39.9428

> <Gold.PLP.PLP>
-26.0835

> <Gold.PLP.part.hbond>
-4.0000

> <Gold.PLP.part.metal>
0.0000

> <Gold.PLP.part.buried>
-0.1225

> <Gold.PLP.part.nonpolar>
-21.3203

> <Gold.PLP.part.repulsive>
1.3896

> <Gold.PLP.ligand.clash>
0.0000

> <Gold.PLP.ligand.torsion>
0.1388

> <Gold.PLP.Chemscore.Hbond>
3.7000

> <Gold.PLP.Chemscore.CHOScore>
1.0000

> <Gold.PLP.Chemscore.Metal>
0.0000

> <Gold.Chemscore.Hbonds>
donor molecule, donor type, donor heavy atom, donor atom, acceptor molecule, acceptor atom, score
      L1  H    13    31       P1  7948  1.00
      P1  H  7989  7998       L1    16  0.70
      P1  H  7997  8009       L1    17  1.95
      L1  C     3    26       P1  8028  1.00

> <Gold.PLP.Chemscore.Internal.Correction>
0.0369

> <Gold.Rescore>
     Score         DG    S(hbond)    S(metal)    S(lipo)     H(rot)  DE(clash)    DE(int)     intcor
      7.15      -9.48       1.87        0.00      40.36       2.72       0.80       1.53       ----

> <Gold.Chemscore.Fitness>
7.1468

> <Gold.Chemscore.DG>
-9.4810

> <Gold.Chemscore.ZeroCoef>
-5.4800

> <Gold.Chemscore.Hbond>
1.8653

> <Gold.Chemscore.Metal>
0.0000

> <Gold.Chemscore.Lipo>
40.3586

> <Gold.Chemscore.Internal_Hbond>
0.0000

> <Gold.Chemscore.DEClash>
0.8024

> <Gold.Chemscore.DEInternal>
1.5318

> <Gold.Chemscore.Rot>
2.7153

> <Gold.Chemscore.Internal.Correction>
   9.000000E+99

> <Gold.Chemscore.Hbonds>
donor molecule, donor type, donor heavy atom, donor atom, acceptor molecule, acceptor atom, score
      L1  H    13    31       P1  7948  1.00
      P1  H  7989  7998       L1    16  0.07
      P1  H  7997  8009       L1    17  0.57

> <Gold.Chemscore.Hbond.Weighted>
-6.2302

> <Gold.Chemscore.Metal.Weighted>
-0.0000

> <Gold.Chemscore.Lipo.Weighted>
-4.7220

> <Gold.Chemscore.Internal_Hbond.Weighted>
0.0000

> <Gold.Chemscore.DEClash.Weighted>
0.8024

> <Gold.Chemscore.DEInternal.Weighted>
1.5318

> <Gold.Chemscore.Rot.Weighted>
6.9512

> <Gold.Chemscore.Internal.Correction.Weighted>
   9.000000E+99

> <Gold.Protein.RotatedTorsions>
[ 6907 6896 6895 6894 ] final   41.71 input  -60.11 | X-H torsion
[ 7974 7965 7964 7962 ] final  158.92 input  175.53 | X-H torsion
[ 8008 7997 7996 7995 ] final -177.40 input   59.86 | X-H torsion
[ 10167 10162 10161 10158 ] final    7.06 input  -65.29 | X-H torsion
[ 10718 10713 10712 10709 ] final  -92.58 input   66.30 | X-H torsion
[ 10763 10752 10751 10750 ] final    8.64 input  -60.55 | X-H torsion
[ 11005 11000 10999 10996 ] final   38.05 input  -57.11 | X-H torsion

> <Gold.Protein.ActiveResidues>
 VAL166  LYS551  ARG553  GLY616  TRP617  ASP618  TYR619  PRO620  LYS621  CYS622 
 ASP623  PHE694  ASN695  SER759  ASP760  ASP761  ALA762  ILE779  LEU786  VAL792 
 PHE793  MET794  SER795  GLU796  ALA797  LYS798  CYS799  TRP800  GLU811  SER814 

> <Gold.Protein.RotatedAtoms>
  152.1987  134.8608  160.0509 H   0  0  0  0  0  0  0  0  0  0  0  0  # atno 6907 bound_to 6896
  151.9469  133.3649  159.3994 H   0  0  0  0  0  0  0  0  0  0  0  0  # atno 6908 bound_to 6896
  150.6950  134.4305  159.5290 H   0  0  0  0  0  0  0  0  0  0  0  0  # atno 6909 bound_to 6896
  144.7819  139.7545  143.6256 H   0  0  0  0  0  0  0  0  0  0  0  0  # atno 7974 bound_to 7965
  156.0064  140.1231  157.0497 H   0  0  0  0  0  0  0  0  0  0  0  0  # atno 8008 bound_to 7997
  154.4260  140.1096  156.5838 H   0  0  0  0  0  0  0  0  0  0  0  0  # atno 8009 bound_to 7997
  155.6140  140.3472  155.4633 H   0  0  0  0  0  0  0  0  0  0  0  0  # atno 8010 bound_to 7997
  140.6393  143.7812  150.7405 H   0  0  0  0  0  0  0  0  0  0  0  0  # atno 10167 bound_to 10162
  156.0004  130.4992  150.5646 H   0  0  0  0  0  0  0  0  0  0  0  0  # atno 10718 bound_to 10713
  153.2228  135.6883  153.7980 H   0  0  0  0  0  0  0  0  0  0  0  0  # atno 10763 bound_to 10752
  153.7172  135.3273  155.3260 H   0  0  0  0  0  0  0  0  0  0  0  0  # atno 10764 bound_to 10752
  154.8278  135.4604  154.1082 H   0  0  0  0  0  0  0  0  0  0  0  0  # atno 10765 bound_to 10752
  140.2164  134.3693  155.8025 H   0  0  0  0  0  0  0  0  0  0  0  0  # atno 11005 bound_to 11000
  146.2031  139.5338  142.9730 LP  0  0  0  0  0  0  0  0  0  0  0  0  # atno 17320 bound_to 7965
  145.6028  141.0352  143.2009 LP  0  0  0  0  0  0  0  0  0  0  0  0  # atno 17321 bound_to 7965
  140.1440  143.4416  152.2175 LP  0  0  0  0  0  0  0  0  0  0  0  0  # atno 17342 bound_to 10162
  139.5602  144.7401  151.4176 LP  0  0  0  0  0  0  0  0  0  0  0  0  # atno 17343 bound_to 10162
  157.3550  131.0740  151.1682 LP  0  0  0  0  0  0  0  0  0  0  0  0  # atno 17370 bound_to 10713
  157.2486  130.6603  149.5921 LP  0  0  0  0  0  0  0  0  0  0  0  0  # atno 17371 bound_to 10713
  141.2224  133.7170  156.8503 LP  0  0  0  0  0  0  0  0  0  0  0  0  # atno 17394 bound_to 11000
  140.1896  134.8975  157.3044 LP  0  0  0  0  0  0  0  0  0  0  0  0  # atno 17395 bound_to 11000

$$$$
