AV-unprocessed.smi:290|AV-procd|sdf|2229|dock3
  -GOLD-   2262022 83D 1   1.00000     0.00000
 Structure written by MMmdl.
 59 62  0  0  0  0  0  0  0  0  2 V2000
  153.4871  142.4651  159.5491 C   0  0  0  0  0  0  0  0  0  0  0  0
  152.5484  143.5000  158.9042 C   0  0  2  0  0  0  0  0  0  0  0  0
  152.2177  144.5198  159.8460 O   0  0  0  0  0  0  0  0  0  0  0  0
  150.8126  144.5658  160.0406 C   0  0  0  0  0  0  0  0  0  0  0  0
  150.2400  144.0749  158.7179 C   0  0  0  0  0  0  0  0  0  0  0  0
  151.2105  142.9700  158.3276 C   0  0  2  0  0  0  0  0  0  0  0  0
  150.8073  141.7793  158.9860 O   0  0  0  0  0  0  0  0  0  0  0  0
  151.2248  142.7052  156.8028 C   0  0  0  0  0  0  0  0  0  0  0  0
  150.2486  141.7133  156.3795 N   0  0  0  0  0  0  0  0  0  0  0  0
  148.8843  141.7726  156.5517 C   0  0  0  0  0  0  0  0  0  0  0  0
  148.2206  140.7475  156.0920 N   0  0  0  0  0  0  0  0  0  0  0  0
  149.2000  139.9181  155.5575 C   0  0  0  0  0  0  0  0  0  0  0  0
  149.1810  138.6513  154.9056 C   0  0  0  0  0  0  0  0  0  0  0  0
  148.0380  137.9465  154.6926 N   0  0  0  0  0  0  0  0  0  0  0  0
  147.7507  136.8573  155.6236 C   0  0  0  0  0  0  0  0  0  0  0  0
  147.0921  135.7432  154.8032 C   0  0  0  0  0  0  0  0  0  0  0  0
  146.5447  136.4938  153.5846 C   0  0  2  0  0  0  0  0  0  0  0  0
  146.2338  135.6570  152.3903 N   0  3  2  0  0  0  0  0  0  0  0  0
  144.9976  136.1050  151.7063 C   0  0  0  0  0  0  0  0  0  0  0  0
  146.2666  134.1848  152.6081 C   0  0  0  0  0  0  0  0  0  0  0  0
  146.5868  133.4236  151.3120 C   0  0  0  0  0  0  0  0  0  0  0  0
  146.8017  132.0568  151.5951 O   0  0  0  0  0  0  0  0  0  0  0  0
  147.6010  137.5816  153.3453 C   0  0  1  0  0  0  0  0  0  0  0  0
  147.0546  138.7834  152.5537 C   0  0  0  0  0  0  0  0  0  0  0  0
  150.3746  138.1459  154.4950 N   0  0  0  0  0  0  0  0  0  0  0  0
  151.5069  138.8224  154.7077 C   0  0  0  0  0  0  0  0  0  0  0  0
  151.6726  140.0031  155.3050 N   0  0  0  0  0  0  0  0  0  0  0  0
  150.4805  140.5197  155.7183 C   0  0  0  0  0  0  0  0  0  0  0  0
  145.6271  136.9990  153.8932 H   0  0  0  0  0  0  0  0  0  0  0  0
  148.4553  137.1655  152.8130 H   0  0  0  0  0  0  0  0  0  0  0  0
  153.7506  141.6748  158.8467 H   0  0  0  0  0  0  0  0  0  0  0  0
  153.0319  142.0010  160.4242 H   0  0  0  0  0  0  0  0  0  0  0  0
  154.4135  142.9372  159.8756 H   0  0  0  0  0  0  0  0  0  0  0  0
  153.0962  144.0117  158.1127 H   0  0  0  0  0  0  0  0  0  0  0  0
  150.5411  143.8917  160.8542 H   0  0  0  0  0  0  0  0  0  0  0  0
  150.4763  145.5695  160.3006 H   0  0  0  0  0  0  0  0  0  0  0  0
  149.2032  143.7444  158.7953 H   0  0  0  0  0  0  0  0  0  0  0  0
  150.2772  144.8872  157.9905 H   0  0  0  0  0  0  0  0  0  0  0  0
  150.1389  141.3605  158.4658 H   0  0  0  0  0  0  0  0  0  0  0  0
  151.0357  143.6291  156.2545 H   0  0  0  0  0  0  0  0  0  0  0  0
  152.2125  142.3645  156.4899 H   0  0  0  0  0  0  0  0  0  0  0  0
  148.3937  142.6023  157.0395 H   0  0  0  0  0  0  0  0  0  0  0  0
  148.6463  136.4926  156.1291 H   0  0  0  0  0  0  0  0  0  0  0  0
  147.0615  137.2255  156.3842 H   0  0  0  0  0  0  0  0  0  0  0  0
  147.8550  135.0176  154.5222 H   0  0  0  0  0  0  0  0  0  0  0  0
  146.3185  135.2147  155.3608 H   0  0  0  0  0  0  0  0  0  0  0  0
  144.1251  135.9676  152.3460 H   0  0  0  0  0  0  0  0  0  0  0  0
  144.8309  135.5511  150.7832 H   0  0  0  0  0  0  0  0  0  0  0  0
  145.0623  137.1607  151.4416 H   0  0  0  0  0  0  0  0  0  0  0  0
  147.0065  133.9046  153.3568 H   0  0  0  0  0  0  0  0  0  0  0  0
  145.3050  133.8570  153.0061 H   0  0  0  0  0  0  0  0  0  0  0  0
  145.7508  133.5018  150.6167 H   0  0  0  0  0  0  0  0  0  0  0  0
  147.4599  133.8338  150.8052 H   0  0  0  0  0  0  0  0  0  0  0  0
  147.5142  131.7431  151.0586 H   0  0  0  0  0  0  0  0  0  0  0  0
  146.7058  138.4733  151.5685 H   0  0  0  0  0  0  0  0  0  0  0  0
  147.8156  139.5485  152.4015 H   0  0  0  0  0  0  0  0  0  0  0  0
  146.2163  139.2512  153.0711 H   0  0  0  0  0  0  0  0  0  0  0  0
  152.4093  138.3489  154.3495 H   0  0  0  0  0  0  0  0  0  0  0  0
  146.9862  135.8464  151.7432 H   0  0  0  0  0  0  0  0  0  0  0  0
  1  2  1  0  0  0  0
  1 31  1  0  0  0  0
  1 32  1  0  0  0  0
  1 33  1  0  0  0  0
  2  6  1  0  0  0  0
  2  3  1  0  0  0  0
  2 34  1  0  0  0  0
  3  4  1  0  0  0  0
  4  5  1  0  0  0  0
  4 35  1  0  0  0  0
  4 36  1  0  0  0  0
  5  6  1  0  0  0  0
  5 37  1  0  0  0  0
  5 38  1  0  0  0  0
  6  7  1  0  0  0  0
  6  8  1  0  0  0  0
  7 39  1  0  0  0  0
  8  9  1  0  0  0  0
  8 40  1  0  0  0  0
  8 41  1  0  0  0  0
  9 28  1  0  0  0  0
  9 10  1  0  0  0  0
 10 11  2  0  0  0  0
 10 42  1  0  0  0  0
 11 12  1  0  0  0  0
 12 28  2  0  0  0  0
 12 13  1  0  0  0  0
 13 14  1  0  0  0  0
 13 25  2  0  0  0  0
 14 23  1  0  0  0  0
 14 15  1  0  0  0  0
 15 16  1  0  0  0  0
 15 43  1  0  0  0  0
 15 44  1  0  0  0  0
 16 17  1  0  0  0  0
 16 45  1  0  0  0  0
 16 46  1  0  0  0  0
 17 29  1  0  0  0  0
 17 18  1  0  0  0  0
 17 23  1  0  0  0  0
 18 19  1  0  0  0  0
 18 20  1  0  0  0  0
 18 59  1  0  0  0  0
 19 47  1  0  0  0  0
 19 48  1  0  0  0  0
 19 49  1  0  0  0  0
 20 21  1  0  0  0  0
 20 50  1  0  0  0  0
 20 51  1  0  0  0  0
 21 22  1  0  0  0  0
 21 52  1  0  0  0  0
 21 53  1  0  0  0  0
 22 54  1  0  0  0  0
 23 30  1  0  0  0  0
 23 24  1  0  0  0  0
 24 55  1  0  0  0  0
 24 56  1  0  0  0  0
 24 57  1  0  0  0  0
 25 26  1  0  0  0  0
 26 27  2  0  0  0  0
 26 58  1  0  0  0  0
 27 28  1  0  0  0  0
M  CHG  1  18   1
M  END
> <s_m_source_file>
AV-unprocessed.smi

> <i_m_source_file_index>
290

> <i_lp_mmshare_version>
43012

> <i_f3d_flags>
0

> <s_epik_input>
W0NIMl0xW0NIMl1PW0NAQEhdKFtDSDNdKVtDQEBdMShbT0hdKVtDSDJdbihbY0hdbjIpYyhjMjMpbltjSF1uYzNONFtDSDJdW0NIMl1bQ0BIXShbQ0BIXTRbQ0gzXSlOKFtDSDNdKVtDSDJdW0NIMl1bT0hd

> <s_epik_cmdline>
J2VwaWtfcHl0aG9uJywgJy1waCcsICc3LjAnLCAnLXRuJywgJzgnLCAnLW1hJywgJzIwMCcsICctbWV0YWxfYmluZGluZycsICctaW1hZScsICc8aW5maWxlLm1hZT4nLCAnLW9tYWUnLCAnPG91dGZpbGUubWFlPic=

> <r_lp_tautomer_probability>
1

> <r_epik_Ionization_Penalty>
0.0036983

> <r_epik_Ionization_Penalty_Charging>
0.0032725

> <r_epik_Ionization_Penalty_Neutral>
0.000425798

> <r_epik_State_Penalty>
-0

> <r_epik_Charging_Adjusted_Penalty>
0.0032725

> <i_epik_Tot_Q>
1

> <i_epik_Tot_abs_Q>
1

> <r_epik_Metal_State_Penalty>
-0

> <b_epik_Metal_Only>
0

> <s_lp_Force_Field>
OPLS_2005

> <r_lp_Energy>
60.087

> <b_lp_Chiralities_Consistent>
1

> <s_lp_Variant>
AV-unprocessed.smi:290-15

> <Gold.Version>
5.8.1

> <Gold.Id.Protein>
6NUR|6NUR_protein|mol2

> <Gold.PLP.Fitness>
44.3189

> <Gold.PLP.PLP>
-37.8731

> <Gold.PLP.part.hbond>
-3.2909

> <Gold.PLP.part.metal>
0.0000

> <Gold.PLP.part.buried>
-0.3320

> <Gold.PLP.part.nonpolar>
-35.4833

> <Gold.PLP.part.repulsive>
0.4246

> <Gold.PLP.ligand.clash>
0.0000

> <Gold.PLP.ligand.torsion>
2.2620

> <Gold.PLP.Chemscore.Hbond>
2.9584

> <Gold.PLP.Chemscore.CHOScore>
0.5256

> <Gold.PLP.Chemscore.Metal>
0.0000

> <Gold.Chemscore.Hbonds>
donor molecule, donor type, donor heavy atom, donor atom, acceptor molecule, acceptor atom, score
      L1  H    18    59       P1  7948  1.54
      L1  H    22    54       P1 10747  1.00
      P1  H  7989  7998       L1    27  0.35
      L1  C    10    42       P1  8028  0.52

> <Gold.PLP.Chemscore.Internal.Correction>
0.5180

> <Gold.Rescore>
     Score         DG    S(hbond)    S(metal)    S(lipo)     H(rot)  DE(clash)    DE(int)     intcor
      9.13     -13.23       1.92        0.00      91.72       3.67       1.90       2.20       ----

> <Gold.Chemscore.Fitness>
9.1257

> <Gold.Chemscore.DG>
-13.2274

> <Gold.Chemscore.ZeroCoef>
-5.4800

> <Gold.Chemscore.Hbond>
1.9165

> <Gold.Chemscore.Metal>
0.0000

> <Gold.Chemscore.Lipo>
91.7165

> <Gold.Chemscore.Internal_Hbond>
0.0000

> <Gold.Chemscore.DEClash>
1.8983

> <Gold.Chemscore.DEInternal>
2.2034

> <Gold.Chemscore.Rot>
3.6658

> <Gold.Chemscore.Internal.Correction>
   9.000000E+99

> <Gold.Chemscore.Hbonds>
donor molecule, donor type, donor heavy atom, donor atom, acceptor molecule, acceptor atom, score
      L1  H    18    59       P1  7948  0.74
      L1  H    22    54       P1 10747  1.00

> <Gold.Chemscore.Hbond.Weighted>
-6.4010

> <Gold.Chemscore.Metal.Weighted>
-0.0000

> <Gold.Chemscore.Lipo.Weighted>
-10.7308

> <Gold.Chemscore.Internal_Hbond.Weighted>
0.0000

> <Gold.Chemscore.DEClash.Weighted>
1.8983

> <Gold.Chemscore.DEInternal.Weighted>
2.2034

> <Gold.Chemscore.Rot.Weighted>
9.3844

> <Gold.Chemscore.Internal.Correction.Weighted>
   9.000000E+99

> <Gold.Protein.RotatedTorsions>
[ 6907 6896 6895 6894 ] final  170.84 input  -60.11 | X-H torsion
[ 7974 7965 7964 7962 ] final  -22.08 input  175.53 | X-H torsion
[ 8008 7997 7996 7995 ] final  -87.12 input   59.86 | X-H torsion
[ 10167 10162 10161 10158 ] final    8.47 input  -65.29 | X-H torsion
[ 10718 10713 10712 10709 ] final   -6.24 input   66.30 | X-H torsion
[ 10763 10752 10751 10750 ] final -166.52 input  -60.55 | X-H torsion
[ 11005 11000 10999 10996 ] final   87.04 input  -57.11 | X-H torsion

> <Gold.Protein.ActiveResidues>
 VAL166  LYS551  ARG553  GLY616  TRP617  ASP618  TYR619  PRO620  LYS621  CYS622 
 ASP623  PHE694  ASN695  SER759  ASP760  ASP761  ALA762  ILE779  LEU786  VAL792 
 PHE793  MET794  SER795  GLU796  ALA797  LYS798  CYS799  TRP800  GLU811  SER814 

> <Gold.Protein.RotatedAtoms>
  151.8098  133.3380  159.3551 H   0  0  0  0  0  0  0  0  0  0  0  0  # atno 6907 bound_to 6896
  150.7330  134.5675  159.5883 H   0  0  0  0  0  0  0  0  0  0  0  0  # atno 6908 bound_to 6896
  152.3083  134.7529  160.0393 H   0  0  0  0  0  0  0  0  0  0  0  0  # atno 6909 bound_to 6896
  146.1696  140.4429  142.8538 H   0  0  0  0  0  0  0  0  0  0  0  0  # atno 7974 bound_to 7965
  154.6596  140.0570  157.0047 H   0  0  0  0  0  0  0  0  0  0  0  0  # atno 8008 bound_to 7997
  155.1248  140.3251  155.4470 H   0  0  0  0  0  0  0  0  0  0  0  0  # atno 8009 bound_to 7997
  156.2612  140.1991  156.6369 H   0  0  0  0  0  0  0  0  0  0  0  0  # atno 8010 bound_to 7997
  140.6312  143.7989  150.7298 H   0  0  0  0  0  0  0  0  0  0  0  0  # atno 10167 bound_to 10162
  156.7347  130.5191  149.5837 H   0  0  0  0  0  0  0  0  0  0  0  0  # atno 10718 bound_to 10713
  154.6825  135.2957  154.9593 H   0  0  0  0  0  0  0  0  0  0  0  0  # atno 10763 bound_to 10752
  154.0583  135.6635  153.4812 H   0  0  0  0  0  0  0  0  0  0  0  0  # atno 10764 bound_to 10752
  153.0557  135.5146  154.7875 H   0  0  0  0  0  0  0  0  0  0  0  0  # atno 10765 bound_to 10752
  139.8929  134.8395  156.2804 H   0  0  0  0  0  0  0  0  0  0  0  0  # atno 11005 bound_to 11000
  144.8144  140.6441  143.6394 LP  0  0  0  0  0  0  0  0  0  0  0  0  # atno 17320 bound_to 7965
  145.4375  139.1540  143.3988 LP  0  0  0  0  0  0  0  0  0  0  0  0  # atno 17321 bound_to 7965
  140.1600  143.4283  152.2073 LP  0  0  0  0  0  0  0  0  0  0  0  0  # atno 17342 bound_to 10162
  139.5526  144.7349  151.4388 LP  0  0  0  0  0  0  0  0  0  0  0  0  # atno 17343 bound_to 10162
  156.1505  130.6306  151.0589 LP  0  0  0  0  0  0  0  0  0  0  0  0  # atno 17370 bound_to 10713
  157.6844  131.0829  150.7283 LP  0  0  0  0  0  0  0  0  0  0  0  0  # atno 17371 bound_to 10713
  141.0042  133.7133  156.1009 LP  0  0  0  0  0  0  0  0  0  0  0  0  # atno 17394 bound_to 11000
  140.7456  134.4102  157.5549 LP  0  0  0  0  0  0  0  0  0  0  0  0  # atno 17395 bound_to 11000

$$$$
