AV-unprocessed.smi:1419|AV-procd|sdf|5778|dock6
  -GOLD-   22720 5423D 1   1.00000     0.00000
 Structure written by MMmdl.
 42 43  0  0  0  0  0  0  0  0  2 V2000
  149.0562  140.5224  157.5880 C   0  0  0  0  0  0  0  0  0  0  0  0
  149.6772  141.6449  156.7459 C   0  0  2  0  0  0  0  0  0  0  0  0
  150.4144  141.0742  155.5147 C   0  0  0  0  0  0  0  0  0  0  0  0
  149.5460  140.2703  154.6476 N   0  0  0  0  0  0  0  0  0  0  0  0
  148.3174  140.6205  154.1484 C   0  0  0  0  0  0  0  0  0  0  0  0
  147.8902  139.5650  153.3851 C   0  0  0  0  0  0  0  0  0  0  0  0
  148.8694  138.6109  153.4603 N   0  3  0  0  0  0  0  0  0  0  0  0
  149.8715  139.0385  154.2349 C   0  0  0  0  0  0  0  0  0  0  0  0
  150.5837  142.4204  157.5919 N   0  0  0  0  0  0  0  0  0  0  0  0
  151.5085  141.9213  158.4310 C   0  0  0  0  0  0  0  0  0  0  0  0
  151.6751  140.7100  158.5791 O   0  0  0  0  0  0  0  0  0  0  0  0
  152.2160  142.8554  159.1129 N   0  0  0  0  0  0  0  0  0  0  0  0
  152.1955  144.3099  158.9048 C   0  0  0  0  0  0  0  0  0  0  0  0
  151.5350  144.9833  160.1258 C   0  0  1  0  0  0  0  0  0  0  0  0
  150.0185  144.7417  160.2256 C   0  0  0  0  0  0  0  0  0  0  0  0
  152.2078  144.5809  161.3235 O   0  0  0  0  0  0  0  0  0  0  0  0
  152.3365  143.1704  161.5236 C   0  0  2  0  0  0  0  0  0  0  0  0
  153.1411  142.9469  162.8084 C   0  0  0  0  0  0  0  0  0  0  0  0
  153.0171  142.5343  160.2954 C   0  0  0  0  0  0  0  0  0  0  0  0
  148.3461  139.9390  157.0015 H   0  0  0  0  0  0  0  0  0  0  0  0
  148.5179  140.9261  158.4462 H   0  0  0  0  0  0  0  0  0  0  0  0
  149.8181  139.8382  157.9633 H   0  0  0  0  0  0  0  0  0  0  0  0
  148.8580  142.2816  156.4066 H   0  0  0  0  0  0  0  0  0  0  0  0
  150.8603  141.8752  154.9226 H   0  0  0  0  0  0  0  0  0  0  0  0
  151.2316  140.4247  155.8317 H   0  0  0  0  0  0  0  0  0  0  0  0
  147.8557  141.5743  154.3594 H   0  0  0  0  0  0  0  0  0  0  0  0
  146.9862  139.4246  152.8105 H   0  0  0  0  0  0  0  0  0  0  0  0
  150.7695  138.4969  154.4728 H   0  0  0  0  0  0  0  0  0  0  0  0
  150.5080  143.4255  157.5299 H   0  0  0  0  0  0  0  0  0  0  0  0
  153.2233  144.6622  158.8054 H   0  0  0  0  0  0  0  0  0  0  0  0
  151.6970  144.6235  157.9877 H   0  0  0  0  0  0  0  0  0  0  0  0
  151.6837  146.0597  160.0367 H   0  0  0  0  0  0  0  0  0  0  0  0
  149.5075  145.1211  159.3405 H   0  0  0  0  0  0  0  0  0  0  0  0
  149.6010  145.2535  161.0928 H   0  0  0  0  0  0  0  0  0  0  0  0
  149.7739  143.6846  160.3149 H   0  0  0  0  0  0  0  0  0  0  0  0
  151.3480  142.7309  161.6616 H   0  0  0  0  0  0  0  0  0  0  0  0
  153.2581  141.8837  163.0192 H   0  0  0  0  0  0  0  0  0  0  0  0
  152.6427  143.4023  163.6646 H   0  0  0  0  0  0  0  0  0  0  0  0
  154.1369  143.3846  162.7316 H   0  0  0  0  0  0  0  0  0  0  0  0
  153.1333  141.4602  160.4474 H   0  0  0  0  0  0  0  0  0  0  0  0
  154.0262  142.9299  160.1704 H   0  0  0  0  0  0  0  0  0  0  0  0
  148.8402  137.7101  152.9994 H   0  0  0  0  0  0  0  0  0  0  0  0
  1  2  1  0  0  0  0
  1 20  1  0  0  0  0
  1 21  1  0  0  0  0
  1 22  1  0  0  0  0
  2  3  1  0  0  0  0
  2  9  1  0  0  0  0
  2 23  1  0  0  0  0
  3  4  1  0  0  0  0
  3 24  1  0  0  0  0
  3 25  1  0  0  0  0
  4  8  1  0  0  0  0
  4  5  1  0  0  0  0
  5  6  2  0  0  0  0
  5 26  1  0  0  0  0
  6  7  1  0  0  0  0
  6 27  1  0  0  0  0
  7  8  2  0  0  0  0
  7 42  1  0  0  0  0
  8 28  1  0  0  0  0
  9 10  1  0  0  0  0
  9 29  1  0  0  0  0
 10 11  2  0  0  0  0
 10 12  1  0  0  0  0
 12 19  1  0  0  0  0
 12 13  1  0  0  0  0
 13 14  1  0  0  0  0
 13 30  1  0  0  0  0
 13 31  1  0  0  0  0
 14 15  1  0  0  0  0
 14 16  1  0  0  0  0
 14 32  1  0  0  0  0
 15 33  1  0  0  0  0
 15 34  1  0  0  0  0
 15 35  1  0  0  0  0
 16 17  1  0  0  0  0
 17 18  1  0  0  0  0
 17 19  1  0  0  0  0
 17 36  1  0  0  0  0
 18 37  1  0  0  0  0
 18 38  1  0  0  0  0
 18 39  1  0  0  0  0
 19 40  1  0  0  0  0
 19 41  1  0  0  0  0
M  CHG  1   7   1
M  END
> <s_m_source_file>
AV-unprocessed.smi

> <i_m_source_file_index>
1419

> <i_lp_mmshare_version>
43012

> <i_f3d_flags>
0

> <s_epik_input>
W2NIXTFuW2NIXVtjSF1uMVtDSDJdW0NAQEhdKFtDSDNdKVtOSF1DKD1PKU4yW0NIMl1bQ0BASF0oW0NIM10pT1tDQEBIXShbQ0gzXSlbQ0gyXTI=

> <s_epik_cmdline>
J2VwaWtfcHl0aG9uJywgJy1waCcsICc3LjAnLCAnLXRuJywgJzgnLCAnLW1hJywgJzIwMCcsICctbWV0YWxfYmluZGluZycsICctaW1hZScsICc8aW5maWxlLm1hZT4nLCAnLW9tYWUnLCAnPG91dGZpbGUubWFlPic=

> <r_lp_tautomer_probability>
1

> <r_epik_Ionization_Penalty>
0.253607

> <r_epik_Ionization_Penalty_Charging>
0

> <r_epik_Ionization_Penalty_Neutral>
0.253607

> <r_epik_State_Penalty>
0.245018

> <r_epik_Charging_Adjusted_Penalty>
0.245018

> <i_epik_Tot_Q>
1

> <i_epik_Tot_abs_Q>
1

> <r_epik_Metal_State_Penalty>
0.535379

> <b_epik_Metal_Only>
0

> <s_lp_Force_Field>
OPLS_2005

> <r_lp_Energy>
31.638

> <b_lp_Chiralities_Consistent>
1

> <s_lp_Variant>
AV-unprocessed.smi:1419-5

> <Gold.Version>
5.8.1

> <Gold.Id.Protein>
6NUR|6NUR_protein|mol2

> <Gold.PLP.Fitness>
51.3693

> <Gold.PLP.PLP>
-46.0028

> <Gold.PLP.part.hbond>
-2.0000

> <Gold.PLP.part.metal>
0.0000

> <Gold.PLP.part.buried>
-3.0040

> <Gold.PLP.part.nonpolar>
-40.8724

> <Gold.PLP.part.repulsive>
0.2758

> <Gold.PLP.ligand.clash>
0.0000

> <Gold.PLP.ligand.torsion>
0.3355

> <Gold.PLP.Chemscore.Hbond>
2.0000

> <Gold.PLP.Chemscore.CHOScore>
0.0000

> <Gold.PLP.Chemscore.Metal>
0.0000

> <Gold.Chemscore.Hbonds>
donor molecule, donor type, donor heavy atom, donor atom, acceptor molecule, acceptor atom, score
      L1  H     7    42       P1  7948  2.00

> <Gold.PLP.Chemscore.Internal.Correction>
0.0374

> <Gold.Rescore>
     Score         DG    S(hbond)    S(metal)    S(lipo)     H(rot)  DE(clash)    DE(int)     intcor
     13.73     -15.80       0.99        0.00      95.46       1.63       0.30       1.77       ----

> <Gold.Chemscore.Fitness>
13.7326

> <Gold.Chemscore.DG>
-15.8000

> <Gold.Chemscore.ZeroCoef>
-5.4800

> <Gold.Chemscore.Hbond>
0.9930

> <Gold.Chemscore.Metal>
0.0000

> <Gold.Chemscore.Lipo>
95.4649

> <Gold.Chemscore.Internal_Hbond>
0.0000

> <Gold.Chemscore.DEClash>
0.2972

> <Gold.Chemscore.DEInternal>
1.7702

> <Gold.Chemscore.Rot>
1.6273

> <Gold.Chemscore.Internal.Correction>
   9.000000E+99

> <Gold.Chemscore.Hbonds>
donor molecule, donor type, donor heavy atom, donor atom, acceptor molecule, acceptor atom, score
      L1  H     7    42       P1  7948  1.00

> <Gold.Chemscore.Hbond.Weighted>
-3.3165

> <Gold.Chemscore.Metal.Weighted>
-0.0000

> <Gold.Chemscore.Lipo.Weighted>
-11.1694

> <Gold.Chemscore.Internal_Hbond.Weighted>
0.0000

> <Gold.Chemscore.DEClash.Weighted>
0.2972

> <Gold.Chemscore.DEInternal.Weighted>
1.7702

> <Gold.Chemscore.Rot.Weighted>
4.1658

> <Gold.Chemscore.Internal.Correction.Weighted>
   9.000000E+99

> <Gold.Protein.RotatedTorsions>
[ 6907 6896 6895 6894 ] final  141.25 input  -60.11 | X-H torsion
[ 7974 7965 7964 7962 ] final  118.10 input  175.53 | X-H torsion
[ 8008 7997 7996 7995 ] final -122.53 input   59.86 | X-H torsion
[ 10167 10162 10161 10158 ] final   52.89 input  -65.29 | X-H torsion
[ 10718 10713 10712 10709 ] final  -64.94 input   66.30 | X-H torsion
[ 10763 10752 10751 10750 ] final   52.00 input  -60.55 | X-H torsion
[ 11005 11000 10999 10996 ] final  170.32 input  -57.11 | X-H torsion

> <Gold.Protein.ActiveResidues>
 VAL166  LYS551  ARG553  GLY616  TRP617  ASP618  TYR619  PRO620  LYS621  CYS622 
 ASP623  PHE694  ASN695  SER759  ASP760  ASP761  ALA762  ILE779  LEU786  VAL792 
 PHE793  MET794  SER795  GLU796  ALA797  LYS798  CYS799  TRP800  GLU811  SER814 

> <Gold.Protein.RotatedAtoms>
  152.2332  133.5075  159.5227 H   0  0  0  0  0  0  0  0  0  0  0  0  # atno 6907 bound_to 6896
  150.7043  134.1188  159.4036 H   0  0  0  0  0  0  0  0  0  0  0  0  # atno 6908 bound_to 6896
  151.9109  135.0339  160.0565 H   0  0  0  0  0  0  0  0  0  0  0  0  # atno 6909 bound_to 6896
  145.1593  139.3164  143.4525 H   0  0  0  0  0  0  0  0  0  0  0  0  # atno 7974 bound_to 7965
  155.1657  140.0407  157.2852 H   0  0  0  0  0  0  0  0  0  0  0  0  # atno 8008 bound_to 7997
  154.6305  140.2523  155.7413 H   0  0  0  0  0  0  0  0  0  0  0  0  # atno 8009 bound_to 7997
  156.2482  140.2876  156.0654 H   0  0  0  0  0  0  0  0  0  0  0  0  # atno 8010 bound_to 7997
  140.2466  144.3525  150.6362 H   0  0  0  0  0  0  0  0  0  0  0  0  # atno 10167 bound_to 10162
  156.0699  130.4240  150.1492 H   0  0  0  0  0  0  0  0  0  0  0  0  # atno 10718 bound_to 10713
  152.9787  135.5827  154.4507 H   0  0  0  0  0  0  0  0  0  0  0  0  # atno 10763 bound_to 10752
  154.4096  135.2770  155.2047 H   0  0  0  0  0  0  0  0  0  0  0  0  # atno 10764 bound_to 10752
  154.3842  135.6140  153.5862 H   0  0  0  0  0  0  0  0  0  0  0  0  # atno 10765 bound_to 10752
  140.3071  134.7547  157.3962 H   0  0  0  0  0  0  0  0  0  0  0  0  # atno 11005 bound_to 11000
  146.3484  140.1698  142.8590 LP  0  0  0  0  0  0  0  0  0  0  0  0  # atno 17320 bound_to 7965
  145.0347  140.8899  143.5088 LP  0  0  0  0  0  0  0  0  0  0  0  0  # atno 17321 bound_to 7965
  140.6073  143.2168  151.6956 LP  0  0  0  0  0  0  0  0  0  0  0  0  # atno 17342 bound_to 10162
  139.5060  144.3698  152.0481 LP  0  0  0  0  0  0  0  0  0  0  0  0  # atno 17343 bound_to 10162
  156.9545  130.9785  151.3491 LP  0  0  0  0  0  0  0  0  0  0  0  0  # atno 17370 bound_to 10713
  157.5763  130.8345  149.8461 LP  0  0  0  0  0  0  0  0  0  0  0  0  # atno 17371 bound_to 10713
  140.1057  134.5413  155.8311 LP  0  0  0  0  0  0  0  0  0  0  0  0  # atno 17394 bound_to 11000
  141.2116  133.6708  156.6594 LP  0  0  0  0  0  0  0  0  0  0  0  0  # atno 17395 bound_to 11000

$$$$
