AV-unprocessed.smi:2751|AV-procd|sdf|10603|dock5
  -GOLD-   2272015 53D 1   1.00000     0.00000
 Structure written by MMmdl.
 33 34  0  0  0  0  0  0  0  0  2 V2000
  151.7577  139.6033  155.1822 O   0  0  0  0  0  0  0  0  0  0  0  0
  150.5664  139.8312  155.4063 C   0  0  0  0  0  0  0  0  0  0  0  0
  150.1992  140.3818  156.5728 N   0  0  0  0  0  0  0  0  0  0  0  0
  151.0960  140.7586  157.6604 C   0  0  0  0  0  0  0  0  0  0  0  0
  150.7838  142.1692  158.1891 C   0  0  0  0  0  0  0  0  0  0  0  0
  151.8265  142.6726  159.1997 C   0  0  2  0  0  0  0  0  0  0  0  0
  152.3721  141.5322  160.0812 C   0  0  0  0  0  0  0  0  0  0  0  0
  153.3531  142.0788  161.1248 C   0  0  0  0  0  0  0  0  0  0  0  0
  152.6920  143.2172  161.9091 C   0  0  0  0  0  0  0  0  0  0  0  0
  152.1227  144.2698  160.9448 C   0  0  0  0  0  0  0  0  0  0  0  0
  151.2153  143.6543  160.0358 O   0  0  0  0  0  0  0  0  0  0  0  0
  149.5318  139.5771  154.5734 N   0  5  0  0  0  0  0  0  0  0  0  0
  148.6748  140.5599  154.2528 C   0  0  0  0  0  0  0  0  0  0  0  0
  148.9873  141.8344  154.0115 N   0  0  0  0  0  0  0  0  0  0  0  0
  147.7884  142.4726  153.7332 C   0  0  0  0  0  0  0  0  0  0  0  0
  146.7876  141.5442  153.8250 C   0  0  0  0  0  0  0  0  0  0  0  0
  147.3333  140.3354  154.1575 O   0  0  0  0  0  0  0  0  0  0  0  0
  149.2142  140.5519  156.7145 H   0  0  0  0  0  0  0  0  0  0  0  0
  151.0383  140.0244  158.4657 H   0  0  0  0  0  0  0  0  0  0  0  0
  152.1168  140.7200  157.2800 H   0  0  0  0  0  0  0  0  0  0  0  0
  150.7126  142.8686  157.3552 H   0  0  0  0  0  0  0  0  0  0  0  0
  149.8034  142.1622  158.6672 H   0  0  0  0  0  0  0  0  0  0  0  0
  152.6522  143.1306  158.6520 H   0  0  0  0  0  0  0  0  0  0  0  0
  151.5460  141.0289  160.5857 H   0  0  0  0  0  0  0  0  0  0  0  0
  152.8663  140.7804  159.4649 H   0  0  0  0  0  0  0  0  0  0  0  0
  153.6721  141.2853  161.8007 H   0  0  0  0  0  0  0  0  0  0  0  0
  154.2504  142.4481  160.6267 H   0  0  0  0  0  0  0  0  0  0  0  0
  151.8869  142.8173  162.5267 H   0  0  0  0  0  0  0  0  0  0  0  0
  153.4109  143.6757  162.5886 H   0  0  0  0  0  0  0  0  0  0  0  0
  151.5923  145.0411  161.5031 H   0  0  0  0  0  0  0  0  0  0  0  0
  152.9228  144.7682  160.3955 H   0  0  0  0  0  0  0  0  0  0  0  0
  147.7431  143.5248  153.4950 H   0  0  0  0  0  0  0  0  0  0  0  0
  145.7162  141.5765  153.6964 H   0  0  0  0  0  0  0  0  0  0  0  0
  1  2  2  0  0  0  0
  2 12  1  0  0  0  0
  2  3  1  0  0  0  0
  3  4  1  0  0  0  0
  3 18  1  0  0  0  0
  4  5  1  0  0  0  0
  4 19  1  0  0  0  0
  4 20  1  0  0  0  0
  5  6  1  0  0  0  0
  5 21  1  0  0  0  0
  5 22  1  0  0  0  0
  6 11  1  0  0  0  0
  6  7  1  0  0  0  0
  6 23  1  0  0  0  0
  7  8  1  0  0  0  0
  7 24  1  0  0  0  0
  7 25  1  0  0  0  0
  8  9  1  0  0  0  0
  8 26  1  0  0  0  0
  8 27  1  0  0  0  0
  9 10  1  0  0  0  0
  9 28  1  0  0  0  0
  9 29  1  0  0  0  0
 10 11  1  0  0  0  0
 10 30  1  0  0  0  0
 10 31  1  0  0  0  0
 12 13  1  0  0  0  0
 13 17  1  0  0  0  0
 13 14  2  0  0  0  0
 14 15  1  0  0  0  0
 15 32  1  0  0  0  0
 15 16  2  0  0  0  0
 16 33  1  0  0  0  0
 16 17  1  0  0  0  0
M  CHG  1  12  -1
M  END
> <s_m_source_file>
AV-unprocessed.smi

> <i_m_source_file_index>
2751

> <i_lp_mmshare_version>
43012

> <i_f3d_flags>
0

> <s_epik_input>
bzFbY0hdW2NIXW5jMVtOSF1DKD1PKVtOSF1bQ0gyXVtDSDJdW0NAQEhdMltDSDJdW0NIMl1bQ0gyXVtDSDJdTzI=

> <s_epik_cmdline>
J2VwaWtfcHl0aG9uJywgJy1waCcsICc3LjAnLCAnLXRuJywgJzgnLCAnLW1hJywgJzIwMCcsICctbWV0YWxfYmluZGluZycsICctaW1hZScsICc8aW5maWxlLm1hZT4nLCAnLW9tYWUnLCAnPG91dGZpbGUubWFlPic=

> <r_lp_tautomer_probability>
0.107061

> <r_epik_Ionization_Penalty>
11.077

> <r_epik_Ionization_Penalty_Charging>
7.79122

> <r_epik_Ionization_Penalty_Neutral>
3.28583

> <r_epik_State_Penalty>
5.8984

> <r_epik_Charging_Adjusted_Penalty>
13.6896

> <i_epik_Tot_Q>
-1

> <i_epik_Tot_abs_Q>
1

> <r_epik_Metal_State_Penalty>
1.82322

> <b_epik_Metal_Only>
1

> <s_lp_Force_Field>
OPLS_2005

> <r_lp_Energy>
3.95886

> <b_lp_Chiralities_Consistent>
1

> <s_lp_Variant>
AV-unprocessed.smi:2751-9

> <Gold.Version>
5.8.1

> <Gold.Id.Protein>
6NUR|6NUR_protein|mol2

> <Gold.PLP.Fitness>
41.5480

> <Gold.PLP.PLP>
-36.0863

> <Gold.PLP.part.hbond>
-2.5724

> <Gold.PLP.part.metal>
0.0000

> <Gold.PLP.part.buried>
-5.2724

> <Gold.PLP.part.nonpolar>
-28.6440

> <Gold.PLP.part.repulsive>
0.8717

> <Gold.PLP.ligand.clash>
0.0000

> <Gold.PLP.ligand.torsion>
1.1519

> <Gold.PLP.Chemscore.Hbond>
1.1970

> <Gold.PLP.Chemscore.CHOScore>
1.3869

> <Gold.PLP.Chemscore.Metal>
0.0000

> <Gold.Chemscore.Hbonds>
donor molecule, donor type, donor heavy atom, donor atom, acceptor molecule, acceptor atom, score
      P1  H  7989  7998       L1     1  0.41
      P1  H  8011  8017       L1    14  0.31
      L1  C    15    32       P1  8028  0.34
      L1  C    16    33       P1 10175  0.77

> <Gold.PLP.Chemscore.Internal.Correction>
0.0136

> <Gold.Rescore>
     Score         DG    S(hbond)    S(metal)    S(lipo)     H(rot)  DE(clash)    DE(int)     intcor
     12.31     -13.34       0.79        0.00      79.77       1.60       0.03       1.01       ----

> <Gold.Chemscore.Fitness>
12.3071

> <Gold.Chemscore.DG>
-13.3427

> <Gold.Chemscore.ZeroCoef>
-5.4800

> <Gold.Chemscore.Hbond>
0.7897

> <Gold.Chemscore.Metal>
0.0000

> <Gold.Chemscore.Lipo>
79.7723

> <Gold.Chemscore.Internal_Hbond>
0.0000

> <Gold.Chemscore.DEClash>
0.0280

> <Gold.Chemscore.DEInternal>
1.0076

> <Gold.Chemscore.Rot>
1.6048

> <Gold.Chemscore.Internal.Correction>
   9.000000E+99

> <Gold.Chemscore.Hbonds>
donor molecule, donor type, donor heavy atom, donor atom, acceptor molecule, acceptor atom, score
      P1  H  7989  7998       L1     1  0.02
      P1  H  8011  8017       L1    14  0.02

> <Gold.Chemscore.Hbond.Weighted>
-2.6375

> <Gold.Chemscore.Metal.Weighted>
-0.0000

> <Gold.Chemscore.Lipo.Weighted>
-9.3334

> <Gold.Chemscore.Internal_Hbond.Weighted>
0.0000

> <Gold.Chemscore.DEClash.Weighted>
0.0280

> <Gold.Chemscore.DEInternal.Weighted>
1.0076

> <Gold.Chemscore.Rot.Weighted>
4.1082

> <Gold.Chemscore.Internal.Correction.Weighted>
   9.000000E+99

> <Gold.Protein.RotatedTorsions>
[ 6907 6896 6895 6894 ] final   85.72 input  -60.11 | X-H torsion
[ 7974 7965 7964 7962 ] final  -47.52 input  175.53 | X-H torsion
[ 8008 7997 7996 7995 ] final  -12.55 input   59.86 | X-H torsion
[ 10167 10162 10161 10158 ] final -156.61 input  -65.29 | X-H torsion
[ 10718 10713 10712 10709 ] final  -32.74 input   66.30 | X-H torsion
[ 10763 10752 10751 10750 ] final  -92.84 input  -60.55 | X-H torsion
[ 11005 11000 10999 10996 ] final   31.62 input  -57.11 | X-H torsion

> <Gold.Protein.ActiveResidues>
 VAL166  LYS551  ARG553  GLY616  TRP617  ASP618  TYR619  PRO620  LYS621  CYS622 
 ASP623  PHE694  ASN695  SER759  ASP760  ASP761  ALA762  ILE779  LEU786  VAL792 
 PHE793  MET794  SER795  GLU796  ALA797  LYS798  CYS799  TRP800  GLU811  SER814 

> <Gold.Protein.RotatedAtoms>
  152.5380  134.2542  159.8910 H   0  0  0  0  0  0  0  0  0  0  0  0  # atno 6907 bound_to 6896
  151.2504  133.4346  159.2619 H   0  0  0  0  0  0  0  0  0  0  0  0  # atno 6908 bound_to 6896
  151.0544  134.9709  159.8284 H   0  0  0  0  0  0  0  0  0  0  0  0  # atno 6909 bound_to 6896
  145.9608  140.7481  142.9458 H   0  0  0  0  0  0  0  0  0  0  0  0  # atno 7974 bound_to 7965
  154.5368  140.2273  155.8710 H   0  0  0  0  0  0  0  0  0  0  0  0  # atno 8008 bound_to 7997
  156.1819  140.3098  155.9127 H   0  0  0  0  0  0  0  0  0  0  0  0  # atno 8009 bound_to 7997
  155.3339  140.0447  157.3034 H   0  0  0  0  0  0  0  0  0  0  0  0  # atno 8010 bound_to 7997
  139.6836  143.9539  152.2350 H   0  0  0  0  0  0  0  0  0  0  0  0  # atno 10167 bound_to 10162
  156.3712  130.4340  149.7544 H   0  0  0  0  0  0  0  0  0  0  0  0  # atno 10718 bound_to 10713
  154.6901  135.5216  153.8380 H   0  0  0  0  0  0  0  0  0  0  0  0  # atno 10763 bound_to 10752
  153.0626  135.6573  154.0437 H   0  0  0  0  0  0  0  0  0  0  0  0  # atno 10764 bound_to 10752
  154.0313  135.2985  155.3348 H   0  0  0  0  0  0  0  0  0  0  0  0  # atno 10765 bound_to 10752
  140.2819  134.2963  155.7798 H   0  0  0  0  0  0  0  0  0  0  0  0  # atno 11005 bound_to 11000
  144.6814  140.2587  143.7322 LP  0  0  0  0  0  0  0  0  0  0  0  0  # atno 17320 bound_to 7965
  145.8043  139.1977  143.2030 LP  0  0  0  0  0  0  0  0  0  0  0  0  # atno 17321 bound_to 7965
  139.9336  144.6726  150.8338 LP  0  0  0  0  0  0  0  0  0  0  0  0  # atno 17342 bound_to 10162
  140.7660  143.3292  151.2448 LP  0  0  0  0  0  0  0  0  0  0  0  0  # atno 17343 bound_to 10162
  156.4671  130.7979  151.2998 LP  0  0  0  0  0  0  0  0  0  0  0  0  # atno 17370 bound_to 10713
  157.7484  131.0047  150.3088 LP  0  0  0  0  0  0  0  0  0  0  0  0  # atno 17371 bound_to 10713
  141.2161  133.7531  156.9494 LP  0  0  0  0  0  0  0  0  0  0  0  0  # atno 17394 bound_to 11000
  140.1275  134.9377  157.2291 LP  0  0  0  0  0  0  0  0  0  0  0  0  # atno 17395 bound_to 11000

$$$$
