AV-unprocessed.smi:1958|AV-procd|sdf|7911|dock5
  -GOLD-   2272010 73D 1   1.00000     0.00000
 Structure written by MMmdl.
 47 48  0  0  0  0  0  0  0  0  3 V2000
  152.0275  144.7360  158.9758 C   0  0  0  0  0  0  0  0  0  0  0  0
  153.0115  143.7384  159.1855 O   0  0  0  0  0  0  0  0  0  0  0  0
  152.4628  142.5332  159.6913 C   0  0  0  0  0  0  0  0  0  0  0  0
  151.9722  141.6776  158.5136 C   0  0  0  0  0  0  0  0  0  0  0  0
  152.0524  140.2453  158.8173 N   0  0  0  0  0  0  0  0  0  0  0  0
  150.8382  139.5846  158.7422 N   0  0  0  0  0  0  0  0  0  0  0  0
  150.7658  138.3159  158.9889 C   0  0  0  0  0  0  0  0  0  0  0  0
  149.4609  137.5843  158.9248 C   0  0  0  0  0  0  0  0  0  0  0  0
  148.4699  138.2575  158.6124 O   0  0  0  0  0  0  0  0  0  0  0  0
  149.4623  136.2449  159.2026 N   0  5  0  0  0  0  0  0  0  0  0  0
  148.3680  135.3170  158.9123 C   0  0  0  0  0  0  0  0  0  0  0  0
  147.0416  135.8048  159.5584 C   0  0  1  0  0  0  0  0  0  0  0  0
  145.7637  135.3253  158.8242 C   0  0  0  0  0  0  0  0  0  0  0  0
  147.0222  135.4959  161.0222 N   0  3  0  0  0  0  0  0  0  0  0  0
  146.9950  134.0418  161.3188 C   0  0  0  0  0  0  0  0  0  0  0  0
  146.7942  133.8074  162.8256 C   0  0  0  0  0  0  0  0  0  0  0  0
  147.8168  134.4702  163.5589 O   0  0  0  0  0  0  0  0  0  0  0  0
  147.7983  135.8767  163.3473 C   0  0  0  0  0  0  0  0  0  0  0  0
  148.0516  136.1724  161.8606 C   0  0  0  0  0  0  0  0  0  0  0  0
  151.9616  137.5641  159.3446 C   0  0  0  0  0  0  0  0  0  0  0  0
  153.1400  138.2215  159.4083 C   0  0  0  0  0  0  0  0  0  0  0  0
  153.2436  139.6548  159.1323 C   0  0  0  0  0  0  0  0  0  0  0  0
  154.3068  140.2735  159.1771 O   0  0  0  0  0  0  0  0  0  0  0  0
  152.4991  145.6413  158.5940 H   0  0  0  0  0  0  0  0  0  0  0  0
  151.5169  144.9885  159.9058 H   0  0  0  0  0  0  0  0  0  0  0  0
  151.2855  144.4100  158.2458 H   0  0  0  0  0  0  0  0  0  0  0  0
  153.2184  141.9895  160.2609 H   0  0  0  0  0  0  0  0  0  0  0  0
  151.6372  142.7575  160.3687 H   0  0  0  0  0  0  0  0  0  0  0  0
  150.9494  141.9535  158.2511 H   0  0  0  0  0  0  0  0  0  0  0  0
  152.5696  141.9037  157.6283 H   0  0  0  0  0  0  0  0  0  0  0  0
  148.2196  135.2046  157.8382 H   0  0  0  0  0  0  0  0  0  0  0  0
  148.5889  134.3113  159.2738 H   0  0  0  0  0  0  0  0  0  0  0  0
  147.0553  136.8930  159.4774 H   0  0  0  0  0  0  0  0  0  0  0  0
  145.7209  135.6978  157.7991 H   0  0  0  0  0  0  0  0  0  0  0  0
  144.8676  135.6942  159.3232 H   0  0  0  0  0  0  0  0  0  0  0  0
  145.6874  134.2375  158.7759 H   0  0  0  0  0  0  0  0  0  0  0  0
  146.1839  133.5604  160.7709 H   0  0  0  0  0  0  0  0  0  0  0  0
  147.9259  133.5803  160.9866 H   0  0  0  0  0  0  0  0  0  0  0  0
  145.8135  134.1619  163.1467 H   0  0  0  0  0  0  0  0  0  0  0  0
  146.8348  132.7412  163.0480 H   0  0  0  0  0  0  0  0  0  0  0  0
  146.8450  136.2962  163.6732 H   0  0  0  0  0  0  0  0  0  0  0  0
  148.5748  136.3356  163.9595 H   0  0  0  0  0  0  0  0  0  0  0  0
  149.0488  135.8218  161.5916 H   0  0  0  0  0  0  0  0  0  0  0  0
  148.0352  137.2502  161.6969 H   0  0  0  0  0  0  0  0  0  0  0  0
  151.9228  136.5052  159.5538 H   0  0  0  0  0  0  0  0  0  0  0  0
  154.0334  137.6746  159.6706 H   0  0  0  0  0  0  0  0  0  0  0  0
  146.1298  135.8458  161.3414 H   0  0  0  0  0  0  0  0  0  0  0  0
  1  2  1  0  0  0  0
  1 24  1  0  0  0  0
  1 25  1  0  0  0  0
  1 26  1  0  0  0  0
  2  3  1  0  0  0  0
  3  4  1  0  0  0  0
  3 27  1  0  0  0  0
  3 28  1  0  0  0  0
  4  5  1  0  0  0  0
  4 29  1  0  0  0  0
  4 30  1  0  0  0  0
  5 22  1  0  0  0  0
  5  6  1  0  0  0  0
  6  7  2  0  0  0  0
  7  8  1  0  0  0  0
  7 20  1  0  0  0  0
  8  9  2  0  0  0  0
  8 10  1  0  0  0  0
 10 11  1  0  0  0  0
 11 12  1  0  0  0  0
 11 31  1  0  0  0  0
 11 32  1  0  0  0  0
 12 13  1  0  0  0  0
 12 14  1  0  0  0  0
 12 33  1  0  0  0  0
 13 34  1  0  0  0  0
 13 35  1  0  0  0  0
 13 36  1  0  0  0  0
 14 19  1  0  0  0  0
 14 15  1  0  0  0  0
 14 47  1  0  0  0  0
 15 16  1  0  0  0  0
 15 37  1  0  0  0  0
 15 38  1  0  0  0  0
 16 17  1  0  0  0  0
 16 39  1  0  0  0  0
 16 40  1  0  0  0  0
 17 18  1  0  0  0  0
 18 19  1  0  0  0  0
 18 41  1  0  0  0  0
 18 42  1  0  0  0  0
 19 43  1  0  0  0  0
 19 44  1  0  0  0  0
 20 21  2  0  0  0  0
 20 45  1  0  0  0  0
 21 22  1  0  0  0  0
 21 46  1  0  0  0  0
 22 23  2  0  0  0  0
M  CHG  1  10  -1
M  CHG  1  14   1
M  END
> <s_m_source_file>
AV-unprocessed.smi

> <i_m_source_file_index>
1958

> <i_lp_mmshare_version>
43012

> <i_f3d_flags>
0

> <s_epik_input>
W0NIM11PW0NIMl1bQ0gyXW4xbmMoW2NIXVtjSF1jMT1PKUMoPU8pW05IXVtDSDJdW0NASF0oW0NIM10pTjJbQ0gyXVtDSDJdT1tDSDJdW0NIMl0y

> <s_epik_cmdline>
J2VwaWtfcHl0aG9uJywgJy1waCcsICc3LjAnLCAnLXRuJywgJzgnLCAnLW1hJywgJzIwMCcsICctbWV0YWxfYmluZGluZycsICctaW1hZScsICc8aW5maWxlLm1hZT4nLCAnLW9tYWUnLCAnPG91dGZpbGUubWFlPic=

> <r_lp_tautomer_probability>
1

> <r_epik_Ionization_Penalty>
6.89388

> <r_epik_Ionization_Penalty_Charging>
6.89388

> <r_epik_Ionization_Penalty_Neutral>
1.08445e-11

> <r_epik_State_Penalty>
7.53214

> <r_epik_Charging_Adjusted_Penalty>
14.426

> <i_epik_Tot_Q>
0

> <i_epik_Tot_abs_Q>
2

> <r_epik_Metal_State_Penalty>
3.44743

> <b_epik_Metal_Only>
1

> <s_lp_Force_Field>
OPLS_2005

> <r_lp_Energy>
43.2643

> <b_lp_Chiralities_Consistent>
1

> <s_lp_Variant>
AV-unprocessed.smi:1958-6

> <Gold.Version>
5.8.1

> <Gold.Id.Protein>
6NUR|6NUR_protein|mol2

> <Gold.PLP.Fitness>
47.3497

> <Gold.PLP.PLP>
-39.6093

> <Gold.PLP.part.hbond>
-3.1268

> <Gold.PLP.part.metal>
0.0000

> <Gold.PLP.part.buried>
-6.1979

> <Gold.PLP.part.nonpolar>
-30.5948

> <Gold.PLP.part.repulsive>
0.0578

> <Gold.PLP.ligand.clash>
0.0000

> <Gold.PLP.ligand.torsion>
0.6763

> <Gold.PLP.Chemscore.Hbond>
2.9440

> <Gold.PLP.Chemscore.CHOScore>
0.0000

> <Gold.PLP.Chemscore.Metal>
0.0000

> <Gold.Chemscore.Hbonds>
donor molecule, donor type, donor heavy atom, donor atom, acceptor molecule, acceptor atom, score
      P1  H  6896  6908       L1    10  1.60
      P1  H  7997  8008       L1    23  0.86

> <Gold.PLP.Chemscore.Internal.Correction>
0.2609

> <Gold.Rescore>
     Score         DG    S(hbond)    S(metal)    S(lipo)     H(rot)  DE(clash)    DE(int)     intcor
     12.59     -15.15       1.51        0.00      84.84       2.07       0.23       2.33       ----

> <Gold.Chemscore.Fitness>
12.5905

> <Gold.Chemscore.DG>
-15.1526

> <Gold.Chemscore.ZeroCoef>
-5.4800

> <Gold.Chemscore.Hbond>
1.5085

> <Gold.Chemscore.Metal>
0.0000

> <Gold.Chemscore.Lipo>
84.8428

> <Gold.Chemscore.Internal_Hbond>
0.0000

> <Gold.Chemscore.DEClash>
0.2274

> <Gold.Chemscore.DEInternal>
2.3347

> <Gold.Chemscore.Rot>
2.0673

> <Gold.Chemscore.Internal.Correction>
   9.000000E+99

> <Gold.Chemscore.Hbonds>
donor molecule, donor type, donor heavy atom, donor atom, acceptor molecule, acceptor atom, score
      P1  H  6896  6908       L1    10  0.11
      P1  H  7997  8008       L1    23  0.40

> <Gold.Chemscore.Hbond.Weighted>
-5.0383

> <Gold.Chemscore.Metal.Weighted>
-0.0000

> <Gold.Chemscore.Lipo.Weighted>
-9.9266

> <Gold.Chemscore.Internal_Hbond.Weighted>
0.0000

> <Gold.Chemscore.DEClash.Weighted>
0.2274

> <Gold.Chemscore.DEInternal.Weighted>
2.3347

> <Gold.Chemscore.Rot.Weighted>
5.2923

> <Gold.Chemscore.Internal.Correction.Weighted>
   9.000000E+99

> <Gold.Protein.RotatedTorsions>
[ 6907 6896 6895 6894 ] final -171.81 input  -60.11 | X-H torsion
[ 7974 7965 7964 7962 ] final  153.94 input  175.53 | X-H torsion
[ 8008 7997 7996 7995 ] final -121.58 input   59.86 | X-H torsion
[ 10167 10162 10161 10158 ] final  122.94 input  -65.29 | X-H torsion
[ 10718 10713 10712 10709 ] final   33.10 input   66.30 | X-H torsion
[ 10763 10752 10751 10750 ] final  -65.62 input  -60.55 | X-H torsion
[ 11005 11000 10999 10996 ] final  121.76 input  -57.11 | X-H torsion

> <Gold.Protein.ActiveResidues>
 VAL166  LYS551  ARG553  GLY616  TRP617  ASP618  TYR619  PRO620  LYS621  CYS622 
 ASP623  PHE694  ASN695  SER759  ASP760  ASP761  ALA762  ILE779  LEU786  VAL792 
 PHE793  MET794  SER795  GLU796  ALA797  LYS798  CYS799  TRP800  GLU811  SER814 

> <Gold.Protein.RotatedAtoms>
  151.5299  133.3451  159.2916 H   0  0  0  0  0  0  0  0  0  0  0  0  # atno 6907 bound_to 6896
  150.8600  134.7952  159.7086 H   0  0  0  0  0  0  0  0  0  0  0  0  # atno 6908 bound_to 6896
  152.4622  134.5166  159.9821 H   0  0  0  0  0  0  0  0  0  0  0  0  # atno 6909 bound_to 6896
  144.8121  139.6867  143.6137 H   0  0  0  0  0  0  0  0  0  0  0  0  # atno 7974 bound_to 7965
  155.1502  140.0403  157.2819 H   0  0  0  0  0  0  0  0  0  0  0  0  # atno 8008 bound_to 7997
  154.6409  140.2547  155.7296 H   0  0  0  0  0  0  0  0  0  0  0  0  # atno 8009 bound_to 7997
  156.2532  140.2856  156.0802 H   0  0  0  0  0  0  0  0  0  0  0  0  # atno 8010 bound_to 7997
  139.5828  144.6994  151.3484 H   0  0  0  0  0  0  0  0  0  0  0  0  # atno 10167 bound_to 10162
  157.2936  130.7315  149.6625 H   0  0  0  0  0  0  0  0  0  0  0  0  # atno 10718 bound_to 10713
  154.3478  135.6143  153.5627 H   0  0  0  0  0  0  0  0  0  0  0  0  # atno 10763 bound_to 10752
  152.9800  135.5785  154.4779 H   0  0  0  0  0  0  0  0  0  0  0  0  # atno 10764 bound_to 10752
  154.4494  135.2852  155.1769 H   0  0  0  0  0  0  0  0  0  0  0  0  # atno 10765 bound_to 10752
  139.9239  134.9639  156.8006 H   0  0  0  0  0  0  0  0  0  0  0  0  # atno 11005 bound_to 11000
  146.2421  139.6023  142.9484 LP  0  0  0  0  0  0  0  0  0  0  0  0  # atno 17320 bound_to 7965
  145.5299  141.0427  143.2389 LP  0  0  0  0  0  0  0  0  0  0  0  0  # atno 17321 bound_to 7965
  140.7104  143.7404  150.7557 LP  0  0  0  0  0  0  0  0  0  0  0  0  # atno 17342 bound_to 10162
  140.0941  143.4850  152.2462 LP  0  0  0  0  0  0  0  0  0  0  0  0  # atno 17343 bound_to 10162
  155.9668  130.4301  150.4862 LP  0  0  0  0  0  0  0  0  0  0  0  0  # atno 17370 bound_to 10713
  157.2829  131.0610  151.2185 LP  0  0  0  0  0  0  0  0  0  0  0  0  # atno 17371 bound_to 10713
  140.6392  133.9833  155.7699 LP  0  0  0  0  0  0  0  0  0  0  0  0  # atno 17394 bound_to 11000
  141.0782  134.0102  157.3426 LP  0  0  0  0  0  0  0  0  0  0  0  0  # atno 17395 bound_to 11000

$$$$
