AV-unprocessed.smi:1041|AV-procd|sdf|4533|dock9
  -GOLD-   22720 2553D 1   1.00000     0.00000
 Structure written by MMmdl.
 52 53  0  0  0  0  0  0  0  0  3 V2000
  148.3472  126.5235  151.1927 C   0  0  0  0  0  0  0  0  0  0  0  0
  147.7590  127.8003  151.3706 O   0  0  0  0  0  0  0  0  0  0  0  0
  147.1512  127.9475  152.6434 C   0  0  0  0  0  0  0  0  0  0  0  0
  146.6450  129.3906  152.7888 C   0  0  0  0  0  0  0  0  0  0  0  0
  147.7362  130.3448  153.1122 N   0  3  2  0  0  0  0  0  0  0  0  0
  148.6011  129.8549  154.2153 C   0  0  0  0  0  0  0  0  0  0  0  0
  149.8028  130.7865  154.4326 C   0  0  0  0  0  0  0  0  0  0  0  0
  149.3493  132.2339  154.7164 C   0  0  1  0  0  0  0  0  0  0  0  0
  150.5261  133.2093  154.9264 C   0  0  0  0  0  0  0  0  0  0  0  0
  150.0802  134.4006  155.6370 N   0  0  0  0  0  0  0  0  0  0  0  0
  150.1934  134.6148  156.9562 C   0  0  0  0  0  0  0  0  0  0  0  0
  150.8932  133.9341  157.7054 O   0  0  0  0  0  0  0  0  0  0  0  0
  149.3178  135.7334  157.5189 C   0  0  0  0  0  0  0  0  0  0  0  0
  149.3214  135.8039  159.0464 C   0  0  0  0  0  0  0  0  0  0  0  0
  148.9561  134.7606  159.8453 C   0  0  0  0  0  0  0  0  0  0  0  0
  148.5409  133.4060  159.2990 C   0  0  0  0  0  0  0  0  0  0  0  0
  148.9255  134.8921  161.2439 N   0  0  0  0  0  0  0  0  0  0  0  0
  149.2285  136.0130  161.7781 C   0  0  0  0  0  0  0  0  0  0  0  0
  149.1912  136.1482  163.2853 C   0  0  0  0  0  0  0  0  0  0  0  0
  149.5977  137.1300  161.0630 N   0  5  0  0  0  0  0  0  0  0  0  0
  149.6707  137.0773  159.7029 C   0  0  0  0  0  0  0  0  0  0  0  0
  149.9971  138.0536  159.0287 O   0  0  0  0  0  0  0  0  0  0  0  0
  148.4297  132.6981  153.5749 C   0  0  0  0  0  0  0  0  0  0  0  0
  147.2539  131.7275  153.3726 C   0  0  0  0  0  0  0  0  0  0  0  0
  148.8020  126.4647  150.2040 H   0  0  0  0  0  0  0  0  0  0  0  0
  147.6005  125.7316  151.2672 H   0  0  0  0  0  0  0  0  0  0  0  0
  149.1272  126.3407  151.9329 H   0  0  0  0  0  0  0  0  0  0  0  0
  146.3461  127.2242  152.7732 H   0  0  0  0  0  0  0  0  0  0  0  0
  147.8887  127.7447  153.4214 H   0  0  0  0  0  0  0  0  0  0  0  0
  146.1367  129.7112  151.8782 H   0  0  0  0  0  0  0  0  0  0  0  0
  145.8937  129.4054  153.5799 H   0  0  0  0  0  0  0  0  0  0  0  0
  148.0162  129.7732  155.1329 H   0  0  0  0  0  0  0  0  0  0  0  0
  148.9668  128.8539  153.9826 H   0  0  0  0  0  0  0  0  0  0  0  0
  150.3950  130.3976  155.2604 H   0  0  0  0  0  0  0  0  0  0  0  0
  150.4503  130.7652  153.5549 H   0  0  0  0  0  0  0  0  0  0  0  0
  148.7612  132.2246  155.6359 H   0  0  0  0  0  0  0  0  0  0  0  0
  151.3423  132.7107  155.4513 H   0  0  0  0  0  0  0  0  0  0  0  0
  150.9257  133.5239  153.9621 H   0  0  0  0  0  0  0  0  0  0  0  0
  149.4940  135.0387  155.1171 H   0  0  0  0  0  0  0  0  0  0  0  0
  149.6619  136.6839  157.1111 H   0  0  0  0  0  0  0  0  0  0  0  0
  148.3014  135.6200  157.1398 H   0  0  0  0  0  0  0  0  0  0  0  0
  149.3580  132.9524  158.7376 H   0  0  0  0  0  0  0  0  0  0  0  0
  147.6782  133.5062  158.6406 H   0  0  0  0  0  0  0  0  0  0  0  0
  148.2685  132.7220  160.1038 H   0  0  0  0  0  0  0  0  0  0  0  0
  150.2051  136.1674  163.6856 H   0  0  0  0  0  0  0  0  0  0  0  0
  148.6572  135.3130  163.7409 H   0  0  0  0  0  0  0  0  0  0  0  0
  148.6870  137.0710  163.5744 H   0  0  0  0  0  0  0  0  0  0  0  0
  148.0462  133.6966  153.7878 H   0  0  0  0  0  0  0  0  0  0  0  0
  149.0002  132.7779  152.6483 H   0  0  0  0  0  0  0  0  0  0  0  0
  146.6468  132.0820  152.5407 H   0  0  0  0  0  0  0  0  0  0  0  0
  146.6115  131.7297  154.2547 H   0  0  0  0  0  0  0  0  0  0  0  0
  148.3271  130.3856  152.2937 H   0  0  0  0  0  0  0  0  0  0  0  0
  1  2  1  0  0  0  0
  1 25  1  0  0  0  0
  1 26  1  0  0  0  0
  1 27  1  0  0  0  0
  2  3  1  0  0  0  0
  3  4  1  0  0  0  0
  3 28  1  0  0  0  0
  3 29  1  0  0  0  0
  4  5  1  0  0  0  0
  4 30  1  0  0  0  0
  4 31  1  0  0  0  0
  5 24  1  0  0  0  0
  5  6  1  0  0  0  0
  5 52  1  0  0  0  0
  6  7  1  0  0  0  0
  6 32  1  0  0  0  0
  6 33  1  0  0  0  0
  7  8  1  0  0  0  0
  7 34  1  0  0  0  0
  7 35  1  0  0  0  0
  8  9  1  0  0  0  0
  8 23  1  0  0  0  0
  8 36  1  0  0  0  0
  9 10  1  0  0  0  0
  9 37  1  0  0  0  0
  9 38  1  0  0  0  0
 10 11  1  0  0  0  0
 10 39  1  0  0  0  0
 11 12  2  0  0  0  0
 11 13  1  0  0  0  0
 13 14  1  0  0  0  0
 13 40  1  0  0  0  0
 13 41  1  0  0  0  0
 14 21  1  0  0  0  0
 14 15  2  0  0  0  0
 15 16  1  0  0  0  0
 15 17  1  0  0  0  0
 16 42  1  0  0  0  0
 16 43  1  0  0  0  0
 16 44  1  0  0  0  0
 17 18  2  0  0  0  0
 18 19  1  0  0  0  0
 18 20  1  0  0  0  0
 19 45  1  0  0  0  0
 19 46  1  0  0  0  0
 19 47  1  0  0  0  0
 20 21  1  0  0  0  0
 21 22  2  0  0  0  0
 23 24  1  0  0  0  0
 23 48  1  0  0  0  0
 23 49  1  0  0  0  0
 24 50  1  0  0  0  0
 24 51  1  0  0  0  0
M  CHG  1   5   1
M  CHG  1  20  -1
M  END
> <s_m_source_file>
AV-unprocessed.smi

> <i_m_source_file_index>
1041

> <i_lp_mmshare_version>
43012

> <i_f3d_flags>
0

> <s_epik_input>
W0NIM11PW0NIMl1bQ0gyXU4xW0NIMl1bQ0gyXVtDSF0oW0NIMl1bQ0gyXTEpW0NIMl1bTkhdQyg9TylbQ0gyXWMyYyhbQ0gzXSluYyhbQ0gzXSlbbkhdYzI9Tw==

> <s_epik_cmdline>
J2VwaWtfcHl0aG9uJywgJy1waCcsICc3LjAnLCAnLXRuJywgJzgnLCAnLW1hJywgJzIwMCcsICctbWV0YWxfYmluZGluZycsICctaW1hZScsICc8aW5maWxlLm1hZT4nLCAnLW9tYWUnLCAnPG91dGZpbGUubWFlPic=

> <r_lp_tautomer_probability>
0.839158

> <r_epik_Ionization_Penalty>
6.54961

> <r_epik_Ionization_Penalty_Charging>
0.00968647

> <r_epik_Ionization_Penalty_Neutral>
6.53992

> <r_epik_State_Penalty>
4.43892

> <r_epik_Charging_Adjusted_Penalty>
4.44861

> <i_epik_Tot_Q>
0

> <i_epik_Tot_abs_Q>
2

> <r_epik_Metal_State_Penalty>
0.818645

> <b_epik_Metal_Only>
1

> <s_lp_Force_Field>
OPLS_2005

> <r_lp_Energy>
18.5529

> <b_lp_Chiralities_Consistent>
1

> <s_lp_Variant>
AV-unprocessed.smi:1041-6

> <Gold.Version>
5.8.1

> <Gold.Id.Protein>
6NUR|6NUR_protein|mol2

> <Gold.PLP.Fitness>
56.0387

> <Gold.PLP.PLP>
-42.1011

> <Gold.PLP.part.hbond>
-4.6254

> <Gold.PLP.part.metal>
0.0000

> <Gold.PLP.part.buried>
-6.1321

> <Gold.PLP.part.nonpolar>
-32.3022

> <Gold.PLP.part.repulsive>
0.3862

> <Gold.PLP.ligand.clash>
0.0000

> <Gold.PLP.ligand.torsion>
0.5255

> <Gold.PLP.Chemscore.Hbond>
4.9394

> <Gold.PLP.Chemscore.CHOScore>
0.0000

> <Gold.PLP.Chemscore.Metal>
0.0000

> <Gold.Chemscore.Hbonds>
donor molecule, donor type, donor heavy atom, donor atom, acceptor molecule, acceptor atom, score
      L1  H     5    52       P1 10747  0.71
      P1  H  6896  6908       L1    12  0.56
      P1  H  6931  6943       L1    20  0.99

> <Gold.PLP.Chemscore.Internal.Correction>
0.1704

> <Gold.Rescore>
     Score         DG    S(hbond)    S(metal)    S(lipo)     H(rot)  DE(clash)    DE(int)     intcor
     18.35     -18.96       2.89        0.00      84.11       2.35       0.00       0.61       ----

> <Gold.Chemscore.Fitness>
18.3495

> <Gold.Chemscore.DG>
-18.9576

> <Gold.Chemscore.ZeroCoef>
-5.4800

> <Gold.Chemscore.Hbond>
2.8917

> <Gold.Chemscore.Metal>
0.0000

> <Gold.Chemscore.Lipo>
84.1068

> <Gold.Chemscore.Internal_Hbond>
0.0000

> <Gold.Chemscore.DEClash>
0.0015

> <Gold.Chemscore.DEInternal>
0.6066

> <Gold.Chemscore.Rot>
2.3520

> <Gold.Chemscore.Internal.Correction>
   9.000000E+99

> <Gold.Chemscore.Hbonds>
donor molecule, donor type, donor heavy atom, donor atom, acceptor molecule, acceptor atom, score
      L1  H     5    52       P1 10747  0.62
      P1  H  6896  6908       L1    12  0.52
      P1  H  6931  6943       L1    20  0.19

> <Gold.Chemscore.Hbond.Weighted>
-9.6582

> <Gold.Chemscore.Metal.Weighted>
-0.0000

> <Gold.Chemscore.Lipo.Weighted>
-9.8405

> <Gold.Chemscore.Internal_Hbond.Weighted>
0.0000

> <Gold.Chemscore.DEClash.Weighted>
0.0015

> <Gold.Chemscore.DEInternal.Weighted>
0.6066

> <Gold.Chemscore.Rot.Weighted>
6.0211

> <Gold.Chemscore.Internal.Correction.Weighted>
   9.000000E+99

> <Gold.Protein.RotatedTorsions>
[ 6907 6896 6895 6894 ] final  108.22 input  -60.11 | X-H torsion
[ 7974 7965 7964 7962 ] final  134.47 input  175.53 | X-H torsion
[ 8008 7997 7996 7995 ] final  -78.39 input   59.86 | X-H torsion
[ 10167 10162 10161 10158 ] final    3.77 input  -65.29 | X-H torsion
[ 10718 10713 10712 10709 ] final  131.13 input   66.30 | X-H torsion
[ 10763 10752 10751 10750 ] final   62.88 input  -60.55 | X-H torsion
[ 11005 11000 10999 10996 ] final  -19.13 input  -57.11 | X-H torsion

> <Gold.Protein.ActiveResidues>
 VAL166  LYS551  ARG553  GLY616  TRP617  ASP618  TYR619  PRO620  LYS621  CYS622 
 ASP623  PHE694  ASN695  SER759  ASP760  ASP761  ALA762  ILE779  LEU786  VAL792 
 PHE793  MET794  SER795  GLU796  ALA797  LYS798  CYS799  TRP800  GLU811  SER814 

> <Gold.Protein.RotatedAtoms>
  152.5121  133.9120  159.7492 H   0  0  0  0  0  0  0  0  0  0  0  0  # atno 6907 bound_to 6896
  150.9511  133.6540  159.2778 H   0  0  0  0  0  0  0  0  0  0  0  0  # atno 6908 bound_to 6896
  151.3818  135.0946  159.9551 H   0  0  0  0  0  0  0  0  0  0  0  0  # atno 6909 bound_to 6896
  144.9761  139.4554  143.5409 H   0  0  0  0  0  0  0  0  0  0  0  0  # atno 7974 bound_to 7965
  154.5685  140.0695  156.8928 H   0  0  0  0  0  0  0  0  0  0  0  0  # atno 8008 bound_to 7997
  155.2678  140.3363  155.4249 H   0  0  0  0  0  0  0  0  0  0  0  0  # atno 8009 bound_to 7997
  156.2100  140.1755  156.7702 H   0  0  0  0  0  0  0  0  0  0  0  0  # atno 8010 bound_to 7997
  140.6569  143.7404  150.7669 H   0  0  0  0  0  0  0  0  0  0  0  0  # atno 10167 bound_to 10162
  157.4997  131.1094  150.9444 H   0  0  0  0  0  0  0  0  0  0  0  0  # atno 10718 bound_to 10713
  152.9998  135.5449  154.6263 H   0  0  0  0  0  0  0  0  0  0  0  0  # atno 10763 bound_to 10752
  154.5550  135.2829  155.0975 H   0  0  0  0  0  0  0  0  0  0  0  0  # atno 10764 bound_to 10752
  154.2199  135.6452  153.5194 H   0  0  0  0  0  0  0  0  0  0  0  0  # atno 10765 bound_to 10752
  140.8336  133.7978  155.9785 H   0  0  0  0  0  0  0  0  0  0  0  0  # atno 11005 bound_to 11000
  146.3395  139.9004  142.8795 LP  0  0  0  0  0  0  0  0  0  0  0  0  # atno 17320 bound_to 7965
  145.2489  141.0036  143.3893 LP  0  0  0  0  0  0  0  0  0  0  0  0  # atno 17321 bound_to 7965
  140.1065  143.4738  152.2395 LP  0  0  0  0  0  0  0  0  0  0  0  0  # atno 17342 bound_to 10162
  139.5794  144.7503  151.3680 LP  0  0  0  0  0  0  0  0  0  0  0  0  # atno 17343 bound_to 10162
  157.0119  130.5640  149.5322 LP  0  0  0  0  0  0  0  0  0  0  0  0  # atno 17370 bound_to 10713
  156.0222  130.5316  150.8306 LP  0  0  0  0  0  0  0  0  0  0  0  0  # atno 17371 bound_to 10713
  140.8971  134.2424  157.5062 LP  0  0  0  0  0  0  0  0  0  0  0  0  # atno 17394 bound_to 11000
  139.8704  134.9689  156.4647 LP  0  0  0  0  0  0  0  0  0  0  0  0  # atno 17395 bound_to 11000

$$$$
