AV-unprocessed.smi:2010|AV-procd|sdf|8151|dock7
  -GOLD-   2272010393D 1   1.00000     0.00000
 Structure written by MMmdl.
 40 41  0  0  0  0  0  0  0  0  2 V2000
  151.6586  145.1196  160.2762 C   0  0  0  0  0  0  0  0  0  0  0  0
  152.2314  143.9630  159.4449 C   0  0  0  0  0  0  0  0  0  0  0  0
  151.1210  143.1202  158.8025 C   0  0  0  0  0  0  0  0  0  0  0  0
  151.7032  141.9607  157.9785 C   0  0  0  0  0  0  0  0  0  0  0  0
  152.6072  141.1195  158.7916 N   0  0  0  0  0  0  0  0  0  0  0  0
  152.9701  139.5208  158.2020 S   0  0  0  0  0  0  0  0  0  0  0  0
  154.4055  139.3326  158.4632 O   0  0  0  0  0  0  0  0  0  0  0  0
  152.0360  138.5940  158.8650 O   0  0  0  0  0  0  0  0  0  0  0  0
  152.6509  139.7650  156.6209 N   0  5  0  0  0  0  0  0  0  0  0  0
  151.4065  139.3112  155.9986 C   0  0  2  0  0  0  0  0  0  0  0  0
  151.7520  138.4176  154.7969 C   0  0  0  0  0  0  0  0  0  0  0  0
  150.4909  140.5145  155.6392 C   0  0  0  0  0  0  0  0  0  0  0  0
  149.2276  140.1766  154.9873 N   0  0  0  0  0  0  0  0  0  0  0  0
  148.2456  141.0289  154.5187 C   0  0  0  0  0  0  0  0  0  0  0  0
  147.2648  140.2606  153.9604 C   0  0  0  0  0  0  0  0  0  0  0  0
  147.7467  138.9318  154.1195 C   0  0  0  0  0  0  0  0  0  0  0  0
  148.9239  138.8850  154.7198 N   0  0  0  0  0  0  0  0  0  0  0  0
  153.6851  141.8755  159.4575 C   0  0  0  0  0  0  0  0  0  0  0  0
  153.1193  143.0385  160.2897 C   0  0  0  0  0  0  0  0  0  0  0  0
  151.0324  144.7515  161.0894 H   0  0  0  0  0  0  0  0  0  0  0  0
  151.0493  145.7809  159.6596 H   0  0  0  0  0  0  0  0  0  0  0  0
  152.4563  145.7197  160.7149 H   0  0  0  0  0  0  0  0  0  0  0  0
  152.8416  144.3927  158.6492 H   0  0  0  0  0  0  0  0  0  0  0  0
  150.4617  142.7220  159.5750 H   0  0  0  0  0  0  0  0  0  0  0  0
  150.4996  143.7455  158.1610 H   0  0  0  0  0  0  0  0  0  0  0  0
  150.8921  141.3573  157.5735 H   0  0  0  0  0  0  0  0  0  0  0  0
  152.2577  142.3466  157.1225 H   0  0  0  0  0  0  0  0  0  0  0  0
  150.8355  138.6889  156.6879 H   0  0  0  0  0  0  0  0  0  0  0  0
  150.8482  138.0788  154.2904 H   0  0  0  0  0  0  0  0  0  0  0  0
  152.3010  137.5307  155.1148 H   0  0  0  0  0  0  0  0  0  0  0  0
  152.3694  138.9406  154.0658 H   0  0  0  0  0  0  0  0  0  0  0  0
  150.2422  141.0467  156.5579 H   0  0  0  0  0  0  0  0  0  0  0  0
  151.0254  141.2386  155.0244 H   0  0  0  0  0  0  0  0  0  0  0  0
  148.3254  142.1005  154.6272 H   0  0  0  0  0  0  0  0  0  0  0  0
  146.3450  140.5966  153.5055 H   0  0  0  0  0  0  0  0  0  0  0  0
  147.2823  138.0061  153.8134 H   0  0  0  0  0  0  0  0  0  0  0  0
  154.2507  141.2159  160.1147 H   0  0  0  0  0  0  0  0  0  0  0  0
  154.3794  142.2440  158.7014 H   0  0  0  0  0  0  0  0  0  0  0  0
  153.9410  143.6064  160.7272 H   0  0  0  0  0  0  0  0  0  0  0  0
  152.5434  142.6363  161.1248 H   0  0  0  0  0  0  0  0  0  0  0  0
  1  2  1  0  0  0  0
  1 20  1  0  0  0  0
  1 21  1  0  0  0  0
  1 22  1  0  0  0  0
  2 19  1  0  0  0  0
  2  3  1  0  0  0  0
  2 23  1  0  0  0  0
  3  4  1  0  0  0  0
  3 24  1  0  0  0  0
  3 25  1  0  0  0  0
  4  5  1  0  0  0  0
  4 26  1  0  0  0  0
  4 27  1  0  0  0  0
  5  6  1  0  0  0  0
  5 18  1  0  0  0  0
  6  7  2  0  0  0  0
  6  8  2  0  0  0  0
  6  9  1  0  0  0  0
  9 10  1  0  0  0  0
 10 11  1  0  0  0  0
 10 12  1  0  0  0  0
 10 28  1  0  0  0  0
 11 29  1  0  0  0  0
 11 30  1  0  0  0  0
 11 31  1  0  0  0  0
 12 13  1  0  0  0  0
 12 32  1  0  0  0  0
 12 33  1  0  0  0  0
 13 17  1  0  0  0  0
 13 14  1  0  0  0  0
 14 15  2  0  0  0  0
 14 34  1  0  0  0  0
 15 16  1  0  0  0  0
 15 35  1  0  0  0  0
 16 17  2  0  0  0  0
 16 36  1  0  0  0  0
 18 19  1  0  0  0  0
 18 37  1  0  0  0  0
 18 38  1  0  0  0  0
 19 39  1  0  0  0  0
 19 40  1  0  0  0  0
M  CHG  1   9  -1
M  END
> <s_m_source_file>
AV-unprocessed.smi

> <i_m_source_file_index>
2010

> <i_lp_mmshare_version>
43012

> <i_f3d_flags>
0

> <s_epik_input>
W0NIM11bQ0hdMVtDSDJdW0NIMl1OKFtDSDJdW0NIMl0xKVMoPU8pKD1PKVtOSF1bQ0BIXShbQ0gzXSlbQ0gyXW4yW2NIXVtjSF1bY0hdbjI=

> <s_epik_cmdline>
J2VwaWtfcHl0aG9uJywgJy1waCcsICc3LjAnLCAnLXRuJywgJzgnLCAnLW1hJywgJzIwMCcsICctbWV0YWxfYmluZGluZycsICctaW1hZScsICc8aW5maWxlLm1hZT4nLCAnLW9tYWUnLCAnPG91dGZpbGUubWFlPic=

> <r_lp_tautomer_probability>
1

> <r_epik_Ionization_Penalty>
1.75622

> <r_epik_Ionization_Penalty_Charging>
1.7562

> <r_epik_Ionization_Penalty_Neutral>
2.39925e-05

> <r_epik_State_Penalty>
1.86645

> <r_epik_Charging_Adjusted_Penalty>
3.62264

> <i_epik_Tot_Q>
-1

> <i_epik_Tot_abs_Q>
1

> <r_epik_Metal_State_Penalty>
0.460135

> <b_epik_Metal_Only>
0

> <s_lp_Force_Field>
OPLS_2005

> <r_lp_Energy>
7.98706

> <b_lp_Chiralities_Consistent>
1

> <s_lp_Variant>
AV-unprocessed.smi:2010-3

> <Gold.Version>
5.8.1

> <Gold.Id.Protein>
6NUR|6NUR_protein|mol2

> <Gold.PLP.Fitness>
51.7901

> <Gold.PLP.PLP>
-42.5015

> <Gold.PLP.part.hbond>
-2.0000

> <Gold.PLP.part.metal>
0.0000

> <Gold.PLP.part.buried>
-2.9507

> <Gold.PLP.part.nonpolar>
-36.2257

> <Gold.PLP.part.repulsive>
0.1306

> <Gold.PLP.ligand.clash>
0.0015

> <Gold.PLP.ligand.torsion>
1.0262

> <Gold.PLP.Chemscore.Hbond>
2.2071

> <Gold.PLP.Chemscore.CHOScore>
1.0000

> <Gold.PLP.Chemscore.Metal>
0.0000

> <Gold.Chemscore.Hbonds>
donor molecule, donor type, donor heavy atom, donor atom, acceptor molecule, acceptor atom, score
      P1  H  7997  8009       L1     7  0.42
      P1  H  7997  8010       L1     9  1.50
      L1  C    14    34       P1  8028  0.20

> <Gold.PLP.Chemscore.Internal.Correction>
1.7213

> <Gold.Rescore>
     Score         DG    S(hbond)    S(metal)    S(lipo)     H(rot)  DE(clash)    DE(int)     intcor
     15.30     -16.38       0.75        0.00     105.31       1.54       0.04       1.04       ----

> <Gold.Chemscore.Fitness>
15.2966

> <Gold.Chemscore.DG>
-16.3809

> <Gold.Chemscore.ZeroCoef>
-5.4800

> <Gold.Chemscore.Hbond>
0.7535

> <Gold.Chemscore.Metal>
0.0000

> <Gold.Chemscore.Lipo>
105.3067

> <Gold.Chemscore.Internal_Hbond>
0.0000

> <Gold.Chemscore.DEClash>
0.0424

> <Gold.Chemscore.DEInternal>
1.0419

> <Gold.Chemscore.Rot>
1.5377

> <Gold.Chemscore.Internal.Correction>
   9.000000E+99

> <Gold.Chemscore.Hbonds>
donor molecule, donor type, donor heavy atom, donor atom, acceptor molecule, acceptor atom, score
      P1  H  7997  8009       L1     7  0.41
      P1  H  7997  8010       L1     9  0.09

> <Gold.Chemscore.Hbond.Weighted>
-2.5165

> <Gold.Chemscore.Metal.Weighted>
-0.0000

> <Gold.Chemscore.Lipo.Weighted>
-12.3209

> <Gold.Chemscore.Internal_Hbond.Weighted>
0.0000

> <Gold.Chemscore.DEClash.Weighted>
0.0424

> <Gold.Chemscore.DEInternal.Weighted>
1.0419

> <Gold.Chemscore.Rot.Weighted>
3.9365

> <Gold.Chemscore.Internal.Correction.Weighted>
   9.000000E+99

> <Gold.Protein.RotatedTorsions>
[ 6907 6896 6895 6894 ] final  -22.97 input  -60.11 | X-H torsion
[ 7974 7965 7964 7962 ] final -131.57 input  175.53 | X-H torsion
[ 8008 7997 7996 7995 ] final   88.49 input   59.86 | X-H torsion
[ 10167 10162 10161 10158 ] final   33.48 input  -65.29 | X-H torsion
[ 10718 10713 10712 10709 ] final  -80.19 input   66.30 | X-H torsion
[ 10763 10752 10751 10750 ] final  116.59 input  -60.55 | X-H torsion
[ 11005 11000 10999 10996 ] final  -71.16 input  -57.11 | X-H torsion

> <Gold.Protein.ActiveResidues>
 VAL166  LYS551  ARG553  GLY616  TRP617  ASP618  TYR619  PRO620  LYS621  CYS622 
 ASP623  PHE694  ASN695  SER759  ASP760  ASP761  ALA762  ILE779  LEU786  VAL792 
 PHE793  MET794  SER795  GLU796  ALA797  LYS798  CYS799  TRP800  GLU811  SER814 

> <Gold.Protein.RotatedAtoms>
  151.2108  135.0480  159.8910 H   0  0  0  0  0  0  0  0  0  0  0  0  # atno 6907 bound_to 6896
  152.5425  134.0746  159.8219 H   0  0  0  0  0  0  0  0  0  0  0  0  # atno 6908 bound_to 6896
  151.0900  133.5276  159.2647 H   0  0  0  0  0  0  0  0  0  0  0  0  # atno 6909 bound_to 6896
  144.9367  140.7191  143.4872 H   0  0  0  0  0  0  0  0  0  0  0  0  # atno 7974 bound_to 7965
  155.9884  140.3371  155.6729 H   0  0  0  0  0  0  0  0  0  0  0  0  # atno 8008 bound_to 7997
  155.6454  140.0699  157.2623 H   0  0  0  0  0  0  0  0  0  0  0  0  # atno 8009 bound_to 7997
  154.4212  140.1735  156.1605 H   0  0  0  0  0  0  0  0  0  0  0  0  # atno 8010 bound_to 7997
  140.4404  144.1196  150.6173 H   0  0  0  0  0  0  0  0  0  0  0  0  # atno 10167 bound_to 10162
  156.0075  130.4567  150.3763 H   0  0  0  0  0  0  0  0  0  0  0  0  # atno 10718 bound_to 10713
  153.5395  135.3562  155.2712 H   0  0  0  0  0  0  0  0  0  0  0  0  # atno 10763 bound_to 10752
  154.8719  135.4087  154.3060 H   0  0  0  0  0  0  0  0  0  0  0  0  # atno 10764 bound_to 10752
  153.3765  135.7066  153.6666 H   0  0  0  0  0  0  0  0  0  0  0  0  # atno 10765 bound_to 10752
  141.1587  133.6810  156.6864 H   0  0  0  0  0  0  0  0  0  0  0  0  # atno 11005 bound_to 11000
  145.3056  139.1835  143.4666 LP  0  0  0  0  0  0  0  0  0  0  0  0  # atno 17320 bound_to 7965
  146.3269  140.3053  142.8623 LP  0  0  0  0  0  0  0  0  0  0  0  0  # atno 17321 bound_to 7965
  140.4325  143.2562  151.9577 LP  0  0  0  0  0  0  0  0  0  0  0  0  # atno 17342 bound_to 10162
  139.4789  144.5730  151.8057 LP  0  0  0  0  0  0  0  0  0  0  0  0  # atno 17343 bound_to 10162
  157.1845  131.0400  151.2731 LP  0  0  0  0  0  0  0  0  0  0  0  0  # atno 17370 bound_to 10713
  157.4116  130.7388  149.6843 LP  0  0  0  0  0  0  0  0  0  0  0  0  # atno 17371 bound_to 10713
  140.3064  134.8122  157.4140 LP  0  0  0  0  0  0  0  0  0  0  0  0  # atno 17394 bound_to 11000
  140.1217  134.5211  155.8178 LP  0  0  0  0  0  0  0  0  0  0  0  0  # atno 17395 bound_to 11000

$$$$
