AV-unprocessed.smi:1904|AV-procd|sdf|7724|dock10
  -GOLD-   22720 9463D 1   1.00000     0.00000
 Structure written by MMmdl.
 50 51  0  0  0  0  0  0  0  0  2 V2000
  151.3034  145.3101  159.1908 C   0  0  0  0  0  0  0  0  0  0  0  0
  151.8488  143.9487  159.5153 C   0  0  0  0  0  0  0  0  0  0  0  0
  152.5385  143.7796  160.6307 N   0  0  0  0  0  0  0  0  0  0  0  0
  152.8892  142.4780  160.6251 N   0  0  0  0  0  0  0  0  0  0  0  0
  153.6672  141.9472  161.7273 C   0  0  0  0  0  0  0  0  0  0  0  0
  152.4281  141.8251  159.4984 C   0  0  0  0  0  0  0  0  0  0  0  0
  152.6998  140.3760  159.2512 C   0  0  0  0  0  0  0  0  0  0  0  0
  151.7414  142.7471  158.7539 C   0  0  0  0  0  0  0  0  0  0  0  0
  151.0415  142.5564  157.4320 C   0  0  0  0  0  0  0  0  0  0  0  0
  149.7026  141.8581  157.6662 C   0  0  0  0  0  0  0  0  0  0  0  0
  149.6753  140.7001  158.0831 O   0  0  0  0  0  0  0  0  0  0  0  0
  148.5993  142.5625  157.3708 N   0  0  0  0  0  0  0  0  0  0  0  0
  147.2371  142.0517  157.4557 C   0  0  0  0  0  0  0  0  0  0  0  0
  146.4367  142.7908  158.5455 C   0  0  0  0  0  0  0  0  0  0  0  0
  145.7705  144.0169  158.0382 N   0  3  2  0  0  0  0  0  0  0  0  0
  145.0197  144.7235  159.1083 C   0  0  0  0  0  0  0  0  0  0  0  0
  144.4515  146.0625  158.6047 C   0  0  0  0  0  0  0  0  0  0  0  0
  143.5712  145.8887  157.3540 C   0  0  2  0  0  0  0  0  0  0  0  0
  142.1980  145.2708  157.6717 C   0  0  0  0  0  0  0  0  0  0  0  0
  144.3486  145.0947  156.2889 C   0  0  0  0  0  0  0  0  0  0  0  0
  144.9190  143.7763  156.8427 C   0  0  0  0  0  0  0  0  0  0  0  0
  150.3296  145.2388  158.7068 H   0  0  0  0  0  0  0  0  0  0  0  0
  151.9713  145.8446  158.5153 H   0  0  0  0  0  0  0  0  0  0  0  0
  151.1800  145.9184  160.0876 H   0  0  0  0  0  0  0  0  0  0  0  0
  153.2096  141.0275  162.0924 H   0  0  0  0  0  0  0  0  0  0  0  0
  153.7127  142.6651  162.5475 H   0  0  0  0  0  0  0  0  0  0  0  0
  154.6808  141.7318  161.3885 H   0  0  0  0  0  0  0  0  0  0  0  0
  152.4424  140.0931  158.2308 H   0  0  0  0  0  0  0  0  0  0  0  0
  152.1184  139.7526  159.9305 H   0  0  0  0  0  0  0  0  0  0  0  0
  153.7551  140.1465  159.3999 H   0  0  0  0  0  0  0  0  0  0  0  0
  150.8570  143.5074  156.9319 H   0  0  0  0  0  0  0  0  0  0  0  0
  151.6496  141.9709  156.7411 H   0  0  0  0  0  0  0  0  0  0  0  0
  148.7153  143.5091  157.0379 H   0  0  0  0  0  0  0  0  0  0  0  0
  146.7404  142.1383  156.4878 H   0  0  0  0  0  0  0  0  0  0  0  0
  147.3075  140.9872  157.6758 H   0  0  0  0  0  0  0  0  0  0  0  0
  145.6969  142.1286  158.9986 H   0  0  0  0  0  0  0  0  0  0  0  0
  147.1260  143.0714  159.3435 H   0  0  0  0  0  0  0  0  0  0  0  0
  144.2188  144.0820  159.4790 H   0  0  0  0  0  0  0  0  0  0  0  0
  145.6809  144.9178  159.9537 H   0  0  0  0  0  0  0  0  0  0  0  0
  143.8876  146.5526  159.3992 H   0  0  0  0  0  0  0  0  0  0  0  0
  145.2809  146.7303  158.3676 H   0  0  0  0  0  0  0  0  0  0  0  0
  143.3752  146.8819  156.9475 H   0  0  0  0  0  0  0  0  0  0  0  0
  142.2829  144.2662  158.0844 H   0  0  0  0  0  0  0  0  0  0  0  0
  141.5828  145.2067  156.7737 H   0  0  0  0  0  0  0  0  0  0  0  0
  141.6545  145.8791  158.3953 H   0  0  0  0  0  0  0  0  0  0  0  0
  143.7105  144.8942  155.4276 H   0  0  0  0  0  0  0  0  0  0  0  0
  145.1717  145.7071  155.9179 H   0  0  0  0  0  0  0  0  0  0  0  0
  145.4979  143.2957  156.0552 H   0  0  0  0  0  0  0  0  0  0  0  0
  144.1122  143.0884  157.0990 H   0  0  0  0  0  0  0  0  0  0  0  0
  146.5086  144.6448  157.7531 H   0  0  0  0  0  0  0  0  0  0  0  0
  1  2  1  0  0  0  0
  1 22  1  0  0  0  0
  1 23  1  0  0  0  0
  1 24  1  0  0  0  0
  2  8  1  0  0  0  0
  2  3  2  0  0  0  0
  3  4  1  0  0  0  0
  4  5  1  0  0  0  0
  4  6  1  0  0  0  0
  5 25  1  0  0  0  0
  5 26  1  0  0  0  0
  5 27  1  0  0  0  0
  6  7  1  0  0  0  0
  6  8  2  0  0  0  0
  7 28  1  0  0  0  0
  7 29  1  0  0  0  0
  7 30  1  0  0  0  0
  8  9  1  0  0  0  0
  9 10  1  0  0  0  0
  9 31  1  0  0  0  0
  9 32  1  0  0  0  0
 10 11  2  0  0  0  0
 10 12  1  0  0  0  0
 12 13  1  0  0  0  0
 12 33  1  0  0  0  0
 13 14  1  0  0  0  0
 13 34  1  0  0  0  0
 13 35  1  0  0  0  0
 14 15  1  0  0  0  0
 14 36  1  0  0  0  0
 14 37  1  0  0  0  0
 15 21  1  0  0  0  0
 15 16  1  0  0  0  0
 15 50  1  0  0  0  0
 16 17  1  0  0  0  0
 16 38  1  0  0  0  0
 16 39  1  0  0  0  0
 17 18  1  0  0  0  0
 17 40  1  0  0  0  0
 17 41  1  0  0  0  0
 18 19  1  0  0  0  0
 18 20  1  0  0  0  0
 18 42  1  0  0  0  0
 19 43  1  0  0  0  0
 19 44  1  0  0  0  0
 19 45  1  0  0  0  0
 20 21  1  0  0  0  0
 20 46  1  0  0  0  0
 20 47  1  0  0  0  0
 21 48  1  0  0  0  0
 21 49  1  0  0  0  0
M  CHG  1  15   1
M  END
> <s_m_source_file>
AV-unprocessed.smi

> <i_m_source_file_index>
1904

> <i_lp_mmshare_version>
43012

> <i_f3d_flags>
0

> <s_epik_input>
W0NIM11jMW5uKFtDSDNdKWMoW0NIM10pYzFbQ0gyXUMoPU8pW05IXVtDSDJdW0NIMl1OMltDSDJdW0NIMl1bQ0hdKFtDSDNdKVtDSDJdW0NIMl0y

> <s_epik_cmdline>
J2VwaWtfcHl0aG9uJywgJy1waCcsICc3LjAnLCAnLXRuJywgJzgnLCAnLW1hJywgJzIwMCcsICctbWV0YWxfYmluZGluZycsICctaW1hZScsICc8aW5maWxlLm1hZT4nLCAnLW9tYWUnLCAnPG91dGZpbGUubWFlPic=

> <r_lp_tautomer_probability>
1

> <r_epik_Ionization_Penalty>
0.00374255

> <r_epik_Ionization_Penalty_Charging>
0.00158211

> <r_epik_Ionization_Penalty_Neutral>
0.00216044

> <r_epik_State_Penalty>
-0

> <r_epik_Charging_Adjusted_Penalty>
0.00158211

> <i_epik_Tot_Q>
1

> <i_epik_Tot_abs_Q>
1

> <r_epik_Metal_State_Penalty>
-0

> <b_epik_Metal_Only>
0

> <s_lp_Force_Field>
OPLS_2005

> <r_lp_Energy>
12.0105

> <b_lp_Chiralities_Consistent>
1

> <s_lp_Variant>
AV-unprocessed.smi:1904-2

> <Gold.Version>
5.8.1

> <Gold.Id.Protein>
6NUR|6NUR_protein|mol2

> <Gold.PLP.Fitness>
47.1760

> <Gold.PLP.PLP>
-39.0615

> <Gold.PLP.part.hbond>
-2.0000

> <Gold.PLP.part.metal>
0.0000

> <Gold.PLP.part.buried>
-6.2932

> <Gold.PLP.part.nonpolar>
-31.4569

> <Gold.PLP.part.repulsive>
0.1195

> <Gold.PLP.ligand.clash>
0.0000

> <Gold.PLP.ligand.torsion>
0.4556

> <Gold.PLP.Chemscore.Hbond>
3.0000

> <Gold.PLP.Chemscore.CHOScore>
0.0000

> <Gold.PLP.Chemscore.Metal>
0.0000

> <Gold.Chemscore.Hbonds>
donor molecule, donor type, donor heavy atom, donor atom, acceptor molecule, acceptor atom, score
      L1  H    12    33       P1  8028  1.00
      L1  H    15    50       P1  8029  2.00

> <Gold.PLP.Chemscore.Internal.Correction>
0.0257

> <Gold.Rescore>
     Score         DG    S(hbond)    S(metal)    S(lipo)     H(rot)  DE(clash)    DE(int)     intcor
     15.48     -16.09       1.05        0.00      96.14       1.61       0.07       0.54       ----

> <Gold.Chemscore.Fitness>
15.4797

> <Gold.Chemscore.DG>
-16.0903

> <Gold.Chemscore.ZeroCoef>
-5.4800

> <Gold.Chemscore.Hbond>
1.0463

> <Gold.Chemscore.Metal>
0.0000

> <Gold.Chemscore.Lipo>
96.1369

> <Gold.Chemscore.Internal_Hbond>
0.0000

> <Gold.Chemscore.DEClash>
0.0672

> <Gold.Chemscore.DEInternal>
0.5434

> <Gold.Chemscore.Rot>
1.6142

> <Gold.Chemscore.Internal.Correction>
   9.000000E+99

> <Gold.Chemscore.Hbonds>
donor molecule, donor type, donor heavy atom, donor atom, acceptor molecule, acceptor atom, score
      L1  H    12    33       P1  8028  0.29
      L1  H    15    50       P1  8029  0.25

> <Gold.Chemscore.Hbond.Weighted>
-3.4947

> <Gold.Chemscore.Metal.Weighted>
-0.0000

> <Gold.Chemscore.Lipo.Weighted>
-11.2480

> <Gold.Chemscore.Internal_Hbond.Weighted>
0.0000

> <Gold.Chemscore.DEClash.Weighted>
0.0672

> <Gold.Chemscore.DEInternal.Weighted>
0.5434

> <Gold.Chemscore.Rot.Weighted>
4.1324

> <Gold.Chemscore.Internal.Correction.Weighted>
   9.000000E+99

> <Gold.Protein.RotatedTorsions>
[ 6907 6896 6895 6894 ] final  -47.72 input  -60.11 | X-H torsion
[ 7974 7965 7964 7962 ] final  152.41 input  175.53 | X-H torsion
[ 8008 7997 7996 7995 ] final  -75.14 input   59.86 | X-H torsion
[ 10167 10162 10161 10158 ] final  -76.92 input  -65.29 | X-H torsion
[ 10718 10713 10712 10709 ] final   46.50 input   66.30 | X-H torsion
[ 10763 10752 10751 10750 ] final -113.88 input  -60.55 | X-H torsion
[ 11005 11000 10999 10996 ] final  -63.26 input  -57.11 | X-H torsion

> <Gold.Protein.ActiveResidues>
 VAL166  LYS551  ARG553  GLY616  TRP617  ASP618  TYR619  PRO620  LYS621  CYS622 
 ASP623  PHE694  ASN695  SER759  ASP760  ASP761  ALA762  ILE779  LEU786  VAL792 
 PHE793  MET794  SER795  GLU796  ALA797  LYS798  CYS799  TRP800  GLU811  SER814 

> <Gold.Protein.RotatedAtoms>
  150.8979  134.8389  159.7339 H   0  0  0  0  0  0  0  0  0  0  0  0  # atno 6907 bound_to 6896
  152.4875  134.4547  159.9596 H   0  0  0  0  0  0  0  0  0  0  0  0  # atno 6908 bound_to 6896
  151.4603  133.3555  159.2843 H   0  0  0  0  0  0  0  0  0  0  0  0  # atno 6909 bound_to 6896
  144.8225  139.6664  143.6094 H   0  0  0  0  0  0  0  0  0  0  0  0  # atno 7974 bound_to 7965
  154.5391  140.0749  156.8478 H   0  0  0  0  0  0  0  0  0  0  0  0  # atno 8008 bound_to 7997
  155.3218  140.3396  155.4223 H   0  0  0  0  0  0  0  0  0  0  0  0  # atno 8009 bound_to 7997
  156.1857  140.1668  156.8176 H   0  0  0  0  0  0  0  0  0  0  0  0  # atno 8010 bound_to 7997
  140.4815  143.2401  151.8050 H   0  0  0  0  0  0  0  0  0  0  0  0  # atno 10167 bound_to 10162
  157.4487  130.8125  149.7766 H   0  0  0  0  0  0  0  0  0  0  0  0  # atno 10718 bound_to 10713
  154.8415  135.4438  154.1418 H   0  0  0  0  0  0  0  0  0  0  0  0  # atno 10763 bound_to 10752
  153.2601  135.6935  153.7594 H   0  0  0  0  0  0  0  0  0  0  0  0  # atno 10764 bound_to 10752
  153.6873  135.3393  155.3169 H   0  0  0  0  0  0  0  0  0  0  0  0  # atno 10765 bound_to 10752
  141.1387  133.6650  156.5654 H   0  0  0  0  0  0  0  0  0  0  0  0  # atno 11005 bound_to 11000
  146.2530  139.6241  142.9414 LP  0  0  0  0  0  0  0  0  0  0  0  0  # atno 17320 bound_to 7965
  145.5074  141.0436  143.2507 LP  0  0  0  0  0  0  0  0  0  0  0  0  # atno 17321 bound_to 7965
  139.4834  144.4766  151.9359 LP  0  0  0  0  0  0  0  0  0  0  0  0  # atno 17342 bound_to 10162
  140.3852  144.2686  150.5904 LP  0  0  0  0  0  0  0  0  0  0  0  0  # atno 17343 bound_to 10162
  155.9978  130.3898  150.2726 LP  0  0  0  0  0  0  0  0  0  0  0  0  # atno 17370 bound_to 10713
  157.0896  131.0166  151.3126 LP  0  0  0  0  0  0  0  0  0  0  0  0  # atno 17371 bound_to 10713
  140.3955  134.7402  157.4748 LP  0  0  0  0  0  0  0  0  0  0  0  0  # atno 17394 bound_to 11000
  140.0534  134.6098  155.8834 LP  0  0  0  0  0  0  0  0  0  0  0  0  # atno 17395 bound_to 11000

$$$$
