AV-unprocessed.smi:1536|AV-procd|sdf|6188|dock3
  -GOLD-   22720 6353D 1   1.00000     0.00000
 Structure written by MMmdl.
 48 49  0  0  0  0  0  0  0  0  2 V2000
  144.9334  132.2245  150.7195 C   0  0  0  0  0  0  0  0  0  0  0  0
  145.9589  133.3491  150.4915 C   0  0  2  0  0  0  0  0  0  0  0  0
  147.2699  133.1246  151.2689 C   0  0  0  0  0  0  0  0  0  0  0  0
  147.1035  133.3810  152.7771 C   0  0  0  0  0  0  0  0  0  0  0  0
  146.5592  134.7425  153.0239 N   0  3  2  0  0  0  0  0  0  0  0  0
  146.6432  135.2126  154.4435 C   0  0  2  0  0  0  0  0  0  0  0  0
  148.0998  135.4070  154.9636 C   0  0  0  0  0  0  0  0  0  0  0  0
  148.8091  136.5390  154.3735 N   0  0  0  0  0  0  0  0  0  0  0  0
  149.4259  137.5080  155.0670 C   0  0  0  0  0  0  0  0  0  0  0  0
  149.4216  137.5575  156.2976 O   0  0  0  0  0  0  0  0  0  0  0  0
  150.1284  138.5832  154.2297 C   0  0  0  0  0  0  0  0  0  0  0  0
  151.5460  138.6886  154.5271 N   0  0  0  0  0  0  0  0  0  0  0  0
  152.2465  139.6483  155.1349 C   0  0  0  0  0  0  0  0  0  0  0  0
  153.5325  139.3420  155.2100 N   0  0  0  0  0  0  0  0  0  0  0  0
  153.5966  138.1019  154.5967 N   0  0  0  0  0  0  0  0  0  0  0  0
  152.4208  137.7089  154.1895 N   0  0  0  0  0  0  0  0  0  0  0  0
  145.8031  134.2754  155.3598 C   0  0  0  0  0  0  0  0  0  0  0  0
  145.3966  134.9680  156.6762 C   0  0  0  0  0  0  0  0  0  0  0  0
  146.5273  132.9577  155.6962 C   0  0  0  0  0  0  0  0  0  0  0  0
  145.2588  134.9698  152.3387 C   0  0  0  0  0  0  0  0  0  0  0  0
  145.3961  134.7441  150.8231 C   0  0  0  0  0  0  0  0  0  0  0  0
  144.6306  132.1465  151.7634 H   0  0  0  0  0  0  0  0  0  0  0  0
  145.3430  131.2585  150.4231 H   0  0  0  0  0  0  0  0  0  0  0  0
  144.0333  132.3915  150.1272 H   0  0  0  0  0  0  0  0  0  0  0  0
  146.2001  133.3360  149.4278 H   0  0  0  0  0  0  0  0  0  0  0  0
  147.6413  132.1133  151.0997 H   0  0  0  0  0  0  0  0  0  0  0  0
  148.0360  133.7962  150.8788 H   0  0  0  0  0  0  0  0  0  0  0  0
  146.4532  132.6226  153.2082 H   0  0  0  0  0  0  0  0  0  0  0  0
  148.0749  133.2756  153.2616 H   0  0  0  0  0  0  0  0  0  0  0  0
  146.1528  136.1860  154.4908 H   0  0  0  0  0  0  0  0  0  0  0  0
  148.1062  135.5485  156.0444 H   0  0  0  0  0  0  0  0  0  0  0  0
  148.6899  134.5084  154.7821 H   0  0  0  0  0  0  0  0  0  0  0  0
  148.8620  136.5708  153.3654 H   0  0  0  0  0  0  0  0  0  0  0  0
  150.0047  138.3662  153.1674 H   0  0  0  0  0  0  0  0  0  0  0  0
  149.6606  139.5499  154.4199 H   0  0  0  0  0  0  0  0  0  0  0  0
  151.8177  140.5611  155.5216 H   0  0  0  0  0  0  0  0  0  0  0  0
  144.8846  134.0093  154.8359 H   0  0  0  0  0  0  0  0  0  0  0  0
  146.2714  135.3008  157.2358 H   0  0  0  0  0  0  0  0  0  0  0  0
  144.8340  134.2902  157.3191 H   0  0  0  0  0  0  0  0  0  0  0  0
  144.7591  135.8353  156.5038 H   0  0  0  0  0  0  0  0  0  0  0  0
  147.5108  133.1437  156.1289 H   0  0  0  0  0  0  0  0  0  0  0  0
  146.6575  132.3266  154.8177 H   0  0  0  0  0  0  0  0  0  0  0  0
  145.9577  132.3687  156.4158 H   0  0  0  0  0  0  0  0  0  0  0  0
  144.4938  134.3074  152.7433 H   0  0  0  0  0  0  0  0  0  0  0  0
  144.9184  135.9898  152.5170 H   0  0  0  0  0  0  0  0  0  0  0  0
  146.0614  135.5047  150.4117 H   0  0  0  0  0  0  0  0  0  0  0  0
  144.4325  134.8898  150.3334 H   0  0  0  0  0  0  0  0  0  0  0  0
  147.2104  135.3458  152.5419 H   0  0  0  0  0  0  0  0  0  0  0  0
  1  2  1  0  0  0  0
  1 22  1  0  0  0  0
  1 23  1  0  0  0  0
  1 24  1  0  0  0  0
  2 21  1  0  0  0  0
  2  3  1  0  0  0  0
  2 25  1  0  0  0  0
  3  4  1  0  0  0  0
  3 26  1  0  0  0  0
  3 27  1  0  0  0  0
  4  5  1  0  0  0  0
  4 28  1  0  0  0  0
  4 29  1  0  0  0  0
  5  6  1  0  0  0  0
  5 20  1  0  0  0  0
  5 48  1  0  0  0  0
  6  7  1  0  0  0  0
  6 17  1  0  0  0  0
  6 30  1  0  0  0  0
  7  8  1  0  0  0  0
  7 31  1  0  0  0  0
  7 32  1  0  0  0  0
  8  9  1  0  0  0  0
  8 33  1  0  0  0  0
  9 10  2  0  0  0  0
  9 11  1  0  0  0  0
 11 12  1  0  0  0  0
 11 34  1  0  0  0  0
 11 35  1  0  0  0  0
 12 16  1  0  0  0  0
 12 13  1  0  0  0  0
 13 14  2  0  0  0  0
 13 36  1  0  0  0  0
 14 15  1  0  0  0  0
 15 16  2  0  0  0  0
 17 18  1  0  0  0  0
 17 19  1  0  0  0  0
 17 37  1  0  0  0  0
 18 38  1  0  0  0  0
 18 39  1  0  0  0  0
 18 40  1  0  0  0  0
 19 41  1  0  0  0  0
 19 42  1  0  0  0  0
 19 43  1  0  0  0  0
 20 21  1  0  0  0  0
 20 44  1  0  0  0  0
 20 45  1  0  0  0  0
 21 46  1  0  0  0  0
 21 47  1  0  0  0  0
M  CHG  1   5   1
M  END
> <s_m_source_file>
AV-unprocessed.smi

> <i_m_source_file_index>
1536

> <i_lp_mmshare_version>
43012

> <i_f3d_flags>
0

> <s_epik_input>
W0NIM11bQ0hdMVtDSDJdW0NIMl1OKFtDSDJdW0NIMl0xKVtDQEBIXShbQ0hdKFtDSDNdKVtDSDNdKVtDSDJdW05IXUMoPU8pW0NIMl1uMltjSF1ubm4y

> <s_epik_cmdline>
J2VwaWtfcHl0aG9uJywgJy1waCcsICc3LjAnLCAnLXRuJywgJzgnLCAnLW1hJywgJzIwMCcsICctbWV0YWxfYmluZGluZycsICctaW1hZScsICc8aW5maWxlLm1hZT4nLCAnLW9tYWUnLCAnPG91dGZpbGUubWFlPic=

> <r_lp_tautomer_probability>
1

> <r_epik_Ionization_Penalty>
0.00109671

> <r_epik_Ionization_Penalty_Charging>
0.00109273

> <r_epik_Ionization_Penalty_Neutral>
3.97951e-06

> <r_epik_State_Penalty>
0.000716588

> <r_epik_Charging_Adjusted_Penalty>
0.00180932

> <i_epik_Tot_Q>
1

> <i_epik_Tot_abs_Q>
1

> <r_epik_Metal_State_Penalty>
-0

> <b_epik_Metal_Only>
0

> <s_lp_Force_Field>
OPLS_2005

> <r_lp_Energy>
37.5817

> <b_lp_Chiralities_Consistent>
1

> <s_lp_Variant>
AV-unprocessed.smi:1536-3

> <Gold.Version>
5.8.1

> <Gold.Id.Protein>
6NUR|6NUR_protein|mol2

> <Gold.PLP.Fitness>
41.7240

> <Gold.PLP.PLP>
-29.9056

> <Gold.PLP.part.hbond>
-4.5850

> <Gold.PLP.part.metal>
0.0000

> <Gold.PLP.part.buried>
-3.1083

> <Gold.PLP.part.nonpolar>
-21.6689

> <Gold.PLP.part.repulsive>
0.1552

> <Gold.PLP.ligand.clash>
0.0000

> <Gold.PLP.ligand.torsion>
0.6108

> <Gold.PLP.Chemscore.Hbond>
4.2229

> <Gold.PLP.Chemscore.CHOScore>
0.0000

> <Gold.PLP.Chemscore.Metal>
0.0000

> <Gold.Chemscore.Hbonds>
donor molecule, donor type, donor heavy atom, donor atom, acceptor molecule, acceptor atom, score
      L1  H     5    48       P1  7948  1.92
      L1  H     8    33       P1  7948  1.00
      P1  H  7997  8008       L1    14  0.81
      P1  H 10752 10764       L1    16  0.34

> <Gold.PLP.Chemscore.Internal.Correction>
0.3712

> <Gold.Rescore>
     Score         DG    S(hbond)    S(metal)    S(lipo)     H(rot)  DE(clash)    DE(int)     intcor
     12.21     -12.92       2.59        0.00      50.36       2.77       0.07       0.64       ----

> <Gold.Chemscore.Fitness>
12.2080

> <Gold.Chemscore.DG>
-12.9204

> <Gold.Chemscore.ZeroCoef>
-5.4800

> <Gold.Chemscore.Hbond>
2.5873

> <Gold.Chemscore.Metal>
0.0000

> <Gold.Chemscore.Lipo>
50.3614

> <Gold.Chemscore.Internal_Hbond>
0.0000

> <Gold.Chemscore.DEClash>
0.0689

> <Gold.Chemscore.DEInternal>
0.6435

> <Gold.Chemscore.Rot>
2.7709

> <Gold.Chemscore.Internal.Correction>
   9.000000E+99

> <Gold.Chemscore.Hbonds>
donor molecule, donor type, donor heavy atom, donor atom, acceptor molecule, acceptor atom, score
      L1  H     5    48       P1  7948  0.91
      L1  H     8    33       P1  7948  0.93
      P1  H  7997  8008       L1    14  0.78
      P1  H 10752 10764       L1    16  0.02

> <Gold.Chemscore.Hbond.Weighted>
-8.6416

> <Gold.Chemscore.Metal.Weighted>
-0.0000

> <Gold.Chemscore.Lipo.Weighted>
-5.8923

> <Gold.Chemscore.Internal_Hbond.Weighted>
0.0000

> <Gold.Chemscore.DEClash.Weighted>
0.0689

> <Gold.Chemscore.DEInternal.Weighted>
0.6435

> <Gold.Chemscore.Rot.Weighted>
7.0935

> <Gold.Chemscore.Internal.Correction.Weighted>
   9.000000E+99

> <Gold.Protein.RotatedTorsions>
[ 6907 6896 6895 6894 ] final  -90.77 input  -60.11 | X-H torsion
[ 7974 7965 7964 7962 ] final  144.99 input  175.53 | X-H torsion
[ 8008 7997 7996 7995 ] final   -2.59 input   59.86 | X-H torsion
[ 10167 10162 10161 10158 ] final   14.57 input  -65.29 | X-H torsion
[ 10718 10713 10712 10709 ] final  142.35 input   66.30 | X-H torsion
[ 10763 10752 10751 10750 ] final  -82.82 input  -60.55 | X-H torsion
[ 11005 11000 10999 10996 ] final   59.97 input  -57.11 | X-H torsion

> <Gold.Protein.ActiveResidues>
 VAL166  LYS551  ARG553  GLY616  TRP617  ASP618  TYR619  PRO620  LYS621  CYS622 
 ASP623  PHE694  ASN695  SER759  ASP760  ASP761  ALA762  ILE779  LEU786  VAL792 
 PHE793  MET794  SER795  GLU796  ALA797  LYS798  CYS799  TRP800  GLU811  SER814 

> <Gold.Protein.RotatedAtoms>
  150.6885  134.2381  159.4461 H   0  0  0  0  0  0  0  0  0  0  0  0  # atno 6907 bound_to 6896
  152.0327  134.9756  160.0582 H   0  0  0  0  0  0  0  0  0  0  0  0  # atno 6908 bound_to 6896
  152.1289  133.4361  159.4748 H   0  0  0  0  0  0  0  0  0  0  0  0  # atno 6909 bound_to 6896
  144.8789  139.5729  143.5852 H   0  0  0  0  0  0  0  0  0  0  0  0  # atno 7974 bound_to 7965
  154.6341  140.2530  155.7398 H   0  0  0  0  0  0  0  0  0  0  0  0  # atno 8008 bound_to 7997
  156.2495  140.2901  156.0626 H   0  0  0  0  0  0  0  0  0  0  0  0  # atno 8009 bound_to 7997
  155.1698  140.0386  157.2851 H   0  0  0  0  0  0  0  0  0  0  0  0  # atno 8010 bound_to 7997
  140.5927  143.8764  150.6888 H   0  0  0  0  0  0  0  0  0  0  0  0  # atno 10167 bound_to 10162
  157.3816  131.0993  151.0733 H   0  0  0  0  0  0  0  0  0  0  0  0  # atno 10718 bound_to 10713
  154.5804  135.5578  153.7179 H   0  0  0  0  0  0  0  0  0  0  0  0  # atno 10763 bound_to 10752
  153.0079  135.6318  154.1991 H   0  0  0  0  0  0  0  0  0  0  0  0  # atno 10764 bound_to 10752
  154.1931  135.2881  155.2995 H   0  0  0  0  0  0  0  0  0  0  0  0  # atno 10765 bound_to 10752
  140.0265  134.6075  155.9566 H   0  0  0  0  0  0  0  0  0  0  0  0  # atno 11005 bound_to 11000
  146.2981  139.7342  142.9111 LP  0  0  0  0  0  0  0  0  0  0  0  0  # atno 17320 bound_to 7965
  145.3990  141.0382  143.3081 LP  0  0  0  0  0  0  0  0  0  0  0  0  # atno 17321 bound_to 7965
  140.2290  143.3750  152.1581 LP  0  0  0  0  0  0  0  0  0  0  0  0  # atno 17342 bound_to 10162
  139.5238  144.7075  151.5308 LP  0  0  0  0  0  0  0  0  0  0  0  0  # atno 17343 bound_to 10162
  157.1800  130.6305  149.5669 LP  0  0  0  0  0  0  0  0  0  0  0  0  # atno 17370 bound_to 10713
  155.9777  130.4756  150.6610 LP  0  0  0  0  0  0  0  0  0  0  0  0  # atno 17371 bound_to 10713
  141.1806  133.6546  156.5004 LP  0  0  0  0  0  0  0  0  0  0  0  0  # atno 17394 bound_to 11000
  140.4297  134.7112  157.4935 LP  0  0  0  0  0  0  0  0  0  0  0  0  # atno 17395 bound_to 11000

$$$$
