AV-unprocessed.smi:907|AV-procd|sdf|4111|dock3
  -GOLD-   22720 2 03D 1   1.00000     0.00000
 Structure written by MMmdl.
 54 57  0  0  0  0  0  0  0  0  3 V2000
  149.1691  141.4429  155.1349 O   0  0  0  0  0  0  0  0  0  0  0  0
  149.4950  140.2764  155.3562 C   0  0  0  0  0  0  0  0  0  0  0  0
  150.1044  139.9121  156.4962 N   0  0  0  0  0  0  0  0  0  0  0  0
  150.4406  140.8247  157.5805 C   0  0  0  0  0  0  0  0  0  0  0  0
  151.1158  142.0905  157.0350 C   0  0  0  0  0  0  0  0  0  0  0  0
  151.4222  143.0962  158.1283 C   0  0  0  0  0  0  0  0  0  0  0  0
  152.3248  142.8137  159.1765 C   0  0  0  0  0  0  0  0  0  0  0  0
  152.5678  143.7951  160.1602 C   0  0  0  0  0  0  0  0  0  0  0  0
  151.9058  145.0374  160.0741 C   0  0  0  0  0  0  0  0  0  0  0  0
  151.0158  145.2671  159.0051 C   0  0  0  0  0  0  0  0  0  0  0  0
  150.8086  144.3012  158.0831 N   0  3  0  0  0  0  0  0  0  0  0  0
  149.3128  139.2725  154.4617 N   0  0  0  0  0  0  0  0  0  0  0  0
  149.4986  137.8379  154.7099 C   0  0  0  0  0  0  0  0  0  0  0  0
  148.1219  137.1494  154.7834 C   0  0  0  0  0  0  0  0  0  0  0  0
  147.2929  137.4095  153.5687 N   0  3  0  0  0  0  0  0  0  0  0  0
  145.9222  136.8122  153.6177 C   0  0  1  0  0  0  0  0  0  0  0  0
  145.1173  137.1006  152.3220 C   0  0  0  0  0  0  0  0  0  0  0  0
  144.6579  135.7079  151.8603 C   0  0  2  0  0  0  0  0  0  0  0  0
  143.6005  135.1636  152.8350 C   0  0  0  0  0  0  0  0  0  0  0  0
  144.4382  134.8322  154.0820 C   0  0  0  0  0  0  0  0  0  0  0  0
  145.8610  135.2585  153.6685 C   0  0  1  0  0  0  0  0  0  0  0  0
  145.8779  134.8612  152.1967 C   0  0  0  0  0  0  0  0  0  0  0  0
  147.2485  138.8624  153.2244 C   0  0  0  0  0  0  0  0  0  0  0  0
  148.6531  139.4864  153.1730 C   0  0  0  0  0  0  0  0  0  0  0  0
  150.3656  138.9436  156.6103 H   0  0  0  0  0  0  0  0  0  0  0  0
  149.5291  141.0877  158.1198 H   0  0  0  0  0  0  0  0  0  0  0  0
  151.1025  140.3234  158.2889 H   0  0  0  0  0  0  0  0  0  0  0  0
  152.0443  141.8298  156.5247 H   0  0  0  0  0  0  0  0  0  0  0  0
  150.4757  142.5624  156.2881 H   0  0  0  0  0  0  0  0  0  0  0  0
  152.8264  141.8581  159.2282 H   0  0  0  0  0  0  0  0  0  0  0  0
  153.2539  143.5973  160.9708 H   0  0  0  0  0  0  0  0  0  0  0  0
  152.0786  145.8026  160.8169 H   0  0  0  0  0  0  0  0  0  0  0  0
  150.4676  146.1866  158.8607 H   0  0  0  0  0  0  0  0  0  0  0  0
  150.0823  137.4113  153.8925 H   0  0  0  0  0  0  0  0  0  0  0  0
  150.0652  137.6148  155.6138 H   0  0  0  0  0  0  0  0  0  0  0  0
  148.3056  136.0839  154.9041 H   0  0  0  0  0  0  0  0  0  0  0  0
  147.5829  137.4892  155.6691 H   0  0  0  0  0  0  0  0  0  0  0  0
  145.4099  137.2242  154.4889 H   0  0  0  0  0  0  0  0  0  0  0  0
  144.2806  137.7786  152.4953 H   0  0  0  0  0  0  0  0  0  0  0  0
  145.7417  137.5394  151.5425 H   0  0  0  0  0  0  0  0  0  0  0  0
  144.3474  135.6744  150.8154 H   0  0  0  0  0  0  0  0  0  0  0  0
  142.8141  135.8908  153.0406 H   0  0  0  0  0  0  0  0  0  0  0  0
  143.1297  134.2629  152.4383 H   0  0  0  0  0  0  0  0  0  0  0  0
  144.0867  135.3548  154.9724 H   0  0  0  0  0  0  0  0  0  0  0  0
  144.4014  133.7620  154.2904 H   0  0  0  0  0  0  0  0  0  0  0  0
  146.6076  134.7638  154.2852 H   0  0  0  0  0  0  0  0  0  0  0  0
  145.7205  133.7933  152.0339 H   0  0  0  0  0  0  0  0  0  0  0  0
  146.7832  135.1739  151.6733 H   0  0  0  0  0  0  0  0  0  0  0  0
  146.7625  139.0178  152.2621 H   0  0  0  0  0  0  0  0  0  0  0  0
  146.6452  139.3891  153.9656 H   0  0  0  0  0  0  0  0  0  0  0  0
  148.5828  140.5419  152.9060 H   0  0  0  0  0  0  0  0  0  0  0  0
  149.2424  139.0217  152.3811 H   0  0  0  0  0  0  0  0  0  0  0  0
  147.7744  136.9536  152.8066 H   0  0  0  0  0  0  0  0  0  0  0  0
  150.1603  144.4906  157.3184 H   0  0  0  0  0  0  0  0  0  0  0  0
  1  2  2  0  0  0  0
  2  3  1  0  0  0  0
  2 12  1  0  0  0  0
  3  4  1  0  0  0  0
  3 25  1  0  0  0  0
  4  5  1  0  0  0  0
  4 26  1  0  0  0  0
  4 27  1  0  0  0  0
  5  6  1  0  0  0  0
  5 28  1  0  0  0  0
  5 29  1  0  0  0  0
  6 11  1  0  0  0  0
  6  7  2  0  0  0  0
  7  8  1  0  0  0  0
  7 30  1  0  0  0  0
  8  9  2  0  0  0  0
  8 31  1  0  0  0  0
  9 10  1  0  0  0  0
  9 32  1  0  0  0  0
 10 11  2  0  0  0  0
 10 33  1  0  0  0  0
 11 54  1  0  0  0  0
 12 24  1  0  0  0  0
 12 13  1  0  0  0  0
 13 14  1  0  0  0  0
 13 34  1  0  0  0  0
 13 35  1  0  0  0  0
 14 15  1  0  0  0  0
 14 36  1  0  0  0  0
 14 37  1  0  0  0  0
 15 16  1  0  0  0  0
 15 23  1  0  0  0  0
 15 53  1  0  0  0  0
 16 21  1  0  0  0  0
 16 17  1  0  0  0  0
 16 38  1  0  0  0  0
 17 18  1  0  0  0  0
 17 39  1  0  0  0  0
 17 40  1  0  0  0  0
 18 22  1  0  0  0  0
 18 19  1  0  0  0  0
 18 41  1  0  0  0  0
 19 20  1  0  0  0  0
 19 42  1  0  0  0  0
 19 43  1  0  0  0  0
 20 21  1  0  0  0  0
 20 44  1  0  0  0  0
 20 45  1  0  0  0  0
 21 22  1  0  0  0  0
 21 46  1  0  0  0  0
 22 47  1  0  0  0  0
 22 48  1  0  0  0  0
 23 24  1  0  0  0  0
 23 49  1  0  0  0  0
 23 50  1  0  0  0  0
 24 51  1  0  0  0  0
 24 52  1  0  0  0  0
M  CHG  1  11   1
M  CHG  1  15   1
M  END
> <s_m_source_file>
AV-unprocessed.smi

> <i_m_source_file_index>
907

> <i_lp_mmshare_version>
43012

> <i_f3d_flags>
0

> <s_epik_input>
W0NIMl0xW0NIMl1bQ0BASF0oW0NIMl0yKVtDQEBIXShbQ0gyXVtDQEhdMTIpTihbQ0gyXVtDSDJdMylbQ0gyXVtDSDJdTjNDKD1PKVtOSF1bQ0gyXVtDSDJdYzRbY0hdW2NIXVtjSF1bY0hdbjQ=

> <s_epik_cmdline>
J2VwaWtfcHl0aG9uJywgJy1waCcsICc3LjAnLCAnLXRuJywgJzgnLCAnLW1hJywgJzIwMCcsICctbWV0YWxfYmluZGluZycsICctaW1hZScsICc8aW5maWxlLm1hZT4nLCAnLW9tYWUnLCAnPG91dGZpbGUubWFlPic=

> <r_epik_Ionization_Penalty>
1.63018

> <r_epik_Ionization_Penalty_Charging>
1.63015

> <r_epik_Ionization_Penalty_Neutral>
2.64641e-05

> <r_epik_State_Penalty>
1.72761

> <r_epik_Charging_Adjusted_Penalty>
3.35777

> <i_epik_Tot_Q>
2

> <i_epik_Tot_abs_Q>
2

> <r_epik_Metal_State_Penalty>
1.76501

> <b_epik_Metal_Only>
0

> <s_lp_Force_Field>
OPLS_2005

> <r_lp_Energy>
104.704

> <b_lp_Chiralities_Consistent>
1

> <s_lp_Variant>
AV-unprocessed.smi:907-6

> <Gold.Version>
5.8.1

> <Gold.Id.Protein>
6NUR|6NUR_protein|mol2

> <Gold.PLP.Fitness>
49.1601

> <Gold.PLP.PLP>
-37.3909

> <Gold.PLP.part.hbond>
-1.9379

> <Gold.PLP.part.metal>
0.0000

> <Gold.PLP.part.buried>
0.0873

> <Gold.PLP.part.nonpolar>
-36.0729

> <Gold.PLP.part.repulsive>
0.2333

> <Gold.PLP.ligand.clash>
0.0000

> <Gold.PLP.ligand.torsion>
0.1694

> <Gold.PLP.Chemscore.Hbond>
4.0000

> <Gold.PLP.Chemscore.CHOScore>
0.0000

> <Gold.PLP.Chemscore.Metal>
0.0000

> <Gold.Chemscore.Hbonds>
donor molecule, donor type, donor heavy atom, donor atom, acceptor molecule, acceptor atom, score
      L1  H    11    54       P1  8028  1.82
      L1  H    15    53       P1  7948  2.00

> <Gold.PLP.Chemscore.Internal.Correction>
0.1080

> <Gold.Rescore>
     Score         DG    S(hbond)    S(metal)    S(lipo)     H(rot)  DE(clash)    DE(int)     intcor
     17.94     -21.67       1.85        0.00     117.51       1.46       2.28       1.45       ----

> <Gold.Chemscore.Fitness>
17.9420

> <Gold.Chemscore.DG>
-21.6684

> <Gold.Chemscore.ZeroCoef>
-5.4800

> <Gold.Chemscore.Hbond>
1.8475

> <Gold.Chemscore.Metal>
0.0000

> <Gold.Chemscore.Lipo>
117.5068

> <Gold.Chemscore.Internal_Hbond>
0.0000

> <Gold.Chemscore.DEClash>
2.2751

> <Gold.Chemscore.DEInternal>
1.4512

> <Gold.Chemscore.Rot>
1.4572

> <Gold.Chemscore.Internal.Correction>
   9.000000E+99

> <Gold.Chemscore.Hbonds>
donor molecule, donor type, donor heavy atom, donor atom, acceptor molecule, acceptor atom, score
      L1  H    11    54       P1  8028  0.39
      L1  H    15    53       P1  7948  1.00

> <Gold.Chemscore.Hbond.Weighted>
-6.1706

> <Gold.Chemscore.Metal.Weighted>
-0.0000

> <Gold.Chemscore.Lipo.Weighted>
-13.7483

> <Gold.Chemscore.Internal_Hbond.Weighted>
0.0000

> <Gold.Chemscore.DEClash.Weighted>
2.2751

> <Gold.Chemscore.DEInternal.Weighted>
1.4512

> <Gold.Chemscore.Rot.Weighted>
3.7305

> <Gold.Chemscore.Internal.Correction.Weighted>
   9.000000E+99

> <Gold.Protein.RotatedTorsions>
[ 6907 6896 6895 6894 ] final   72.57 input  -60.11 | X-H torsion
[ 7974 7965 7964 7962 ] final   24.99 input  175.53 | X-H torsion
[ 8008 7997 7996 7995 ] final  -62.43 input   59.86 | X-H torsion
[ 10167 10162 10161 10158 ] final  -30.36 input  -65.29 | X-H torsion
[ 10718 10713 10712 10709 ] final  -60.94 input   66.30 | X-H torsion
[ 10763 10752 10751 10750 ] final  109.47 input  -60.55 | X-H torsion
[ 11005 11000 10999 10996 ] final  -93.76 input  -57.11 | X-H torsion

> <Gold.Protein.ActiveResidues>
 VAL166  LYS551  ARG553  GLY616  TRP617  ASP618  TYR619  PRO620  LYS621  CYS622 
 ASP623  PHE694  ASN695  SER759  ASP760  ASP761  ALA762  ILE779  LEU786  VAL792 
 PHE793  MET794  SER795  GLU796  ALA797  LYS798  CYS799  TRP800  GLU811  SER814 

> <Gold.Protein.RotatedAtoms>
  152.4875  134.4552  159.9587 H   0  0  0  0  0  0  0  0  0  0  0  0  # atno 6907 bound_to 6896
  151.4545  133.3602  159.2808 H   0  0  0  0  0  0  0  0  0  0  0  0  # atno 6908 bound_to 6896
  150.8998  134.8434  159.7413 H   0  0  0  0  0  0  0  0  0  0  0  0  # atno 6909 bound_to 6896
  146.1911  139.7528  142.8831 H   0  0  0  0  0  0  0  0  0  0  0  0  # atno 7974 bound_to 7965
  154.4499  140.0996  156.6586 H   0  0  0  0  0  0  0  0  0  0  0  0  # atno 8008 bound_to 7997
  155.5319  140.3481  155.4409 H   0  0  0  0  0  0  0  0  0  0  0  0  # atno 8009 bound_to 7997
  156.0658  140.1337  156.9876 H   0  0  0  0  0  0  0  0  0  0  0  0  # atno 8010 bound_to 7997
  140.7250  143.3855  151.1523 H   0  0  0  0  0  0  0  0  0  0  0  0  # atno 10167 bound_to 10162
  156.0956  130.4193  150.0924 H   0  0  0  0  0  0  0  0  0  0  0  0  # atno 10718 bound_to 10713
  153.4351  135.3779  155.2194 H   0  0  0  0  0  0  0  0  0  0  0  0  # atno 10763 bound_to 10752
  154.8752  135.3849  154.4220 H   0  0  0  0  0  0  0  0  0  0  0  0  # atno 10764 bound_to 10752
  153.4758  135.7087  153.6030 H   0  0  0  0  0  0  0  0  0  0  0  0  # atno 10765 bound_to 10752
  141.1489  133.7909  157.0204 H   0  0  0  0  0  0  0  0  0  0  0  0  # atno 11005 bound_to 11000
  145.3790  141.0355  143.3188 LP  0  0  0  0  0  0  0  0  0  0  0  0  # atno 17320 bound_to 7965
  144.8488  139.5354  143.6866 LP  0  0  0  0  0  0  0  0  0  0  0  0  # atno 17321 bound_to 7965
  139.7451  143.8864  152.3061 LP  0  0  0  0  0  0  0  0  0  0  0  0  # atno 17342 bound_to 10162
  139.8699  144.7074  150.9000 LP  0  0  0  0  0  0  0  0  0  0  0  0  # atno 17343 bound_to 10162
  156.8924  130.9593  151.3587 LP  0  0  0  0  0  0  0  0  0  0  0  0  # atno 17370 bound_to 10713
  157.6116  130.8587  149.8960 LP  0  0  0  0  0  0  0  0  0  0  0  0  # atno 17371 bound_to 10713
  140.0819  134.9643  157.1639 LP  0  0  0  0  0  0  0  0  0  0  0  0  # atno 17394 bound_to 11000
  140.3564  134.2542  155.7192 LP  0  0  0  0  0  0  0  0  0  0  0  0  # atno 17395 bound_to 11000

$$$$
