AV-unprocessed.smi:1090|AV-procd|sdf|4735|dock9
  -GOLD-   22720 3273D 1   1.00000     0.00000
 Structure written by MMmdl.
 38 40  0  0  0  0  0  0  0  0  1 V2000
  153.6520  139.4646  158.1806 O   0  0  0  0  0  0  0  0  0  0  0  0
  152.6048  140.1016  158.2933 C   0  0  0  0  0  0  0  0  0  0  0  0
  151.3330  139.6210  157.5901 C   0  0  0  0  0  0  0  0  0  0  0  0
  151.1123  140.2667  156.2030 C   0  0  0  0  0  0  0  0  0  0  0  0
  149.6609  140.2022  155.7445 C   0  0  0  0  0  0  0  0  0  0  0  0
  149.2219  140.8227  154.4387 C   0  0  0  0  0  0  0  0  0  0  0  0
  148.7710  141.4244  155.7493 C   0  0  0  0  0  0  0  0  0  0  0  0
  152.0240  139.6221  155.1732 C   0  0  0  0  0  0  0  0  0  0  0  0
  151.6384  138.3334  154.4879 C   0  0  0  0  0  0  0  0  0  0  0  0
  152.7830  138.3526  155.4769 C   0  0  0  0  0  0  0  0  0  0  0  0
  152.5013  141.2317  159.0089 N   0  0  0  0  0  0  0  0  0  0  0  0
  153.5839  141.8352  159.7761 C   0  0  0  0  0  0  0  0  0  0  0  0
  153.0453  142.7869  160.8563 C   0  0  0  0  0  0  0  0  0  0  0  0
  152.0239  143.7329  160.3211 C   0  0  0  0  0  0  0  0  0  0  0  0
  150.8145  143.8985  160.8643 N   0  0  0  0  0  0  0  0  0  0  0  0
  150.0329  144.8154  160.1569 C   0  0  0  0  0  0  0  0  0  0  0  0
  150.6631  145.3368  159.0555 C   0  0  0  0  0  0  0  0  0  0  0  0
  152.2693  144.6897  158.8637 S   0  0  0  0  0  0  0  0  0  0  0  0
  151.3807  138.5355  157.4900 H   0  0  0  0  0  0  0  0  0  0  0  0
  150.4781  139.8248  158.2364 H   0  0  0  0  0  0  0  0  0  0  0  0
  151.3914  141.3200  156.2708 H   0  0  0  0  0  0  0  0  0  0  0  0
  149.1721  139.2631  155.9978 H   0  0  0  0  0  0  0  0  0  0  0  0
  149.9585  141.3796  153.8630 H   0  0  0  0  0  0  0  0  0  0  0  0
  148.4822  140.2826  153.8510 H   0  0  0  0  0  0  0  0  0  0  0  0
  147.7318  141.2851  156.0395 H   0  0  0  0  0  0  0  0  0  0  0  0
  149.2135  142.3742  156.0435 H   0  0  0  0  0  0  0  0  0  0  0  0
  152.5475  140.3442  154.5489 H   0  0  0  0  0  0  0  0  0  0  0  0
  150.7146  137.8498  154.7993 H   0  0  0  0  0  0  0  0  0  0  0  0
  151.8857  138.2319  153.4332 H   0  0  0  0  0  0  0  0  0  0  0  0
  153.7927  138.2656  155.0812 H   0  0  0  0  0  0  0  0  0  0  0  0
  152.6167  137.8755  156.4405 H   0  0  0  0  0  0  0  0  0  0  0  0
  151.6047  141.6952  159.0397 H   0  0  0  0  0  0  0  0  0  0  0  0
  154.2043  141.0577  160.2251 H   0  0  0  0  0  0  0  0  0  0  0  0
  154.2247  142.3834  159.0849 H   0  0  0  0  0  0  0  0  0  0  0  0
  152.6025  142.2173  161.6743 H   0  0  0  0  0  0  0  0  0  0  0  0
  153.8588  143.3706  161.2889 H   0  0  0  0  0  0  0  0  0  0  0  0
  149.0356  145.0373  160.5074 H   0  0  0  0  0  0  0  0  0  0  0  0
  150.2806  146.0563  158.3465 H   0  0  0  0  0  0  0  0  0  0  0  0
  1  2  2  0  0  0  0
  2  3  1  0  0  0  0
  2 11  1  0  0  0  0
  3  4  1  0  0  0  0
  3 19  1  0  0  0  0
  3 20  1  0  0  0  0
  4  5  1  0  0  0  0
  4  8  1  0  0  0  0
  4 21  1  0  0  0  0
  5  7  1  0  0  0  0
  5  6  1  0  0  0  0
  5 22  1  0  0  0  0
  6  7  1  0  0  0  0
  6 23  1  0  0  0  0
  6 24  1  0  0  0  0
  7 25  1  0  0  0  0
  7 26  1  0  0  0  0
  8 10  1  0  0  0  0
  8  9  1  0  0  0  0
  8 27  1  0  0  0  0
  9 10  1  0  0  0  0
  9 28  1  0  0  0  0
  9 29  1  0  0  0  0
 10 30  1  0  0  0  0
 10 31  1  0  0  0  0
 11 12  1  0  0  0  0
 11 32  1  0  0  0  0
 12 13  1  0  0  0  0
 12 33  1  0  0  0  0
 12 34  1  0  0  0  0
 13 14  1  0  0  0  0
 13 35  1  0  0  0  0
 13 36  1  0  0  0  0
 14 18  1  0  0  0  0
 14 15  2  0  0  0  0
 15 16  1  0  0  0  0
 16 17  2  0  0  0  0
 16 37  1  0  0  0  0
 17 18  1  0  0  0  0
 17 38  1  0  0  0  0
M  END
> <s_m_source_file>
AV-unprocessed.smi

> <i_m_source_file_index>
1090

> <i_lp_mmshare_version>
43012

> <i_f3d_flags>
0

> <s_epik_input>
W0NIMl0xW0NIMl1bQ0hdMVtDSF0oW0NIXTJbQ0gyXVtDSDJdMilbQ0gyXUMoPU8pW05IXVtDSDJdW0NIMl1jM25bY0hdW2NIXXMz

> <s_epik_cmdline>
J2VwaWtfcHl0aG9uJywgJy1waCcsICc3LjAnLCAnLXRuJywgJzgnLCAnLW1hJywgJzIwMCcsICctbWV0YWxfYmluZGluZycsICctaW1hZScsICc8aW5maWxlLm1hZT4nLCAnLW9tYWUnLCAnPG91dGZpbGUubWFlPic=

> <r_lp_tautomer_probability>
1

> <r_epik_Ionization_Penalty>
0.000189819

> <r_epik_Ionization_Penalty_Charging>
0

> <r_epik_Ionization_Penalty_Neutral>
0.000189819

> <r_epik_State_Penalty>
-0

> <r_epik_Charging_Adjusted_Penalty>
0

> <i_epik_Tot_Q>
0

> <i_epik_Tot_abs_Q>
0

> <r_epik_Metal_State_Penalty>
-0

> <b_epik_Metal_Only>
0

> <s_lp_Force_Field>
OPLS_2005

> <r_lp_Energy>
14.2357

> <b_lp_Chiralities_Consistent>
1

> <s_lp_Variant>
AV-unprocessed.smi:1090-1

> <Gold.Version>
5.8.1

> <Gold.Id.Protein>
6NUR|6NUR_protein|mol2

> <Gold.PLP.Fitness>
46.1185

> <Gold.PLP.PLP>
-42.7213

> <Gold.PLP.part.hbond>
-2.0000

> <Gold.PLP.part.metal>
0.0000

> <Gold.PLP.part.buried>
-3.3324

> <Gold.PLP.part.nonpolar>
-38.0953

> <Gold.PLP.part.repulsive>
0.2639

> <Gold.PLP.ligand.clash>
0.0000

> <Gold.PLP.ligand.torsion>
2.3721

> <Gold.PLP.Chemscore.Hbond>
1.0000

> <Gold.PLP.Chemscore.CHOScore>
0.9565

> <Gold.PLP.Chemscore.Metal>
0.0000

> <Gold.Chemscore.Hbonds>
donor molecule, donor type, donor heavy atom, donor atom, acceptor molecule, acceptor atom, score
      P1  H  7997  8010       L1     1  1.00
      L1  C    17    38       P1  8029  0.78

> <Gold.PLP.Chemscore.Internal.Correction>
2.2718

> <Gold.Rescore>
     Score         DG    S(hbond)    S(metal)    S(lipo)     H(rot)  DE(clash)    DE(int)     intcor
     15.70     -18.04       0.97        0.00     116.80       1.70       0.01       2.33       ----

> <Gold.Chemscore.Fitness>
15.6988

> <Gold.Chemscore.DG>
-18.0425

> <Gold.Chemscore.ZeroCoef>
-5.4800

> <Gold.Chemscore.Hbond>
0.9713

> <Gold.Chemscore.Metal>
0.0000

> <Gold.Chemscore.Lipo>
116.8014

> <Gold.Chemscore.Internal_Hbond>
0.0000

> <Gold.Chemscore.DEClash>
0.0142

> <Gold.Chemscore.DEInternal>
2.3294

> <Gold.Chemscore.Rot>
1.6982

> <Gold.Chemscore.Internal.Correction>
   9.000000E+99

> <Gold.Chemscore.Hbonds>
donor molecule, donor type, donor heavy atom, donor atom, acceptor molecule, acceptor atom, score
      P1  H  7997  8010       L1     1  0.95

> <Gold.Chemscore.Hbond.Weighted>
-3.2441

> <Gold.Chemscore.Metal.Weighted>
-0.0000

> <Gold.Chemscore.Lipo.Weighted>
-13.6658

> <Gold.Chemscore.Internal_Hbond.Weighted>
0.0000

> <Gold.Chemscore.DEClash.Weighted>
0.0142

> <Gold.Chemscore.DEInternal.Weighted>
2.3294

> <Gold.Chemscore.Rot.Weighted>
4.3474

> <Gold.Chemscore.Internal.Correction.Weighted>
   9.000000E+99

> <Gold.Protein.RotatedTorsions>
[ 6907 6896 6895 6894 ] final   46.07 input  -60.11 | X-H torsion
[ 7974 7965 7964 7962 ] final -173.79 input  175.53 | X-H torsion
[ 8008 7997 7996 7995 ] final   18.86 input   59.86 | X-H torsion
[ 10167 10162 10161 10158 ] final   82.98 input  -65.29 | X-H torsion
[ 10718 10713 10712 10709 ] final  -95.16 input   66.30 | X-H torsion
[ 10763 10752 10751 10750 ] final   41.27 input  -60.55 | X-H torsion
[ 11005 11000 10999 10996 ] final -172.25 input  -57.11 | X-H torsion

> <Gold.Protein.ActiveResidues>
 VAL166  LYS551  ARG553  GLY616  TRP617  ASP618  TYR619  PRO620  LYS621  CYS622 
 ASP623  PHE694  ASN695  SER759  ASP760  ASP761  ALA762  ILE779  LEU786  VAL792 
 PHE793  MET794  SER795  GLU796  ALA797  LYS798  CYS799  TRP800  GLU811  SER814 

> <Gold.Protein.RotatedAtoms>
  152.2520  134.8122  160.0444 H   0  0  0  0  0  0  0  0  0  0  0  0  # atno 6907 bound_to 6896
  151.8799  133.3488  159.3771 H   0  0  0  0  0  0  0  0  0  0  0  0  # atno 6908 bound_to 6896
  150.7087  134.4956  159.5580 H   0  0  0  0  0  0  0  0  0  0  0  0  # atno 6909 bound_to 6896
  144.7135  140.1569  143.6379 H   0  0  0  0  0  0  0  0  0  0  0  0  # atno 7974 bound_to 7965
  154.9123  140.3016  155.5260 H   0  0  0  0  0  0  0  0  0  0  0  0  # atno 8008 bound_to 7997
  156.3014  140.2387  156.4099 H   0  0  0  0  0  0  0  0  0  0  0  0  # atno 8009 bound_to 7997
  154.8413  140.0413  157.1532 H   0  0  0  0  0  0  0  0  0  0  0  0  # atno 8010 bound_to 7997
  139.9232  144.6199  150.8419 H   0  0  0  0  0  0  0  0  0  0  0  0  # atno 10167 bound_to 10162
  156.0038  130.5097  150.6034 H   0  0  0  0  0  0  0  0  0  0  0  0  # atno 10718 bound_to 10713
  152.9913  135.6167  154.2760 H   0  0  0  0  0  0  0  0  0  0  0  0  # atno 10763 bound_to 10752
  154.2491  135.2786  155.2825 H   0  0  0  0  0  0  0  0  0  0  0  0  # atno 10764 bound_to 10752
  154.5304  135.5790  153.6811 H   0  0  0  0  0  0  0  0  0  0  0  0  # atno 10765 bound_to 10752
  140.4991  134.5911  157.4981 H   0  0  0  0  0  0  0  0  0  0  0  0  # atno 11005 bound_to 11000
  145.9066  139.2462  143.1462 LP  0  0  0  0  0  0  0  0  0  0  0  0  # atno 17320 bound_to 7965
  145.9758  140.8723  143.0139 LP  0  0  0  0  0  0  0  0  0  0  0  0  # atno 17321 bound_to 7965
  140.7657  143.3282  151.2468 LP  0  0  0  0  0  0  0  0  0  0  0  0  # atno 17342 bound_to 10162
  139.6844  143.9799  152.2826 LP  0  0  0  0  0  0  0  0  0  0  0  0  # atno 17343 bound_to 10162
  157.3879  131.0791  151.1420 LP  0  0  0  0  0  0  0  0  0  0  0  0  # atno 17370 bound_to 10713
  157.2121  130.6442  149.5778 LP  0  0  0  0  0  0  0  0  0  0  0  0  # atno 17371 bound_to 10713
  139.9724  134.7271  156.0016 LP  0  0  0  0  0  0  0  0  0  0  0  0  # atno 17394 bound_to 11000
  141.1445  133.6558  156.3826 LP  0  0  0  0  0  0  0  0  0  0  0  0  # atno 17395 bound_to 11000

$$$$
