AV-unprocessed.smi:298|AV-procd|sdf|2262|dock8
  -GOLD-   2262022153D 1   1.00000     0.00000
 Structure written by MMmdl.
 38 40  0  0  0  0  0  0  0  0  1 V2000
  153.9453  142.7104  163.5393 C   0  0  0  0  0  0  0  0  0  0  0  0
  153.2877  142.8786  162.1810 C   0  0  0  0  0  0  0  0  0  0  0  0
  152.4545  143.9976  161.9548 C   0  0  0  0  0  0  0  0  0  0  0  0
  151.8280  144.1934  160.7046 C   0  0  0  0  0  0  0  0  0  0  0  0
  150.9882  145.2036  160.2671 N   0  0  0  0  0  0  0  0  0  0  0  0
  150.7450  144.8273  159.0148 C   0  0  0  0  0  0  0  0  0  0  0  0
  151.3296  143.6913  158.5887 N   0  0  0  0  0  0  0  0  0  0  0  0
  151.2187  143.0889  157.2727 C   0  0  0  0  0  0  0  0  0  0  0  0
  150.1193  142.0071  157.2098 C   0  0  1  0  0  0  0  0  0  0  0  0
  148.8427  142.6171  157.2353 O   0  0  0  0  0  0  0  0  0  0  0  0
  150.2285  141.0871  155.9740 C   0  0  0  0  0  0  0  0  0  0  0  0
  151.4091  140.2381  155.9767 N   0  0  0  0  0  0  0  0  0  0  0  0
  152.1762  139.8228  156.9902 C   0  0  0  0  0  0  0  0  0  0  0  0
  153.1895  139.0499  156.6199 N   0  0  0  0  0  0  0  0  0  0  0  0
  152.9597  139.0308  155.2748 C   0  0  0  0  0  0  0  0  0  0  0  0
  153.8233  138.2946  154.3671 C   0  0  0  0  0  0  0  0  0  0  0  0
  154.5108  137.7083  153.6440 N   0  0  0  0  0  0  0  0  0  0  0  0
  151.9087  139.7160  154.8299 N   0  0  0  0  0  0  0  0  0  0  0  0
  152.0594  143.2309  159.6791 C   0  0  0  0  0  0  0  0  0  0  0  0
  152.8847  142.1127  159.8920 C   0  0  0  0  0  0  0  0  0  0  0  0
  153.5034  141.9325  161.1467 C   0  0  0  0  0  0  0  0  0  0  0  0
  154.3953  140.7232  161.3657 C   0  0  0  0  0  0  0  0  0  0  0  0
  153.6630  143.5135  164.2204 H   0  0  0  0  0  0  0  0  0  0  0  0
  155.0311  142.7212  163.4417 H   0  0  0  0  0  0  0  0  0  0  0  0
  153.6471  141.7658  163.9949 H   0  0  0  0  0  0  0  0  0  0  0  0
  152.2913  144.7191  162.7418 H   0  0  0  0  0  0  0  0  0  0  0  0
  150.1083  145.4127  158.3677 H   0  0  0  0  0  0  0  0  0  0  0  0
  151.0279  143.8839  156.5512 H   0  0  0  0  0  0  0  0  0  0  0  0
  152.1855  142.6570  157.0104 H   0  0  0  0  0  0  0  0  0  0  0  0
  150.1901  141.3847  158.1025 H   0  0  0  0  0  0  0  0  0  0  0  0
  148.9162  143.4839  156.8660 H   0  0  0  0  0  0  0  0  0  0  0  0
  149.3516  140.4407  155.9223 H   0  0  0  0  0  0  0  0  0  0  0  0
  150.2254  141.6792  155.0576 H   0  0  0  0  0  0  0  0  0  0  0  0
  151.9923  140.0972  158.0187 H   0  0  0  0  0  0  0  0  0  0  0  0
  153.0429  141.4020  159.0941 H   0  0  0  0  0  0  0  0  0  0  0  0
  154.4671  140.1129  160.4649 H   0  0  0  0  0  0  0  0  0  0  0  0
  153.9987  140.0958  162.1644 H   0  0  0  0  0  0  0  0  0  0  0  0
  155.4036  141.0357  161.6382 H   0  0  0  0  0  0  0  0  0  0  0  0
  1  2  1  0  0  0  0
  1 23  1  0  0  0  0
  1 24  1  0  0  0  0
  1 25  1  0  0  0  0
  2 21  1  0  0  0  0
  2  3  2  0  0  0  0
  3  4  1  0  0  0  0
  3 26  1  0  0  0  0
  4 19  2  0  0  0  0
  4  5  1  0  0  0  0
  5  6  2  0  0  0  0
  6  7  1  0  0  0  0
  6 27  1  0  0  0  0
  7  8  1  0  0  0  0
  7 19  1  0  0  0  0
  8  9  1  0  0  0  0
  8 28  1  0  0  0  0
  8 29  1  0  0  0  0
  9 10  1  0  0  0  0
  9 11  1  0  0  0  0
  9 30  1  0  0  0  0
 10 31  1  0  0  0  0
 11 12  1  0  0  0  0
 11 32  1  0  0  0  0
 11 33  1  0  0  0  0
 12 18  1  0  0  0  0
 12 13  1  0  0  0  0
 13 14  2  0  0  0  0
 13 34  1  0  0  0  0
 14 15  1  0  0  0  0
 15 16  1  0  0  0  0
 15 18  2  0  0  0  0
 16 17  3  0  0  0  0
 19 20  1  0  0  0  0
 20 21  2  0  0  0  0
 20 35  1  0  0  0  0
 21 22  1  0  0  0  0
 22 36  1  0  0  0  0
 22 37  1  0  0  0  0
 22 38  1  0  0  0  0
M  END
> <s_m_source_file>
AV-unprocessed.smi

> <i_m_source_file_index>
298

> <i_lp_mmshare_version>
43012

> <i_f3d_flags>
0

> <s_epik_input>
W0NIM11jKFtjSF0xKWMoW0NIM10pW2NIXWMoYzEyKW4oW2NIXW4yKVtDSDJdW0NASF0oW09IXSlbQ0gyXW4zW2NIXW5jKG4zKUMjTg==

> <s_epik_cmdline>
J2VwaWtfcHl0aG9uJywgJy1waCcsICc3LjAnLCAnLXRuJywgJzgnLCAnLW1hJywgJzIwMCcsICctbWV0YWxfYmluZGluZycsICctaW1hZScsICc8aW5maWxlLm1hZT4nLCAnLW9tYWUnLCAnPG91dGZpbGUubWFlPic=

> <r_epik_Ionization_Penalty>
0.0968684

> <r_epik_Ionization_Penalty_Charging>
0

> <r_epik_Ionization_Penalty_Neutral>
0.0968684

> <r_epik_State_Penalty>
0.0870047

> <r_epik_Charging_Adjusted_Penalty>
0.0870047

> <i_epik_Tot_Q>
0

> <i_epik_Tot_abs_Q>
0

> <r_epik_Metal_State_Penalty>
0.0746849

> <b_epik_Metal_Only>
0

> <s_lp_Force_Field>
OPLS_2005

> <r_lp_Energy>
12.6861

> <b_lp_Chiralities_Consistent>
1

> <s_lp_Variant>
AV-unprocessed.smi:298-2

> <Gold.Version>
5.8.1

> <Gold.Id.Protein>
6NUR|6NUR_protein|mol2

> <Gold.PLP.Fitness>
62.2891

> <Gold.PLP.PLP>
-51.0553

> <Gold.PLP.part.hbond>
-4.0000

> <Gold.PLP.part.metal>
0.0000

> <Gold.PLP.part.buried>
-0.2404

> <Gold.PLP.part.nonpolar>
-47.3336

> <Gold.PLP.part.repulsive>
0.2872

> <Gold.PLP.ligand.clash>
0.0000

> <Gold.PLP.ligand.torsion>
0.8095

> <Gold.PLP.Chemscore.Hbond>
3.2800

> <Gold.PLP.Chemscore.CHOScore>
1.0000

> <Gold.PLP.Chemscore.Metal>
0.0000

> <Gold.Chemscore.Hbonds>
donor molecule, donor type, donor heavy atom, donor atom, acceptor molecule, acceptor atom, score
      L1  H    10    31       P1  8028  1.00
      P1  H  7989  7998       L1    18  0.96
      P1  H  7997  8008       L1    14  1.00
      P1  H 10752 10764       L1    17  0.31
      L1  C     6    27       P1  8029  1.00

> <Gold.PLP.Chemscore.Internal.Correction>
0.0128

> <Gold.Rescore>
     Score         DG    S(hbond)    S(metal)    S(lipo)     H(rot)  DE(clash)    DE(int)     intcor
     15.23     -17.46       1.99        0.00     112.04       3.03       1.52       0.71       ----

> <Gold.Chemscore.Fitness>
15.2263

> <Gold.Chemscore.DG>
-17.4591

> <Gold.Chemscore.ZeroCoef>
-5.4800

> <Gold.Chemscore.Hbond>
1.9854

> <Gold.Chemscore.Metal>
0.0000

> <Gold.Chemscore.Lipo>
112.0403

> <Gold.Chemscore.Internal_Hbond>
0.0000

> <Gold.Chemscore.DEClash>
1.5237

> <Gold.Chemscore.DEInternal>
0.7091

> <Gold.Chemscore.Rot>
3.0316

> <Gold.Chemscore.Internal.Correction>
   9.000000E+99

> <Gold.Chemscore.Hbonds>
donor molecule, donor type, donor heavy atom, donor atom, acceptor molecule, acceptor atom, score
      L1  H    10    31       P1  8028  0.65
      P1  H  7989  7998       L1    18  0.69
      P1  H  7997  8008       L1    14  0.15
      P1  H 10752 10764       L1    17  0.24

> <Gold.Chemscore.Hbond.Weighted>
-6.6313

> <Gold.Chemscore.Metal.Weighted>
-0.0000

> <Gold.Chemscore.Lipo.Weighted>
-13.1087

> <Gold.Chemscore.Internal_Hbond.Weighted>
0.0000

> <Gold.Chemscore.DEClash.Weighted>
1.5237

> <Gold.Chemscore.DEInternal.Weighted>
0.7091

> <Gold.Chemscore.Rot.Weighted>
7.7609

> <Gold.Chemscore.Internal.Correction.Weighted>
   9.000000E+99

> <Gold.Protein.RotatedTorsions>
[ 6907 6896 6895 6894 ] final  126.66 input  -60.11 | X-H torsion
[ 7974 7965 7964 7962 ] final  133.75 input  175.53 | X-H torsion
[ 8008 7997 7996 7995 ] final  -71.37 input   59.86 | X-H torsion
[ 10167 10162 10161 10158 ] final -161.31 input  -65.29 | X-H torsion
[ 10718 10713 10712 10709 ] final   55.97 input   66.30 | X-H torsion
[ 10763 10752 10751 10750 ] final -159.54 input  -60.55 | X-H torsion
[ 11005 11000 10999 10996 ] final   69.83 input  -57.11 | X-H torsion

> <Gold.Protein.ActiveResidues>
 VAL166  LYS551  ARG553  GLY616  TRP617  ASP618  TYR619  PRO620  LYS621  CYS622 
 ASP623  PHE694  ASN695  SER759  ASP760  ASP761  ALA762  ILE779  LEU786  VAL792 
 PHE793  MET794  SER795  GLU796  ALA797  LYS798  CYS799  TRP800  GLU811  SER814 

> <Gold.Protein.RotatedAtoms>
  152.3883  133.6643  159.6216 H   0  0  0  0  0  0  0  0  0  0  0  0  # atno 6907 bound_to 6896
  150.7797  133.8997  159.3346 H   0  0  0  0  0  0  0  0  0  0  0  0  # atno 6908 bound_to 6896
  151.6789  135.0966  160.0263 H   0  0  0  0  0  0  0  0  0  0  0  0  # atno 6909 bound_to 6896
  144.9833  139.4481  143.5375 H   0  0  0  0  0  0  0  0  0  0  0  0  # atno 7974 bound_to 7965
  154.5083  140.0817  156.7938 H   0  0  0  0  0  0  0  0  0  0  0  0  # atno 8008 bound_to 7997
  155.3844  140.3429  155.4230 H   0  0  0  0  0  0  0  0  0  0  0  0  # atno 8009 bound_to 7997
  156.1542  140.1568  156.8708 H   0  0  0  0  0  0  0  0  0  0  0  0  # atno 8010 bound_to 7997
  139.6474  144.0146  152.2137 H   0  0  0  0  0  0  0  0  0  0  0  0  # atno 10167 bound_to 10162
  157.5391  130.8684  149.8796 H   0  0  0  0  0  0  0  0  0  0  0  0  # atno 10718 bound_to 10713
  154.7466  135.3081  154.8634 H   0  0  0  0  0  0  0  0  0  0  0  0  # atno 10763 bound_to 10752
  153.9433  135.6772  153.4748 H   0  0  0  0  0  0  0  0  0  0  0  0  # atno 10764 bound_to 10752
  153.1062  135.4888  154.8882 H   0  0  0  0  0  0  0  0  0  0  0  0  # atno 10765 bound_to 10752
  139.9631  134.7026  156.0602 H   0  0  0  0  0  0  0  0  0  0  0  0  # atno 11005 bound_to 11000
  146.3413  139.9120  142.8779 LP  0  0  0  0  0  0  0  0  0  0  0  0  # atno 17320 bound_to 7965
  145.2389  141.0002  143.3947 LP  0  0  0  0  0  0  0  0  0  0  0  0  # atno 17321 bound_to 7965
  139.9851  144.6401  150.7865 LP  0  0  0  0  0  0  0  0  0  0  0  0  # atno 17342 bound_to 10162
  140.7521  143.2985  151.3142 LP  0  0  0  0  0  0  0  0  0  0  0  0  # atno 17343 bound_to 10162
  156.0482  130.3723  150.1265 LP  0  0  0  0  0  0  0  0  0  0  0  0  # atno 17370 bound_to 10713
  156.9446  130.9755  151.3510 LP  0  0  0  0  0  0  0  0  0  0  0  0  # atno 17371 bound_to 10713
  141.1310  133.6586  156.3464 LP  0  0  0  0  0  0  0  0  0  0  0  0  # atno 17394 bound_to 11000
  140.5455  134.6079  157.5392 LP  0  0  0  0  0  0  0  0  0  0  0  0  # atno 17395 bound_to 11000

$$$$
