AV-unprocessed.smi:2440|AV-procd|sdf|9616|dock10
  -GOLD-   2272013253D 1   1.00000     0.00000
 Structure written by MMmdl.
 52 54  0  0  0  0  0  0  0  0  2 V2000
  147.8936  133.1640  152.1681 C   0  0  0  0  0  0  0  0  0  0  0  0
  146.5330  133.2118  151.4947 C   0  0  0  0  0  0  0  0  0  0  0  0
  145.9776  132.0364  150.9442 C   0  0  0  0  0  0  0  0  0  0  0  0
  144.7781  131.9953  150.3284 N   0  0  0  0  0  0  0  0  0  0  0  0
  144.0800  133.1455  150.2347 C   0  0  0  0  0  0  0  0  0  0  0  0
  144.5374  134.3745  150.7485 C   0  0  0  0  0  0  0  0  0  0  0  0
  145.7897  134.4140  151.4079 C   0  0  0  0  0  0  0  0  0  0  0  0
  146.3512  135.6093  151.9395 N   0  0  0  0  0  0  0  0  0  0  0  0
  145.7175  136.7095  152.3811 C   0  0  0  0  0  0  0  0  0  0  0  0
  144.4964  136.8558  152.4305 O   0  0  0  0  0  0  0  0  0  0  0  0
  146.5936  137.6397  152.7892 N   0  0  0  0  0  0  0  0  0  0  0  0
  146.2538  138.9524  153.3324 C   0  0  2  0  0  0  0  0  0  0  0  0
  147.3317  139.9778  152.9361 C   0  0  0  0  0  0  0  0  0  0  0  0
  147.0888  141.3316  153.6304 C   0  0  0  0  0  0  0  0  0  0  0  0
  147.0474  141.1922  155.1150 N   0  3  2  0  0  0  0  0  0  0  0  0
  148.3676  140.9040  155.7767 C   0  0  0  0  0  0  0  0  0  0  0  0
  148.3708  141.3308  157.2699 C   0  0  0  0  0  0  0  0  0  0  0  0
  149.7292  141.1104  157.9539 C   0  0  0  0  0  0  0  0  0  0  0  0
  150.8544  141.8340  157.2091 C   0  0  0  0  0  0  0  0  0  0  0  0
  150.9002  141.3783  155.7481 C   0  0  0  0  0  0  0  0  0  0  0  0
  149.5498  141.5996  155.0483 C   0  0  0  0  0  0  0  0  0  0  0  0
  145.9325  140.2713  155.4818 C   0  0  0  0  0  0  0  0  0  0  0  0
  146.1167  138.8711  154.8643 C   0  0  0  0  0  0  0  0  0  0  0  0
  148.3118  132.1571  152.1468 H   0  0  0  0  0  0  0  0  0  0  0  0
  147.8129  133.4730  153.2106 H   0  0  0  0  0  0  0  0  0  0  0  0
  148.5936  133.8300  151.6629 H   0  0  0  0  0  0  0  0  0  0  0  0
  146.5112  131.0987  150.9964 H   0  0  0  0  0  0  0  0  0  0  0  0
  143.1286  133.0878  149.7268 H   0  0  0  0  0  0  0  0  0  0  0  0
  143.9301  135.2564  150.6150 H   0  0  0  0  0  0  0  0  0  0  0  0
  147.3545  135.6006  152.0495 H   0  0  0  0  0  0  0  0  0  0  0  0
  147.5767  137.4216  152.7162 H   0  0  0  0  0  0  0  0  0  0  0  0
  145.3014  139.2992  152.9271 H   0  0  0  0  0  0  0  0  0  0  0  0
  148.3241  139.6023  153.1882 H   0  0  0  0  0  0  0  0  0  0  0  0
  147.3266  140.1161  151.8541 H   0  0  0  0  0  0  0  0  0  0  0  0
  147.8102  142.0769  153.3030 H   0  0  0  0  0  0  0  0  0  0  0  0
  146.1266  141.7261  153.3010 H   0  0  0  0  0  0  0  0  0  0  0  0
  148.5478  139.8296  155.7403 H   0  0  0  0  0  0  0  0  0  0  0  0
  148.0896  142.3815  157.3537 H   0  0  0  0  0  0  0  0  0  0  0  0
  147.6395  140.7637  157.8431 H   0  0  0  0  0  0  0  0  0  0  0  0
  149.6856  141.4593  158.9860 H   0  0  0  0  0  0  0  0  0  0  0  0
  149.9477  140.0426  157.9983 H   0  0  0  0  0  0  0  0  0  0  0  0
  150.6982  142.9125  157.2572 H   0  0  0  0  0  0  0  0  0  0  0  0
  151.8113  141.6358  157.6928 H   0  0  0  0  0  0  0  0  0  0  0  0
  151.6855  141.9176  155.2174 H   0  0  0  0  0  0  0  0  0  0  0  0
  151.1668  140.3216  155.7027 H   0  0  0  0  0  0  0  0  0  0  0  0
  149.6622  141.2222  154.0333 H   0  0  0  0  0  0  0  0  0  0  0  0
  149.3553  142.6701  154.9671 H   0  0  0  0  0  0  0  0  0  0  0  0
  145.7830  140.2078  156.5572 H   0  0  0  0  0  0  0  0  0  0  0  0
  145.0029  140.7002  155.1049 H   0  0  0  0  0  0  0  0  0  0  0  0
  145.2634  138.2429  155.1238 H   0  0  0  0  0  0  0  0  0  0  0  0
  146.9913  138.3849  155.2980 H   0  0  0  0  0  0  0  0  0  0  0  0
  146.7764  142.1006  155.4643 H   0  0  0  0  0  0  0  0  0  0  0  0
  1  2  1  0  0  0  0
  1 24  1  0  0  0  0
  1 25  1  0  0  0  0
  1 26  1  0  0  0  0
  2  7  1  0  0  0  0
  2  3  2  0  0  0  0
  3  4  1  0  0  0  0
  3 27  1  0  0  0  0
  4  5  2  0  0  0  0
  5  6  1  0  0  0  0
  5 28  1  0  0  0  0
  6  7  2  0  0  0  0
  6 29  1  0  0  0  0
  7  8  1  0  0  0  0
  8  9  1  0  0  0  0
  8 30  1  0  0  0  0
  9 10  2  0  0  0  0
  9 11  1  0  0  0  0
 11 12  1  0  0  0  0
 11 31  1  0  0  0  0
 12 23  1  0  0  0  0
 12 13  1  0  0  0  0
 12 32  1  0  0  0  0
 13 14  1  0  0  0  0
 13 33  1  0  0  0  0
 13 34  1  0  0  0  0
 14 15  1  0  0  0  0
 14 35  1  0  0  0  0
 14 36  1  0  0  0  0
 15 16  1  0  0  0  0
 15 22  1  0  0  0  0
 15 52  1  0  0  0  0
 16 21  1  0  0  0  0
 16 17  1  0  0  0  0
 16 37  1  0  0  0  0
 17 18  1  0  0  0  0
 17 38  1  0  0  0  0
 17 39  1  0  0  0  0
 18 19  1  0  0  0  0
 18 40  1  0  0  0  0
 18 41  1  0  0  0  0
 19 20  1  0  0  0  0
 19 42  1  0  0  0  0
 19 43  1  0  0  0  0
 20 21  1  0  0  0  0
 20 44  1  0  0  0  0
 20 45  1  0  0  0  0
 21 46  1  0  0  0  0
 21 47  1  0  0  0  0
 22 23  1  0  0  0  0
 22 48  1  0  0  0  0
 22 49  1  0  0  0  0
 23 50  1  0  0  0  0
 23 51  1  0  0  0  0
M  CHG  1  15   1
M  END
> <s_m_source_file>
AV-unprocessed.smi

> <i_m_source_file_index>
2440

> <i_lp_mmshare_version>
43012

> <i_f3d_flags>
0

> <s_epik_input>
W0NIM11jMVtjSF1uW2NIXVtjSF1jMVtOSF1DKD1PKVtOSF1bQ0hdMltDSDJdW0NIMl1OKFtDSDJdW0NIMl0yKVtDSF0zW0NIMl1bQ0gyXVtDSDJdW0NIMl1bQ0gyXTM=

> <s_epik_cmdline>
J2VwaWtfcHl0aG9uJywgJy1waCcsICc3LjAnLCAnLXRuJywgJzgnLCAnLW1hJywgJzIwMCcsICctbWV0YWxfYmluZGluZycsICctaW1hZScsICc8aW5maWxlLm1hZT4nLCAnLW9tYWUnLCAnPG91dGZpbGUubWFlPic=

> <r_epik_Ionization_Penalty>
0.180356

> <r_epik_Ionization_Penalty_Charging>
0.00171891

> <r_epik_Ionization_Penalty_Neutral>
0.178637

> <r_epik_State_Penalty>
0.173134

> <r_epik_Charging_Adjusted_Penalty>
0.174853

> <i_epik_Tot_Q>
1

> <i_epik_Tot_abs_Q>
1

> <r_epik_Metal_State_Penalty>
0.131816

> <b_epik_Metal_Only>
0

> <s_lp_Force_Field>
OPLS_2005

> <r_lp_Energy>
36.8114

> <b_lp_Chiralities_Consistent>
1

> <s_lp_Variant>
AV-unprocessed.smi:2440-2

> <Gold.Version>
5.8.1

> <Gold.Id.Protein>
6NUR|6NUR_protein|mol2

> <Gold.PLP.Fitness>
43.8349

> <Gold.PLP.PLP>
-34.9159

> <Gold.PLP.part.hbond>
-2.0000

> <Gold.PLP.part.metal>
0.0000

> <Gold.PLP.part.buried>
-2.3016

> <Gold.PLP.part.nonpolar>
-31.2092

> <Gold.PLP.part.repulsive>
0.8202

> <Gold.PLP.ligand.clash>
0.0000

> <Gold.PLP.ligand.torsion>
0.9062

> <Gold.PLP.Chemscore.Hbond>
1.8960

> <Gold.PLP.Chemscore.CHOScore>
1.6661

> <Gold.PLP.Chemscore.Metal>
0.0000

> <Gold.Chemscore.Hbonds>
donor molecule, donor type, donor heavy atom, donor atom, acceptor molecule, acceptor atom, score
      L1  H     8    30       P1  7948  1.00
      L1  H    11    31       P1  7948  0.91
      L1  C     3    27       P1 10747  0.76
      L1  C     5    28       P1 10186  1.00

> <Gold.PLP.Chemscore.Internal.Correction>
0.0449

> <Gold.Rescore>
     Score         DG    S(hbond)    S(metal)    S(lipo)     H(rot)  DE(clash)    DE(int)     intcor
     17.09     -19.80       1.88        0.00      94.33       1.17       0.94       1.78       ----

> <Gold.Chemscore.Fitness>
17.0888

> <Gold.Chemscore.DG>
-19.8010

> <Gold.Chemscore.ZeroCoef>
-5.4800

> <Gold.Chemscore.Hbond>
1.8813

> <Gold.Chemscore.Metal>
0.0000

> <Gold.Chemscore.Lipo>
94.3286

> <Gold.Chemscore.Internal_Hbond>
0.0000

> <Gold.Chemscore.DEClash>
0.9352

> <Gold.Chemscore.DEInternal>
1.7770

> <Gold.Chemscore.Rot>
1.1715

> <Gold.Chemscore.Internal.Correction>
   9.000000E+99

> <Gold.Chemscore.Hbonds>
donor molecule, donor type, donor heavy atom, donor atom, acceptor molecule, acceptor atom, score
      L1  H     8    30       P1  7948  0.98
      L1  H    11    31       P1  7948  0.86

> <Gold.Chemscore.Hbond.Weighted>
-6.2837

> <Gold.Chemscore.Metal.Weighted>
-0.0000

> <Gold.Chemscore.Lipo.Weighted>
-11.0365

> <Gold.Chemscore.Internal_Hbond.Weighted>
0.0000

> <Gold.Chemscore.DEClash.Weighted>
0.9352

> <Gold.Chemscore.DEInternal.Weighted>
1.7770

> <Gold.Chemscore.Rot.Weighted>
2.9991

> <Gold.Chemscore.Internal.Correction.Weighted>
   9.000000E+99

> <Gold.Protein.RotatedTorsions>
[ 6907 6896 6895 6894 ] final  -21.86 input  -60.11 | X-H torsion
[ 7974 7965 7964 7962 ] final  -50.01 input  175.53 | X-H torsion
[ 8008 7997 7996 7995 ] final   41.57 input   59.86 | X-H torsion
[ 10167 10162 10161 10158 ] final   26.41 input  -65.29 | X-H torsion
[ 10718 10713 10712 10709 ] final  -10.58 input   66.30 | X-H torsion
[ 10763 10752 10751 10750 ] final  -90.97 input  -60.55 | X-H torsion
[ 11005 11000 10999 10996 ] final   -1.72 input  -57.11 | X-H torsion

> <Gold.Protein.ActiveResidues>
 VAL166  LYS551  ARG553  GLY616  TRP617  ASP618  TYR619  PRO620  LYS621  CYS622 
 ASP623  PHE694  ASN695  SER759  ASP760  ASP761  ALA762  ILE779  LEU786  VAL792 
 PHE793  MET794  SER795  GLU796  ALA797  LYS798  CYS799  TRP800  GLU811  SER814 

> <Gold.Protein.RotatedAtoms>
  151.2271  135.0540  159.8972 H   0  0  0  0  0  0  0  0  0  0  0  0  # atno 6907 bound_to 6896
  152.5409  134.0577  159.8148 H   0  0  0  0  0  0  0  0  0  0  0  0  # atno 6908 bound_to 6896
  151.0751  133.5386  159.2656 H   0  0  0  0  0  0  0  0  0  0  0  0  # atno 6909 bound_to 6896
  145.9344  140.7720  142.9583 H   0  0  0  0  0  0  0  0  0  0  0  0  # atno 7974 bound_to 7965
  155.2718  140.3366  155.4264 H   0  0  0  0  0  0  0  0  0  0  0  0  # atno 8008 bound_to 7997
  156.2129  140.1777  156.7696 H   0  0  0  0  0  0  0  0  0  0  0  0  # atno 8009 bound_to 7997
  154.5712  140.0670  156.8951 H   0  0  0  0  0  0  0  0  0  0  0  0  # atno 8010 bound_to 7997
  140.5025  144.0292  150.6338 H   0  0  0  0  0  0  0  0  0  0  0  0  # atno 10167 bound_to 10162
  156.6714  130.5010  149.5999 H   0  0  0  0  0  0  0  0  0  0  0  0  # atno 10718 bound_to 10713
  154.6712  135.5285  153.8141 H   0  0  0  0  0  0  0  0  0  0  0  0  # atno 10763 bound_to 10752
  153.0503  135.6529  154.0721 H   0  0  0  0  0  0  0  0  0  0  0  0  # atno 10764 bound_to 10752
  154.0620  135.2961  155.3303 H   0  0  0  0  0  0  0  0  0  0  0  0  # atno 10765 bound_to 10752
  140.6505  133.9409  155.8377 H   0  0  0  0  0  0  0  0  0  0  0  0  # atno 11005 bound_to 11000
  144.6769  140.2179  143.7369 LP  0  0  0  0  0  0  0  0  0  0  0  0  # atno 17320 bound_to 7965
  145.8383  139.2118  143.1842 LP  0  0  0  0  0  0  0  0  0  0  0  0  # atno 17321 bound_to 7965
  140.3592  143.2918  152.0402 LP  0  0  0  0  0  0  0  0  0  0  0  0  # atno 17342 bound_to 10162
  139.4875  144.6315  151.7059 LP  0  0  0  0  0  0  0  0  0  0  0  0  # atno 17343 bound_to 10162
  156.1936  130.6575  151.1089 LP  0  0  0  0  0  0  0  0  0  0  0  0  # atno 17370 bound_to 10713
  157.7076  131.0749  150.6614 LP  0  0  0  0  0  0  0  0  0  0  0  0  # atno 17371 bound_to 10713
  141.0540  134.0443  157.3746 LP  0  0  0  0  0  0  0  0  0  0  0  0  # atno 17394 bound_to 11000
  139.9048  135.0176  156.7434 LP  0  0  0  0  0  0  0  0  0  0  0  0  # atno 17395 bound_to 11000

$$$$
