AV-unprocessed.smi:1211|AV-procd|sdf|5078|dock9
  -GOLD-   22720 4133D 1   1.00000     0.00000
 Structure written by MMmdl.
 47 49  0  0  0  0  0  0  0  0  1 V2000
  143.9480  134.8165  152.2067 C   0  0  0  0  0  0  0  0  0  0  0  0
  144.5711  133.8590  151.2037 C   0  0  0  0  0  0  0  0  0  0  0  0
  143.7326  133.1237  150.3391 C   0  0  0  0  0  0  0  0  0  0  0  0
  144.3099  132.2395  149.4117 C   0  0  0  0  0  0  0  0  0  0  0  0
  145.7107  132.1287  149.3873 C   0  0  0  0  0  0  0  0  0  0  0  0
  146.5195  132.8274  150.2095 N   0  0  0  0  0  0  0  0  0  0  0  0
  145.9781  133.6845  151.1113 C   0  0  0  0  0  0  0  0  0  0  0  0
  146.7688  134.4517  152.0123 N   0  0  0  0  0  0  0  0  0  0  0  0
  146.7050  134.4949  153.3547 C   0  0  0  0  0  0  0  0  0  0  0  0
  145.9262  133.8487  154.0561 O   0  0  0  0  0  0  0  0  0  0  0  0
  147.6140  135.3421  153.8526 N   0  0  0  0  0  0  0  0  0  0  0  0
  147.8164  135.6032  155.2742 C   0  0  0  0  0  0  0  0  0  0  0  0
  149.3279  135.7947  155.6214 C   0  0  1  0  0  0  0  0  0  0  0  0
  149.8617  137.0198  154.9502 N   0  0  0  0  0  0  0  0  0  0  0  0
  149.1338  138.2706  155.2085 C   0  0  0  0  0  0  0  0  0  0  0  0
  149.7042  139.4559  154.4100 C   0  0  0  0  0  0  0  0  0  0  0  0
  151.0858  139.6146  154.7018 O   0  0  0  0  0  0  0  0  0  0  0  0
  151.8365  138.4486  154.3908 C   0  0  0  0  0  0  0  0  0  0  0  0
  151.2919  137.2547  155.1919 C   0  0  0  0  0  0  0  0  0  0  0  0
  149.4496  135.8364  157.1727 C   0  0  0  0  0  0  0  0  0  0  0  0
  149.1953  134.4347  157.7389 C   0  0  0  0  0  0  0  0  0  0  0  0
  149.7935  133.2421  156.5184 S   0  0  0  0  0  0  0  0  0  0  0  0
  150.0855  134.4970  155.2410 C   0  0  0  0  0  0  0  0  0  0  0  0
  142.8600  134.8122  152.1361 H   0  0  0  0  0  0  0  0  0  0  0  0
  144.2918  135.8355  152.0262 H   0  0  0  0  0  0  0  0  0  0  0  0
  144.2190  134.5338  153.2242 H   0  0  0  0  0  0  0  0  0  0  0  0
  142.6590  133.2338  150.3834 H   0  0  0  0  0  0  0  0  0  0  0  0
  143.6957  131.6622  148.7366 H   0  0  0  0  0  0  0  0  0  0  0  0
  146.1949  131.4614  148.6898 H   0  0  0  0  0  0  0  0  0  0  0  0
  147.4680  135.0371  151.5801 H   0  0  0  0  0  0  0  0  0  0  0  0
  148.2202  135.8320  153.2110 H   0  0  0  0  0  0  0  0  0  0  0  0
  147.2276  136.4771  155.5518 H   0  0  0  0  0  0  0  0  0  0  0  0
  147.3746  134.7897  155.8495 H   0  0  0  0  0  0  0  0  0  0  0  0
  148.0884  138.1824  154.9229 H   0  0  0  0  0  0  0  0  0  0  0  0
  149.1587  138.5189  156.2688 H   0  0  0  0  0  0  0  0  0  0  0  0
  149.5666  139.3020  153.3385 H   0  0  0  0  0  0  0  0  0  0  0  0
  149.1784  140.3744  154.6706 H   0  0  0  0  0  0  0  0  0  0  0  0
  151.7884  138.2484  153.3193 H   0  0  0  0  0  0  0  0  0  0  0  0
  152.8838  138.6236  154.6370 H   0  0  0  0  0  0  0  0  0  0  0  0
  151.4665  137.4306  156.2539 H   0  0  0  0  0  0  0  0  0  0  0  0
  151.8851  136.3859  154.9157 H   0  0  0  0  0  0  0  0  0  0  0  0
  150.4608  136.0882  157.4834 H   0  0  0  0  0  0  0  0  0  0  0  0
  148.7943  136.5789  157.6288 H   0  0  0  0  0  0  0  0  0  0  0  0
  149.6946  134.2883  158.6967 H   0  0  0  0  0  0  0  0  0  0  0  0
  148.1303  134.2689  157.9017 H   0  0  0  0  0  0  0  0  0  0  0  0
  149.7956  134.1133  154.2623 H   0  0  0  0  0  0  0  0  0  0  0  0
  151.1621  134.6566  155.2114 H   0  0  0  0  0  0  0  0  0  0  0  0
  1  2  1  0  0  0  0
  1 24  1  0  0  0  0
  1 25  1  0  0  0  0
  1 26  1  0  0  0  0
  2  7  1  0  0  0  0
  2  3  2  0  0  0  0
  3  4  1  0  0  0  0
  3 27  1  0  0  0  0
  4  5  2  0  0  0  0
  4 28  1  0  0  0  0
  5  6  1  0  0  0  0
  5 29  1  0  0  0  0
  6  7  2  0  0  0  0
  7  8  1  0  0  0  0
  8  9  1  0  0  0  0
  8 30  1  0  0  0  0
  9 10  2  0  0  0  0
  9 11  1  0  0  0  0
 11 12  1  0  0  0  0
 11 31  1  0  0  0  0
 12 13  1  0  0  0  0
 12 32  1  0  0  0  0
 12 33  1  0  0  0  0
 13 23  1  0  0  0  0
 13 14  1  0  0  0  0
 13 20  1  0  0  0  0
 14 19  1  0  0  0  0
 14 15  1  0  0  0  0
 15 16  1  0  0  0  0
 15 34  1  0  0  0  0
 15 35  1  0  0  0  0
 16 17  1  0  0  0  0
 16 36  1  0  0  0  0
 16 37  1  0  0  0  0
 17 18  1  0  0  0  0
 18 19  1  0  0  0  0
 18 38  1  0  0  0  0
 18 39  1  0  0  0  0
 19 40  1  0  0  0  0
 19 41  1  0  0  0  0
 20 21  1  0  0  0  0
 20 42  1  0  0  0  0
 20 43  1  0  0  0  0
 21 22  1  0  0  0  0
 21 44  1  0  0  0  0
 21 45  1  0  0  0  0
 22 23  1  0  0  0  0
 23 46  1  0  0  0  0
 23 47  1  0  0  0  0
M  END
> <s_m_source_file>
AV-unprocessed.smi

> <i_m_source_file_index>
1211

> <i_lp_mmshare_version>
43012

> <i_f3d_flags>
0

> <s_epik_input>
W0NIM11jMVtjSF1bY0hdW2NIXW5jMVtOSF1DKD1PKVtOSF1bQ0gyXVtDQF0yKFtDSDJdW0NIMl1TW0NIMl0yKU4zW0NIMl1bQ0gyXU9bQ0gyXVtDSDJdMw==

> <s_epik_cmdline>
J2VwaWtfcHl0aG9uJywgJy1waCcsICc3LjAnLCAnLXRuJywgJzgnLCAnLW1hJywgJzIwMCcsICctbWV0YWxfYmluZGluZycsICctaW1hZScsICc8aW5maWxlLm1hZT4nLCAnLW9tYWUnLCAnPG91dGZpbGUubWFlPic=

> <r_epik_Ionization_Penalty>
0.0195636

> <r_epik_Ionization_Penalty_Charging>
0

> <r_epik_Ionization_Penalty_Neutral>
0.0195636

> <r_epik_State_Penalty>
0.0155843

> <r_epik_Charging_Adjusted_Penalty>
0.0155843

> <i_epik_Tot_Q>
0

> <i_epik_Tot_abs_Q>
0

> <r_epik_Metal_State_Penalty>
0.0155842

> <b_epik_Metal_Only>
0

> <s_lp_Force_Field>
OPLS_2005

> <r_lp_Energy>
55.2683

> <b_lp_Chiralities_Consistent>
1

> <s_lp_Variant>
AV-unprocessed.smi:1211-1

> <Gold.Version>
5.8.1

> <Gold.Id.Protein>
6NUR|6NUR_protein|mol2

> <Gold.PLP.Fitness>
41.4352

> <Gold.PLP.PLP>
-33.9252

> <Gold.PLP.part.hbond>
-3.0000

> <Gold.PLP.part.metal>
0.0000

> <Gold.PLP.part.buried>
-3.9993

> <Gold.PLP.part.nonpolar>
-27.3405

> <Gold.PLP.part.repulsive>
0.6770

> <Gold.PLP.ligand.clash>
0.0000

> <Gold.PLP.ligand.torsion>
0.7283

> <Gold.PLP.Chemscore.Hbond>
2.9600

> <Gold.PLP.Chemscore.CHOScore>
0.0000

> <Gold.PLP.Chemscore.Metal>
0.0000

> <Gold.Chemscore.Hbonds>
donor molecule, donor type, donor heavy atom, donor atom, acceptor molecule, acceptor atom, score
      L1  H     8    30       P1  7948  0.96
      L1  H    11    31       P1  7948  1.00
      P1  H  7989  7998       L1    17  1.00

> <Gold.PLP.Chemscore.Internal.Correction>
0.0866

> <Gold.Rescore>
     Score         DG    S(hbond)    S(metal)    S(lipo)     H(rot)  DE(clash)    DE(int)     intcor
     14.86     -18.72       2.04        0.00      86.58       1.44       0.82       3.04       ----

> <Gold.Chemscore.Fitness>
14.8556

> <Gold.Chemscore.DG>
-18.7229

> <Gold.Chemscore.ZeroCoef>
-5.4800

> <Gold.Chemscore.Hbond>
2.0363

> <Gold.Chemscore.Metal>
0.0000

> <Gold.Chemscore.Lipo>
86.5754

> <Gold.Chemscore.Internal_Hbond>
0.0000

> <Gold.Chemscore.DEClash>
0.8240

> <Gold.Chemscore.DEInternal>
3.0433

> <Gold.Chemscore.Rot>
1.4405

> <Gold.Chemscore.Internal.Correction>
   9.000000E+99

> <Gold.Chemscore.Hbonds>
donor molecule, donor type, donor heavy atom, donor atom, acceptor molecule, acceptor atom, score
      L1  H     8    30       P1  7948  0.65
      L1  H    11    31       P1  7948  0.97
      P1  H  7989  7998       L1    17  0.22

> <Gold.Chemscore.Hbond.Weighted>
-6.8012

> <Gold.Chemscore.Metal.Weighted>
-0.0000

> <Gold.Chemscore.Lipo.Weighted>
-10.1293

> <Gold.Chemscore.Internal_Hbond.Weighted>
0.0000

> <Gold.Chemscore.DEClash.Weighted>
0.8240

> <Gold.Chemscore.DEInternal.Weighted>
3.0433

> <Gold.Chemscore.Rot.Weighted>
3.6876

> <Gold.Chemscore.Internal.Correction.Weighted>
   9.000000E+99

> <Gold.Protein.RotatedTorsions>
[ 6907 6896 6895 6894 ] final  168.70 input  -60.11 | X-H torsion
[ 7974 7965 7964 7962 ] final  133.83 input  175.53 | X-H torsion
[ 8008 7997 7996 7995 ] final -142.61 input   59.86 | X-H torsion
[ 10167 10162 10161 10158 ] final  -19.33 input  -65.29 | X-H torsion
[ 10718 10713 10712 10709 ] final -154.37 input   66.30 | X-H torsion
[ 10763 10752 10751 10750 ] final -121.63 input  -60.55 | X-H torsion
[ 11005 11000 10999 10996 ] final  155.03 input  -57.11 | X-H torsion

> <Gold.Protein.ActiveResidues>
 VAL166  LYS551  ARG553  GLY616  TRP617  ASP618  TYR619  PRO620  LYS621  CYS622 
 ASP623  PHE694  ASN695  SER759  ASP760  ASP761  ALA762  ILE779  LEU786  VAL792 
 PHE793  MET794  SER795  GLU796  ALA797  LYS798  CYS799  TRP800  GLU811  SER814 

> <Gold.Protein.RotatedAtoms>
  151.8435  133.3427  159.3650 H   0  0  0  0  0  0  0  0  0  0  0  0  # atno 6907 bound_to 6896
  150.7227  134.5368  159.5737 H   0  0  0  0  0  0  0  0  0  0  0  0  # atno 6908 bound_to 6896
  152.2846  134.7790  160.0441 H   0  0  0  0  0  0  0  0  0  0  0  0  # atno 6909 bound_to 6896
  144.9825  139.4489  143.5379 H   0  0  0  0  0  0  0  0  0  0  0  0  # atno 7974 bound_to 7965
  155.4970  140.0572  157.2945 H   0  0  0  0  0  0  0  0  0  0  0  0  # atno 8008 bound_to 7997
  154.4601  140.1992  156.0218 H   0  0  0  0  0  0  0  0  0  0  0  0  # atno 8009 bound_to 7997
  156.0874  140.3238  155.7776 H   0  0  0  0  0  0  0  0  0  0  0  0  # atno 8010 bound_to 7997
  140.7267  143.4829  151.0094 H   0  0  0  0  0  0  0  0  0  0  0  0  # atno 10167 bound_to 10162
  156.4984  130.8380  151.2599 H   0  0  0  0  0  0  0  0  0  0  0  0  # atno 10718 bound_to 10713
  154.8672  135.4161  154.2652 H   0  0  0  0  0  0  0  0  0  0  0  0  # atno 10763 bound_to 10752
  153.3572  135.7001  153.6746 H   0  0  0  0  0  0  0  0  0  0  0  0  # atno 10764 bound_to 10752
  153.5662  135.3600  155.2792 H   0  0  0  0  0  0  0  0  0  0  0  0  # atno 10765 bound_to 10752
  140.1544  134.8653  157.2495 H   0  0  0  0  0  0  0  0  0  0  0  0  # atno 11005 bound_to 11000
  146.3412  139.9107  142.8780 LP  0  0  0  0  0  0  0  0  0  0  0  0  # atno 17320 bound_to 7965
  145.2400  141.0005  143.3941 LP  0  0  0  0  0  0  0  0  0  0  0  0  # atno 17321 bound_to 7965
  139.8528  143.7415  152.3177 LP  0  0  0  0  0  0  0  0  0  0  0  0  # atno 17342 bound_to 10162
  139.7604  144.7508  151.0373 LP  0  0  0  0  0  0  0  0  0  0  0  0  # atno 17343 bound_to 10162
  157.7466  130.9990  150.2873 LP  0  0  0  0  0  0  0  0  0  0  0  0  # atno 17370 bound_to 10713
  156.3357  130.3807  149.7452 LP  0  0  0  0  0  0  0  0  0  0  0  0  # atno 17371 bound_to 10713
  140.2566  134.3621  155.7422 LP  0  0  0  0  0  0  0  0  0  0  0  0  # atno 17394 bound_to 11000
  141.2202  133.7346  156.9016 LP  0  0  0  0  0  0  0  0  0  0  0  0  # atno 17395 bound_to 11000

$$$$
