AV-unprocessed.smi:413|AV-procd|sdf|2513|dock5
  -GOLD-   2262022463D 1   1.00000     0.00000
 Structure written by MMmdl.
 40 42  0  0  0  0  0  0  0  0  1 V2000
  150.6977  142.5190  156.2259 C   0  0  0  0  0  0  0  0  0  0  0  0
  151.3383  141.2743  156.6328 N   0  0  0  0  0  0  0  0  0  0  0  0
  151.3885  140.1164  155.9331 C   0  0  0  0  0  0  0  0  0  0  0  0
  150.8935  139.9182  154.8237 O   0  0  0  0  0  0  0  0  0  0  0  0
  152.0747  139.2115  156.6704 N   0  0  0  0  0  0  0  0  0  0  0  0
  152.3482  137.8227  156.3078 C   0  0  0  0  0  0  0  0  0  0  0  0
  151.2277  137.2323  155.4282 C   0  0  1  0  0  0  0  0  0  0  0  0
  151.6263  137.1999  154.0729 O   0  0  0  0  0  0  0  0  0  0  0  0
  150.8303  135.8042  155.8369 C   0  0  0  0  0  0  0  0  0  0  0  0
  149.9887  135.2338  154.8417 O   0  0  0  0  0  0  0  0  0  0  0  0
  149.9349  133.8608  154.7376 C   0  0  0  0  0  0  0  0  0  0  0  0
  149.1189  133.3293  153.7175 C   0  0  0  0  0  0  0  0  0  0  0  0
  149.0059  131.9375  153.5361 C   0  0  0  0  0  0  0  0  0  0  0  0
  149.7118  131.0592  154.3785 C   0  0  0  0  0  0  0  0  0  0  0  0
  149.6051  129.7206  154.2056 F   0  0  0  0  0  0  0  0  0  0  0  0
  150.5292  131.5754  155.4010 C   0  0  0  0  0  0  0  0  0  0  0  0
  150.6419  132.9677  155.5826 C   0  0  0  0  0  0  0  0  0  0  0  0
  152.4611  139.8033  157.8815 C   0  0  0  0  0  0  0  0  0  0  0  0
  153.1716  139.2877  158.9795 C   0  0  0  0  0  0  0  0  0  0  0  0
  153.3976  140.1601  160.0701 C   0  0  0  0  0  0  0  0  0  0  0  0
  152.9200  141.4965  160.0435 C   0  0  0  0  0  0  0  0  0  0  0  0
  152.2062  141.9892  158.9258 C   0  0  0  0  0  0  0  0  0  0  0  0
  151.9972  141.1014  157.8565 C   0  0  0  0  0  0  0  0  0  0  0  0
  150.3615  142.4861  155.1888 H   0  0  0  0  0  0  0  0  0  0  0  0
  151.3934  143.3527  156.3251 H   0  0  0  0  0  0  0  0  0  0  0  0
  149.8316  142.7196  156.8568 H   0  0  0  0  0  0  0  0  0  0  0  0
  153.3198  137.7302  155.8191 H   0  0  0  0  0  0  0  0  0  0  0  0
  152.4285  137.2508  157.2330 H   0  0  0  0  0  0  0  0  0  0  0  0
  150.3362  137.8578  155.4909 H   0  0  0  0  0  0  0  0  0  0  0  0
  150.8524  137.2508  153.5323 H   0  0  0  0  0  0  0  0  0  0  0  0
  151.7366  135.2026  155.9233 H   0  0  0  0  0  0  0  0  0  0  0  0
  150.3409  135.8081  156.8125 H   0  0  0  0  0  0  0  0  0  0  0  0
  148.5738  133.9969  153.0662 H   0  0  0  0  0  0  0  0  0  0  0  0
  148.3781  131.5448  152.7500 H   0  0  0  0  0  0  0  0  0  0  0  0
  151.0717  130.9022  156.0483 H   0  0  0  0  0  0  0  0  0  0  0  0
  151.2779  133.3250  156.3779 H   0  0  0  0  0  0  0  0  0  0  0  0
  153.5298  138.2689  158.9946 H   0  0  0  0  0  0  0  0  0  0  0  0
  153.9393  139.8042  160.9340 H   0  0  0  0  0  0  0  0  0  0  0  0
  153.1027  142.1455  160.8875 H   0  0  0  0  0  0  0  0  0  0  0  0
  151.8378  143.0041  158.8985 H   0  0  0  0  0  0  0  0  0  0  0  0
  1  2  1  0  0  0  0
  1 24  1  0  0  0  0
  1 25  1  0  0  0  0
  1 26  1  0  0  0  0
  2 23  1  0  0  0  0
  2  3  1  0  0  0  0
  3  4  2  0  0  0  0
  3  5  1  0  0  0  0
  5  6  1  0  0  0  0
  5 18  1  0  0  0  0
  6  7  1  0  0  0  0
  6 27  1  0  0  0  0
  6 28  1  0  0  0  0
  7  8  1  0  0  0  0
  7  9  1  0  0  0  0
  7 29  1  0  0  0  0
  8 30  1  0  0  0  0
  9 10  1  0  0  0  0
  9 31  1  0  0  0  0
  9 32  1  0  0  0  0
 10 11  1  0  0  0  0
 11 17  1  0  0  0  0
 11 12  2  0  0  0  0
 12 13  1  0  0  0  0
 12 33  1  0  0  0  0
 13 14  2  0  0  0  0
 13 34  1  0  0  0  0
 14 15  1  0  0  0  0
 14 16  1  0  0  0  0
 16 17  2  0  0  0  0
 16 35  1  0  0  0  0
 17 36  1  0  0  0  0
 18 23  2  0  0  0  0
 18 19  1  0  0  0  0
 19 20  2  0  0  0  0
 19 37  1  0  0  0  0
 20 21  1  0  0  0  0
 20 38  1  0  0  0  0
 21 22  2  0  0  0  0
 21 39  1  0  0  0  0
 22 23  1  0  0  0  0
 22 40  1  0  0  0  0
M  END
> <s_m_source_file>
AV-unprocessed.smi

> <i_m_source_file_index>
413

> <i_lp_mmshare_version>
43012

> <i_f3d_flags>
0

> <s_epik_input>
W2NIXTFbY0hdW2NIXVtjSF1jKGMxMiluKFtDSDNdKWMoPU8pbjJbQ0gyXVtDQEhdKFtPSF0pW0NIMl1PYzNbY0hdW2NIXWMoRilbY0hdW2NIXTM=

> <s_epik_cmdline>
J2VwaWtfcHl0aG9uJywgJy1waCcsICc3LjAnLCAnLXRuJywgJzgnLCAnLW1hJywgJzIwMCcsICctbWV0YWxfYmluZGluZycsICctaW1hZScsICc8aW5maWxlLm1hZT4nLCAnLW9tYWUnLCAnPG91dGZpbGUubWFlPic=

> <r_lp_tautomer_probability>
1

> <r_epik_Ionization_Penalty>
2.40172e-06

> <r_epik_Ionization_Penalty_Charging>
2.42369e-09

> <r_epik_Ionization_Penalty_Neutral>
2.3993e-06

> <r_epik_State_Penalty>
-0

> <r_epik_Charging_Adjusted_Penalty>
2.42369e-09

> <i_epik_Tot_Q>
0

> <i_epik_Tot_abs_Q>
0

> <r_epik_Metal_State_Penalty>
-0

> <b_epik_Metal_Only>
0

> <s_lp_Force_Field>
OPLS_2005

> <r_lp_Energy>
47.225

> <b_lp_Chiralities_Consistent>
1

> <s_lp_Variant>
AV-unprocessed.smi:413-2

> <Gold.Version>
5.8.1

> <Gold.Id.Protein>
6NUR|6NUR_protein|mol2

> <Gold.PLP.Fitness>
48.1030

> <Gold.PLP.PLP>
-44.4027

> <Gold.PLP.part.hbond>
-3.0000

> <Gold.PLP.part.metal>
0.0000

> <Gold.PLP.part.buried>
-4.3647

> <Gold.PLP.part.nonpolar>
-36.4470

> <Gold.PLP.part.repulsive>
0.2258

> <Gold.PLP.ligand.clash>
0.0000

> <Gold.PLP.ligand.torsion>
1.1867

> <Gold.PLP.Chemscore.Hbond>
2.0098

> <Gold.PLP.Chemscore.CHOScore>
0.0000

> <Gold.PLP.Chemscore.Metal>
0.0000

> <Gold.Chemscore.Hbonds>
donor molecule, donor type, donor heavy atom, donor atom, acceptor molecule, acceptor atom, score
      L1  H     8    30       P1  7949  0.01
      P1  H  7989  7998       L1     4  1.00
      P1  H 10752 10765       L1     8  0.99

> <Gold.PLP.Chemscore.Internal.Correction>
0.0442

> <Gold.Rescore>
     Score         DG    S(hbond)    S(metal)    S(lipo)     H(rot)  DE(clash)    DE(int)     intcor
     14.90     -17.65       1.83        0.00     101.38       2.27       0.05       2.70       ----

> <Gold.Chemscore.Fitness>
14.8954

> <Gold.Chemscore.DG>
-17.6476

> <Gold.Chemscore.ZeroCoef>
-5.4800

> <Gold.Chemscore.Hbond>
1.8322

> <Gold.Chemscore.Metal>
0.0000

> <Gold.Chemscore.Lipo>
101.3765

> <Gold.Chemscore.Internal_Hbond>
0.0000

> <Gold.Chemscore.DEClash>
0.0477

> <Gold.Chemscore.DEInternal>
2.7045

> <Gold.Chemscore.Rot>
2.2706

> <Gold.Chemscore.Internal.Correction>
   9.000000E+99

> <Gold.Chemscore.Hbonds>
donor molecule, donor type, donor heavy atom, donor atom, acceptor molecule, acceptor atom, score
      P1  H  7989  7998       L1     4  0.91
      P1  H 10752 10765       L1     8  0.32

> <Gold.Chemscore.Hbond.Weighted>
-6.1194

> <Gold.Chemscore.Metal.Weighted>
-0.0000

> <Gold.Chemscore.Lipo.Weighted>
-11.8611

> <Gold.Chemscore.Internal_Hbond.Weighted>
0.0000

> <Gold.Chemscore.DEClash.Weighted>
0.0477

> <Gold.Chemscore.DEInternal.Weighted>
2.7045

> <Gold.Chemscore.Rot.Weighted>
5.8128

> <Gold.Chemscore.Internal.Correction.Weighted>
   9.000000E+99

> <Gold.Protein.RotatedTorsions>
[ 6907 6896 6895 6894 ] final  138.49 input  -60.11 | X-H torsion
[ 7974 7965 7964 7962 ] final   30.56 input  175.53 | X-H torsion
[ 8008 7997 7996 7995 ] final   13.21 input   59.86 | X-H torsion
[ 10167 10162 10161 10158 ] final  -67.54 input  -65.29 | X-H torsion
[ 10718 10713 10712 10709 ] final -151.84 input   66.30 | X-H torsion
[ 10763 10752 10751 10750 ] final  147.81 input  -60.55 | X-H torsion
[ 11005 11000 10999 10996 ] final  -85.48 input  -57.11 | X-H torsion

> <Gold.Protein.ActiveResidues>
 VAL166  LYS551  ARG553  GLY616  TRP617  ASP618  TYR619  PRO620  LYS621  CYS622 
 ASP623  PHE694  ASN695  SER759  ASP760  ASP761  ALA762  ILE779  LEU786  VAL792 
 PHE793  MET794  SER795  GLU796  ALA797  LYS798  CYS799  TRP800  GLU811  SER814 

> <Gold.Protein.RotatedAtoms>
  152.2660  133.5339  159.5410 H   0  0  0  0  0  0  0  0  0  0  0  0  # atno 6907 bound_to 6896
  150.7142  134.0764  159.3891 H   0  0  0  0  0  0  0  0  0  0  0  0  # atno 6908 bound_to 6896
  151.8680  135.0500  160.0527 H   0  0  0  0  0  0  0  0  0  0  0  0  # atno 6909 bound_to 6896
  146.1604  139.6773  142.9037 H   0  0  0  0  0  0  0  0  0  0  0  0  # atno 7974 bound_to 7965
  154.8312  140.2900  155.5721 H   0  0  0  0  0  0  0  0  0  0  0  0  # atno 8008 bound_to 7997
  156.3005  140.2531  156.3169 H   0  0  0  0  0  0  0  0  0  0  0  0  # atno 8009 bound_to 7997
  154.9229  140.0385  157.1996 H   0  0  0  0  0  0  0  0  0  0  0  0  # atno 8010 bound_to 7997
  140.5575  143.2312  151.6793 H   0  0  0  0  0  0  0  0  0  0  0  0  # atno 10167 bound_to 10162
  156.4646  130.8229  151.2460 H   0  0  0  0  0  0  0  0  0  0  0  0  # atno 10718 bound_to 10713
  154.0444  135.2887  155.3350 H   0  0  0  0  0  0  0  0  0  0  0  0  # atno 10763 bound_to 10752
  154.6909  135.5227  153.8394 H   0  0  0  0  0  0  0  0  0  0  0  0  # atno 10764 bound_to 10752
  153.0586  135.6605  154.0645 H   0  0  0  0  0  0  0  0  0  0  0  0  # atno 10765 bound_to 10752
  141.1641  133.7402  156.9021 H   0  0  0  0  0  0  0  0  0  0  0  0  # atno 11005 bound_to 11000
  145.4601  141.0432  143.2756 LP  0  0  0  0  0  0  0  0  0  0  0  0  # atno 17320 bound_to 7965
  144.8020  139.6123  143.7067 LP  0  0  0  0  0  0  0  0  0  0  0  0  # atno 17321 bound_to 7965
  139.5054  144.3717  152.0463 LP  0  0  0  0  0  0  0  0  0  0  0  0  # atno 17342 bound_to 10162
  140.2840  144.3828  150.6110 LP  0  0  0  0  0  0  0  0  0  0  0  0  # atno 17343 bound_to 10162
  157.7495  131.0096  150.3273 LP  0  0  0  0  0  0  0  0  0  0  0  0  # atno 17370 bound_to 10713
  156.3681  130.3858  149.7197 LP  0  0  0  0  0  0  0  0  0  0  0  0  # atno 17371 bound_to 10713
  140.1575  134.9188  157.2672 LP  0  0  0  0  0  0  0  0  0  0  0  0  # atno 17394 bound_to 11000
  140.2650  134.3527  155.7393 LP  0  0  0  0  0  0  0  0  0  0  0  0  # atno 17395 bound_to 11000

$$$$
