AV-unprocessed.smi:193|AV-procd|sdf|1516|dock8
  -GOLD-   2262019353D 1   1.00000     0.00000
 Structure written by MMmdl.
 61 65  0  0  0  0  0  0  0  0  1 V2000
  153.0012  138.6920  158.0846 C   0  0  0  0  0  0  0  0  0  0  0  0
  151.8622  139.6476  157.7011 C   0  0  2  0  0  0  0  0  0  0  0  0
  151.8925  139.9493  156.1878 C   0  0  0  0  0  0  0  0  0  0  0  0
  150.5658  140.3202  155.6893 N   0  0  0  0  0  0  0  0  0  0  0  0
  149.6797  139.3242  155.3967 C   0  0  0  0  0  0  0  0  0  0  0  0
  149.9342  138.0893  155.9060 N   0  0  0  0  0  0  0  0  0  0  0  0
  149.1184  137.0618  155.6598 C   0  0  0  0  0  0  0  0  0  0  0  0
  148.0006  137.0425  154.9356 N   0  0  0  0  0  0  0  0  0  0  0  0
  147.7283  138.2728  154.4170 C   0  0  0  0  0  0  0  0  0  0  0  0
  148.5013  139.4587  154.5961 C   0  0  0  0  0  0  0  0  0  0  0  0
  147.8810  140.5109  153.9281 N   0  0  0  0  0  0  0  0  0  0  0  0
  146.8204  139.9810  153.3863 C   0  0  0  0  0  0  0  0  0  0  0  0
  146.6578  138.6360  153.6179 N   0  0  0  0  0  0  0  0  0  0  0  0
  145.5722  137.7943  153.1375 C   0  0  0  0  0  0  0  0  0  0  0  0
  144.4046  137.6187  154.1480 C   0  0  0  0  0  0  0  0  0  0  0  0
  144.1652  138.8768  154.7504 O   0  0  0  0  0  0  0  0  0  0  0  0
  143.1037  137.1899  153.4410 C   0  0  0  0  0  0  0  0  0  0  0  0
  143.1510  135.7102  153.0164 C   0  0  0  0  0  0  0  0  0  0  0  0
  143.4224  134.8849  154.1446 O   0  0  0  0  0  0  0  0  0  0  0  0
  144.6772  135.1638  154.7569 C   0  0  0  0  0  0  0  0  0  0  0  0
  144.6921  136.6103  155.2807 C   0  0  0  0  0  0  0  0  0  0  0  0
  150.0996  141.6613  156.0187 C   0  0  0  0  0  0  0  0  0  0  0  0
  149.9375  141.8770  157.5341 C   0  0  0  0  0  0  0  0  0  0  0  0
  151.2568  142.1164  158.1106 N   0  0  0  0  0  0  0  0  0  0  0  0
  151.1620  143.0740  159.2044 C   0  0  2  0  0  0  0  0  0  0  0  0
  150.4969  144.4020  158.9183 C   0  0  0  0  0  0  0  0  0  0  0  0
  151.9895  144.3455  159.1401 C   0  0  2  0  0  0  0  0  0  0  0  0
  152.9399  144.6550  157.9991 C   0  0  0  0  0  0  0  0  0  0  0  0
  151.9005  140.8995  158.6165 C   0  0  0  0  0  0  0  0  0  0  0  0
  153.9766  139.1372  157.8850 H   0  0  0  0  0  0  0  0  0  0  0  0
  152.9393  137.7602  157.5218 H   0  0  0  0  0  0  0  0  0  0  0  0
  152.9602  138.4373  159.1440 H   0  0  0  0  0  0  0  0  0  0  0  0
  150.9356  139.1118  157.9133 H   0  0  0  0  0  0  0  0  0  0  0  0
  152.5947  140.7586  155.9831 H   0  0  0  0  0  0  0  0  0  0  0  0
  152.2827  139.0922  155.6393 H   0  0  0  0  0  0  0  0  0  0  0  0
  149.4033  136.1202  156.1054 H   0  0  0  0  0  0  0  0  0  0  0  0
  146.1269  140.5598  152.7938 H   0  0  0  0  0  0  0  0  0  0  0  0
  145.1991  138.2220  152.2059 H   0  0  0  0  0  0  0  0  0  0  0  0
  145.9999  136.8291  152.8679 H   0  0  0  0  0  0  0  0  0  0  0  0
  143.8087  139.4605  154.0985 H   0  0  0  0  0  0  0  0  0  0  0  0
  142.2569  137.3238  154.1161 H   0  0  0  0  0  0  0  0  0  0  0  0
  142.9079  137.8250  152.5762 H   0  0  0  0  0  0  0  0  0  0  0  0
  142.1909  135.4156  152.5931 H   0  0  0  0  0  0  0  0  0  0  0  0
  143.8983  135.5414  152.2405 H   0  0  0  0  0  0  0  0  0  0  0  0
  144.8233  134.4679  155.5831 H   0  0  0  0  0  0  0  0  0  0  0  0
  145.4891  134.9878  154.0504 H   0  0  0  0  0  0  0  0  0  0  0  0
  145.6357  136.8270  155.7806 H   0  0  0  0  0  0  0  0  0  0  0  0
  143.9237  136.6985  156.0503 H   0  0  0  0  0  0  0  0  0  0  0  0
  150.8084  142.3856  155.6149 H   0  0  0  0  0  0  0  0  0  0  0  0
  149.1649  141.8707  155.5004 H   0  0  0  0  0  0  0  0  0  0  0  0
  149.3205  142.7666  157.6656 H   0  0  0  0  0  0  0  0  0  0  0  0
  149.4131  141.0609  158.0327 H   0  0  0  0  0  0  0  0  0  0  0  0
  150.9881  142.6872  160.2073 H   0  0  0  0  0  0  0  0  0  0  0  0
  150.1415  144.5840  157.9056 H   0  0  0  0  0  0  0  0  0  0  0  0
  149.8894  144.8391  159.7083 H   0  0  0  0  0  0  0  0  0  0  0  0
  152.3405  144.7192  160.1002 H   0  0  0  0  0  0  0  0  0  0  0  0
  152.5400  144.3061  157.0466 H   0  0  0  0  0  0  0  0  0  0  0  0
  153.9018  144.1726  158.1717 H   0  0  0  0  0  0  0  0  0  0  0  0
  153.0999  145.7308  157.9304 H   0  0  0  0  0  0  0  0  0  0  0  0
  151.4585  140.6276  159.5764 H   0  0  0  0  0  0  0  0  0  0  0  0
  152.9391  141.1566  158.8272 H   0  0  0  0  0  0  0  0  0  0  0  0
  1  2  1  0  0  0  0
  1 30  1  0  0  0  0
  1 31  1  0  0  0  0
  1 32  1  0  0  0  0
  2 29  1  0  0  0  0
  2  3  1  0  0  0  0
  2 33  1  0  0  0  0
  3  4  1  0  0  0  0
  3 34  1  0  0  0  0
  3 35  1  0  0  0  0
  4  5  1  0  0  0  0
  4 22  1  0  0  0  0
  5 10  1  0  0  0  0
  5  6  2  0  0  0  0
  6  7  1  0  0  0  0
  7  8  2  0  0  0  0
  7 36  1  0  0  0  0
  8  9  1  0  0  0  0
  9 13  1  0  0  0  0
  9 10  2  0  0  0  0
 10 11  1  0  0  0  0
 11 12  2  0  0  0  0
 12 13  1  0  0  0  0
 12 37  1  0  0  0  0
 13 14  1  0  0  0  0
 14 15  1  0  0  0  0
 14 38  1  0  0  0  0
 14 39  1  0  0  0  0
 15 21  1  0  0  0  0
 15 16  1  0  0  0  0
 15 17  1  0  0  0  0
 16 40  1  0  0  0  0
 17 18  1  0  0  0  0
 17 41  1  0  0  0  0
 17 42  1  0  0  0  0
 18 19  1  0  0  0  0
 18 43  1  0  0  0  0
 18 44  1  0  0  0  0
 19 20  1  0  0  0  0
 20 21  1  0  0  0  0
 20 45  1  0  0  0  0
 20 46  1  0  0  0  0
 21 47  1  0  0  0  0
 21 48  1  0  0  0  0
 22 23  1  0  0  0  0
 22 49  1  0  0  0  0
 22 50  1  0  0  0  0
 23 24  1  0  0  0  0
 23 51  1  0  0  0  0
 23 52  1  0  0  0  0
 24 25  1  0  0  0  0
 24 29  1  0  0  0  0
 25 27  1  0  0  0  0
 25 26  1  0  0  0  0
 25 53  1  0  0  0  0
 26 27  1  0  0  0  0
 26 54  1  0  0  0  0
 26 55  1  0  0  0  0
 27 28  1  0  0  0  0
 27 56  1  0  0  0  0
 28 57  1  0  0  0  0
 28 58  1  0  0  0  0
 28 59  1  0  0  0  0
 29 60  1  0  0  0  0
 29 61  1  0  0  0  0
M  END
> <s_m_source_file>
AV-unprocessed.smi

> <i_m_source_file_index>
193

> <i_lp_mmshare_version>
43012

> <i_f3d_flags>
0

> <s_epik_input>
W0NIM11bQ0BASF0xW0NIMl1bQ0BIXTFOKFtDSDJdMilbQ0gyXVtDSDJdTihbQ0gyXVtDQEhdMltDSDNdKWMobltjSF1uMyljKGMzNCluW2NIXW40W0NIMl1DNShbT0hdKVtDSDJdW0NIMl1PW0NIMl1bQ0gyXTU=

> <s_epik_cmdline>
J2VwaWtfcHl0aG9uJywgJy1waCcsICc3LjAnLCAnLXRuJywgJzgnLCAnLW1hJywgJzIwMCcsICctbWV0YWxfYmluZGluZycsICctaW1hZScsICc8aW5maWxlLm1hZT4nLCAnLW9tYWUnLCAnPG91dGZpbGUubWFlPic=

> <r_lp_tautomer_probability>
1

> <r_epik_Ionization_Penalty>
1.45227

> <r_epik_Ionization_Penalty_Charging>
0

> <r_epik_Ionization_Penalty_Neutral>
1.45227

> <r_epik_State_Penalty>
2.02377

> <r_epik_Charging_Adjusted_Penalty>
2.02377

> <i_epik_Tot_Q>
0

> <i_epik_Tot_abs_Q>
0

> <r_epik_Metal_State_Penalty>
2.01937

> <b_epik_Metal_Only>
0

> <s_lp_Force_Field>
OPLS_2005

> <r_lp_Energy>
54.596

> <b_lp_Chiralities_Consistent>
1

> <s_lp_Variant>
AV-unprocessed.smi:193-21

> <Gold.Version>
5.8.1

> <Gold.Id.Protein>
6NUR|6NUR_protein|mol2

> <Gold.PLP.Fitness>
45.7518

> <Gold.PLP.PLP>
-41.9234

> <Gold.PLP.part.hbond>
-1.0000

> <Gold.PLP.part.metal>
0.0000

> <Gold.PLP.part.buried>
-6.8683

> <Gold.PLP.part.nonpolar>
-37.3549

> <Gold.PLP.part.repulsive>
1.3131

> <Gold.PLP.ligand.clash>
0.0000

> <Gold.PLP.ligand.torsion>
1.7405

> <Gold.PLP.Chemscore.Hbond>
1.0000

> <Gold.PLP.Chemscore.CHOScore>
1.0000

> <Gold.PLP.Chemscore.Metal>
0.0000

> <Gold.Chemscore.Hbonds>
donor molecule, donor type, donor heavy atom, donor atom, acceptor molecule, acceptor atom, score
      L1  H    16    40       P1 10175  1.00
      L1  C    12    37       P1 10175  1.00

> <Gold.PLP.Chemscore.Internal.Correction>
1.3094

> <Gold.Rescore>
     Score         DG    S(hbond)    S(metal)    S(lipo)     H(rot)  DE(clash)    DE(int)     intcor
     14.05     -16.16       1.00        0.00     104.50       1.91       0.16       1.95       ----

> <Gold.Chemscore.Fitness>
14.0491

> <Gold.Chemscore.DG>
-16.1599

> <Gold.Chemscore.ZeroCoef>
-5.4800

> <Gold.Chemscore.Hbond>
0.9985

> <Gold.Chemscore.Metal>
0.0000

> <Gold.Chemscore.Lipo>
104.4971

> <Gold.Chemscore.Internal_Hbond>
0.0000

> <Gold.Chemscore.DEClash>
0.1603

> <Gold.Chemscore.DEInternal>
1.9505

> <Gold.Chemscore.Rot>
1.9068

> <Gold.Chemscore.Internal.Correction>
   9.000000E+99

> <Gold.Chemscore.Hbonds>
donor molecule, donor type, donor heavy atom, donor atom, acceptor molecule, acceptor atom, score
      L1  H    16    40       P1 10175  1.00

> <Gold.Chemscore.Hbond.Weighted>
-3.3351

> <Gold.Chemscore.Metal.Weighted>
-0.0000

> <Gold.Chemscore.Lipo.Weighted>
-12.2262

> <Gold.Chemscore.Internal_Hbond.Weighted>
0.0000

> <Gold.Chemscore.DEClash.Weighted>
0.1603

> <Gold.Chemscore.DEInternal.Weighted>
1.9505

> <Gold.Chemscore.Rot.Weighted>
4.8814

> <Gold.Chemscore.Internal.Correction.Weighted>
   9.000000E+99

> <Gold.Protein.RotatedTorsions>
[ 6907 6896 6895 6894 ] final -172.53 input  -60.11 | X-H torsion
[ 7974 7965 7964 7962 ] final   65.65 input  175.53 | X-H torsion
[ 8008 7997 7996 7995 ] final  125.35 input   59.86 | X-H torsion
[ 10167 10162 10161 10158 ] final   99.60 input  -65.29 | X-H torsion
[ 10718 10713 10712 10709 ] final   70.46 input   66.30 | X-H torsion
[ 10763 10752 10751 10750 ] final -148.58 input  -60.55 | X-H torsion
[ 11005 11000 10999 10996 ] final   30.07 input  -57.11 | X-H torsion

> <Gold.Protein.ActiveResidues>
 VAL166  LYS551  ARG553  GLY616  TRP617  ASP618  TYR619  PRO620  LYS621  CYS622 
 ASP623  PHE694  ASN695  SER759  ASP760  ASP761  ALA762  ILE779  LEU786  VAL792 
 PHE793  MET794  SER795  GLU796  ALA797  LYS798  CYS799  TRP800  GLU811  SER814 

> <Gold.Protein.RotatedAtoms>
  151.5415  133.3432  159.2936 H   0  0  0  0  0  0  0  0  0  0  0  0  # atno 6907 bound_to 6896
  150.8533  134.7866  159.7037 H   0  0  0  0  0  0  0  0  0  0  0  0  # atno 6908 bound_to 6896
  152.4573  134.5271  159.9851 H   0  0  0  0  0  0  0  0  0  0  0  0  # atno 6909 bound_to 6896
  145.8360  139.3167  143.0960 H   0  0  0  0  0  0  0  0  0  0  0  0  # atno 7974 bound_to 7965
  156.2831  140.2718  156.1936 H   0  0  0  0  0  0  0  0  0  0  0  0  # atno 8008 bound_to 7997
  155.0433  140.0386  157.2535 H   0  0  0  0  0  0  0  0  0  0  0  0  # atno 8009 bound_to 7997
  154.7256  140.2696  155.6507 H   0  0  0  0  0  0  0  0  0  0  0  0  # atno 8010 bound_to 7997
  139.7603  144.6956  151.0303 H   0  0  0  0  0  0  0  0  0  0  0  0  # atno 10167 bound_to 10162
  157.6401  130.9478  150.0655 H   0  0  0  0  0  0  0  0  0  0  0  0  # atno 10718 bound_to 10713
  154.8225  135.3331  154.6996 H   0  0  0  0  0  0  0  0  0  0  0  0  # atno 10763 bound_to 10752
  153.7627  135.6931  153.4927 H   0  0  0  0  0  0  0  0  0  0  0  0  # atno 10764 bound_to 10752
  153.2099  135.4486  155.0316 H   0  0  0  0  0  0  0  0  0  0  0  0  # atno 10765 bound_to 10752
  140.2982  134.2786  155.7760 H   0  0  0  0  0  0  0  0  0  0  0  0  # atno 11005 bound_to 11000
  145.9519  140.8902  143.0255 LP  0  0  0  0  0  0  0  0  0  0  0  0  # atno 17320 bound_to 7965
  144.6736  140.1691  143.7416 LP  0  0  0  0  0  0  0  0  0  0  0  0  # atno 17321 bound_to 7965
  140.7806  143.4705  151.0152 LP  0  0  0  0  0  0  0  0  0  0  0  0  # atno 17342 bound_to 10162
  139.8391  143.7587  152.3180 LP  0  0  0  0  0  0  0  0  0  0  0  0  # atno 17343 bound_to 10162
  156.1674  130.3645  149.9212 LP  0  0  0  0  0  0  0  0  0  0  0  0  # atno 17370 bound_to 10713
  156.7196  130.9001  151.3617 LP  0  0  0  0  0  0  0  0  0  0  0  0  # atno 17371 bound_to 10713
  141.2133  133.7629  156.9728 LP  0  0  0  0  0  0  0  0  0  0  0  0  # atno 17394 bound_to 11000
  140.1133  134.9463  157.2097 LP  0  0  0  0  0  0  0  0  0  0  0  0  # atno 17395 bound_to 11000

$$$$
