AV-unprocessed.smi:919|AV-procd|sdf|4166|dock7
  -GOLD-   22720 2 73D 1   1.00000     0.00000
 Structure written by MMmdl.
 43 45  0  0  0  0  0  0  0  0  1 V2000
  150.2848  134.9645  156.3933 C   0  0  0  0  0  0  0  0  0  0  0  0
  151.0115  133.6523  156.3177 C   0  0  0  0  0  0  0  0  0  0  0  0
  151.9153  133.3508  157.2349 N   0  0  0  0  0  0  0  0  0  0  0  0
  152.4031  132.0864  156.8899 O   0  0  0  0  0  0  0  0  0  0  0  0
  151.7654  131.6712  155.7657 C   0  0  0  0  0  0  0  0  0  0  0  0
  152.1557  130.3339  155.2343 C   0  0  0  0  0  0  0  0  0  0  0  0
  150.8665  132.6155  155.3525 C   0  0  0  0  0  0  0  0  0  0  0  0
  149.9429  132.5870  154.1658 C   0  0  0  0  0  0  0  0  0  0  0  0
  149.1613  131.2659  154.0958 C   0  0  0  0  0  0  0  0  0  0  0  0
  148.4060  131.1617  152.8542 N   0  0  0  0  0  0  0  0  0  0  0  0
  147.0986  131.4426  152.7228 C   0  0  0  0  0  0  0  0  0  0  0  0
  146.3966  131.8508  153.6463 O   0  0  0  0  0  0  0  0  0  0  0  0
  146.6028  131.2407  151.4895 N   0  0  0  0  0  0  0  0  0  0  0  0
  145.2280  131.4521  151.0288 C   0  0  2  0  0  0  0  0  0  0  0  0
  145.2019  131.9928  149.5821 C   0  0  0  0  0  0  0  0  0  0  0  0
  144.4317  133.3191  149.7177 C   0  0  2  0  0  0  0  0  0  0  0  0
  145.3115  134.3555  150.4425 C   0  0  0  0  0  0  0  0  0  0  0  0
  145.2976  133.8550  151.8992 C   0  0  0  0  0  0  0  0  0  0  0  0
  144.4639  132.5591  151.8022 C   0  0  1  0  0  0  0  0  0  0  0  0
  143.4041  132.9719  150.7863 C   0  0  0  0  0  0  0  0  0  0  0  0
  150.1052  135.3713  155.3978 H   0  0  0  0  0  0  0  0  0  0  0  0
  150.8530  135.7075  156.9544 H   0  0  0  0  0  0  0  0  0  0  0  0
  149.3174  134.8451  156.8818 H   0  0  0  0  0  0  0  0  0  0  0  0
  151.8096  130.2037  154.2088 H   0  0  0  0  0  0  0  0  0  0  0  0
  151.7253  129.5374  155.8410 H   0  0  0  0  0  0  0  0  0  0  0  0
  153.2395  130.2161  155.2399 H   0  0  0  0  0  0  0  0  0  0  0  0
  149.2403  133.4202  154.2041 H   0  0  0  0  0  0  0  0  0  0  0  0
  150.5092  132.7252  153.2441 H   0  0  0  0  0  0  0  0  0  0  0  0
  149.8365  130.4140  154.1934 H   0  0  0  0  0  0  0  0  0  0  0  0
  148.4599  131.2030  154.9284 H   0  0  0  0  0  0  0  0  0  0  0  0
  148.9064  130.8371  152.0396 H   0  0  0  0  0  0  0  0  0  0  0  0
  147.2577  130.9284  150.7870 H   0  0  0  0  0  0  0  0  0  0  0  0
  144.6741  130.5122  151.0664 H   0  0  0  0  0  0  0  0  0  0  0  0
  146.1956  132.1412  149.1562 H   0  0  0  0  0  0  0  0  0  0  0  0
  144.6663  131.3026  148.9292 H   0  0  0  0  0  0  0  0  0  0  0  0
  144.0157  133.6798  148.7767 H   0  0  0  0  0  0  0  0  0  0  0  0
  146.3195  134.4008  150.0283 H   0  0  0  0  0  0  0  0  0  0  0  0
  144.8764  135.3534  150.3762 H   0  0  0  0  0  0  0  0  0  0  0  0
  146.2984  133.7030  152.3033 H   0  0  0  0  0  0  0  0  0  0  0  0
  144.7970  134.5803  152.5420 H   0  0  0  0  0  0  0  0  0  0  0  0
  144.0666  132.2278  152.7621 H   0  0  0  0  0  0  0  0  0  0  0  0
  142.8048  133.8267  151.1054 H   0  0  0  0  0  0  0  0  0  0  0  0
  142.7386  132.1561  150.4987 H   0  0  0  0  0  0  0  0  0  0  0  0
  1  2  1  0  0  0  0
  1 21  1  0  0  0  0
  1 22  1  0  0  0  0
  1 23  1  0  0  0  0
  2  7  1  0  0  0  0
  2  3  2  0  0  0  0
  3  4  1  0  0  0  0
  4  5  1  0  0  0  0
  5  6  1  0  0  0  0
  5  7  2  0  0  0  0
  6 24  1  0  0  0  0
  6 25  1  0  0  0  0
  6 26  1  0  0  0  0
  7  8  1  0  0  0  0
  8  9  1  0  0  0  0
  8 27  1  0  0  0  0
  8 28  1  0  0  0  0
  9 10  1  0  0  0  0
  9 29  1  0  0  0  0
  9 30  1  0  0  0  0
 10 11  1  0  0  0  0
 10 31  1  0  0  0  0
 11 12  2  0  0  0  0
 11 13  1  0  0  0  0
 13 14  1  0  0  0  0
 13 32  1  0  0  0  0
 14 19  1  0  0  0  0
 14 15  1  0  0  0  0
 14 33  1  0  0  0  0
 15 16  1  0  0  0  0
 15 34  1  0  0  0  0
 15 35  1  0  0  0  0
 16 20  1  0  0  0  0
 16 17  1  0  0  0  0
 16 36  1  0  0  0  0
 17 18  1  0  0  0  0
 17 37  1  0  0  0  0
 17 38  1  0  0  0  0
 18 19  1  0  0  0  0
 18 39  1  0  0  0  0
 18 40  1  0  0  0  0
 19 20  1  0  0  0  0
 19 41  1  0  0  0  0
 20 42  1  0  0  0  0
 20 43  1  0  0  0  0
M  END
> <s_m_source_file>
AV-unprocessed.smi

> <i_m_source_file_index>
919

> <i_lp_mmshare_version>
43012

> <i_f3d_flags>
0

> <s_epik_input>
W0NIM11jMW5vYyhbQ0gzXSljMVtDSDJdW0NIMl1bTkhdQyg9TylbTkhdW0NASF0oW0NIMl1bQ0BASF0yMylbQ0BASF0oW0NIMl0zKVtDSDJdW0NIMl0y

> <s_epik_cmdline>
J2VwaWtfcHl0aG9uJywgJy1waCcsICc3LjAnLCAnLXRuJywgJzgnLCAnLW1hJywgJzIwMCcsICctbWV0YWxfYmluZGluZycsICctaW1hZScsICc8aW5maWxlLm1hZT4nLCAnLW9tYWUnLCAnPG91dGZpbGUubWFlPic=

> <r_lp_tautomer_probability>
1

> <r_epik_Ionization_Penalty>
6.40771e-05

> <r_epik_Ionization_Penalty_Charging>
0

> <r_epik_Ionization_Penalty_Neutral>
6.40771e-05

> <r_epik_State_Penalty>
-0

> <r_epik_Charging_Adjusted_Penalty>
0

> <i_epik_Tot_Q>
0

> <i_epik_Tot_abs_Q>
0

> <r_epik_Metal_State_Penalty>
-0

> <b_epik_Metal_Only>
0

> <s_lp_Force_Field>
OPLS_2005

> <r_lp_Energy>
47.1923

> <b_lp_Chiralities_Consistent>
1

> <s_lp_Variant>
AV-unprocessed.smi:919-3

> <Gold.Version>
5.8.1

> <Gold.Id.Protein>
6NUR|6NUR_protein|mol2

> <Gold.PLP.Fitness>
42.1478

> <Gold.PLP.PLP>
-34.5220

> <Gold.PLP.part.hbond>
-3.0000

> <Gold.PLP.part.metal>
0.0000

> <Gold.PLP.part.buried>
-2.8856

> <Gold.PLP.part.nonpolar>
-28.4774

> <Gold.PLP.part.repulsive>
0.1911

> <Gold.PLP.ligand.clash>
0.0000

> <Gold.PLP.ligand.torsion>
0.6347

> <Gold.PLP.Chemscore.Hbond>
2.9600

> <Gold.PLP.Chemscore.CHOScore>
0.0000

> <Gold.PLP.Chemscore.Metal>
0.0000

> <Gold.Chemscore.Hbonds>
donor molecule, donor type, donor heavy atom, donor atom, acceptor molecule, acceptor atom, score
      L1  H    10    31       P1 10747  0.94
      L1  H    13    32       P1 10747  0.94
      P1  H  6896  6907       L1     3  0.61

> <Gold.PLP.Chemscore.Internal.Correction>
0.0153

> <Gold.Rescore>
     Score         DG    S(hbond)    S(metal)    S(lipo)     H(rot)  DE(clash)    DE(int)     intcor
     18.28     -20.68       2.60        0.00      88.84       1.52       0.56       1.85       ----

> <Gold.Chemscore.Fitness>
18.2759

> <Gold.Chemscore.DG>
-20.6838

> <Gold.Chemscore.ZeroCoef>
-5.4800

> <Gold.Chemscore.Hbond>
2.6020

> <Gold.Chemscore.Metal>
0.0000

> <Gold.Chemscore.Lipo>
88.8403

> <Gold.Chemscore.Internal_Hbond>
0.0000

> <Gold.Chemscore.DEClash>
0.5628

> <Gold.Chemscore.DEInternal>
1.8451

> <Gold.Chemscore.Rot>
1.5161

> <Gold.Chemscore.Internal.Correction>
   9.000000E+99

> <Gold.Chemscore.Hbonds>
donor molecule, donor type, donor heavy atom, donor atom, acceptor molecule, acceptor atom, score
      L1  H    10    31       P1 10747  0.50
      L1  H    13    32       P1 10747  0.91
      P1  H  6896  6907       L1     3  0.35

> <Gold.Chemscore.Hbond.Weighted>
-8.6908

> <Gold.Chemscore.Metal.Weighted>
-0.0000

> <Gold.Chemscore.Lipo.Weighted>
-10.3943

> <Gold.Chemscore.Internal_Hbond.Weighted>
0.0000

> <Gold.Chemscore.DEClash.Weighted>
0.5628

> <Gold.Chemscore.DEInternal.Weighted>
1.8451

> <Gold.Chemscore.Rot.Weighted>
3.8813

> <Gold.Chemscore.Internal.Correction.Weighted>
   9.000000E+99

> <Gold.Protein.RotatedTorsions>
[ 6907 6896 6895 6894 ] final -173.13 input  -60.11 | X-H torsion
[ 7974 7965 7964 7962 ] final  -76.42 input  175.53 | X-H torsion
[ 8008 7997 7996 7995 ] final  101.51 input   59.86 | X-H torsion
[ 10167 10162 10161 10158 ] final  111.55 input  -65.29 | X-H torsion
[ 10718 10713 10712 10709 ] final -145.70 input   66.30 | X-H torsion
[ 10763 10752 10751 10750 ] final  176.21 input  -60.55 | X-H torsion
[ 11005 11000 10999 10996 ] final  103.48 input  -57.11 | X-H torsion

> <Gold.Protein.ActiveResidues>
 VAL166  LYS551  ARG553  GLY616  TRP617  ASP618  TYR619  PRO620  LYS621  CYS622 
 ASP623  PHE694  ASN695  SER759  ASP760  ASP761  ALA762  ILE779  LEU786  VAL792 
 PHE793  MET794  SER795  GLU796  ALA797  LYS798  CYS799  TRP800  GLU811  SER814 

> <Gold.Protein.RotatedAtoms>
  151.5511  133.3417  159.2952 H   0  0  0  0  0  0  0  0  0  0  0  0  # atno 6907 bound_to 6896
  150.8478  134.7795  159.6995 H   0  0  0  0  0  0  0  0  0  0  0  0  # atno 6908 bound_to 6896
  152.4531  134.5357  159.9876 H   0  0  0  0  0  0  0  0  0  0  0  0  # atno 6909 bound_to 6896
  145.6130  140.9382  143.1179 H   0  0  0  0  0  0  0  0  0  0  0  0  # atno 7974 bound_to 7965
  156.1306  140.3196  155.8343 H   0  0  0  0  0  0  0  0  0  0  0  0  # atno 8008 bound_to 7997
  155.4339  140.0520  157.3033 H   0  0  0  0  0  0  0  0  0  0  0  0  # atno 8009 bound_to 7997
  154.4896  140.2087  155.9590 H   0  0  0  0  0  0  0  0  0  0  0  0  # atno 8010 bound_to 7997
  139.6603  144.7129  151.1878 H   0  0  0  0  0  0  0  0  0  0  0  0  # atno 10167 bound_to 10162
  156.3857  130.7860  151.2057 H   0  0  0  0  0  0  0  0  0  0  0  0  # atno 10718 bound_to 10713
  154.4780  135.2773  155.1592 H   0  0  0  0  0  0  0  0  0  0  0  0  # atno 10763 bound_to 10752
  154.3313  135.6189  153.5556 H   0  0  0  0  0  0  0  0  0  0  0  0  # atno 10764 bound_to 10752
  152.9872  135.5766  154.5175 H   0  0  0  0  0  0  0  0  0  0  0  0  # atno 10765 bound_to 10752
  139.8784  134.9265  156.5217 H   0  0  0  0  0  0  0  0  0  0  0  0  # atno 11005 bound_to 11000
  144.7262  139.7869  143.7364 LP  0  0  0  0  0  0  0  0  0  0  0  0  # atno 17320 bound_to 7965
  146.1489  139.4567  143.0061 LP  0  0  0  0  0  0  0  0  0  0  0  0  # atno 17321 bound_to 7965
  140.7577  143.6005  150.8704 LP  0  0  0  0  0  0  0  0  0  0  0  0  # atno 17342 bound_to 10162
  139.9662  143.6108  152.2987 LP  0  0  0  0  0  0  0  0  0  0  0  0  # atno 17343 bound_to 10162
  157.7495  131.0331  150.4255 LP  0  0  0  0  0  0  0  0  0  0  0  0  # atno 17370 bound_to 10713
  156.4507  130.4011  149.6638 LP  0  0  0  0  0  0  0  0  0  0  0  0  # atno 17371 bound_to 10713
  140.8446  133.8179  155.9108 LP  0  0  0  0  0  0  0  0  0  0  0  0  # atno 17394 bound_to 11000
  140.9204  134.2149  157.4930 LP  0  0  0  0  0  0  0  0  0  0  0  0  # atno 17395 bound_to 11000

$$$$
