AV-unprocessed.smi:3198|AV-procd|sdf|12229|dock7
  -GOLD-   2272018 63D 1   1.00000     0.00000
 Structure written by MMmdl.
 37 38  0  0  0  0  0  0  0  0  1 V2000
  153.1465  141.3781  160.2909 C   0  0  0  0  0  0  0  0  0  0  0  0
  152.6248  142.4731  159.3844 C   0  0  0  0  0  0  0  0  0  0  0  0
  153.0898  143.7986  159.5059 C   0  0  0  0  0  0  0  0  0  0  0  0
  152.5659  144.7715  158.6340 C   0  0  0  0  0  0  0  0  0  0  0  0
  151.6019  144.3841  157.6830 C   0  0  0  0  0  0  0  0  0  0  0  0
  151.1942  143.0341  157.6384 C   0  0  0  0  0  0  0  0  0  0  0  0
  150.2330  142.6551  156.6896 N   0  0  0  0  0  0  0  0  0  0  0  0
  149.8966  141.2550  156.4584 C   0  0  0  0  0  0  0  0  0  0  0  0
  149.0105  141.0611  155.2197 C   0  0  0  0  0  0  0  0  0  0  0  0
  148.6188  139.7006  155.1379 O   0  0  0  0  0  0  0  0  0  0  0  0
  149.1502  139.0451  153.9988 C   0  0  0  0  0  0  0  0  0  0  0  0
  150.5970  138.6310  154.2933 C   0  0  2  0  0  0  0  0  0  0  0  0
  150.7429  137.7286  155.5169 C   0  0  0  0  0  0  0  0  0  0  0  0
  152.1743  137.9726  155.9686 C   0  0  0  0  0  0  0  0  0  0  0  0
  152.5729  139.2699  155.2585 C   0  0  0  0  0  0  0  0  0  0  0  0
  151.3755  139.7563  154.6678 O   0  0  0  0  0  0  0  0  0  0  0  0
  151.7008  142.0960  158.4740 N   0  0  0  0  0  0  0  0  0  0  0  0
  153.9600  141.7395  160.9206 H   0  0  0  0  0  0  0  0  0  0  0  0
  153.5209  140.5416  159.7001 H   0  0  0  0  0  0  0  0  0  0  0  0
  152.3494  141.0124  160.9388 H   0  0  0  0  0  0  0  0  0  0  0  0
  153.8292  144.0657  160.2464 H   0  0  0  0  0  0  0  0  0  0  0  0
  152.8973  145.7977  158.6935 H   0  0  0  0  0  0  0  0  0  0  0  0
  151.1849  145.1133  157.0039 H   0  0  0  0  0  0  0  0  0  0  0  0
  149.6345  143.3616  156.2870 H   0  0  0  0  0  0  0  0  0  0  0  0
  150.8216  140.6899  156.3419 H   0  0  0  0  0  0  0  0  0  0  0  0
  149.4019  140.8474  157.3407 H   0  0  0  0  0  0  0  0  0  0  0  0
  148.1212  141.6862  155.3124 H   0  0  0  0  0  0  0  0  0  0  0  0
  149.5307  141.3711  154.3121 H   0  0  0  0  0  0  0  0  0  0  0  0
  148.5481  138.1750  153.7321 H   0  0  0  0  0  0  0  0  0  0  0  0
  149.1315  139.7319  153.1510 H   0  0  0  0  0  0  0  0  0  0  0  0
  151.0447  138.1488  153.4221 H   0  0  0  0  0  0  0  0  0  0  0  0
  150.0546  138.0453  156.3020 H   0  0  0  0  0  0  0  0  0  0  0  0
  150.5396  136.6807  155.2948 H   0  0  0  0  0  0  0  0  0  0  0  0
  152.2318  138.0681  157.0535 H   0  0  0  0  0  0  0  0  0  0  0  0
  152.8310  137.1555  155.6678 H   0  0  0  0  0  0  0  0  0  0  0  0
  152.9999  140.0065  155.9393 H   0  0  0  0  0  0  0  0  0  0  0  0
  153.3034  139.0674  154.4738 H   0  0  0  0  0  0  0  0  0  0  0  0
  1  2  1  0  0  0  0
  1 18  1  0  0  0  0
  1 19  1  0  0  0  0
  1 20  1  0  0  0  0
  2 17  1  0  0  0  0
  2  3  2  0  0  0  0
  3  4  1  0  0  0  0
  3 21  1  0  0  0  0
  4  5  2  0  0  0  0
  4 22  1  0  0  0  0
  5  6  1  0  0  0  0
  5 23  1  0  0  0  0
  6  7  1  0  0  0  0
  6 17  2  0  0  0  0
  7  8  1  0  0  0  0
  7 24  1  0  0  0  0
  8  9  1  0  0  0  0
  8 25  1  0  0  0  0
  8 26  1  0  0  0  0
  9 10  1  0  0  0  0
  9 27  1  0  0  0  0
  9 28  1  0  0  0  0
 10 11  1  0  0  0  0
 11 12  1  0  0  0  0
 11 29  1  0  0  0  0
 11 30  1  0  0  0  0
 12 16  1  0  0  0  0
 12 13  1  0  0  0  0
 12 31  1  0  0  0  0
 13 14  1  0  0  0  0
 13 32  1  0  0  0  0
 13 33  1  0  0  0  0
 14 15  1  0  0  0  0
 14 34  1  0  0  0  0
 14 35  1  0  0  0  0
 15 16  1  0  0  0  0
 15 36  1  0  0  0  0
 15 37  1  0  0  0  0
M  END
> <s_m_source_file>
AV-unprocessed.smi

> <i_m_source_file_index>
3198

> <i_lp_mmshare_version>
43012

> <i_f3d_flags>
0

> <s_epik_input>
W0NIM11jMVtjSF1bY0hdW2NIXWMobjEpW05IXVtDSDJdW0NIMl1PW0NIMl1bQ0BASF0yW0NIMl1bQ0gyXVtDSDJdTzI=

> <s_epik_cmdline>
J2VwaWtfcHl0aG9uJywgJy1waCcsICc3LjAnLCAnLXRuJywgJzgnLCAnLW1hJywgJzIwMCcsICctbWV0YWxfYmluZGluZycsICctaW1hZScsICc8aW5maWxlLm1hZT4nLCAnLW9tYWUnLCAnPG91dGZpbGUubWFlPic=

> <r_lp_tautomer_probability>
1

> <r_epik_Ionization_Penalty>
1.29225

> <r_epik_Ionization_Penalty_Charging>
0

> <r_epik_Ionization_Penalty_Neutral>
1.29225

> <r_epik_State_Penalty>
1.3654

> <r_epik_Charging_Adjusted_Penalty>
1.3654

> <i_epik_Tot_Q>
0

> <i_epik_Tot_abs_Q>
0

> <r_epik_Metal_State_Penalty>
0.00531989

> <b_epik_Metal_Only>
0

> <s_lp_Force_Field>
OPLS_2005

> <r_lp_Energy>
18.1736

> <b_lp_Chiralities_Consistent>
1

> <s_lp_Variant>
AV-unprocessed.smi:3198-3

> <Gold.Version>
5.8.1

> <Gold.Id.Protein>
6NUR|6NUR_protein|mol2

> <Gold.PLP.Fitness>
44.5557

> <Gold.PLP.PLP>
-39.5958

> <Gold.PLP.part.hbond>
-2.0000

> <Gold.PLP.part.metal>
0.0000

> <Gold.PLP.part.buried>
-4.3954

> <Gold.PLP.part.nonpolar>
-33.2031

> <Gold.PLP.part.repulsive>
0.1710

> <Gold.PLP.ligand.clash>
0.0000

> <Gold.PLP.ligand.torsion>
0.5454

> <Gold.PLP.Chemscore.Hbond>
2.0000

> <Gold.PLP.Chemscore.CHOScore>
0.0000

> <Gold.PLP.Chemscore.Metal>
0.0000

> <Gold.Chemscore.Hbonds>
donor molecule, donor type, donor heavy atom, donor atom, acceptor molecule, acceptor atom, score
      L1  H     7    24       P1  8028  1.00
      P1  H  7989  7998       L1    16  1.00

> <Gold.PLP.Chemscore.Internal.Correction>
0.0506

> <Gold.Rescore>
     Score         DG    S(hbond)    S(metal)    S(lipo)     H(rot)  DE(clash)    DE(int)     intcor
     19.40     -20.54       1.97        0.00     108.15       1.63       0.23       0.91       ----

> <Gold.Chemscore.Fitness>
19.4011

> <Gold.Chemscore.DG>
-20.5413

> <Gold.Chemscore.ZeroCoef>
-5.4800

> <Gold.Chemscore.Hbond>
1.9711

> <Gold.Chemscore.Metal>
0.0000

> <Gold.Chemscore.Lipo>
108.1487

> <Gold.Chemscore.Internal_Hbond>
0.0000

> <Gold.Chemscore.DEClash>
0.2289

> <Gold.Chemscore.DEInternal>
0.9114

> <Gold.Chemscore.Rot>
1.6311

> <Gold.Chemscore.Internal.Correction>
   9.000000E+99

> <Gold.Chemscore.Hbonds>
donor molecule, donor type, donor heavy atom, donor atom, acceptor molecule, acceptor atom, score
      L1  H     7    24       P1  8028  1.00
      P1  H  7989  7998       L1    16  0.79

> <Gold.Chemscore.Hbond.Weighted>
-6.5836

> <Gold.Chemscore.Metal.Weighted>
-0.0000

> <Gold.Chemscore.Lipo.Weighted>
-12.6534

> <Gold.Chemscore.Internal_Hbond.Weighted>
0.0000

> <Gold.Chemscore.DEClash.Weighted>
0.2289

> <Gold.Chemscore.DEInternal.Weighted>
0.9114

> <Gold.Chemscore.Rot.Weighted>
4.1757

> <Gold.Chemscore.Internal.Correction.Weighted>
   9.000000E+99

> <Gold.Protein.RotatedTorsions>
[ 6907 6896 6895 6894 ] final -140.75 input  -60.11 | X-H torsion
[ 7974 7965 7964 7962 ] final   -4.46 input  175.53 | X-H torsion
[ 8008 7997 7996 7995 ] final -178.59 input   59.86 | X-H torsion
[ 10167 10162 10161 10158 ] final   54.59 input  -65.29 | X-H torsion
[ 10718 10713 10712 10709 ] final  123.80 input   66.30 | X-H torsion
[ 10763 10752 10751 10750 ] final  125.73 input  -60.55 | X-H torsion
[ 11005 11000 10999 10996 ] final  -79.73 input  -57.11 | X-H torsion

> <Gold.Protein.ActiveResidues>
 VAL166  LYS551  ARG553  GLY616  TRP617  ASP618  TYR619  PRO620  LYS621  CYS622 
 ASP623  PHE694  ASN695  SER759  ASP760  ASP761  ALA762  ILE779  LEU786  VAL792 
 PHE793  MET794  SER795  GLU796  ALA797  LYS798  CYS799  TRP800  GLU811  SER814 

> <Gold.Protein.RotatedAtoms>
  151.0648  133.5514  159.2631 H   0  0  0  0  0  0  0  0  0  0  0  0  # atno 6907 bound_to 6896
  151.2476  135.0610  159.9059 H   0  0  0  0  0  0  0  0  0  0  0  0  # atno 6908 bound_to 6896
  152.5403  134.0413  159.8122 H   0  0  0  0  0  0  0  0  0  0  0  0  # atno 6909 bound_to 6896
  146.2372  140.1875  142.8332 H   0  0  0  0  0  0  0  0  0  0  0  0  # atno 7974 bound_to 7965
  156.0207  140.1260  157.0361 H   0  0  0  0  0  0  0  0  0  0  0  0  # atno 8008 bound_to 7997
  154.4310  140.1069  156.6029 H   0  0  0  0  0  0  0  0  0  0  0  0  # atno 8009 bound_to 7997
  155.5949  140.3470  155.4579 H   0  0  0  0  0  0  0  0  0  0  0  0  # atno 8010 bound_to 7997
  140.2285  144.3713  150.6423 H   0  0  0  0  0  0  0  0  0  0  0  0  # atno 10167 bound_to 10162
  157.5636  131.1088  150.8494 H   0  0  0  0  0  0  0  0  0  0  0  0  # atno 10718 bound_to 10713
  153.6820  135.3313  155.3180 H   0  0  0  0  0  0  0  0  0  0  0  0  # atno 10763 bound_to 10752
  154.8463  135.4411  154.1597 H   0  0  0  0  0  0  0  0  0  0  0  0  # atno 10764 bound_to 10752
  153.2615  135.6991  153.7650 H   0  0  0  0  0  0  0  0  0  0  0  0  # atno 10765 bound_to 10752
  141.1667  133.7119  156.8166 H   0  0  0  0  0  0  0  0  0  0  0  0  # atno 11005 bound_to 11000
  144.9885  140.8525  143.5354 LP  0  0  0  0  0  0  0  0  0  0  0  0  # atno 17320 bound_to 7965
  145.1877  139.2317  143.5259 LP  0  0  0  0  0  0  0  0  0  0  0  0  # atno 17321 bound_to 7965
  140.6203  143.2175  151.6708 LP  0  0  0  0  0  0  0  0  0  0  0  0  # atno 17342 bound_to 10162
  139.5118  144.3495  152.0665 LP  0  0  0  0  0  0  0  0  0  0  0  0  # atno 17343 bound_to 10162
  156.8985  130.5238  149.5283 LP  0  0  0  0  0  0  0  0  0  0  0  0  # atno 17370 bound_to 10713
  156.0686  130.5724  150.9339 LP  0  0  0  0  0  0  0  0  0  0  0  0  # atno 17371 bound_to 10713
  140.2149  134.8800  157.3315 LP  0  0  0  0  0  0  0  0  0  0  0  0  # atno 17394 bound_to 11000
  140.2048  134.4210  155.7643 LP  0  0  0  0  0  0  0  0  0  0  0  0  # atno 17395 bound_to 11000

$$$$
