AV-unprocessed.smi:2541|AV-procd|sdf|9990|dock4
  -GOLD-   2272014 43D 1   1.00000     0.00000
 Structure written by MMmdl.
 38 39  0  0  0  0  0  0  0  0  1 V2000
  149.2996  130.7712  155.0328 O   0  0  0  0  0  0  0  0  0  0  0  0
  149.3964  131.9748  155.2728 C   0  0  0  0  0  0  0  0  0  0  0  0
  150.0308  132.4458  156.5826 C   0  0  0  0  0  0  0  0  0  0  0  0
  151.3149  131.7014  156.8376 C   0  0  0  0  0  0  0  0  0  0  0  0
  151.8894  130.6432  156.0792 C   0  0  0  0  0  0  0  0  0  0  0  0
  153.0330  130.3451  156.7624 C   0  0  0  0  0  0  0  0  0  0  0  0
  153.1616  131.1491  157.8475 O   0  0  0  0  0  0  0  0  0  0  0  0
  152.0618  132.0134  157.8862 N   0  0  0  0  0  0  0  0  0  0  0  0
  148.9635  132.9320  154.4370 N   0  0  0  0  0  0  0  0  0  0  0  0
  148.2781  132.7001  153.1704 C   0  0  0  0  0  0  0  0  0  0  0  0
  146.9480  133.4800  153.0899 C   0  0  1  0  0  0  0  0  0  0  0  0
  147.1849  134.8203  153.4782 O   0  0  0  0  0  0  0  0  0  0  0  0
  146.3099  133.4518  151.6785 C   0  0  0  0  0  0  0  0  0  0  0  0
  145.0513  134.3420  151.5422 C   0  0  0  0  0  0  0  0  0  0  0  0
  144.4782  134.3018  150.1162 C   0  0  0  0  0  0  0  0  0  0  0  0
  144.1783  132.8616  149.6745 C   0  0  0  0  0  0  0  0  0  0  0  0
  145.4301  131.9791  149.7892 C   0  0  0  0  0  0  0  0  0  0  0  0
  146.0041  132.0101  151.2150 C   0  0  0  0  0  0  0  0  0  0  0  0
  150.2222  133.5180  156.5284 H   0  0  0  0  0  0  0  0  0  0  0  0
  149.3209  132.2990  157.3982 H   0  0  0  0  0  0  0  0  0  0  0  0
  151.5178  130.1749  155.1801 H   0  0  0  0  0  0  0  0  0  0  0  0
  153.8214  129.6227  156.6108 H   0  0  0  0  0  0  0  0  0  0  0  0
  149.0809  133.8947  154.7187 H   0  0  0  0  0  0  0  0  0  0  0  0
  148.9450  132.9810  152.3547 H   0  0  0  0  0  0  0  0  0  0  0  0
  148.0958  131.6297  153.0606 H   0  0  0  0  0  0  0  0  0  0  0  0
  146.2339  133.0467  153.7917 H   0  0  0  0  0  0  0  0  0  0  0  0
  147.7890  135.2077  152.8634 H   0  0  0  0  0  0  0  0  0  0  0  0
  147.0583  133.8469  150.9898 H   0  0  0  0  0  0  0  0  0  0  0  0
  144.2831  134.0162  152.2444 H   0  0  0  0  0  0  0  0  0  0  0  0
  145.2860  135.3747  151.7994 H   0  0  0  0  0  0  0  0  0  0  0  0
  143.5699  134.9027  150.0646 H   0  0  0  0  0  0  0  0  0  0  0  0
  145.1881  134.7562  149.4241 H   0  0  0  0  0  0  0  0  0  0  0  0
  143.3799  132.4478  150.2918 H   0  0  0  0  0  0  0  0  0  0  0  0
  143.8112  132.8559  148.6478 H   0  0  0  0  0  0  0  0  0  0  0  0
  145.1884  130.9536  149.5084 H   0  0  0  0  0  0  0  0  0  0  0  0
  146.1863  132.3228  149.0823 H   0  0  0  0  0  0  0  0  0  0  0  0
  146.9109  131.4056  151.2529 H   0  0  0  0  0  0  0  0  0  0  0  0
  145.2932  131.5410  151.8961 H   0  0  0  0  0  0  0  0  0  0  0  0
  1  2  2  0  0  0  0
  2  3  1  0  0  0  0
  2  9  1  0  0  0  0
  3  4  1  0  0  0  0
  3 19  1  0  0  0  0
  3 20  1  0  0  0  0
  4  8  2  0  0  0  0
  4  5  1  0  0  0  0
  5  6  2  0  0  0  0
  5 21  1  0  0  0  0
  6  7  1  0  0  0  0
  6 22  1  0  0  0  0
  7  8  1  0  0  0  0
  9 10  1  0  0  0  0
  9 23  1  0  0  0  0
 10 11  1  0  0  0  0
 10 24  1  0  0  0  0
 10 25  1  0  0  0  0
 11 12  1  0  0  0  0
 11 13  1  0  0  0  0
 11 26  1  0  0  0  0
 12 27  1  0  0  0  0
 13 18  1  0  0  0  0
 13 14  1  0  0  0  0
 13 28  1  0  0  0  0
 14 15  1  0  0  0  0
 14 29  1  0  0  0  0
 14 30  1  0  0  0  0
 15 16  1  0  0  0  0
 15 31  1  0  0  0  0
 15 32  1  0  0  0  0
 16 17  1  0  0  0  0
 16 33  1  0  0  0  0
 16 34  1  0  0  0  0
 17 18  1  0  0  0  0
 17 35  1  0  0  0  0
 17 36  1  0  0  0  0
 18 37  1  0  0  0  0
 18 38  1  0  0  0  0
M  END
> <s_m_source_file>
AV-unprocessed.smi

> <i_m_source_file_index>
2541

> <i_lp_mmshare_version>
43012

> <i_f3d_flags>
0

> <s_epik_input>
bjFvW2NIXVtjSF1jMVtDSDJdQyg9TylbTkhdW0NIMl1bQ0BIXShbT0hdKVtDSF0yW0NIMl1bQ0gyXVtDSDJdW0NIMl1bQ0gyXTI=

> <s_epik_cmdline>
J2VwaWtfcHl0aG9uJywgJy1waCcsICc3LjAnLCAnLXRuJywgJzgnLCAnLW1hJywgJzIwMCcsICctbWV0YWxfYmluZGluZycsICctaW1hZScsICc8aW5maWxlLm1hZT4nLCAnLW9tYWUnLCAnPG91dGZpbGUubWFlPic=

> <r_lp_tautomer_probability>
1

> <r_epik_Ionization_Penalty>
2.3322e-07

> <r_epik_Ionization_Penalty_Charging>
0

> <r_epik_Ionization_Penalty_Neutral>
2.3322e-07

> <r_epik_State_Penalty>
-0

> <r_epik_Charging_Adjusted_Penalty>
0

> <i_epik_Tot_Q>
0

> <i_epik_Tot_abs_Q>
0

> <r_epik_Metal_State_Penalty>
-0

> <b_epik_Metal_Only>
0

> <s_lp_Force_Field>
OPLS_2005

> <r_lp_Energy>
13.2063

> <b_lp_Chiralities_Consistent>
1

> <s_lp_Variant>
AV-unprocessed.smi:2541-2

> <Gold.Version>
5.8.1

> <Gold.Id.Protein>
6NUR|6NUR_protein|mol2

> <Gold.PLP.Fitness>
37.5940

> <Gold.PLP.PLP>
-32.0831

> <Gold.PLP.part.hbond>
-2.0000

> <Gold.PLP.part.metal>
0.0000

> <Gold.PLP.part.buried>
-4.9256

> <Gold.PLP.part.nonpolar>
-25.3196

> <Gold.PLP.part.repulsive>
0.0127

> <Gold.PLP.ligand.clash>
0.0000

> <Gold.PLP.ligand.torsion>
0.2757

> <Gold.PLP.Chemscore.Hbond>
2.0000

> <Gold.PLP.Chemscore.CHOScore>
0.0000

> <Gold.PLP.Chemscore.Metal>
0.0000

> <Gold.Chemscore.Hbonds>
donor molecule, donor type, donor heavy atom, donor atom, acceptor molecule, acceptor atom, score
      L1  H    12    27       P1  7948  1.00
      P1  H  6896  6908       L1     8  1.00

> <Gold.PLP.Chemscore.Internal.Correction>
0.0623

> <Gold.Rescore>
     Score         DG    S(hbond)    S(metal)    S(lipo)     H(rot)  DE(clash)    DE(int)     intcor
     13.79     -15.16       1.99        0.00      78.93       2.42       0.00       1.37       ----

> <Gold.Chemscore.Fitness>
13.7935

> <Gold.Chemscore.DG>
-15.1628

> <Gold.Chemscore.ZeroCoef>
-5.4800

> <Gold.Chemscore.Hbond>
1.9868

> <Gold.Chemscore.Metal>
0.0000

> <Gold.Chemscore.Lipo>
78.9315

> <Gold.Chemscore.Internal_Hbond>
0.0000

> <Gold.Chemscore.DEClash>
0.0000

> <Gold.Chemscore.DEInternal>
1.3693

> <Gold.Chemscore.Rot>
2.4172

> <Gold.Chemscore.Internal.Correction>
   9.000000E+99

> <Gold.Chemscore.Hbonds>
donor molecule, donor type, donor heavy atom, donor atom, acceptor molecule, acceptor atom, score
      L1  H    12    27       P1  7948  1.00
      P1  H  6896  6908       L1     8  0.93

> <Gold.Chemscore.Hbond.Weighted>
-6.6358

> <Gold.Chemscore.Metal.Weighted>
-0.0000

> <Gold.Chemscore.Lipo.Weighted>
-9.2350

> <Gold.Chemscore.Internal_Hbond.Weighted>
0.0000

> <Gold.Chemscore.DEClash.Weighted>
0.0000

> <Gold.Chemscore.DEInternal.Weighted>
1.3693

> <Gold.Chemscore.Rot.Weighted>
6.1880

> <Gold.Chemscore.Internal.Correction.Weighted>
   9.000000E+99

> <Gold.Protein.RotatedTorsions>
[ 6907 6896 6895 6894 ] final   40.92 input  -60.11 | X-H torsion
[ 7974 7965 7964 7962 ] final -117.46 input  175.53 | X-H torsion
[ 8008 7997 7996 7995 ] final  132.34 input   59.86 | X-H torsion
[ 10167 10162 10161 10158 ] final   66.23 input  -65.29 | X-H torsion
[ 10718 10713 10712 10709 ] final -105.90 input   66.30 | X-H torsion
[ 10763 10752 10751 10750 ] final -157.42 input  -60.55 | X-H torsion
[ 11005 11000 10999 10996 ] final  155.45 input  -57.11 | X-H torsion

> <Gold.Protein.ActiveResidues>
 VAL166  LYS551  ARG553  GLY616  TRP617  ASP618  TYR619  PRO620  LYS621  CYS622 
 ASP623  PHE694  ASN695  SER759  ASP760  ASP761  ALA762  ILE779  LEU786  VAL792 
 PHE793  MET794  SER795  GLU796  ALA797  LYS798  CYS799  TRP800  GLU811  SER814 

> <Gold.Protein.RotatedAtoms>
  152.1887  134.8691  160.0519 H   0  0  0  0  0  0  0  0  0  0  0  0  # atno 6907 bound_to 6896
  151.9588  133.3684  159.4036 H   0  0  0  0  0  0  0  0  0  0  0  0  # atno 6908 bound_to 6896
  150.6931  134.4186  159.5238 H   0  0  0  0  0  0  0  0  0  0  0  0  # atno 6909 bound_to 6896
  145.0850  140.8451  143.4016 H   0  0  0  0  0  0  0  0  0  0  0  0  # atno 7974 bound_to 7965
  156.2981  140.2549  156.3073 H   0  0  0  0  0  0  0  0  0  0  0  0  # atno 8008 bound_to 7997
  154.9360  140.0397  157.2091 H   0  0  0  0  0  0  0  0  0  0  0  0  # atno 8009 bound_to 7997
  154.8172  140.2854  155.5816 H   0  0  0  0  0  0  0  0  0  0  0  0  # atno 8010 bound_to 7997
  140.1027  144.4889  150.7027 H   0  0  0  0  0  0  0  0  0  0  0  0  # atno 10167 bound_to 10162
  156.0366  130.5586  150.7605 H   0  0  0  0  0  0  0  0  0  0  0  0  # atno 10718 bound_to 10713
  154.7637  135.3125  154.8328 H   0  0  0  0  0  0  0  0  0  0  0  0  # atno 10763 bound_to 10752
  153.9082  135.6808  153.4756 H   0  0  0  0  0  0  0  0  0  0  0  0  # atno 10764 bound_to 10752
  153.1240  135.4809  154.9175 H   0  0  0  0  0  0  0  0  0  0  0  0  # atno 10765 bound_to 10752
  140.1582  134.8627  157.2541 H   0  0  0  0  0  0  0  0  0  0  0  0  # atno 11005 bound_to 11000
  145.1133  139.2742  143.5626 LP  0  0  0  0  0  0  0  0  0  0  0  0  # atno 17320 bound_to 7965
  146.3531  140.0736  142.8622 LP  0  0  0  0  0  0  0  0  0  0  0  0  # atno 17321 bound_to 7965
  140.6969  143.2409  151.4975 LP  0  0  0  0  0  0  0  0  0  0  0  0  # atno 17342 bound_to 10162
  139.5662  144.2036  152.1769 LP  0  0  0  0  0  0  0  0  0  0  0  0  # atno 17343 bound_to 10162
  157.5125  131.0926  151.0180 LP  0  0  0  0  0  0  0  0  0  0  0  0  # atno 17370 bound_to 10713
  157.0532  130.5795  149.5373 LP  0  0  0  0  0  0  0  0  0  0  0  0  # atno 17371 bound_to 10713
  140.2521  134.3670  155.7438 LP  0  0  0  0  0  0  0  0  0  0  0  0  # atno 17394 bound_to 11000
  141.2207  133.7322  156.8952 LP  0  0  0  0  0  0  0  0  0  0  0  0  # atno 17395 bound_to 11000

$$$$
