AV-unprocessed.smi:3113|AV-procd|sdf|11853|dock5
  -GOLD-   2272017233D 1   1.00000     0.00000
 Structure written by MMmdl.
 35 36  0  0  0  0  0  0  0  0  2 V2000
  153.4899  143.3953  161.8238 C   0  0  0  0  0  0  0  0  0  0  0  0
  153.7087  142.5139  160.7280 C   0  0  0  0  0  0  0  0  0  0  0  0
  153.4056  143.0638  159.5629 N   0  0  0  0  0  0  0  0  0  0  0  0
  152.9823  144.3072  159.8755 N   0  0  0  0  0  0  0  0  0  0  0  0
  152.5638  145.2087  158.8201 C   0  0  0  0  0  0  0  0  0  0  0  0
  152.2581  144.4538  157.5190 C   0  0  0  0  0  0  0  0  0  0  0  0
  150.9957  143.6985  157.6302 N   0  3  0  0  0  0  0  0  0  0  0  0
  151.1785  142.2526  157.8652 C   0  0  0  0  0  0  0  0  0  0  0  0
  150.8189  141.4402  156.6132 C   0  0  1  0  0  0  0  0  0  0  0  0
  151.1806  139.9504  156.7686 C   0  0  0  0  0  0  0  0  0  0  0  0
  150.7317  139.1564  155.5364 C   0  0  0  0  0  0  0  0  0  0  0  0
  149.2460  139.4156  155.2656 C   0  0  0  0  0  0  0  0  0  0  0  0
  148.9682  140.9261  155.2021 C   0  0  0  0  0  0  0  0  0  0  0  0
  149.4131  141.5545  156.4009 O   0  0  0  0  0  0  0  0  0  0  0  0
  153.0227  144.5354  161.2350 C   0  0  0  0  0  0  0  0  0  0  0  0
  153.6507  143.2175  162.8768 H   0  0  0  0  0  0  0  0  0  0  0  0
  154.0774  141.4987  160.7445 H   0  0  0  0  0  0  0  0  0  0  0  0
  151.6851  145.7591  159.1599 H   0  0  0  0  0  0  0  0  0  0  0  0
  153.3543  145.9427  158.6584 H   0  0  0  0  0  0  0  0  0  0  0  0
  152.1841  145.1578  156.6888 H   0  0  0  0  0  0  0  0  0  0  0  0
  153.0683  143.7614  157.2856 H   0  0  0  0  0  0  0  0  0  0  0  0
  150.4596  144.0796  158.3972 H   0  0  0  0  0  0  0  0  0  0  0  0
  152.2203  142.0734  158.1344 H   0  0  0  0  0  0  0  0  0  0  0  0
  150.5678  141.9355  158.7120 H   0  0  0  0  0  0  0  0  0  0  0  0
  151.3523  141.8535  155.7549 H   0  0  0  0  0  0  0  0  0  0  0  0
  152.2552  139.8340  156.9138 H   0  0  0  0  0  0  0  0  0  0  0  0
  150.6991  139.5443  157.6594 H   0  0  0  0  0  0  0  0  0  0  0  0
  151.3217  139.4586  154.6702 H   0  0  0  0  0  0  0  0  0  0  0  0
  150.9121  138.0912  155.6823 H   0  0  0  0  0  0  0  0  0  0  0  0
  148.9430  138.9363  154.3343 H   0  0  0  0  0  0  0  0  0  0  0  0
  148.6449  138.9679  156.0582 H   0  0  0  0  0  0  0  0  0  0  0  0
  149.4602  141.3772  154.3390 H   0  0  0  0  0  0  0  0  0  0  0  0
  147.8990  141.1051  155.0870 H   0  0  0  0  0  0  0  0  0  0  0  0
  152.7210  145.4787  161.6661 H   0  0  0  0  0  0  0  0  0  0  0  0
  150.4705  143.8215  156.7764 H   0  0  0  0  0  0  0  0  0  0  0  0
  1 15  2  0  0  0  0
  1  2  1  0  0  0  0
  1 16  1  0  0  0  0
  2  3  2  0  0  0  0
  2 17  1  0  0  0  0
  3  4  1  0  0  0  0
  4  5  1  0  0  0  0
  4 15  1  0  0  0  0
  5  6  1  0  0  0  0
  5 18  1  0  0  0  0
  5 19  1  0  0  0  0
  6  7  1  0  0  0  0
  6 20  1  0  0  0  0
  6 21  1  0  0  0  0
  7  8  1  0  0  0  0
  7 22  1  0  0  0  0
  7 35  1  0  0  0  0
  8  9  1  0  0  0  0
  8 23  1  0  0  0  0
  8 24  1  0  0  0  0
  9 14  1  0  0  0  0
  9 10  1  0  0  0  0
  9 25  1  0  0  0  0
 10 11  1  0  0  0  0
 10 26  1  0  0  0  0
 10 27  1  0  0  0  0
 11 12  1  0  0  0  0
 11 28  1  0  0  0  0
 11 29  1  0  0  0  0
 12 13  1  0  0  0  0
 12 30  1  0  0  0  0
 12 31  1  0  0  0  0
 13 14  1  0  0  0  0
 13 32  1  0  0  0  0
 13 33  1  0  0  0  0
 15 34  1  0  0  0  0
M  CHG  1   7   1
M  END
> <s_m_source_file>
AV-unprocessed.smi

> <i_m_source_file_index>
3113

> <i_lp_mmshare_version>
43012

> <i_f3d_flags>
0

> <s_epik_input>
W2NIXTFbY0hdW2NIXW5uMVtDSDJdW0NIMl1bTkhdW0NIMl1bQ0BASF0yW0NIMl1bQ0gyXVtDSDJdW0NIMl1PMg==

> <s_epik_cmdline>
J2VwaWtfcHl0aG9uJywgJy1waCcsICc3LjAnLCAnLXRuJywgJzgnLCAnLW1hJywgJzIwMCcsICctbWV0YWxfYmluZGluZycsICctaW1hZScsICc8aW5maWxlLm1hZT4nLCAnLW9tYWUnLCAnPG91dGZpbGUubWFlPic=

> <r_lp_tautomer_probability>
1

> <r_epik_Ionization_Penalty>
0.00849054

> <r_epik_Ionization_Penalty_Charging>
0.00848754

> <r_epik_Ionization_Penalty_Neutral>
3.00382e-06

> <r_epik_State_Penalty>
0.00639836

> <r_epik_Charging_Adjusted_Penalty>
0.0148859

> <i_epik_Tot_Q>
1

> <i_epik_Tot_abs_Q>
1

> <r_epik_Metal_State_Penalty>
0.00641155

> <b_epik_Metal_Only>
0

> <s_lp_Force_Field>
OPLS_2005

> <r_lp_Energy>
10.7636

> <b_lp_Chiralities_Consistent>
1

> <s_lp_Variant>
AV-unprocessed.smi:3113-2

> <Gold.Version>
5.8.1

> <Gold.Id.Protein>
6NUR|6NUR_protein|mol2

> <Gold.PLP.Fitness>
49.6152

> <Gold.PLP.PLP>
-45.5028

> <Gold.PLP.part.hbond>
-1.0000

> <Gold.PLP.part.metal>
0.0000

> <Gold.PLP.part.buried>
-4.3649

> <Gold.PLP.part.nonpolar>
-40.4653

> <Gold.PLP.part.repulsive>
0.1004

> <Gold.PLP.ligand.clash>
0.0000

> <Gold.PLP.ligand.torsion>
0.9462

> <Gold.PLP.Chemscore.Hbond>
1.9840

> <Gold.PLP.Chemscore.CHOScore>
0.0000

> <Gold.PLP.Chemscore.Metal>
0.0000

> <Gold.Chemscore.Hbonds>
donor molecule, donor type, donor heavy atom, donor atom, acceptor molecule, acceptor atom, score
      L1  H     7    35       P1  8028  1.56

> <Gold.PLP.Chemscore.Internal.Correction>
0.0528

> <Gold.Rescore>
     Score         DG    S(hbond)    S(metal)    S(lipo)     H(rot)  DE(clash)    DE(int)     intcor
     15.19     -16.32       0.99        0.00     101.56       1.70       0.14       0.99       ----

> <Gold.Chemscore.Fitness>
15.1900

> <Gold.Chemscore.DG>
-16.3166

> <Gold.Chemscore.ZeroCoef>
-5.4800

> <Gold.Chemscore.Hbond>
0.9888

> <Gold.Chemscore.Metal>
0.0000

> <Gold.Chemscore.Lipo>
101.5585

> <Gold.Chemscore.Internal_Hbond>
0.0000

> <Gold.Chemscore.DEClash>
0.1381

> <Gold.Chemscore.DEInternal>
0.9885

> <Gold.Chemscore.Rot>
1.6985

> <Gold.Chemscore.Internal.Correction>
   9.000000E+99

> <Gold.Chemscore.Hbonds>
donor molecule, donor type, donor heavy atom, donor atom, acceptor molecule, acceptor atom, score
      L1  H     7    35       P1  8028  0.73

> <Gold.Chemscore.Hbond.Weighted>
-3.3025

> <Gold.Chemscore.Metal.Weighted>
-0.0000

> <Gold.Chemscore.Lipo.Weighted>
-11.8823

> <Gold.Chemscore.Internal_Hbond.Weighted>
0.0000

> <Gold.Chemscore.DEClash.Weighted>
0.1381

> <Gold.Chemscore.DEInternal.Weighted>
0.9885

> <Gold.Chemscore.Rot.Weighted>
4.3482

> <Gold.Chemscore.Internal.Correction.Weighted>
   9.000000E+99

> <Gold.Protein.RotatedTorsions>
[ 6907 6896 6895 6894 ] final   -1.44 input  -60.11 | X-H torsion
[ 7974 7965 7964 7962 ] final   45.06 input  175.53 | X-H torsion
[ 8008 7997 7996 7995 ] final  136.10 input   59.86 | X-H torsion
[ 10167 10162 10161 10158 ] final  -52.52 input  -65.29 | X-H torsion
[ 10718 10713 10712 10709 ] final   99.39 input   66.30 | X-H torsion
[ 10763 10752 10751 10750 ] final  175.49 input  -60.55 | X-H torsion
[ 11005 11000 10999 10996 ] final  -50.23 input  -57.11 | X-H torsion

> <Gold.Protein.ActiveResidues>
 VAL166  LYS551  ARG553  GLY616  TRP617  ASP618  TYR619  PRO620  LYS621  CYS622 
 ASP623  PHE694  ASN695  SER759  ASP760  ASP761  ALA762  ILE779  LEU786  VAL792 
 PHE793  MET794  SER795  GLU796  ALA797  LYS798  CYS799  TRP800  GLU811  SER814 

> <Gold.Protein.RotatedAtoms>
  151.5461  135.1068  159.9937 H   0  0  0  0  0  0  0  0  0  0  0  0  # atno 6907 bound_to 6896
  152.4513  133.7631  159.6768 H   0  0  0  0  0  0  0  0  0  0  0  0  # atno 6908 bound_to 6896
  150.8442  133.7821  159.3073 H   0  0  0  0  0  0  0  0  0  0  0  0  # atno 6909 bound_to 6896
  146.0514  139.5006  142.9716 H   0  0  0  0  0  0  0  0  0  0  0  0  # atno 7974 bound_to 7965
  156.3004  140.2454  156.3689 H   0  0  0  0  0  0  0  0  0  0  0  0  # atno 8008 bound_to 7997
  154.8807  140.0412  157.1800 H   0  0  0  0  0  0  0  0  0  0  0  0  # atno 8009 bound_to 7997
  154.8699  140.2933  155.5491 H   0  0  0  0  0  0  0  0  0  0  0  0  # atno 8010 bound_to 7997
  140.6533  143.2581  151.4660 H   0  0  0  0  0  0  0  0  0  0  0  0  # atno 10167 bound_to 10162
  157.6877  131.0668  150.4941 H   0  0  0  0  0  0  0  0  0  0  0  0  # atno 10718 bound_to 10713
  154.4683  135.2770  155.1662 H   0  0  0  0  0  0  0  0  0  0  0  0  # atno 10763 bound_to 10752
  154.3421  135.6168  153.5605 H   0  0  0  0  0  0  0  0  0  0  0  0  # atno 10764 bound_to 10752
  152.9861  135.5791  154.5058 H   0  0  0  0  0  0  0  0  0  0  0  0  # atno 10765 bound_to 10752
  141.0804  133.6655  156.3700 H   0  0  0  0  0  0  0  0  0  0  0  0  # atno 11005 bound_to 11000
  145.6718  141.0214  143.1653 LP  0  0  0  0  0  0  0  0  0  0  0  0  # atno 17320 bound_to 7965
  144.7124  139.8319  143.7410 LP  0  0  0  0  0  0  0  0  0  0  0  0  # atno 17321 bound_to 7965
  139.5751  144.1837  152.1892 LP  0  0  0  0  0  0  0  0  0  0  0  0  # atno 17342 bound_to 10162
  140.1145  144.5427  150.6903 LP  0  0  0  0  0  0  0  0  0  0  0  0  # atno 17343 bound_to 10162
  156.5266  130.4174  149.6223 LP  0  0  0  0  0  0  0  0  0  0  0  0  # atno 17370 bound_to 10713
  156.3107  130.7227  151.2119 LP  0  0  0  0  0  0  0  0  0  0  0  0  # atno 17371 bound_to 10713
  140.5481  134.6054  157.5400 LP  0  0  0  0  0  0  0  0  0  0  0  0  # atno 17394 bound_to 11000
  139.9618  134.7440  156.0222 LP  0  0  0  0  0  0  0  0  0  0  0  0  # atno 17395 bound_to 11000

$$$$
