AV-unprocessed.smi:460|AV-procd|sdf|2627|dock6
  -GOLD-   2262023 33D 1   1.00000     0.00000
 Structure written by MMmdl.
 46 48  0  0  0  0  0  0  0  0  1 V2000
  147.4621  140.5737  153.4834 C   0  0  0  0  0  0  0  0  0  0  0  0
  148.2562  141.3046  154.5777 C   0  0  0  0  0  0  0  0  0  0  0  0
  149.4511  140.5150  155.1547 C   0  0  1  0  0  0  0  0  0  0  0  0
  150.3059  140.1482  154.0887 O   0  0  0  0  0  0  0  0  0  0  0  0
  150.1791  141.2451  156.2538 C   0  0  0  0  0  0  0  0  0  0  0  0
  149.7792  142.4352  156.7101 N   0  0  0  0  0  0  0  0  0  0  0  0
  150.7069  142.7169  157.6925 C   0  0  0  0  0  0  0  0  0  0  0  0
  150.8369  143.8421  158.5377 C   0  0  0  0  0  0  0  0  0  0  0  0
  151.8871  143.9122  159.4765 C   0  0  0  0  0  0  0  0  0  0  0  0
  152.8182  142.8591  159.5853 C   0  0  0  0  0  0  0  0  0  0  0  0
  152.7031  141.7275  158.7558 C   0  0  0  0  0  0  0  0  0  0  0  0
  151.6556  141.6641  157.8172 C   0  0  0  0  0  0  0  0  0  0  0  0
  151.2746  140.7234  156.8641 N   0  0  0  0  0  0  0  0  0  0  0  0
  151.9480  139.4591  156.5951 C   0  0  0  0  0  0  0  0  0  0  0  0
  152.2670  138.6926  157.8873 C   0  0  0  0  0  0  0  0  0  0  0  0
  153.6101  138.9709  158.2559 O   0  0  0  0  0  0  0  0  0  0  0  0
  154.0447  138.6231  159.5158 C   0  0  0  0  0  0  0  0  0  0  0  0
  153.3174  137.7828  160.3948 C   0  0  0  0  0  0  0  0  0  0  0  0
  153.8266  137.4763  161.6700 C   0  0  0  0  0  0  0  0  0  0  0  0
  155.0638  138.0041  162.0781 C   0  0  0  0  0  0  0  0  0  0  0  0
  155.7934  138.8384  161.2116 C   0  0  0  0  0  0  0  0  0  0  0  0
  155.2892  139.1544  159.9246 C   0  0  0  0  0  0  0  0  0  0  0  0
  155.9478  139.9621  159.0201 O   0  0  0  0  0  0  0  0  0  0  0  0
  157.1851  140.5396  159.4074 C   0  0  0  0  0  0  0  0  0  0  0  0
  146.6115  141.1739  153.1599 H   0  0  0  0  0  0  0  0  0  0  0  0
  147.0753  139.6199  153.8429 H   0  0  0  0  0  0  0  0  0  0  0  0
  148.0765  140.3785  152.6044 H   0  0  0  0  0  0  0  0  0  0  0  0
  148.6160  142.2468  154.1644 H   0  0  0  0  0  0  0  0  0  0  0  0
  147.5796  141.5768  155.3888 H   0  0  0  0  0  0  0  0  0  0  0  0
  149.0799  139.5724  155.5561 H   0  0  0  0  0  0  0  0  0  0  0  0
  149.7828  140.0454  153.3086 H   0  0  0  0  0  0  0  0  0  0  0  0
  150.1294  144.6544  158.4607 H   0  0  0  0  0  0  0  0  0  0  0  0
  151.9797  144.7785  160.1150 H   0  0  0  0  0  0  0  0  0  0  0  0
  153.6222  142.9210  160.3039 H   0  0  0  0  0  0  0  0  0  0  0  0
  153.4185  140.9223  158.8326 H   0  0  0  0  0  0  0  0  0  0  0  0
  151.3023  138.8551  155.9568 H   0  0  0  0  0  0  0  0  0  0  0  0
  152.8560  139.6375  156.0207 H   0  0  0  0  0  0  0  0  0  0  0  0
  151.5843  139.0051  158.6784 H   0  0  0  0  0  0  0  0  0  0  0  0
  152.1318  137.6222  157.7249 H   0  0  0  0  0  0  0  0  0  0  0  0
  152.3632  137.3636  160.1141 H   0  0  0  0  0  0  0  0  0  0  0  0
  153.2664  136.8365  162.3356 H   0  0  0  0  0  0  0  0  0  0  0  0
  155.4542  137.7695  163.0576 H   0  0  0  0  0  0  0  0  0  0  0  0
  156.7388  139.2258  161.5591 H   0  0  0  0  0  0  0  0  0  0  0  0
  157.5826  141.1236  158.5773 H   0  0  0  0  0  0  0  0  0  0  0  0
  157.9222  139.7745  159.6548 H   0  0  0  0  0  0  0  0  0  0  0  0
  157.0622  141.2136  160.2562 H   0  0  0  0  0  0  0  0  0  0  0  0
  1  2  1  0  0  0  0
  1 25  1  0  0  0  0
  1 26  1  0  0  0  0
  1 27  1  0  0  0  0
  2  3  1  0  0  0  0
  2 28  1  0  0  0  0
  2 29  1  0  0  0  0
  3  4  1  0  0  0  0
  3  5  1  0  0  0  0
  3 30  1  0  0  0  0
  4 31  1  0  0  0  0
  5 13  1  0  0  0  0
  5  6  2  0  0  0  0
  6  7  1  0  0  0  0
  7 12  2  0  0  0  0
  7  8  1  0  0  0  0
  8  9  2  0  0  0  0
  8 32  1  0  0  0  0
  9 10  1  0  0  0  0
  9 33  1  0  0  0  0
 10 11  2  0  0  0  0
 10 34  1  0  0  0  0
 11 12  1  0  0  0  0
 11 35  1  0  0  0  0
 12 13  1  0  0  0  0
 13 14  1  0  0  0  0
 14 15  1  0  0  0  0
 14 36  1  0  0  0  0
 14 37  1  0  0  0  0
 15 16  1  0  0  0  0
 15 38  1  0  0  0  0
 15 39  1  0  0  0  0
 16 17  1  0  0  0  0
 17 22  1  0  0  0  0
 17 18  2  0  0  0  0
 18 19  1  0  0  0  0
 18 40  1  0  0  0  0
 19 20  2  0  0  0  0
 19 41  1  0  0  0  0
 20 21  1  0  0  0  0
 20 42  1  0  0  0  0
 21 22  2  0  0  0  0
 21 43  1  0  0  0  0
 22 23  1  0  0  0  0
 23 24  1  0  0  0  0
 24 44  1  0  0  0  0
 24 45  1  0  0  0  0
 24 46  1  0  0  0  0
M  END
> <s_m_source_file>
AV-unprocessed.smi

> <i_m_source_file_index>
460

> <i_lp_mmshare_version>
43012

> <i_f3d_flags>
0

> <s_epik_input>
W2NIXTFbY0hdW2NIXVtjSF1jKGMxMiluKGMobjIpW0NAQEhdKFtPSF0pW0NIMl1bQ0gzXSlbQ0gyXVtDSDJdT2MzW2NIXVtjSF1bY0hdW2NIXWMzT1tDSDNd

> <s_epik_cmdline>
J2VwaWtfcHl0aG9uJywgJy1waCcsICc3LjAnLCAnLXRuJywgJzgnLCAnLW1hJywgJzIwMCcsICctbWV0YWxfYmluZGluZycsICctaW1hZScsICc8aW5maWxlLm1hZT4nLCAnLW9tYWUnLCAnPG91dGZpbGUubWFlPic=

> <r_lp_tautomer_probability>
1

> <r_epik_Ionization_Penalty>
0.0507825

> <r_epik_Ionization_Penalty_Charging>
0

> <r_epik_Ionization_Penalty_Neutral>
0.0507825

> <r_epik_State_Penalty>
0.0434615

> <r_epik_Charging_Adjusted_Penalty>
0.0434615

> <i_epik_Tot_Q>
0

> <i_epik_Tot_abs_Q>
0

> <r_epik_Metal_State_Penalty>
4.50935e-05

> <b_epik_Metal_Only>
0

> <s_lp_Force_Field>
OPLS_2005

> <r_lp_Energy>
20.6013

> <b_lp_Chiralities_Consistent>
1

> <s_lp_Variant>
AV-unprocessed.smi:460-2

> <Gold.Version>
5.8.1

> <Gold.Id.Protein>
6NUR|6NUR_protein|mol2

> <Gold.PLP.Fitness>
49.7430

> <Gold.PLP.PLP>
-41.9456

> <Gold.PLP.part.hbond>
-3.7317

> <Gold.PLP.part.metal>
0.0000

> <Gold.PLP.part.buried>
-4.3533

> <Gold.PLP.part.nonpolar>
-37.3341

> <Gold.PLP.part.repulsive>
3.2366

> <Gold.PLP.ligand.clash>
0.0000

> <Gold.PLP.ligand.torsion>
0.6364

> <Gold.PLP.Chemscore.Hbond>
2.9680

> <Gold.PLP.Chemscore.CHOScore>
0.0000

> <Gold.PLP.Chemscore.Metal>
0.0000

> <Gold.Chemscore.Hbonds>
donor molecule, donor type, donor heavy atom, donor atom, acceptor molecule, acceptor atom, score
      L1  H     4    31       P1  7957  0.69
      P1  H  7989  7998       L1     4  1.00
      P1  H  7997  8008       L1    23  0.23
      P1  H  7997  8009       L1    16  1.00

> <Gold.PLP.Chemscore.Internal.Correction>
0.1664

> <Gold.Rescore>
     Score         DG    S(hbond)    S(metal)    S(lipo)     H(rot)  DE(clash)    DE(int)     intcor
     20.11     -22.47       2.48        0.00     125.89       2.36       1.59       0.77       ----

> <Gold.Chemscore.Fitness>
20.1072

> <Gold.Chemscore.DG>
-22.4656

> <Gold.Chemscore.ZeroCoef>
-5.4800

> <Gold.Chemscore.Hbond>
2.4835

> <Gold.Chemscore.Metal>
0.0000

> <Gold.Chemscore.Lipo>
125.8891

> <Gold.Chemscore.Internal_Hbond>
0.0000

> <Gold.Chemscore.DEClash>
1.5856

> <Gold.Chemscore.DEInternal>
0.7729

> <Gold.Chemscore.Rot>
2.3587

> <Gold.Chemscore.Internal.Correction>
   9.000000E+99

> <Gold.Chemscore.Hbonds>
donor molecule, donor type, donor heavy atom, donor atom, acceptor molecule, acceptor atom, score
      L1  H     4    31       P1  7957  0.65
      P1  H  7989  7998       L1     4  0.24
      P1  H  7997  8008       L1    23  0.05
      P1  H  7997  8009       L1    16  0.69

> <Gold.Chemscore.Hbond.Weighted>
-8.2950

> <Gold.Chemscore.Metal.Weighted>
-0.0000

> <Gold.Chemscore.Lipo.Weighted>
-14.7290

> <Gold.Chemscore.Internal_Hbond.Weighted>
0.0000

> <Gold.Chemscore.DEClash.Weighted>
1.5856

> <Gold.Chemscore.DEInternal.Weighted>
0.7729

> <Gold.Chemscore.Rot.Weighted>
6.0384

> <Gold.Chemscore.Internal.Correction.Weighted>
   9.000000E+99

> <Gold.Protein.RotatedTorsions>
[ 6907 6896 6895 6894 ] final  -95.87 input  -60.11 | X-H torsion
[ 7974 7965 7964 7962 ] final   72.65 input  175.53 | X-H torsion
[ 8008 7997 7996 7995 ] final  168.78 input   59.86 | X-H torsion
[ 10167 10162 10161 10158 ] final  108.19 input  -65.29 | X-H torsion
[ 10718 10713 10712 10709 ] final   34.98 input   66.30 | X-H torsion
[ 10763 10752 10751 10750 ] final  141.98 input  -60.55 | X-H torsion
[ 11005 11000 10999 10996 ] final -140.55 input  -57.11 | X-H torsion

> <Gold.Protein.ActiveResidues>
 VAL166  LYS551  ARG553  GLY616  TRP617  ASP618  TYR619  PRO620  LYS621  CYS622 
 ASP623  PHE694  ASN695  SER759  ASP760  ASP761  ALA762  ILE779  LEU786  VAL792 
 PHE793  MET794  SER795  GLU796  ALA797  LYS798  CYS799  TRP800  GLU811  SER814 

> <Gold.Protein.RotatedAtoms>
  150.6974  134.1590  159.4168 H   0  0  0  0  0  0  0  0  0  0  0  0  # atno 6907 bound_to 6896
  151.9571  135.0139  160.0555 H   0  0  0  0  0  0  0  0  0  0  0  0  # atno 6908 bound_to 6896
  152.1960  133.4771  159.5070 H   0  0  0  0  0  0  0  0  0  0  0  0  # atno 6909 bound_to 6896
  145.7507  139.2758  143.1433 H   0  0  0  0  0  0  0  0  0  0  0  0  # atno 7974 bound_to 7965
  156.1517  140.1581  156.8759 H   0  0  0  0  0  0  0  0  0  0  0  0  # atno 8008 bound_to 7997
  154.5077  140.0809  156.7964 H   0  0  0  0  0  0  0  0  0  0  0  0  # atno 8009 bound_to 7997
  155.3883  140.3408  155.4252 H   0  0  0  0  0  0  0  0  0  0  0  0  # atno 8010 bound_to 7997
  139.6866  144.7112  151.1421 H   0  0  0  0  0  0  0  0  0  0  0  0  # atno 10167 bound_to 10162
  157.3171  130.7429  149.6761 H   0  0  0  0  0  0  0  0  0  0  0  0  # atno 10718 bound_to 10713
  153.9483  135.2972  155.3440 H   0  0  0  0  0  0  0  0  0  0  0  0  # atno 10763 bound_to 10752
  154.7440  135.5011  153.9175 H   0  0  0  0  0  0  0  0  0  0  0  0  # atno 10764 bound_to 10752
  153.1007  135.6733  153.9786 H   0  0  0  0  0  0  0  0  0  0  0  0  # atno 10765 bound_to 10752
  140.8412  134.2400  157.4809 H   0  0  0  0  0  0  0  0  0  0  0  0  # atno 11005 bound_to 11000
  146.0359  140.8212  142.9852 LP  0  0  0  0  0  0  0  0  0  0  0  0  # atno 17320 bound_to 7965
  144.6850  140.2838  143.7288 LP  0  0  0  0  0  0  0  0  0  0  0  0  # atno 17321 bound_to 7965
  140.7670  143.5620  150.9089 LP  0  0  0  0  0  0  0  0  0  0  0  0  # atno 17342 bound_to 10162
  139.9295  143.6510  152.3079 LP  0  0  0  0  0  0  0  0  0  0  0  0  # atno 17343 bound_to 10162
  155.9682  130.4234  150.4561 LP  0  0  0  0  0  0  0  0  0  0  0  0  # atno 17370 bound_to 10713
  157.2570  131.0558  151.2344 LP  0  0  0  0  0  0  0  0  0  0  0  0  # atno 17371 bound_to 10713
  139.8703  134.9636  156.4468 LP  0  0  0  0  0  0  0  0  0  0  0  0  # atno 17394 bound_to 11000
  140.8893  133.7860  155.9554 LP  0  0  0  0  0  0  0  0  0  0  0  0  # atno 17395 bound_to 11000

$$$$
