AV-unprocessed.smi:994|AV-procd|sdf|4341|dock2
  -GOLD-   22720 2243D 1   1.00000     0.00000
 Structure written by MMmdl.
 37 38  0  0  0  0  0  0  0  0  2 V2000
  153.8373  139.4886  158.5904 O   0  0  0  0  0  0  0  0  0  0  0  0
  152.7293  139.9483  158.3108 C   0  0  0  0  0  0  0  0  0  0  0  0
  151.9607  139.4760  157.3177 N   0  0  0  0  0  0  0  0  0  0  0  0
  152.2873  138.3511  156.4422 C   0  0  2  0  0  0  0  0  0  0  0  0
  152.0738  138.7843  154.9757 C   0  0  0  0  0  0  0  0  0  0  0  0
  150.8199  139.5936  154.7449 C   0  0  0  0  0  0  0  0  0  0  0  0
  149.6702  139.3192  154.0367 C   0  0  0  0  0  0  0  0  0  0  0  0
  148.7808  140.3918  154.1411 N   0  0  0  0  0  0  0  0  0  0  0  0
  149.4214  141.2695  154.9046 C   0  0  0  0  0  0  0  0  0  0  0  0
  150.6311  140.8529  155.2879 N   0  0  0  0  0  0  0  0  0  0  0  0
  151.3596  137.1690  156.7609 C   0  0  0  0  0  0  0  0  0  0  0  0
  151.5340  136.1189  156.1048 O   0  0  0  0  0  0  0  0  0  0  0  0
  150.4911  137.3310  157.6482 O   0  5  0  0  0  0  0  0  0  0  0  0
  152.1603  141.1318  159.1039 C   0  0  0  0  0  0  0  0  0  0  0  0
  151.8100  142.3049  158.1637 C   0  0  0  0  0  0  0  0  0  0  0  0
  151.2489  143.5021  158.9487 C   0  0  0  0  0  0  0  0  0  0  0  0
  152.2248  143.9554  160.0463 C   0  0  0  0  0  0  0  0  0  0  0  0
  152.5867  142.7923  160.9835 C   0  0  0  0  0  0  0  0  0  0  0  0
  153.1470  141.5963  160.1964 C   0  0  0  0  0  0  0  0  0  0  0  0
  151.2819  141.3548  155.8753 H   0  0  0  0  0  0  0  0  0  0  0  0
  151.0589  139.9055  157.1733 H   0  0  0  0  0  0  0  0  0  0  0  0
  153.3254  138.0410  156.5779 H   0  0  0  0  0  0  0  0  0  0  0  0
  152.9231  139.3811  154.6399 H   0  0  0  0  0  0  0  0  0  0  0  0
  152.0337  137.9123  154.3208 H   0  0  0  0  0  0  0  0  0  0  0  0
  149.4141  138.4363  153.4697 H   0  0  0  0  0  0  0  0  0  0  0  0
  149.0052  142.2247  155.1888 H   0  0  0  0  0  0  0  0  0  0  0  0
  151.2421  140.8046  159.5953 H   0  0  0  0  0  0  0  0  0  0  0  0
  152.6958  142.6219  157.6110 H   0  0  0  0  0  0  0  0  0  0  0  0
  151.0806  141.9835  157.4186 H   0  0  0  0  0  0  0  0  0  0  0  0
  151.0443  144.3296  158.2686 H   0  0  0  0  0  0  0  0  0  0  0  0
  150.2938  143.2281  159.3984 H   0  0  0  0  0  0  0  0  0  0  0  0
  153.1324  144.3502  159.5876 H   0  0  0  0  0  0  0  0  0  0  0  0
  151.7870  144.7727  160.6197 H   0  0  0  0  0  0  0  0  0  0  0  0
  153.3156  143.1242  161.7232 H   0  0  0  0  0  0  0  0  0  0  0  0
  151.7015  142.4811  161.5393 H   0  0  0  0  0  0  0  0  0  0  0  0
  153.3602  140.7757  160.8831 H   0  0  0  0  0  0  0  0  0  0  0  0
  154.1010  141.8785  159.7482 H   0  0  0  0  0  0  0  0  0  0  0  0
  1  2  2  0  0  0  0
  2  3  1  0  0  0  0
  2 14  1  0  0  0  0
  3  4  1  0  0  0  0
  3 21  1  0  0  0  0
  4  5  1  0  0  0  0
  4 11  1  0  0  0  0
  4 22  1  0  0  0  0
  5 23  1  0  0  0  0
  5 24  1  0  0  0  0
  5  6  1  0  0  0  0
  6  7  2  0  0  0  0
  6 10  1  0  0  0  0
  7 25  1  0  0  0  0
  7  8  1  0  0  0  0
  8  9  2  0  0  0  0
  9 10  1  0  0  0  0
  9 26  1  0  0  0  0
 10 20  1  0  0  0  0
 11 12  2  0  0  0  0
 11 13  1  0  0  0  0
 14 19  1  0  0  0  0
 14 15  1  0  0  0  0
 14 27  1  0  0  0  0
 15 16  1  0  0  0  0
 15 28  1  0  0  0  0
 15 29  1  0  0  0  0
 16 17  1  0  0  0  0
 16 30  1  0  0  0  0
 16 31  1  0  0  0  0
 17 18  1  0  0  0  0
 17 32  1  0  0  0  0
 17 33  1  0  0  0  0
 18 19  1  0  0  0  0
 18 34  1  0  0  0  0
 18 35  1  0  0  0  0
 19 36  1  0  0  0  0
 19 37  1  0  0  0  0
M  CHG  1  13  -1
M  END
> <s_m_source_file>
AV-unprocessed.smi

> <i_m_source_file_index>
994

> <i_lp_mmshare_version>
43012

> <i_f3d_flags>
0

> <s_epik_input>
W0NIMl0xW0NIMl1bQ0gyXVtDSDJdW0NIMl1bQ0hdMUMoPU8pW05IXVtDQEBIXShDKD1PKVtPSF0pW0NIMl1jMltjSF1bbkhdW2NIXW4y

> <s_epik_cmdline>
J2VwaWtfcHl0aG9uJywgJy1waCcsICc3LjAnLCAnLXRuJywgJzgnLCAnLW1hJywgJzIwMCcsICctbWV0YWxfYmluZGluZycsICctaW1hZScsICc8aW5maWxlLm1hZT4nLCAnLW9tYWUnLCAnPG91dGZpbGUubWFlPic=

> <r_lp_tautomer_probability>
0.5

> <r_epik_Ionization_Penalty>
0.540742

> <r_epik_Ionization_Penalty_Charging>
0.540742

> <r_epik_Ionization_Penalty_Neutral>
4.77468e-08

> <r_epik_State_Penalty>
0.78427

> <r_epik_Charging_Adjusted_Penalty>
1.32501

> <i_epik_Tot_Q>
-1

> <i_epik_Tot_abs_Q>
1

> <r_epik_Metal_State_Penalty>
0.663709

> <b_epik_Metal_Only>
0

> <s_lp_Force_Field>
OPLS_2005

> <r_lp_Energy>
10.7007

> <b_lp_Chiralities_Consistent>
1

> <s_lp_Variant>
AV-unprocessed.smi:994-3

> <Gold.Version>
5.8.1

> <Gold.Id.Protein>
6NUR|6NUR_protein|mol2

> <Gold.PLP.Fitness>
46.5643

> <Gold.PLP.PLP>
-33.9451

> <Gold.PLP.part.hbond>
-2.0000

> <Gold.PLP.part.metal>
0.0000

> <Gold.PLP.part.buried>
-1.9291

> <Gold.PLP.part.nonpolar>
-30.2435

> <Gold.PLP.part.repulsive>
1.5833

> <Gold.PLP.ligand.clash>
0.0000

> <Gold.PLP.ligand.torsion>
0.2901

> <Gold.PLP.Chemscore.Hbond>
3.0000

> <Gold.PLP.Chemscore.CHOScore>
1.3785

> <Gold.PLP.Chemscore.Metal>
0.0000

> <Gold.Chemscore.Hbonds>
donor molecule, donor type, donor heavy atom, donor atom, acceptor molecule, acceptor atom, score
      P1  H  7997  8010       L1     1  1.00
      P1  H 10752 10765       L1    12  1.98
      L1  C     7    25       P1  7948  0.49
      L1  C     7    25       P1  7957  0.05
      L1  C     9    26       P1  8028  0.99

> <Gold.PLP.Chemscore.Internal.Correction>
0.0639

> <Gold.Rescore>
     Score         DG    S(hbond)    S(metal)    S(lipo)     H(rot)  DE(clash)    DE(int)     intcor
     13.67     -15.21       1.87        0.00      87.89       2.66       0.01       1.54       ----

> <Gold.Chemscore.Fitness>
13.6659

> <Gold.Chemscore.DG>
-15.2147

> <Gold.Chemscore.ZeroCoef>
-5.4800

> <Gold.Chemscore.Hbond>
1.8730

> <Gold.Chemscore.Metal>
0.0000

> <Gold.Chemscore.Lipo>
87.8946

> <Gold.Chemscore.Internal_Hbond>
0.0000

> <Gold.Chemscore.DEClash>
0.0089

> <Gold.Chemscore.DEInternal>
1.5399

> <Gold.Chemscore.Rot>
2.6581

> <Gold.Chemscore.Internal.Correction>
   9.000000E+99

> <Gold.Chemscore.Hbonds>
donor molecule, donor type, donor heavy atom, donor atom, acceptor molecule, acceptor atom, score
      P1  H  7997  8010       L1     1  0.64
      P1  H 10752 10765       L1    12  0.92

> <Gold.Chemscore.Hbond.Weighted>
-6.2559

> <Gold.Chemscore.Metal.Weighted>
-0.0000

> <Gold.Chemscore.Lipo.Weighted>
-10.2837

> <Gold.Chemscore.Internal_Hbond.Weighted>
0.0000

> <Gold.Chemscore.DEClash.Weighted>
0.0089

> <Gold.Chemscore.DEInternal.Weighted>
1.5399

> <Gold.Chemscore.Rot.Weighted>
6.8048

> <Gold.Chemscore.Internal.Correction.Weighted>
   9.000000E+99

> <Gold.Protein.RotatedTorsions>
[ 6907 6896 6895 6894 ] final   86.13 input  -60.11 | X-H torsion
[ 7974 7965 7964 7962 ] final   96.38 input  175.53 | X-H torsion
[ 8008 7997 7996 7995 ] final    5.16 input   59.86 | X-H torsion
[ 10167 10162 10161 10158 ] final  -58.36 input  -65.29 | X-H torsion
[ 10718 10713 10712 10709 ] final -105.79 input   66.30 | X-H torsion
[ 10763 10752 10751 10750 ] final -147.55 input  -60.55 | X-H torsion
[ 11005 11000 10999 10996 ] final   86.76 input  -57.11 | X-H torsion

> <Gold.Protein.ActiveResidues>
 VAL166  LYS551  ARG553  GLY616  TRP617  ASP618  TYR619  PRO620  LYS621  CYS622 
 ASP623  PHE694  ASN695  SER759  ASP760  ASP761  ALA762  ILE779  LEU786  VAL792 
 PHE793  MET794  SER795  GLU796  ALA797  LYS798  CYS799  TRP800  GLU811  SER814 

> <Gold.Protein.RotatedAtoms>
  152.5388  134.2479  159.8887 H   0  0  0  0  0  0  0  0  0  0  0  0  # atno 6907 bound_to 6896
  151.2444  133.4376  159.2616 H   0  0  0  0  0  0  0  0  0  0  0  0  # atno 6908 bound_to 6896
  151.0597  134.9742  159.8310 H   0  0  0  0  0  0  0  0  0  0  0  0  # atno 6909 bound_to 6896
  145.4396  139.2302  143.3099 H   0  0  0  0  0  0  0  0  0  0  0  0  # atno 7974 bound_to 7965
  154.7249  140.2719  155.6508 H   0  0  0  0  0  0  0  0  0  0  0  0  # atno 8008 bound_to 7997
  156.2834  140.2727  156.1857 H   0  0  0  0  0  0  0  0  0  0  0  0  # atno 8009 bound_to 7997
  155.0458  140.0371  157.2516 H   0  0  0  0  0  0  0  0  0  0  0  0  # atno 8010 bound_to 7997
  140.6202  143.2417  151.5499 H   0  0  0  0  0  0  0  0  0  0  0  0  # atno 10167 bound_to 10162
  156.0361  130.5581  150.7589 H   0  0  0  0  0  0  0  0  0  0  0  0  # atno 10718 bound_to 10713
  154.8280  135.3357  154.6836 H   0  0  0  0  0  0  0  0  0  0  0  0  # atno 10763 bound_to 10752
  153.7460  135.6942  153.4961 H   0  0  0  0  0  0  0  0  0  0  0  0  # atno 10764 bound_to 10752
  153.2210  135.4449  155.0440 H   0  0  0  0  0  0  0  0  0  0  0  0  # atno 10765 bound_to 10752
  139.8936  134.8377  156.2765 H   0  0  0  0  0  0  0  0  0  0  0  0  # atno 11005 bound_to 11000
  146.2563  140.5143  142.8872 LP  0  0  0  0  0  0  0  0  0  0  0  0  # atno 17320 bound_to 7965
  144.8130  140.6419  143.6403 LP  0  0  0  0  0  0  0  0  0  0  0  0  # atno 17321 bound_to 7965
  139.5432  144.2590  152.1392 LP  0  0  0  0  0  0  0  0  0  0  0  0  # atno 17342 bound_to 10162
  140.1809  144.4845  150.6529 LP  0  0  0  0  0  0  0  0  0  0  0  0  # atno 17343 bound_to 10162
  157.5114  131.0925  151.0194 LP  0  0  0  0  0  0  0  0  0  0  0  0  # atno 17370 bound_to 10713
  157.0548  130.5802  149.5376 LP  0  0  0  0  0  0  0  0  0  0  0  0  # atno 17371 bound_to 10713
  141.0066  133.7120  156.1045 LP  0  0  0  0  0  0  0  0  0  0  0  0  # atno 17394 bound_to 11000
  140.7425  134.4135  157.5553 LP  0  0  0  0  0  0  0  0  0  0  0  0  # atno 17395 bound_to 11000

$$$$
