AV-unprocessed.smi:2390|AV-procd|sdf|9479|dock3
  -GOLD-   2272013103D 1   1.00000     0.00000
 Structure written by MMmdl.
 46 47  0  0  0  0  0  0  0  0  2 V2000
  146.3644  130.2647  152.2564 C   0  0  0  0  0  0  0  0  0  0  0  0
  145.6637  131.4864  151.6997 C   0  0  0  0  0  0  0  0  0  0  0  0
  144.4461  131.3698  151.0011 C   0  0  0  0  0  0  0  0  0  0  0  0
  143.8481  132.5443  150.5102 C   0  0  0  0  0  0  0  0  0  0  0  0
  144.4881  133.7784  150.7354 C   0  0  0  0  0  0  0  0  0  0  0  0
  145.7079  133.8082  151.4481 C   0  0  0  0  0  0  0  0  0  0  0  0
  146.2776  135.0983  151.6166 N   0  0  0  0  0  0  0  0  0  0  0  0
  145.6444  136.2529  151.8873 C   0  0  0  0  0  0  0  0  0  0  0  0
  144.4239  136.3943  151.9615 O   0  0  0  0  0  0  0  0  0  0  0  0
  146.5174  137.2529  152.0849 N   0  0  0  0  0  0  0  0  0  0  0  0
  146.1836  138.6471  152.3903 C   0  0  2  0  0  0  0  0  0  0  0  0
  146.7253  139.5231  151.2481 C   0  0  0  0  0  0  0  0  0  0  0  0
  146.7282  139.0623  153.7877 C   0  0  1  0  0  0  0  0  0  0  0  0
  148.2606  138.9159  153.9114 C   0  0  0  0  0  0  0  0  0  0  0  0
  146.2541  140.4247  154.1749 N   0  3  0  0  0  0  0  0  0  0  0  0
  146.1581  140.6494  155.6367 C   0  0  0  0  0  0  0  0  0  0  0  0
  145.4733  141.9997  155.9133 C   0  0  0  0  0  0  0  0  0  0  0  0
  146.1838  143.0461  155.2609 O   0  0  0  0  0  0  0  0  0  0  0  0
  146.2187  142.8732  153.8486 C   0  0  0  0  0  0  0  0  0  0  0  0
  146.9462  141.5609  153.5160 C   0  0  0  0  0  0  0  0  0  0  0  0
  146.2781  132.6696  151.9153 N   0  0  0  0  0  0  0  0  0  0  0  0
  145.7783  129.3608  152.0880 H   0  0  0  0  0  0  0  0  0  0  0  0
  146.5205  130.3729  153.3301 H   0  0  0  0  0  0  0  0  0  0  0  0
  147.3359  130.1350  151.7787 H   0  0  0  0  0  0  0  0  0  0  0  0
  143.9801  130.4081  150.8442 H   0  0  0  0  0  0  0  0  0  0  0  0
  142.9142  132.5004  149.9691 H   0  0  0  0  0  0  0  0  0  0  0  0
  144.0418  134.6894  150.3639 H   0  0  0  0  0  0  0  0  0  0  0  0
  147.2837  135.1398  151.5469 H   0  0  0  0  0  0  0  0  0  0  0  0
  147.5004  137.0383  151.9984 H   0  0  0  0  0  0  0  0  0  0  0  0
  145.0983  138.7608  152.3870 H   0  0  0  0  0  0  0  0  0  0  0  0
  146.3973  140.5579  151.3423 H   0  0  0  0  0  0  0  0  0  0  0  0
  146.3699  139.1669  150.2805 H   0  0  0  0  0  0  0  0  0  0  0  0
  147.8155  139.5172  151.2233 H   0  0  0  0  0  0  0  0  0  0  0  0
  146.2862  138.3648  154.5012 H   0  0  0  0  0  0  0  0  0  0  0  0
  148.5681  137.8737  153.8303 H   0  0  0  0  0  0  0  0  0  0  0  0
  148.6201  139.2716  154.8769 H   0  0  0  0  0  0  0  0  0  0  0  0
  148.7845  139.4715  153.1331 H   0  0  0  0  0  0  0  0  0  0  0  0
  145.5826  139.8492  156.1033 H   0  0  0  0  0  0  0  0  0  0  0  0
  147.1530  140.6349  156.0831 H   0  0  0  0  0  0  0  0  0  0  0  0
  144.4362  141.9852  155.5740 H   0  0  0  0  0  0  0  0  0  0  0  0
  145.4546  142.1995  156.9848 H   0  0  0  0  0  0  0  0  0  0  0  0
  145.2060  142.8734  153.4418 H   0  0  0  0  0  0  0  0  0  0  0  0
  146.7427  143.7179  153.4012 H   0  0  0  0  0  0  0  0  0  0  0  0
  147.9801  141.6258  153.8572 H   0  0  0  0  0  0  0  0  0  0  0  0
  146.9729  141.4178  152.4360 H   0  0  0  0  0  0  0  0  0  0  0  0
  145.3000  140.4637  153.8447 H   0  0  0  0  0  0  0  0  0  0  0  0
  1  2  1  0  0  0  0
  1 22  1  0  0  0  0
  1 23  1  0  0  0  0
  1 24  1  0  0  0  0
  2 21  1  0  0  0  0
  2  3  2  0  0  0  0
  3  4  1  0  0  0  0
  3 25  1  0  0  0  0
  4  5  2  0  0  0  0
  4 26  1  0  0  0  0
  5  6  1  0  0  0  0
  5 27  1  0  0  0  0
  6  7  1  0  0  0  0
  6 21  2  0  0  0  0
  7  8  1  0  0  0  0
  7 28  1  0  0  0  0
  8  9  2  0  0  0  0
  8 10  1  0  0  0  0
 10 11  1  0  0  0  0
 10 29  1  0  0  0  0
 11 12  1  0  0  0  0
 11 13  1  0  0  0  0
 11 30  1  0  0  0  0
 12 31  1  0  0  0  0
 12 32  1  0  0  0  0
 12 33  1  0  0  0  0
 13 14  1  0  0  0  0
 13 15  1  0  0  0  0
 13 34  1  0  0  0  0
 14 35  1  0  0  0  0
 14 36  1  0  0  0  0
 14 37  1  0  0  0  0
 15 20  1  0  0  0  0
 15 16  1  0  0  0  0
 15 46  1  0  0  0  0
 16 17  1  0  0  0  0
 16 38  1  0  0  0  0
 16 39  1  0  0  0  0
 17 18  1  0  0  0  0
 17 40  1  0  0  0  0
 17 41  1  0  0  0  0
 18 19  1  0  0  0  0
 19 20  1  0  0  0  0
 19 42  1  0  0  0  0
 19 43  1  0  0  0  0
 20 44  1  0  0  0  0
 20 45  1  0  0  0  0
M  CHG  1  15   1
M  END
> <s_m_source_file>
AV-unprocessed.smi

> <i_m_source_file_index>
2390

> <i_lp_mmshare_version>
43012

> <i_f3d_flags>
0

> <s_epik_input>
W0NIM11jMVtjSF1bY0hdW2NIXWMobjEpW05IXUMoPU8pW05IXVtDQEhdKFtDSDNdKVtDQEhdKFtDSDNdKU4yW0NIMl1bQ0gyXU9bQ0gyXVtDSDJdMg==

> <s_epik_cmdline>
J2VwaWtfcHl0aG9uJywgJy1waCcsICc3LjAnLCAnLXRuJywgJzgnLCAnLW1hJywgJzIwMCcsICctbWV0YWxfYmluZGluZycsICctaW1hZScsICc8aW5maWxlLm1hZT4nLCAnLW9tYWUnLCAnPG91dGZpbGUubWFlPic=

> <r_epik_Ionization_Penalty>
0.60259

> <r_epik_Ionization_Penalty_Charging>
0.602531

> <r_epik_Ionization_Penalty_Neutral>
5.9516e-05

> <r_epik_State_Penalty>
0.617039

> <r_epik_Charging_Adjusted_Penalty>
1.21957

> <i_epik_Tot_Q>
1

> <i_epik_Tot_abs_Q>
1

> <r_epik_Metal_State_Penalty>
0.617047

> <b_epik_Metal_Only>
0

> <s_lp_Force_Field>
OPLS_2005

> <r_lp_Energy>
26.9068

> <b_lp_Chiralities_Consistent>
1

> <s_lp_Variant>
AV-unprocessed.smi:2390-7

> <Gold.Version>
5.8.1

> <Gold.Id.Protein>
6NUR|6NUR_protein|mol2

> <Gold.PLP.Fitness>
46.7948

> <Gold.PLP.PLP>
-36.0543

> <Gold.PLP.part.hbond>
-3.0000

> <Gold.PLP.part.metal>
0.0000

> <Gold.PLP.part.buried>
-4.0664

> <Gold.PLP.part.nonpolar>
-30.8715

> <Gold.PLP.part.repulsive>
1.4823

> <Gold.PLP.ligand.clash>
0.0000

> <Gold.PLP.ligand.torsion>
0.6660

> <Gold.PLP.Chemscore.Hbond>
3.9760

> <Gold.PLP.Chemscore.CHOScore>
0.0000

> <Gold.PLP.Chemscore.Metal>
0.0000

> <Gold.Chemscore.Hbonds>
donor molecule, donor type, donor heavy atom, donor atom, acceptor molecule, acceptor atom, score
      L1  H     7    28       P1  7948  0.96
      L1  H    10    29       P1  7948  1.00
      L1  H    15    46       P1 10175  1.56

> <Gold.PLP.Chemscore.Internal.Correction>
0.1445

> <Gold.Rescore>
     Score         DG    S(hbond)    S(metal)    S(lipo)     H(rot)  DE(clash)    DE(int)     intcor
     17.25     -21.35       2.93        0.00      84.40       1.48       1.95       2.15       ----

> <Gold.Chemscore.Fitness>
17.2501

> <Gold.Chemscore.DG>
-21.3506

> <Gold.Chemscore.ZeroCoef>
-5.4800

> <Gold.Chemscore.Hbond>
2.9329

> <Gold.Chemscore.Metal>
0.0000

> <Gold.Chemscore.Lipo>
84.4004

> <Gold.Chemscore.Internal_Hbond>
0.0000

> <Gold.Chemscore.DEClash>
1.9465

> <Gold.Chemscore.DEInternal>
2.1540

> <Gold.Chemscore.Rot>
1.4844

> <Gold.Chemscore.Internal.Correction>
   9.000000E+99

> <Gold.Chemscore.Hbonds>
donor molecule, donor type, donor heavy atom, donor atom, acceptor molecule, acceptor atom, score
      L1  H     7    28       P1  7948  0.77
      L1  H    10    29       P1  7948  1.00
      L1  H    15    46       P1 10175  0.78

> <Gold.Chemscore.Hbond.Weighted>
-9.7957

> <Gold.Chemscore.Metal.Weighted>
-0.0000

> <Gold.Chemscore.Lipo.Weighted>
-9.8748

> <Gold.Chemscore.Internal_Hbond.Weighted>
0.0000

> <Gold.Chemscore.DEClash.Weighted>
1.9465

> <Gold.Chemscore.DEInternal.Weighted>
2.1540

> <Gold.Chemscore.Rot.Weighted>
3.8000

> <Gold.Chemscore.Internal.Correction.Weighted>
   9.000000E+99

> <Gold.Protein.RotatedTorsions>
[ 6907 6896 6895 6894 ] final  114.08 input  -60.11 | X-H torsion
[ 7974 7965 7964 7962 ] final   16.57 input  175.53 | X-H torsion
[ 8008 7997 7996 7995 ] final   63.49 input   59.86 | X-H torsion
[ 10167 10162 10161 10158 ] final -142.38 input  -65.29 | X-H torsion
[ 10718 10713 10712 10709 ] final   37.73 input   66.30 | X-H torsion
[ 10763 10752 10751 10750 ] final -162.80 input  -60.55 | X-H torsion
[ 11005 11000 10999 10996 ] final  137.51 input  -57.11 | X-H torsion

> <Gold.Protein.ActiveResidues>
 VAL166  LYS551  ARG553  GLY616  TRP617  ASP618  TYR619  PRO620  LYS621  CYS622 
 ASP623  PHE694  ASN695  SER759  ASP760  ASP761  ALA762  ILE779  LEU786  VAL792 
 PHE793  MET794  SER795  GLU796  ALA797  LYS798  CYS799  TRP800  GLU811  SER814 

> <Gold.Protein.RotatedAtoms>
  152.4823  133.8286  159.7090 H   0  0  0  0  0  0  0  0  0  0  0  0  # atno 6907 bound_to 6896
  150.8883  133.7269  159.2918 H   0  0  0  0  0  0  0  0  0  0  0  0  # atno 6908 bound_to 6896
  151.4750  135.1052  159.9814 H   0  0  0  0  0  0  0  0  0  0  0  0  # atno 6909 bound_to 6896
  146.2245  139.8729  142.8584 H   0  0  0  0  0  0  0  0  0  0  0  0  # atno 7974 bound_to 7965
  155.6311  140.3496  155.4683 H   0  0  0  0  0  0  0  0  0  0  0  0  # atno 8008 bound_to 7997
  156.0002  140.1211  157.0578 H   0  0  0  0  0  0  0  0  0  0  0  0  # atno 8009 bound_to 7997
  154.4246  140.1102  156.5672 H   0  0  0  0  0  0  0  0  0  0  0  0  # atno 8010 bound_to 7997
  139.8094  143.7723  152.2663 H   0  0  0  0  0  0  0  0  0  0  0  0  # atno 10167 bound_to 10162
  157.3504  130.7595  149.6974 H   0  0  0  0  0  0  0  0  0  0  0  0  # atno 10718 bound_to 10713
  154.7181  135.3020  154.9092 H   0  0  0  0  0  0  0  0  0  0  0  0  # atno 10763 bound_to 10752
  153.9972  135.6711  153.4761 H   0  0  0  0  0  0  0  0  0  0  0  0  # atno 10764 bound_to 10752
  153.0810  135.5009  154.8419 H   0  0  0  0  0  0  0  0  0  0  0  0  # atno 10765 bound_to 10752
  140.0119  134.9435  157.0296 H   0  0  0  0  0  0  0  0  0  0  0  0  # atno 11005 bound_to 11000
  145.2590  141.0070  143.3837 LP  0  0  0  0  0  0  0  0  0  0  0  0  # atno 17320 bound_to 7965
  144.9314  139.4294  143.6493 LP  0  0  0  0  0  0  0  0  0  0  0  0  # atno 17321 bound_to 7965
  139.7868  144.7425  151.0011 LP  0  0  0  0  0  0  0  0  0  0  0  0  # atno 17342 bound_to 10162
  140.7818  143.4484  151.0448 LP  0  0  0  0  0  0  0  0  0  0  0  0  # atno 17343 bound_to 10162
  155.9720  130.4142  150.4121 LP  0  0  0  0  0  0  0  0  0  0  0  0  # atno 17370 bound_to 10713
  157.2183  131.0476  151.2561 LP  0  0  0  0  0  0  0  0  0  0  0  0  # atno 17371 bound_to 10713
  140.4539  134.1554  155.7184 LP  0  0  0  0  0  0  0  0  0  0  0  0  # atno 17394 bound_to 11000
  141.1717  133.8596  157.1550 LP  0  0  0  0  0  0  0  0  0  0  0  0  # atno 17395 bound_to 11000

$$$$
