AV-unprocessed.smi:2032|AV-procd|sdf|8251|dock3
  -GOLD-   2272010523D 1   1.00000     0.00000
 Structure written by MMmdl.
 42 43  0  0  0  0  0  0  0  0  3 V2000
  145.6740  132.2189  151.3216 C   0  0  0  0  0  0  0  0  0  0  0  0
  146.0425  133.5965  151.8835 C   0  0  2  0  0  0  0  0  0  0  0  0
  146.8144  133.4908  153.2095 C   0  0  0  0  0  0  0  0  0  0  0  0
  147.1010  134.8383  153.7678 N   0  3  2  0  0  0  0  0  0  0  0  0
  147.9924  134.7773  154.9710 C   0  0  2  0  0  0  0  0  0  0  0  0
  149.2054  133.8300  154.8037 C   0  0  0  0  0  0  0  0  0  0  0  0
  147.1654  134.3727  156.2192 C   0  0  0  0  0  0  0  0  0  0  0  0
  147.3208  135.3064  157.3301 N   0  0  0  0  0  0  0  0  0  0  0  0
  148.4229  135.4491  158.0797 C   0  0  0  0  0  0  0  0  0  0  0  0
  149.4229  134.7693  157.8365 O   0  0  0  0  0  0  0  0  0  0  0  0
  148.2939  136.3636  159.0666 N   0  5  0  0  0  0  0  0  0  0  0  0
  147.8429  135.9888  160.2746 C   0  0  0  0  0  0  0  0  0  0  0  0
  147.5779  136.8584  161.2562 N   0  0  0  0  0  0  0  0  0  0  0  0
  147.1139  136.2520  162.4251 C   0  0  0  0  0  0  0  0  0  0  0  0
  147.0151  134.8893  162.3281 C   0  0  0  0  0  0  0  0  0  0  0  0
  147.5047  134.3237  160.7565 S   0  0  0  0  0  0  0  0  0  0  0  0
  145.8230  135.5822  153.9387 C   0  0  0  0  0  0  0  0  0  0  0  0
  145.0113  135.6280  152.6279 C   0  0  1  0  0  0  0  0  0  0  0  0
  145.5872  136.6004  151.5826 C   0  0  0  0  0  0  0  0  0  0  0  0
  144.8334  134.3152  152.1009 O   0  0  0  0  0  0  0  0  0  0  0  0
  146.5658  131.6210  151.1315 H   0  0  0  0  0  0  0  0  0  0  0  0
  145.1316  132.3140  150.3805 H   0  0  0  0  0  0  0  0  0  0  0  0
  145.0415  131.6649  152.0160 H   0  0  0  0  0  0  0  0  0  0  0  0
  146.6538  134.1107  151.1417 H   0  0  0  0  0  0  0  0  0  0  0  0
  146.2364  132.9148  153.9345 H   0  0  0  0  0  0  0  0  0  0  0  0
  147.7351  132.9364  153.0358 H   0  0  0  0  0  0  0  0  0  0  0  0
  148.4009  135.7774  155.1248 H   0  0  0  0  0  0  0  0  0  0  0  0
  149.8176  133.7986  155.7050 H   0  0  0  0  0  0  0  0  0  0  0  0
  149.8730  134.1573  154.0068 H   0  0  0  0  0  0  0  0  0  0  0  0
  148.8887  132.8086  154.5902 H   0  0  0  0  0  0  0  0  0  0  0  0
  146.1027  134.2829  155.9965 H   0  0  0  0  0  0  0  0  0  0  0  0
  147.4820  133.3886  156.5655 H   0  0  0  0  0  0  0  0  0  0  0  0
  146.5263  135.8859  157.5592 H   0  0  0  0  0  0  0  0  0  0  0  0
  146.8766  136.8687  163.2791 H   0  0  0  0  0  0  0  0  0  0  0  0
  146.6852  134.1878  163.0794 H   0  0  0  0  0  0  0  0  0  0  0  0
  145.2338  135.1003  154.7206 H   0  0  0  0  0  0  0  0  0  0  0  0
  146.0016  136.6093  154.2559 H   0  0  0  0  0  0  0  0  0  0  0  0
  144.0118  135.9892  152.8719 H   0  0  0  0  0  0  0  0  0  0  0  0
  145.5768  137.6233  151.9599 H   0  0  0  0  0  0  0  0  0  0  0  0
  144.9953  136.5822  150.6672 H   0  0  0  0  0  0  0  0  0  0  0  0
  146.6181  136.3642  151.3199 H   0  0  0  0  0  0  0  0  0  0  0  0
  147.6204  135.3444  153.0648 H   0  0  0  0  0  0  0  0  0  0  0  0
  1  2  1  0  0  0  0
  1 21  1  0  0  0  0
  1 22  1  0  0  0  0
  1 23  1  0  0  0  0
  2 20  1  0  0  0  0
  2  3  1  0  0  0  0
  2 24  1  0  0  0  0
  3  4  1  0  0  0  0
  3 25  1  0  0  0  0
  3 26  1  0  0  0  0
  4  5  1  0  0  0  0
  4 17  1  0  0  0  0
  4 42  1  0  0  0  0
  5  6  1  0  0  0  0
  5  7  1  0  0  0  0
  5 27  1  0  0  0  0
  6 28  1  0  0  0  0
  6 29  1  0  0  0  0
  6 30  1  0  0  0  0
  7  8  1  0  0  0  0
  7 31  1  0  0  0  0
  7 32  1  0  0  0  0
  8  9  1  0  0  0  0
  8 33  1  0  0  0  0
  9 10  2  0  0  0  0
  9 11  1  0  0  0  0
 11 12  1  0  0  0  0
 12 16  1  0  0  0  0
 12 13  2  0  0  0  0
 13 14  1  0  0  0  0
 14 15  2  0  0  0  0
 14 34  1  0  0  0  0
 15 16  1  0  0  0  0
 15 35  1  0  0  0  0
 17 18  1  0  0  0  0
 17 36  1  0  0  0  0
 17 37  1  0  0  0  0
 18 19  1  0  0  0  0
 18 20  1  0  0  0  0
 18 38  1  0  0  0  0
 19 39  1  0  0  0  0
 19 40  1  0  0  0  0
 19 41  1  0  0  0  0
M  CHG  1   4   1
M  CHG  1  11  -1
M  END
> <s_m_source_file>
AV-unprocessed.smi

> <i_m_source_file_index>
2032

> <i_lp_mmshare_version>
43012

> <i_f3d_flags>
0

> <s_epik_input>
W0NIM11bQ0BASF0xW0NIMl1OKFtDSDJdW0NASF0oTzEpW0NIM10pW0NASF0oW0NIM10pW0NIMl1bTkhdQyg9TylbTkhdYzJuW2NIXVtjSF1zMg==

> <s_epik_cmdline>
J2VwaWtfcHl0aG9uJywgJy1waCcsICc3LjAnLCAnLXRuJywgJzgnLCAnLW1hJywgJzIwMCcsICctbWV0YWxfYmluZGluZycsICctaW1hZScsICc8aW5maWxlLm1hZT4nLCAnLW9tYWUnLCAnPG91dGZpbGUubWFlPic=

> <r_lp_tautomer_probability>
0.999

> <r_epik_Ionization_Penalty>
6.71699

> <r_epik_Ionization_Penalty_Charging>
5.88592

> <r_epik_Ionization_Penalty_Neutral>
0.831074

> <r_epik_State_Penalty>
6.08365

> <r_epik_Charging_Adjusted_Penalty>
11.9696

> <i_epik_Tot_Q>
0

> <i_epik_Tot_abs_Q>
2

> <r_epik_Metal_State_Penalty>
2.0947

> <b_epik_Metal_Only>
1

> <s_lp_Force_Field>
OPLS_2005

> <r_lp_Energy>
13.7972

> <b_lp_Chiralities_Consistent>
1

> <s_lp_Variant>
AV-unprocessed.smi:2032-21

> <Gold.Version>
5.8.1

> <Gold.Id.Protein>
6NUR|6NUR_protein|mol2

> <Gold.PLP.Fitness>
40.9880

> <Gold.PLP.PLP>
-29.6547

> <Gold.PLP.part.hbond>
-4.0000

> <Gold.PLP.part.metal>
0.0000

> <Gold.PLP.part.buried>
-4.5794

> <Gold.PLP.part.nonpolar>
-21.6712

> <Gold.PLP.part.repulsive>
0.0840

> <Gold.PLP.ligand.clash>
0.0000

> <Gold.PLP.ligand.torsion>
1.7048

> <Gold.PLP.Chemscore.Hbond>
4.8800

> <Gold.PLP.Chemscore.CHOScore>
0.0000

> <Gold.PLP.Chemscore.Metal>
0.0000

> <Gold.Chemscore.Hbonds>
donor molecule, donor type, donor heavy atom, donor atom, acceptor molecule, acceptor atom, score
      L1  H     4    42       P1  7948  2.00
      P1  H  6896  6908       L1    10  0.84
      P1  H  6931  6943       L1    13  0.80
      P1  H  6934  6947       L1    13  0.49

> <Gold.PLP.Chemscore.Internal.Correction>
0.1028

> <Gold.Rescore>
     Score         DG    S(hbond)    S(metal)    S(lipo)     H(rot)  DE(clash)    DE(int)     intcor
     17.78     -19.51       3.27        0.00      61.20       1.58       0.01       1.71       ----

> <Gold.Chemscore.Fitness>
17.7811

> <Gold.Chemscore.DG>
-19.5052

> <Gold.Chemscore.ZeroCoef>
-5.4800

> <Gold.Chemscore.Hbond>
3.2656

> <Gold.Chemscore.Metal>
0.0000

> <Gold.Chemscore.Lipo>
61.2005

> <Gold.Chemscore.Internal_Hbond>
0.0000

> <Gold.Chemscore.DEClash>
0.0130

> <Gold.Chemscore.DEInternal>
1.7111

> <Gold.Chemscore.Rot>
1.5791

> <Gold.Chemscore.Internal.Correction>
   9.000000E+99

> <Gold.Chemscore.Hbonds>
donor molecule, donor type, donor heavy atom, donor atom, acceptor molecule, acceptor atom, score
      L1  H     4    42       P1  7948  0.97
      P1  H  6896  6908       L1    10  0.66
      P1  H  6931  6943       L1    13  0.38
      P1  H  6934  6947       L1    13  0.46

> <Gold.Chemscore.Hbond.Weighted>
-10.9072

> <Gold.Chemscore.Metal.Weighted>
-0.0000

> <Gold.Chemscore.Lipo.Weighted>
-7.1605

> <Gold.Chemscore.Internal_Hbond.Weighted>
0.0000

> <Gold.Chemscore.DEClash.Weighted>
0.0130

> <Gold.Chemscore.DEInternal.Weighted>
1.7111

> <Gold.Chemscore.Rot.Weighted>
4.0425

> <Gold.Chemscore.Internal.Correction.Weighted>
   9.000000E+99

> <Gold.Protein.RotatedTorsions>
[ 6907 6896 6895 6894 ] final  165.89 input  -60.11 | X-H torsion
[ 7974 7965 7964 7962 ] final -173.42 input  175.53 | X-H torsion
[ 8008 7997 7996 7995 ] final  156.35 input   59.86 | X-H torsion
[ 10167 10162 10161 10158 ] final  -87.13 input  -65.29 | X-H torsion
[ 10718 10713 10712 10709 ] final  150.87 input   66.30 | X-H torsion
[ 10763 10752 10751 10750 ] final   -2.67 input  -60.55 | X-H torsion
[ 11005 11000 10999 10996 ] final   38.06 input  -57.11 | X-H torsion

> <Gold.Protein.ActiveResidues>
 VAL166  LYS551  ARG553  GLY616  TRP617  ASP618  TYR619  PRO620  LYS621  CYS622 
 ASP623  PHE694  ASN695  SER759  ASP760  ASP761  ALA762  ILE779  LEU786  VAL792 
 PHE793  MET794  SER795  GLU796  ALA797  LYS798  CYS799  TRP800  GLU811  SER814 

> <Gold.Protein.RotatedAtoms>
  151.8874  133.3508  159.3786 H   0  0  0  0  0  0  0  0  0  0  0  0  # atno 6907 bound_to 6896
  150.7112  134.4958  159.5547 H   0  0  0  0  0  0  0  0  0  0  0  0  # atno 6908 bound_to 6896
  152.2521  134.8122  160.0495 H   0  0  0  0  0  0  0  0  0  0  0  0  # atno 6909 bound_to 6896
  144.7138  140.1625  143.6375 H   0  0  0  0  0  0  0  0  0  0  0  0  # atno 7974 bound_to 7965
  156.2427  140.1915  156.6942 H   0  0  0  0  0  0  0  0  0  0  0  0  # atno 8008 bound_to 7997
  154.6229  140.0606  156.9664 H   0  0  0  0  0  0  0  0  0  0  0  0  # atno 8009 bound_to 7997
  155.1833  140.3278  155.4374 H   0  0  0  0  0  0  0  0  0  0  0  0  # atno 8010 bound_to 7997
  140.3874  143.2720  151.9307 H   0  0  0  0  0  0  0  0  0  0  0  0  # atno 10167 bound_to 10162
  157.2780  131.0830  151.1552 H   0  0  0  0  0  0  0  0  0  0  0  0  # atno 10718 bound_to 10713
  153.3611  135.6990  153.6711 H   0  0  0  0  0  0  0  0  0  0  0  0  # atno 10763 bound_to 10752
  153.5400  135.3575  155.2714 H   0  0  0  0  0  0  0  0  0  0  0  0  # atno 10764 bound_to 10752
  154.8668  135.4201  154.2868 H   0  0  0  0  0  0  0  0  0  0  0  0  # atno 10765 bound_to 10752
  140.2164  134.3693  155.8025 H   0  0  0  0  0  0  0  0  0  0  0  0  # atno 11005 bound_to 11000
  145.9017  139.2434  143.1489 LP  0  0  0  0  0  0  0  0  0  0  0  0  # atno 17320 bound_to 7965
  145.9804  140.8687  143.0117 LP  0  0  0  0  0  0  0  0  0  0  0  0  # atno 17321 bound_to 7965
  139.4791  144.5760  151.8011 LP  0  0  0  0  0  0  0  0  0  0  0  0  # atno 17342 bound_to 10162
  140.4875  144.1360  150.5944 LP  0  0  0  0  0  0  0  0  0  0  0  0  # atno 17343 bound_to 10162
  157.2997  130.6837  149.6158 LP  0  0  0  0  0  0  0  0  0  0  0  0  # atno 17370 bound_to 10713
  155.9664  130.4395  150.5263 LP  0  0  0  0  0  0  0  0  0  0  0  0  # atno 17371 bound_to 10713
  141.2224  133.7170  156.8503 LP  0  0  0  0  0  0  0  0  0  0  0  0  # atno 17394 bound_to 11000
  140.1896  134.8975  157.3044 LP  0  0  0  0  0  0  0  0  0  0  0  0  # atno 17395 bound_to 11000

$$$$
