AV-unprocessed.smi:1607|AV-procd|sdf|6465|dock6
  -GOLD-   22720 7123D 1   1.00000     0.00000
 Structure written by MMmdl.
 39 40  0  0  0  0  0  0  0  0  2 V2000
  152.5390  144.7410  158.0588 C   0  0  0  0  0  0  0  0  0  0  0  0
  151.5502  144.0514  159.0155 C   0  0  2  0  0  0  0  0  0  0  0  0
  152.0296  144.0605  160.4790 C   0  0  0  0  0  0  0  0  0  0  0  0
  153.1669  143.0530  160.6993 C   0  0  0  0  0  0  0  0  0  0  0  0
  152.7676  141.6525  160.2081 C   0  0  0  0  0  0  0  0  0  0  0  0
  152.3527  141.6845  158.7819 N   0  3  1  0  0  0  0  0  0  0  0  0
  152.1082  140.3268  158.2339 C   0  0  0  0  0  0  0  0  0  0  0  0
  151.9896  140.3308  156.6972 C   0  0  0  0  0  0  0  0  0  0  0  0
  151.5788  139.0283  156.1863 N   0  0  0  0  0  0  0  0  0  0  0  0
  150.9095  138.8323  155.0394 C   0  0  0  0  0  0  0  0  0  0  0  0
  150.5558  139.7514  154.3007 O   0  0  0  0  0  0  0  0  0  0  0  0
  150.5930  137.3818  154.6683 C   0  0  0  0  0  0  0  0  0  0  0  0
  151.0258  136.4672  155.7088 N   0  0  0  0  0  0  0  0  0  0  0  0
  150.3407  135.5928  156.4490 C   0  0  0  0  0  0  0  0  0  0  0  0
  151.1269  134.9487  157.2979 N   0  0  0  0  0  0  0  0  0  0  0  0
  152.3770  135.4846  157.0375 N   0  0  0  0  0  0  0  0  0  0  0  0
  152.3235  136.3856  156.0951 N   0  0  0  0  0  0  0  0  0  0  0  0
  151.2108  142.6150  158.5666 C   0  0  0  0  0  0  0  0  0  0  0  0
  153.4927  144.2162  158.0088 H   0  0  0  0  0  0  0  0  0  0  0  0
  152.7401  145.7649  158.3750 H   0  0  0  0  0  0  0  0  0  0  0  0
  152.1356  144.7858  157.0468 H   0  0  0  0  0  0  0  0  0  0  0  0
  150.6283  144.6329  158.9733 H   0  0  0  0  0  0  0  0  0  0  0  0
  152.3465  145.0617  160.7729 H   0  0  0  0  0  0  0  0  0  0  0  0
  151.1945  143.8017  161.1316 H   0  0  0  0  0  0  0  0  0  0  0  0
  154.0650  143.3842  160.1771 H   0  0  0  0  0  0  0  0  0  0  0  0
  153.4269  143.0150  161.7577 H   0  0  0  0  0  0  0  0  0  0  0  0
  153.6160  140.9784  160.3326 H   0  0  0  0  0  0  0  0  0  0  0  0
  151.9539  141.2550  160.8171 H   0  0  0  0  0  0  0  0  0  0  0  0
  152.9379  139.6717  158.5037 H   0  0  0  0  0  0  0  0  0  0  0  0
  151.2181  139.9007  158.6996 H   0  0  0  0  0  0  0  0  0  0  0  0
  151.2852  141.0873  156.3502 H   0  0  0  0  0  0  0  0  0  0  0  0
  152.9533  140.5802  156.2524 H   0  0  0  0  0  0  0  0  0  0  0  0
  151.8317  138.2186  156.7348 H   0  0  0  0  0  0  0  0  0  0  0  0
  149.5223  137.2450  154.5102 H   0  0  0  0  0  0  0  0  0  0  0  0
  151.0923  137.1294  153.7316 H   0  0  0  0  0  0  0  0  0  0  0  0
  149.2757  135.4322  156.3685 H   0  0  0  0  0  0  0  0  0  0  0  0
  150.3469  142.2504  159.1249 H   0  0  0  0  0  0  0  0  0  0  0  0
  150.9153  142.6269  157.5182 H   0  0  0  0  0  0  0  0  0  0  0  0
  153.1391  142.0603  158.2715 H   0  0  0  0  0  0  0  0  0  0  0  0
  1  2  1  0  0  0  0
  1 19  1  0  0  0  0
  1 20  1  0  0  0  0
  1 21  1  0  0  0  0
  2 18  1  0  0  0  0
  2  3  1  0  0  0  0
  2 22  1  0  0  0  0
  3  4  1  0  0  0  0
  3 23  1  0  0  0  0
  3 24  1  0  0  0  0
  4  5  1  0  0  0  0
  4 25  1  0  0  0  0
  4 26  1  0  0  0  0
  5  6  1  0  0  0  0
  5 27  1  0  0  0  0
  5 28  1  0  0  0  0
  6  7  1  0  0  0  0
  6 18  1  0  0  0  0
  6 39  1  0  0  0  0
  7  8  1  0  0  0  0
  7 29  1  0  0  0  0
  7 30  1  0  0  0  0
  8  9  1  0  0  0  0
  8 31  1  0  0  0  0
  8 32  1  0  0  0  0
  9 10  1  0  0  0  0
  9 33  1  0  0  0  0
 10 11  2  0  0  0  0
 10 12  1  0  0  0  0
 12 13  1  0  0  0  0
 12 34  1  0  0  0  0
 12 35  1  0  0  0  0
 13 17  1  0  0  0  0
 13 14  1  0  0  0  0
 14 15  2  0  0  0  0
 14 36  1  0  0  0  0
 15 16  1  0  0  0  0
 16 17  2  0  0  0  0
 18 37  1  0  0  0  0
 18 38  1  0  0  0  0
M  CHG  1   6   1
M  END
> <s_m_source_file>
AV-unprocessed.smi

> <i_m_source_file_index>
1607

> <i_lp_mmshare_version>
43012

> <i_f3d_flags>
0

> <s_epik_input>
W0NIM11bQ0BASF0xW0NIMl1bQ0gyXVtDSDJdTihbQ0gyXTEpW0NIMl1bQ0gyXVtOSF1DKD1PKVtDSDJdbjJbY0hdbm5uMg==

> <s_epik_cmdline>
J2VwaWtfcHl0aG9uJywgJy1waCcsICc3LjAnLCAnLXRuJywgJzgnLCAnLW1hJywgJzIwMCcsICctbWV0YWxfYmluZGluZycsICctaW1hZScsICc8aW5maWxlLm1hZT4nLCAnLW9tYWUnLCAnPG91dGZpbGUubWFlPic=

> <r_lp_tautomer_probability>
1

> <r_epik_Ionization_Penalty>
0.00268321

> <r_epik_Ionization_Penalty_Charging>
0.00267875

> <r_epik_Ionization_Penalty_Neutral>
4.46125e-06

> <r_epik_State_Penalty>
0.00186642

> <r_epik_Charging_Adjusted_Penalty>
0.00454517

> <i_epik_Tot_Q>
1

> <i_epik_Tot_abs_Q>
1

> <r_epik_Metal_State_Penalty>
-0

> <b_epik_Metal_Only>
0

> <s_lp_Force_Field>
OPLS_2005

> <r_lp_Energy>
22.0016

> <b_lp_Chiralities_Consistent>
1

> <s_lp_Variant>
AV-unprocessed.smi:1607-3

> <Gold.Version>
5.8.1

> <Gold.Id.Protein>
6NUR|6NUR_protein|mol2

> <Gold.PLP.Fitness>
43.2902

> <Gold.PLP.PLP>
-36.9810

> <Gold.PLP.part.hbond>
-3.9840

> <Gold.PLP.part.metal>
0.0000

> <Gold.PLP.part.buried>
-6.1647

> <Gold.PLP.part.nonpolar>
-27.9184

> <Gold.PLP.part.repulsive>
0.3351

> <Gold.PLP.ligand.clash>
0.0000

> <Gold.PLP.ligand.torsion>
0.2579

> <Gold.PLP.Chemscore.Hbond>
2.2688

> <Gold.PLP.Chemscore.CHOScore>
0.0000

> <Gold.PLP.Chemscore.Metal>
0.0000

> <Gold.Chemscore.Hbonds>
donor molecule, donor type, donor heavy atom, donor atom, acceptor molecule, acceptor atom, score
      P1  H  6896  6908       L1    15  0.11
      P1  H  7989  7998       L1    11  1.00
      P1  H 10752 10764       L1    17  0.95

> <Gold.PLP.Chemscore.Internal.Correction>
0.0184

> <Gold.Rescore>
     Score         DG    S(hbond)    S(metal)    S(lipo)     H(rot)  DE(clash)    DE(int)     intcor
     14.52     -16.22       2.24        0.00      86.69       2.69       0.10       1.61       ----

> <Gold.Chemscore.Fitness>
14.5154

> <Gold.Chemscore.DG>
-16.2234

> <Gold.Chemscore.ZeroCoef>
-5.4800

> <Gold.Chemscore.Hbond>
2.2441

> <Gold.Chemscore.Metal>
0.0000

> <Gold.Chemscore.Lipo>
86.6885

> <Gold.Chemscore.Internal_Hbond>
0.0000

> <Gold.Chemscore.DEClash>
0.1012

> <Gold.Chemscore.DEInternal>
1.6068

> <Gold.Chemscore.Rot>
2.6932

> <Gold.Chemscore.Internal.Correction>
   9.000000E+99

> <Gold.Chemscore.Hbonds>
donor molecule, donor type, donor heavy atom, donor atom, acceptor molecule, acceptor atom, score
      P1  H  6896  6908       L1    15  0.10
      P1  H  7989  7998       L1    11  1.00
      P1  H 10752 10764       L1    17  0.09

> <Gold.Chemscore.Hbond.Weighted>
-7.4954

> <Gold.Chemscore.Metal.Weighted>
-0.0000

> <Gold.Chemscore.Lipo.Weighted>
-10.1426

> <Gold.Chemscore.Internal_Hbond.Weighted>
0.0000

> <Gold.Chemscore.DEClash.Weighted>
0.1012

> <Gold.Chemscore.DEInternal.Weighted>
1.6068

> <Gold.Chemscore.Rot.Weighted>
6.8945

> <Gold.Chemscore.Internal.Correction.Weighted>
   9.000000E+99

> <Gold.Protein.RotatedTorsions>
[ 6907 6896 6895 6894 ] final  133.03 input  -60.11 | X-H torsion
[ 7974 7965 7964 7962 ] final  -81.14 input  175.53 | X-H torsion
[ 8008 7997 7996 7995 ] final  -89.48 input   59.86 | X-H torsion
[ 10167 10162 10161 10158 ] final   -9.38 input  -65.29 | X-H torsion
[ 10718 10713 10712 10709 ] final   89.58 input   66.30 | X-H torsion
[ 10763 10752 10751 10750 ] final  -42.63 input  -60.55 | X-H torsion
[ 11005 11000 10999 10996 ] final  -11.59 input  -57.11 | X-H torsion

> <Gold.Protein.ActiveResidues>
 VAL166  LYS551  ARG553  GLY616  TRP617  ASP618  TYR619  PRO620  LYS621  CYS622 
 ASP623  PHE694  ASN695  SER759  ASP760  ASP761  ALA762  ILE779  LEU786  VAL792 
 PHE793  MET794  SER795  GLU796  ALA797  LYS798  CYS799  TRP800  GLU811  SER814 

> <Gold.Protein.RotatedAtoms>
  152.3262  133.5907  159.5777 H   0  0  0  0  0  0  0  0  0  0  0  0  # atno 6907 bound_to 6896
  150.7398  133.9937  159.3624 H   0  0  0  0  0  0  0  0  0  0  0  0  # atno 6908 bound_to 6896
  151.7817  135.0760  160.0425 H   0  0  0  0  0  0  0  0  0  0  0  0  # atno 6909 bound_to 6896
  145.5507  140.9497  143.1501 H   0  0  0  0  0  0  0  0  0  0  0  0  # atno 7974 bound_to 7965
  154.6871  140.0541  157.0326 H   0  0  0  0  0  0  0  0  0  0  0  0  # atno 8008 bound_to 7997
  155.0869  140.3215  155.4566 H   0  0  0  0  0  0  0  0  0  0  0  0  # atno 8009 bound_to 7997
  156.2715  140.2055  156.5996 H   0  0  0  0  0  0  0  0  0  0  0  0  # atno 8010 bound_to 7997
  140.7086  143.5864  150.8939 H   0  0  0  0  0  0  0  0  0  0  0  0  # atno 10167 bound_to 10162
  157.6956  131.0338  150.3447 H   0  0  0  0  0  0  0  0  0  0  0  0  # atno 10718 bound_to 10713
  153.9822  135.6715  153.4750 H   0  0  0  0  0  0  0  0  0  0  0  0  # atno 10763 bound_to 10752
  153.0743  135.4957  154.8368 H   0  0  0  0  0  0  0  0  0  0  0  0  # atno 10764 bound_to 10752
  154.7158  135.3106  154.9088 H   0  0  0  0  0  0  0  0  0  0  0  0  # atno 10765 bound_to 10752
  140.7569  133.8547  155.9091 H   0  0  0  0  0  0  0  0  0  0  0  0  # atno 11005 bound_to 11000
  144.7531  139.7143  143.7265 LP  0  0  0  0  0  0  0  0  0  0  0  0  # atno 17320 bound_to 7965
  146.1919  139.5164  142.9800 LP  0  0  0  0  0  0  0  0  0  0  0  0  # atno 17321 bound_to 7965
  139.9590  143.6186  152.3008 LP  0  0  0  0  0  0  0  0  0  0  0  0  # atno 17342 bound_to 10162
  139.6731  144.7660  151.1745 LP  0  0  0  0  0  0  0  0  0  0  0  0  # atno 17343 bound_to 10162
  156.3903  130.3896  149.7035 LP  0  0  0  0  0  0  0  0  0  0  0  0  # atno 17370 bound_to 10713
  156.4387  130.7850  151.2871 LP  0  0  0  0  0  0  0  0  0  0  0  0  # atno 17371 bound_to 10713
  140.9699  134.1544  157.4585 LP  0  0  0  0  0  0  0  0  0  0  0  0  # atno 17394 bound_to 11000
  139.8777  134.9975  156.5849 LP  0  0  0  0  0  0  0  0  0  0  0  0  # atno 17395 bound_to 11000

$$$$
