AV-unprocessed.smi:2529|AV-procd|sdf|9961|dock4
  -GOLD-   2272014 03D 1   1.00000     0.00000
 Structure written by MMmdl.
 44 46  0  0  0  0  0  0  0  0  1 V2000
  144.7745  142.9492  155.7360 C   0  0  0  0  0  0  0  0  0  0  0  0
  145.7067  141.8497  155.2074 C   0  0  2  0  0  0  0  0  0  0  0  0
  146.7359  141.4272  156.2705 C   0  0  0  0  0  0  0  0  0  0  0  0
  147.6711  140.3245  155.7430 C   0  0  0  0  0  0  0  0  0  0  0  0
  148.3999  140.7213  154.4360 C   0  0  2  0  0  0  0  0  0  0  0  0
  148.9647  139.5107  153.9674 O   0  0  0  0  0  0  0  0  0  0  0  0
  149.5882  141.6950  154.7213 C   0  0  0  0  0  0  0  0  0  0  0  0
  150.4103  141.3649  155.9051 N   0  0  0  0  0  0  0  0  0  0  0  0
  150.2494  142.2064  157.0245 C   0  0  0  0  0  0  0  0  0  0  0  0
  150.9025  142.0161  158.1259 N   0  0  0  0  0  0  0  0  0  0  0  0
  151.8106  140.9565  158.2214 C   0  0  0  0  0  0  0  0  0  0  0  0
  152.5139  140.7481  159.5554 C   0  0  0  0  0  0  0  0  0  0  0  0
  152.5472  141.9654  160.4943 C   0  0  0  0  0  0  0  0  0  0  0  0
  153.9710  141.5477  160.8791 C   0  0  0  0  0  0  0  0  0  0  0  0
  154.0503  140.8211  159.5319 C   0  0  0  0  0  0  0  0  0  0  0  0
  152.0267  140.1393  157.1642 C   0  0  0  0  0  0  0  0  0  0  0  0
  151.3209  140.3451  155.8995 C   0  0  0  0  0  0  0  0  0  0  0  0
  151.5382  139.6477  154.9092 O   0  0  0  0  0  0  0  0  0  0  0  0
  147.3639  141.1954  153.3846 C   0  0  0  0  0  0  0  0  0  0  0  0
  146.4225  142.2897  153.9182 C   0  0  0  0  0  0  0  0  0  0  0  0
  145.3313  143.8509  155.9931 H   0  0  0  0  0  0  0  0  0  0  0  0
  144.2451  142.6183  156.6300 H   0  0  0  0  0  0  0  0  0  0  0  0
  144.0258  143.2216  154.9917 H   0  0  0  0  0  0  0  0  0  0  0  0
  145.0898  140.9814  154.9708 H   0  0  0  0  0  0  0  0  0  0  0  0
  147.3157  142.2929  156.5908 H   0  0  0  0  0  0  0  0  0  0  0  0
  146.2191  141.0653  157.1600 H   0  0  0  0  0  0  0  0  0  0  0  0
  148.3938  140.0527  156.5136 H   0  0  0  0  0  0  0  0  0  0  0  0
  147.0682  139.4310  155.5694 H   0  0  0  0  0  0  0  0  0  0  0  0
  149.3223  139.6598  153.1055 H   0  0  0  0  0  0  0  0  0  0  0  0
  150.2268  141.7391  153.8400 H   0  0  0  0  0  0  0  0  0  0  0  0
  149.2173  142.7184  154.8112 H   0  0  0  0  0  0  0  0  0  0  0  0
  149.5404  143.0256  156.8962 H   0  0  0  0  0  0  0  0  0  0  0  0
  152.1570  139.8513  160.0651 H   0  0  0  0  0  0  0  0  0  0  0  0
  152.5217  142.9217  159.9683 H   0  0  0  0  0  0  0  0  0  0  0  0
  151.8252  141.9336  161.3108 H   0  0  0  0  0  0  0  0  0  0  0  0
  154.6746  142.3723  160.9960 H   0  0  0  0  0  0  0  0  0  0  0  0
  153.9978  140.8656  161.7307 H   0  0  0  0  0  0  0  0  0  0  0  0
  154.5542  139.8548  159.5617 H   0  0  0  0  0  0  0  0  0  0  0  0
  154.4474  141.4600  158.7406 H   0  0  0  0  0  0  0  0  0  0  0  0
  152.7270  139.3209  157.2469 H   0  0  0  0  0  0  0  0  0  0  0  0
  147.8517  141.5317  152.4697 H   0  0  0  0  0  0  0  0  0  0  0  0
  146.7473  140.3459  153.0860 H   0  0  0  0  0  0  0  0  0  0  0  0
  145.6869  142.5366  153.1521 H   0  0  0  0  0  0  0  0  0  0  0  0
  146.9788  143.2048  154.1077 H   0  0  0  0  0  0  0  0  0  0  0  0
  1  2  1  0  0  0  0
  1 21  1  0  0  0  0
  1 22  1  0  0  0  0
  1 23  1  0  0  0  0
  2 20  1  0  0  0  0
  2  3  1  0  0  0  0
  2 24  1  0  0  0  0
  3  4  1  0  0  0  0
  3 25  1  0  0  0  0
  3 26  1  0  0  0  0
  4  5  1  0  0  0  0
  4 27  1  0  0  0  0
  4 28  1  0  0  0  0
  5  6  1  0  0  0  0
  5  7  1  0  0  0  0
  5 19  1  0  0  0  0
  6 29  1  0  0  0  0
  7  8  1  0  0  0  0
  7 30  1  0  0  0  0
  7 31  1  0  0  0  0
  8 17  1  0  0  0  0
  8  9  1  0  0  0  0
  9 10  2  0  0  0  0
  9 32  1  0  0  0  0
 10 11  1  0  0  0  0
 11 12  1  0  0  0  0
 11 16  2  0  0  0  0
 12 15  1  0  0  0  0
 12 13  1  0  0  0  0
 12 33  1  0  0  0  0
 13 14  1  0  0  0  0
 13 34  1  0  0  0  0
 13 35  1  0  0  0  0
 14 15  1  0  0  0  0
 14 36  1  0  0  0  0
 14 37  1  0  0  0  0
 15 38  1  0  0  0  0
 15 39  1  0  0  0  0
 16 17  1  0  0  0  0
 16 40  1  0  0  0  0
 17 18  2  0  0  0  0
 19 20  1  0  0  0  0
 19 41  1  0  0  0  0
 19 42  1  0  0  0  0
 20 43  1  0  0  0  0
 20 44  1  0  0  0  0
M  END
> <s_m_source_file>
AV-unprocessed.smi

> <i_m_source_file_index>
2529

> <i_lp_mmshare_version>
43012

> <i_f3d_flags>
0

> <s_epik_input>
W0NIMl0xW0NIMl1bQ0BIXShbQ0gzXSlbQ0gyXVtDSDJdW0NAQF0xKFtPSF0pW0NIMl1uMltjSF1uYyhbY0hdYzI9TylbQ0hdM1tDSDJdW0NIMl1bQ0gyXTM=

> <s_epik_cmdline>
J2VwaWtfcHl0aG9uJywgJy1waCcsICc3LjAnLCAnLXRuJywgJzgnLCAnLW1hJywgJzIwMCcsICctbWV0YWxfYmluZGluZycsICctaW1hZScsICc8aW5maWxlLm1hZT4nLCAnLW9tYWUnLCAnPG91dGZpbGUubWFlPic=

> <r_lp_tautomer_probability>
1

> <r_epik_Ionization_Penalty>
9.15498e-05

> <r_epik_Ionization_Penalty_Charging>
1.67865e-07

> <r_epik_Ionization_Penalty_Neutral>
9.13819e-05

> <r_epik_State_Penalty>
-0

> <r_epik_Charging_Adjusted_Penalty>
1.67865e-07

> <i_epik_Tot_Q>
0

> <i_epik_Tot_abs_Q>
0

> <r_epik_Metal_State_Penalty>
-0

> <b_epik_Metal_Only>
0

> <s_lp_Force_Field>
OPLS_2005

> <r_lp_Energy>
33.1946

> <b_lp_Chiralities_Consistent>
1

> <s_lp_Variant>
AV-unprocessed.smi:2529-2

> <Gold.Version>
5.8.1

> <Gold.Id.Protein>
6NUR|6NUR_protein|mol2

> <Gold.PLP.Fitness>
48.3175

> <Gold.PLP.PLP>
-40.0458

> <Gold.PLP.part.hbond>
-2.0000

> <Gold.PLP.part.metal>
0.0000

> <Gold.PLP.part.buried>
-3.2037

> <Gold.PLP.part.nonpolar>
-33.6573

> <Gold.PLP.part.repulsive>
0.0857

> <Gold.PLP.ligand.clash>
0.0000

> <Gold.PLP.ligand.torsion>
0.5986

> <Gold.PLP.Chemscore.Hbond>
2.0000

> <Gold.PLP.Chemscore.CHOScore>
1.0000

> <Gold.PLP.Chemscore.Metal>
0.0000

> <Gold.Chemscore.Hbonds>
donor molecule, donor type, donor heavy atom, donor atom, acceptor molecule, acceptor atom, score
      L1  H     6    29       P1  7957  1.00
      P1  H  7989  7998       L1    18  1.00
      L1  C     9    32       P1  8028  1.00

> <Gold.PLP.Chemscore.Internal.Correction>
0.4688

> <Gold.Rescore>
     Score         DG    S(hbond)    S(metal)    S(lipo)     H(rot)  DE(clash)    DE(int)     intcor
     15.41     -17.74       1.88        0.00      90.47       1.80       0.34       1.99       ----

> <Gold.Chemscore.Fitness>
15.4128

> <Gold.Chemscore.DG>
-17.7428

> <Gold.Chemscore.ZeroCoef>
-5.4800

> <Gold.Chemscore.Hbond>
1.8795

> <Gold.Chemscore.Metal>
0.0000

> <Gold.Chemscore.Lipo>
90.4698

> <Gold.Chemscore.Internal_Hbond>
0.0000

> <Gold.Chemscore.DEClash>
0.3446

> <Gold.Chemscore.DEInternal>
1.9855

> <Gold.Chemscore.Rot>
1.7968

> <Gold.Chemscore.Internal.Correction>
   9.000000E+99

> <Gold.Chemscore.Hbonds>
donor molecule, donor type, donor heavy atom, donor atom, acceptor molecule, acceptor atom, score
      L1  H     6    29       P1  7957  0.96
      P1  H  7989  7998       L1    18  0.50

> <Gold.Chemscore.Hbond.Weighted>
-6.2776

> <Gold.Chemscore.Metal.Weighted>
-0.0000

> <Gold.Chemscore.Lipo.Weighted>
-10.5850

> <Gold.Chemscore.Internal_Hbond.Weighted>
0.0000

> <Gold.Chemscore.DEClash.Weighted>
0.3446

> <Gold.Chemscore.DEInternal.Weighted>
1.9855

> <Gold.Chemscore.Rot.Weighted>
4.5997

> <Gold.Chemscore.Internal.Correction.Weighted>
   9.000000E+99

> <Gold.Protein.RotatedTorsions>
[ 6907 6896 6895 6894 ] final -138.28 input  -60.11 | X-H torsion
[ 7974 7965 7964 7962 ] final   96.65 input  175.53 | X-H torsion
[ 8008 7997 7996 7995 ] final   35.87 input   59.86 | X-H torsion
[ 10167 10162 10161 10158 ] final  164.60 input  -65.29 | X-H torsion
[ 10718 10713 10712 10709 ] final -148.62 input   66.30 | X-H torsion
[ 10763 10752 10751 10750 ] final  -73.36 input  -60.55 | X-H torsion
[ 11005 11000 10999 10996 ] final  -35.11 input  -57.11 | X-H torsion

> <Gold.Protein.ActiveResidues>
 VAL166  LYS551  ARG553  GLY616  TRP617  ASP618  TYR619  PRO620  LYS621  CYS622 
 ASP623  PHE694  ASN695  SER759  ASP760  ASP761  ALA762  ILE779  LEU786  VAL792 
 PHE793  MET794  SER795  GLU796  ALA797  LYS798  CYS799  TRP800  GLU811  SER814 

> <Gold.Protein.RotatedAtoms>
  151.0330  133.5773  159.2658 H   0  0  0  0  0  0  0  0  0  0  0  0  # atno 6907 bound_to 6896
  151.2847  135.0723  159.9192 H   0  0  0  0  0  0  0  0  0  0  0  0  # atno 6908 bound_to 6896
  152.5349  134.0039  159.7961 H   0  0  0  0  0  0  0  0  0  0  0  0  # atno 6909 bound_to 6896
  145.4360  139.2306  143.3118 H   0  0  0  0  0  0  0  0  0  0  0  0  # atno 7974 bound_to 7965
  155.1781  140.3297  155.4380 H   0  0  0  0  0  0  0  0  0  0  0  0  # atno 8008 bound_to 7997
  156.2486  140.1931  156.6831 H   0  0  0  0  0  0  0  0  0  0  0  0  # atno 8009 bound_to 7997
  154.6290  140.0585  156.9695 H   0  0  0  0  0  0  0  0  0  0  0  0  # atno 8010 bound_to 7997
  139.4891  144.4218  151.9177 H   0  0  0  0  0  0  0  0  0  0  0  0  # atno 10167 bound_to 10162
  156.4227  130.8036  151.2260 H   0  0  0  0  0  0  0  0  0  0  0  0  # atno 10718 bound_to 10713
  154.4585  135.5899  153.6239 H   0  0  0  0  0  0  0  0  0  0  0  0  # atno 10763 bound_to 10752
  152.9820  135.6038  154.3516 H   0  0  0  0  0  0  0  0  0  0  0  0  # atno 10764 bound_to 10752
  154.3385  135.2842  155.2414 H   0  0  0  0  0  0  0  0  0  0  0  0  # atno 10765 bound_to 10752
  140.9770  133.7077  156.1619 H   0  0  0  0  0  0  0  0  0  0  0  0  # atno 11005 bound_to 11000
  146.2582  140.5102  142.8865 LP  0  0  0  0  0  0  0  0  0  0  0  0  # atno 17320 bound_to 7965
  144.8152  140.6455  143.6389 LP  0  0  0  0  0  0  0  0  0  0  0  0  # atno 17321 bound_to 7965
  140.3663  144.2911  150.5926 LP  0  0  0  0  0  0  0  0  0  0  0  0  # atno 17342 bound_to 10162
  140.5359  143.2233  151.8164 LP  0  0  0  0  0  0  0  0  0  0  0  0  # atno 17343 bound_to 10162
  157.7508  131.0223  150.3786 LP  0  0  0  0  0  0  0  0  0  0  0  0  # atno 17370 bound_to 10713
  156.4107  130.3933  149.6893 LP  0  0  0  0  0  0  0  0  0  0  0  0  # atno 17371 bound_to 10713
  140.7244  134.4323  157.5572 LP  0  0  0  0  0  0  0  0  0  0  0  0  # atno 17394 bound_to 11000
  139.8934  134.8730  156.2222 LP  0  0  0  0  0  0  0  0  0  0  0  0  # atno 17395 bound_to 11000

$$$$
