AV-unprocessed.smi:1029|AV-procd|sdf|4476|dock8
  -GOLD-   22720 2453D 1   1.00000     0.00000
 Structure written by MMmdl.
 46 47  0  0  0  0  0  0  0  0  2 V2000
  153.4585  137.1812  156.9724 C   0  0  0  0  0  0  0  0  0  0  0  0
  152.6159  137.9941  156.0342 C   0  0  0  0  0  0  0  0  0  0  0  0
  151.3888  137.6317  155.4127 C   0  0  0  0  0  0  0  0  0  0  0  0
  151.0806  138.7450  154.6766 C   0  0  0  0  0  0  0  0  0  0  0  0
  150.0011  138.9588  153.8791 N   0  0  0  0  0  0  0  0  0  0  0  0
  148.7083  138.6740  154.1165 C   0  0  0  0  0  0  0  0  0  0  0  0
  148.2697  138.1233  155.1264 O   0  0  0  0  0  0  0  0  0  0  0  0
  147.9269  139.0712  153.1033 N   0  0  0  0  0  0  0  0  0  0  0  0
  146.4758  138.9352  153.0908 C   0  0  0  0  0  0  0  0  0  0  0  0
  146.0370  137.7149  152.2631 C   0  0  2  0  0  0  0  0  0  0  0  0
  144.7379  137.9653  151.7616 O   0  0  0  0  0  0  0  0  0  0  0  0
  145.9698  136.4405  153.1293 C   0  0  0  0  0  0  0  0  0  0  0  0
  146.3072  135.2135  152.3624 N   0  3  2  0  0  0  0  0  0  0  0  0
  145.3989  134.9996  151.2067 C   0  0  0  0  0  0  0  0  0  0  0  0
  145.8662  133.8131  150.3442 C   0  0  0  0  0  0  0  0  0  0  0  0
  146.0132  132.5181  151.1634 C   0  0  2  0  0  0  0  0  0  0  0  0
  144.6574  131.8886  151.5284 C   0  0  0  0  0  0  0  0  0  0  0  0
  146.8968  132.7884  152.3953 C   0  0  0  0  0  0  0  0  0  0  0  0
  146.4062  133.9976  153.2122 C   0  0  0  0  0  0  0  0  0  0  0  0
  152.0242  139.7066  154.8230 O   0  0  0  0  0  0  0  0  0  0  0  0
  153.0035  139.2147  155.6942 N   0  0  0  0  0  0  0  0  0  0  0  0
  152.8931  136.3448  157.3842 H   0  0  0  0  0  0  0  0  0  0  0  0
  153.8132  137.7829  157.8096 H   0  0  0  0  0  0  0  0  0  0  0  0
  154.3304  136.7734  156.4605 H   0  0  0  0  0  0  0  0  0  0  0  0
  150.8434  136.7050  155.5067 H   0  0  0  0  0  0  0  0  0  0  0  0
  150.2027  139.4101  152.9993 H   0  0  0  0  0  0  0  0  0  0  0  0
  148.3565  139.5186  152.3067 H   0  0  0  0  0  0  0  0  0  0  0  0
  146.1448  138.8157  154.1236 H   0  0  0  0  0  0  0  0  0  0  0  0
  146.0098  139.8474  152.7128 H   0  0  0  0  0  0  0  0  0  0  0  0
  146.7238  137.5746  151.4282 H   0  0  0  0  0  0  0  0  0  0  0  0
  144.5951  138.8997  151.7414 H   0  0  0  0  0  0  0  0  0  0  0  0
  146.6387  136.5215  153.9878 H   0  0  0  0  0  0  0  0  0  0  0  0
  144.9626  136.3570  153.5414 H   0  0  0  0  0  0  0  0  0  0  0  0
  144.3806  134.8399  151.5636 H   0  0  0  0  0  0  0  0  0  0  0  0
  145.3771  135.8968  150.5870 H   0  0  0  0  0  0  0  0  0  0  0  0
  145.1774  133.6591  149.5128 H   0  0  0  0  0  0  0  0  0  0  0  0
  146.8290  134.0615  149.8952 H   0  0  0  0  0  0  0  0  0  0  0  0
  146.5323  131.7899  150.5387 H   0  0  0  0  0  0  0  0  0  0  0  0
  144.0532  132.5442  152.1548 H   0  0  0  0  0  0  0  0  0  0  0  0
  144.7950  130.9514  152.0685 H   0  0  0  0  0  0  0  0  0  0  0  0
  144.0778  131.6648  150.6322 H   0  0  0  0  0  0  0  0  0  0  0  0
  146.9422  131.9015  153.0282 H   0  0  0  0  0  0  0  0  0  0  0  0
  147.9198  132.9770  152.0663 H   0  0  0  0  0  0  0  0  0  0  0  0
  147.0982  134.1687  154.0361 H   0  0  0  0  0  0  0  0  0  0  0  0
  145.4354  133.7848  153.6619 H   0  0  0  0  0  0  0  0  0  0  0  0
  147.2241  135.3738  151.9693 H   0  0  0  0  0  0  0  0  0  0  0  0
  1  2  1  0  0  0  0
  1 22  1  0  0  0  0
  1 23  1  0  0  0  0
  1 24  1  0  0  0  0
  2 21  2  0  0  0  0
  2  3  1  0  0  0  0
  3  4  2  0  0  0  0
  3 25  1  0  0  0  0
  4  5  1  0  0  0  0
  4 20  1  0  0  0  0
  5  6  1  0  0  0  0
  5 26  1  0  0  0  0
  6  7  2  0  0  0  0
  6  8  1  0  0  0  0
  8  9  1  0  0  0  0
  8 27  1  0  0  0  0
  9 10  1  0  0  0  0
  9 28  1  0  0  0  0
  9 29  1  0  0  0  0
 10 11  1  0  0  0  0
 10 12  1  0  0  0  0
 10 30  1  0  0  0  0
 11 31  1  0  0  0  0
 12 13  1  0  0  0  0
 12 32  1  0  0  0  0
 12 33  1  0  0  0  0
 13 19  1  0  0  0  0
 13 14  1  0  0  0  0
 13 46  1  0  0  0  0
 14 15  1  0  0  0  0
 14 34  1  0  0  0  0
 14 35  1  0  0  0  0
 15 16  1  0  0  0  0
 15 36  1  0  0  0  0
 15 37  1  0  0  0  0
 16 17  1  0  0  0  0
 16 18  1  0  0  0  0
 16 38  1  0  0  0  0
 17 39  1  0  0  0  0
 17 40  1  0  0  0  0
 17 41  1  0  0  0  0
 18 19  1  0  0  0  0
 18 42  1  0  0  0  0
 18 43  1  0  0  0  0
 19 44  1  0  0  0  0
 19 45  1  0  0  0  0
 20 21  1  0  0  0  0
M  CHG  1  13   1
M  END
> <s_m_source_file>
AV-unprocessed.smi

> <i_m_source_file_index>
1029

> <i_lp_mmshare_version>
43012

> <i_f3d_flags>
0

> <s_epik_input>
W0NIM11jMVtjSF1jKG9uMSlbTkhdQyg9TylbTkhdW0NIMl1bQ0BIXShbT0hdKVtDSDJdTjJbQ0gyXVtDSDJdW0NIXShbQ0gzXSlbQ0gyXVtDSDJdMg==

> <s_epik_cmdline>
J2VwaWtfcHl0aG9uJywgJy1waCcsICc3LjAnLCAnLXRuJywgJzgnLCAnLW1hJywgJzIwMCcsICctbWV0YWxfYmluZGluZycsICctaW1hZScsICc8aW5maWxlLm1hZT4nLCAnLW9tYWUnLCAnPG91dGZpbGUubWFlPic=

> <r_lp_tautomer_probability>
1

> <r_epik_Ionization_Penalty>
0.00211787

> <r_epik_Ionization_Penalty_Charging>
0.00153238

> <r_epik_Ionization_Penalty_Neutral>
0.000585488

> <r_epik_State_Penalty>
-0

> <r_epik_Charging_Adjusted_Penalty>
0.00153238

> <i_epik_Tot_Q>
1

> <i_epik_Tot_abs_Q>
1

> <r_epik_Metal_State_Penalty>
-0

> <b_epik_Metal_Only>
0

> <s_lp_Force_Field>
OPLS_2005

> <r_lp_Energy>
23.9078

> <b_lp_Chiralities_Consistent>
1

> <s_lp_Variant>
AV-unprocessed.smi:1029-3

> <Gold.Version>
5.8.1

> <Gold.Id.Protein>
6NUR|6NUR_protein|mol2

> <Gold.PLP.Fitness>
52.7688

> <Gold.PLP.PLP>
-34.7668

> <Gold.PLP.part.hbond>
-6.5903

> <Gold.PLP.part.metal>
0.0000

> <Gold.PLP.part.buried>
-3.3493

> <Gold.PLP.part.nonpolar>
-24.3665

> <Gold.PLP.part.repulsive>
0.3007

> <Gold.PLP.ligand.clash>
0.0000

> <Gold.PLP.ligand.torsion>
1.2800

> <Gold.PLP.Chemscore.Hbond>
6.8320

> <Gold.PLP.Chemscore.CHOScore>
0.0000

> <Gold.PLP.Chemscore.Metal>
0.0000

> <Gold.Chemscore.Hbonds>
donor molecule, donor type, donor heavy atom, donor atom, acceptor molecule, acceptor atom, score
      L1  H     5    26       P1  7957  1.00
      L1  H     8    27       P1  7957  1.00
      L1  H    11    31       P1 10175  0.98
      L1  H    13    46       P1  7948  2.00
      P1  H  7989  7998       L1    20  0.90
      P1  H  7997  8009       L1    21  1.00

> <Gold.PLP.Chemscore.Internal.Correction>
0.0661

> <Gold.Rescore>
     Score         DG    S(hbond)    S(metal)    S(lipo)     H(rot)  DE(clash)    DE(int)     intcor
     24.51     -25.75       5.63        0.00      66.51       2.46       0.03       1.20       ----

> <Gold.Chemscore.Fitness>
24.5123

> <Gold.Chemscore.DG>
-25.7482

> <Gold.Chemscore.ZeroCoef>
-5.4800

> <Gold.Chemscore.Hbond>
5.6258

> <Gold.Chemscore.Metal>
0.0000

> <Gold.Chemscore.Lipo>
66.5101

> <Gold.Chemscore.Internal_Hbond>
0.0000

> <Gold.Chemscore.DEClash>
0.0314

> <Gold.Chemscore.DEInternal>
1.2045

> <Gold.Chemscore.Rot>
2.4624

> <Gold.Chemscore.Internal.Correction>
   9.000000E+99

> <Gold.Chemscore.Hbonds>
donor molecule, donor type, donor heavy atom, donor atom, acceptor molecule, acceptor atom, score
      L1  H     5    26       P1  7957  0.85
      L1  H     8    27       P1  7957  1.00
      L1  H    11    31       P1 10175  0.92
      L1  H    13    46       P1  7948  0.98
      P1  H  7989  7998       L1    20  0.39
      P1  H  7997  8009       L1    21  0.95

> <Gold.Chemscore.Hbond.Weighted>
-18.7902

> <Gold.Chemscore.Metal.Weighted>
-0.0000

> <Gold.Chemscore.Lipo.Weighted>
-7.7817

> <Gold.Chemscore.Internal_Hbond.Weighted>
0.0000

> <Gold.Chemscore.DEClash.Weighted>
0.0314

> <Gold.Chemscore.DEInternal.Weighted>
1.2045

> <Gold.Chemscore.Rot.Weighted>
6.3037

> <Gold.Chemscore.Internal.Correction.Weighted>
   9.000000E+99

> <Gold.Protein.RotatedTorsions>
[ 6907 6896 6895 6894 ] final   48.09 input  -60.11 | X-H torsion
[ 7974 7965 7964 7962 ] final  158.23 input  175.53 | X-H torsion
[ 8008 7997 7996 7995 ] final -139.56 input   59.86 | X-H torsion
[ 10167 10162 10161 10158 ] final  106.49 input  -65.29 | X-H torsion
[ 10718 10713 10712 10709 ] final  157.95 input   66.30 | X-H torsion
[ 10763 10752 10751 10750 ] final   36.60 input  -60.55 | X-H torsion
[ 11005 11000 10999 10996 ] final  122.11 input  -57.11 | X-H torsion

> <Gold.Protein.ActiveResidues>
 VAL166  LYS551  ARG553  GLY616  TRP617  ASP618  TYR619  PRO620  LYS621  CYS622 
 ASP623  PHE694  ASN695  SER759  ASP760  ASP761  ALA762  ILE779  LEU786  VAL792 
 PHE793  MET794  SER795  GLU796  ALA797  LYS798  CYS799  TRP800  GLU811  SER814 

> <Gold.Protein.RotatedAtoms>
  152.2755  134.7886  160.0406 H   0  0  0  0  0  0  0  0  0  0  0  0  # atno 6907 bound_to 6896
  151.8484  133.3430  159.3673 H   0  0  0  0  0  0  0  0  0  0  0  0  # atno 6908 bound_to 6896
  150.7168  134.5251  159.5717 H   0  0  0  0  0  0  0  0  0  0  0  0  # atno 6909 bound_to 6896
  144.7858  139.7449  143.6241 H   0  0  0  0  0  0  0  0  0  0  0  0  # atno 7974 bound_to 7965
  155.4469  140.0536  157.3005 H   0  0  0  0  0  0  0  0  0  0  0  0  # atno 8008 bound_to 7997
  154.4794  140.2075  155.9756 H   0  0  0  0  0  0  0  0  0  0  0  0  # atno 8009 bound_to 7997
  156.1182  140.3193  155.8175 H   0  0  0  0  0  0  0  0  0  0  0  0  # atno 8010 bound_to 7997
  139.7005  144.7095  151.1193 H   0  0  0  0  0  0  0  0  0  0  0  0  # atno 10167 bound_to 10162
  157.1845  131.0640  151.2113 H   0  0  0  0  0  0  0  0  0  0  0  0  # atno 10718 bound_to 10713
  153.0070  135.6301  154.2012 H   0  0  0  0  0  0  0  0  0  0  0  0  # atno 10763 bound_to 10752
  154.1755  135.2816  155.3070 H   0  0  0  0  0  0  0  0  0  0  0  0  # atno 10764 bound_to 10752
  154.5875  135.5628  153.7306 H   0  0  0  0  0  0  0  0  0  0  0  0  # atno 10765 bound_to 10752
  139.9254  134.9640  156.8059 H   0  0  0  0  0  0  0  0  0  0  0  0  # atno 11005 bound_to 11000
  146.2088  139.5431  142.9694 LP  0  0  0  0  0  0  0  0  0  0  0  0  # atno 17320 bound_to 7965
  145.5927  141.0367  143.2061 LP  0  0  0  0  0  0  0  0  0  0  0  0  # atno 17321 bound_to 7965
  140.7708  143.5431  150.9290 LP  0  0  0  0  0  0  0  0  0  0  0  0  # atno 17342 bound_to 10162
  139.9112  143.6718  152.3115 LP  0  0  0  0  0  0  0  0  0  0  0  0  # atno 17343 bound_to 10162
  157.3920  130.7287  149.6704 LP  0  0  0  0  0  0  0  0  0  0  0  0  # atno 17370 bound_to 10713
  155.9720  130.4144  150.4129 LP  0  0  0  0  0  0  0  0  0  0  0  0  # atno 17371 bound_to 10713
  140.6351  133.9869  155.7680 LP  0  0  0  0  0  0  0  0  0  0  0  0  # atno 17394 bound_to 11000
  141.0808  134.0066  157.3389 LP  0  0  0  0  0  0  0  0  0  0  0  0  # atno 17395 bound_to 11000

$$$$
