AV-unprocessed.smi:2679|AV-procd|sdf|10370|dock3
  -GOLD-   2272014393D 1   1.00000     0.00000
 Structure written by MMmdl.
 39 40  0  0  0  0  0  0  0  0  1 V2000
  146.5489  141.8496  154.0152 C   0  0  0  0  0  0  0  0  0  0  0  0
  147.0874  141.8078  155.4090 C   0  0  0  0  0  0  0  0  0  0  0  0
  146.4306  142.2883  156.4671 N   0  0  0  0  0  0  0  0  0  0  0  0
  147.2588  142.0632  157.5444 N   0  0  0  0  0  0  0  0  0  0  0  0
  148.3426  141.4665  157.0429 C   0  0  0  0  0  0  0  0  0  0  0  0
  149.7190  140.9685  158.0210 S   0  0  0  0  0  0  0  0  0  0  0  0
  151.0167  141.8136  157.0699 C   0  0  2  0  0  0  0  0  0  0  0  0
  151.8953  140.7901  156.4788 C   0  0  0  0  0  0  0  0  0  0  0  0
  152.5859  139.9861  156.0143 N   0  0  0  0  0  0  0  0  0  0  0  0
  151.7800  142.8418  157.9354 C   0  0  0  0  0  0  0  0  0  0  0  0
  152.4077  142.1806  159.1847 C   0  0  0  0  0  0  0  0  0  0  0  0
  153.1668  143.1957  160.0541 C   0  0  0  0  0  0  0  0  0  0  0  0
  152.2595  144.3618  160.4699 C   0  0  0  0  0  0  0  0  0  0  0  0
  151.6362  145.0358  159.2398 C   0  0  0  0  0  0  0  0  0  0  0  0
  150.8784  144.0204  158.3690 C   0  0  0  0  0  0  0  0  0  0  0  0
  148.2904  141.2754  155.7087 N   0  0  0  0  0  0  0  0  0  0  0  0
  149.2753  140.6613  154.8277 C   0  0  0  0  0  0  0  0  0  0  0  0
  148.7056  139.4177  154.1425 C   0  0  0  0  0  0  0  0  0  0  0  0
  149.5334  138.7174  153.3629 N   0  0  0  0  0  0  0  0  0  0  0  0
  147.5317  139.0952  154.3113 O   0  0  0  0  0  0  0  0  0  0  0  0
  145.5884  142.3655  153.9931 H   0  0  0  0  0  0  0  0  0  0  0  0
  146.4061  140.8377  153.6356 H   0  0  0  0  0  0  0  0  0  0  0  0
  147.2390  142.3796  153.3588 H   0  0  0  0  0  0  0  0  0  0  0  0
  150.5477  142.3375  156.2363 H   0  0  0  0  0  0  0  0  0  0  0  0
  152.5865  143.2546  157.3275 H   0  0  0  0  0  0  0  0  0  0  0  0
  151.6257  141.7062  159.7791 H   0  0  0  0  0  0  0  0  0  0  0  0
  153.0946  141.3856  158.8955 H   0  0  0  0  0  0  0  0  0  0  0  0
  153.5648  142.7010  160.9407 H   0  0  0  0  0  0  0  0  0  0  0  0
  154.0260  143.5789  159.5021 H   0  0  0  0  0  0  0  0  0  0  0  0
  151.4691  143.9961  161.1269 H   0  0  0  0  0  0  0  0  0  0  0  0
  152.8294  145.0913  161.0461 H   0  0  0  0  0  0  0  0  0  0  0  0
  150.9607  145.8314  159.5551 H   0  0  0  0  0  0  0  0  0  0  0  0
  152.4188  145.5119  158.6477 H   0  0  0  0  0  0  0  0  0  0  0  0
  150.4808  144.5391  157.4968 H   0  0  0  0  0  0  0  0  0  0  0  0
  150.0170  143.6389  158.9190 H   0  0  0  0  0  0  0  0  0  0  0  0
  149.6054  141.3957  154.0916 H   0  0  0  0  0  0  0  0  0  0  0  0
  150.1581  140.3846  155.4042 H   0  0  0  0  0  0  0  0  0  0  0  0
  149.2053  137.8865  152.8926 H   0  0  0  0  0  0  0  0  0  0  0  0
  150.4900  139.0207  153.2496 H   0  0  0  0  0  0  0  0  0  0  0  0
  1  2  1  0  0  0  0
  1 21  1  0  0  0  0
  1 22  1  0  0  0  0
  1 23  1  0  0  0  0
  2 16  1  0  0  0  0
  2  3  2  0  0  0  0
  3  4  1  0  0  0  0
  4  5  2  0  0  0  0
  5  6  1  0  0  0  0
  5 16  1  0  0  0  0
  6  7  1  0  0  0  0
  7  8  1  0  0  0  0
  7 10  1  0  0  0  0
  7 24  1  0  0  0  0
  8  9  3  0  0  0  0
 10 15  1  0  0  0  0
 10 11  1  0  0  0  0
 10 25  1  0  0  0  0
 11 12  1  0  0  0  0
 11 26  1  0  0  0  0
 11 27  1  0  0  0  0
 12 13  1  0  0  0  0
 12 28  1  0  0  0  0
 12 29  1  0  0  0  0
 13 14  1  0  0  0  0
 13 30  1  0  0  0  0
 13 31  1  0  0  0  0
 14 15  1  0  0  0  0
 14 32  1  0  0  0  0
 14 33  1  0  0  0  0
 15 34  1  0  0  0  0
 15 35  1  0  0  0  0
 16 17  1  0  0  0  0
 17 18  1  0  0  0  0
 17 36  1  0  0  0  0
 17 37  1  0  0  0  0
 18 19  1  0  0  0  0
 18 20  2  0  0  0  0
 19 38  1  0  0  0  0
 19 39  1  0  0  0  0
M  END
> <s_m_source_file>
AV-unprocessed.smi

> <i_m_source_file_index>
2679

> <i_lp_mmshare_version>
43012

> <i_f3d_flags>
0

> <s_epik_input>
W0NIM11jMW5uYyhuMVtDSDJdQyg9TylbTkgyXSlTW0NASF0oQyNOKVtDSF0yW0NIMl1bQ0gyXVtDSDJdW0NIMl1bQ0gyXTI=

> <s_epik_cmdline>
J2VwaWtfcHl0aG9uJywgJy1waCcsICc3LjAnLCAnLXRuJywgJzgnLCAnLW1hJywgJzIwMCcsICctbWV0YWxfYmluZGluZycsICctaW1hZScsICc8aW5maWxlLm1hZT4nLCAnLW9tYWUnLCAnPG91dGZpbGUubWFlPic=

> <r_lp_tautomer_probability>
1

> <r_epik_Ionization_Penalty>
1.94949e-07

> <r_epik_Ionization_Penalty_Charging>
0

> <r_epik_Ionization_Penalty_Neutral>
1.94949e-07

> <r_epik_State_Penalty>
-0

> <r_epik_Charging_Adjusted_Penalty>
0

> <i_epik_Tot_Q>
0

> <i_epik_Tot_abs_Q>
0

> <r_epik_Metal_State_Penalty>
-0

> <b_epik_Metal_Only>
0

> <s_lp_Force_Field>
OPLS_2005

> <r_lp_Energy>
7.74931

> <b_lp_Chiralities_Consistent>
1

> <s_lp_Variant>
AV-unprocessed.smi:2679-1

> <Gold.Version>
5.8.1

> <Gold.Id.Protein>
6NUR|6NUR_protein|mol2

> <Gold.PLP.Fitness>
45.1082

> <Gold.PLP.PLP>
-40.7131

> <Gold.PLP.part.hbond>
-3.0000

> <Gold.PLP.part.metal>
0.0000

> <Gold.PLP.part.buried>
-5.3821

> <Gold.PLP.part.nonpolar>
-31.5551

> <Gold.PLP.part.repulsive>
0.5498

> <Gold.PLP.ligand.clash>
0.0000

> <Gold.PLP.ligand.torsion>
0.8410

> <Gold.PLP.Chemscore.Hbond>
2.0000

> <Gold.PLP.Chemscore.CHOScore>
0.0000

> <Gold.PLP.Chemscore.Metal>
0.0000

> <Gold.Chemscore.Hbonds>
donor molecule, donor type, donor heavy atom, donor atom, acceptor molecule, acceptor atom, score
      L1  H    19    38       P1  7948  1.00
      P1  H  7997  8010       L1     9  1.00

> <Gold.PLP.Chemscore.Internal.Correction>
0.0770

> <Gold.Rescore>
     Score         DG    S(hbond)    S(metal)    S(lipo)     H(rot)  DE(clash)    DE(int)     intcor
     16.22     -17.48       2.52        0.00      86.88       2.57       0.14       1.13       ----

> <Gold.Chemscore.Fitness>
16.2156

> <Gold.Chemscore.DG>
-17.4814

> <Gold.Chemscore.ZeroCoef>
-5.4800

> <Gold.Chemscore.Hbond>
2.5220

> <Gold.Chemscore.Metal>
0.0000

> <Gold.Chemscore.Lipo>
86.8751

> <Gold.Chemscore.Internal_Hbond>
0.0000

> <Gold.Chemscore.DEClash>
0.1359

> <Gold.Chemscore.DEInternal>
1.1299

> <Gold.Chemscore.Rot>
2.5728

> <Gold.Chemscore.Internal.Correction>
   9.000000E+99

> <Gold.Chemscore.Hbonds>
donor molecule, donor type, donor heavy atom, donor atom, acceptor molecule, acceptor atom, score
      L1  H    19    38       P1  7948  0.97
      P1  H  7997  8010       L1     9  0.95

> <Gold.Chemscore.Hbond.Weighted>
-8.4235

> <Gold.Chemscore.Metal.Weighted>
-0.0000

> <Gold.Chemscore.Lipo.Weighted>
-10.1644

> <Gold.Chemscore.Internal_Hbond.Weighted>
0.0000

> <Gold.Chemscore.DEClash.Weighted>
0.1359

> <Gold.Chemscore.DEInternal.Weighted>
1.1299

> <Gold.Chemscore.Rot.Weighted>
6.5865

> <Gold.Chemscore.Internal.Correction.Weighted>
   9.000000E+99

> <Gold.Protein.RotatedTorsions>
[ 6907 6896 6895 6894 ] final  -36.94 input  -60.11 | X-H torsion
[ 7974 7965 7964 7962 ] final -133.81 input  175.53 | X-H torsion
[ 8008 7997 7996 7995 ] final   97.41 input   59.86 | X-H torsion
[ 10167 10162 10161 10158 ] final  135.99 input  -65.29 | X-H torsion
[ 10718 10713 10712 10709 ] final  -34.31 input   66.30 | X-H torsion
[ 10763 10752 10751 10750 ] final  -64.92 input  -60.55 | X-H torsion
[ 11005 11000 10999 10996 ] final -115.58 input  -57.11 | X-H torsion

> <Gold.Protein.ActiveResidues>
 VAL166  LYS551  ARG553  GLY616  TRP617  ASP618  TYR619  PRO620  LYS621  CYS622 
 ASP623  PHE694  ASN695  SER759  ASP760  ASP761  ALA762  ILE779  LEU786  VAL792 
 PHE793  MET794  SER795  GLU796  ALA797  LYS798  CYS799  TRP800  GLU811  SER814 

> <Gold.Protein.RotatedAtoms>
  151.0209  134.9468  159.8058 H   0  0  0  0  0  0  0  0  0  0  0  0  # atno 6907 bound_to 6896
  152.5325  134.2904  159.9051 H   0  0  0  0  0  0  0  0  0  0  0  0  # atno 6908 bound_to 6896
  151.2912  133.4122  159.2667 H   0  0  0  0  0  0  0  0  0  0  0  0  # atno 6909 bound_to 6896
  144.9159  140.6954  143.4995 H   0  0  0  0  0  0  0  0  0  0  0  0  # atno 7974 bound_to 7965
  156.0898  140.3259  155.7801 H   0  0  0  0  0  0  0  0  0  0  0  0  # atno 8008 bound_to 7997
  155.5015  140.0569  157.2955 H   0  0  0  0  0  0  0  0  0  0  0  0  # atno 8009 bound_to 7997
  154.4631  140.1976  156.0207 H   0  0  0  0  0  0  0  0  0  0  0  0  # atno 8010 bound_to 7997
  139.5196  144.6488  151.5363 H   0  0  0  0  0  0  0  0  0  0  0  0  # atno 10167 bound_to 10162
  156.3521  130.4310  149.7695 H   0  0  0  0  0  0  0  0  0  0  0  0  # atno 10718 bound_to 10713
  154.3373  135.6164  153.5579 H   0  0  0  0  0  0  0  0  0  0  0  0  # atno 10763 bound_to 10752
  152.9807  135.5761  154.4893 H   0  0  0  0  0  0  0  0  0  0  0  0  # atno 10764 bound_to 10752
  154.4591  135.2855  155.1703 H   0  0  0  0  0  0  0  0  0  0  0  0  # atno 10765 bound_to 10752
  141.0478  133.9734  157.2887 H   0  0  0  0  0  0  0  0  0  0  0  0  # atno 11005 bound_to 11000
  145.3376  139.1741  143.4503 LP  0  0  0  0  0  0  0  0  0  0  0  0  # atno 17320 bound_to 7965
  146.3182  140.3413  142.8648 LP  0  0  0  0  0  0  0  0  0  0  0  0  # atno 17321 bound_to 7965
  140.6284  143.9124  150.6584 LP  0  0  0  0  0  0  0  0  0  0  0  0  # atno 17342 bound_to 10162
  140.2420  143.3657  152.1478 LP  0  0  0  0  0  0  0  0  0  0  0  0  # atno 17343 bound_to 10162
  156.4891  130.8077  151.3087 LP  0  0  0  0  0  0  0  0  0  0  0  0  # atno 17370 bound_to 10713
  157.7462  130.9981  150.2840 LP  0  0  0  0  0  0  0  0  0  0  0  0  # atno 17371 bound_to 10713
  139.9326  135.0199  156.8451 LP  0  0  0  0  0  0  0  0  0  0  0  0  # atno 17394 bound_to 11000
  140.6113  134.0080  155.7578 LP  0  0  0  0  0  0  0  0  0  0  0  0  # atno 17395 bound_to 11000

$$$$
