AV-unprocessed.smi:1610|AV-procd|sdf|6470|dock7
  -GOLD-   22720 7123D 1   1.00000     0.00000
 Structure written by MMmdl.
 44 45  0  0  0  0  0  0  0  0  1 V2000
  143.1810  145.8421  155.7027 C   0  0  0  0  0  0  0  0  0  0  0  0
  142.8374  144.3089  156.6592 S   0  0  0  0  0  0  0  0  0  0  0  0
  142.2203  144.6788  157.9422 O   0  0  0  0  0  0  0  0  0  0  0  0
  142.1761  143.3458  155.7660 O   0  0  0  0  0  0  0  0  0  0  0  0
  144.4177  143.7011  156.9895 N   0  0  0  0  0  0  0  0  0  0  0  0
  144.9267  142.5077  156.3113 C   0  0  0  0  0  0  0  0  0  0  0  0
  145.9405  141.7728  157.2121 C   0  0  0  0  0  0  0  0  0  0  0  0
  146.6116  140.6151  156.4504 C   0  0  0  0  0  0  0  0  0  0  0  0
  147.2392  141.1475  155.2277 N   0  0  0  0  0  0  0  0  0  0  0  0
  148.5684  141.3278  155.0198 C   0  0  0  0  0  0  0  0  0  0  0  0
  149.0472  141.6080  153.9198 O   0  0  0  0  0  0  0  0  0  0  0  0
  149.3390  141.1457  156.1059 N   0  0  0  0  0  0  0  0  0  0  0  0
  150.7917  141.2682  156.1353 C   0  0  0  0  0  0  0  0  0  0  0  0
  151.3471  141.0538  157.5524 C   0  0  0  0  0  0  0  0  0  0  0  0
  151.5639  142.3633  158.2841 C   0  0  0  0  0  0  0  0  0  0  0  0
  152.3066  142.4066  159.4820 C   0  0  0  0  0  0  0  0  0  0  0  0
  152.4801  143.6459  160.1276 C   0  0  0  0  0  0  0  0  0  0  0  0
  151.9012  144.7916  159.5464 C   0  0  0  0  0  0  0  0  0  0  0  0
  151.1868  144.7617  158.4006 N   0  0  0  0  0  0  0  0  0  0  0  0
  151.0253  143.5693  157.7876 C   0  0  0  0  0  0  0  0  0  0  0  0
  146.2316  141.6813  154.3015 C   0  0  0  0  0  0  0  0  0  0  0  0
  145.5449  142.8949  154.9534 C   0  0  0  0  0  0  0  0  0  0  0  0
  142.2380  146.3060  155.4142 H   0  0  0  0  0  0  0  0  0  0  0  0
  143.7506  145.5943  154.8073 H   0  0  0  0  0  0  0  0  0  0  0  0
  143.7510  146.5393  156.3162 H   0  0  0  0  0  0  0  0  0  0  0  0
  144.7374  143.8377  157.9481 H   0  0  0  0  0  0  0  0  0  0  0  0
  144.0926  141.8322  156.1169 H   0  0  0  0  0  0  0  0  0  0  0  0
  146.7076  142.4689  157.5549 H   0  0  0  0  0  0  0  0  0  0  0  0
  145.4437  141.3930  158.1054 H   0  0  0  0  0  0  0  0  0  0  0  0
  147.3016  140.0922  157.1123 H   0  0  0  0  0  0  0  0  0  0  0  0
  145.8627  139.8725  156.1716 H   0  0  0  0  0  0  0  0  0  0  0  0
  148.8835  140.9047  156.9740 H   0  0  0  0  0  0  0  0  0  0  0  0
  151.2076  140.5238  155.4557 H   0  0  0  0  0  0  0  0  0  0  0  0
  151.0918  142.2437  155.7489 H   0  0  0  0  0  0  0  0  0  0  0  0
  150.6658  140.4349  158.1379 H   0  0  0  0  0  0  0  0  0  0  0  0
  152.2922  140.5111  157.5062 H   0  0  0  0  0  0  0  0  0  0  0  0
  152.7349  141.5074  159.9001 H   0  0  0  0  0  0  0  0  0  0  0  0
  153.0428  143.7169  161.0467 H   0  0  0  0  0  0  0  0  0  0  0  0
  152.0143  145.7578  160.0152 H   0  0  0  0  0  0  0  0  0  0  0  0
  150.4474  143.5781  156.8752 H   0  0  0  0  0  0  0  0  0  0  0  0
  146.6532  141.9654  153.3364 H   0  0  0  0  0  0  0  0  0  0  0  0
  145.4946  140.9073  154.0830 H   0  0  0  0  0  0  0  0  0  0  0  0
  144.7749  143.2899  154.2896 H   0  0  0  0  0  0  0  0  0  0  0  0
  146.2769  143.6927  155.0899 H   0  0  0  0  0  0  0  0  0  0  0  0
  1  2  1  0  0  0  0
  1 23  1  0  0  0  0
  1 24  1  0  0  0  0
  1 25  1  0  0  0  0
  2  3  2  0  0  0  0
  2  4  2  0  0  0  0
  2  5  1  0  0  0  0
  5  6  1  0  0  0  0
  5 26  1  0  0  0  0
  6 22  1  0  0  0  0
  6  7  1  0  0  0  0
  6 27  1  0  0  0  0
  7  8  1  0  0  0  0
  7 28  1  0  0  0  0
  7 29  1  0  0  0  0
  8  9  1  0  0  0  0
  8 30  1  0  0  0  0
  8 31  1  0  0  0  0
  9 10  1  0  0  0  0
  9 21  1  0  0  0  0
 10 11  2  0  0  0  0
 10 12  1  0  0  0  0
 12 13  1  0  0  0  0
 12 32  1  0  0  0  0
 13 14  1  0  0  0  0
 13 33  1  0  0  0  0
 13 34  1  0  0  0  0
 14 15  1  0  0  0  0
 14 35  1  0  0  0  0
 14 36  1  0  0  0  0
 15 20  1  0  0  0  0
 15 16  2  0  0  0  0
 16 17  1  0  0  0  0
 16 37  1  0  0  0  0
 17 18  2  0  0  0  0
 17 38  1  0  0  0  0
 18 19  1  0  0  0  0
 18 39  1  0  0  0  0
 19 20  2  0  0  0  0
 20 40  1  0  0  0  0
 21 22  1  0  0  0  0
 21 41  1  0  0  0  0
 21 42  1  0  0  0  0
 22 43  1  0  0  0  0
 22 44  1  0  0  0  0
M  END
> <s_m_source_file>
AV-unprocessed.smi

> <i_m_source_file_index>
1610

> <i_lp_mmshare_version>
43012

> <i_f3d_flags>
0

> <s_epik_input>
W0NIM11TKD1PKSg9TylbTkhdW0NIXTFbQ0gyXVtDSDJdTihbQ0gyXVtDSDJdMSlDKD1PKVtOSF1bQ0gyXVtDSDJdYzJbY0hdW2NIXVtjSF1uW2NIXTI=

> <s_epik_cmdline>
J2VwaWtfcHl0aG9uJywgJy1waCcsICc3LjAnLCAnLXRuJywgJzgnLCAnLW1hJywgJzIwMCcsICctbWV0YWxfYmluZGluZycsICctaW1hZScsICc8aW5maWxlLm1hZT4nLCAnLW9tYWUnLCAnPG91dGZpbGUubWFlPic=

> <r_epik_Ionization_Penalty>
0.0145188

> <r_epik_Ionization_Penalty_Charging>
0

> <r_epik_Ionization_Penalty_Neutral>
0.0145188

> <r_epik_State_Penalty>
0.0113046

> <r_epik_Charging_Adjusted_Penalty>
0.0113046

> <i_epik_Tot_Q>
0

> <i_epik_Tot_abs_Q>
0

> <r_epik_Metal_State_Penalty>
0.0179141

> <b_epik_Metal_Only>
0

> <s_lp_Force_Field>
OPLS_2005

> <r_lp_Energy>
22.3117

> <b_lp_Chiralities_Consistent>
1

> <s_lp_Variant>
AV-unprocessed.smi:1610-1

> <Gold.Version>
5.8.1

> <Gold.Id.Protein>
6NUR|6NUR_protein|mol2

> <Gold.PLP.Fitness>
44.7747

> <Gold.PLP.PLP>
-41.4113

> <Gold.PLP.part.hbond>
-2.0000

> <Gold.PLP.part.metal>
0.0000

> <Gold.PLP.part.buried>
-6.0140

> <Gold.PLP.part.nonpolar>
-34.6888

> <Gold.PLP.part.repulsive>
0.6261

> <Gold.PLP.ligand.clash>
0.0000

> <Gold.PLP.ligand.torsion>
1.3727

> <Gold.PLP.Chemscore.Hbond>
0.6720

> <Gold.PLP.Chemscore.CHOScore>
1.0000

> <Gold.PLP.Chemscore.Metal>
0.0000

> <Gold.Chemscore.Hbonds>
donor molecule, donor type, donor heavy atom, donor atom, acceptor molecule, acceptor atom, score
      P1  H  8011  8017       L1    11  0.66
      L1  C    20    40       P1  8028  1.00

> <Gold.PLP.Chemscore.Internal.Correction>
1.0928

> <Gold.Rescore>
     Score         DG    S(hbond)    S(metal)    S(lipo)     H(rot)  DE(clash)    DE(int)     intcor
     13.03     -14.50       0.74        0.00      93.78       1.73       0.10       1.36       ----

> <Gold.Chemscore.Fitness>
13.0344

> <Gold.Chemscore.DG>
-14.4961

> <Gold.Chemscore.ZeroCoef>
-5.4800

> <Gold.Chemscore.Hbond>
0.7384

> <Gold.Chemscore.Metal>
0.0000

> <Gold.Chemscore.Lipo>
93.7802

> <Gold.Chemscore.Internal_Hbond>
0.0000

> <Gold.Chemscore.DEClash>
0.1031

> <Gold.Chemscore.DEInternal>
1.3586

> <Gold.Chemscore.Rot>
1.7276

> <Gold.Chemscore.Internal.Correction>
   9.000000E+99

> <Gold.Chemscore.Hbonds>
donor molecule, donor type, donor heavy atom, donor atom, acceptor molecule, acceptor atom, score
      P1  H  8011  8017       L1    11  0.66

> <Gold.Chemscore.Hbond.Weighted>
-2.4664

> <Gold.Chemscore.Metal.Weighted>
-0.0000

> <Gold.Chemscore.Lipo.Weighted>
-10.9723

> <Gold.Chemscore.Internal_Hbond.Weighted>
0.0000

> <Gold.Chemscore.DEClash.Weighted>
0.1031

> <Gold.Chemscore.DEInternal.Weighted>
1.3586

> <Gold.Chemscore.Rot.Weighted>
4.4226

> <Gold.Chemscore.Internal.Correction.Weighted>
   9.000000E+99

> <Gold.Protein.RotatedTorsions>
[ 6907 6896 6895 6894 ] final   57.74 input  -60.11 | X-H torsion
[ 7974 7965 7964 7962 ] final  -17.98 input  175.53 | X-H torsion
[ 8008 7997 7996 7995 ] final -140.55 input   59.86 | X-H torsion
[ 10167 10162 10161 10158 ] final    2.85 input  -65.29 | X-H torsion
[ 10718 10713 10712 10709 ] final  -80.67 input   66.30 | X-H torsion
[ 10763 10752 10751 10750 ] final   62.83 input  -60.55 | X-H torsion
[ 11005 11000 10999 10996 ] final   49.25 input  -57.11 | X-H torsion

> <Gold.Protein.ActiveResidues>
 VAL166  LYS551  ARG553  GLY616  TRP617  ASP618  TYR619  PRO620  LYS621  CYS622 
 ASP623  PHE694  ASN695  SER759  ASP760  ASP761  ALA762  ILE779  LEU786  VAL792 
 PHE793  MET794  SER795  GLU796  ALA797  LYS798  CYS799  TRP800  GLU811  SER814 

> <Gold.Protein.RotatedAtoms>
  152.3759  134.6663  160.0159 H   0  0  0  0  0  0  0  0  0  0  0  0  # atno 6907 bound_to 6896
  151.6942  133.3305  159.3258 H   0  0  0  0  0  0  0  0  0  0  0  0  # atno 6908 bound_to 6896
  150.7709  134.6608  159.6383 H   0  0  0  0  0  0  0  0  0  0  0  0  # atno 6909 bound_to 6896
  146.1915  140.3856  142.8456 H   0  0  0  0  0  0  0  0  0  0  0  0  # atno 7974 bound_to 7965
  155.4633  140.0547  157.2988 H   0  0  0  0  0  0  0  0  0  0  0  0  # atno 8008 bound_to 7997
  154.4728  140.2048  155.9906 H   0  0  0  0  0  0  0  0  0  0  0  0  # atno 8009 bound_to 7997
  156.1084  140.3208  155.8043 H   0  0  0  0  0  0  0  0  0  0  0  0  # atno 8010 bound_to 7997
  140.6615  143.7292  150.7747 H   0  0  0  0  0  0  0  0  0  0  0  0  # atno 10167 bound_to 10162
  156.0065  130.4581  150.3836 H   0  0  0  0  0  0  0  0  0  0  0  0  # atno 10718 bound_to 10713
  152.9996  135.5451  154.6255 H   0  0  0  0  0  0  0  0  0  0  0  0  # atno 10763 bound_to 10752
  154.5545  135.2829  155.0980 H   0  0  0  0  0  0  0  0  0  0  0  0  # atno 10764 bound_to 10752
  154.2206  135.6451  153.5196 H   0  0  0  0  0  0  0  0  0  0  0  0  # atno 10765 bound_to 10752
  140.1119  134.4943  155.8670 H   0  0  0  0  0  0  0  0  0  0  0  0  # atno 11005 bound_to 11000
  144.8495  140.6980  143.6177 LP  0  0  0  0  0  0  0  0  0  0  0  0  # atno 17320 bound_to 7965
  145.3779  139.1643  143.4296 LP  0  0  0  0  0  0  0  0  0  0  0  0  # atno 17321 bound_to 7965
  140.0962  143.4831  152.2451 LP  0  0  0  0  0  0  0  0  0  0  0  0  # atno 17342 bound_to 10162
  139.5850  144.7527  151.3543 LP  0  0  0  0  0  0  0  0  0  0  0  0  # atno 17343 bound_to 10162
  157.1914  131.0416  151.2698 LP  0  0  0  0  0  0  0  0  0  0  0  0  # atno 17370 bound_to 10713
  157.4058  130.7358  149.6801 LP  0  0  0  0  0  0  0  0  0  0  0  0  # atno 17371 bound_to 10713
  141.2132  133.6730  156.6722 LP  0  0  0  0  0  0  0  0  0  0  0  0  # atno 17394 bound_to 11000
  140.3079  134.8110  157.4152 LP  0  0  0  0  0  0  0  0  0  0  0  0  # atno 17395 bound_to 11000

$$$$
