AV-unprocessed.smi:910|AV-procd|sdf|4118|dock6
  -GOLD-   22720 2 13D 1   1.00000     0.00000
 Structure written by MMmdl.
 46 47  0  0  0  0  0  0  0  0  1 V2000
  146.5637  135.3789  163.3349 C   0  0  0  0  0  0  0  0  0  0  0  0
  147.2093  135.3991  161.9850 C   0  0  0  0  0  0  0  0  0  0  0  0
  147.6285  136.5797  161.3890 N   0  0  0  0  0  0  0  0  0  0  0  0
  148.1427  136.2003  160.2179 C   0  0  0  0  0  0  0  0  0  0  0  0
  148.7315  137.0438  159.2429 N   0  0  0  0  0  0  0  0  0  0  0  0
  150.0412  137.2645  159.0449 C   0  0  0  0  0  0  0  0  0  0  0  0
  150.9437  136.8732  159.7859 O   0  0  0  0  0  0  0  0  0  0  0  0
  150.2544  137.9635  157.9201 N   0  0  0  0  0  0  0  0  0  0  0  0
  151.5676  138.2596  157.3558 C   0  0  0  0  0  0  0  0  0  0  0  0
  151.6877  139.7440  156.9774 C   0  0  0  0  0  0  0  0  0  0  0  0
  152.5399  140.3852  157.9138 O   0  0  0  0  0  0  0  0  0  0  0  0
  151.9322  140.7526  159.1455 C   0  0  2  0  0  0  0  0  0  0  0  0
  150.6863  141.6308  158.8940 C   0  0  0  0  0  0  0  0  0  0  0  0
  151.0536  142.9679  158.2280 C   0  0  0  0  0  0  0  0  0  0  0  0
  152.1081  143.7285  159.0457 C   0  0  0  0  0  0  0  0  0  0  0  0
  153.3501  142.8608  159.3042 C   0  0  0  0  0  0  0  0  0  0  0  0
  152.9781  141.5250  159.9807 C   0  0  2  0  0  0  0  0  0  0  0  0
  154.2206  140.6724  160.2818 C   0  0  0  0  0  0  0  0  0  0  0  0
  148.0946  134.8585  160.0050 O   0  0  0  0  0  0  0  0  0  0  0  0
  147.4954  134.3626  161.1324 C   0  0  0  0  0  0  0  0  0  0  0  0
  147.2857  132.8888  161.2155 C   0  0  0  0  0  0  0  0  0  0  0  0
  146.7036  134.4162  163.8273 H   0  0  0  0  0  0  0  0  0  0  0  0
  145.4914  135.5594  163.2583 H   0  0  0  0  0  0  0  0  0  0  0  0
  146.9836  136.1455  163.9868 H   0  0  0  0  0  0  0  0  0  0  0  0
  148.0920  137.4700  158.5890 H   0  0  0  0  0  0  0  0  0  0  0  0
  149.4526  138.2557  157.3811 H   0  0  0  0  0  0  0  0  0  0  0  0
  152.3154  138.0152  158.1103 H   0  0  0  0  0  0  0  0  0  0  0  0
  151.7764  137.6225  156.4947 H   0  0  0  0  0  0  0  0  0  0  0  0
  152.0649  139.8362  155.9590 H   0  0  0  0  0  0  0  0  0  0  0  0
  150.7057  140.2179  157.0039 H   0  0  0  0  0  0  0  0  0  0  0  0
  151.6430  139.8531  159.6920 H   0  0  0  0  0  0  0  0  0  0  0  0
  149.9512  141.1047  158.2863 H   0  0  0  0  0  0  0  0  0  0  0  0
  150.1942  141.8311  159.8465 H   0  0  0  0  0  0  0  0  0  0  0  0
  151.4335  142.7863  157.2226 H   0  0  0  0  0  0  0  0  0  0  0  0
  150.1611  143.5830  158.1117 H   0  0  0  0  0  0  0  0  0  0  0  0
  152.3950  144.6416  158.5229 H   0  0  0  0  0  0  0  0  0  0  0  0
  151.6762  144.0393  159.9977 H   0  0  0  0  0  0  0  0  0  0  0  0
  153.8629  142.6698  158.3604 H   0  0  0  0  0  0  0  0  0  0  0  0
  154.0541  143.4119  159.9286 H   0  0  0  0  0  0  0  0  0  0  0  0
  152.5181  141.7623  160.9411 H   0  0  0  0  0  0  0  0  0  0  0  0
  154.7534  140.4058  159.3684 H   0  0  0  0  0  0  0  0  0  0  0  0
  153.9481  139.7474  160.7905 H   0  0  0  0  0  0  0  0  0  0  0  0
  154.9171  141.2097  160.9259 H   0  0  0  0  0  0  0  0  0  0  0  0
  146.3729  132.6566  161.7643 H   0  0  0  0  0  0  0  0  0  0  0  0
  148.1200  132.4097  161.7279 H   0  0  0  0  0  0  0  0  0  0  0  0
  147.2013  132.4498  160.2210 H   0  0  0  0  0  0  0  0  0  0  0  0
  1  2  1  0  0  0  0
  1 22  1  0  0  0  0
  1 23  1  0  0  0  0
  1 24  1  0  0  0  0
  2 20  2  0  0  0  0
  2  3  1  0  0  0  0
  3  4  2  0  0  0  0
  4  5  1  0  0  0  0
  4 19  1  0  0  0  0
  5  6  1  0  0  0  0
  5 25  1  0  0  0  0
  6  7  2  0  0  0  0
  6  8  1  0  0  0  0
  8  9  1  0  0  0  0
  8 26  1  0  0  0  0
  9 10  1  0  0  0  0
  9 27  1  0  0  0  0
  9 28  1  0  0  0  0
 10 11  1  0  0  0  0
 10 29  1  0  0  0  0
 10 30  1  0  0  0  0
 11 12  1  0  0  0  0
 12 17  1  0  0  0  0
 12 13  1  0  0  0  0
 12 31  1  0  0  0  0
 13 14  1  0  0  0  0
 13 32  1  0  0  0  0
 13 33  1  0  0  0  0
 14 15  1  0  0  0  0
 14 34  1  0  0  0  0
 14 35  1  0  0  0  0
 15 16  1  0  0  0  0
 15 36  1  0  0  0  0
 15 37  1  0  0  0  0
 16 17  1  0  0  0  0
 16 38  1  0  0  0  0
 16 39  1  0  0  0  0
 17 18  1  0  0  0  0
 17 40  1  0  0  0  0
 18 41  1  0  0  0  0
 18 42  1  0  0  0  0
 18 43  1  0  0  0  0
 19 20  1  0  0  0  0
 20 21  1  0  0  0  0
 21 44  1  0  0  0  0
 21 45  1  0  0  0  0
 21 46  1  0  0  0  0
M  END
> <s_m_source_file>
AV-unprocessed.smi

> <i_m_source_file_index>
910

> <i_lp_mmshare_version>
43012

> <i_f3d_flags>
0

> <s_epik_input>
W0NIM11jMW5jKG9jMVtDSDNdKVtOSF1DKD1PKVtOSF1bQ0gyXVtDSDJdT1tDQEBIXTJbQ0gyXVtDSDJdW0NIMl1bQ0gyXVtDQEhdMltDSDNd

> <s_epik_cmdline>
J2VwaWtfcHl0aG9uJywgJy1waCcsICc3LjAnLCAnLXRuJywgJzgnLCAnLW1hJywgJzIwMCcsICctbWV0YWxfYmluZGluZycsICctaW1hZScsICc8aW5maWxlLm1hZT4nLCAnLW9tYWUnLCAnPG91dGZpbGUubWFlPic=

> <r_lp_tautomer_probability>
0.785861

> <r_epik_Ionization_Penalty>
4.15957e-05

> <r_epik_Ionization_Penalty_Charging>
0

> <r_epik_Ionization_Penalty_Neutral>
4.15957e-05

> <r_epik_State_Penalty>
0.0240523

> <r_epik_Charging_Adjusted_Penalty>
0.0240523

> <i_epik_Tot_Q>
0

> <i_epik_Tot_abs_Q>
0

> <r_epik_Metal_State_Penalty>
0.057053

> <b_epik_Metal_Only>
0

> <s_lp_Force_Field>
OPLS_2005

> <r_lp_Energy>
8.47643

> <b_lp_Chiralities_Consistent>
1

> <s_lp_Variant>
AV-unprocessed.smi:910-3

> <Gold.Version>
5.8.1

> <Gold.Id.Protein>
6NUR|6NUR_protein|mol2

> <Gold.PLP.Fitness>
45.1655

> <Gold.PLP.PLP>
-37.5088

> <Gold.PLP.part.hbond>
-3.8614

> <Gold.PLP.part.metal>
0.0000

> <Gold.PLP.part.buried>
-4.0018

> <Gold.PLP.part.nonpolar>
-29.3997

> <Gold.PLP.part.repulsive>
0.2558

> <Gold.PLP.ligand.clash>
0.0000

> <Gold.PLP.ligand.torsion>
1.2430

> <Gold.PLP.Chemscore.Hbond>
3.3684

> <Gold.PLP.Chemscore.CHOScore>
0.0000

> <Gold.PLP.Chemscore.Metal>
0.0000

> <Gold.Chemscore.Hbonds>
donor molecule, donor type, donor heavy atom, donor atom, acceptor molecule, acceptor atom, score
      P1  H  6896  6907       L1     7  1.00
      P1  H  6931  6943       L1     3  0.47
      P1  H  7997  8009       L1    11  0.44

> <Gold.PLP.Chemscore.Internal.Correction>
0.0375

> <Gold.Rescore>
     Score         DG    S(hbond)    S(metal)    S(lipo)     H(rot)  DE(clash)    DE(int)     intcor
     19.60     -21.20       2.40        0.00     102.11       1.66       0.37       1.22       ----

> <Gold.Chemscore.Fitness>
19.6047

> <Gold.Chemscore.DG>
-21.2043

> <Gold.Chemscore.ZeroCoef>
-5.4800

> <Gold.Chemscore.Hbond>
2.4016

> <Gold.Chemscore.Metal>
0.0000

> <Gold.Chemscore.Lipo>
102.1071

> <Gold.Chemscore.Internal_Hbond>
0.0000

> <Gold.Chemscore.DEClash>
0.3748

> <Gold.Chemscore.DEInternal>
1.2249

> <Gold.Chemscore.Rot>
1.6576

> <Gold.Chemscore.Internal.Correction>
   9.000000E+99

> <Gold.Chemscore.Hbonds>
donor molecule, donor type, donor heavy atom, donor atom, acceptor molecule, acceptor atom, score
      P1  H  6896  6907       L1     7  0.97
      P1  H  6931  6943       L1     3  0.12
      P1  H  7997  8009       L1    11  0.13

> <Gold.Chemscore.Hbond.Weighted>
-8.0214

> <Gold.Chemscore.Metal.Weighted>
-0.0000

> <Gold.Chemscore.Lipo.Weighted>
-11.9465

> <Gold.Chemscore.Internal_Hbond.Weighted>
0.0000

> <Gold.Chemscore.DEClash.Weighted>
0.3748

> <Gold.Chemscore.DEInternal.Weighted>
1.2249

> <Gold.Chemscore.Rot.Weighted>
4.2436

> <Gold.Chemscore.Internal.Correction.Weighted>
   9.000000E+99

> <Gold.Protein.RotatedTorsions>
[ 6907 6896 6895 6894 ] final  -18.99 input  -60.11 | X-H torsion
[ 7974 7965 7964 7962 ] final    3.61 input  175.53 | X-H torsion
[ 8008 7997 7996 7995 ] final  159.78 input   59.86 | X-H torsion
[ 10167 10162 10161 10158 ] final  -44.22 input  -65.29 | X-H torsion
[ 10718 10713 10712 10709 ] final   22.20 input   66.30 | X-H torsion
[ 10763 10752 10751 10750 ] final    1.11 input  -60.55 | X-H torsion
[ 11005 11000 10999 10996 ] final   73.07 input  -57.11 | X-H torsion

> <Gold.Protein.ActiveResidues>
 VAL166  LYS551  ARG553  GLY616  TRP617  ASP618  TYR619  PRO620  LYS621  CYS622 
 ASP623  PHE694  ASN695  SER759  ASP760  ASP761  ALA762  ILE779  LEU786  VAL792 
 PHE793  MET794  SER795  GLU796  ALA797  LYS798  CYS799  TRP800  GLU811  SER814 

> <Gold.Protein.RotatedAtoms>
  151.2698  135.0681  159.9129 H   0  0  0  0  0  0  0  0  0  0  0  0  # atno 6907 bound_to 6896
  152.5352  134.0142  159.7963 H   0  0  0  0  0  0  0  0  0  0  0  0  # atno 6908 bound_to 6896
  151.0379  133.5682  159.2685 H   0  0  0  0  0  0  0  0  0  0  0  0  # atno 6909 bound_to 6896
  146.2445  140.0659  142.8365 H   0  0  0  0  0  0  0  0  0  0  0  0  # atno 7974 bound_to 7965
  156.2216  140.1822  156.7463 H   0  0  0  0  0  0  0  0  0  0  0  0  # atno 8008 bound_to 7997
  154.5874  140.0656  156.9220 H   0  0  0  0  0  0  0  0  0  0  0  0  # atno 8009 bound_to 7997
  155.2395  140.3321  155.4296 H   0  0  0  0  0  0  0  0  0  0  0  0  # atno 8010 bound_to 7997
  140.6905  143.2942  151.3464 H   0  0  0  0  0  0  0  0  0  0  0  0  # atno 10167 bound_to 10162
  157.1490  130.6666  149.6005 H   0  0  0  0  0  0  0  0  0  0  0  0  # atno 10718 bound_to 10713
  153.3121  135.6963  153.7106 H   0  0  0  0  0  0  0  0  0  0  0  0  # atno 10763 bound_to 10752
  153.5979  135.3467  155.2935 H   0  0  0  0  0  0  0  0  0  0  0  0  # atno 10764 bound_to 10752
  154.8577  135.4333  154.2262 H   0  0  0  0  0  0  0  0  0  0  0  0  # atno 10765 bound_to 10752
  139.9459  134.7315  156.0982 H   0  0  0  0  0  0  0  0  0  0  0  0  # atno 11005 bound_to 11000
  145.0858  140.9252  143.4798 LP  0  0  0  0  0  0  0  0  0  0  0  0  # atno 17320 bound_to 7965
  145.0822  139.2951  143.5778 LP  0  0  0  0  0  0  0  0  0  0  0  0  # atno 17321 bound_to 7965
  139.6303  144.0733  152.2470 LP  0  0  0  0  0  0  0  0  0  0  0  0  # atno 17342 bound_to 10162
  140.0206  144.6156  150.7570 LP  0  0  0  0  0  0  0  0  0  0  0  0  # atno 17343 bound_to 10162
  155.9774  130.4751  150.6590 LP  0  0  0  0  0  0  0  0  0  0  0  0  # atno 17370 bound_to 10713
  157.4238  131.0840  151.1106 LP  0  0  0  0  0  0  0  0  0  0  0  0  # atno 17371 bound_to 10713
  141.1109  133.6644  156.2975 LP  0  0  0  0  0  0  0  0  0  0  0  0  # atno 17394 bound_to 11000
  140.5837  134.5720  157.5485 LP  0  0  0  0  0  0  0  0  0  0  0  0  # atno 17395 bound_to 11000

$$$$
