AV-unprocessed.smi:1663|AV-procd|sdf|6665|dock2
  -GOLD-   22720 7373D 1   1.00000     0.00000
 Structure written by MMmdl.
 39 40  0  0  0  0  0  0  0  0  2 V2000
  148.4562  135.2694  154.9731 C   0  0  0  0  0  0  0  0  0  0  0  0
  148.6403  136.6691  154.5331 N   0  3  2  0  0  0  0  0  0  0  0  0
  149.8219  137.3089  155.1622 C   0  0  0  0  0  0  0  0  0  0  0  0
  150.0593  138.7172  154.5905 C   0  0  0  0  0  0  0  0  0  0  0  0
  148.8111  139.6082  154.7520 C   0  0  1  0  0  0  0  0  0  0  0  0
  148.9969  141.0146  154.1435 C   0  0  0  0  0  0  0  0  0  0  0  0
  149.4015  142.0120  155.1294 N   0  0  0  0  0  0  0  0  0  0  0  0
  150.2601  141.7946  156.1362 C   0  0  0  0  0  0  0  0  0  0  0  0
  150.8337  140.7200  156.3163 O   0  0  0  0  0  0  0  0  0  0  0  0
  150.4007  142.8914  156.9017 N   0  0  0  0  0  0  0  0  0  0  0  0
  151.1826  143.0483  158.0773 C   0  0  0  0  0  0  0  0  0  0  0  0
  151.3027  144.3771  158.5431 C   0  0  0  0  0  0  0  0  0  0  0  0
  152.0520  144.6385  159.7067 C   0  0  0  0  0  0  0  0  0  0  0  0
  152.6631  143.5630  160.3752 C   0  0  0  0  0  0  0  0  0  0  0  0
  152.4957  142.2709  159.8440 C   0  0  0  0  0  0  0  0  0  0  0  0
  151.7783  142.0182  158.7287 N   0  0  0  0  0  0  0  0  0  0  0  0
  147.5997  138.8944  154.1258 C   0  0  0  0  0  0  0  0  0  0  0  0
  147.4124  137.4833  154.7072 C   0  0  0  0  0  0  0  0  0  0  0  0
  148.2609  135.2178  156.0450 H   0  0  0  0  0  0  0  0  0  0  0  0
  149.3472  134.6786  154.7584 H   0  0  0  0  0  0  0  0  0  0  0  0
  147.6182  134.8076  154.4498 H   0  0  0  0  0  0  0  0  0  0  0  0
  149.6776  137.3618  156.2425 H   0  0  0  0  0  0  0  0  0  0  0  0
  150.7054  136.6931  154.9901 H   0  0  0  0  0  0  0  0  0  0  0  0
  150.9156  139.1672  155.0936 H   0  0  0  0  0  0  0  0  0  0  0  0
  150.3259  138.6422  153.5353 H   0  0  0  0  0  0  0  0  0  0  0  0
  148.6124  139.7219  155.8190 H   0  0  0  0  0  0  0  0  0  0  0  0
  149.7591  140.9854  153.3644 H   0  0  0  0  0  0  0  0  0  0  0  0
  148.0762  141.3406  153.6559 H   0  0  0  0  0  0  0  0  0  0  0  0
  148.9761  142.9245  155.0550 H   0  0  0  0  0  0  0  0  0  0  0  0
  149.8690  143.7032  156.6248 H   0  0  0  0  0  0  0  0  0  0  0  0
  150.8249  145.1917  158.0186 H   0  0  0  0  0  0  0  0  0  0  0  0
  152.1550  145.6468  160.0796 H   0  0  0  0  0  0  0  0  0  0  0  0
  153.2450  143.7233  161.2708 H   0  0  0  0  0  0  0  0  0  0  0  0
  152.9492  141.4182  160.3268 H   0  0  0  0  0  0  0  0  0  0  0  0
  146.6952  139.4802  154.2931 H   0  0  0  0  0  0  0  0  0  0  0  0
  147.7276  138.8282  153.0443 H   0  0  0  0  0  0  0  0  0  0  0  0
  146.5755  136.9934  154.2079 H   0  0  0  0  0  0  0  0  0  0  0  0
  147.1590  137.5436  155.7669 H   0  0  0  0  0  0  0  0  0  0  0  0
  148.8248  136.6345  153.5405 H   0  0  0  0  0  0  0  0  0  0  0  0
  1  2  1  0  0  0  0
  1 19  1  0  0  0  0
  1 20  1  0  0  0  0
  1 21  1  0  0  0  0
  2 18  1  0  0  0  0
  2  3  1  0  0  0  0
  2 39  1  0  0  0  0
  3  4  1  0  0  0  0
  3 22  1  0  0  0  0
  3 23  1  0  0  0  0
  4  5  1  0  0  0  0
  4 24  1  0  0  0  0
  4 25  1  0  0  0  0
  5  6  1  0  0  0  0
  5 17  1  0  0  0  0
  5 26  1  0  0  0  0
  6  7  1  0  0  0  0
  6 27  1  0  0  0  0
  6 28  1  0  0  0  0
  7  8  1  0  0  0  0
  7 29  1  0  0  0  0
  8  9  2  0  0  0  0
  8 10  1  0  0  0  0
 10 11  1  0  0  0  0
 10 30  1  0  0  0  0
 11 16  1  0  0  0  0
 11 12  2  0  0  0  0
 12 13  1  0  0  0  0
 12 31  1  0  0  0  0
 13 14  2  0  0  0  0
 13 32  1  0  0  0  0
 14 15  1  0  0  0  0
 14 33  1  0  0  0  0
 15 16  2  0  0  0  0
 15 34  1  0  0  0  0
 17 18  1  0  0  0  0
 17 35  1  0  0  0  0
 17 36  1  0  0  0  0
 18 37  1  0  0  0  0
 18 38  1  0  0  0  0
M  CHG  1   2   1
M  END
> <s_m_source_file>
AV-unprocessed.smi

> <i_m_source_file_index>
1663

> <i_lp_mmshare_version>
43012

> <i_f3d_flags>
0

> <s_epik_input>
W0NIM11OMVtDSDJdW0NIMl1bQ0hdKFtDSDJdW0NIMl0xKVtDSDJdW05IXUMoPU8pW05IXWMyW2NIXVtjSF1bY0hdW2NIXW4y

> <s_epik_cmdline>
J2VwaWtfcHl0aG9uJywgJy1waCcsICc3LjAnLCAnLXRuJywgJzgnLCAnLW1hJywgJzIwMCcsICctbWV0YWxfYmluZGluZycsICctaW1hZScsICc8aW5maWxlLm1hZT4nLCAnLW9tYWUnLCAnPG91dGZpbGUubWFlPic=

> <r_epik_Ionization_Penalty>
0.00110639

> <r_epik_Ionization_Penalty_Charging>
0.00106265

> <r_epik_Ionization_Penalty_Neutral>
4.37361e-05

> <r_epik_State_Penalty>
0.000695551

> <r_epik_Charging_Adjusted_Penalty>
0.0017582

> <i_epik_Tot_Q>
1

> <i_epik_Tot_abs_Q>
1

> <r_epik_Metal_State_Penalty>
-0

> <b_epik_Metal_Only>
0

> <s_lp_Force_Field>
OPLS_2005

> <r_lp_Energy>
18.6494

> <b_lp_Chiralities_Consistent>
1

> <s_lp_Variant>
AV-unprocessed.smi:1663-1

> <Gold.Version>
5.8.1

> <Gold.Id.Protein>
6NUR|6NUR_protein|mol2

> <Gold.PLP.Fitness>
46.4807

> <Gold.PLP.PLP>
-35.8599

> <Gold.PLP.part.hbond>
-3.0000

> <Gold.PLP.part.metal>
0.0000

> <Gold.PLP.part.buried>
-3.6847

> <Gold.PLP.part.nonpolar>
-29.3842

> <Gold.PLP.part.repulsive>
0.2584

> <Gold.PLP.ligand.clash>
0.0000

> <Gold.PLP.ligand.torsion>
0.6914

> <Gold.PLP.Chemscore.Hbond>
4.0000

> <Gold.PLP.Chemscore.CHOScore>
0.0000

> <Gold.PLP.Chemscore.Metal>
0.0000

> <Gold.Chemscore.Hbonds>
donor molecule, donor type, donor heavy atom, donor atom, acceptor molecule, acceptor atom, score
      L1  H     2    39       P1  7948  2.00
      L1  H     7    29       P1  8028  0.99
      L1  H    10    30       P1  8028  1.00

> <Gold.PLP.Chemscore.Internal.Correction>
0.0036

> <Gold.Rescore>
     Score         DG    S(hbond)    S(metal)    S(lipo)     H(rot)  DE(clash)    DE(int)     intcor
     18.47     -22.00       2.96        0.00      84.70       1.28       0.03       3.50       ----

> <Gold.Chemscore.Fitness>
18.4723

> <Gold.Chemscore.DG>
-22.0006

> <Gold.Chemscore.ZeroCoef>
-5.4800

> <Gold.Chemscore.Hbond>
2.9579

> <Gold.Chemscore.Metal>
0.0000

> <Gold.Chemscore.Lipo>
84.7028

> <Gold.Chemscore.Internal_Hbond>
0.0000

> <Gold.Chemscore.DEClash>
0.0292

> <Gold.Chemscore.DEInternal>
3.4991

> <Gold.Chemscore.Rot>
1.2770

> <Gold.Chemscore.Internal.Correction>
   9.000000E+99

> <Gold.Chemscore.Hbonds>
donor molecule, donor type, donor heavy atom, donor atom, acceptor molecule, acceptor atom, score
      L1  H     2    39       P1  7948  1.00
      L1  H     7    29       P1  8028  0.94
      L1  H    10    30       P1  8028  1.00

> <Gold.Chemscore.Hbond.Weighted>
-9.8795

> <Gold.Chemscore.Metal.Weighted>
-0.0000

> <Gold.Chemscore.Lipo.Weighted>
-9.9102

> <Gold.Chemscore.Internal_Hbond.Weighted>
0.0000

> <Gold.Chemscore.DEClash.Weighted>
0.0292

> <Gold.Chemscore.DEInternal.Weighted>
3.4991

> <Gold.Chemscore.Rot.Weighted>
3.2691

> <Gold.Chemscore.Internal.Correction.Weighted>
   9.000000E+99

> <Gold.Protein.RotatedTorsions>
[ 6907 6896 6895 6894 ] final  179.74 input  -60.11 | X-H torsion
[ 7974 7965 7964 7962 ] final  117.47 input  175.53 | X-H torsion
[ 8008 7997 7996 7995 ] final   81.40 input   59.86 | X-H torsion
[ 10167 10162 10161 10158 ] final   89.99 input  -65.29 | X-H torsion
[ 10718 10713 10712 10709 ] final   17.46 input   66.30 | X-H torsion
[ 10763 10752 10751 10750 ] final  160.00 input  -60.55 | X-H torsion
[ 11005 11000 10999 10996 ] final  165.61 input  -57.11 | X-H torsion

> <Gold.Protein.ActiveResidues>
 VAL166  LYS551  ARG553  GLY616  TRP617  ASP618  TYR619  PRO620  LYS621  CYS622 
 ASP623  PHE694  ASN695  SER759  ASP760  ASP761  ALA762  ILE779  LEU786  VAL792 
 PHE793  MET794  SER795  GLU796  ALA797  LYS798  CYS799  TRP800  GLU811  SER814 

> <Gold.Protein.RotatedAtoms>
  151.6668  133.3315  159.3186 H   0  0  0  0  0  0  0  0  0  0  0  0  # atno 6907 bound_to 6896
  150.7887  134.6897  159.6499 H   0  0  0  0  0  0  0  0  0  0  0  0  # atno 6908 bound_to 6896
  152.3962  134.6365  160.0140 H   0  0  0  0  0  0  0  0  0  0  0  0  # atno 6909 bound_to 6896
  145.1670  139.3123  143.4487 H   0  0  0  0  0  0  0  0  0  0  0  0  # atno 7974 bound_to 7965
  155.8966  140.3436  155.5995 H   0  0  0  0  0  0  0  0  0  0  0  0  # atno 8008 bound_to 7997
  155.7549  140.0825  157.2202 H   0  0  0  0  0  0  0  0  0  0  0  0  # atno 8009 bound_to 7997
  154.4039  140.1546  156.2754 H   0  0  0  0  0  0  0  0  0  0  0  0  # atno 8010 bound_to 7997
  139.8517  144.6590  150.9162 H   0  0  0  0  0  0  0  0  0  0  0  0  # atno 10167 bound_to 10162
  157.0825  130.6394  149.5830 H   0  0  0  0  0  0  0  0  0  0  0  0  # atno 10718 bound_to 10713
  154.2405  135.2775  155.2855 H   0  0  0  0  0  0  0  0  0  0  0  0  # atno 10763 bound_to 10752
  154.5549  135.5664  153.6958 H   0  0  0  0  0  0  0  0  0  0  0  0  # atno 10764 bound_to 10752
  153.0001  135.6283  154.2549 H   0  0  0  0  0  0  0  0  0  0  0  0  # atno 10765 bound_to 10752
  140.2579  134.7925  157.3563 H   0  0  0  0  0  0  0  0  0  0  0  0  # atno 11005 bound_to 11000
  146.3474  140.1802  142.8589 LP  0  0  0  0  0  0  0  0  0  0  0  0  # atno 17320 bound_to 7965
  145.0272  140.8841  143.5131 LP  0  0  0  0  0  0  0  0  0  0  0  0  # atno 17321 bound_to 7965
  140.7786  143.3821  151.1458 LP  0  0  0  0  0  0  0  0  0  0  0  0  # atno 17342 bound_to 10162
  139.7459  143.8853  152.3063 LP  0  0  0  0  0  0  0  0  0  0  0  0  # atno 17343 bound_to 10162
  155.9920  130.4976  150.7321 LP  0  0  0  0  0  0  0  0  0  0  0  0  # atno 17370 bound_to 10713
  157.4788  131.0900  151.0559 LP  0  0  0  0  0  0  0  0  0  0  0  0  # atno 17371 bound_to 10713
  140.1493  134.4870  155.7973 LP  0  0  0  0  0  0  0  0  0  0  0  0  # atno 17394 bound_to 11000
  141.2194  133.6856  156.7350 LP  0  0  0  0  0  0  0  0  0  0  0  0  # atno 17395 bound_to 11000

$$$$
