AV-unprocessed.smi:55|AV-procd|sdf|563|dock9
  -GOLD-   2262016463D 1   1.00000     0.00000
 Structure written by MMmdl.
 31 32  0  0  0  0  0  0  0  0  1 V2000
  152.8251  142.6392  159.6797 C   0  0  0  0  0  0  0  0  0  0  0  0
  152.1101  142.2226  158.4050 C   0  0  0  0  0  0  0  0  0  0  0  0
  152.2188  140.9736  157.8840 C   0  0  0  0  0  0  0  0  0  0  0  0
  151.5803  140.5582  156.7221 N   0  0  0  0  0  0  0  0  0  0  0  0
  151.8250  139.1805  156.1399 C   0  0  2  0  0  0  0  0  0  0  0  0
  152.2091  139.1826  154.6481 C   0  0  0  0  0  0  0  0  0  0  0  0
  151.0975  138.3691  153.9992 C   0  0  2  0  0  0  0  0  0  0  0  0
  150.1430  139.2128  153.3837 O   0  0  0  0  0  0  0  0  0  0  0  0
  150.5087  137.5764  155.1775 C   0  0  2  0  0  0  0  0  0  0  0  0
  149.0537  137.0953  155.0398 C   0  0  0  0  0  0  0  0  0  0  0  0
  148.9672  136.0594  154.0847 O   0  0  0  0  0  0  0  0  0  0  0  0
  150.6505  138.4480  156.2896 O   0  0  0  0  0  0  0  0  0  0  0  0
  150.8583  141.5092  155.9669 C   0  0  0  0  0  0  0  0  0  0  0  0
  150.3435  141.2565  154.8783 O   0  0  0  0  0  0  0  0  0  0  0  0
  150.7323  142.7876  156.5081 N   0  0  0  0  0  0  0  0  0  0  0  0
  151.2991  143.2229  157.7075 C   0  0  0  0  0  0  0  0  0  0  0  0
  151.1047  144.3760  158.0888 O   0  0  0  0  0  0  0  0  0  0  0  0
  152.6213  138.7168  156.7238 H   0  0  0  0  0  0  0  0  0  0  0  0
  151.4907  137.6999  153.2334 H   0  0  0  0  0  0  0  0  0  0  0  0
  151.1518  136.7158  155.3719 H   0  0  0  0  0  0  0  0  0  0  0  0
  150.1955  143.4609  155.9810 H   0  0  0  0  0  0  0  0  0  0  0  0
  153.3992  141.8177  160.1090 H   0  0  0  0  0  0  0  0  0  0  0  0
  152.1058  142.9719  160.4289 H   0  0  0  0  0  0  0  0  0  0  0  0
  153.5152  143.4594  159.4786 H   0  0  0  0  0  0  0  0  0  0  0  0
  152.8542  140.2741  158.4034 H   0  0  0  0  0  0  0  0  0  0  0  0
  152.3404  140.1821  154.2333 H   0  0  0  0  0  0  0  0  0  0  0  0
  153.1618  138.6609  154.5462 H   0  0  0  0  0  0  0  0  0  0  0  0
  150.2909  139.1991  152.4502 H   0  0  0  0  0  0  0  0  0  0  0  0
  148.6998  136.7097  155.9961 H   0  0  0  0  0  0  0  0  0  0  0  0
  148.3858  137.9107  154.7614 H   0  0  0  0  0  0  0  0  0  0  0  0
  149.4268  136.3314  153.3047 H   0  0  0  0  0  0  0  0  0  0  0  0
  1  2  1  0  0  0  0
  1 22  1  0  0  0  0
  1 23  1  0  0  0  0
  1 24  1  0  0  0  0
  2 16  1  0  0  0  0
  2  3  2  0  0  0  0
  3  4  1  0  0  0  0
  3 25  1  0  0  0  0
  4  5  1  0  0  0  0
  4 13  1  0  0  0  0
  5 18  1  0  0  0  0
  5 12  1  0  0  0  0
  5  6  1  0  0  0  0
  6  7  1  0  0  0  0
  6 26  1  0  0  0  0
  6 27  1  0  0  0  0
  7 19  1  0  0  0  0
  7  8  1  0  0  0  0
  7  9  1  0  0  0  0
  8 28  1  0  0  0  0
  9 20  1  0  0  0  0
  9 10  1  0  0  0  0
  9 12  1  0  0  0  0
 10 11  1  0  0  0  0
 10 29  1  0  0  0  0
 10 30  1  0  0  0  0
 11 31  1  0  0  0  0
 13 14  2  0  0  0  0
 13 15  1  0  0  0  0
 15 21  1  0  0  0  0
 15 16  1  0  0  0  0
 16 17  2  0  0  0  0
M  END
> <s_m_source_file>
AV-unprocessed.smi

> <i_m_source_file_index>
55

> <i_lp_mmshare_version>
43012

> <i_f3d_flags>
0

> <s_epik_input>
Tz1jMVtuSF1jKD1PKW4oW2NIXWMxW0NIM10pW0NAQEhdMltDSDJdW0NAQEhdKFtPSF0pW0NAQEhdKE8yKVtDSDJdW09IXQ==

> <s_epik_cmdline>
J2VwaWtfcHl0aG9uJywgJy1waCcsICc3LjAnLCAnLXRuJywgJzgnLCAnLW1hJywgJzIwMCcsICctbWV0YWxfYmluZGluZycsICctaW1hZScsICc8aW5maWxlLm1hZT4nLCAnLW9tYWUnLCAnPG91dGZpbGUubWFlPic=

> <r_lp_tautomer_probability>
0.999537

> <r_epik_Ionization_Penalty>
0.00121888

> <r_epik_Ionization_Penalty_Charging>
0.00121876

> <r_epik_Ionization_Penalty_Neutral>
1.19946e-07

> <r_epik_State_Penalty>
0.000805124

> <r_epik_Charging_Adjusted_Penalty>
0.00202389

> <i_epik_Tot_Q>
0

> <i_epik_Tot_abs_Q>
0

> <r_epik_Metal_State_Penalty>
0.662472

> <b_epik_Metal_Only>
0

> <s_epik_Chemistry_Notes>
This compound contains an acetal/aminal-like group ( X-CH(R)-Y where X, Y are N, S, or O) that may be acid/base labile, releasing an aldehyde.

> <s_lp_Force_Field>
OPLS_2005

> <r_lp_Energy>
26.1821

> <b_lp_Chiralities_Consistent>
1

> <s_lp_Variant>
AV-unprocessed.smi:55-3

> <Gold.Version>
5.8.1

> <Gold.Id.Protein>
6NUR|6NUR_protein|mol2

> <Gold.PLP.Fitness>
40.2233

> <Gold.PLP.PLP>
-30.7810

> <Gold.PLP.part.hbond>
-4.0282

> <Gold.PLP.part.metal>
0.0000

> <Gold.PLP.part.buried>
-4.5748

> <Gold.PLP.part.nonpolar>
-21.8056

> <Gold.PLP.part.repulsive>
0.3538

> <Gold.PLP.ligand.clash>
0.0000

> <Gold.PLP.ligand.torsion>
0.3690

> <Gold.PLP.Chemscore.Hbond>
3.3600

> <Gold.PLP.Chemscore.CHOScore>
0.0000

> <Gold.PLP.Chemscore.Metal>
0.0000

> <Gold.Chemscore.Hbonds>
donor molecule, donor type, donor heavy atom, donor atom, acceptor molecule, acceptor atom, score
      L1  H     8    28       P1  7957  0.70
      L1  H    11    31       P1  7948  0.54
      L1  H    15    21       P1  8028  1.00
      P1  H  7989  7998       L1    14  0.56

> <Gold.PLP.Chemscore.Internal.Correction>
0.1003

> <Gold.Rescore>
     Score         DG    S(hbond)    S(metal)    S(lipo)     H(rot)  DE(clash)    DE(int)     intcor
     10.50     -13.79       2.92        0.00      47.32       2.73       0.00       3.29       ----

> <Gold.Chemscore.Fitness>
10.5044

> <Gold.Chemscore.DG>
-13.7924

> <Gold.Chemscore.ZeroCoef>
-5.4800

> <Gold.Chemscore.Hbond>
2.9201

> <Gold.Chemscore.Metal>
0.0000

> <Gold.Chemscore.Lipo>
47.3174

> <Gold.Chemscore.Internal_Hbond>
0.0000

> <Gold.Chemscore.DEClash>
0.0021

> <Gold.Chemscore.DEInternal>
3.2858

> <Gold.Chemscore.Rot>
2.7253

> <Gold.Chemscore.Internal.Correction>
   9.000000E+99

> <Gold.Chemscore.Hbonds>
donor molecule, donor type, donor heavy atom, donor atom, acceptor molecule, acceptor atom, score
      L1  H     8    28       P1  7957  0.28
      L1  H    11    31       P1  7948  0.33
      L1  H    15    21       P1  8028  0.99
      P1  H  7989  7998       L1    14  0.48

> <Gold.Chemscore.Hbond.Weighted>
-9.7531

> <Gold.Chemscore.Metal.Weighted>
-0.0000

> <Gold.Chemscore.Lipo.Weighted>
-5.5361

> <Gold.Chemscore.Internal_Hbond.Weighted>
0.0000

> <Gold.Chemscore.DEClash.Weighted>
0.0021

> <Gold.Chemscore.DEInternal.Weighted>
3.2858

> <Gold.Chemscore.Rot.Weighted>
6.9769

> <Gold.Chemscore.Internal.Correction.Weighted>
   9.000000E+99

> <Gold.Protein.RotatedTorsions>
[ 6907 6896 6895 6894 ] final  129.45 input  -60.11 | X-H torsion
[ 7974 7965 7964 7962 ] final   73.26 input  175.53 | X-H torsion
[ 8008 7997 7996 7995 ] final   43.72 input   59.86 | X-H torsion
[ 10167 10162 10161 10158 ] final -160.10 input  -65.29 | X-H torsion
[ 10718 10713 10712 10709 ] final   37.70 input   66.30 | X-H torsion
[ 10763 10752 10751 10750 ] final  112.33 input  -60.55 | X-H torsion
[ 11005 11000 10999 10996 ] final   23.74 input  -57.11 | X-H torsion

> <Gold.Protein.ActiveResidues>
 VAL166  LYS551  ARG553  GLY616  TRP617  ASP618  TYR619  PRO620  LYS621  CYS622 
 ASP623  PHE694  ASN695  SER759  ASP760  ASP761  ALA762  ILE779  LEU786  VAL792 
 PHE793  MET794  SER795  GLU796  ALA797  LYS798  CYS799  TRP800  GLU811  SER814 

> <Gold.Protein.RotatedAtoms>
  152.3622  133.6311  159.6023 H   0  0  0  0  0  0  0  0  0  0  0  0  # atno 6907 bound_to 6896
  150.7609  133.9405  159.3463 H   0  0  0  0  0  0  0  0  0  0  0  0  # atno 6908 bound_to 6896
  151.7241  135.0889  160.0340 H   0  0  0  0  0  0  0  0  0  0  0  0  # atno 6909 bound_to 6896
  145.7431  139.2729  143.1475 H   0  0  0  0  0  0  0  0  0  0  0  0  # atno 7974 bound_to 7965
  155.3075  140.3389  155.4245 H   0  0  0  0  0  0  0  0  0  0  0  0  # atno 8008 bound_to 7997
  156.1972  140.1719  156.8013 H   0  0  0  0  0  0  0  0  0  0  0  0  # atno 8009 bound_to 7997
  154.5513  140.0705  156.8656 H   0  0  0  0  0  0  0  0  0  0  0  0  # atno 8010 bound_to 7997
  139.6564  143.9990  152.2197 H   0  0  0  0  0  0  0  0  0  0  0  0  # atno 10167 bound_to 10162
  157.3500  130.7593  149.6972 H   0  0  0  0  0  0  0  0  0  0  0  0  # atno 10718 bound_to 10713
  153.4763  135.3689  155.2418 H   0  0  0  0  0  0  0  0  0  0  0  0  # atno 10763 bound_to 10752
  154.8756  135.3943  154.3752 H   0  0  0  0  0  0  0  0  0  0  0  0  # atno 10764 bound_to 10752
  153.4349  135.7083  153.6272 H   0  0  0  0  0  0  0  0  0  0  0  0  # atno 10765 bound_to 10752
  140.3663  134.2070  155.7669 H   0  0  0  0  0  0  0  0  0  0  0  0  # atno 11005 bound_to 11000
  146.0429  140.8147  142.9820 LP  0  0  0  0  0  0  0  0  0  0  0  0  # atno 17320 bound_to 7965
  144.6866  140.2937  143.7274 LP  0  0  0  0  0  0  0  0  0  0  0  0  # atno 17321 bound_to 7965
  139.9718  144.6488  150.7982 LP  0  0  0  0  0  0  0  0  0  0  0  0  # atno 17342 bound_to 10162
  140.7561  143.3059  151.2963 LP  0  0  0  0  0  0  0  0  0  0  0  0  # atno 17343 bound_to 10162
  155.9720  130.4143  150.4126 LP  0  0  0  0  0  0  0  0  0  0  0  0  # atno 17370 bound_to 10713
  157.2187  131.0477  151.2558 LP  0  0  0  0  0  0  0  0  0  0  0  0  # atno 17371 bound_to 10713
  141.1968  133.8073  157.0654 LP  0  0  0  0  0  0  0  0  0  0  0  0  # atno 17394 bound_to 11000
  140.0586  134.9767  157.1265 LP  0  0  0  0  0  0  0  0  0  0  0  0  # atno 17395 bound_to 11000

$$$$
