AV-unprocessed.smi:2734|AV-procd|sdf|10537|dock9
  -GOLD-   2272014583D 1   1.00000     0.00000
 Structure written by MMmdl.
 40 42  0  0  0  0  0  0  0  0  1 V2000
  152.8862  143.1707  161.6338 C   0  0  0  0  0  0  0  0  0  0  0  0
  152.3563  142.7585  160.2717 C   0  0  0  0  0  0  0  0  0  0  0  0
  152.8013  141.5452  159.6999 C   0  0  0  0  0  0  0  0  0  0  0  0
  152.3316  141.1249  158.4362 C   0  0  0  0  0  0  0  0  0  0  0  0
  152.6271  139.9913  157.6987 N   0  0  0  0  0  0  0  0  0  0  0  0
  151.8760  140.1730  156.6160 C   0  0  0  0  0  0  0  0  0  0  0  0
  151.1287  141.2925  156.5650 N   0  0  0  0  0  0  0  0  0  0  0  0
  150.2385  141.7068  155.4954 C   0  0  0  0  0  0  0  0  0  0  0  0
  149.7102  140.5151  154.6747 C   0  0  2  0  0  0  0  0  0  0  0  0
  149.0612  140.9930  153.5119 O   0  0  0  0  0  0  0  0  0  0  0  0
  148.7296  139.6513  155.4836 C   0  0  0  0  0  0  0  0  0  0  0  0
  148.4075  138.0499  154.6823 S   0  0  0  0  0  0  0  0  0  0  0  0
  149.6858  137.0802  155.4211 C   0  0  0  0  0  0  0  0  0  0  0  0
  149.5300  136.1169  156.3224 N   0  0  0  0  0  0  0  0  0  0  0  0
  150.8173  135.6813  156.5727 N   0  0  0  0  0  0  0  0  0  0  0  0
  151.6852  136.3446  155.8658 N   0  0  0  0  0  0  0  0  0  0  0  0
  150.9825  137.2377  155.1277 N   0  0  0  0  0  0  0  0  0  0  0  0
  151.6502  138.1477  154.2184 C   0  0  0  0  0  0  0  0  0  0  0  0
  151.3984  141.9592  157.7545 C   0  0  0  0  0  0  0  0  0  0  0  0
  150.9485  143.1688  158.3123 C   0  0  0  0  0  0  0  0  0  0  0  0
  151.4264  143.5729  159.5765 C   0  0  0  0  0  0  0  0  0  0  0  0
  150.9320  144.8792  160.1723 C   0  0  0  0  0  0  0  0  0  0  0  0
  153.6009  142.4435  162.0202 H   0  0  0  0  0  0  0  0  0  0  0  0
  152.0700  143.2517  162.3521 H   0  0  0  0  0  0  0  0  0  0  0  0
  153.3913  144.1348  161.5722 H   0  0  0  0  0  0  0  0  0  0  0  0
  153.5090  140.9242  160.2291 H   0  0  0  0  0  0  0  0  0  0  0  0
  151.8664  139.4495  155.8137 H   0  0  0  0  0  0  0  0  0  0  0  0
  149.4081  142.2557  155.9410 H   0  0  0  0  0  0  0  0  0  0  0  0
  150.7677  142.4107  154.8512 H   0  0  0  0  0  0  0  0  0  0  0  0
  150.5528  139.8971  154.3616 H   0  0  0  0  0  0  0  0  0  0  0  0
  148.9955  140.2819  152.8926 H   0  0  0  0  0  0  0  0  0  0  0  0
  149.1442  139.4601  156.4741 H   0  0  0  0  0  0  0  0  0  0  0  0
  147.7871  140.1819  155.6259 H   0  0  0  0  0  0  0  0  0  0  0  0
  151.5113  139.1733  154.5603 H   0  0  0  0  0  0  0  0  0  0  0  0
  151.2278  138.0438  153.2187 H   0  0  0  0  0  0  0  0  0  0  0  0
  152.7181  137.9305  154.1745 H   0  0  0  0  0  0  0  0  0  0  0  0
  150.2401  143.7785  157.7713 H   0  0  0  0  0  0  0  0  0  0  0  0
  150.2148  145.3705  159.5142 H   0  0  0  0  0  0  0  0  0  0  0  0
  151.7640  145.5652  160.3322 H   0  0  0  0  0  0  0  0  0  0  0  0
  150.4403  144.7008  161.1288 H   0  0  0  0  0  0  0  0  0  0  0  0
  1  2  1  0  0  0  0
  1 23  1  0  0  0  0
  1 24  1  0  0  0  0
  1 25  1  0  0  0  0
  2 21  1  0  0  0  0
  2  3  2  0  0  0  0
  3  4  1  0  0  0  0
  3 26  1  0  0  0  0
  4 19  2  0  0  0  0
  4  5  1  0  0  0  0
  5  6  2  0  0  0  0
  6  7  1  0  0  0  0
  6 27  1  0  0  0  0
  7  8  1  0  0  0  0
  7 19  1  0  0  0  0
  8  9  1  0  0  0  0
  8 28  1  0  0  0  0
  8 29  1  0  0  0  0
  9 10  1  0  0  0  0
  9 11  1  0  0  0  0
  9 30  1  0  0  0  0
 10 31  1  0  0  0  0
 11 12  1  0  0  0  0
 11 32  1  0  0  0  0
 11 33  1  0  0  0  0
 12 13  1  0  0  0  0
 13 17  1  0  0  0  0
 13 14  2  0  0  0  0
 14 15  1  0  0  0  0
 15 16  2  0  0  0  0
 16 17  1  0  0  0  0
 17 18  1  0  0  0  0
 18 34  1  0  0  0  0
 18 35  1  0  0  0  0
 18 36  1  0  0  0  0
 19 20  1  0  0  0  0
 20 21  2  0  0  0  0
 20 37  1  0  0  0  0
 21 22  1  0  0  0  0
 22 38  1  0  0  0  0
 22 39  1  0  0  0  0
 22 40  1  0  0  0  0
M  END
> <s_m_source_file>
AV-unprocessed.smi

> <i_m_source_file_index>
2734

> <i_lp_mmshare_version>
43012

> <i_f3d_flags>
0

> <s_epik_input>
W0NIM11jKFtjSF0xKWMoW0NIM10pW2NIXWMoYzEyKW4oW2NIXW4yKVtDSDJdW0NASF0oW09IXSlbQ0gyXVNjM25ubm4zW0NIM10=

> <s_epik_cmdline>
J2VwaWtfcHl0aG9uJywgJy1waCcsICc3LjAnLCAnLXRuJywgJzgnLCAnLW1hJywgJzIwMCcsICctbWV0YWxfYmluZGluZycsICctaW1hZScsICc8aW5maWxlLm1hZT4nLCAnLW9tYWUnLCAnPG91dGZpbGUubWFlPic=

> <r_lp_tautomer_probability>
1

> <r_epik_Ionization_Penalty>
0.105517

> <r_epik_Ionization_Penalty_Charging>
0

> <r_epik_Ionization_Penalty_Neutral>
0.105517

> <r_epik_State_Penalty>
0.0953887

> <r_epik_Charging_Adjusted_Penalty>
0.0953887

> <i_epik_Tot_Q>
0

> <i_epik_Tot_abs_Q>
0

> <r_epik_Metal_State_Penalty>
0.0808533

> <b_epik_Metal_Only>
0

> <s_lp_Force_Field>
OPLS_2005

> <r_lp_Energy>
9.5145

> <b_lp_Chiralities_Consistent>
1

> <s_lp_Variant>
AV-unprocessed.smi:2734-1

> <Gold.Version>
5.8.1

> <Gold.Id.Protein>
6NUR|6NUR_protein|mol2

> <Gold.PLP.Fitness>
52.5474

> <Gold.PLP.PLP>
-43.0328

> <Gold.PLP.part.hbond>
-4.8603

> <Gold.PLP.part.metal>
0.0000

> <Gold.PLP.part.buried>
-5.6752

> <Gold.PLP.part.nonpolar>
-32.4000

> <Gold.PLP.part.repulsive>
0.0663

> <Gold.PLP.ligand.clash>
0.0000

> <Gold.PLP.ligand.torsion>
0.7862

> <Gold.PLP.Chemscore.Hbond>
3.6880

> <Gold.PLP.Chemscore.CHOScore>
0.0000

> <Gold.PLP.Chemscore.Metal>
0.0000

> <Gold.Chemscore.Hbonds>
donor molecule, donor type, donor heavy atom, donor atom, acceptor molecule, acceptor atom, score
      L1  H    10    31       P1  7957  0.67
      P1  H  7997  8008       L1     5  0.95
      P1  H  8011  8017       L1    10  1.00
      P1  H 10752 10763       L1    16  1.00

> <Gold.PLP.Chemscore.Internal.Correction>
0.0231

> <Gold.Rescore>
     Score         DG    S(hbond)    S(metal)    S(lipo)     H(rot)  DE(clash)    DE(int)     intcor
     17.76     -19.21       2.45        0.00     109.69       2.85       0.62       0.83       ----

> <Gold.Chemscore.Fitness>
17.7640

> <Gold.Chemscore.DG>
-19.2139

> <Gold.Chemscore.ZeroCoef>
-5.4800

> <Gold.Chemscore.Hbond>
2.4503

> <Gold.Chemscore.Metal>
0.0000

> <Gold.Chemscore.Lipo>
109.6892

> <Gold.Chemscore.Internal_Hbond>
0.0000

> <Gold.Chemscore.DEClash>
0.6164

> <Gold.Chemscore.DEInternal>
0.8334

> <Gold.Chemscore.Rot>
2.8452

> <Gold.Chemscore.Internal.Correction>
   9.000000E+99

> <Gold.Chemscore.Hbonds>
donor molecule, donor type, donor heavy atom, donor atom, acceptor molecule, acceptor atom, score
      L1  H    10    31       P1  7957  0.66
      P1  H  7997  8008       L1     5  0.17
      P1  H  8011  8017       L1    10  0.24
      P1  H 10752 10763       L1    16  0.93

> <Gold.Chemscore.Hbond.Weighted>
-8.1839

> <Gold.Chemscore.Metal.Weighted>
-0.0000

> <Gold.Chemscore.Lipo.Weighted>
-12.8336

> <Gold.Chemscore.Internal_Hbond.Weighted>
0.0000

> <Gold.Chemscore.DEClash.Weighted>
0.6164

> <Gold.Chemscore.DEInternal.Weighted>
0.8334

> <Gold.Chemscore.Rot.Weighted>
7.2837

> <Gold.Chemscore.Internal.Correction.Weighted>
   9.000000E+99

> <Gold.Protein.RotatedTorsions>
[ 6907 6896 6895 6894 ] final   23.76 input  -60.11 | X-H torsion
[ 7974 7965 7964 7962 ] final   54.35 input  175.53 | X-H torsion
[ 8008 7997 7996 7995 ] final  -72.52 input   59.86 | X-H torsion
[ 10167 10162 10161 10158 ] final  116.24 input  -65.29 | X-H torsion
[ 10718 10713 10712 10709 ] final  113.51 input   66.30 | X-H torsion
[ 10763 10752 10751 10750 ] final   87.79 input  -60.55 | X-H torsion
[ 11005 11000 10999 10996 ] final  -30.17 input  -57.11 | X-H torsion

> <Gold.Protein.ActiveResidues>
 VAL166  LYS551  ARG553  GLY616  TRP617  ASP618  TYR619  PRO620  LYS621  CYS622 
 ASP623  PHE694  ASN695  SER759  ASP760  ASP761  ALA762  ILE779  LEU786  VAL792 
 PHE793  MET794  SER795  GLU796  ALA797  LYS798  CYS799  TRP800  GLU811  SER814 

> <Gold.Protein.RotatedAtoms>
  151.9472  135.0186  160.0539 H   0  0  0  0  0  0  0  0  0  0  0  0  # atno 6907 bound_to 6896
  152.1985  133.4819  159.5054 H   0  0  0  0  0  0  0  0  0  0  0  0  # atno 6908 bound_to 6896
  150.6949  134.1538  159.4193 H   0  0  0  0  0  0  0  0  0  0  0  0  # atno 6909 bound_to 6896
  145.9617  139.4065  143.0244 H   0  0  0  0  0  0  0  0  0  0  0  0  # atno 7974 bound_to 7965
  154.5173  140.0795  156.8105 H   0  0  0  0  0  0  0  0  0  0  0  0  # atno 8008 bound_to 7997
  155.3652  140.3420  155.4223 H   0  0  0  0  0  0  0  0  0  0  0  0  # atno 8009 bound_to 7997
  156.1642  140.1598  156.8547 H   0  0  0  0  0  0  0  0  0  0  0  0  # atno 8010 bound_to 7997
  139.6261  144.7108  151.2531 H   0  0  0  0  0  0  0  0  0  0  0  0  # atno 10167 bound_to 10162
  157.6334  131.0984  150.7051 H   0  0  0  0  0  0  0  0  0  0  0  0  # atno 10718 bound_to 10713
  153.1703  135.4531  154.9893 H   0  0  0  0  0  0  0  0  0  0  0  0  # atno 10763 bound_to 10752
  154.7961  135.3238  154.7665 H   0  0  0  0  0  0  0  0  0  0  0  0  # atno 10764 bound_to 10752
  153.8142  135.6952  153.4891 H   0  0  0  0  0  0  0  0  0  0  0  0  # atno 10765 bound_to 10752
  140.9360  133.7308  156.1005 H   0  0  0  0  0  0  0  0  0  0  0  0  # atno 11005 bound_to 11000
  145.8030  140.9762  143.0989 LP  0  0  0  0  0  0  0  0  0  0  0  0  # atno 17320 bound_to 7965
  144.6816  139.9825  143.7483 LP  0  0  0  0  0  0  0  0  0  0  0  0  # atno 17321 bound_to 7965
  140.7411  143.6566  150.8201 LP  0  0  0  0  0  0  0  0  0  0  0  0  # atno 17342 bound_to 10162
  140.0184  143.5568  152.2810 LP  0  0  0  0  0  0  0  0  0  0  0  0  # atno 17343 bound_to 10162
  156.7387  130.4732  149.5482 LP  0  0  0  0  0  0  0  0  0  0  0  0  # atno 17370 bound_to 10713
  156.1554  130.6338  151.0650 LP  0  0  0  0  0  0  0  0  0  0  0  0  # atno 17371 bound_to 10713
  140.7799  134.3737  157.5489 LP  0  0  0  0  0  0  0  0  0  0  0  0  # atno 17394 bound_to 11000
  139.8808  134.9075  156.2946 LP  0  0  0  0  0  0  0  0  0  0  0  0  # atno 17395 bound_to 11000

$$$$
