AV-unprocessed.smi:2358|AV-procd|sdf|9404|dock1
  -GOLD-   2272013 33D 1   1.00000     0.00000
 Structure written by MMmdl.
 45 47  0  0  0  0  0  0  0  0  1 V2000
  151.4891  145.3127  158.8568 C   0  0  0  0  0  0  0  0  0  0  0  0
  151.8670  143.8458  158.8352 C   0  0  0  0  0  0  0  0  0  0  0  0
  152.7352  143.3215  159.8133 C   0  0  0  0  0  0  0  0  0  0  0  0
  153.0820  141.9567  159.7907 C   0  0  0  0  0  0  0  0  0  0  0  0
  154.0111  141.3976  160.8481 C   0  0  0  0  0  0  0  0  0  0  0  0
  152.5581  141.1183  158.7856 C   0  0  0  0  0  0  0  0  0  0  0  0
  151.6910  141.6274  157.7974 C   0  0  0  0  0  0  0  0  0  0  0  0
  151.2293  140.7354  156.8533 O   0  0  0  0  0  0  0  0  0  0  0  0
  150.4513  141.2367  155.7742 C   0  0  0  0  0  0  0  0  0  0  0  0
  150.2273  140.1052  154.7556 C   0  0  1  0  0  0  0  0  0  0  0  0
  149.7509  140.7097  153.5692 O   0  0  0  0  0  0  0  0  0  0  0  0
  151.5383  139.3587  154.4203 C   0  0  0  0  0  0  0  0  0  0  0  0
  151.7352  138.1866  155.2823 N   0  0  0  0  0  0  0  0  0  0  0  0
  151.0128  137.0717  154.8913 N   0  0  0  0  0  0  0  0  0  0  0  0
  151.0982  135.9631  155.5531 C   0  0  0  0  0  0  0  0  0  0  0  0
  150.3729  134.7600  155.1976 N   0  0  0  0  0  0  0  0  0  0  0  0
  150.7829  133.5323  155.7136 C   0  0  0  0  0  0  0  0  0  0  0  0
  149.9104  132.5974  155.2022 C   0  0  0  0  0  0  0  0  0  0  0  0
  148.9710  133.2216  154.3818 N   0  0  0  0  0  0  0  0  0  0  0  0
  149.3063  134.5051  154.4260 C   0  0  0  0  0  0  0  0  0  0  0  0
  151.9574  135.8780  156.7217 C   0  0  0  0  0  0  0  0  0  0  0  0
  152.6616  136.9693  157.0923 C   0  0  0  0  0  0  0  0  0  0  0  0
  152.5829  138.2283  156.3524 C   0  0  0  0  0  0  0  0  0  0  0  0
  153.2249  139.2316  156.6611 O   0  0  0  0  0  0  0  0  0  0  0  0
  151.3492  143.0030  157.8305 C   0  0  0  0  0  0  0  0  0  0  0  0
  151.7590  145.7779  159.8054 H   0  0  0  0  0  0  0  0  0  0  0  0
  150.4143  145.4311  158.7164 H   0  0  0  0  0  0  0  0  0  0  0  0
  152.0013  145.8453  158.0556 H   0  0  0  0  0  0  0  0  0  0  0  0
  153.1359  143.9645  160.5836 H   0  0  0  0  0  0  0  0  0  0  0  0
  154.3267  140.3831  160.6033 H   0  0  0  0  0  0  0  0  0  0  0  0
  153.5089  141.3758  161.8155 H   0  0  0  0  0  0  0  0  0  0  0  0
  154.9031  142.0181  160.9374 H   0  0  0  0  0  0  0  0  0  0  0  0
  152.8220  140.0708  158.7681 H   0  0  0  0  0  0  0  0  0  0  0  0
  149.4995  141.6473  156.1165 H   0  0  0  0  0  0  0  0  0  0  0  0
  151.0129  142.0451  155.3037 H   0  0  0  0  0  0  0  0  0  0  0  0
  149.4853  139.4067  155.1455 H   0  0  0  0  0  0  0  0  0  0  0  0
  149.6260  140.0363  152.9177 H   0  0  0  0  0  0  0  0  0  0  0  0
  151.5878  139.1017  153.3602 H   0  0  0  0  0  0  0  0  0  0  0  0
  152.3875  140.0256  154.5793 H   0  0  0  0  0  0  0  0  0  0  0  0
  151.6264  133.4104  156.3781 H   0  0  0  0  0  0  0  0  0  0  0  0
  149.8867  131.5293  155.3609 H   0  0  0  0  0  0  0  0  0  0  0  0
  148.7602  135.2632  153.8845 H   0  0  0  0  0  0  0  0  0  0  0  0
  152.0380  134.9633  157.2888 H   0  0  0  0  0  0  0  0  0  0  0  0
  153.3029  136.9126  157.9598 H   0  0  0  0  0  0  0  0  0  0  0  0
  150.6889  143.4352  157.0941 H   0  0  0  0  0  0  0  0  0  0  0  0
  1  2  1  0  0  0  0
  1 26  1  0  0  0  0
  1 27  1  0  0  0  0
  1 28  1  0  0  0  0
  2 25  1  0  0  0  0
  2  3  2  0  0  0  0
  3  4  1  0  0  0  0
  3 29  1  0  0  0  0
  4  5  1  0  0  0  0
  4  6  2  0  0  0  0
  5 30  1  0  0  0  0
  5 31  1  0  0  0  0
  5 32  1  0  0  0  0
  6  7  1  0  0  0  0
  6 33  1  0  0  0  0
  7  8  1  0  0  0  0
  7 25  2  0  0  0  0
  8  9  1  0  0  0  0
  9 10  1  0  0  0  0
  9 34  1  0  0  0  0
  9 35  1  0  0  0  0
 10 11  1  0  0  0  0
 10 12  1  0  0  0  0
 10 36  1  0  0  0  0
 11 37  1  0  0  0  0
 12 13  1  0  0  0  0
 12 38  1  0  0  0  0
 12 39  1  0  0  0  0
 13 23  1  0  0  0  0
 13 14  1  0  0  0  0
 14 15  2  0  0  0  0
 15 16  1  0  0  0  0
 15 21  1  0  0  0  0
 16 20  1  0  0  0  0
 16 17  1  0  0  0  0
 17 18  2  0  0  0  0
 17 40  1  0  0  0  0
 18 19  1  0  0  0  0
 18 41  1  0  0  0  0
 19 20  2  0  0  0  0
 20 42  1  0  0  0  0
 21 22  2  0  0  0  0
 21 43  1  0  0  0  0
 22 23  1  0  0  0  0
 22 44  1  0  0  0  0
 23 24  2  0  0  0  0
 25 45  1  0  0  0  0
M  END
> <s_m_source_file>
AV-unprocessed.smi

> <i_m_source_file_index>
2358

> <i_lp_mmshare_version>
43012

> <i_f3d_flags>
0

> <s_epik_input>
W0NIM11jMVtjSF1jKFtDSDNdKVtjSF1jKFtjSF0xKU9bQ0gyXVtDQEhdKFtPSF0pW0NIMl1uMm5jKFtjSF1bY0hdYzI9TyktbjNbY0hdW2NIXW5bY0hdMw==

> <s_epik_cmdline>
J2VwaWtfcHl0aG9uJywgJy1waCcsICc3LjAnLCAnLXRuJywgJzgnLCAnLW1hJywgJzIwMCcsICctbWV0YWxfYmluZGluZycsICctaW1hZScsICc8aW5maWxlLm1hZT4nLCAnLW9tYWUnLCAnPG91dGZpbGUubWFlPic=

> <r_lp_tautomer_probability>
1

> <r_epik_Ionization_Penalty>
0.03707

> <r_epik_Ionization_Penalty_Charging>
0.0370699

> <r_epik_Ionization_Penalty_Neutral>
1.17174e-07

> <r_epik_State_Penalty>
0.0310055

> <r_epik_Charging_Adjusted_Penalty>
0.0680754

> <i_epik_Tot_Q>
0

> <i_epik_Tot_abs_Q>
0

> <r_epik_Metal_State_Penalty>
0.0291724

> <b_epik_Metal_Only>
0

> <s_lp_Force_Field>
OPLS_2005

> <r_lp_Energy>
35.3101

> <b_lp_Chiralities_Consistent>
1

> <s_lp_Variant>
AV-unprocessed.smi:2358-2

> <Gold.Version>
5.8.1

> <Gold.Id.Protein>
6NUR|6NUR_protein|mol2

> <Gold.PLP.Fitness>
58.7130

> <Gold.PLP.PLP>
-49.9488

> <Gold.PLP.part.hbond>
-3.8160

> <Gold.PLP.part.metal>
0.0000

> <Gold.PLP.part.buried>
-0.1966

> <Gold.PLP.part.nonpolar>
-43.7557

> <Gold.PLP.part.repulsive>
0.2396

> <Gold.PLP.ligand.clash>
0.0000

> <Gold.PLP.ligand.torsion>
0.9496

> <Gold.PLP.Chemscore.Hbond>
2.5008

> <Gold.PLP.Chemscore.CHOScore>
1.0000

> <Gold.PLP.Chemscore.Metal>
0.0000

> <Gold.Chemscore.Hbonds>
donor molecule, donor type, donor heavy atom, donor atom, acceptor molecule, acceptor atom, score
      L1  H    11    37       P1  7957  0.67
      P1  H  7997  8008       L1    24  0.78
      P1  H  8011  8017       L1    11  0.81
      L1  C    20    42       P1  7948  1.00

> <Gold.PLP.Chemscore.Internal.Correction>
0.1612

> <Gold.Rescore>
     Score         DG    S(hbond)    S(metal)    S(lipo)     H(rot)  DE(clash)    DE(int)     intcor
     17.72     -19.00       1.69        0.00     124.09       2.60       0.53       0.75       ----

> <Gold.Chemscore.Fitness>
17.7197

> <Gold.Chemscore.DG>
-18.9987

> <Gold.Chemscore.ZeroCoef>
-5.4800

> <Gold.Chemscore.Hbond>
1.6923

> <Gold.Chemscore.Metal>
0.0000

> <Gold.Chemscore.Lipo>
124.0910

> <Gold.Chemscore.Internal_Hbond>
0.0000

> <Gold.Chemscore.DEClash>
0.5302

> <Gold.Chemscore.DEInternal>
0.7488

> <Gold.Chemscore.Rot>
2.5986

> <Gold.Chemscore.Internal.Correction>
   9.000000E+99

> <Gold.Chemscore.Hbonds>
donor molecule, donor type, donor heavy atom, donor atom, acceptor molecule, acceptor atom, score
      L1  H    11    37       P1  7957  0.66
      P1  H  7997  8008       L1    24  0.78
      P1  H  8011  8017       L1    11  0.20

> <Gold.Chemscore.Hbond.Weighted>
-5.6524

> <Gold.Chemscore.Metal.Weighted>
-0.0000

> <Gold.Chemscore.Lipo.Weighted>
-14.5186

> <Gold.Chemscore.Internal_Hbond.Weighted>
0.0000

> <Gold.Chemscore.DEClash.Weighted>
0.5302

> <Gold.Chemscore.DEInternal.Weighted>
0.7488

> <Gold.Chemscore.Rot.Weighted>
6.6524

> <Gold.Chemscore.Internal.Correction.Weighted>
   9.000000E+99

> <Gold.Protein.RotatedTorsions>
[ 6907 6896 6895 6894 ] final  -96.55 input  -60.11 | X-H torsion
[ 7974 7965 7964 7962 ] final   -3.88 input  175.53 | X-H torsion
[ 8008 7997 7996 7995 ] final  -44.55 input   59.86 | X-H torsion
[ 10167 10162 10161 10158 ] final   -4.07 input  -65.29 | X-H torsion
[ 10718 10713 10712 10709 ] final  121.50 input   66.30 | X-H torsion
[ 10763 10752 10751 10750 ] final  -55.57 input  -60.55 | X-H torsion
[ 11005 11000 10999 10996 ] final  -23.23 input  -57.11 | X-H torsion

> <Gold.Protein.ActiveResidues>
 VAL166  LYS551  ARG553  GLY616  TRP617  ASP618  TYR619  PRO620  LYS621  CYS622 
 ASP623  PHE694  ASN695  SER759  ASP760  ASP761  ALA762  ILE779  LEU786  VAL792 
 PHE793  MET794  SER795  GLU796  ALA797  LYS798  CYS799  TRP800  GLU811  SER814 

> <Gold.Protein.RotatedAtoms>
  150.6992  134.1486  159.4131 H   0  0  0  0  0  0  0  0  0  0  0  0  # atno 6907 bound_to 6896
  151.9469  135.0185  160.0549 H   0  0  0  0  0  0  0  0  0  0  0  0  # atno 6908 bound_to 6896
  152.2045  133.4830  159.5113 H   0  0  0  0  0  0  0  0  0  0  0  0  # atno 6909 bound_to 6896
  146.2382  140.1788  142.8332 H   0  0  0  0  0  0  0  0  0  0  0  0  # atno 7974 bound_to 7965
  154.3998  140.1419  156.3702 H   0  0  0  0  0  0  0  0  0  0  0  0  # atno 8008 bound_to 7997
  155.8099  140.3473  155.5431 H   0  0  0  0  0  0  0  0  0  0  0  0  # atno 8009 bound_to 7997
  155.8397  140.0925  157.1733 H   0  0  0  0  0  0  0  0  0  0  0  0  # atno 8010 bound_to 7997
  140.6914  143.6466  150.8388 H   0  0  0  0  0  0  0  0  0  0  0  0  # atno 10167 bound_to 10162
  157.5813  131.1074  150.8181 H   0  0  0  0  0  0  0  0  0  0  0  0  # atno 10718 bound_to 10713
  154.1929  135.6424  153.5065 H   0  0  0  0  0  0  0  0  0  0  0  0  # atno 10763 bound_to 10752
  153.0030  135.5433  154.6396 H   0  0  0  0  0  0  0  0  0  0  0  0  # atno 10764 bound_to 10752
  154.5789  135.2923  155.0725 H   0  0  0  0  0  0  0  0  0  0  0  0  # atno 10765 bound_to 10752
  140.8731  133.7706  156.0211 H   0  0  0  0  0  0  0  0  0  0  0  0  # atno 11005 bound_to 11000
  144.9951  140.8582  143.5315 LP  0  0  0  0  0  0  0  0  0  0  0  0  # atno 17320 bound_to 7965
  145.1799  139.2357  143.5298 LP  0  0  0  0  0  0  0  0  0  0  0  0  # atno 17321 bound_to 7965
  140.0179  143.5573  152.2812 LP  0  0  0  0  0  0  0  0  0  0  0  0  # atno 17342 bound_to 10162
  139.6321  144.7645  151.2515 LP  0  0  0  0  0  0  0  0  0  0  0  0  # atno 17343 bound_to 10162
  156.8627  130.5118  149.5302 LP  0  0  0  0  0  0  0  0  0  0  0  0  # atno 17370 bound_to 10713
  156.0859  130.5858  150.9647 LP  0  0  0  0  0  0  0  0  0  0  0  0  # atno 17371 bound_to 10713
  140.8549  134.2910  157.5259 LP  0  0  0  0  0  0  0  0  0  0  0  0  # atno 17394 bound_to 11000
  139.8713  134.9487  156.4006 LP  0  0  0  0  0  0  0  0  0  0  0  0  # atno 17395 bound_to 11000

$$$$
