AV-unprocessed.smi:2854|AV-procd|sdf|10976|dock4
  -GOLD-   2272015433D 1   1.00000     0.00000
 Structure written by MMmdl.
 26 27  0  0  0  0  0  0  0  0  1 V2000
  149.9395  142.0265  155.7017 N   0  0  0  0  0  0  0  0  0  0  0  0
  150.8284  141.9107  156.7728 C   0  0  0  0  0  0  0  0  0  0  0  0
  151.0679  143.0212  157.6095 C   0  0  0  0  0  0  0  0  0  0  0  0
  151.9108  142.9924  158.6632 N   0  0  0  0  0  0  0  0  0  0  0  0
  152.5544  141.8353  158.9228 C   0  0  0  0  0  0  0  0  0  0  0  0
  152.3891  140.6674  158.1530 C   0  0  0  0  0  0  0  0  0  0  0  0
  151.5061  140.6988  157.0497 C   0  0  0  0  0  0  0  0  0  0  0  0
  151.3032  139.5650  156.2459 N   0  0  0  0  0  0  0  0  0  0  0  0
  152.4181  139.2789  155.3523 C   0  0  0  0  0  0  0  0  0  0  0  0
  152.0572  138.1087  154.4211 C   0  0  0  0  0  0  0  0  0  0  0  0
  151.6791  136.9771  155.2004 O   0  0  0  0  0  0  0  0  0  0  0  0
  150.5406  137.2447  156.0150 C   0  0  0  0  0  0  0  0  0  0  0  0
  150.8619  138.3917  156.9888 C   0  0  0  0  0  0  0  0  0  0  0  0
  149.7474  141.2502  155.0853 H   0  0  0  0  0  0  0  0  0  0  0  0
  149.4568  142.8938  155.5142 H   0  0  0  0  0  0  0  0  0  0  0  0
  150.5692  143.9626  157.4294 H   0  0  0  0  0  0  0  0  0  0  0  0
  153.2231  141.8392  159.7709 H   0  0  0  0  0  0  0  0  0  0  0  0
  152.9325  139.7696  158.4085 H   0  0  0  0  0  0  0  0  0  0  0  0
  152.6575  140.1658  154.7643 H   0  0  0  0  0  0  0  0  0  0  0  0
  153.3053  139.0270  155.9348 H   0  0  0  0  0  0  0  0  0  0  0  0
  151.2464  138.3851  153.7451 H   0  0  0  0  0  0  0  0  0  0  0  0
  152.9132  137.8439  153.8003 H   0  0  0  0  0  0  0  0  0  0  0  0
  149.6830  137.4949  155.3884 H   0  0  0  0  0  0  0  0  0  0  0  0
  150.2786  136.3431  156.5684 H   0  0  0  0  0  0  0  0  0  0  0  0
  151.6409  138.0770  157.6844 H   0  0  0  0  0  0  0  0  0  0  0  0
  149.9797  138.6393  157.5805 H   0  0  0  0  0  0  0  0  0  0  0  0
  1  2  1  0  0  0  0
  1 14  1  0  0  0  0
  1 15  1  0  0  0  0
  2  7  1  0  0  0  0
  2  3  2  0  0  0  0
  3  4  1  0  0  0  0
  3 16  1  0  0  0  0
  4  5  2  0  0  0  0
  5  6  1  0  0  0  0
  5 17  1  0  0  0  0
  6  7  2  0  0  0  0
  6 18  1  0  0  0  0
  7  8  1  0  0  0  0
  8 13  1  0  0  0  0
  8  9  1  0  0  0  0
  9 10  1  0  0  0  0
  9 19  1  0  0  0  0
  9 20  1  0  0  0  0
 10 11  1  0  0  0  0
 10 21  1  0  0  0  0
 10 22  1  0  0  0  0
 11 12  1  0  0  0  0
 12 13  1  0  0  0  0
 12 23  1  0  0  0  0
 12 24  1  0  0  0  0
 13 25  1  0  0  0  0
 13 26  1  0  0  0  0
M  END
> <s_m_source_file>
AV-unprocessed.smi

> <i_m_source_file_index>
2854

> <i_lp_mmshare_version>
43012

> <i_f3d_flags>
0

> <s_epik_input>
W05IMl1jMVtjSF1uW2NIXVtjSF1jMU4yW0NIMl1bQ0gyXU9bQ0gyXVtDSDJdMg==

> <s_epik_cmdline>
J2VwaWtfcHl0aG9uJywgJy1waCcsICc3LjAnLCAnLXRuJywgJzgnLCAnLW1hJywgJzIwMCcsICctbWV0YWxfYmluZGluZycsICctaW1hZScsICc8aW5maWxlLm1hZT4nLCAnLW9tYWUnLCAnPG91dGZpbGUubWFlPic=

> <r_lp_tautomer_probability>
1

> <r_epik_Ionization_Penalty>
1.93711

> <r_epik_Ionization_Penalty_Charging>
0

> <r_epik_Ionization_Penalty_Neutral>
1.93711

> <r_epik_State_Penalty>
2.06104

> <r_epik_Charging_Adjusted_Penalty>
2.06104

> <i_epik_Tot_Q>
0

> <i_epik_Tot_abs_Q>
0

> <r_epik_Metal_State_Penalty>
0.0183267

> <b_epik_Metal_Only>
0

> <s_lp_Force_Field>
OPLS_2005

> <r_lp_Energy>
22.5874

> <b_lp_Chiralities_Consistent>
1

> <s_lp_Variant>
AV-unprocessed.smi:2854-2

> <Gold.Version>
5.8.1

> <Gold.Id.Protein>
6NUR|6NUR_protein|mol2

> <Gold.PLP.Fitness>
30.8515

> <Gold.PLP.PLP>
-22.1194

> <Gold.PLP.part.hbond>
-2.0000

> <Gold.PLP.part.metal>
0.0000

> <Gold.PLP.part.buried>
-4.2512

> <Gold.PLP.part.nonpolar>
-16.5982

> <Gold.PLP.part.repulsive>
0.2676

> <Gold.PLP.ligand.clash>
0.0000

> <Gold.PLP.ligand.torsion>
0.1904

> <Gold.PLP.Chemscore.Hbond>
2.0000

> <Gold.PLP.Chemscore.CHOScore>
1.0000

> <Gold.PLP.Chemscore.Metal>
0.0000

> <Gold.Chemscore.Hbonds>
donor molecule, donor type, donor heavy atom, donor atom, acceptor molecule, acceptor atom, score
      L1  H     1    15       P1  8028  1.00
      P1  H 10752 10763       L1    11  1.00
      L1  C     3    16       P1  8028  0.99

> <Gold.PLP.Chemscore.Internal.Correction>
0.1129

> <Gold.Rescore>
     Score         DG    S(hbond)    S(metal)    S(lipo)     H(rot)  DE(clash)    DE(int)     intcor
     16.02     -16.20       1.87        0.00      60.08       1.00       0.06       0.13       ----

> <Gold.Chemscore.Fitness>
16.0207

> <Gold.Chemscore.DG>
-16.2040

> <Gold.Chemscore.ZeroCoef>
-5.4800

> <Gold.Chemscore.Hbond>
1.8728

> <Gold.Chemscore.Metal>
0.0000

> <Gold.Chemscore.Lipo>
60.0750

> <Gold.Chemscore.Internal_Hbond>
0.0000

> <Gold.Chemscore.DEClash>
0.0580

> <Gold.Chemscore.DEInternal>
0.1253

> <Gold.Chemscore.Rot>
1.0000

> <Gold.Chemscore.Internal.Correction>
   9.000000E+99

> <Gold.Chemscore.Hbonds>
donor molecule, donor type, donor heavy atom, donor atom, acceptor molecule, acceptor atom, score
      L1  H     1    15       P1  8028  0.99
      P1  H 10752 10763       L1    11  0.29

> <Gold.Chemscore.Hbond.Weighted>
-6.2552

> <Gold.Chemscore.Metal.Weighted>
-0.0000

> <Gold.Chemscore.Lipo.Weighted>
-7.0288

> <Gold.Chemscore.Internal_Hbond.Weighted>
0.0000

> <Gold.Chemscore.DEClash.Weighted>
0.0580

> <Gold.Chemscore.DEInternal.Weighted>
0.1253

> <Gold.Chemscore.Rot.Weighted>
2.5600

> <Gold.Chemscore.Internal.Correction.Weighted>
   9.000000E+99

> <Gold.Protein.RotatedTorsions>
[ 6907 6896 6895 6894 ] final  -73.78 input  -60.11 | X-H torsion
[ 7974 7965 7964 7962 ] final  -41.76 input  175.53 | X-H torsion
[ 8008 7997 7996 7995 ] final -167.86 input   59.86 | X-H torsion
[ 10167 10162 10161 10158 ] final   28.81 input  -65.29 | X-H torsion
[ 10718 10713 10712 10709 ] final -176.04 input   66.30 | X-H torsion
[ 10763 10752 10751 10750 ] final   53.78 input  -60.55 | X-H torsion
[ 11005 11000 10999 10996 ] final -161.38 input  -57.11 | X-H torsion

> <Gold.Protein.ActiveResidues>
 VAL166  LYS551  ARG553  GLY616  TRP617  ASP618  TYR619  PRO620  LYS621  CYS622 
 ASP623  PHE694  ASN695  SER759  ASP760  ASP761  ALA762  ILE779  LEU786  VAL792 
 PHE793  MET794  SER795  GLU796  ALA797  LYS798  CYS799  TRP800  GLU811  SER814 

> <Gold.Protein.RotatedAtoms>
  150.7117  134.4966  159.5541 H   0  0  0  0  0  0  0  0  0  0  0  0  # atno 6907 bound_to 6896
  152.2572  134.8068  160.0445 H   0  0  0  0  0  0  0  0  0  0  0  0  # atno 6908 bound_to 6896
  151.8795  133.3457  159.3798 H   0  0  0  0  0  0  0  0  0  0  0  0  # atno 6909 bound_to 6896
  146.0180  140.6884  142.9192 H   0  0  0  0  0  0  0  0  0  0  0  0  # atno 7974 bound_to 7965
  155.8836  140.1013  157.1468 H   0  0  0  0  0  0  0  0  0  0  0  0  # atno 8008 bound_to 7997
  154.4007  140.1324  156.4290 H   0  0  0  0  0  0  0  0  0  0  0  0  # atno 8009 bound_to 7997
  155.7615  140.3463  155.5203 H   0  0  0  0  0  0  0  0  0  0  0  0  # atno 8010 bound_to 7997
  140.4820  144.0601  150.6268 H   0  0  0  0  0  0  0  0  0  0  0  0  # atno 10167 bound_to 10162
  156.8088  130.9578  151.3116 H   0  0  0  0  0  0  0  0  0  0  0  0  # atno 10718 bound_to 10713
  152.9798  135.5767  154.4798 H   0  0  0  0  0  0  0  0  0  0  0  0  # atno 10763 bound_to 10752
  154.4348  135.2774  155.1890 H   0  0  0  0  0  0  0  0  0  0  0  0  # atno 10764 bound_to 10752
  154.3583  135.6194  153.5731 H   0  0  0  0  0  0  0  0  0  0  0  0  # atno 10765 bound_to 10752
  140.6211  134.4750  157.5223 H   0  0  0  0  0  0  0  0  0  0  0  0  # atno 11005 bound_to 11000
  144.6978  140.3515  143.7181 LP  0  0  0  0  0  0  0  0  0  0  0  0  # atno 17320 bound_to 7965
  145.7238  139.1717  143.2469 LP  0  0  0  0  0  0  0  0  0  0  0  0  # atno 17321 bound_to 7965
  140.3846  143.2784  152.0131 LP  0  0  0  0  0  0  0  0  0  0  0  0  # atno 17342 bound_to 10162
  139.4835  144.6127  151.7403 LP  0  0  0  0  0  0  0  0  0  0  0  0  # atno 17343 bound_to 10162
  157.6516  130.8889  149.9645 LP  0  0  0  0  0  0  0  0  0  0  0  0  # atno 17370 bound_to 10713
  156.1057  130.3653  150.0138 LP  0  0  0  0  0  0  0  0  0  0  0  0  # atno 17371 bound_to 10713
  139.9153  134.8259  156.1387 LP  0  0  0  0  0  0  0  0  0  0  0  0  # atno 17394 bound_to 11000
  141.0742  133.6783  156.2202 LP  0  0  0  0  0  0  0  0  0  0  0  0  # atno 17395 bound_to 11000

$$$$
