AV-unprocessed.smi:1570|AV-procd|sdf|6312|dock7
  -GOLD-   22720 6513D 1   1.00000     0.00000
 Structure written by MMmdl.
 51 53  0  0  0  0  0  0  0  0  1 V2000
  153.7681  141.4090  161.6517 C   0  0  0  0  0  0  0  0  0  0  0  0
  154.0766  140.9319  160.2271 C   0  0  0  0  0  0  0  0  0  0  0  0
  153.0000  141.2866  159.3056 N   0  0  0  0  0  0  0  0  0  0  0  0
  152.3376  140.4437  158.4788 C   0  0  0  0  0  0  0  0  0  0  0  0
  152.5329  139.2327  158.3748 O   0  0  0  0  0  0  0  0  0  0  0  0
  151.4417  141.1685  157.7676 N   0  0  0  0  0  0  0  0  0  0  0  0
  150.5435  140.6716  156.7252 C   0  0  0  0  0  0  0  0  0  0  0  0
  151.1535  139.4834  155.9548 C   0  0  2  0  0  0  0  0  0  0  0  0
  152.0463  140.0052  154.9935 O   0  0  0  0  0  0  0  0  0  0  0  0
  150.0985  138.6269  155.2200 C   0  0  0  0  0  0  0  0  0  0  0  0
  149.6813  137.4111  155.9188 N   0  0  0  0  0  0  0  0  0  0  0  0
  150.6652  136.3357  155.8012 C   0  0  0  0  0  0  0  0  0  0  0  0
  150.2339  135.0705  156.5668 C   0  0  1  0  0  0  0  0  0  0  0  0
  151.3011  133.9725  156.5141 C   0  0  0  0  0  0  0  0  0  0  0  0
  150.0032  135.4065  157.9320 O   0  0  0  0  0  0  0  0  0  0  0  0
  149.0160  136.4196  158.1024 C   0  0  1  0  0  0  0  0  0  0  0  0
  148.8493  136.6817  159.6028 C   0  0  0  0  0  0  0  0  0  0  0  0
  149.4555  137.6808  157.3345 C   0  0  0  0  0  0  0  0  0  0  0  0
  151.5408  142.5156  158.1448 C   0  0  0  0  0  0  0  0  0  0  0  0
  150.8450  143.6534  157.7005 C   0  0  0  0  0  0  0  0  0  0  0  0
  151.1952  144.8941  158.2827 C   0  0  0  0  0  0  0  0  0  0  0  0
  152.2090  144.9717  159.2725 C   0  0  0  0  0  0  0  0  0  0  0  0
  152.8934  143.8105  159.7020 C   0  0  0  0  0  0  0  0  0  0  0  0
  152.5237  142.5906  159.1092 C   0  0  0  0  0  0  0  0  0  0  0  0
  154.5768  141.1430  162.3326 H   0  0  0  0  0  0  0  0  0  0  0  0
  152.8517  140.9552  162.0302 H   0  0  0  0  0  0  0  0  0  0  0  0
  153.6467  142.4920  161.6885 H   0  0  0  0  0  0  0  0  0  0  0  0
  155.0150  141.3706  159.8846 H   0  0  0  0  0  0  0  0  0  0  0  0
  154.2282  139.8524  160.2189 H   0  0  0  0  0  0  0  0  0  0  0  0
  149.5787  140.3919  157.1516 H   0  0  0  0  0  0  0  0  0  0  0  0
  150.3397  141.4948  156.0388 H   0  0  0  0  0  0  0  0  0  0  0  0
  151.7379  138.8838  156.6504 H   0  0  0  0  0  0  0  0  0  0  0  0
  152.7694  139.4029  154.9029 H   0  0  0  0  0  0  0  0  0  0  0  0
  149.2100  139.2257  155.0217 H   0  0  0  0  0  0  0  0  0  0  0  0
  150.4966  138.3691  154.2372 H   0  0  0  0  0  0  0  0  0  0  0  0
  150.8205  136.0700  154.7569 H   0  0  0  0  0  0  0  0  0  0  0  0
  151.6299  136.6767  156.1812 H   0  0  0  0  0  0  0  0  0  0  0  0
  149.3090  134.6813  156.1378 H   0  0  0  0  0  0  0  0  0  0  0  0
  151.4996  133.6678  155.4862 H   0  0  0  0  0  0  0  0  0  0  0  0
  150.9788  133.0894  157.0662 H   0  0  0  0  0  0  0  0  0  0  0  0
  152.2404  134.3142  156.9498 H   0  0  0  0  0  0  0  0  0  0  0  0
  148.0668  136.0596  157.7018 H   0  0  0  0  0  0  0  0  0  0  0  0
  148.0895  137.4417  159.7858 H   0  0  0  0  0  0  0  0  0  0  0  0
  149.7823  137.0258  160.0496 H   0  0  0  0  0  0  0  0  0  0  0  0
  148.5443  135.7745  160.1250 H   0  0  0  0  0  0  0  0  0  0  0  0
  150.3670  138.0796  157.7831 H   0  0  0  0  0  0  0  0  0  0  0  0
  148.6923  138.4523  157.4447 H   0  0  0  0  0  0  0  0  0  0  0  0
  150.0760  143.5876  156.9450 H   0  0  0  0  0  0  0  0  0  0  0  0
  150.6855  145.7930  157.9691 H   0  0  0  0  0  0  0  0  0  0  0  0
  152.4616  145.9293  159.7032 H   0  0  0  0  0  0  0  0  0  0  0  0
  153.6677  143.8646  160.4527 H   0  0  0  0  0  0  0  0  0  0  0  0
  1  2  1  0  0  0  0
  1 25  1  0  0  0  0
  1 26  1  0  0  0  0
  1 27  1  0  0  0  0
  2  3  1  0  0  0  0
  2 28  1  0  0  0  0
  2 29  1  0  0  0  0
  3 24  1  0  0  0  0
  3  4  1  0  0  0  0
  4  5  2  0  0  0  0
  4  6  1  0  0  0  0
  6  7  1  0  0  0  0
  6 19  1  0  0  0  0
  7  8  1  0  0  0  0
  7 30  1  0  0  0  0
  7 31  1  0  0  0  0
  8  9  1  0  0  0  0
  8 10  1  0  0  0  0
  8 32  1  0  0  0  0
  9 33  1  0  0  0  0
 10 11  1  0  0  0  0
 10 34  1  0  0  0  0
 10 35  1  0  0  0  0
 11 18  1  0  0  0  0
 11 12  1  0  0  0  0
 12 13  1  0  0  0  0
 12 36  1  0  0  0  0
 12 37  1  0  0  0  0
 13 14  1  0  0  0  0
 13 15  1  0  0  0  0
 13 38  1  0  0  0  0
 14 39  1  0  0  0  0
 14 40  1  0  0  0  0
 14 41  1  0  0  0  0
 15 16  1  0  0  0  0
 16 17  1  0  0  0  0
 16 18  1  0  0  0  0
 16 42  1  0  0  0  0
 17 43  1  0  0  0  0
 17 44  1  0  0  0  0
 17 45  1  0  0  0  0
 18 46  1  0  0  0  0
 18 47  1  0  0  0  0
 19 24  2  0  0  0  0
 19 20  1  0  0  0  0
 20 21  2  0  0  0  0
 20 48  1  0  0  0  0
 21 22  1  0  0  0  0
 21 49  1  0  0  0  0
 22 23  2  0  0  0  0
 22 50  1  0  0  0  0
 23 24  1  0  0  0  0
 23 51  1  0  0  0  0
M  END
> <s_m_source_file>
AV-unprocessed.smi

> <i_m_source_file_index>
1570

> <i_lp_mmshare_version>
43012

> <i_f3d_flags>
0

> <s_epik_input>
W2NIXTFbY0hdW2NIXVtjSF1jKGMxMiluKFtDSDJdW0NIM10pYyg9TyluMltDSDJdW0NASF0oW09IXSlbQ0gyXU4zW0NIMl1bQ0BASF0oW0NIM10pT1tDQEBIXShbQ0gzXSlbQ0gyXTM=

> <s_epik_cmdline>
J2VwaWtfcHl0aG9uJywgJy1waCcsICc3LjAnLCAnLXRuJywgJzgnLCAnLW1hJywgJzIwMCcsICctbWV0YWxfYmluZGluZycsICctaW1hZScsICc8aW5maWxlLm1hZT4nLCAnLW9tYWUnLCAnPG91dGZpbGUubWFlPic=

> <r_epik_Ionization_Penalty>
0.214359

> <r_epik_Ionization_Penalty_Charging>
2.30976e-09

> <r_epik_Ionization_Penalty_Neutral>
0.214359

> <r_epik_State_Penalty>
0.204533

> <r_epik_Charging_Adjusted_Penalty>
0.204533

> <i_epik_Tot_Q>
0

> <i_epik_Tot_abs_Q>
0

> <r_epik_Metal_State_Penalty>
0.204533

> <b_epik_Metal_Only>
0

> <s_lp_Force_Field>
OPLS_2005

> <r_lp_Energy>
58.4553

> <b_lp_Chiralities_Consistent>
1

> <s_lp_Variant>
AV-unprocessed.smi:1570-1

> <Gold.Version>
5.8.1

> <Gold.Id.Protein>
6NUR|6NUR_protein|mol2

> <Gold.PLP.Fitness>
48.4958

> <Gold.PLP.PLP>
-45.9139

> <Gold.PLP.part.hbond>
-2.0000

> <Gold.PLP.part.metal>
0.0000

> <Gold.PLP.part.buried>
-5.3593

> <Gold.PLP.part.nonpolar>
-39.4803

> <Gold.PLP.part.repulsive>
0.0411

> <Gold.PLP.ligand.clash>
0.0000

> <Gold.PLP.ligand.torsion>
1.2595

> <Gold.PLP.Chemscore.Hbond>
1.6800

> <Gold.PLP.Chemscore.CHOScore>
0.0000

> <Gold.PLP.Chemscore.Metal>
0.0000

> <Gold.Chemscore.Hbonds>
donor molecule, donor type, donor heavy atom, donor atom, acceptor molecule, acceptor atom, score
      P1  H  6896  6908       L1    15  0.86
      P1  H  7989  7998       L1     9  0.82

> <Gold.PLP.Chemscore.Internal.Correction>
0.0609

> <Gold.Rescore>
     Score         DG    S(hbond)    S(metal)    S(lipo)     H(rot)  DE(clash)    DE(int)     intcor
     18.24     -20.92       1.71        0.00     128.07       2.06       0.08       2.60       ----

> <Gold.Chemscore.Fitness>
18.2424

> <Gold.Chemscore.DG>
-20.9202

> <Gold.Chemscore.ZeroCoef>
-5.4800

> <Gold.Chemscore.Hbond>
1.7136

> <Gold.Chemscore.Metal>
0.0000

> <Gold.Chemscore.Lipo>
128.0671

> <Gold.Chemscore.Internal_Hbond>
0.0000

> <Gold.Chemscore.DEClash>
0.0789

> <Gold.Chemscore.DEInternal>
2.5990

> <Gold.Chemscore.Rot>
2.0574

> <Gold.Chemscore.Internal.Correction>
   9.000000E+99

> <Gold.Chemscore.Hbonds>
donor molecule, donor type, donor heavy atom, donor atom, acceptor molecule, acceptor atom, score
      P1  H  6896  6908       L1    15  0.83
      P1  H  7989  7998       L1     9  0.69

> <Gold.Chemscore.Hbond.Weighted>
-5.7233

> <Gold.Chemscore.Metal.Weighted>
-0.0000

> <Gold.Chemscore.Lipo.Weighted>
-14.9838

> <Gold.Chemscore.Internal_Hbond.Weighted>
0.0000

> <Gold.Chemscore.DEClash.Weighted>
0.0789

> <Gold.Chemscore.DEInternal.Weighted>
2.5990

> <Gold.Chemscore.Rot.Weighted>
5.2669

> <Gold.Chemscore.Internal.Correction.Weighted>
   9.000000E+99

> <Gold.Protein.RotatedTorsions>
[ 6907 6896 6895 6894 ] final  163.96 input  -60.11 | X-H torsion
[ 7974 7965 7964 7962 ] final -140.28 input  175.53 | X-H torsion
[ 8008 7997 7996 7995 ] final -168.21 input   59.86 | X-H torsion
[ 10167 10162 10161 10158 ] final  -36.07 input  -65.29 | X-H torsion
[ 10718 10713 10712 10709 ] final -140.56 input   66.30 | X-H torsion
[ 10763 10752 10751 10750 ] final  167.21 input  -60.55 | X-H torsion
[ 11005 11000 10999 10996 ] final  -83.15 input  -57.11 | X-H torsion

> <Gold.Protein.ActiveResidues>
 VAL166  LYS551  ARG553  GLY616  TRP617  ASP618  TYR619  PRO620  LYS621  CYS622 
 ASP623  PHE694  ASN695  SER759  ASP760  ASP761  ALA762  ILE779  LEU786  VAL792 
 PHE793  MET794  SER795  GLU796  ALA797  LYS798  CYS799  TRP800  GLU811  SER814 

> <Gold.Protein.RotatedAtoms>
  151.9172  133.3576  159.3884 H   0  0  0  0  0  0  0  0  0  0  0  0  # atno 6907 bound_to 6896
  150.7045  134.4672  159.5417 H   0  0  0  0  0  0  0  0  0  0  0  0  # atno 6908 bound_to 6896
  152.2288  134.8342  160.0527 H   0  0  0  0  0  0  0  0  0  0  0  0  # atno 6909 bound_to 6896
  144.8609  140.6218  143.5329 H   0  0  0  0  0  0  0  0  0  0  0  0  # atno 7974 bound_to 7965
  155.8882  140.1020  157.1437 H   0  0  0  0  0  0  0  0  0  0  0  0  # atno 8008 bound_to 7997
  154.4012  140.1316  156.4346 H   0  0  0  0  0  0  0  0  0  0  0  0  # atno 8009 bound_to 7997
  155.7564  140.3464  155.5178 H   0  0  0  0  0  0  0  0  0  0  0  0  # atno 8010 bound_to 7997
  140.7151  143.3433  151.2309 H   0  0  0  0  0  0  0  0  0  0  0  0  # atno 10167 bound_to 10162
  156.3238  130.7548  151.1652 H   0  0  0  0  0  0  0  0  0  0  0  0  # atno 10718 bound_to 10713
  154.3505  135.2753  155.2375 H   0  0  0  0  0  0  0  0  0  0  0  0  # atno 10763 bound_to 10752
  154.4606  135.5908  153.6257 H   0  0  0  0  0  0  0  0  0  0  0  0  # atno 10764 bound_to 10752
  152.9850  135.6064  154.3715 H   0  0  0  0  0  0  0  0  0  0  0  0  # atno 10765 bound_to 10752
  141.1659  133.7280  156.8677 H   0  0  0  0  0  0  0  0  0  0  0  0  # atno 11005 bound_to 11000
  145.4314  139.1548  143.4020 LP  0  0  0  0  0  0  0  0  0  0  0  0  # atno 17320 bound_to 7965
  146.2860  140.4430  142.8758 LP  0  0  0  0  0  0  0  0  0  0  0  0  # atno 17321 bound_to 7965
  139.6947  143.9634  152.2876 LP  0  0  0  0  0  0  0  0  0  0  0  0  # atno 17342 bound_to 10162
  139.9307  144.6743  150.8366 LP  0  0  0  0  0  0  0  0  0  0  0  0  # atno 17343 bound_to 10162
  157.7417  131.0500  150.5078 LP  0  0  0  0  0  0  0  0  0  0  0  0  # atno 17370 bound_to 10713
  156.5234  130.4167  149.6239 LP  0  0  0  0  0  0  0  0  0  0  0  0  # atno 17371 bound_to 10713
  140.1803  134.9038  157.2941 LP  0  0  0  0  0  0  0  0  0  0  0  0  # atno 17394 bound_to 11000
  140.2402  134.3805  155.7484 LP  0  0  0  0  0  0  0  0  0  0  0  0  # atno 17395 bound_to 11000

$$$$
