AV-unprocessed.smi:1543|AV-procd|sdf|6208|dock1
  -GOLD-   22720 6373D 1   1.00000     0.00000
 Structure written by MMmdl.
 49 50  0  0  0  0  0  0  0  0  2 V2000
  145.3922  135.7591  150.7427 C   0  0  0  0  0  0  0  0  0  0  0  0
  145.4097  134.3735  151.3980 C   0  0  2  0  0  0  0  0  0  0  0  0
  146.4679  134.2766  152.5116 C   0  0  0  0  0  0  0  0  0  0  0  0
  146.5108  132.8981  153.0727 N   0  3  2  0  0  0  0  0  0  0  0  0
  147.3326  132.7208  154.3242 C   0  0  0  0  0  0  0  0  0  0  0  0
  146.8440  133.7025  155.4191 C   0  0  0  0  0  0  0  0  0  0  0  0
  147.1010  131.2979  154.8928 C   0  0  0  0  0  0  0  0  0  0  0  0
  148.8468  132.9596  154.0437 C   0  0  0  0  0  0  0  0  0  0  0  0
  149.1944  134.3699  153.8708 N   0  0  0  0  0  0  0  0  0  0  0  0
  150.0572  135.0589  154.6314 C   0  0  0  0  0  0  0  0  0  0  0  0
  150.6601  134.5696  155.5862 O   0  0  0  0  0  0  0  0  0  0  0  0
  150.1757  136.3272  154.2031 N   0  0  0  0  0  0  0  0  0  0  0  0
  150.9642  137.3764  154.7482 C   0  0  0  0  0  0  0  0  0  0  0  0
  151.7628  137.2535  155.9113 C   0  0  0  0  0  0  0  0  0  0  0  0
  152.4839  138.3759  156.3619 C   0  0  0  0  0  0  0  0  0  0  0  0
  152.3754  139.5801  155.6398 C   0  0  0  0  0  0  0  0  0  0  0  0
  151.6081  139.7151  154.5377 N   0  0  0  0  0  0  0  0  0  0  0  0
  150.9194  138.6351  154.1117 C   0  0  0  0  0  0  0  0  0  0  0  0
  146.7849  131.9294  151.9735 C   0  0  0  0  0  0  0  0  0  0  0  0
  145.7503  132.0653  150.8398 C   0  0  1  0  0  0  0  0  0  0  0  0
  144.3615  131.5109  151.2046 C   0  0  0  0  0  0  0  0  0  0  0  0
  145.6938  133.4154  150.3840 O   0  0  0  0  0  0  0  0  0  0  0  0
  145.1660  136.5366  151.4727 H   0  0  0  0  0  0  0  0  0  0  0  0
  144.6353  135.8099  149.9596 H   0  0  0  0  0  0  0  0  0  0  0  0
  146.3558  135.9948  150.2900 H   0  0  0  0  0  0  0  0  0  0  0  0
  144.4202  134.1870  151.8158 H   0  0  0  0  0  0  0  0  0  0  0  0
  147.4462  134.5499  152.1144 H   0  0  0  0  0  0  0  0  0  0  0  0
  146.2139  135.0119  153.2725 H   0  0  0  0  0  0  0  0  0  0  0  0
  147.2665  133.4616  156.3953 H   0  0  0  0  0  0  0  0  0  0  0  0
  145.7590  133.6716  155.5253 H   0  0  0  0  0  0  0  0  0  0  0  0
  147.1342  134.7325  155.2136 H   0  0  0  0  0  0  0  0  0  0  0  0
  147.4958  131.1962  155.9041 H   0  0  0  0  0  0  0  0  0  0  0  0
  147.5931  130.5278  154.2993 H   0  0  0  0  0  0  0  0  0  0  0  0
  146.0383  131.0574  154.9419 H   0  0  0  0  0  0  0  0  0  0  0  0
  149.4648  132.5255  154.8300 H   0  0  0  0  0  0  0  0  0  0  0  0
  149.1448  132.4583  153.1235 H   0  0  0  0  0  0  0  0  0  0  0  0
  148.7491  134.8547  153.1051 H   0  0  0  0  0  0  0  0  0  0  0  0
  149.6791  136.5583  153.3550 H   0  0  0  0  0  0  0  0  0  0  0  0
  151.8264  136.3338  156.4715 H   0  0  0  0  0  0  0  0  0  0  0  0
  153.1031  138.3161  157.2446 H   0  0  0  0  0  0  0  0  0  0  0  0
  152.9148  140.4595  155.9589 H   0  0  0  0  0  0  0  0  0  0  0  0
  150.3139  138.7810  153.2290 H   0  0  0  0  0  0  0  0  0  0  0  0
  147.7788  132.1112  151.5642 H   0  0  0  0  0  0  0  0  0  0  0  0
  146.7721  130.8986  152.3216 H   0  0  0  0  0  0  0  0  0  0  0  0
  146.1093  131.4788  149.9935 H   0  0  0  0  0  0  0  0  0  0  0  0
  144.4159  130.4429  151.4170 H   0  0  0  0  0  0  0  0  0  0  0  0
  143.6600  131.6465  150.3809 H   0  0  0  0  0  0  0  0  0  0  0  0
  143.9403  131.9939  152.0858 H   0  0  0  0  0  0  0  0  0  0  0  0
  145.5633  132.7038  153.3640 H   0  0  0  0  0  0  0  0  0  0  0  0
  1  2  1  0  0  0  0
  1 23  1  0  0  0  0
  1 24  1  0  0  0  0
  1 25  1  0  0  0  0
  2 22  1  0  0  0  0
  2  3  1  0  0  0  0
  2 26  1  0  0  0  0
  3  4  1  0  0  0  0
  3 27  1  0  0  0  0
  3 28  1  0  0  0  0
  4  5  1  0  0  0  0
  4 19  1  0  0  0  0
  4 49  1  0  0  0  0
  5  6  1  0  0  0  0
  5  7  1  0  0  0  0
  5  8  1  0  0  0  0
  6 29  1  0  0  0  0
  6 30  1  0  0  0  0
  6 31  1  0  0  0  0
  7 32  1  0  0  0  0
  7 33  1  0  0  0  0
  7 34  1  0  0  0  0
  8  9  1  0  0  0  0
  8 35  1  0  0  0  0
  8 36  1  0  0  0  0
  9 10  1  0  0  0  0
  9 37  1  0  0  0  0
 10 11  2  0  0  0  0
 10 12  1  0  0  0  0
 12 13  1  0  0  0  0
 12 38  1  0  0  0  0
 13 18  1  0  0  0  0
 13 14  2  0  0  0  0
 14 15  1  0  0  0  0
 14 39  1  0  0  0  0
 15 16  2  0  0  0  0
 15 40  1  0  0  0  0
 16 17  1  0  0  0  0
 16 41  1  0  0  0  0
 17 18  2  0  0  0  0
 18 42  1  0  0  0  0
 19 20  1  0  0  0  0
 19 43  1  0  0  0  0
 19 44  1  0  0  0  0
 20 21  1  0  0  0  0
 20 22  1  0  0  0  0
 20 45  1  0  0  0  0
 21 46  1  0  0  0  0
 21 47  1  0  0  0  0
 21 48  1  0  0  0  0
M  CHG  1   4   1
M  END
> <s_m_source_file>
AV-unprocessed.smi

> <i_m_source_file_index>
1543

> <i_lp_mmshare_version>
43012

> <i_f3d_flags>
0

> <s_epik_input>
W0NIM11bQ0BASF0xW0NIMl1OKFtDSDJdW0NASF0oTzEpW0NIM10pQyhbQ0gzXSkoW0NIM10pW0NIMl1bTkhdQyg9TylbTkhdYzJbY0hdW2NIXVtjSF1uW2NIXTI=

> <s_epik_cmdline>
J2VwaWtfcHl0aG9uJywgJy1waCcsICc3LjAnLCAnLXRuJywgJzgnLCAnLW1hJywgJzIwMCcsICctbWV0YWxfYmluZGluZycsICctaW1hZScsICc8aW5maWxlLm1hZT4nLCAnLW9tYWUnLCAnPG91dGZpbGUubWFlPic=

> <r_epik_Ionization_Penalty>
0.60676

> <r_epik_Ionization_Penalty_Charging>
0.602531

> <r_epik_Ionization_Penalty_Neutral>
0.00422967

> <r_epik_State_Penalty>
0.607492

> <r_epik_Charging_Adjusted_Penalty>
1.21002

> <i_epik_Tot_Q>
1

> <i_epik_Tot_abs_Q>
1

> <r_epik_Metal_State_Penalty>
0.604589

> <b_epik_Metal_Only>
0

> <s_lp_Force_Field>
OPLS_2005

> <r_lp_Energy>
30.3839

> <b_lp_Chiralities_Consistent>
1

> <s_lp_Variant>
AV-unprocessed.smi:1543-4

> <Gold.Version>
5.8.1

> <Gold.Id.Protein>
6NUR|6NUR_protein|mol2

> <Gold.PLP.Fitness>
44.3854

> <Gold.PLP.PLP>
-33.2175

> <Gold.PLP.part.hbond>
-4.0000

> <Gold.PLP.part.metal>
0.0000

> <Gold.PLP.part.buried>
-1.4454

> <Gold.PLP.part.nonpolar>
-27.5356

> <Gold.PLP.part.repulsive>
0.4915

> <Gold.PLP.ligand.clash>
0.0000

> <Gold.PLP.ligand.torsion>
0.2008

> <Gold.PLP.Chemscore.Hbond>
2.8480

> <Gold.PLP.Chemscore.CHOScore>
0.9655

> <Gold.PLP.Chemscore.Metal>
0.0000

> <Gold.Chemscore.Hbonds>
donor molecule, donor type, donor heavy atom, donor atom, acceptor molecule, acceptor atom, score
      L1  H     9    37       P1  7948  0.88
      L1  H    12    38       P1  7948  1.00
      P1  H  7989  7998       L1    17  1.00
      L1  C    18    42       P1  7957  1.00

> <Gold.PLP.Chemscore.Internal.Correction>
0.1290

> <Gold.Rescore>
     Score         DG    S(hbond)    S(metal)    S(lipo)     H(rot)  DE(clash)    DE(int)     intcor
     16.42     -18.55       2.16        0.00      82.15       1.46       0.02       2.11       ----

> <Gold.Chemscore.Fitness>
16.4211

> <Gold.Chemscore.DG>
-18.5479

> <Gold.Chemscore.ZeroCoef>
-5.4800

> <Gold.Chemscore.Hbond>
2.1565

> <Gold.Chemscore.Metal>
0.0000

> <Gold.Chemscore.Lipo>
82.1469

> <Gold.Chemscore.Internal_Hbond>
0.0000

> <Gold.Chemscore.DEClash>
0.0210

> <Gold.Chemscore.DEInternal>
2.1058

> <Gold.Chemscore.Rot>
1.4632

> <Gold.Chemscore.Internal.Correction>
   9.000000E+99

> <Gold.Chemscore.Hbonds>
donor molecule, donor type, donor heavy atom, donor atom, acceptor molecule, acceptor atom, score
      L1  H     9    37       P1  7948  0.26
      L1  H    12    38       P1  7948  0.39
      P1  H  7989  7998       L1    17  0.80

> <Gold.Chemscore.Hbond.Weighted>
-7.2026

> <Gold.Chemscore.Metal.Weighted>
-0.0000

> <Gold.Chemscore.Lipo.Weighted>
-9.6112

> <Gold.Chemscore.Internal_Hbond.Weighted>
0.0000

> <Gold.Chemscore.DEClash.Weighted>
0.0210

> <Gold.Chemscore.DEInternal.Weighted>
2.1058

> <Gold.Chemscore.Rot.Weighted>
3.7459

> <Gold.Chemscore.Internal.Correction.Weighted>
   9.000000E+99

> <Gold.Protein.RotatedTorsions>
[ 6907 6896 6895 6894 ] final  105.90 input  -60.11 | X-H torsion
[ 7974 7965 7964 7962 ] final    2.49 input  175.53 | X-H torsion
[ 8008 7997 7996 7995 ] final   53.67 input   59.86 | X-H torsion
[ 10167 10162 10161 10158 ] final   -0.51 input  -65.29 | X-H torsion
[ 10718 10713 10712 10709 ] final  179.28 input   66.30 | X-H torsion
[ 10763 10752 10751 10750 ] final   45.33 input  -60.55 | X-H torsion
[ 11005 11000 10999 10996 ] final   90.99 input  -57.11 | X-H torsion

> <Gold.Protein.ActiveResidues>
 VAL166  LYS551  ARG553  GLY616  TRP617  ASP618  TYR619  PRO620  LYS621  CYS622 
 ASP623  PHE694  ASN695  SER759  ASP760  ASP761  ALA762  ILE779  LEU786  VAL792 
 PHE793  MET794  SER795  GLU796  ALA797  LYS798  CYS799  TRP800  GLU811  SER814 

> <Gold.Protein.RotatedAtoms>
  152.5214  133.9461  159.7649 H   0  0  0  0  0  0  0  0  0  0  0  0  # atno 6907 bound_to 6896
  150.9780  133.6266  159.2734 H   0  0  0  0  0  0  0  0  0  0  0  0  # atno 6908 bound_to 6896
  151.3453  135.0878  159.9438 H   0  0  0  0  0  0  0  0  0  0  0  0  # atno 6909 bound_to 6896
  146.2444  140.0828  142.8356 H   0  0  0  0  0  0  0  0  0  0  0  0  # atno 7974 bound_to 7965
  155.4721  140.3465  155.4327 H   0  0  0  0  0  0  0  0  0  0  0  0  # atno 8008 bound_to 7997
  156.1093  140.1456  156.9389 H   0  0  0  0  0  0  0  0  0  0  0  0  # atno 8009 bound_to 7997
  154.4746  140.0889  156.7208 H   0  0  0  0  0  0  0  0  0  0  0  0  # atno 8010 bound_to 7997
  140.6770  143.6886  150.8046 H   0  0  0  0  0  0  0  0  0  0  0  0  # atno 10167 bound_to 10162
  156.8782  130.9806  151.3065 H   0  0  0  0  0  0  0  0  0  0  0  0  # atno 10718 bound_to 10713
  152.9826  135.6043  154.3419 H   0  0  0  0  0  0  0  0  0  0  0  0  # atno 10763 bound_to 10752
  154.3115  135.2771  155.2566 H   0  0  0  0  0  0  0  0  0  0  0  0  # atno 10764 bound_to 10752
  154.4773  135.5926  153.6420 H   0  0  0  0  0  0  0  0  0  0  0  0  # atno 10765 bound_to 10752
  139.8846  134.8647  156.3364 H   0  0  0  0  0  0  0  0  0  0  0  0  # atno 11005 bound_to 11000
  145.0718  140.9161  143.4877 LP  0  0  0  0  0  0  0  0  0  0  0  0  # atno 17320 bound_to 7965
  145.0963  139.2854  143.5709 LP  0  0  0  0  0  0  0  0  0  0  0  0  # atno 17321 bound_to 7965
  140.0581  143.5182  152.2641 LP  0  0  0  0  0  0  0  0  0  0  0  0  # atno 17342 bound_to 10162
  139.6069  144.7598  151.3042 LP  0  0  0  0  0  0  0  0  0  0  0  0  # atno 17343 bound_to 10162
  157.6156  130.8616  149.9023 LP  0  0  0  0  0  0  0  0  0  0  0  0  # atno 17370 bound_to 10713
  156.0691  130.3688  150.0814 LP  0  0  0  0  0  0  0  0  0  0  0  0  # atno 17371 bound_to 10713
  140.9688  133.7340  156.0505 LP  0  0  0  0  0  0  0  0  0  0  0  0  # atno 17394 bound_to 11000
  140.7897  134.3632  157.5468 LP  0  0  0  0  0  0  0  0  0  0  0  0  # atno 17395 bound_to 11000

$$$$
