AV-unprocessed.smi:1561|AV-procd|sdf|6286|dock2
  -GOLD-   22720 6483D 1   1.00000     0.00000
 Structure written by MMmdl.
 33 34  0  0  0  0  0  0  0  0  1 V2000
  148.6118  141.3962  156.2726 C   0  0  0  0  0  0  0  0  0  0  0  0
  150.0538  141.2788  155.7381 C   0  0  1  0  0  0  0  0  0  0  0  0
  151.0926  141.8716  156.7031 C   0  0  0  0  0  0  0  0  0  0  0  0
  151.8981  141.1434  157.2841 O   0  0  0  0  0  0  0  0  0  0  0  0
  151.0580  143.2040  156.8648 N   0  0  0  0  0  0  0  0  0  0  0  0
  151.9515  143.9803  157.7188 C   0  0  0  0  0  0  0  0  0  0  0  0
  151.9003  143.5106  159.1848 C   0  0  1  0  0  0  0  0  0  0  0  0
  152.9990  142.5483  159.5954 C   0  0  0  0  0  0  0  0  0  0  0  0
  152.9849  142.6727  161.1167 C   0  0  0  0  0  0  0  0  0  0  0  0
  152.5213  143.9900  161.4010 O   0  0  0  0  0  0  0  0  0  0  0  0
  152.1137  144.6336  160.1981 C   0  0  0  0  0  0  0  0  0  0  0  0
  150.4080  139.9063  155.3945 N   0  0  0  0  0  0  0  0  0  0  0  0
  150.5944  138.8393  156.2502 C   0  0  0  0  0  0  0  0  0  0  0  0
  150.8742  137.7427  155.4863 C   0  0  0  0  0  0  0  0  0  0  0  0
  150.8252  138.2384  154.1540 C   0  0  0  0  0  0  0  0  0  0  0  0
  150.5379  139.5283  154.1012 N   0  0  0  0  0  0  0  0  0  0  0  0
  148.3489  142.4371  156.4648 H   0  0  0  0  0  0  0  0  0  0  0  0
  148.4708  140.8439  157.2026 H   0  0  0  0  0  0  0  0  0  0  0  0
  147.8965  141.0083  155.5468 H   0  0  0  0  0  0  0  0  0  0  0  0
  150.0980  141.8597  154.8154 H   0  0  0  0  0  0  0  0  0  0  0  0
  150.3628  143.7226  156.3481 H   0  0  0  0  0  0  0  0  0  0  0  0
  152.9743  143.9525  157.3387 H   0  0  0  0  0  0  0  0  0  0  0  0
  151.6356  145.0222  157.6616 H   0  0  0  0  0  0  0  0  0  0  0  0
  150.9336  143.0448  159.3845 H   0  0  0  0  0  0  0  0  0  0  0  0
  152.8285  141.5271  159.2536 H   0  0  0  0  0  0  0  0  0  0  0  0
  153.9611  142.8823  159.2038 H   0  0  0  0  0  0  0  0  0  0  0  0
  152.2845  141.9590  161.5517 H   0  0  0  0  0  0  0  0  0  0  0  0
  153.9672  142.4933  161.5545 H   0  0  0  0  0  0  0  0  0  0  0  0
  152.9157  145.2987  159.8746 H   0  0  0  0  0  0  0  0  0  0  0  0
  151.2176  145.2352  160.3524 H   0  0  0  0  0  0  0  0  0  0  0  0
  150.5134  138.9480  157.3218 H   0  0  0  0  0  0  0  0  0  0  0  0
  151.0781  136.7384  155.8268 H   0  0  0  0  0  0  0  0  0  0  0  0
  150.9841  137.7022  153.2302 H   0  0  0  0  0  0  0  0  0  0  0  0
  1  2  1  0  0  0  0
  1 17  1  0  0  0  0
  1 18  1  0  0  0  0
  1 19  1  0  0  0  0
  2  3  1  0  0  0  0
  2 12  1  0  0  0  0
  2 20  1  0  0  0  0
  3  4  2  0  0  0  0
  3  5  1  0  0  0  0
  5  6  1  0  0  0  0
  5 21  1  0  0  0  0
  6  7  1  0  0  0  0
  6 22  1  0  0  0  0
  6 23  1  0  0  0  0
  7 11  1  0  0  0  0
  7  8  1  0  0  0  0
  7 24  1  0  0  0  0
  8  9  1  0  0  0  0
  8 25  1  0  0  0  0
  8 26  1  0  0  0  0
  9 10  1  0  0  0  0
  9 27  1  0  0  0  0
  9 28  1  0  0  0  0
 10 11  1  0  0  0  0
 11 29  1  0  0  0  0
 11 30  1  0  0  0  0
 12 16  1  0  0  0  0
 12 13  1  0  0  0  0
 13 14  2  0  0  0  0
 13 31  1  0  0  0  0
 14 15  1  0  0  0  0
 14 32  1  0  0  0  0
 15 16  2  0  0  0  0
 15 33  1  0  0  0  0
M  END
> <s_m_source_file>
AV-unprocessed.smi

> <i_m_source_file_index>
1561

> <i_lp_mmshare_version>
43012

> <i_f3d_flags>
0

> <s_epik_input>
bjFbY0hdW2NIXVtjSF1uMVtDQEhdKFtDSDNdKUMoPU8pW05IXVtDSDJdW0NAQEhdMltDSDJdW0NIMl1PW0NIMl0y

> <s_epik_cmdline>
J2VwaWtfcHl0aG9uJywgJy1waCcsICc3LjAnLCAnLXRuJywgJzgnLCAnLW1hJywgJzIwMCcsICctbWV0YWxfYmluZGluZycsICctaW1hZScsICc8aW5maWxlLm1hZT4nLCAnLW9tYWUnLCAnPG91dGZpbGUubWFlPic=

> <r_lp_tautomer_probability>
1

> <r_epik_Ionization_Penalty>
3.82077e-05

> <r_epik_Ionization_Penalty_Charging>
0

> <r_epik_Ionization_Penalty_Neutral>
3.82077e-05

> <r_epik_State_Penalty>
-0

> <r_epik_Charging_Adjusted_Penalty>
0

> <i_epik_Tot_Q>
0

> <i_epik_Tot_abs_Q>
0

> <r_epik_Metal_State_Penalty>
-0

> <b_epik_Metal_Only>
0

> <s_lp_Force_Field>
OPLS_2005

> <r_lp_Energy>
22.4357

> <b_lp_Chiralities_Consistent>
1

> <s_lp_Variant>
AV-unprocessed.smi:1561-4

> <Gold.Version>
5.8.1

> <Gold.Id.Protein>
6NUR|6NUR_protein|mol2

> <Gold.PLP.Fitness>
43.7361

> <Gold.PLP.PLP>
-36.2869

> <Gold.PLP.part.hbond>
-2.0000

> <Gold.PLP.part.metal>
0.0000

> <Gold.PLP.part.buried>
-4.7855

> <Gold.PLP.part.nonpolar>
-29.9438

> <Gold.PLP.part.repulsive>
0.3652

> <Gold.PLP.ligand.clash>
0.0000

> <Gold.PLP.ligand.torsion>
0.8284

> <Gold.PLP.Chemscore.Hbond>
2.0000

> <Gold.PLP.Chemscore.CHOScore>
1.0000

> <Gold.PLP.Chemscore.Metal>
0.0000

> <Gold.Chemscore.Hbonds>
donor molecule, donor type, donor heavy atom, donor atom, acceptor molecule, acceptor atom, score
      L1  H     5    21       P1  8028  1.00
      P1  H  7989  7998       L1    16  1.00
      L1  C    15    33       P1  7948  0.08
      L1  C    15    33       P1  7949  1.00

> <Gold.PLP.Chemscore.Internal.Correction>
0.1059

> <Gold.Rescore>
     Score         DG    S(hbond)    S(metal)    S(lipo)     H(rot)  DE(clash)    DE(int)     intcor
     14.00     -18.29       1.92        0.00      89.88       1.61       0.02       4.26       ----

> <Gold.Chemscore.Fitness>
14.0004

> <Gold.Chemscore.DG>
-18.2873

> <Gold.Chemscore.ZeroCoef>
-5.4800

> <Gold.Chemscore.Hbond>
1.9197

> <Gold.Chemscore.Metal>
0.0000

> <Gold.Chemscore.Lipo>
89.8776

> <Gold.Chemscore.Internal_Hbond>
0.0000

> <Gold.Chemscore.DEClash>
0.0237

> <Gold.Chemscore.DEInternal>
4.2632

> <Gold.Chemscore.Rot>
1.6094

> <Gold.Chemscore.Internal.Correction>
   9.000000E+99

> <Gold.Chemscore.Hbonds>
donor molecule, donor type, donor heavy atom, donor atom, acceptor molecule, acceptor atom, score
      L1  H     5    21       P1  8028  1.00
      P1  H  7989  7998       L1    16  0.30

> <Gold.Chemscore.Hbond.Weighted>
-6.4116

> <Gold.Chemscore.Metal.Weighted>
-0.0000

> <Gold.Chemscore.Lipo.Weighted>
-10.5157

> <Gold.Chemscore.Internal_Hbond.Weighted>
0.0000

> <Gold.Chemscore.DEClash.Weighted>
0.0237

> <Gold.Chemscore.DEInternal.Weighted>
4.2632

> <Gold.Chemscore.Rot.Weighted>
4.1201

> <Gold.Chemscore.Internal.Correction.Weighted>
   9.000000E+99

> <Gold.Protein.RotatedTorsions>
[ 6907 6896 6895 6894 ] final  131.41 input  -60.11 | X-H torsion
[ 7974 7965 7964 7962 ] final  133.84 input  175.53 | X-H torsion
[ 8008 7997 7996 7995 ] final -170.07 input   59.86 | X-H torsion
[ 10167 10162 10161 10158 ] final   91.65 input  -65.29 | X-H torsion
[ 10718 10713 10712 10709 ] final   43.96 input   66.30 | X-H torsion
[ 10763 10752 10751 10750 ] final   -1.22 input  -60.55 | X-H torsion
[ 11005 11000 10999 10996 ] final -105.40 input  -57.11 | X-H torsion

> <Gold.Protein.ActiveResidues>
 VAL166  LYS551  ARG553  GLY616  TRP617  ASP618  TYR619  PRO620  LYS621  CYS622 
 ASP623  PHE694  ASN695  SER759  ASP760  ASP761  ALA762  ILE779  LEU786  VAL792 
 PHE793  MET794  SER795  GLU796  ALA797  LYS798  CYS799  TRP800  GLU811  SER814 

> <Gold.Protein.RotatedAtoms>
  152.3429  133.6088  159.5889 H   0  0  0  0  0  0  0  0  0  0  0  0  # atno 6907 bound_to 6896
  150.7490  133.9694  159.3550 H   0  0  0  0  0  0  0  0  0  0  0  0  # atno 6908 bound_to 6896
  151.7556  135.0823  160.0388 H   0  0  0  0  0  0  0  0  0  0  0  0  # atno 6909 bound_to 6896
  144.9824  139.4490  143.5379 H   0  0  0  0  0  0  0  0  0  0  0  0  # atno 7974 bound_to 7965
  155.9134  140.1061  157.1262 H   0  0  0  0  0  0  0  0  0  0  0  0  # atno 8008 bound_to 7997
  154.4043  140.1270  156.4652 H   0  0  0  0  0  0  0  0  0  0  0  0  # atno 8009 bound_to 7997
  155.7282  140.3469  155.5049 H   0  0  0  0  0  0  0  0  0  0  0  0  # atno 8010 bound_to 7997
  139.8354  144.6667  150.9349 H   0  0  0  0  0  0  0  0  0  0  0  0  # atno 10167 bound_to 10162
  157.4216  130.7972  149.7520 H   0  0  0  0  0  0  0  0  0  0  0  0  # atno 10718 bound_to 10713
  153.3420  135.6981  153.6859 H   0  0  0  0  0  0  0  0  0  0  0  0  # atno 10763 bound_to 10752
  153.5620  135.3533  155.2804 H   0  0  0  0  0  0  0  0  0  0  0  0  # atno 10764 bound_to 10752
  154.8638  135.4251  154.2635 H   0  0  0  0  0  0  0  0  0  0  0  0  # atno 10765 bound_to 10752
  141.1055  133.8805  157.1730 H   0  0  0  0  0  0  0  0  0  0  0  0  # atno 11005 bound_to 11000
  146.3411  139.9106  142.8781 LP  0  0  0  0  0  0  0  0  0  0  0  0  # atno 17320 bound_to 7965
  145.2401  141.0006  143.3940 LP  0  0  0  0  0  0  0  0  0  0  0  0  # atno 17321 bound_to 7965
  140.7803  143.3962  151.1226 LP  0  0  0  0  0  0  0  0  0  0  0  0  # atno 17342 bound_to 10162
  139.7613  143.8632  152.3101 LP  0  0  0  0  0  0  0  0  0  0  0  0  # atno 17343 bound_to 10162
  155.9882  130.3960  150.3127 LP  0  0  0  0  0  0  0  0  0  0  0  0  # atno 17370 bound_to 10713
  157.1276  131.0263  151.2983 LP  0  0  0  0  0  0  0  0  0  0  0  0  # atno 17371 bound_to 10713
  139.9923  135.0060  157.0004 LP  0  0  0  0  0  0  0  0  0  0  0  0  # atno 17394 bound_to 11000
  140.4913  134.1190  155.7233 LP  0  0  0  0  0  0  0  0  0  0  0  0  # atno 17395 bound_to 11000

$$$$
