AV-unprocessed.smi:2438|AV-procd|sdf|9600|dock10
  -GOLD-   2272013233D 1   1.00000     0.00000
 Structure written by MMmdl.
 44 45  0  0  0  0  0  0  0  0  2 V2000
  145.5373  142.0389  155.2161 C   0  0  0  0  0  0  0  0  0  0  0  0
  146.6189  142.2138  154.2566 N   0  0  0  0  0  0  0  0  0  0  0  0
  146.3303  143.0670  153.1104 C   0  0  0  0  0  0  0  0  0  0  0  0
  147.3351  141.0287  153.9942 C   0  0  0  0  0  0  0  0  0  0  0  0
  146.7497  140.0937  153.2109 N   0  0  0  0  0  0  0  0  0  0  0  0
  147.3886  138.9489  152.9513 C   0  0  0  0  0  0  0  0  0  0  0  0
  148.6067  138.6714  153.4332 N   0  3  0  0  0  0  0  0  0  0  0  0
  149.2383  139.5747  154.2201 C   0  0  0  0  0  0  0  0  0  0  0  0
  148.6213  140.8073  154.5441 C   0  0  0  0  0  0  0  0  0  0  0  0
  149.2377  141.8222  155.3331 N   0  0  0  0  0  0  0  0  0  0  0  0
  150.3497  141.7553  156.0843 C   0  0  0  0  0  0  0  0  0  0  0  0
  151.0498  140.7541  156.2296 O   0  0  0  0  0  0  0  0  0  0  0  0
  150.6009  142.9325  156.6748 N   0  0  0  0  0  0  0  0  0  0  0  0
  151.7296  143.2272  157.5541 C   0  0  1  0  0  0  0  0  0  0  0  0
  151.4341  144.4980  158.3708 C   0  0  0  0  0  0  0  0  0  0  0  0
  152.5642  144.7940  159.3677 C   0  0  0  0  0  0  0  0  0  0  0  0
  152.8242  143.5918  160.2890 C   0  0  0  0  0  0  0  0  0  0  0  0
  153.1351  142.3126  159.4832 C   0  0  1  0  0  0  0  0  0  0  0  0
  153.4155  141.1049  160.4011 C   0  0  0  0  0  0  0  0  0  0  0  0
  154.2110  141.4522  161.4132 F   0  0  0  0  0  0  0  0  0  0  0  0
  152.2716  140.6311  160.8952 F   0  0  0  0  0  0  0  0  0  0  0  0
  154.0029  140.1303  159.7069 F   0  0  0  0  0  0  0  0  0  0  0  0
  151.9949  142.0263  158.4818 C   0  0  0  0  0  0  0  0  0  0  0  0
  145.8730  141.5270  156.1182 H   0  0  0  0  0  0  0  0  0  0  0  0
  144.7279  141.4560  154.7751 H   0  0  0  0  0  0  0  0  0  0  0  0
  145.1348  143.0075  155.5138 H   0  0  0  0  0  0  0  0  0  0  0  0
  147.2147  143.1902  152.4837 H   0  0  0  0  0  0  0  0  0  0  0  0
  146.0190  144.0564  153.4461 H   0  0  0  0  0  0  0  0  0  0  0  0
  145.5282  142.6470  152.5019 H   0  0  0  0  0  0  0  0  0  0  0  0
  146.9293  138.1978  152.3256 H   0  0  0  0  0  0  0  0  0  0  0  0
  150.2215  139.2671  154.5396 H   0  0  0  0  0  0  0  0  0  0  0  0
  148.7441  142.7032  155.3550 H   0  0  0  0  0  0  0  0  0  0  0  0
  149.9623  143.6939  156.4966 H   0  0  0  0  0  0  0  0  0  0  0  0
  152.6325  143.4038  156.9666 H   0  0  0  0  0  0  0  0  0  0  0  0
  151.3005  145.3502  157.7032 H   0  0  0  0  0  0  0  0  0  0  0  0
  150.4952  144.3804  158.9140 H   0  0  0  0  0  0  0  0  0  0  0  0
  153.4763  145.0424  158.8236 H   0  0  0  0  0  0  0  0  0  0  0  0
  152.3120  145.6712  159.9644 H   0  0  0  0  0  0  0  0  0  0  0  0
  153.6524  143.8242  160.9589 H   0  0  0  0  0  0  0  0  0  0  0  0
  151.9528  143.4266  160.9237 H   0  0  0  0  0  0  0  0  0  0  0  0
  154.0424  142.4980  158.9059 H   0  0  0  0  0  0  0  0  0  0  0  0
  151.0843  141.7756  159.0279 H   0  0  0  0  0  0  0  0  0  0  0  0
  152.2427  141.1514  157.8795 H   0  0  0  0  0  0  0  0  0  0  0  0
  149.0675  137.7891  153.2090 H   0  0  0  0  0  0  0  0  0  0  0  0
  1  2  1  0  0  0  0
  1 24  1  0  0  0  0
  1 25  1  0  0  0  0
  1 26  1  0  0  0  0
  2  3  1  0  0  0  0
  2  4  1  0  0  0  0
  3 27  1  0  0  0  0
  3 28  1  0  0  0  0
  3 29  1  0  0  0  0
  4  9  1  0  0  0  0
  4  5  2  0  0  0  0
  5  6  1  0  0  0  0
  6  7  2  0  0  0  0
  6 30  1  0  0  0  0
  7  8  1  0  0  0  0
  7 44  1  0  0  0  0
  8  9  2  0  0  0  0
  8 31  1  0  0  0  0
  9 10  1  0  0  0  0
 10 11  1  0  0  0  0
 10 32  1  0  0  0  0
 11 12  2  0  0  0  0
 11 13  1  0  0  0  0
 13 14  1  0  0  0  0
 13 33  1  0  0  0  0
 14 23  1  0  0  0  0
 14 15  1  0  0  0  0
 14 34  1  0  0  0  0
 15 16  1  0  0  0  0
 15 35  1  0  0  0  0
 15 36  1  0  0  0  0
 16 17  1  0  0  0  0
 16 37  1  0  0  0  0
 16 38  1  0  0  0  0
 17 18  1  0  0  0  0
 17 39  1  0  0  0  0
 17 40  1  0  0  0  0
 18 19  1  0  0  0  0
 18 23  1  0  0  0  0
 18 41  1  0  0  0  0
 19 20  1  0  0  0  0
 19 21  1  0  0  0  0
 19 22  1  0  0  0  0
 23 42  1  0  0  0  0
 23 43  1  0  0  0  0
M  CHG  1   7   1
M  END
> <s_m_source_file>
AV-unprocessed.smi

> <i_m_source_file_index>
2438

> <i_lp_mmshare_version>
43012

> <i_f3d_flags>
0

> <s_epik_input>
W0NIM11OKFtDSDNdKWMxbltjSF1uW2NIXWMxW05IXUMoPU8pW05IXVtDQEBIXTJbQ0gyXVtDSDJdW0NIMl1bQ0BASF0oQyhGKShGKUYpW0NIMl0y

> <s_epik_cmdline>
J2VwaWtfcHl0aG9uJywgJy1waCcsICc3LjAnLCAnLXRuJywgJzgnLCAnLW1hJywgJzIwMCcsICctbWV0YWxfYmluZGluZycsICctaW1hZScsICc8aW5maWxlLm1hZT4nLCAnLW9tYWUnLCAnPG91dGZpbGUubWFlPic=

> <r_lp_tautomer_probability>
0.999336

> <r_epik_Ionization_Penalty>
2.11643

> <r_epik_Ionization_Penalty_Charging>
2.11639

> <r_epik_Ionization_Penalty_Neutral>
4.47523e-05

> <r_epik_State_Penalty>
2.25369

> <r_epik_Charging_Adjusted_Penalty>
4.37008

> <i_epik_Tot_Q>
1

> <i_epik_Tot_abs_Q>
1

> <r_epik_Metal_State_Penalty>
2.27019

> <b_epik_Metal_Only>
0

> <s_lp_Force_Field>
OPLS_2005

> <r_lp_Energy>
18.5988

> <b_lp_Chiralities_Consistent>
1

> <s_lp_Variant>
AV-unprocessed.smi:2438-6

> <Gold.Version>
5.8.1

> <Gold.Id.Protein>
6NUR|6NUR_protein|mol2

> <Gold.PLP.Fitness>
51.3321

> <Gold.PLP.PLP>
-41.4358

> <Gold.PLP.part.hbond>
-4.0000

> <Gold.PLP.part.metal>
0.0000

> <Gold.PLP.part.buried>
-2.8432

> <Gold.PLP.part.nonpolar>
-34.6020

> <Gold.PLP.part.repulsive>
0.6959

> <Gold.PLP.ligand.clash>
0.0000

> <Gold.PLP.ligand.torsion>
0.7988

> <Gold.PLP.Chemscore.Hbond>
3.5600

> <Gold.PLP.Chemscore.CHOScore>
0.1499

> <Gold.PLP.Chemscore.Metal>
0.0000

> <Gold.Chemscore.Hbonds>
donor molecule, donor type, donor heavy atom, donor atom, acceptor molecule, acceptor atom, score
      L1  H     7    44       P1  7948  1.59
      L1  H    10    32       P1  8028  0.94
      L1  H    13    33       P1  8028  1.00
      L1  C     6    30       P1  7948  0.12

> <Gold.PLP.Chemscore.Internal.Correction>
0.3643

> <Gold.Rescore>
     Score         DG    S(hbond)    S(metal)    S(lipo)     H(rot)  DE(clash)    DE(int)     intcor
     17.11     -22.98       2.58        0.00     104.62       1.31       2.13       3.73       ----

> <Gold.Chemscore.Fitness>
17.1146

> <Gold.Chemscore.DG>
-22.9770

> <Gold.Chemscore.ZeroCoef>
-5.4800

> <Gold.Chemscore.Hbond>
2.5763

> <Gold.Chemscore.Metal>
0.0000

> <Gold.Chemscore.Lipo>
104.6169

> <Gold.Chemscore.Internal_Hbond>
0.0000

> <Gold.Chemscore.DEClash>
2.1308

> <Gold.Chemscore.DEInternal>
3.7315

> <Gold.Chemscore.Rot>
1.3078

> <Gold.Chemscore.Internal.Correction>
   9.000000E+99

> <Gold.Chemscore.Hbonds>
donor molecule, donor type, donor heavy atom, donor atom, acceptor molecule, acceptor atom, score
      L1  H     7    44       P1  7948  0.75
      L1  H    10    32       P1  8028  0.84
      L1  H    13    33       P1  8028  1.00

> <Gold.Chemscore.Hbond.Weighted>
-8.6048

> <Gold.Chemscore.Metal.Weighted>
-0.0000

> <Gold.Chemscore.Lipo.Weighted>
-12.2402

> <Gold.Chemscore.Internal_Hbond.Weighted>
0.0000

> <Gold.Chemscore.DEClash.Weighted>
2.1308

> <Gold.Chemscore.DEInternal.Weighted>
3.7315

> <Gold.Chemscore.Rot.Weighted>
3.3481

> <Gold.Chemscore.Internal.Correction.Weighted>
   9.000000E+99

> <Gold.Protein.RotatedTorsions>
[ 6907 6896 6895 6894 ] final  -53.56 input  -60.11 | X-H torsion
[ 7974 7965 7964 7962 ] final   90.71 input  175.53 | X-H torsion
[ 8008 7997 7996 7995 ] final  177.76 input   59.86 | X-H torsion
[ 10167 10162 10161 10158 ] final   58.62 input  -65.29 | X-H torsion
[ 10718 10713 10712 10709 ] final  -10.73 input   66.30 | X-H torsion
[ 10763 10752 10751 10750 ] final   93.18 input  -60.55 | X-H torsion
[ 11005 11000 10999 10996 ] final   68.69 input  -57.11 | X-H torsion

> <Gold.Protein.ActiveResidues>
 VAL166  LYS551  ARG553  GLY616  TRP617  ASP618  TYR619  PRO620  LYS621  CYS622 
 ASP623  PHE694  ASN695  SER759  ASP760  ASP761  ALA762  ILE779  LEU786  VAL792 
 PHE793  MET794  SER795  GLU796  ALA797  LYS798  CYS799  TRP800  GLU811  SER814 

> <Gold.Protein.RotatedAtoms>
  150.8416  134.7710  159.6936 H   0  0  0  0  0  0  0  0  0  0  0  0  # atno 6907 bound_to 6896
  152.4502  134.5406  159.9848 H   0  0  0  0  0  0  0  0  0  0  0  0  # atno 6908 bound_to 6896
  151.5545  133.3374  159.2995 H   0  0  0  0  0  0  0  0  0  0  0  0  # atno 6909 bound_to 6896
  145.5153  139.2278  143.2702 H   0  0  0  0  0  0  0  0  0  0  0  0  # atno 7974 bound_to 7965
  156.0621  140.1350  156.9928 H   0  0  0  0  0  0  0  0  0  0  0  0  # atno 8008 bound_to 7997
  154.4487  140.0989  156.6604 H   0  0  0  0  0  0  0  0  0  0  0  0  # atno 8009 bound_to 7997
  155.5360  140.3460  155.4439 H   0  0  0  0  0  0  0  0  0  0  0  0  # atno 8010 bound_to 7997
  140.1852  144.4141  150.6596 H   0  0  0  0  0  0  0  0  0  0  0  0  # atno 10167 bound_to 10162
  156.6692  130.5004  149.6005 H   0  0  0  0  0  0  0  0  0  0  0  0  # atno 10718 bound_to 10713
  153.2274  135.4335  155.0557 H   0  0  0  0  0  0  0  0  0  0  0  0  # atno 10763 bound_to 10752
  154.8280  135.3371  154.6838 H   0  0  0  0  0  0  0  0  0  0  0  0  # atno 10764 bound_to 10752
  153.7267  135.7013  153.5055 H   0  0  0  0  0  0  0  0  0  0  0  0  # atno 10765 bound_to 10752
  139.9697  134.6922  156.0473 H   0  0  0  0  0  0  0  0  0  0  0  0  # atno 11005 bound_to 11000
  146.2140  140.5962  142.9046 LP  0  0  0  0  0  0  0  0  0  0  0  0  # atno 17320 bound_to 7965
  144.7705  140.5627  143.6673 LP  0  0  0  0  0  0  0  0  0  0  0  0  # atno 17321 bound_to 7965
  140.6493  143.2221  151.6114 LP  0  0  0  0  0  0  0  0  0  0  0  0  # atno 17342 bound_to 10162
  139.5279  144.3004  152.1078 LP  0  0  0  0  0  0  0  0  0  0  0  0  # atno 17343 bound_to 10162
  156.1951  130.6584  151.1105 LP  0  0  0  0  0  0  0  0  0  0  0  0  # atno 17370 bound_to 10713
  157.7083  131.0746  150.6591 LP  0  0  0  0  0  0  0  0  0  0  0  0  # atno 17371 bound_to 10713
  141.1376  133.6571  156.3638 LP  0  0  0  0  0  0  0  0  0  0  0  0  # atno 17394 bound_to 11000
  140.5321  134.6203  157.5353 LP  0  0  0  0  0  0  0  0  0  0  0  0  # atno 17395 bound_to 11000

$$$$
