AV-unprocessed.smi:1|AV-procd|sdf|11|dock8
  -GOLD-   2262015103D 1   1.00000     0.00000
 Structure written by MMmdl.
 57 62  0  0  0  0  0  0  0  0  1 V2000
  151.1747  144.4257  157.0762 O   0  0  0  0  0  0  0  0  0  0  0  0
  151.5094  143.4040  157.6819 C   0  0  0  0  0  0  0  0  0  0  0  0
  151.7225  142.1255  157.1822 N   0  0  0  0  0  0  0  0  0  0  0  0
  150.7249  141.4305  156.7253 C   0  0  0  0  0  0  0  0  0  0  0  0
  149.3553  141.7041  156.6104 N   0  0  0  0  0  0  0  0  0  0  0  0
  148.3811  140.8328  156.0989 C   0  0  0  0  0  0  0  0  0  0  0  0
  148.6168  139.6282  155.6519 N   0  0  0  0  0  0  0  0  0  0  0  0
  149.9641  139.3090  155.7408 C   0  0  0  0  0  0  0  0  0  0  0  0
  151.0094  140.0718  156.2143 C   0  0  0  0  0  0  0  0  0  0  0  0
  152.2107  139.3765  156.1189 N   0  0  0  0  0  0  0  0  0  0  0  0
  151.8336  138.2141  155.5915 C   0  0  0  0  0  0  0  0  0  0  0  0
  150.5150  138.0970  155.3414 N   0  0  0  0  0  0  0  0  0  0  0  0
  149.7889  136.9279  154.7594 C   0  0  2  0  0  0  0  0  0  0  0  0
  148.4450  137.2614  154.6138 O   0  0  0  0  0  0  0  0  0  0  0  0
  147.7025  136.0528  154.6391 C   0  0  2  0  0  0  0  0  0  0  0  0
  146.2021  136.3170  154.8203 C   0  0  0  0  0  0  0  0  0  0  0  0
  145.4744  135.3117  154.1346 O   0  0  0  0  0  0  0  0  0  0  0  0
  145.0133  135.5387  152.8905 C   0  0  0  0  0  0  0  0  0  0  0  0
  144.7298  136.6587  152.4608 O   0  0  0  0  0  0  0  0  0  0  0  0
  144.8838  134.2896  152.0857 C   0  0  0  0  0  0  0  0  0  0  0  0
  143.9629  134.2483  151.0129 C   0  0  0  0  0  0  0  0  0  0  0  0
  143.8199  133.0831  150.2349 C   0  0  0  0  0  0  0  0  0  0  0  0
  144.5947  131.9440  150.5213 C   0  0  0  0  0  0  0  0  0  0  0  0
  145.5132  131.9717  151.5867 C   0  0  0  0  0  0  0  0  0  0  0  0
  145.6589  133.1366  152.3651 C   0  0  0  0  0  0  0  0  0  0  0  0
  148.3742  135.2618  155.7650 C   0  0  2  0  0  0  0  0  0  0  0  0
  147.8599  135.6618  157.0243 O   0  0  0  0  0  0  0  0  0  0  0  0
  149.1288  135.9793  158.0603 S   0  0  0  0  0  0  0  0  0  0  0  0
  148.9807  137.3532  158.5632 O   0  0  0  0  0  0  0  0  0  0  0  0
  149.2906  134.8230  158.9547 O   0  0  0  0  0  0  0  0  0  0  0  0
  150.3769  135.9557  156.9512 O   0  0  0  0  0  0  0  0  0  0  0  0
  149.8513  135.6795  155.6619 C   0  0  2  0  0  0  0  0  0  0  0  0
  151.7528  143.5127  159.1518 C   0  0  0  0  0  0  0  0  0  0  0  0
  151.4964  144.7268  159.8237 C   0  0  0  0  0  0  0  0  0  0  0  0
  151.7280  144.8291  161.2095 C   0  0  0  0  0  0  0  0  0  0  0  0
  152.2187  143.7204  161.9260 C   0  0  0  0  0  0  0  0  0  0  0  0
  152.4796  142.5087  161.2569 C   0  0  0  0  0  0  0  0  0  0  0  0
  152.2476  142.4045  159.8715 C   0  0  0  0  0  0  0  0  0  0  0  0
  147.3717  141.2467  156.1003 H   0  0  0  0  0  0  0  0  0  0  0  0
  152.5401  137.4256  155.3771 H   0  0  0  0  0  0  0  0  0  0  0  0
  150.2417  136.7689  153.7795 H   0  0  0  0  0  0  0  0  0  0  0  0
  147.8683  135.5417  153.6886 H   0  0  0  0  0  0  0  0  0  0  0  0
  145.9350  136.3268  155.8778 H   0  0  0  0  0  0  0  0  0  0  0  0
  145.9459  137.2946  154.4099 H   0  0  0  0  0  0  0  0  0  0  0  0
  143.3568  135.1103  150.7736 H   0  0  0  0  0  0  0  0  0  0  0  0
  143.1145  133.0640  149.4172 H   0  0  0  0  0  0  0  0  0  0  0  0
  144.4845  131.0503  149.9249 H   0  0  0  0  0  0  0  0  0  0  0  0
  146.1079  131.0977  151.8078 H   0  0  0  0  0  0  0  0  0  0  0  0
  146.3730  133.1231  153.1756 H   0  0  0  0  0  0  0  0  0  0  0  0
  148.2374  134.1860  155.6518 H   0  0  0  0  0  0  0  0  0  0  0  0
  150.4529  134.9181  155.1650 H   0  0  0  0  0  0  0  0  0  0  0  0
  151.1210  145.5821  159.2805 H   0  0  0  0  0  0  0  0  0  0  0  0
  151.5293  145.7584  161.7225 H   0  0  0  0  0  0  0  0  0  0  0  0
  152.3966  143.7998  162.9883 H   0  0  0  0  0  0  0  0  0  0  0  0
  152.8580  141.6592  161.8062 H   0  0  0  0  0  0  0  0  0  0  0  0
  152.4508  141.4720  159.3646 H   0  0  0  0  0  0  0  0  0  0  0  0
  149.0418  142.6103  156.9275 H   0  0  0  0  0  0  0  0  0  0  0  0
  1  2  2  0  0  0  0
  2  3  1  0  0  0  0
  2 33  1  0  0  0  0
  3  4  2  0  0  0  0
  4  9  1  0  0  0  0
  4  5  1  0  0  0  0
  5  6  1  0  0  0  0
  5 57  1  0  0  0  0
  6  7  2  0  0  0  0
  6 39  1  0  0  0  0
  7  8  1  0  0  0  0
  8 12  1  0  0  0  0
  8  9  2  0  0  0  0
  9 10  1  0  0  0  0
 10 11  2  0  0  0  0
 11 12  1  0  0  0  0
 11 40  1  0  0  0  0
 12 13  1  0  0  0  0
 13 32  1  0  0  0  0
 13 14  1  0  0  0  0
 13 41  1  0  0  0  0
 14 15  1  0  0  0  0
 15 16  1  0  0  0  0
 15 26  1  0  0  0  0
 15 42  1  0  0  0  0
 16 17  1  0  0  0  0
 16 43  1  0  0  0  0
 16 44  1  0  0  0  0
 17 18  1  0  0  0  0
 18 19  2  0  0  0  0
 18 20  1  0  0  0  0
 20 25  1  0  0  0  0
 20 21  2  0  0  0  0
 21 22  1  0  0  0  0
 21 45  1  0  0  0  0
 22 23  2  0  0  0  0
 22 46  1  0  0  0  0
 23 24  1  0  0  0  0
 23 47  1  0  0  0  0
 24 25  2  0  0  0  0
 24 48  1  0  0  0  0
 25 49  1  0  0  0  0
 26 32  1  0  0  0  0
 26 27  1  0  0  0  0
 26 50  1  0  0  0  0
 27 28  1  0  0  0  0
 28 29  2  0  0  0  0
 28 30  2  0  0  0  0
 28 31  1  0  0  0  0
 31 32  1  0  0  0  0
 32 51  1  0  0  0  0
 33 38  1  0  0  0  0
 33 34  2  0  0  0  0
 34 35  1  0  0  0  0
 34 52  1  0  0  0  0
 35 36  2  0  0  0  0
 35 53  1  0  0  0  0
 36 37  1  0  0  0  0
 36 54  1  0  0  0  0
 37 38  2  0  0  0  0
 37 55  1  0  0  0  0
 38 56  1  0  0  0  0
M  END
> <s_m_source_file>
AV-unprocessed.smi

> <i_m_source_file_index>
1

> <i_lp_mmshare_version>
43012

> <i_f3d_flags>
0

> <s_epik_input>
W2NIXTFbY0hdW2NIXVtjSF1bY0hdYzFDKD1PKVtOSF1jKG5bY0hdbjIpYyhjMjMpbltjSF1uM1tDQEBIXShbQ0BIXShbQ0BIXTQ1KU9TKE81KSg9Tyk9TylPW0NASF00W0NIMl1PQyg9TyljNltjSF1bY0hdW2NIXVtjSF1bY0hdNg==

> <s_epik_cmdline>
J2VwaWtfcHl0aG9uJywgJy1waCcsICc3LjAnLCAnLXRuJywgJzgnLCAnLW1hJywgJzIwMCcsICctbWV0YWxfYmluZGluZycsICctaW1hZScsICc8aW5maWxlLm1hZT4nLCAnLW9tYWUnLCAnPG91dGZpbGUubWFlPic=

> <r_epik_Ionization_Penalty>
0.122545

> <r_epik_Ionization_Penalty_Charging>
0.122545

> <r_epik_Ionization_Penalty_Neutral>
7.8935e-16

> <r_epik_State_Penalty>
2.69178

> <r_epik_Charging_Adjusted_Penalty>
2.81433

> <i_epik_Tot_Q>
0

> <i_epik_Tot_abs_Q>
0

> <r_epik_Metal_State_Penalty>
3.02665

> <b_epik_Metal_Only>
0

> <s_epik_Chemistry_Notes>
This compound has an ester and may undergo hydrolysis at high or low pH. This compound contains an acetal/aminal-like group ( X-CH(R)-Y where X, Y are N, S, or O) that may be acid/base labile, releasing an aldehyde.

> <s_lp_Force_Field>
OPLS_2005

> <r_lp_Energy>
59.7171

> <b_lp_Chiralities_Consistent>
1

> <s_lp_Variant>
AV-unprocessed.smi:1-11

> <Gold.Version>
5.8.1

> <Gold.Id.Protein>
6NUR|6NUR_protein|mol2

> <Gold.PLP.Fitness>
51.9469

> <Gold.PLP.PLP>
-47.3397

> <Gold.PLP.part.hbond>
-3.0000

> <Gold.PLP.part.metal>
0.0000

> <Gold.PLP.part.buried>
3.3609

> <Gold.PLP.part.nonpolar>
-52.7377

> <Gold.PLP.part.repulsive>
4.8675

> <Gold.PLP.ligand.clash>
0.0000

> <Gold.PLP.ligand.torsion>
2.0086

> <Gold.PLP.Chemscore.Hbond>
2.8160

> <Gold.PLP.Chemscore.CHOScore>
0.0000

> <Gold.PLP.Chemscore.Metal>
0.0000

> <Gold.Chemscore.Hbonds>
donor molecule, donor type, donor heavy atom, donor atom, acceptor molecule, acceptor atom, score
      P1  H  6896  6907       L1    30  0.93
      P1  H  7997  8010       L1    10  0.31

> <Gold.PLP.Chemscore.Internal.Correction>
0.1765

> <Gold.Rescore>
     Score         DG    S(hbond)    S(metal)    S(lipo)     H(rot)  DE(clash)    DE(int)     intcor
     13.95     -23.86       2.81        0.00     123.53       2.13       6.09       3.82       ----

> <Gold.Chemscore.Fitness>
13.9480

> <Gold.Chemscore.DG>
-23.8607

> <Gold.Chemscore.ZeroCoef>
-5.4800

> <Gold.Chemscore.Hbond>
2.8112

> <Gold.Chemscore.Metal>
0.0000

> <Gold.Chemscore.Lipo>
123.5270

> <Gold.Chemscore.Internal_Hbond>
0.0000

> <Gold.Chemscore.DEClash>
6.0943

> <Gold.Chemscore.DEInternal>
3.8183

> <Gold.Chemscore.Rot>
2.1333

> <Gold.Chemscore.Internal.Correction>
   9.000000E+99

> <Gold.Chemscore.Hbonds>
donor molecule, donor type, donor heavy atom, donor atom, acceptor molecule, acceptor atom, score
      L1  H     5    57       P1  8028  0.02
      P1  H  6896  6907       L1    30  0.87
      P1  H  7997  8010       L1    10  0.31

> <Gold.Chemscore.Hbond.Weighted>
-9.3894

> <Gold.Chemscore.Metal.Weighted>
-0.0000

> <Gold.Chemscore.Lipo.Weighted>
-14.4527

> <Gold.Chemscore.Internal_Hbond.Weighted>
0.0000

> <Gold.Chemscore.DEClash.Weighted>
6.0943

> <Gold.Chemscore.DEInternal.Weighted>
3.8183

> <Gold.Chemscore.Rot.Weighted>
5.4614

> <Gold.Chemscore.Internal.Correction.Weighted>
   9.000000E+99

> <Gold.Protein.RotatedTorsions>
[ 6907 6896 6895 6894 ] final  -74.91 input  -60.11 | X-H torsion
[ 7974 7965 7964 7962 ] final  128.42 input  175.53 | X-H torsion
[ 8008 7997 7996 7995 ] final   94.29 input   59.86 | X-H torsion
[ 10167 10162 10161 10158 ] final  178.35 input  -65.29 | X-H torsion
[ 10718 10713 10712 10709 ] final  -47.46 input   66.30 | X-H torsion
[ 10763 10752 10751 10750 ] final  -12.60 input  -60.55 | X-H torsion
[ 11005 11000 10999 10996 ] final   69.73 input  -57.11 | X-H torsion

> <Gold.Protein.ActiveResidues>
 VAL166  LYS551  ARG553  GLY616  TRP617  ASP618  TYR619  PRO620  LYS621  CYS622 
 ASP623  PHE694  ASN695  SER759  ASP760  ASP761  ALA762  ILE779  LEU786  VAL792 
 PHE793  MET794  SER795  GLU796  ALA797  LYS798  CYS799  TRP800  GLU811  SER814 

> <Gold.Protein.RotatedAtoms>
  150.7076  134.4799  159.5464 H   0  0  0  0  0  0  0  0  0  0  0  0  # atno 6907 bound_to 6896
  152.2438  134.8199  160.0465 H   0  0  0  0  0  0  0  0  0  0  0  0  # atno 6908 bound_to 6896
  151.8971  133.3494  159.3855 H   0  0  0  0  0  0  0  0  0  0  0  0  # atno 6909 bound_to 6896
  145.0398  139.3973  143.5108 H   0  0  0  0  0  0  0  0  0  0  0  0  # atno 7974 bound_to 7965
  156.0563  140.3302  155.7409 H   0  0  0  0  0  0  0  0  0  0  0  0  # atno 8008 bound_to 7997
  155.5524  140.0611  157.2864 H   0  0  0  0  0  0  0  0  0  0  0  0  # atno 8009 bound_to 7997
  154.4459  140.1892  156.0688 H   0  0  0  0  0  0  0  0  0  0  0  0  # atno 8010 bound_to 7997
  139.5290  144.2690  152.0643 H   0  0  0  0  0  0  0  0  0  0  0  0  # atno 10167 bound_to 10162
  156.2082  130.4159  149.9149 H   0  0  0  0  0  0  0  0  0  0  0  0  # atno 10718 bound_to 10713
  153.5009  135.7017  153.5832 H   0  0  0  0  0  0  0  0  0  0  0  0  # atno 10763 bound_to 10752
  153.3964  135.3883  155.1958 H   0  0  0  0  0  0  0  0  0  0  0  0  # atno 10764 bound_to 10752
  154.8710  135.3871  154.4480 H   0  0  0  0  0  0  0  0  0  0  0  0  # atno 10765 bound_to 10752
  139.9637  134.7017  156.0591 H   0  0  0  0  0  0  0  0  0  0  0  0  # atno 11005 bound_to 11000
  146.3508  139.9992  142.8678 LP  0  0  0  0  0  0  0  0  0  0  0  0  # atno 17320 bound_to 7965
  145.1663  140.9698  143.4348 LP  0  0  0  0  0  0  0  0  0  0  0  0  # atno 17321 bound_to 7965
  140.2151  144.4523  150.6367 LP  0  0  0  0  0  0  0  0  0  0  0  0  # atno 17342 bound_to 10162
  140.6455  143.2212  151.6195 LP  0  0  0  0  0  0  0  0  0  0  0  0  # atno 17343 bound_to 10162
  156.6836  130.8868  151.3579 LP  0  0  0  0  0  0  0  0  0  0  0  0  # atno 17370 bound_to 10713
  157.7024  130.9347  150.0826 LP  0  0  0  0  0  0  0  0  0  0  0  0  # atno 17371 bound_to 10713
  141.1316  133.6585  156.3479 LP  0  0  0  0  0  0  0  0  0  0  0  0  # atno 17394 bound_to 11000
  140.5443  134.6090  157.5389 LP  0  0  0  0  0  0  0  0  0  0  0  0  # atno 17395 bound_to 11000

$$$$
