AV-unprocessed.smi:3112|AV-procd|sdf|11841|dock9
  -GOLD-   2272017223D 1   1.00000     0.00000
 Structure written by MMmdl.
 37 37  0  0  0  0  0  0  0  0  2 V2000
  147.2600  140.4967  153.2775 C   0  0  0  0  0  0  0  0  0  0  0  0
  148.1366  139.4383  153.9613 C   0  0  0  0  0  0  0  0  0  0  0  0
  149.3424  140.0326  154.7117 C   0  0  1  0  0  0  0  0  0  0  0  0
  150.2056  140.6499  153.7766 O   0  0  0  0  0  0  0  0  0  0  0  0
  148.9163  141.0828  155.7508 C   0  0  0  0  0  0  0  0  0  0  0  0
  150.0418  141.9789  156.0908 N   0  3  0  0  0  0  0  0  0  0  0  0
  150.3974  142.0388  157.5283 C   0  0  2  0  0  0  0  0  0  0  0  0
  149.2146  142.6064  158.3358 C   0  0  0  0  0  0  0  0  0  0  0  0
  151.6978  142.8643  157.7129 C   0  0  1  0  0  0  0  0  0  0  0  0
  151.4658  144.3871  157.7151 C   0  0  0  0  0  0  0  0  0  0  0  0
  152.3900  142.4690  158.9353 N   0  0  0  0  0  0  0  0  0  0  0  0
  152.6578  143.2212  160.0625 C   0  0  0  0  0  0  0  0  0  0  0  0
  153.2920  142.4071  160.9563 C   0  0  0  0  0  0  0  0  0  0  0  0
  153.3611  141.1555  160.2839 C   0  0  0  0  0  0  0  0  0  0  0  0
  152.8119  141.1934  159.0806 N   0  0  0  0  0  0  0  0  0  0  0  0
  146.4418  140.0266  152.7316 H   0  0  0  0  0  0  0  0  0  0  0  0
  147.8376  141.0866  152.5651 H   0  0  0  0  0  0  0  0  0  0  0  0
  146.8212  141.1820  154.0029 H   0  0  0  0  0  0  0  0  0  0  0  0
  147.5278  138.8427  154.6430 H   0  0  0  0  0  0  0  0  0  0  0  0
  148.4961  138.7494  153.1959 H   0  0  0  0  0  0  0  0  0  0  0  0
  149.8846  139.2287  155.2120 H   0  0  0  0  0  0  0  0  0  0  0  0
  149.7946  140.6306  152.9255 H   0  0  0  0  0  0  0  0  0  0  0  0
  148.0649  141.6575  155.3849 H   0  0  0  0  0  0  0  0  0  0  0  0
  148.5935  140.5803  156.6636 H   0  0  0  0  0  0  0  0  0  0  0  0
  150.8529  141.6381  155.5936 H   0  0  0  0  0  0  0  0  0  0  0  0
  150.5958  141.0227  157.8738 H   0  0  0  0  0  0  0  0  0  0  0  0
  149.4091  142.5800  159.4076 H   0  0  0  0  0  0  0  0  0  0  0  0
  148.3030  142.0314  158.1737 H   0  0  0  0  0  0  0  0  0  0  0  0
  149.0063  143.6406  158.0595 H   0  0  0  0  0  0  0  0  0  0  0  0
  152.3618  142.6440  156.8743 H   0  0  0  0  0  0  0  0  0  0  0  0
  151.1221  144.7436  156.7444 H   0  0  0  0  0  0  0  0  0  0  0  0
  152.3898  144.9220  157.9381 H   0  0  0  0  0  0  0  0  0  0  0  0
  150.7249  144.6799  158.4596 H   0  0  0  0  0  0  0  0  0  0  0  0
  152.3778  144.2618  160.1357 H   0  0  0  0  0  0  0  0  0  0  0  0
  153.6503  142.6652  161.9417 H   0  0  0  0  0  0  0  0  0  0  0  0
  153.7853  140.2258  160.6337 H   0  0  0  0  0  0  0  0  0  0  0  0
  149.8389  142.9118  155.7599 H   0  0  0  0  0  0  0  0  0  0  0  0
  1  2  1  0  0  0  0
  1 16  1  0  0  0  0
  1 17  1  0  0  0  0
  1 18  1  0  0  0  0
  2  3  1  0  0  0  0
  2 19  1  0  0  0  0
  2 20  1  0  0  0  0
  3  4  1  0  0  0  0
  3  5  1  0  0  0  0
  3 21  1  0  0  0  0
  4 22  1  0  0  0  0
  5  6  1  0  0  0  0
  5 23  1  0  0  0  0
  5 24  1  0  0  0  0
  6  7  1  0  0  0  0
  6 25  1  0  0  0  0
  6 37  1  0  0  0  0
  7  8  1  0  0  0  0
  7  9  1  0  0  0  0
  7 26  1  0  0  0  0
  8 27  1  0  0  0  0
  8 28  1  0  0  0  0
  8 29  1  0  0  0  0
  9 10  1  0  0  0  0
  9 11  1  0  0  0  0
  9 30  1  0  0  0  0
 10 31  1  0  0  0  0
 10 32  1  0  0  0  0
 10 33  1  0  0  0  0
 11 15  1  0  0  0  0
 11 12  1  0  0  0  0
 12 13  2  0  0  0  0
 12 34  1  0  0  0  0
 13 14  1  0  0  0  0
 13 35  1  0  0  0  0
 14 15  2  0  0  0  0
 14 36  1  0  0  0  0
M  CHG  1   6   1
M  END
> <s_m_source_file>
AV-unprocessed.smi

> <i_m_source_file_index>
3112

> <i_lp_mmshare_version>
43012

> <i_f3d_flags>
0

> <s_epik_input>
W0NIM11bQ0gyXVtDQEhdKFtPSF0pW0NIMl1bTkhdW0NASF0oW0NIM10pW0NASF0oW0NIM10pbjFbY0hdW2NIXVtjSF1uMQ==

> <s_epik_cmdline>
J2VwaWtfcHl0aG9uJywgJy1waCcsICc3LjAnLCAnLXRuJywgJzgnLCAnLW1hJywgJzIwMCcsICctbWV0YWxfYmluZGluZycsICctaW1hZScsICc8aW5maWxlLm1hZT4nLCAnLW9tYWUnLCAnPG91dGZpbGUubWFlPic=

> <r_lp_tautomer_probability>
1

> <r_epik_Ionization_Penalty>
0.0154842

> <r_epik_Ionization_Penalty_Charging>
0.0154724

> <r_epik_Ionization_Penalty_Neutral>
1.17979e-05

> <r_epik_State_Penalty>
0.0121607

> <r_epik_Charging_Adjusted_Penalty>
0.0276331

> <i_epik_Tot_Q>
1

> <i_epik_Tot_abs_Q>
1

> <r_epik_Metal_State_Penalty>
0.0121863

> <b_epik_Metal_Only>
0

> <s_lp_Force_Field>
OPLS_2005

> <r_lp_Energy>
12.5622

> <b_lp_Chiralities_Consistent>
1

> <s_lp_Variant>
AV-unprocessed.smi:3112-6

> <Gold.Version>
5.8.1

> <Gold.Id.Protein>
6NUR|6NUR_protein|mol2

> <Gold.PLP.Fitness>
43.1848

> <Gold.PLP.PLP>
-34.3136

> <Gold.PLP.part.hbond>
-2.6058

> <Gold.PLP.part.metal>
0.0000

> <Gold.PLP.part.buried>
-4.3015

> <Gold.PLP.part.nonpolar>
-27.1640

> <Gold.PLP.part.repulsive>
0.0987

> <Gold.PLP.ligand.clash>
0.0000

> <Gold.PLP.ligand.torsion>
1.1180

> <Gold.PLP.Chemscore.Hbond>
3.6720

> <Gold.PLP.Chemscore.CHOScore>
0.0000

> <Gold.PLP.Chemscore.Metal>
0.0000

> <Gold.Chemscore.Hbonds>
donor molecule, donor type, donor heavy atom, donor atom, acceptor molecule, acceptor atom, score
      L1  H     4    22       P1  7957  1.00
      L1  H     6    37       P1  8028  1.92
      P1  H  7989  7998       L1     4  0.47

> <Gold.PLP.Chemscore.Internal.Correction>
0.0914

> <Gold.Rescore>
     Score         DG    S(hbond)    S(metal)    S(lipo)     H(rot)  DE(clash)    DE(int)     intcor
     16.03     -17.36       2.30        0.00      88.46       2.41       0.11       1.21       ----

> <Gold.Chemscore.Fitness>
16.0342

> <Gold.Chemscore.DG>
-17.3585

> <Gold.Chemscore.ZeroCoef>
-5.4800

> <Gold.Chemscore.Hbond>
2.3040

> <Gold.Chemscore.Metal>
0.0000

> <Gold.Chemscore.Lipo>
88.4604

> <Gold.Chemscore.Internal_Hbond>
0.0000

> <Gold.Chemscore.DEClash>
0.1124

> <Gold.Chemscore.DEInternal>
1.2118

> <Gold.Chemscore.Rot>
2.4089

> <Gold.Chemscore.Internal.Correction>
   9.000000E+99

> <Gold.Chemscore.Hbonds>
donor molecule, donor type, donor heavy atom, donor atom, acceptor molecule, acceptor atom, score
      L1  H     4    22       P1  7957  0.98
      L1  H     6    37       P1  8028  0.90
      P1  H  7989  7998       L1     4  0.19

> <Gold.Chemscore.Hbond.Weighted>
-7.6953

> <Gold.Chemscore.Metal.Weighted>
-0.0000

> <Gold.Chemscore.Lipo.Weighted>
-10.3499

> <Gold.Chemscore.Internal_Hbond.Weighted>
0.0000

> <Gold.Chemscore.DEClash.Weighted>
0.1124

> <Gold.Chemscore.DEInternal.Weighted>
1.2118

> <Gold.Chemscore.Rot.Weighted>
6.1667

> <Gold.Chemscore.Internal.Correction.Weighted>
   9.000000E+99

> <Gold.Protein.RotatedTorsions>
[ 6907 6896 6895 6894 ] final -119.29 input  -60.11 | X-H torsion
[ 7974 7965 7964 7962 ] final   53.85 input  175.53 | X-H torsion
[ 8008 7997 7996 7995 ] final  135.31 input   59.86 | X-H torsion
[ 10167 10162 10161 10158 ] final -131.63 input  -65.29 | X-H torsion
[ 10718 10713 10712 10709 ] final   48.14 input   66.30 | X-H torsion
[ 10763 10752 10751 10750 ] final -144.99 input  -60.55 | X-H torsion
[ 11005 11000 10999 10996 ] final   60.67 input  -57.11 | X-H torsion

> <Gold.Protein.ActiveResidues>
 VAL166  LYS551  ARG553  GLY616  TRP617  ASP618  TYR619  PRO620  LYS621  CYS622 
 ASP623  PHE694  ASN695  SER759  ASP760  ASP761  ALA762  ILE779  LEU786  VAL792 
 PHE793  MET794  SER795  GLU796  ALA797  LYS798  CYS799  TRP800  GLU811  SER814 

> <Gold.Protein.RotatedAtoms>
  150.8292  133.8120  159.3105 H   0  0  0  0  0  0  0  0  0  0  0  0  # atno 6907 bound_to 6896
  151.5855  135.1054  160.0036 H   0  0  0  0  0  0  0  0  0  0  0  0  # atno 6908 bound_to 6896
  152.4374  133.7343  159.6662 H   0  0  0  0  0  0  0  0  0  0  0  0  # atno 6909 bound_to 6896
  145.9669  139.4112  143.0214 H   0  0  0  0  0  0  0  0  0  0  0  0  # atno 7974 bound_to 7965
  156.3002  140.2474  156.3561 H   0  0  0  0  0  0  0  0  0  0  0  0  # atno 8008 bound_to 7997
  154.8921  140.0409  157.1863 H   0  0  0  0  0  0  0  0  0  0  0  0  # atno 8009 bound_to 7997
  154.8587  140.2917  155.5556 H   0  0  0  0  0  0  0  0  0  0  0  0  # atno 8010 bound_to 7997
  139.9169  143.6428  152.2562 H   0  0  0  0  0  0  0  0  0  0  0  0  # atno 10167 bound_to 10162
  157.4656  130.8223  149.7932 H   0  0  0  0  0  0  0  0  0  0  0  0  # atno 10718 bound_to 10713
  154.8404  135.3425  154.6433 H   0  0  0  0  0  0  0  0  0  0  0  0  # atno 10763 bound_to 10752
  153.7045  135.6967  153.5058 H   0  0  0  0  0  0  0  0  0  0  0  0  # atno 10764 bound_to 10752
  153.2498  135.4357  155.0740 H   0  0  0  0  0  0  0  0  0  0  0  0  # atno 10765 bound_to 10752
  140.0215  134.6146  155.9633 H   0  0  0  0  0  0  0  0  0  0  0  0  # atno 11005 bound_to 11000
  145.7961  140.9792  143.1023 LP  0  0  0  0  0  0  0  0  0  0  0  0  # atno 17320 bound_to 7965
  144.6827  139.9743  143.7482 LP  0  0  0  0  0  0  0  0  0  0  0  0  # atno 17321 bound_to 7965
  139.6894  144.7648  151.1465 LP  0  0  0  0  0  0  0  0  0  0  0  0  # atno 17342 bound_to 10162
  140.7672  143.5610  150.9099 LP  0  0  0  0  0  0  0  0  0  0  0  0  # atno 17343 bound_to 10162
  156.0049  130.3861  150.2469 LP  0  0  0  0  0  0  0  0  0  0  0  0  # atno 17370 bound_to 10713
  157.0649  131.0100  151.3210 LP  0  0  0  0  0  0  0  0  0  0  0  0  # atno 17371 bound_to 10713
  141.1777  133.6542  156.4893 LP  0  0  0  0  0  0  0  0  0  0  0  0  # atno 17394 bound_to 11000
  140.4379  134.7042  157.4976 LP  0  0  0  0  0  0  0  0  0  0  0  0  # atno 17395 bound_to 11000

$$$$
