AV-unprocessed.smi:200|AV-procd|sdf|1576|dock2
  -GOLD-   2262019453D 1   1.00000     0.00000
 Structure written by MMmdl.
 56 59  0  0  0  0  0  0  0  0  1 V2000
  150.2598  137.6337  158.7221 C   0  0  0  0  0  0  0  0  0  0  0  0
  151.4222  136.8578  158.9549 O   0  0  0  0  0  0  0  0  0  0  0  0
  152.5704  137.3955  158.3215 C   0  0  0  0  0  0  0  0  0  0  0  0
  152.9648  138.6937  159.0441 C   0  0  0  0  0  0  0  0  0  0  0  0
  152.2993  139.8834  158.5040 N   0  0  0  0  0  0  0  0  0  0  0  0
  151.9244  139.8320  157.2039 C   0  0  0  0  0  0  0  0  0  0  0  0
  152.8779  139.4908  156.3015 N   0  0  0  0  0  0  0  0  0  0  0  0
  152.5731  139.4095  155.0034 C   0  0  0  0  0  0  0  0  0  0  0  0
  151.3968  139.6149  154.4080 N   0  0  0  0  0  0  0  0  0  0  0  0
  150.4315  139.9441  155.3131 C   0  0  0  0  0  0  0  0  0  0  0  0
  150.6077  140.0796  156.7196 C   0  0  0  0  0  0  0  0  0  0  0  0
  149.3997  140.4230  157.3147 N   0  0  0  0  0  0  0  0  0  0  0  0
  148.5608  140.4938  156.3184 C   0  0  0  0  0  0  0  0  0  0  0  0
  149.0919  140.2051  155.0815 N   0  0  0  0  0  0  0  0  0  0  0  0
  148.3771  140.1933  153.8141 C   0  0  0  0  0  0  0  0  0  0  0  0
  147.2443  139.1476  153.7364 C   0  0  0  0  0  0  0  0  0  0  0  0
  146.6390  139.0951  152.3221 C   0  0  0  0  0  0  0  0  0  0  0  0
  147.4917  138.4194  151.4197 O   0  0  0  0  0  0  0  0  0  0  0  0
  147.5591  137.7766  154.3506 C   0  0  0  0  0  0  0  0  0  0  0  0
  146.3491  137.7881  155.1370 O   0  0  0  0  0  0  0  0  0  0  0  0
  146.2044  139.1978  154.8655 C   0  0  0  0  0  0  0  0  0  0  0  0
  152.7631  141.2184  158.8951 C   0  0  2  0  0  0  0  0  0  0  0  0
  153.0850  141.3761  160.3866 C   0  0  0  0  0  0  0  0  0  0  0  0
  153.0484  142.8878  160.5900 C   0  0  0  0  0  0  0  0  0  0  0  0
  151.8654  143.3528  159.7305 C   0  0  1  0  0  0  0  0  0  0  0  0
  151.9535  144.8255  159.3082 C   0  0  0  0  0  0  0  0  0  0  0  0
  151.7973  142.3668  158.5489 C   0  0  0  0  0  0  0  0  0  0  0  0
  149.4078  137.1765  159.2249 H   0  0  0  0  0  0  0  0  0  0  0  0
  150.0306  137.6924  157.6573 H   0  0  0  0  0  0  0  0  0  0  0  0
  150.3769  138.6457  159.1117 H   0  0  0  0  0  0  0  0  0  0  0  0
  153.3817  136.6670  158.3556 H   0  0  0  0  0  0  0  0  0  0  0  0
  152.3542  137.6027  157.2723 H   0  0  0  0  0  0  0  0  0  0  0  0
  152.7169  138.5906  160.0993 H   0  0  0  0  0  0  0  0  0  0  0  0
  154.0461  138.8186  159.0091 H   0  0  0  0  0  0  0  0  0  0  0  0
  153.3877  139.1374  154.3485 H   0  0  0  0  0  0  0  0  0  0  0  0
  147.5201  140.7460  156.4610 H   0  0  0  0  0  0  0  0  0  0  0  0
  147.9822  141.1946  153.6381 H   0  0  0  0  0  0  0  0  0  0  0  0
  149.1074  140.0268  153.0213 H   0  0  0  0  0  0  0  0  0  0  0  0
  145.6842  138.5679  152.3345 H   0  0  0  0  0  0  0  0  0  0  0  0
  146.4245  140.0920  151.9368 H   0  0  0  0  0  0  0  0  0  0  0  0
  147.8697  137.6755  151.8636 H   0  0  0  0  0  0  0  0  0  0  0  0
  147.5836  136.9590  153.6291 H   0  0  0  0  0  0  0  0  0  0  0  0
  148.4507  137.7671  154.9798 H   0  0  0  0  0  0  0  0  0  0  0  0
  146.5030  139.7996  155.7248 H   0  0  0  0  0  0  0  0  0  0  0  0
  145.1996  139.4636  154.5351 H   0  0  0  0  0  0  0  0  0  0  0  0
  153.6874  141.4327  158.3544 H   0  0  0  0  0  0  0  0  0  0  0  0
  152.3188  140.9131  161.0089 H   0  0  0  0  0  0  0  0  0  0  0  0
  154.0460  140.9382  160.6577 H   0  0  0  0  0  0  0  0  0  0  0  0
  152.9385  143.1659  161.6386 H   0  0  0  0  0  0  0  0  0  0  0  0
  153.9780  143.3267  160.2249 H   0  0  0  0  0  0  0  0  0  0  0  0
  150.9584  143.2194  160.3222 H   0  0  0  0  0  0  0  0  0  0  0  0
  152.8508  145.0158  158.7185 H   0  0  0  0  0  0  0  0  0  0  0  0
  151.9816  145.4802  160.1794 H   0  0  0  0  0  0  0  0  0  0  0  0
  151.0915  145.1117  158.7050 H   0  0  0  0  0  0  0  0  0  0  0  0
  152.1065  142.8349  157.6134 H   0  0  0  0  0  0  0  0  0  0  0  0
  150.7705  142.0329  158.4026 H   0  0  0  0  0  0  0  0  0  0  0  0
  1  2  1  0  0  0  0
  1 28  1  0  0  0  0
  1 29  1  0  0  0  0
  1 30  1  0  0  0  0
  2  3  1  0  0  0  0
  3  4  1  0  0  0  0
  3 31  1  0  0  0  0
  3 32  1  0  0  0  0
  4  5  1  0  0  0  0
  4 33  1  0  0  0  0
  4 34  1  0  0  0  0
  5  6  1  0  0  0  0
  5 22  1  0  0  0  0
  6 11  1  0  0  0  0
  6  7  2  0  0  0  0
  7  8  1  0  0  0  0
  8  9  2  0  0  0  0
  8 35  1  0  0  0  0
  9 10  1  0  0  0  0
 10 14  1  0  0  0  0
 10 11  2  0  0  0  0
 11 12  1  0  0  0  0
 12 13  2  0  0  0  0
 13 14  1  0  0  0  0
 13 36  1  0  0  0  0
 14 15  1  0  0  0  0
 15 16  1  0  0  0  0
 15 37  1  0  0  0  0
 15 38  1  0  0  0  0
 16 21  1  0  0  0  0
 16 17  1  0  0  0  0
 16 19  1  0  0  0  0
 17 18  1  0  0  0  0
 17 39  1  0  0  0  0
 17 40  1  0  0  0  0
 18 41  1  0  0  0  0
 19 20  1  0  0  0  0
 19 42  1  0  0  0  0
 19 43  1  0  0  0  0
 20 21  1  0  0  0  0
 21 44  1  0  0  0  0
 21 45  1  0  0  0  0
 22 27  1  0  0  0  0
 22 23  1  0  0  0  0
 22 46  1  0  0  0  0
 23 24  1  0  0  0  0
 23 47  1  0  0  0  0
 23 48  1  0  0  0  0
 24 25  1  0  0  0  0
 24 49  1  0  0  0  0
 24 50  1  0  0  0  0
 25 26  1  0  0  0  0
 25 27  1  0  0  0  0
 25 51  1  0  0  0  0
 26 52  1  0  0  0  0
 26 53  1  0  0  0  0
 26 54  1  0  0  0  0
 27 55  1  0  0  0  0
 27 56  1  0  0  0  0
M  END
> <s_m_source_file>
AV-unprocessed.smi

> <i_m_source_file_index>
200

> <i_lp_mmshare_version>
43012

> <i_f3d_flags>
0

> <s_epik_input>
W0NIM11bQ0BASF0oW0NIMl0xKVtDSDJdW0NIMl1bQ0BIXTFOKFtDSDJdW0NIMl1PW0NIM10pYyhuW2NIXW4yKWMoYzIzKW5bY0hdbjNbQ0gyXUM0KFtDSDJdW09IXSlbQ0gyXU9bQ0gyXTQ=

> <s_epik_cmdline>
J2VwaWtfcHl0aG9uJywgJy1waCcsICc3LjAnLCAnLXRuJywgJzgnLCAnLW1hJywgJzIwMCcsICctbWV0YWxfYmluZGluZycsICctaW1hZScsICc8aW5maWxlLm1hZT4nLCAnLW9tYWUnLCAnPG91dGZpbGUubWFlPic=

> <r_lp_tautomer_probability>
1

> <r_epik_Ionization_Penalty>
0.00363087

> <r_epik_Ionization_Penalty_Charging>
0

> <r_epik_Ionization_Penalty_Neutral>
0.00363087

> <r_epik_State_Penalty>
0.0024341

> <r_epik_Charging_Adjusted_Penalty>
0.0024341

> <i_epik_Tot_Q>
0

> <i_epik_Tot_abs_Q>
0

> <r_epik_Metal_State_Penalty>
-0

> <b_epik_Metal_Only>
0

> <s_lp_Force_Field>
OPLS_2005

> <r_lp_Energy>
49.2687

> <b_lp_Chiralities_Consistent>
1

> <s_lp_Variant>
AV-unprocessed.smi:200-1

> <Gold.Version>
5.8.1

> <Gold.Id.Protein>
6NUR|6NUR_protein|mol2

> <Gold.PLP.Fitness>
60.7880

> <Gold.PLP.PLP>
-47.7388

> <Gold.PLP.part.hbond>
-5.9625

> <Gold.PLP.part.metal>
0.0000

> <Gold.PLP.part.buried>
-3.5789

> <Gold.PLP.part.nonpolar>
-39.6779

> <Gold.PLP.part.repulsive>
0.1868

> <Gold.PLP.ligand.clash>
0.0000

> <Gold.PLP.ligand.torsion>
1.3598

> <Gold.PLP.Chemscore.Hbond>
4.7680

> <Gold.PLP.Chemscore.CHOScore>
0.0000

> <Gold.PLP.Chemscore.Metal>
0.0000

> <Gold.Chemscore.Hbonds>
donor molecule, donor type, donor heavy atom, donor atom, acceptor molecule, acceptor atom, score
      L1  H    18    41       P1  7948  0.98
      P1  H  6896  6907       L1     2  0.91
      P1  H  7954  7966       L1    18  0.50
      P1  H  7989  7998       L1     9  1.00
      P1  H  7997  8010       L1     7  0.90

> <Gold.PLP.Chemscore.Internal.Correction>
1.4647

> <Gold.Rescore>
     Score         DG    S(hbond)    S(metal)    S(lipo)     H(rot)  DE(clash)    DE(int)     intcor
     17.54     -20.59       3.33        0.00     105.72       3.28       0.29       2.76       ----

> <Gold.Chemscore.Fitness>
17.5411

> <Gold.Chemscore.DG>
-20.5888

> <Gold.Chemscore.ZeroCoef>
-5.4800

> <Gold.Chemscore.Hbond>
3.3312

> <Gold.Chemscore.Metal>
0.0000

> <Gold.Chemscore.Lipo>
105.7204

> <Gold.Chemscore.Internal_Hbond>
0.0000

> <Gold.Chemscore.DEClash>
0.2896

> <Gold.Chemscore.DEInternal>
2.7581

> <Gold.Chemscore.Rot>
3.2761

> <Gold.Chemscore.Internal.Correction>
   9.000000E+99

> <Gold.Chemscore.Hbonds>
donor molecule, donor type, donor heavy atom, donor atom, acceptor molecule, acceptor atom, score
      L1  H    18    41       P1  7948  0.93
      P1  H  6896  6907       L1     2  0.83
      P1  H  7954  7966       L1    18  0.02
      P1  H  7989  7998       L1     9  0.28
      P1  H  7997  8010       L1     7  0.72

> <Gold.Chemscore.Hbond.Weighted>
-11.1263

> <Gold.Chemscore.Metal.Weighted>
-0.0000

> <Gold.Chemscore.Lipo.Weighted>
-12.3693

> <Gold.Chemscore.Internal_Hbond.Weighted>
0.0000

> <Gold.Chemscore.DEClash.Weighted>
0.2896

> <Gold.Chemscore.DEInternal.Weighted>
2.7581

> <Gold.Chemscore.Rot.Weighted>
8.3868

> <Gold.Chemscore.Internal.Correction.Weighted>
   9.000000E+99

> <Gold.Protein.RotatedTorsions>
[ 6907 6896 6895 6894 ] final  -23.71 input  -60.11 | X-H torsion
[ 7974 7965 7964 7962 ] final  -22.36 input  175.53 | X-H torsion
[ 8008 7997 7996 7995 ] final   51.57 input   59.86 | X-H torsion
[ 10167 10162 10161 10158 ] final -168.80 input  -65.29 | X-H torsion
[ 10718 10713 10712 10709 ] final   45.48 input   66.30 | X-H torsion
[ 10763 10752 10751 10750 ] final   39.76 input  -60.55 | X-H torsion
[ 11005 11000 10999 10996 ] final  -66.98 input  -57.11 | X-H torsion

> <Gold.Protein.ActiveResidues>
 VAL166  LYS551  ARG553  GLY616  TRP617  ASP618  TYR619  PRO620  LYS621  CYS622 
 ASP623  PHE694  ASN695  SER759  ASP760  ASP761  ALA762  ILE779  LEU786  VAL792 
 PHE793  MET794  SER795  GLU796  ALA797  LYS798  CYS799  TRP800  GLU811  SER814 

> <Gold.Protein.RotatedAtoms>
  151.2001  135.0439  159.8868 H   0  0  0  0  0  0  0  0  0  0  0  0  # atno 6907 bound_to 6896
  152.5433  134.0860  159.8266 H   0  0  0  0  0  0  0  0  0  0  0  0  # atno 6908 bound_to 6896
  151.0999  133.5204  159.2642 H   0  0  0  0  0  0  0  0  0  0  0  0  # atno 6909 bound_to 6896
  146.1680  140.4468  142.8544 H   0  0  0  0  0  0  0  0  0  0  0  0  # atno 7974 bound_to 7965
  155.4374  140.3453  155.4286 H   0  0  0  0  0  0  0  0  0  0  0  0  # atno 8008 bound_to 7997
  156.1299  140.1511  156.9111 H   0  0  0  0  0  0  0  0  0  0  0  0  # atno 8009 bound_to 7997
  154.4887  140.0847  156.7525 H   0  0  0  0  0  0  0  0  0  0  0  0  # atno 8010 bound_to 7997
  139.5963  144.1106  152.1692 H   0  0  0  0  0  0  0  0  0  0  0  0  # atno 10167 bound_to 10162
  157.4380  130.8064  149.7667 H   0  0  0  0  0  0  0  0  0  0  0  0  # atno 10718 bound_to 10713
  152.9957  135.6211  154.2517 H   0  0  0  0  0  0  0  0  0  0  0  0  # atno 10763 bound_to 10752
  154.2255  135.2794  155.2911 H   0  0  0  0  0  0  0  0  0  0  0  0  # atno 10764 bound_to 10752
  154.5493  135.5738  153.6966 H   0  0  0  0  0  0  0  0  0  0  0  0  # atno 10765 bound_to 10752
  141.1496  133.6710  156.6222 H   0  0  0  0  0  0  0  0  0  0  0  0  # atno 11005 bound_to 11000
  144.8121  140.6404  143.6408 LP  0  0  0  0  0  0  0  0  0  0  0  0  # atno 17320 bound_to 7965
  145.4416  139.1535  143.3967 LP  0  0  0  0  0  0  0  0  0  0  0  0  # atno 17321 bound_to 7965
  140.0692  144.5793  150.7205 LP  0  0  0  0  0  0  0  0  0  0  0  0  # atno 17342 bound_to 10162
  140.7214  143.2592  151.4266 LP  0  0  0  0  0  0  0  0  0  0  0  0  # atno 17343 bound_to 10162
  155.9938  130.3922  150.2886 LP  0  0  0  0  0  0  0  0  0  0  0  0  # atno 17370 bound_to 10713
  157.1048  131.0205  151.3071 LP  0  0  0  0  0  0  0  0  0  0  0  0  # atno 17371 bound_to 10713
  140.3531  134.7751  157.4481 LP  0  0  0  0  0  0  0  0  0  0  0  0  # atno 17394 bound_to 11000
  140.0844  134.5686  155.8507 LP  0  0  0  0  0  0  0  0  0  0  0  0  # atno 17395 bound_to 11000

$$$$
