AV-unprocessed.smi:169|AV-procd|sdf|1398|dock4
  -GOLD-   2262019143D 1   1.00000     0.00000
 Structure written by MMmdl.
 56 60  0  0  0  0  0  0  0  0  2 V2000
  142.8425  134.2433  163.5486 C   0  0  0  0  0  0  0  0  0  0  0  0
  143.2599  135.5930  162.9382 C   0  0  0  0  0  0  0  0  0  0  0  0
  144.6388  135.6020  162.3829 N   0  3  2  0  0  0  0  0  0  0  0  0
  145.0834  136.9472  161.9367 C   0  0  0  0  0  0  0  0  0  0  0  0
  146.5720  137.2112  162.2369 C   0  0  0  0  0  0  0  0  0  0  0  0
  147.5482  136.0756  161.8597 C   0  0  1  0  0  0  0  0  0  0  0  0
  147.6842  134.9924  162.9522 C   0  0  0  0  0  0  0  0  0  0  0  0
  147.0928  133.7168  162.3434 C   0  0  0  0  0  0  0  0  0  0  0  0
  146.3537  134.2061  161.0946 C   0  0  1  0  0  0  0  0  0  0  0  0
  144.8656  134.5341  161.3680 C   0  0  0  0  0  0  0  0  0  0  0  0
  147.1183  135.3721  160.6539 N   0  0  0  0  0  0  0  0  0  0  0  0
  148.0537  135.2635  159.6736 C   0  0  0  0  0  0  0  0  0  0  0  0
  148.3180  134.0601  159.0987 N   0  0  0  0  0  0  0  0  0  0  0  0
  149.2483  133.9557  158.1450 C   0  0  0  0  0  0  0  0  0  0  0  0
  150.0180  134.9121  157.6224 N   0  0  0  0  0  0  0  0  0  0  0  0
  149.7535  136.1240  158.1889 C   0  0  0  0  0  0  0  0  0  0  0  0
  148.7967  136.3853  159.2096 C   0  0  0  0  0  0  0  0  0  0  0  0
  148.8041  137.7375  159.5300 N   0  0  0  0  0  0  0  0  0  0  0  0
  149.7185  138.2451  158.7493 C   0  0  0  0  0  0  0  0  0  0  0  0
  150.3340  137.3485  157.9048 N   0  0  0  0  0  0  0  0  0  0  0  0
  151.3826  137.6388  156.9385 C   0  0  0  0  0  0  0  0  0  0  0  0
  150.9718  138.6584  155.8595 C   0  0  0  0  0  0  0  0  0  0  0  0
  151.0070  140.0706  156.4790 C   0  0  0  0  0  0  0  0  0  0  0  0
  152.2880  140.4168  156.9672 O   0  0  0  0  0  0  0  0  0  0  0  0
  151.6485  138.5061  154.4894 C   0  0  0  0  0  0  0  0  0  0  0  0
  150.3793  138.4248  153.8041 O   0  0  0  0  0  0  0  0  0  0  0  0
  149.7041  138.2915  155.0745 C   0  0  0  0  0  0  0  0  0  0  0  0
  141.8155  134.2919  163.9111 H   0  0  0  0  0  0  0  0  0  0  0  0
  143.4706  133.9699  164.3963 H   0  0  0  0  0  0  0  0  0  0  0  0
  142.8907  133.4353  162.8186 H   0  0  0  0  0  0  0  0  0  0  0  0
  142.5608  135.8679  162.1476 H   0  0  0  0  0  0  0  0  0  0  0  0
  143.1766  136.3764  163.6923 H   0  0  0  0  0  0  0  0  0  0  0  0
  144.8780  137.0714  160.8722 H   0  0  0  0  0  0  0  0  0  0  0  0
  144.5049  137.7227  162.4407 H   0  0  0  0  0  0  0  0  0  0  0  0
  146.8598  138.1101  161.6907 H   0  0  0  0  0  0  0  0  0  0  0  0
  146.6990  137.4661  163.2897 H   0  0  0  0  0  0  0  0  0  0  0  0
  148.5361  136.5187  161.7229 H   0  0  0  0  0  0  0  0  0  0  0  0
  148.7292  134.8354  163.2219 H   0  0  0  0  0  0  0  0  0  0  0  0
  147.1559  135.2682  163.8655 H   0  0  0  0  0  0  0  0  0  0  0  0
  147.9025  133.0478  162.0485 H   0  0  0  0  0  0  0  0  0  0  0  0
  146.4528  133.1703  163.0369 H   0  0  0  0  0  0  0  0  0  0  0  0
  146.3596  133.4156  160.3439 H   0  0  0  0  0  0  0  0  0  0  0  0
  144.3747  133.6189  161.7015 H   0  0  0  0  0  0  0  0  0  0  0  0
  144.3797  134.8109  160.4316 H   0  0  0  0  0  0  0  0  0  0  0  0
  149.3978  132.9640  157.7437 H   0  0  0  0  0  0  0  0  0  0  0  0
  149.9696  139.2954  158.7696 H   0  0  0  0  0  0  0  0  0  0  0  0
  152.2493  137.9993  157.4942 H   0  0  0  0  0  0  0  0  0  0  0  0
  151.6989  136.7015  156.4791 H   0  0  0  0  0  0  0  0  0  0  0  0
  150.7103  140.8227  155.7471 H   0  0  0  0  0  0  0  0  0  0  0  0
  150.3130  140.1516  157.3155 H   0  0  0  0  0  0  0  0  0  0  0  0
  152.2170  140.6068  157.8902 H   0  0  0  0  0  0  0  0  0  0  0  0
  152.2371  139.3712  154.1818 H   0  0  0  0  0  0  0  0  0  0  0  0
  152.2228  137.5864  154.3735 H   0  0  0  0  0  0  0  0  0  0  0  0
  149.3586  137.2700  155.2411 H   0  0  0  0  0  0  0  0  0  0  0  0
  148.8810  138.9977  155.1891 H   0  0  0  0  0  0  0  0  0  0  0  0
  145.2289  135.3664  163.1681 H   0  0  0  0  0  0  0  0  0  0  0  0
  1  2  1  0  0  0  0
  1 28  1  0  0  0  0
  1 29  1  0  0  0  0
  1 30  1  0  0  0  0
  2  3  1  0  0  0  0
  2 31  1  0  0  0  0
  2 32  1  0  0  0  0
  3 10  1  0  0  0  0
  3  4  1  0  0  0  0
  3 56  1  0  0  0  0
  4  5  1  0  0  0  0
  4 33  1  0  0  0  0
  4 34  1  0  0  0  0
  5  6  1  0  0  0  0
  5 35  1  0  0  0  0
  5 36  1  0  0  0  0
  6 11  1  0  0  0  0
  6  7  1  0  0  0  0
  6 37  1  0  0  0  0
  7  8  1  0  0  0  0
  7 38  1  0  0  0  0
  7 39  1  0  0  0  0
  8  9  1  0  0  0  0
  8 40  1  0  0  0  0
  8 41  1  0  0  0  0
  9 10  1  0  0  0  0
  9 11  1  0  0  0  0
  9 42  1  0  0  0  0
 10 43  1  0  0  0  0
 10 44  1  0  0  0  0
 11 12  1  0  0  0  0
 12 17  1  0  0  0  0
 12 13  2  0  0  0  0
 13 14  1  0  0  0  0
 14 15  2  0  0  0  0
 14 45  1  0  0  0  0
 15 16  1  0  0  0  0
 16 20  1  0  0  0  0
 16 17  2  0  0  0  0
 17 18  1  0  0  0  0
 18 19  2  0  0  0  0
 19 20  1  0  0  0  0
 19 46  1  0  0  0  0
 20 21  1  0  0  0  0
 21 22  1  0  0  0  0
 21 47  1  0  0  0  0
 21 48  1  0  0  0  0
 22 27  1  0  0  0  0
 22 23  1  0  0  0  0
 22 25  1  0  0  0  0
 23 24  1  0  0  0  0
 23 49  1  0  0  0  0
 23 50  1  0  0  0  0
 24 51  1  0  0  0  0
 25 26  1  0  0  0  0
 25 52  1  0  0  0  0
 25 53  1  0  0  0  0
 26 27  1  0  0  0  0
 27 54  1  0  0  0  0
 27 55  1  0  0  0  0
M  CHG  1   3   1
M  END
> <s_m_source_file>
AV-unprocessed.smi

> <i_m_source_file_index>
169

> <i_lp_mmshare_version>
43012

> <i_f3d_flags>
0

> <s_epik_input>
W0NASF0xMltDSDJdW0NIMl1OKFtDSDJdW0NIM10pW0NIMl1bQ0BIXShbQ0gyXVtDSDJdMSlOMmMobltjSF1uMyljKGMzNCluW2NIXW40W0NIMl1DNShbQ0gyXVtPSF0pW0NIMl1PW0NIMl01

> <s_epik_cmdline>
J2VwaWtfcHl0aG9uJywgJy1waCcsICc3LjAnLCAnLXRuJywgJzgnLCAnLW1hJywgJzIwMCcsICctbWV0YWxfYmluZGluZycsICctaW1hZScsICc8aW5maWxlLm1hZT4nLCAnLW9tYWUnLCAnPG91dGZpbGUubWFlPic=

> <r_lp_tautomer_probability>
1

> <r_epik_Ionization_Penalty>
0.00274162

> <r_epik_Ionization_Penalty_Charging>
0.00243722

> <r_epik_Ionization_Penalty_Neutral>
0.000304399

> <r_epik_State_Penalty>
-0

> <r_epik_Charging_Adjusted_Penalty>
0.00243722

> <i_epik_Tot_Q>
1

> <i_epik_Tot_abs_Q>
1

> <r_epik_Metal_State_Penalty>
-0

> <b_epik_Metal_Only>
0

> <s_lp_Force_Field>
OPLS_2005

> <r_lp_Energy>
78.5453

> <b_lp_Chiralities_Consistent>
1

> <s_lp_Variant>
AV-unprocessed.smi:169-1

> <Gold.Version>
5.8.1

> <Gold.Id.Protein>
6NUR|6NUR_protein|mol2

> <Gold.PLP.Fitness>
42.0596

> <Gold.PLP.PLP>
-39.4183

> <Gold.PLP.part.hbond>
-3.6166

> <Gold.PLP.part.metal>
0.0000

> <Gold.PLP.part.buried>
-4.4460

> <Gold.PLP.part.nonpolar>
-30.9203

> <Gold.PLP.part.repulsive>
0.3004

> <Gold.PLP.ligand.clash>
0.0000

> <Gold.PLP.ligand.torsion>
0.4487

> <Gold.PLP.Chemscore.Hbond>
1.0000

> <Gold.PLP.Chemscore.CHOScore>
0.0000

> <Gold.PLP.Chemscore.Metal>
0.0000

> <Gold.Chemscore.Hbonds>
donor molecule, donor type, donor heavy atom, donor atom, acceptor molecule, acceptor atom, score
      P1  H  6931  6943       L1    18  0.01
      P1  H  7997  8010       L1    24  0.69

> <Gold.PLP.Chemscore.Internal.Correction>
0.5387

> <Gold.Rescore>
     Score         DG    S(hbond)    S(metal)    S(lipo)     H(rot)  DE(clash)    DE(int)     intcor
     12.64     -13.27       1.08        0.00      93.06       2.62       0.02       0.61       ----

> <Gold.Chemscore.Fitness>
12.6432

> <Gold.Chemscore.DG>
-13.2682

> <Gold.Chemscore.ZeroCoef>
-5.4800

> <Gold.Chemscore.Hbond>
1.0809

> <Gold.Chemscore.Metal>
0.0000

> <Gold.Chemscore.Lipo>
93.0634

> <Gold.Chemscore.Internal_Hbond>
0.0000

> <Gold.Chemscore.DEClash>
0.0174

> <Gold.Chemscore.DEInternal>
0.6077

> <Gold.Chemscore.Rot>
2.6212

> <Gold.Chemscore.Internal.Correction>
   9.000000E+99

> <Gold.Chemscore.Hbonds>
donor molecule, donor type, donor heavy atom, donor atom, acceptor molecule, acceptor atom, score
      P1  H  6931  6943       L1    18  0.02
      P1  H  6934  6947       L1    18  0.01
      P1  H  7997  8010       L1    24  0.29

> <Gold.Chemscore.Hbond.Weighted>
-3.6100

> <Gold.Chemscore.Metal.Weighted>
-0.0000

> <Gold.Chemscore.Lipo.Weighted>
-10.8884

> <Gold.Chemscore.Internal_Hbond.Weighted>
0.0000

> <Gold.Chemscore.DEClash.Weighted>
0.0174

> <Gold.Chemscore.DEInternal.Weighted>
0.6077

> <Gold.Chemscore.Rot.Weighted>
6.7102

> <Gold.Chemscore.Internal.Correction.Weighted>
   9.000000E+99

> <Gold.Protein.RotatedTorsions>
[ 6907 6896 6895 6894 ] final   41.26 input  -60.11 | X-H torsion
[ 7974 7965 7964 7962 ] final  140.64 input  175.53 | X-H torsion
[ 8008 7997 7996 7995 ] final   58.95 input   59.86 | X-H torsion
[ 10167 10162 10161 10158 ] final   22.28 input  -65.29 | X-H torsion
[ 10718 10713 10712 10709 ] final   34.88 input   66.30 | X-H torsion
[ 10763 10752 10751 10750 ] final   46.43 input  -60.55 | X-H torsion
[ 11005 11000 10999 10996 ] final  -54.12 input  -57.11 | X-H torsion

> <Gold.Protein.ActiveResidues>
 VAL166  LYS551  ARG553  GLY616  TRP617  ASP618  TYR619  PRO620  LYS621  CYS622 
 ASP623  PHE694  ASN695  SER759  ASP760  ASP761  ALA762  ILE779  LEU786  VAL792 
 PHE793  MET794  SER795  GLU796  ALA797  LYS798  CYS799  TRP800  GLU811  SER814 

> <Gold.Protein.RotatedAtoms>
  152.1931  134.8655  160.0515 H   0  0  0  0  0  0  0  0  0  0  0  0  # atno 6907 bound_to 6896
  151.9536  133.3668  159.4017 H   0  0  0  0  0  0  0  0  0  0  0  0  # atno 6908 bound_to 6896
  150.6939  134.4238  159.5261 H   0  0  0  0  0  0  0  0  0  0  0  0  # atno 6909 bound_to 6896
  144.9169  139.5219  143.5682 H   0  0  0  0  0  0  0  0  0  0  0  0  # atno 7974 bound_to 7965
  155.5583  140.3487  155.4485 H   0  0  0  0  0  0  0  0  0  0  0  0  # atno 8008 bound_to 7997
  156.0533  140.1323  157.0051 H   0  0  0  0  0  0  0  0  0  0  0  0  # atno 8009 bound_to 7997
  154.4444  140.1000  156.6393 H   0  0  0  0  0  0  0  0  0  0  0  0  # atno 8010 bound_to 7997
  140.5360  143.9759  150.6492 H   0  0  0  0  0  0  0  0  0  0  0  0  # atno 10167 bound_to 10162
  157.3158  130.7423  149.6754 H   0  0  0  0  0  0  0  0  0  0  0  0  # atno 10718 bound_to 10713
  152.9811  135.6008  154.3599 H   0  0  0  0  0  0  0  0  0  0  0  0  # atno 10763 bound_to 10752
  154.3281  135.2769  155.2487 H   0  0  0  0  0  0  0  0  0  0  0  0  # atno 10764 bound_to 10752
  154.4623  135.5962  153.6320 H   0  0  0  0  0  0  0  0  0  0  0  0  # atno 10765 bound_to 10752
  141.1010  133.6618  156.4274 H   0  0  0  0  0  0  0  0  0  0  0  0  # atno 11005 bound_to 11000
  146.3186  139.8018  142.8964 LP  0  0  0  0  0  0  0  0  0  0  0  0  # atno 17320 bound_to 7965
  145.3361  141.0277  143.3419 LP  0  0  0  0  0  0  0  0  0  0  0  0  # atno 17321 bound_to 7965
  140.3147  143.3175  152.0844 LP  0  0  0  0  0  0  0  0  0  0  0  0  # atno 17342 bound_to 10162
  139.4971  144.6613  151.6457 LP  0  0  0  0  0  0  0  0  0  0  0  0  # atno 17343 bound_to 10162
  155.9681  130.4237  150.4577 LP  0  0  0  0  0  0  0  0  0  0  0  0  # atno 17370 bound_to 10713
  157.2584  131.0561  151.2336 LP  0  0  0  0  0  0  0  0  0  0  0  0  # atno 17371 bound_to 10713
  140.5021  134.6475  157.5252 LP  0  0  0  0  0  0  0  0  0  0  0  0  # atno 17394 bound_to 11000
  139.9862  134.7058  155.9770 LP  0  0  0  0  0  0  0  0  0  0  0  0  # atno 17395 bound_to 11000

$$$$
