AV-unprocessed.smi:178|AV-procd|sdf|1447|dock5
  -GOLD-   2262019243D 1   1.00000     0.00000
 Structure written by MMmdl.
 50 52  0  0  0  0  0  0  0  0  1 V2000
  151.9201  139.6157  155.6196 C   0  0  0  0  0  0  0  0  0  0  0  0
  151.5058  138.2725  155.7986 O   0  0  0  0  0  0  0  0  0  0  0  0
  151.1651  137.6419  154.5761 C   0  0  0  0  0  0  0  0  0  0  0  0
  150.7604  136.1885  154.8679 C   0  0  0  0  0  0  0  0  0  0  0  0
  149.4792  136.0879  155.5705 N   0  0  0  0  0  0  0  0  0  0  0  0
  149.3860  136.6002  156.9351 C   0  0  0  0  0  0  0  0  0  0  0  0
  148.9520  135.5256  157.9406 C   0  0  0  0  0  0  0  0  0  0  0  0
  148.8230  136.0572  159.3049 C   0  0  0  0  0  0  0  0  0  0  0  0
  148.7221  136.4760  160.3784 N   0  0  0  0  0  0  0  0  0  0  0  0
  148.4542  135.3808  155.0123 C   0  0  0  0  0  0  0  0  0  0  0  0
  147.1839  135.7203  155.3607 N   0  0  0  0  0  0  0  0  0  0  0  0
  146.1348  135.0687  154.8543 C   0  0  0  0  0  0  0  0  0  0  0  0
  146.1233  134.0548  153.9901 N   0  0  0  0  0  0  0  0  0  0  0  0
  147.3887  133.7023  153.6275 C   0  0  0  0  0  0  0  0  0  0  0  0
  148.5996  134.3051  154.0808 C   0  0  0  0  0  0  0  0  0  0  0  0
  149.6794  133.6794  153.4645 N   0  0  0  0  0  0  0  0  0  0  0  0
  149.1432  132.7635  152.7073 C   0  0  0  0  0  0  0  0  0  0  0  0
  147.7709  132.6989  152.7540 N   0  0  0  0  0  0  0  0  0  0  0  0
  146.9181  131.7745  152.0233 C   0  0  0  0  0  0  0  0  0  0  0  0
  146.0809  132.4524  150.9117 C   0  0  1  0  0  0  0  0  0  0  0  0
  146.9590  132.8901  149.8872 O   0  0  0  0  0  0  0  0  0  0  0  0
  145.0689  131.5018  150.2886 C   0  0  0  0  0  0  0  0  0  0  0  0
  144.0063  132.4523  149.7546 C   0  0  0  0  0  0  0  0  0  0  0  0
  143.9164  133.4567  150.7537 O   0  0  0  0  0  0  0  0  0  0  0  0
  145.1778  133.6135  151.4020 C   0  0  2  0  0  0  0  0  0  0  0  0
  145.7070  135.0424  151.1863 C   0  0  0  0  0  0  0  0  0  0  0  0
  152.1778  140.0507  156.5854 H   0  0  0  0  0  0  0  0  0  0  0  0
  151.1244  140.2187  155.1802 H   0  0  0  0  0  0  0  0  0  0  0  0
  152.8000  139.6757  154.9778 H   0  0  0  0  0  0  0  0  0  0  0  0
  150.3438  138.1786  154.0990 H   0  0  0  0  0  0  0  0  0  0  0  0
  152.0162  137.6726  153.8950 H   0  0  0  0  0  0  0  0  0  0  0  0
  150.6861  135.6467  153.9244 H   0  0  0  0  0  0  0  0  0  0  0  0
  151.5435  135.6827  155.4338 H   0  0  0  0  0  0  0  0  0  0  0  0
  150.3637  136.9854  157.2263 H   0  0  0  0  0  0  0  0  0  0  0  0
  148.7214  137.4627  156.9753 H   0  0  0  0  0  0  0  0  0  0  0  0
  147.9910  135.0935  157.6625 H   0  0  0  0  0  0  0  0  0  0  0  0
  149.6759  134.7117  157.9696 H   0  0  0  0  0  0  0  0  0  0  0  0
  145.1663  135.4083  155.1905 H   0  0  0  0  0  0  0  0  0  0  0  0
  149.7399  132.1022  152.0961 H   0  0  0  0  0  0  0  0  0  0  0  0
  147.5441  130.9875  151.6003 H   0  0  0  0  0  0  0  0  0  0  0  0
  146.2602  131.2853  152.7430 H   0  0  0  0  0  0  0  0  0  0  0  0
  147.5318  132.1745  149.6573 H   0  0  0  0  0  0  0  0  0  0  0  0
  145.4902  130.8531  149.5196 H   0  0  0  0  0  0  0  0  0  0  0  0
  144.6241  130.8646  151.0546 H   0  0  0  0  0  0  0  0  0  0  0  0
  144.3278  132.9056  148.8159 H   0  0  0  0  0  0  0  0  0  0  0  0
  143.0463  131.9633  149.5885 H   0  0  0  0  0  0  0  0  0  0  0  0
  144.9737  133.4807  152.4649 H   0  0  0  0  0  0  0  0  0  0  0  0
  146.6796  135.1818  151.6580 H   0  0  0  0  0  0  0  0  0  0  0  0
  145.0233  135.7745  151.6168 H   0  0  0  0  0  0  0  0  0  0  0  0
  145.8102  135.2773  150.1267 H   0  0  0  0  0  0  0  0  0  0  0  0
  1  2  1  0  0  0  0
  1 27  1  0  0  0  0
  1 28  1  0  0  0  0
  1 29  1  0  0  0  0
  2  3  1  0  0  0  0
  3  4  1  0  0  0  0
  3 30  1  0  0  0  0
  3 31  1  0  0  0  0
  4  5  1  0  0  0  0
  4 32  1  0  0  0  0
  4 33  1  0  0  0  0
  5  6  1  0  0  0  0
  5 10  1  0  0  0  0
  6  7  1  0  0  0  0
  6 34  1  0  0  0  0
  6 35  1  0  0  0  0
  7  8  1  0  0  0  0
  7 36  1  0  0  0  0
  7 37  1  0  0  0  0
  8  9  3  0  0  0  0
 10 15  1  0  0  0  0
 10 11  2  0  0  0  0
 11 12  1  0  0  0  0
 12 13  2  0  0  0  0
 12 38  1  0  0  0  0
 13 14  1  0  0  0  0
 14 18  1  0  0  0  0
 14 15  2  0  0  0  0
 15 16  1  0  0  0  0
 16 17  2  0  0  0  0
 17 18  1  0  0  0  0
 17 39  1  0  0  0  0
 18 19  1  0  0  0  0
 19 20  1  0  0  0  0
 19 40  1  0  0  0  0
 19 41  1  0  0  0  0
 20 25  1  0  0  0  0
 20 21  1  0  0  0  0
 20 22  1  0  0  0  0
 21 42  1  0  0  0  0
 22 23  1  0  0  0  0
 22 43  1  0  0  0  0
 22 44  1  0  0  0  0
 23 24  1  0  0  0  0
 23 45  1  0  0  0  0
 23 46  1  0  0  0  0
 24 25  1  0  0  0  0
 25 26  1  0  0  0  0
 25 47  1  0  0  0  0
 26 48  1  0  0  0  0
 26 49  1  0  0  0  0
 26 50  1  0  0  0  0
M  END
> <s_m_source_file>
AV-unprocessed.smi

> <i_m_source_file_index>
178

> <i_lp_mmshare_version>
43012

> <i_f3d_flags>
0

> <s_epik_input>
W0NIM11PW0NIMl1bQ0gyXU4oW0NIMl1bQ0gyXUMjTiljKG5bY0hdbjEpYyhjMTIpbltjSF1uMltDSDJdW0NAQF0zKFtPSF0pW0NIMl1bQ0gyXU9bQ0BIXTNbQ0gzXQ==

> <s_epik_cmdline>
J2VwaWtfcHl0aG9uJywgJy1waCcsICc3LjAnLCAnLXRuJywgJzgnLCAnLW1hJywgJzIwMCcsICctbWV0YWxfYmluZGluZycsICctaW1hZScsICc8aW5maWxlLm1hZT4nLCAnLW9tYWUnLCAnPG91dGZpbGUubWFlPic=

> <r_lp_tautomer_probability>
1

> <r_epik_Ionization_Penalty>
0.000885317

> <r_epik_Ionization_Penalty_Charging>
0

> <r_epik_Ionization_Penalty_Neutral>
0.000885317

> <r_epik_State_Penalty>
0.00047273

> <r_epik_Charging_Adjusted_Penalty>
0.00047273

> <i_epik_Tot_Q>
0

> <i_epik_Tot_abs_Q>
0

> <r_epik_Metal_State_Penalty>
-0

> <b_epik_Metal_Only>
0

> <s_lp_Force_Field>
OPLS_2005

> <r_lp_Energy>
28.3017

> <b_lp_Chiralities_Consistent>
1

> <s_lp_Variant>
AV-unprocessed.smi:178-3

> <Gold.Version>
5.8.1

> <Gold.Id.Protein>
6NUR|6NUR_protein|mol2

> <Gold.PLP.Fitness>
46.1750

> <Gold.PLP.PLP>
-38.3531

> <Gold.PLP.part.hbond>
-3.1303

> <Gold.PLP.part.metal>
0.0000

> <Gold.PLP.part.buried>
-6.2840

> <Gold.PLP.part.nonpolar>
-30.3081

> <Gold.PLP.part.repulsive>
0.5243

> <Gold.PLP.ligand.clash>
0.0000

> <Gold.PLP.ligand.torsion>
0.5872

> <Gold.PLP.Chemscore.Hbond>
1.9510

> <Gold.PLP.Chemscore.CHOScore>
0.9598

> <Gold.PLP.Chemscore.Metal>
0.0000

> <Gold.Chemscore.Hbonds>
donor molecule, donor type, donor heavy atom, donor atom, acceptor molecule, acceptor atom, score
      L1  H    21    42       P1 10747  0.96
      P1  H  6931  6943       L1     9  0.17
      L1  C    17    39       P1 10747  0.72

> <Gold.PLP.Chemscore.Internal.Correction>
0.2640

> <Gold.Rescore>
     Score         DG    S(hbond)    S(metal)    S(lipo)     H(rot)  DE(clash)    DE(int)     intcor
     10.26     -12.63       2.16        0.00      73.17       3.37       0.22       2.14       ----

> <Gold.Chemscore.Fitness>
10.2639

> <Gold.Chemscore.DG>
-12.6252

> <Gold.Chemscore.ZeroCoef>
-5.4800

> <Gold.Chemscore.Hbond>
2.1615

> <Gold.Chemscore.Metal>
0.0000

> <Gold.Chemscore.Lipo>
73.1708

> <Gold.Chemscore.Internal_Hbond>
0.0000

> <Gold.Chemscore.DEClash>
0.2247

> <Gold.Chemscore.DEInternal>
2.1366

> <Gold.Chemscore.Rot>
3.3732

> <Gold.Chemscore.Internal.Correction>
   9.000000E+99

> <Gold.Chemscore.Hbonds>
donor molecule, donor type, donor heavy atom, donor atom, acceptor molecule, acceptor atom, score
      L1  H    21    42       P1 10747  0.86
      P1  H  6931  6943       L1     9  0.18

> <Gold.Chemscore.Hbond.Weighted>
-7.2196

> <Gold.Chemscore.Metal.Weighted>
-0.0000

> <Gold.Chemscore.Lipo.Weighted>
-8.5610

> <Gold.Chemscore.Internal_Hbond.Weighted>
0.0000

> <Gold.Chemscore.DEClash.Weighted>
0.2247

> <Gold.Chemscore.DEInternal.Weighted>
2.1366

> <Gold.Chemscore.Rot.Weighted>
8.6354

> <Gold.Chemscore.Internal.Correction.Weighted>
   9.000000E+99

> <Gold.Protein.RotatedTorsions>
[ 6907 6896 6895 6894 ] final   83.59 input  -60.11 | X-H torsion
[ 7974 7965 7964 7962 ] final   54.81 input  175.53 | X-H torsion
[ 8008 7997 7996 7995 ] final  -24.28 input   59.86 | X-H torsion
[ 10167 10162 10161 10158 ] final -170.97 input  -65.29 | X-H torsion
[ 10718 10713 10712 10709 ] final   10.04 input   66.30 | X-H torsion
[ 10763 10752 10751 10750 ] final  119.13 input  -60.55 | X-H torsion
[ 11005 11000 10999 10996 ] final  116.39 input  -57.11 | X-H torsion

> <Gold.Protein.ActiveResidues>
 VAL166  LYS551  ARG553  GLY616  TRP617  ASP618  TYR619  PRO620  LYS621  CYS622 
 ASP623  PHE694  ASN695  SER759  ASP760  ASP761  ALA762  ILE779  LEU786  VAL792 
 PHE793  MET794  SER795  GLU796  ALA797  LYS798  CYS799  TRP800  GLU811  SER814 

> <Gold.Protein.RotatedAtoms>
  152.5331  134.2872  159.9029 H   0  0  0  0  0  0  0  0  0  0  0  0  # atno 6907 bound_to 6896
  151.2825  133.4196  159.2635 H   0  0  0  0  0  0  0  0  0  0  0  0  # atno 6908 bound_to 6896
  151.0271  134.9528  159.8148 H   0  0  0  0  0  0  0  0  0  0  0  0  # atno 6909 bound_to 6896
  145.9569  139.4023  143.0272 H   0  0  0  0  0  0  0  0  0  0  0  0  # atno 7974 bound_to 7965
  154.4538  140.1958  156.0440 H   0  0  0  0  0  0  0  0  0  0  0  0  # atno 8008 bound_to 7997
  156.0704  140.3285  155.7541 H   0  0  0  0  0  0  0  0  0  0  0  0  # atno 8009 bound_to 7997
  155.5273  140.0575  157.2886 H   0  0  0  0  0  0  0  0  0  0  0  0  # atno 8010 bound_to 7997
  139.5830  144.1381  152.1539 H   0  0  0  0  0  0  0  0  0  0  0  0  # atno 10167 bound_to 10162
  156.9751  130.5984  149.5672 H   0  0  0  0  0  0  0  0  0  0  0  0  # atno 10718 bound_to 10713
  153.5782  135.3489  155.2864 H   0  0  0  0  0  0  0  0  0  0  0  0  # atno 10763 bound_to 10752
  154.8672  135.4176  154.2649 H   0  0  0  0  0  0  0  0  0  0  0  0  # atno 10764 bound_to 10752
  153.3430  135.7051  153.6921 H   0  0  0  0  0  0  0  0  0  0  0  0  # atno 10765 bound_to 10752
  139.9040  134.9597  156.7191 H   0  0  0  0  0  0  0  0  0  0  0  0  # atno 11005 bound_to 11000
  145.8094  140.9733  143.0957 LP  0  0  0  0  0  0  0  0  0  0  0  0  # atno 17320 bound_to 7965
  144.6807  139.9901  143.7484 LP  0  0  0  0  0  0  0  0  0  0  0  0  # atno 17321 bound_to 7965
  140.0938  144.5598  150.7036 LP  0  0  0  0  0  0  0  0  0  0  0  0  # atno 17342 bound_to 10162
  140.7106  143.2502  151.4594 LP  0  0  0  0  0  0  0  0  0  0  0  0  # atno 17343 bound_to 10162
  156.0267  130.5360  150.8425 LP  0  0  0  0  0  0  0  0  0  0  0  0  # atno 17370 bound_to 10713
  157.5565  131.0945  150.9621 LP  0  0  0  0  0  0  0  0  0  0  0  0  # atno 17371 bound_to 10713
  140.7015  133.9302  155.8027 LP  0  0  0  0  0  0  0  0  0  0  0  0  # atno 17394 bound_to 11000
  141.0368  134.0678  157.3950 LP  0  0  0  0  0  0  0  0  0  0  0  0  # atno 17395 bound_to 11000

$$$$
