AV-unprocessed.smi:2061|AV-procd|sdf|8363|dock9
  -GOLD-   2272011 33D 1   1.00000     0.00000
 Structure written by MMmdl.
 45 46  0  0  0  0  0  0  0  0  1 V2000
  142.4446  144.0664  155.0504 C   0  0  0  0  0  0  0  0  0  0  0  0
  143.7474  143.3573  155.1933 C   0  0  0  0  0  0  0  0  0  0  0  0
  145.0421  143.7920  155.2423 C   0  0  0  0  0  0  0  0  0  0  0  0
  145.7787  142.5863  155.3869 C   0  0  0  0  0  0  0  0  0  0  0  0
  147.1940  142.6051  155.4758 N   0  0  0  0  0  0  0  0  0  0  0  0
  148.0219  141.5530  155.5935 C   0  0  0  0  0  0  0  0  0  0  0  0
  147.6662  140.3757  155.6519 O   0  0  0  0  0  0  0  0  0  0  0  0
  149.3026  141.9479  155.6455 N   0  0  0  0  0  0  0  0  0  0  0  0
  150.4620  141.0674  155.7729 C   0  0  0  0  0  0  0  0  0  0  0  0
  150.7974  140.7188  157.2511 C   0  0  1  0  0  0  0  0  0  0  0  0
  151.4566  139.3167  157.3007 C   0  0  0  0  0  0  0  0  0  0  0  0
  151.6113  141.7588  157.9252 N   0  0  0  0  0  0  0  0  0  0  0  0
  152.1188  141.3234  159.2300 C   0  0  0  0  0  0  0  0  0  0  0  0
  152.9865  142.3904  159.9212 C   0  0  2  0  0  0  0  0  0  0  0  0
  153.4413  141.9475  161.3160 C   0  0  0  0  0  0  0  0  0  0  0  0
  152.2377  143.5924  160.0636 O   0  0  0  0  0  0  0  0  0  0  0  0
  151.6939  144.1029  158.8487 C   0  0  1  0  0  0  0  0  0  0  0  0
  152.7735  144.7471  157.9621 C   0  0  0  0  0  0  0  0  0  0  0  0
  150.8774  143.0142  158.1239 C   0  0  0  0  0  0  0  0  0  0  0  0
  145.0040  141.5129  155.4229 N   0  0  0  0  0  0  0  0  0  0  0  0
  143.6982  142.0016  155.2980 O   0  0  0  0  0  0  0  0  0  0  0  0
  142.5644  145.1369  155.2184 H   0  0  0  0  0  0  0  0  0  0  0  0
  141.7171  143.6906  155.7702 H   0  0  0  0  0  0  0  0  0  0  0  0
  142.0360  143.9243  154.0498 H   0  0  0  0  0  0  0  0  0  0  0  0
  145.4006  144.8092  155.1837 H   0  0  0  0  0  0  0  0  0  0  0  0
  147.6221  143.5185  155.4457 H   0  0  0  0  0  0  0  0  0  0  0  0
  149.4942  142.9376  155.5929 H   0  0  0  0  0  0  0  0  0  0  0  0
  150.3374  140.1507  155.1940 H   0  0  0  0  0  0  0  0  0  0  0  0
  151.2723  141.6194  155.3013 H   0  0  0  0  0  0  0  0  0  0  0  0
  149.8474  140.6408  157.7822 H   0  0  0  0  0  0  0  0  0  0  0  0
  150.8796  138.5642  156.7650 H   0  0  0  0  0  0  0  0  0  0  0  0
  151.5389  138.9325  158.3163 H   0  0  0  0  0  0  0  0  0  0  0  0
  152.4552  139.3352  156.8628 H   0  0  0  0  0  0  0  0  0  0  0  0
  151.2845  141.0509  159.8784 H   0  0  0  0  0  0  0  0  0  0  0  0
  152.7396  140.4360  159.1239 H   0  0  0  0  0  0  0  0  0  0  0  0
  153.8745  142.5831  159.3185 H   0  0  0  0  0  0  0  0  0  0  0  0
  154.0284  141.0302  161.2655 H   0  0  0  0  0  0  0  0  0  0  0  0
  152.5878  141.7638  161.9692 H   0  0  0  0  0  0  0  0  0  0  0  0
  154.0608  142.7124  161.7847 H   0  0  0  0  0  0  0  0  0  0  0  0
  151.0054  144.8984  159.1353 H   0  0  0  0  0  0  0  0  0  0  0  0
  152.3226  145.2389  157.0998 H   0  0  0  0  0  0  0  0  0  0  0  0
  153.4848  144.0143  157.5819 H   0  0  0  0  0  0  0  0  0  0  0  0
  153.3328  145.5010  158.5163 H   0  0  0  0  0  0  0  0  0  0  0  0
  150.5590  143.4362  157.1731 H   0  0  0  0  0  0  0  0  0  0  0  0
  149.9705  142.8139  158.6965 H   0  0  0  0  0  0  0  0  0  0  0  0
  1  2  1  0  0  0  0
  1 22  1  0  0  0  0
  1 23  1  0  0  0  0
  1 24  1  0  0  0  0
  2 21  1  0  0  0  0
  2  3  2  0  0  0  0
  3  4  1  0  0  0  0
  3 25  1  0  0  0  0
  4  5  1  0  0  0  0
  4 20  2  0  0  0  0
  5  6  1  0  0  0  0
  5 26  1  0  0  0  0
  6  7  2  0  0  0  0
  6  8  1  0  0  0  0
  8  9  1  0  0  0  0
  8 27  1  0  0  0  0
  9 10  1  0  0  0  0
  9 28  1  0  0  0  0
  9 29  1  0  0  0  0
 10 11  1  0  0  0  0
 10 12  1  0  0  0  0
 10 30  1  0  0  0  0
 11 31  1  0  0  0  0
 11 32  1  0  0  0  0
 11 33  1  0  0  0  0
 12 19  1  0  0  0  0
 12 13  1  0  0  0  0
 13 14  1  0  0  0  0
 13 34  1  0  0  0  0
 13 35  1  0  0  0  0
 14 15  1  0  0  0  0
 14 16  1  0  0  0  0
 14 36  1  0  0  0  0
 15 37  1  0  0  0  0
 15 38  1  0  0  0  0
 15 39  1  0  0  0  0
 16 17  1  0  0  0  0
 17 18  1  0  0  0  0
 17 19  1  0  0  0  0
 17 40  1  0  0  0  0
 18 41  1  0  0  0  0
 18 42  1  0  0  0  0
 18 43  1  0  0  0  0
 19 44  1  0  0  0  0
 19 45  1  0  0  0  0
 20 21  1  0  0  0  0
M  END
> <s_m_source_file>
AV-unprocessed.smi

> <i_m_source_file_index>
2061

> <i_lp_mmshare_version>
43012

> <i_f3d_flags>
0

> <s_epik_input>
W0NIM11jMVtjSF1jKG5vMSlbTkhdQyg9TylbTkhdW0NIMl1bQ0BIXShbQ0gzXSlOMltDSDJdW0NAQEhdKFtDSDNdKU9bQ0BASF0oW0NIM10pW0NIMl0y

> <s_epik_cmdline>
J2VwaWtfcHl0aG9uJywgJy1waCcsICc3LjAnLCAnLXRuJywgJzgnLCAnLW1hJywgJzIwMCcsICctbWV0YWxfYmluZGluZycsICctaW1hZScsICc8aW5maWxlLm1hZT4nLCAnLW9tYWUnLCAnPG91dGZpbGUubWFlPic=

> <r_epik_Ionization_Penalty>
0.214073

> <r_epik_Ionization_Penalty_Charging>
0

> <r_epik_Ionization_Penalty_Neutral>
0.214073

> <r_epik_State_Penalty>
0.204211

> <r_epik_Charging_Adjusted_Penalty>
0.204211

> <i_epik_Tot_Q>
0

> <i_epik_Tot_abs_Q>
0

> <r_epik_Metal_State_Penalty>
0.217067

> <b_epik_Metal_Only>
0

> <s_lp_Force_Field>
OPLS_2005

> <r_lp_Energy>
29.4213

> <b_lp_Chiralities_Consistent>
1

> <s_lp_Variant>
AV-unprocessed.smi:2061-4

> <Gold.Version>
5.8.1

> <Gold.Id.Protein>
6NUR|6NUR_protein|mol2

> <Gold.PLP.Fitness>
40.4149

> <Gold.PLP.PLP>
-36.2732

> <Gold.PLP.part.hbond>
-2.0000

> <Gold.PLP.part.metal>
0.0000

> <Gold.PLP.part.buried>
-5.7361

> <Gold.PLP.part.nonpolar>
-29.3362

> <Gold.PLP.part.repulsive>
0.6022

> <Gold.PLP.ligand.clash>
0.0000

> <Gold.PLP.ligand.torsion>
0.6063

> <Gold.PLP.Chemscore.Hbond>
1.7760

> <Gold.PLP.Chemscore.CHOScore>
0.0000

> <Gold.PLP.Chemscore.Metal>
0.0000

> <Gold.Chemscore.Hbonds>
donor molecule, donor type, donor heavy atom, donor atom, acceptor molecule, acceptor atom, score
      L1  H     5    26       P1  8028  0.75
      L1  H     8    27       P1  8028  0.99

> <Gold.PLP.Chemscore.Internal.Correction>
0.0264

> <Gold.Rescore>
     Score         DG    S(hbond)    S(metal)    S(lipo)     H(rot)  DE(clash)    DE(int)     intcor
     14.36     -16.29       1.05        0.00      96.15       1.55       0.09       1.84       ----

> <Gold.Chemscore.Fitness>
14.3565

> <Gold.Chemscore.DG>
-16.2886

> <Gold.Chemscore.ZeroCoef>
-5.4800

> <Gold.Chemscore.Hbond>
1.0539

> <Gold.Chemscore.Metal>
0.0000

> <Gold.Chemscore.Lipo>
96.1515

> <Gold.Chemscore.Internal_Hbond>
0.0000

> <Gold.Chemscore.DEClash>
0.0944

> <Gold.Chemscore.DEInternal>
1.8377

> <Gold.Chemscore.Rot>
1.5474

> <Gold.Chemscore.Internal.Correction>
   9.000000E+99

> <Gold.Chemscore.Hbonds>
donor molecule, donor type, donor heavy atom, donor atom, acceptor molecule, acceptor atom, score
      L1  H     5    26       P1  8028  0.09
      L1  H     8    27       P1  8028  0.94

> <Gold.Chemscore.Hbond.Weighted>
-3.5201

> <Gold.Chemscore.Metal.Weighted>
-0.0000

> <Gold.Chemscore.Lipo.Weighted>
-11.2497

> <Gold.Chemscore.Internal_Hbond.Weighted>
0.0000

> <Gold.Chemscore.DEClash.Weighted>
0.0944

> <Gold.Chemscore.DEInternal.Weighted>
1.8377

> <Gold.Chemscore.Rot.Weighted>
3.9612

> <Gold.Chemscore.Internal.Correction.Weighted>
   9.000000E+99

> <Gold.Protein.RotatedTorsions>
[ 6907 6896 6895 6894 ] final  126.19 input  -60.11 | X-H torsion
[ 7974 7965 7964 7962 ] final  148.06 input  175.53 | X-H torsion
[ 8008 7997 7996 7995 ] final  162.92 input   59.86 | X-H torsion
[ 10167 10162 10161 10158 ] final  -67.59 input  -65.29 | X-H torsion
[ 10718 10713 10712 10709 ] final   86.42 input   66.30 | X-H torsion
[ 10763 10752 10751 10750 ] final   87.81 input  -60.55 | X-H torsion
[ 11005 11000 10999 10996 ] final  166.59 input  -57.11 | X-H torsion

> <Gold.Protein.ActiveResidues>
 VAL166  LYS551  ARG553  GLY616  TRP617  ASP618  TYR619  PRO620  LYS621  CYS622 
 ASP623  PHE694  ASN695  SER759  ASP760  ASP761  ALA762  ILE779  LEU786  VAL792 
 PHE793  MET794  SER795  GLU796  ALA797  LYS798  CYS799  TRP800  GLU811  SER814 

> <Gold.Protein.RotatedAtoms>
  152.3925  133.6699  159.6249 H   0  0  0  0  0  0  0  0  0  0  0  0  # atno 6907 bound_to 6896
  150.7831  133.8930  159.3327 H   0  0  0  0  0  0  0  0  0  0  0  0  # atno 6908 bound_to 6896
  151.6713  135.0977  160.0250 H   0  0  0  0  0  0  0  0  0  0  0  0  # atno 6909 bound_to 6896
  144.8543  139.6106  143.5959 H   0  0  0  0  0  0  0  0  0  0  0  0  # atno 7974 bound_to 7965
  156.1996  140.1737  156.7927 H   0  0  0  0  0  0  0  0  0  0  0  0  # atno 8008 bound_to 7997
  154.5574  140.0706  156.8796 H   0  0  0  0  0  0  0  0  0  0  0  0  # atno 8009 bound_to 7997
  155.2912  140.3355  155.4255 H   0  0  0  0  0  0  0  0  0  0  0  0  # atno 8010 bound_to 7997
  140.5571  143.2312  151.6800 H   0  0  0  0  0  0  0  0  0  0  0  0  # atno 10167 bound_to 10162
  157.6928  131.0215  150.2970 H   0  0  0  0  0  0  0  0  0  0  0  0  # atno 10718 bound_to 10713
  153.1705  135.4530  154.9896 H   0  0  0  0  0  0  0  0  0  0  0  0  # atno 10763 bound_to 10752
  154.7962  135.3238  154.7662 H   0  0  0  0  0  0  0  0  0  0  0  0  # atno 10764 bound_to 10752
  153.8139  135.6952  153.4891 H   0  0  0  0  0  0  0  0  0  0  0  0  # atno 10765 bound_to 10752
  140.2680  134.7849  157.3650 H   0  0  0  0  0  0  0  0  0  0  0  0  # atno 11005 bound_to 11000
  146.2810  139.6878  142.9229 LP  0  0  0  0  0  0  0  0  0  0  0  0  # atno 17320 bound_to 7965
  145.4437  141.0424  143.2843 LP  0  0  0  0  0  0  0  0  0  0  0  0  # atno 17321 bound_to 7965
  139.5053  144.3723  152.0458 LP  0  0  0  0  0  0  0  0  0  0  0  0  # atno 17342 bound_to 10162
  140.2846  144.3822  150.6108 LP  0  0  0  0  0  0  0  0  0  0  0  0  # atno 17343 bound_to 10162
  156.3492  130.3828  149.7343 LP  0  0  0  0  0  0  0  0  0  0  0  0  # atno 17370 bound_to 10713
  156.4827  130.8048  151.3062 LP  0  0  0  0  0  0  0  0  0  0  0  0  # atno 17371 bound_to 10713
  140.1400  134.4984  155.8038 LP  0  0  0  0  0  0  0  0  0  0  0  0  # atno 17394 bound_to 11000
  141.2181  133.6822  156.7194 LP  0  0  0  0  0  0  0  0  0  0  0  0  # atno 17395 bound_to 11000

$$$$
