AV-unprocessed.smi:1719|AV-procd|sdf|6930|dock5
  -GOLD-   22720 8143D 1   1.00000     0.00000
 Structure written by MMmdl.
 40 41  0  0  0  0  0  0  0  0  1 V2000
  158.4947  137.8535  167.7881 C   0  0  0  0  0  0  0  0  0  0  0  0
  158.0232  138.7073  168.8156 O   0  0  0  0  0  0  0  0  0  0  0  0
  158.0615  140.0752  168.4446 C   0  0  0  0  0  0  0  0  0  0  0  0
  157.2480  140.2736  167.1622 C   0  0  0  0  0  0  0  0  0  0  0  0
  157.0243  141.6670  166.9672 O   0  0  0  0  0  0  0  0  0  0  0  0
  156.2200  142.0642  165.9190 C   0  0  0  0  0  0  0  0  0  0  0  0
  155.9984  143.4421  165.7238 C   0  0  0  0  0  0  0  0  0  0  0  0
  155.1718  143.8558  164.6616 C   0  0  0  0  0  0  0  0  0  0  0  0
  154.5838  142.8732  163.8298 C   0  0  0  0  0  0  0  0  0  0  0  0
  153.7437  143.1615  162.7207 N   0  0  0  0  0  0  0  0  0  0  0  0
  153.3112  142.3273  161.7569 C   0  0  0  0  0  0  0  0  0  0  0  0
  153.5944  141.1311  161.6912 O   0  0  0  0  0  0  0  0  0  0  0  0
  152.4269  142.9608  160.6739 C   0  0  0  0  0  0  0  0  0  0  0  0
  153.0330  142.7746  159.2714 C   0  0  0  0  0  0  0  0  0  0  0  0
  152.1782  143.4952  158.2158 C   0  0  0  0  0  0  0  0  0  0  0  0
  152.0604  144.8760  158.5431 O   0  0  0  0  0  0  0  0  0  0  0  0
  151.4076  145.0987  159.7888 C   0  0  0  0  0  0  0  0  0  0  0  0
  152.2209  144.4648  160.9292 C   0  0  0  0  0  0  0  0  0  0  0  0
  154.8835  141.5217  164.0983 C   0  0  0  0  0  0  0  0  0  0  0  0
  155.6735  141.1183  165.1155 N   0  0  0  0  0  0  0  0  0  0  0  0
  158.4353  136.8163  168.1176 H   0  0  0  0  0  0  0  0  0  0  0  0
  159.5358  138.0684  167.5429 H   0  0  0  0  0  0  0  0  0  0  0  0
  157.8934  137.9545  166.8837 H   0  0  0  0  0  0  0  0  0  0  0  0
  157.6263  140.6758  169.2449 H   0  0  0  0  0  0  0  0  0  0  0  0
  159.0889  140.4141  168.3022 H   0  0  0  0  0  0  0  0  0  0  0  0
  157.7700  139.8320  166.3114 H   0  0  0  0  0  0  0  0  0  0  0  0
  156.2886  139.7644  167.2680 H   0  0  0  0  0  0  0  0  0  0  0  0
  156.4572  144.1701  166.3764 H   0  0  0  0  0  0  0  0  0  0  0  0
  155.0164  144.9112  164.5009 H   0  0  0  0  0  0  0  0  0  0  0  0
  153.4989  144.1343  162.6046 H   0  0  0  0  0  0  0  0  0  0  0  0
  151.4496  142.4742  160.6905 H   0  0  0  0  0  0  0  0  0  0  0  0
  154.0488  143.1721  159.2392 H   0  0  0  0  0  0  0  0  0  0  0  0
  153.1048  141.7138  159.0277 H   0  0  0  0  0  0  0  0  0  0  0  0
  152.6422  143.4050  157.2335 H   0  0  0  0  0  0  0  0  0  0  0  0
  151.1879  143.0430  158.1427 H   0  0  0  0  0  0  0  0  0  0  0  0
  151.3123  146.1728  159.9487 H   0  0  0  0  0  0  0  0  0  0  0  0
  150.3960  144.6907  159.7589 H   0  0  0  0  0  0  0  0  0  0  0  0
  151.7082  144.6212  161.8791 H   0  0  0  0  0  0  0  0  0  0  0  0
  153.1833  144.9736  161.0058 H   0  0  0  0  0  0  0  0  0  0  0  0
  154.4697  140.7360  163.4832 H   0  0  0  0  0  0  0  0  0  0  0  0
  1  2  1  0  0  0  0
  1 21  1  0  0  0  0
  1 22  1  0  0  0  0
  1 23  1  0  0  0  0
  2  3  1  0  0  0  0
  3  4  1  0  0  0  0
  3 24  1  0  0  0  0
  3 25  1  0  0  0  0
  4  5  1  0  0  0  0
  4 26  1  0  0  0  0
  4 27  1  0  0  0  0
  5  6  1  0  0  0  0
  6 20  1  0  0  0  0
  6  7  2  0  0  0  0
  7  8  1  0  0  0  0
  7 28  1  0  0  0  0
  8  9  2  0  0  0  0
  8 29  1  0  0  0  0
  9 10  1  0  0  0  0
  9 19  1  0  0  0  0
 10 11  1  0  0  0  0
 10 30  1  0  0  0  0
 11 12  2  0  0  0  0
 11 13  1  0  0  0  0
 13 18  1  0  0  0  0
 13 14  1  0  0  0  0
 13 31  1  0  0  0  0
 14 15  1  0  0  0  0
 14 32  1  0  0  0  0
 14 33  1  0  0  0  0
 15 16  1  0  0  0  0
 15 34  1  0  0  0  0
 15 35  1  0  0  0  0
 16 17  1  0  0  0  0
 17 18  1  0  0  0  0
 17 36  1  0  0  0  0
 17 37  1  0  0  0  0
 18 38  1  0  0  0  0
 18 39  1  0  0  0  0
 19 20  2  0  0  0  0
 19 40  1  0  0  0  0
M  END
> <s_m_source_file>
AV-unprocessed.smi

> <i_m_source_file_index>
1719

> <i_lp_mmshare_version>
43012

> <i_f3d_flags>
0

> <s_epik_input>
W0NIM11PW0NIMl1bQ0gyXU9jMVtjSF1bY0hdYyhbY0hdbjEpW05IXUMoPU8pW0NIXTJbQ0gyXVtDSDJdT1tDSDJdW0NIMl0y

> <s_epik_cmdline>
J2VwaWtfcHl0aG9uJywgJy1waCcsICc3LjAnLCAnLXRuJywgJzgnLCAnLW1hJywgJzIwMCcsICctbWV0YWxfYmluZGluZycsICctaW1hZScsICc8aW5maWxlLm1hZT4nLCAnLW9tYWUnLCAnPG91dGZpbGUubWFlPic=

> <r_lp_tautomer_probability>
1

> <r_epik_Ionization_Penalty>
2.13501e-05

> <r_epik_Ionization_Penalty_Charging>
0

> <r_epik_Ionization_Penalty_Neutral>
2.13501e-05

> <r_epik_State_Penalty>
-0

> <r_epik_Charging_Adjusted_Penalty>
0

> <i_epik_Tot_Q>
0

> <i_epik_Tot_abs_Q>
0

> <r_epik_Metal_State_Penalty>
-0

> <b_epik_Metal_Only>
0

> <s_lp_Force_Field>
OPLS_2005

> <r_lp_Energy>
15.3527

> <b_lp_Chiralities_Consistent>
1

> <s_lp_Variant>
AV-unprocessed.smi:1719-1

> <Gold.Version>
5.8.1

> <Gold.Id.Protein>
6NUR|6NUR_protein|mol2

> <Gold.PLP.Fitness>
38.1505

> <Gold.PLP.PLP>
-40.5068

> <Gold.PLP.part.hbond>
-1.0000

> <Gold.PLP.part.metal>
0.0000

> <Gold.PLP.part.buried>
-3.5602

> <Gold.PLP.part.nonpolar>
-35.1032

> <Gold.PLP.part.repulsive>
0.1473

> <Gold.PLP.ligand.clash>
2.2179

> <Gold.PLP.ligand.torsion>
0.0847

> <Gold.PLP.Chemscore.Hbond>
0.0000

> <Gold.PLP.Chemscore.CHOScore>
0.0000

> <Gold.PLP.Chemscore.Metal>
0.0000

> <Gold.PLP.Chemscore.Internal.Correction>
0.0310

> <Gold.Rescore>
     Score         DG    S(hbond)    S(metal)    S(lipo)     H(rot)  DE(clash)    DE(int)     intcor
     10.45     -12.40       0.00        0.00      98.34       1.79       0.03       1.92       ----

> <Gold.Chemscore.Fitness>
10.4547

> <Gold.Chemscore.DG>
-12.4044

> <Gold.Chemscore.ZeroCoef>
-5.4800

> <Gold.Chemscore.Hbond>
0.0000

> <Gold.Chemscore.Metal>
0.0000

> <Gold.Chemscore.Lipo>
98.3373

> <Gold.Chemscore.Internal_Hbond>
0.0000

> <Gold.Chemscore.DEClash>
0.0319

> <Gold.Chemscore.DEInternal>
1.9179

> <Gold.Chemscore.Rot>
1.7895

> <Gold.Chemscore.Internal.Correction>
   9.000000E+99

> <Gold.Chemscore.Hbond.Weighted>
-0.0000

> <Gold.Chemscore.Metal.Weighted>
-0.0000

> <Gold.Chemscore.Lipo.Weighted>
-11.5055

> <Gold.Chemscore.Internal_Hbond.Weighted>
0.0000

> <Gold.Chemscore.DEClash.Weighted>
0.0319

> <Gold.Chemscore.DEInternal.Weighted>
1.9179

> <Gold.Chemscore.Rot.Weighted>
4.5810

> <Gold.Chemscore.Internal.Correction.Weighted>
   9.000000E+99

> <Gold.Protein.RotatedTorsions>
[ 6907 6896 6895 6894 ] final  105.73 input  -60.11 | X-H torsion
[ 7974 7965 7964 7962 ] final   59.17 input  175.53 | X-H torsion
[ 8008 7997 7996 7995 ] final   30.43 input   59.86 | X-H torsion
[ 10167 10162 10161 10158 ] final  125.26 input  -65.29 | X-H torsion
[ 10718 10713 10712 10709 ] final  139.19 input   66.30 | X-H torsion
[ 10763 10752 10751 10750 ] final -165.46 input  -60.55 | X-H torsion
[ 11005 11000 10999 10996 ] final  -46.78 input  -57.11 | X-H torsion

> <Gold.Protein.ActiveResidues>
 VAL166  LYS551  ARG553  GLY616  TRP617  ASP618  TYR619  PRO620  LYS621  CYS622 
 ASP623  PHE694  ASN695  SER759  ASP760  ASP761  ALA762  ILE779  LEU786  VAL792 
 PHE793  MET794  SER795  GLU796  ALA797  LYS798  CYS799  TRP800  GLU811  SER814 

> <Gold.Protein.RotatedAtoms>
  152.5220  133.9485  159.7660 H   0  0  0  0  0  0  0  0  0  0  0  0  # atno 6907 bound_to 6896
  150.9800  133.6247  159.2731 H   0  0  0  0  0  0  0  0  0  0  0  0  # atno 6908 bound_to 6896
  151.3427  135.0873  159.9429 H   0  0  0  0  0  0  0  0  0  0  0  0  # atno 6909 bound_to 6896
  145.9102  139.3648  143.0540 H   0  0  0  0  0  0  0  0  0  0  0  0  # atno 7974 bound_to 7965
  155.0903  140.3219  155.4575 H   0  0  0  0  0  0  0  0  0  0  0  0  # atno 8008 bound_to 7997
  156.2744  140.2079  156.5977 H   0  0  0  0  0  0  0  0  0  0  0  0  # atno 8009 bound_to 7997
  154.6908  140.0516  157.0349 H   0  0  0  0  0  0  0  0  0  0  0  0  # atno 8010 bound_to 7997
  139.5696  144.6931  151.3816 H   0  0  0  0  0  0  0  0  0  0  0  0  # atno 10167 bound_to 10162
  157.4171  131.1034  151.0393 H   0  0  0  0  0  0  0  0  0  0  0  0  # atno 10718 bound_to 10713
  154.6930  135.2974  154.9452 H   0  0  0  0  0  0  0  0  0  0  0  0  # atno 10763 bound_to 10752
  154.0409  135.6657  153.4794 H   0  0  0  0  0  0  0  0  0  0  0  0  # atno 10764 bound_to 10752
  153.0625  135.5107  154.8032 H   0  0  0  0  0  0  0  0  0  0  0  0  # atno 10765 bound_to 10752
  141.0600  133.6712  156.3203 H   0  0  0  0  0  0  0  0  0  0  0  0  # atno 11005 bound_to 11000
  145.8681  140.9436  143.0665 LP  0  0  0  0  0  0  0  0  0  0  0  0  # atno 17320 bound_to 7965
  144.6742  140.0619  143.7476 LP  0  0  0  0  0  0  0  0  0  0  0  0  # atno 17321 bound_to 7965
  140.6980  143.7702  150.7357 LP  0  0  0  0  0  0  0  0  0  0  0  0  # atno 17342 bound_to 10162
  140.1204  143.4617  152.2316 LP  0  0  0  0  0  0  0  0  0  0  0  0  # atno 17343 bound_to 10162
  157.1337  130.6113  149.5536 LP  0  0  0  0  0  0  0  0  0  0  0  0  # atno 17370 bound_to 10713
  155.9868  130.4905  150.7098 LP  0  0  0  0  0  0  0  0  0  0  0  0  # atno 17371 bound_to 10713
  140.5888  134.5672  157.5495 LP  0  0  0  0  0  0  0  0  0  0  0  0  # atno 17394 bound_to 11000
  139.9424  134.7763  156.0646 LP  0  0  0  0  0  0  0  0  0  0  0  0  # atno 17395 bound_to 11000

$$$$
