AV-unprocessed.smi:3025|AV-procd|sdf|11507|dock8
  -GOLD-   2272016443D 1   1.00000     0.00000
 Structure written by MMmdl.
 42 43  0  0  0  0  0  0  0  0  2 V2000
  151.9005  142.1509  158.7318 C   0  0  0  0  0  0  0  0  0  0  0  0
  151.5585  141.4882  157.3927 C   0  0  0  0  0  0  0  0  0  0  0  0
  150.2043  141.9569  156.8337 C   0  0  0  0  0  0  0  0  0  0  0  0
  149.8204  141.3137  155.4851 C   0  0  2  0  0  0  0  0  0  0  0  0
  148.3531  141.5889  155.0933 C   0  0  0  0  0  0  0  0  0  0  0  0
  147.9791  140.9189  153.7610 C   0  0  0  0  0  0  0  0  0  0  0  0
  148.2423  139.3995  153.7939 C   0  0  1  0  0  0  0  0  0  0  0  0
  147.9396  138.7651  152.4915 N   0  3  0  0  0  0  0  0  0  0  0  0
  146.5028  138.5849  152.1967 C   0  0  0  0  0  0  0  0  0  0  0  0
  145.9674  137.2953  152.8327 C   0  0  0  0  0  0  0  0  0  0  0  0
  145.3526  136.3869  151.8202 C   0  0  0  0  0  0  0  0  0  0  0  0
  145.9133  136.2098  150.6229 N   0  0  0  0  0  0  0  0  0  0  0  0
  145.0855  135.3067  150.0545 N   0  0  0  0  0  0  0  0  0  0  0  0
  144.1243  134.9991  150.9242 C   0  0  0  0  0  0  0  0  0  0  0  0
  144.2345  135.6424  152.0792 N   0  0  0  0  0  0  0  0  0  0  0  0
  149.7079  139.1284  154.1768 C   0  0  0  0  0  0  0  0  0  0  0  0
  150.0749  139.7932  155.5128 C   0  0  0  0  0  0  0  0  0  0  0  0
  152.8609  141.7967  159.1061 H   0  0  0  0  0  0  0  0  0  0  0  0
  151.1466  141.9269  159.4871 H   0  0  0  0  0  0  0  0  0  0  0  0
  151.9626  143.2346  158.6302 H   0  0  0  0  0  0  0  0  0  0  0  0
  152.3561  141.7062  156.6829 H   0  0  0  0  0  0  0  0  0  0  0  0
  151.5463  140.4054  157.5226 H   0  0  0  0  0  0  0  0  0  0  0  0
  149.4338  141.7174  157.5677 H   0  0  0  0  0  0  0  0  0  0  0  0
  150.2008  143.0436  156.7389 H   0  0  0  0  0  0  0  0  0  0  0  0
  150.4650  141.7413  154.7153 H   0  0  0  0  0  0  0  0  0  0  0  0
  147.6879  141.2295  155.8796 H   0  0  0  0  0  0  0  0  0  0  0  0
  148.1761  142.6605  155.0063 H   0  0  0  0  0  0  0  0  0  0  0  0
  146.9300  141.1245  153.5490 H   0  0  0  0  0  0  0  0  0  0  0  0
  148.5524  141.3759  152.9532 H   0  0  0  0  0  0  0  0  0  0  0  0
  147.6052  138.9417  154.5527 H   0  0  0  0  0  0  0  0  0  0  0  0
  148.3655  139.3114  151.7562 H   0  0  0  0  0  0  0  0  0  0  0  0
  145.9472  139.4432  152.5770 H   0  0  0  0  0  0  0  0  0  0  0  0
  146.3464  138.5503  151.1187 H   0  0  0  0  0  0  0  0  0  0  0  0
  146.7748  136.7639  153.3387 H   0  0  0  0  0  0  0  0  0  0  0  0
  145.2255  137.5317  153.5970 H   0  0  0  0  0  0  0  0  0  0  0  0
  143.3364  134.2911  150.7117 H   0  0  0  0  0  0  0  0  0  0  0  0
  149.8830  138.0540  154.2456 H   0  0  0  0  0  0  0  0  0  0  0  0
  150.3716  139.4997  153.3945 H   0  0  0  0  0  0  0  0  0  0  0  0
  151.1231  139.5944  155.7385 H   0  0  0  0  0  0  0  0  0  0  0  0
  149.4957  139.3371  156.3172 H   0  0  0  0  0  0  0  0  0  0  0  0
  148.3619  137.8476  152.4935 H   0  0  0  0  0  0  0  0  0  0  0  0
  145.2150  134.9449  149.1202 H   0  0  0  0  0  0  0  0  0  0  0  0
  1  2  1  0  0  0  0
  1 18  1  0  0  0  0
  1 19  1  0  0  0  0
  1 20  1  0  0  0  0
  2  3  1  0  0  0  0
  2 21  1  0  0  0  0
  2 22  1  0  0  0  0
  3  4  1  0  0  0  0
  3 23  1  0  0  0  0
  3 24  1  0  0  0  0
  4 17  1  0  0  0  0
  4  5  1  0  0  0  0
  4 25  1  0  0  0  0
  5  6  1  0  0  0  0
  5 26  1  0  0  0  0
  5 27  1  0  0  0  0
  6  7  1  0  0  0  0
  6 28  1  0  0  0  0
  6 29  1  0  0  0  0
  7  8  1  0  0  0  0
  7 16  1  0  0  0  0
  7 30  1  0  0  0  0
  8  9  1  0  0  0  0
  8 31  1  0  0  0  0
  8 41  1  0  0  0  0
  9 10  1  0  0  0  0
  9 32  1  0  0  0  0
  9 33  1  0  0  0  0
 10 34  1  0  0  0  0
 10 35  1  0  0  0  0
 10 11  1  0  0  0  0
 11 15  1  0  0  0  0
 11 12  2  0  0  0  0
 12 13  1  0  0  0  0
 13 14  1  0  0  0  0
 13 42  1  0  0  0  0
 14 15  2  0  0  0  0
 14 36  1  0  0  0  0
 16 17  1  0  0  0  0
 16 37  1  0  0  0  0
 16 38  1  0  0  0  0
 17 39  1  0  0  0  0
 17 40  1  0  0  0  0
M  CHG  1   8   1
M  END
> <s_m_source_file>
AV-unprocessed.smi

> <i_m_source_file_index>
3025

> <i_lp_mmshare_version>
43012

> <i_f3d_flags>
0

> <s_epik_input>
W0NIM11bQ0gyXVtDSDJdW0NAQEhdMVtDSDJdW0NIMl1bQ0BIXShbQ0gyXVtDSDJdMSlbTkhdW0NIMl1bQ0gyXWMybm5bY0hdW25IXTI=

> <s_epik_cmdline>
J2VwaWtfcHl0aG9uJywgJy1waCcsICc3LjAnLCAnLXRuJywgJzgnLCAnLW1hJywgJzIwMCcsICctbWV0YWxfYmluZGluZycsICctaW1hZScsICc8aW5maWxlLm1hZT4nLCAnLW9tYWUnLCAnPG91dGZpbGUubWFlPic=

> <r_epik_Ionization_Penalty>
0.00995411

> <r_epik_Ionization_Penalty_Charging>
0.000442289

> <r_epik_Ionization_Penalty_Neutral>
0.00951182

> <r_epik_State_Penalty>
0.448541

> <r_epik_Charging_Adjusted_Penalty>
0.448983

> <i_epik_Tot_Q>
1

> <i_epik_Tot_abs_Q>
1

> <r_epik_Metal_State_Penalty>
0.682245

> <b_epik_Metal_Only>
0

> <s_lp_Force_Field>
OPLS_2005

> <r_lp_Energy>
10.682

> <b_lp_Chiralities_Consistent>
1

> <s_lp_Variant>
AV-unprocessed.smi:3025-3

> <Gold.Version>
5.8.1

> <Gold.Id.Protein>
6NUR|6NUR_protein|mol2

> <Gold.PLP.Fitness>
44.6208

> <Gold.PLP.PLP>
-31.6364

> <Gold.PLP.part.hbond>
-2.7912

> <Gold.PLP.part.metal>
0.0000

> <Gold.PLP.part.buried>
-2.4267

> <Gold.PLP.part.nonpolar>
-27.7932

> <Gold.PLP.part.repulsive>
0.5747

> <Gold.PLP.ligand.clash>
0.0000

> <Gold.PLP.ligand.torsion>
1.0157

> <Gold.PLP.Chemscore.Hbond>
3.9913

> <Gold.PLP.Chemscore.CHOScore>
1.0000

> <Gold.PLP.Chemscore.Metal>
0.0000

> <Gold.Chemscore.Hbonds>
donor molecule, donor type, donor heavy atom, donor atom, acceptor molecule, acceptor atom, score
      L1  H     8    31       P1  7957  0.99
      L1  H     8    41       P1  7948  2.00
      L1  H    13    42       P1  7921  1.00
      L1  C    14    36       P1 10186  0.83

> <Gold.PLP.Chemscore.Internal.Correction>
0.0421

> <Gold.Rescore>
     Score         DG    S(hbond)    S(metal)    S(lipo)     H(rot)  DE(clash)    DE(int)     intcor
     16.42     -17.31       2.83        0.00      76.18       2.56       0.12       0.78       ----

> <Gold.Chemscore.Fitness>
16.4151

> <Gold.Chemscore.DG>
-17.3074

> <Gold.Chemscore.ZeroCoef>
-5.4800

> <Gold.Chemscore.Hbond>
2.8349

> <Gold.Chemscore.Metal>
0.0000

> <Gold.Chemscore.Lipo>
76.1795

> <Gold.Chemscore.Internal_Hbond>
0.0000

> <Gold.Chemscore.DEClash>
0.1159

> <Gold.Chemscore.DEInternal>
0.7764

> <Gold.Chemscore.Rot>
2.5602

> <Gold.Chemscore.Internal.Correction>
   9.000000E+99

> <Gold.Chemscore.Hbonds>
donor molecule, donor type, donor heavy atom, donor atom, acceptor molecule, acceptor atom, score
      L1  H     8    31       P1  7957  0.88
      L1  H     8    41       P1  7948  0.99
      L1  H    13    42       P1  7921  0.95

> <Gold.Chemscore.Hbond.Weighted>
-9.4686

> <Gold.Chemscore.Metal.Weighted>
-0.0000

> <Gold.Chemscore.Lipo.Weighted>
-8.9130

> <Gold.Chemscore.Internal_Hbond.Weighted>
0.0000

> <Gold.Chemscore.DEClash.Weighted>
0.1159

> <Gold.Chemscore.DEInternal.Weighted>
0.7764

> <Gold.Chemscore.Rot.Weighted>
6.5542

> <Gold.Chemscore.Internal.Correction.Weighted>
   9.000000E+99

> <Gold.Protein.RotatedTorsions>
[ 6907 6896 6895 6894 ] final  120.52 input  -60.11 | X-H torsion
[ 7974 7965 7964 7962 ] final   41.51 input  175.53 | X-H torsion
[ 8008 7997 7996 7995 ] final  120.99 input   59.86 | X-H torsion
[ 10167 10162 10161 10158 ] final -174.80 input  -65.29 | X-H torsion
[ 10718 10713 10712 10709 ] final  -92.68 input   66.30 | X-H torsion
[ 10763 10752 10751 10750 ] final   88.79 input  -60.55 | X-H torsion
[ 11005 11000 10999 10996 ] final   56.18 input  -57.11 | X-H torsion

> <Gold.Protein.ActiveResidues>
 VAL166  LYS551  ARG553  GLY616  TRP617  ASP618  TYR619  PRO620  LYS621  CYS622 
 ASP623  PHE694  ASN695  SER759  ASP760  ASP761  ALA762  ILE779  LEU786  VAL792 
 PHE793  MET794  SER795  GLU796  ALA797  LYS798  CYS799  TRP800  GLU811  SER814 

> <Gold.Protein.RotatedAtoms>
  152.4392  133.7416  159.6643 H   0  0  0  0  0  0  0  0  0  0  0  0  # atno 6907 bound_to 6896
  150.8280  133.8129  159.3116 H   0  0  0  0  0  0  0  0  0  0  0  0  # atno 6908 bound_to 6896
  151.5791  135.1061  160.0065 H   0  0  0  0  0  0  0  0  0  0  0  0  # atno 6909 bound_to 6896
  146.0817  139.5407  142.9532 H   0  0  0  0  0  0  0  0  0  0  0  0  # atno 7974 bound_to 7965
  156.2667  140.2818  156.1236 H   0  0  0  0  0  0  0  0  0  0  0  0  # atno 8008 bound_to 7997
  155.1129  140.0391  157.2746 H   0  0  0  0  0  0  0  0  0  0  0  0  # atno 8009 bound_to 7997
  154.6729  140.2592  155.6994 H   0  0  0  0  0  0  0  0  0  0  0  0  # atno 8010 bound_to 7997
  139.5614  144.1860  152.1245 H   0  0  0  0  0  0  0  0  0  0  0  0  # atno 10167 bound_to 10162
  156.0005  130.4997  150.5662 H   0  0  0  0  0  0  0  0  0  0  0  0  # atno 10718 bound_to 10713
  153.1804  135.4494  155.0021 H   0  0  0  0  0  0  0  0  0  0  0  0  # atno 10763 bound_to 10752
  154.8026  135.3262  154.7514 H   0  0  0  0  0  0  0  0  0  0  0  0  # atno 10764 bound_to 10752
  153.7979  135.6965  153.4915 H   0  0  0  0  0  0  0  0  0  0  0  0  # atno 10765 bound_to 10752
  140.0549  134.5685  155.9220 H   0  0  0  0  0  0  0  0  0  0  0  0  # atno 11005 bound_to 11000
  145.6205  141.0323  143.1917 LP  0  0  0  0  0  0  0  0  0  0  0  0  # atno 17320 bound_to 7965
  144.7298  139.7762  143.7351 LP  0  0  0  0  0  0  0  0  0  0  0  0  # atno 17321 bound_to 7965
  140.1374  144.5233  150.6765 LP  0  0  0  0  0  0  0  0  0  0  0  0  # atno 17342 bound_to 10162
  140.6894  143.2368  151.5171 LP  0  0  0  0  0  0  0  0  0  0  0  0  # atno 17343 bound_to 10162
  157.3564  131.0742  151.1672 LP  0  0  0  0  0  0  0  0  0  0  0  0  # atno 17370 bound_to 10713
  157.2471  130.6596  149.5915 LP  0  0  0  0  0  0  0  0  0  0  0  0  # atno 17371 bound_to 10713
  141.1947  133.6584  156.5608 LP  0  0  0  0  0  0  0  0  0  0  0  0  # atno 17394 bound_to 11000
  140.3860  134.7482  157.4691 LP  0  0  0  0  0  0  0  0  0  0  0  0  # atno 17395 bound_to 11000

$$$$
