AV-unprocessed.smi:21|AV-procd|sdf|140|dock5
  -GOLD-   2262015343D 1   1.00000     0.00000
 Structure written by MMmdl.
 62 65  0  0  0  0  0  0  0  0  2 V2000
  143.5506  132.9319  151.3676 C   0  0  0  0  0  0  0  0  0  0  0  0
  144.4601  131.8490  151.2587 O   0  0  0  0  0  0  0  0  0  0  0  0
  145.3732  131.7665  152.3426 C   0  0  2  0  0  0  0  0  0  0  0  0
  146.3059  132.9692  152.3471 C   0  0  0  0  0  0  0  0  0  0  0  0
  147.5052  132.4705  153.1587 C   0  0  2  0  0  0  0  0  0  0  0  0
  148.8122  133.2434  152.8906 C   0  0  0  0  0  0  0  0  0  0  0  0
  149.5169  133.6026  154.1247 N   0  0  0  0  0  0  0  0  0  0  0  0
  150.3588  132.5849  154.7423 C   0  0  0  0  0  0  0  0  0  0  0  0
  149.2062  134.7449  154.8072 C   0  0  0  0  0  0  0  0  0  0  0  0
  147.9030  135.1334  154.8541 N   0  0  0  0  0  0  0  0  0  0  0  0
  147.5341  136.2385  155.5058 C   0  0  0  0  0  0  0  0  0  0  0  0
  148.2957  137.1017  156.1756 N   0  0  0  0  0  0  0  0  0  0  0  0
  149.6065  136.7315  156.1375 C   0  0  0  0  0  0  0  0  0  0  0  0
  150.1468  135.5823  155.4872 C   0  0  0  0  0  0  0  0  0  0  0  0
  151.5243  135.5505  155.6898 N   0  0  0  0  0  0  0  0  0  0  0  0
  151.7792  136.6107  156.4052 C   0  0  0  0  0  0  0  0  0  0  0  0
  150.6835  137.3816  156.7124 N   0  0  0  0  0  0  0  0  0  0  0  0
  150.6693  138.6084  157.4888 C   0  0  0  0  0  0  0  0  0  0  0  0
  151.0088  139.8728  156.6521 C   0  0  2  0  0  0  0  0  0  0  0  0
  152.0306  139.5856  155.5252 C   0  0  0  0  0  0  0  0  0  0  0  0
  153.2892  139.1964  156.0353 O   0  0  0  0  0  0  0  0  0  0  0  0
  151.4876  141.0719  157.5137 C   0  0  2  0  0  0  0  0  0  0  0  0
  152.6243  140.8101  158.4852 C   0  0  0  0  0  0  0  0  0  0  0  0
  152.5615  142.0568  159.3616 C   0  0  0  0  0  0  0  0  0  0  0  0
  151.1823  142.4085  159.4327 O   0  0  0  0  0  0  0  0  0  0  0  0
  150.4421  141.7155  158.4300 C   0  0  0  0  0  0  0  0  0  0  0  0
  147.6367  131.0385  152.7987 N   0  3  1  0  0  0  0  0  0  0  0  0
  148.1401  130.1812  153.8942 C   0  0  0  0  0  0  0  0  0  0  0  0
  146.3448  130.5846  152.2298 C   0  0  0  0  0  0  0  0  0  0  0  0
  144.8437  131.7304  153.2968 H   0  0  0  0  0  0  0  0  0  0  0  0
  147.2467  132.5355  154.2175 H   0  0  0  0  0  0  0  0  0  0  0  0
  142.8957  132.9464  150.4964 H   0  0  0  0  0  0  0  0  0  0  0  0
  144.0771  133.8864  151.4065 H   0  0  0  0  0  0  0  0  0  0  0  0
  142.9231  132.8417  152.2549 H   0  0  0  0  0  0  0  0  0  0  0  0
  146.6108  133.2007  151.3254 H   0  0  0  0  0  0  0  0  0  0  0  0
  145.8451  133.8617  152.7715 H   0  0  0  0  0  0  0  0  0  0  0  0
  149.4842  132.6148  152.3058 H   0  0  0  0  0  0  0  0  0  0  0  0
  148.6202  134.1080  152.2555 H   0  0  0  0  0  0  0  0  0  0  0  0
  149.8654  132.1520  155.6129 H   0  0  0  0  0  0  0  0  0  0  0  0
  151.3157  133.0078  155.0492 H   0  0  0  0  0  0  0  0  0  0  0  0
  150.5688  131.7743  154.0441 H   0  0  0  0  0  0  0  0  0  0  0  0
  146.4778  136.4636  155.4870 H   0  0  0  0  0  0  0  0  0  0  0  0
  152.7800  136.8644  156.7232 H   0  0  0  0  0  0  0  0  0  0  0  0
  149.6819  138.6856  157.9404 H   0  0  0  0  0  0  0  0  0  0  0  0
  151.3744  138.4952  158.3124 H   0  0  0  0  0  0  0  0  0  0  0  0
  150.0895  140.2117  156.1716 H   0  0  0  0  0  0  0  0  0  0  0  0
  151.6847  138.7687  154.8915 H   0  0  0  0  0  0  0  0  0  0  0  0
  152.1515  140.4555  154.8786 H   0  0  0  0  0  0  0  0  0  0  0  0
  153.1640  138.8247  156.8951 H   0  0  0  0  0  0  0  0  0  0  0  0
  151.8173  141.8605  156.8347 H   0  0  0  0  0  0  0  0  0  0  0  0
  152.4327  139.9291  159.0972 H   0  0  0  0  0  0  0  0  0  0  0  0
  153.5903  140.6855  157.9953 H   0  0  0  0  0  0  0  0  0  0  0  0
  152.9843  141.8930  160.3532 H   0  0  0  0  0  0  0  0  0  0  0  0
  153.1059  142.8778  158.8932 H   0  0  0  0  0  0  0  0  0  0  0  0
  149.7827  142.3942  157.8886 H   0  0  0  0  0  0  0  0  0  0  0  0
  149.8179  140.9769  158.9299 H   0  0  0  0  0  0  0  0  0  0  0  0
  147.4443  130.1672  154.7343 H   0  0  0  0  0  0  0  0  0  0  0  0
  149.1046  130.5409  154.2538 H   0  0  0  0  0  0  0  0  0  0  0  0
  148.2744  129.1572  153.5441 H   0  0  0  0  0  0  0  0  0  0  0  0
  145.9518  129.6928  152.7204 H   0  0  0  0  0  0  0  0  0  0  0  0
  146.5167  130.3333  151.1824 H   0  0  0  0  0  0  0  0  0  0  0  0
  148.3077  130.9886  152.0452 H   0  0  0  0  0  0  0  0  0  0  0  0
  1  2  1  0  0  0  0
  1 32  1  0  0  0  0
  1 33  1  0  0  0  0
  1 34  1  0  0  0  0
  2  3  1  0  0  0  0
  3 30  1  0  0  0  0
  3 29  1  0  0  0  0
  3  4  1  0  0  0  0
  4  5  1  0  0  0  0
  4 35  1  0  0  0  0
  4 36  1  0  0  0  0
  5 31  1  0  0  0  0
  5  6  1  0  0  0  0
  5 27  1  0  0  0  0
  6  7  1  0  0  0  0
  6 37  1  0  0  0  0
  6 38  1  0  0  0  0
  7  8  1  0  0  0  0
  7  9  1  0  0  0  0
  8 39  1  0  0  0  0
  8 40  1  0  0  0  0
  8 41  1  0  0  0  0
  9 14  1  0  0  0  0
  9 10  2  0  0  0  0
 10 11  1  0  0  0  0
 11 12  2  0  0  0  0
 11 42  1  0  0  0  0
 12 13  1  0  0  0  0
 13 17  1  0  0  0  0
 13 14  2  0  0  0  0
 14 15  1  0  0  0  0
 15 16  2  0  0  0  0
 16 17  1  0  0  0  0
 16 43  1  0  0  0  0
 17 18  1  0  0  0  0
 18 19  1  0  0  0  0
 18 44  1  0  0  0  0
 18 45  1  0  0  0  0
 19 20  1  0  0  0  0
 19 22  1  0  0  0  0
 19 46  1  0  0  0  0
 20 21  1  0  0  0  0
 20 47  1  0  0  0  0
 20 48  1  0  0  0  0
 21 49  1  0  0  0  0
 22 26  1  0  0  0  0
 22 23  1  0  0  0  0
 22 50  1  0  0  0  0
 23 24  1  0  0  0  0
 23 51  1  0  0  0  0
 23 52  1  0  0  0  0
 24 25  1  0  0  0  0
 24 53  1  0  0  0  0
 24 54  1  0  0  0  0
 25 26  1  0  0  0  0
 26 55  1  0  0  0  0
 26 56  1  0  0  0  0
 27 28  1  0  0  0  0
 27 29  1  0  0  0  0
 27 62  1  0  0  0  0
 28 57  1  0  0  0  0
 28 58  1  0  0  0  0
 28 59  1  0  0  0  0
 29 60  1  0  0  0  0
 29 61  1  0  0  0  0
M  CHG  1  27   1
M  END
> <s_m_source_file>
AV-unprocessed.smi

> <i_m_source_file_index>
21

> <i_lp_mmshare_version>
43012

> <i_f3d_flags>
0

> <s_epik_input>
W0NIM11PW0NASF0xW0NIMl1bQ0BIXShOKFtDSDNdKVtDSDJdMSlbQ0gyXU4oW0NIM10pYyhuW2NIXW4yKWMoYzIzKW5bY0hdbjNbQ0gyXVtDQEhdKFtDSDJdW09IXSlbQ0BASF00W0NIMl1bQ0gyXU9bQ0gyXTQ=

> <s_epik_cmdline>
J2VwaWtfcHl0aG9uJywgJy1waCcsICc3LjAnLCAnLXRuJywgJzgnLCAnLW1hJywgJzIwMCcsICctbWV0YWxfYmluZGluZycsICctaW1hZScsICc8aW5maWxlLm1hZT4nLCAnLW9tYWUnLCAnPG91dGZpbGUubWFlPic=

> <r_lp_tautomer_probability>
1

> <r_epik_Ionization_Penalty>
0.0157465

> <r_epik_Ionization_Penalty_Charging>
0.015354

> <r_epik_Ionization_Penalty_Neutral>
0.000392529

> <r_epik_State_Penalty>
0.0120612

> <r_epik_Charging_Adjusted_Penalty>
0.0274152

> <i_epik_Tot_Q>
1

> <i_epik_Tot_abs_Q>
1

> <r_epik_Metal_State_Penalty>
0.0121253

> <b_epik_Metal_Only>
0

> <s_lp_Force_Field>
OPLS_2005

> <r_lp_Energy>
59.0143

> <b_lp_Chiralities_Consistent>
1

> <s_lp_Variant>
AV-unprocessed.smi:21-20

> <Gold.Version>
5.8.1

> <Gold.Id.Protein>
6NUR|6NUR_protein|mol2

> <Gold.PLP.Fitness>
48.0848

> <Gold.PLP.PLP>
-43.3862

> <Gold.PLP.part.hbond>
-3.4848

> <Gold.PLP.part.metal>
0.0000

> <Gold.PLP.part.buried>
-7.1772

> <Gold.PLP.part.nonpolar>
-33.1088

> <Gold.PLP.part.repulsive>
0.3336

> <Gold.PLP.ligand.clash>
0.0000

> <Gold.PLP.ligand.torsion>
2.4391

> <Gold.PLP.Chemscore.Hbond>
2.9760

> <Gold.PLP.Chemscore.CHOScore>
0.0000

> <Gold.PLP.Chemscore.Metal>
0.0000

> <Gold.Chemscore.Hbonds>
donor molecule, donor type, donor heavy atom, donor atom, acceptor molecule, acceptor atom, score
      L1  H    27    62       P1 10747  1.00
      P1  H  7997  8009       L1    21  0.56
      P1  H 10752 10765       L1    15  0.95

> <Gold.PLP.Chemscore.Internal.Correction>
0.6488

> <Gold.Rescore>
     Score         DG    S(hbond)    S(metal)    S(lipo)     H(rot)  DE(clash)    DE(int)     intcor
     13.49     -16.20       2.42        0.00      89.85       3.08       0.15       2.56       ----

> <Gold.Chemscore.Fitness>
13.4868

> <Gold.Chemscore.DG>
-16.1994

> <Gold.Chemscore.ZeroCoef>
-5.4800

> <Gold.Chemscore.Hbond>
2.4197

> <Gold.Chemscore.Metal>
0.0000

> <Gold.Chemscore.Lipo>
89.8453

> <Gold.Chemscore.Internal_Hbond>
0.0000

> <Gold.Chemscore.DEClash>
0.1527

> <Gold.Chemscore.DEInternal>
2.5599

> <Gold.Chemscore.Rot>
3.0758

> <Gold.Chemscore.Internal.Correction>
   9.000000E+99

> <Gold.Chemscore.Hbonds>
donor molecule, donor type, donor heavy atom, donor atom, acceptor molecule, acceptor atom, score
      L1  H    27    62       P1 10747  0.99
      P1  H  7997  8009       L1    21  0.06
      P1  H 10752 10765       L1    15  0.21

> <Gold.Chemscore.Hbond.Weighted>
-8.0816

> <Gold.Chemscore.Metal.Weighted>
-0.0000

> <Gold.Chemscore.Lipo.Weighted>
-10.5119

> <Gold.Chemscore.Internal_Hbond.Weighted>
0.0000

> <Gold.Chemscore.DEClash.Weighted>
0.1527

> <Gold.Chemscore.DEInternal.Weighted>
2.5599

> <Gold.Chemscore.Rot.Weighted>
7.8741

> <Gold.Chemscore.Internal.Correction.Weighted>
   9.000000E+99

> <Gold.Protein.RotatedTorsions>
[ 6907 6896 6895 6894 ] final  173.09 input  -60.11 | X-H torsion
[ 7974 7965 7964 7962 ] final  -33.52 input  175.53 | X-H torsion
[ 8008 7997 7996 7995 ] final -171.06 input   59.86 | X-H torsion
[ 10167 10162 10161 10158 ] final  -43.14 input  -65.29 | X-H torsion
[ 10718 10713 10712 10709 ] final -169.70 input   66.30 | X-H torsion
[ 10763 10752 10751 10750 ] final -173.87 input  -60.55 | X-H torsion
[ 11005 11000 10999 10996 ] final  -12.33 input  -57.11 | X-H torsion

> <Gold.Protein.ActiveResidues>
 VAL166  LYS551  ARG553  GLY616  TRP617  ASP618  TYR619  PRO620  LYS621  CYS622 
 ASP623  PHE694  ASN695  SER759  ASP760  ASP761  ALA762  ILE779  LEU786  VAL792 
 PHE793  MET794  SER795  GLU796  ALA797  LYS798  CYS799  TRP800  GLU811  SER814 

> <Gold.Protein.RotatedAtoms>
  151.7738  133.3343  159.3451 H   0  0  0  0  0  0  0  0  0  0  0  0  # atno 6907 bound_to 6896
  150.7451  134.5994  159.6038 H   0  0  0  0  0  0  0  0  0  0  0  0  # atno 6908 bound_to 6896
  152.3323  134.7245  160.0338 H   0  0  0  0  0  0  0  0  0  0  0  0  # atno 6909 bound_to 6896
  146.0903  140.5927  142.8867 H   0  0  0  0  0  0  0  0  0  0  0  0  # atno 7974 bound_to 7965
  155.9266  140.1083  157.1165 H   0  0  0  0  0  0  0  0  0  0  0  0  # atno 8008 bound_to 7997
  154.4063  140.1245  156.4814 H   0  0  0  0  0  0  0  0  0  0  0  0  # atno 8009 bound_to 7997
  155.7131  140.3470  155.4985 H   0  0  0  0  0  0  0  0  0  0  0  0  # atno 8010 bound_to 7997
  140.6944  143.2999  151.3310 H   0  0  0  0  0  0  0  0  0  0  0  0  # atno 10167 bound_to 10162
  156.7154  130.9249  151.3093 H   0  0  0  0  0  0  0  0  0  0  0  0  # atno 10718 bound_to 10713
  154.6029  135.2856  155.0516 H   0  0  0  0  0  0  0  0  0  0  0  0  # atno 10763 bound_to 10752
  154.1774  135.6462  153.5029 H   0  0  0  0  0  0  0  0  0  0  0  0  # atno 10764 bound_to 10752
  153.0164  135.5415  154.6754 H   0  0  0  0  0  0  0  0  0  0  0  0  # atno 10765 bound_to 10752
  140.7646  133.8488  155.9154 H   0  0  0  0  0  0  0  0  0  0  0  0  # atno 11005 bound_to 11000
  144.7356  140.4797  143.6906 LP  0  0  0  0  0  0  0  0  0  0  0  0  # atno 17320 bound_to 7965
  145.6051  139.1507  143.3107 LP  0  0  0  0  0  0  0  0  0  0  0  0  # atno 17321 bound_to 7965
  139.6383  144.0588  152.2533 LP  0  0  0  0  0  0  0  0  0  0  0  0  # atno 17342 bound_to 10162
  140.0085  144.6241  150.7667 LP  0  0  0  0  0  0  0  0  0  0  0  0  # atno 17343 bound_to 10162
  157.6919  130.9242  150.0538 LP  0  0  0  0  0  0  0  0  0  0  0  0  # atno 17370 bound_to 10713
  156.1631  130.3644  149.9270 LP  0  0  0  0  0  0  0  0  0  0  0  0  # atno 17371 bound_to 10713
  140.9631  134.1629  157.4638 LP  0  0  0  0  0  0  0  0  0  0  0  0  # atno 17394 bound_to 11000
  139.8765  134.9952  156.5731 LP  0  0  0  0  0  0  0  0  0  0  0  0  # atno 17395 bound_to 11000

$$$$
