AV-unprocessed.smi:1501|AV-procd|sdf|6064|dock4
  -GOLD-   22720 6183D 1   1.00000     0.00000
 Structure written by MMmdl.
 49 50  0  0  0  0  0  0  0  0  1 V2000
  151.7116  138.0796  154.8862 C   0  0  0  0  0  0  0  0  0  0  0  0
  151.0028  139.3950  155.1558 C   0  0  0  0  0  0  0  0  0  0  0  0
  151.5391  140.1721  156.1900 N   0  0  0  0  0  0  0  0  0  0  0  0
  151.0077  141.3147  156.4942 C   0  0  0  0  0  0  0  0  0  0  0  0
  151.4442  142.1759  157.5049 N   0  0  0  0  0  0  0  0  0  0  0  0
  151.1728  143.6103  157.4046 C   0  0  0  0  0  0  0  0  0  0  0  0
  152.1707  144.4323  158.2373 C   0  0  0  0  0  0  0  0  0  0  0  0
  152.1523  143.9844  159.5855 O   0  0  0  0  0  0  0  0  0  0  0  0
  152.5479  142.6232  159.6823 C   0  0  0  0  0  0  0  0  0  0  0  0
  151.5629  141.7389  158.8991 C   0  0  0  0  0  0  0  0  0  0  0  0
  149.8857  141.7736  155.7945 N   0  0  0  0  0  0  0  0  0  0  0  0
  149.2981  141.1031  154.7791 C   0  0  0  0  0  0  0  0  0  0  0  0
  148.3199  141.5769  154.2030 O   0  0  0  0  0  0  0  0  0  0  0  0
  149.9190  139.8116  154.4437 C   0  0  0  0  0  0  0  0  0  0  0  0
  149.2953  138.9920  153.3175 C   0  0  0  0  0  0  0  0  0  0  0  0
  147.8450  138.5844  153.6357 C   0  0  0  0  0  0  0  0  0  0  0  0
  147.2069  137.7615  152.5143 C   0  0  0  0  0  0  0  0  0  0  0  0
  147.1716  138.1988  151.3639 O   0  0  0  0  0  0  0  0  0  0  0  0
  146.7124  136.5645  152.8607 N   0  0  0  0  0  0  0  0  0  0  0  0
  146.0821  135.6318  151.9350 C   0  0  0  0  0  0  0  0  0  0  0  0
  146.6805  134.2168  152.0560 C   0  0  0  0  0  0  0  0  0  0  0  0
  146.0209  133.2147  151.0924 C   0  0  0  0  0  0  0  0  0  0  0  0
  146.5941  133.7126  153.5041 C   0  0  0  0  0  0  0  0  0  0  0  0
  149.4853  142.6623  156.0571 H   0  0  0  0  0  0  0  0  0  0  0  0
  151.9804  137.9952  153.8329 H   0  0  0  0  0  0  0  0  0  0  0  0
  151.0685  137.2399  155.1496 H   0  0  0  0  0  0  0  0  0  0  0  0
  152.6282  137.9964  155.4713 H   0  0  0  0  0  0  0  0  0  0  0  0
  151.2246  143.9399  156.3661 H   0  0  0  0  0  0  0  0  0  0  0  0
  150.1552  143.8011  157.7481 H   0  0  0  0  0  0  0  0  0  0  0  0
  153.1787  144.3518  157.8268 H   0  0  0  0  0  0  0  0  0  0  0  0
  151.9005  145.4880  158.2106 H   0  0  0  0  0  0  0  0  0  0  0  0
  153.5647  142.4987  159.3068 H   0  0  0  0  0  0  0  0  0  0  0  0
  152.5591  142.3317  160.7326 H   0  0  0  0  0  0  0  0  0  0  0  0
  150.5761  141.7857  159.3617 H   0  0  0  0  0  0  0  0  0  0  0  0
  151.8940  140.7033  158.9741 H   0  0  0  0  0  0  0  0  0  0  0  0
  149.3227  139.5570  152.3860 H   0  0  0  0  0  0  0  0  0  0  0  0
  149.9084  138.1087  153.1309 H   0  0  0  0  0  0  0  0  0  0  0  0
  147.8151  137.9921  154.5509 H   0  0  0  0  0  0  0  0  0  0  0  0
  147.2449  139.4761  153.8236 H   0  0  0  0  0  0  0  0  0  0  0  0
  146.7827  136.2781  153.8262 H   0  0  0  0  0  0  0  0  0  0  0  0
  145.0105  135.5984  152.1399 H   0  0  0  0  0  0  0  0  0  0  0  0
  146.1997  136.0046  150.9163 H   0  0  0  0  0  0  0  0  0  0  0  0
  147.7384  134.2777  151.7962 H   0  0  0  0  0  0  0  0  0  0  0  0
  144.9506  133.1291  151.2827 H   0  0  0  0  0  0  0  0  0  0  0  0
  146.4573  132.2216  151.2020 H   0  0  0  0  0  0  0  0  0  0  0  0
  146.1517  133.5105  150.0514 H   0  0  0  0  0  0  0  0  0  0  0  0
  145.5574  133.6219  153.8310 H   0  0  0  0  0  0  0  0  0  0  0  0
  147.1003  134.3934  154.1891 H   0  0  0  0  0  0  0  0  0  0  0  0
  147.0629  132.7337  153.6086 H   0  0  0  0  0  0  0  0  0  0  0  0
  1  2  1  0  0  0  0
  1 25  1  0  0  0  0
  1 26  1  0  0  0  0
  1 27  1  0  0  0  0
  2 14  2  0  0  0  0
  2  3  1  0  0  0  0
  3  4  2  0  0  0  0
  4  5  1  0  0  0  0
  4 11  1  0  0  0  0
  5 10  1  0  0  0  0
  5  6  1  0  0  0  0
  6  7  1  0  0  0  0
  6 28  1  0  0  0  0
  6 29  1  0  0  0  0
  7  8  1  0  0  0  0
  7 30  1  0  0  0  0
  7 31  1  0  0  0  0
  8  9  1  0  0  0  0
  9 10  1  0  0  0  0
  9 32  1  0  0  0  0
  9 33  1  0  0  0  0
 10 34  1  0  0  0  0
 10 35  1  0  0  0  0
 11 24  1  0  0  0  0
 11 12  1  0  0  0  0
 12 13  2  0  0  0  0
 12 14  1  0  0  0  0
 14 15  1  0  0  0  0
 15 16  1  0  0  0  0
 15 36  1  0  0  0  0
 15 37  1  0  0  0  0
 16 17  1  0  0  0  0
 16 38  1  0  0  0  0
 16 39  1  0  0  0  0
 17 18  2  0  0  0  0
 17 19  1  0  0  0  0
 19 20  1  0  0  0  0
 19 40  1  0  0  0  0
 20 21  1  0  0  0  0
 20 41  1  0  0  0  0
 20 42  1  0  0  0  0
 21 22  1  0  0  0  0
 21 23  1  0  0  0  0
 21 43  1  0  0  0  0
 22 44  1  0  0  0  0
 22 45  1  0  0  0  0
 22 46  1  0  0  0  0
 23 47  1  0  0  0  0
 23 48  1  0  0  0  0
 23 49  1  0  0  0  0
M  END
> <s_m_source_file>
AV-unprocessed.smi

> <i_m_source_file_index>
1501

> <i_lp_mmshare_version>
43012

> <i_f3d_flags>
0

> <s_epik_input>
W0NIMl0xW0NIMl1PW0NIMl1bQ0gyXU4xYyhuYzJbQ0gzXSlbbkhdYyg9TyljMltDSDJdW0NIMl1DKD1PKVtOSF1bQ0gyXVtDSF0oW0NIM10pW0NIM10=

> <s_epik_cmdline>
J2VwaWtfcHl0aG9uJywgJy1waCcsICc3LjAnLCAnLXRuJywgJzgnLCAnLW1hJywgJzIwMCcsICctbWV0YWxfYmluZGluZycsICctaW1hZScsICc8aW5maWxlLm1hZT4nLCAnLW9tYWUnLCAnPG91dGZpbGUubWFlPic=

> <r_lp_tautomer_probability>
0.878553

> <r_epik_Ionization_Penalty>
0.00122307

> <r_epik_Ionization_Penalty_Charging>
0.0011975

> <r_epik_Ionization_Penalty_Neutral>
2.55789e-05

> <r_epik_State_Penalty>
0.0424099

> <r_epik_Charging_Adjusted_Penalty>
0.0436074

> <i_epik_Tot_Q>
0

> <i_epik_Tot_abs_Q>
0

> <r_epik_Metal_State_Penalty>
1.02628

> <b_epik_Metal_Only>
0

> <s_lp_Force_Field>
OPLS_2005

> <r_lp_Energy>
24.4519

> <b_lp_Chiralities_Consistent>
1

> <s_lp_Variant>
AV-unprocessed.smi:1501-1

> <Gold.Version>
5.8.1

> <Gold.Id.Protein>
6NUR|6NUR_protein|mol2

> <Gold.PLP.Fitness>
48.1164

> <Gold.PLP.PLP>
-43.4168

> <Gold.PLP.part.hbond>
-4.0000

> <Gold.PLP.part.metal>
0.0000

> <Gold.PLP.part.buried>
1.3988

> <Gold.PLP.part.nonpolar>
-43.0878

> <Gold.PLP.part.repulsive>
1.8355

> <Gold.PLP.ligand.clash>
0.0000

> <Gold.PLP.ligand.torsion>
0.7462

> <Gold.PLP.Chemscore.Hbond>
1.9859

> <Gold.PLP.Chemscore.CHOScore>
0.0000

> <Gold.PLP.Chemscore.Metal>
0.0000

> <Gold.Chemscore.Hbonds>
donor molecule, donor type, donor heavy atom, donor atom, acceptor molecule, acceptor atom, score
      L1  H    11    24       P1  8028  0.63
      P1  H  7954  7966       L1    18  1.00

> <Gold.PLP.Chemscore.Internal.Correction>
0.2342

> <Gold.Rescore>
     Score         DG    S(hbond)    S(metal)    S(lipo)     H(rot)  DE(clash)    DE(int)     intcor
     14.74     -18.56       1.97        0.00      95.74       1.83       2.88       0.94       ----

> <Gold.Chemscore.Fitness>
14.7369

> <Gold.Chemscore.DG>
-18.5561

> <Gold.Chemscore.ZeroCoef>
-5.4800

> <Gold.Chemscore.Hbond>
1.9667

> <Gold.Chemscore.Metal>
0.0000

> <Gold.Chemscore.Lipo>
95.7355

> <Gold.Chemscore.Internal_Hbond>
0.0000

> <Gold.Chemscore.DEClash>
2.8768

> <Gold.Chemscore.DEInternal>
0.9424

> <Gold.Chemscore.Rot>
1.8335

> <Gold.Chemscore.Internal.Correction>
   9.000000E+99

> <Gold.Chemscore.Hbonds>
donor molecule, donor type, donor heavy atom, donor atom, acceptor molecule, acceptor atom, score
      L1  H    11    24       P1  8028  0.61
      P1  H  7954  7966       L1    18  1.00

> <Gold.Chemscore.Hbond.Weighted>
-6.5688

> <Gold.Chemscore.Metal.Weighted>
-0.0000

> <Gold.Chemscore.Lipo.Weighted>
-11.2011

> <Gold.Chemscore.Internal_Hbond.Weighted>
0.0000

> <Gold.Chemscore.DEClash.Weighted>
2.8768

> <Gold.Chemscore.DEInternal.Weighted>
0.9424

> <Gold.Chemscore.Rot.Weighted>
4.6938

> <Gold.Chemscore.Internal.Correction.Weighted>
   9.000000E+99

> <Gold.Protein.RotatedTorsions>
[ 6907 6896 6895 6894 ] final   59.38 input  -60.11 | X-H torsion
[ 7974 7965 7964 7962 ] final   42.21 input  175.53 | X-H torsion
[ 8008 7997 7996 7995 ] final   82.86 input   59.86 | X-H torsion
[ 10167 10162 10161 10158 ] final  152.71 input  -65.29 | X-H torsion
[ 10718 10713 10712 10709 ] final  106.01 input   66.30 | X-H torsion
[ 10763 10752 10751 10750 ] final  -95.80 input  -60.55 | X-H torsion
[ 11005 11000 10999 10996 ] final  154.40 input  -57.11 | X-H torsion

> <Gold.Protein.ActiveResidues>
 VAL166  LYS551  ARG553  GLY616  TRP617  ASP618  TYR619  PRO620  LYS621  CYS622 
 ASP623  PHE694  ASN695  SER759  ASP760  ASP761  ALA762  ILE779  LEU786  VAL792 
 PHE793  MET794  SER795  GLU796  ALA797  LYS798  CYS799  TRP800  GLU811  SER814 

> <Gold.Protein.RotatedAtoms>
  152.3910  134.6442  160.0107 H   0  0  0  0  0  0  0  0  0  0  0  0  # atno 6907 bound_to 6896
  151.6676  133.3309  159.3197 H   0  0  0  0  0  0  0  0  0  0  0  0  # atno 6908 bound_to 6896
  150.7826  134.6827  159.6498 H   0  0  0  0  0  0  0  0  0  0  0  0  # atno 6909 bound_to 6896
  146.0760  139.5327  142.9568 H   0  0  0  0  0  0  0  0  0  0  0  0  # atno 7974 bound_to 7965
  155.9162  140.3424  155.6137 H   0  0  0  0  0  0  0  0  0  0  0  0  # atno 8008 bound_to 7997
  155.7328  140.0797  157.2300 H   0  0  0  0  0  0  0  0  0  0  0  0  # atno 8009 bound_to 7997
  154.4063  140.1585  156.2515 H   0  0  0  0  0  0  0  0  0  0  0  0  # atno 8010 bound_to 7997
  139.4831  144.5334  151.7685 H   0  0  0  0  0  0  0  0  0  0  0  0  # atno 10167 bound_to 10162
  157.6684  131.0841  150.5942 H   0  0  0  0  0  0  0  0  0  0  0  0  # atno 10718 bound_to 10713
  154.7181  135.5107  153.8769 H   0  0  0  0  0  0  0  0  0  0  0  0  # atno 10763 bound_to 10752
  153.0838  135.6639  153.9999 H   0  0  0  0  0  0  0  0  0  0  0  0  # atno 10764 bound_to 10752
  153.9827  135.3027  155.3398 H   0  0  0  0  0  0  0  0  0  0  0  0  # atno 10765 bound_to 10752
  140.1486  134.8690  157.2425 H   0  0  0  0  0  0  0  0  0  0  0  0  # atno 11005 bound_to 11000
  145.6306  141.0305  143.1865 LP  0  0  0  0  0  0  0  0  0  0  0  0  # atno 17320 bound_to 7965
  144.7261  139.7870  143.7364 LP  0  0  0  0  0  0  0  0  0  0  0  0  # atno 17321 bound_to 7965
  140.4864  144.1375  150.5942 LP  0  0  0  0  0  0  0  0  0  0  0  0  # atno 17342 bound_to 10162
  140.4221  143.2607  151.9703 LP  0  0  0  0  0  0  0  0  0  0  0  0  # atno 17343 bound_to 10162
  156.6243  130.4414  149.5810 LP  0  0  0  0  0  0  0  0  0  0  0  0  # atno 17370 bound_to 10713
  156.2331  130.6806  151.1483 LP  0  0  0  0  0  0  0  0  0  0  0  0  # atno 17371 bound_to 10713
  140.2633  134.3545  155.7399 LP  0  0  0  0  0  0  0  0  0  0  0  0  # atno 17394 bound_to 11000
  141.2196  133.7382  156.9113 LP  0  0  0  0  0  0  0  0  0  0  0  0  # atno 17395 bound_to 11000

$$$$
