AV-unprocessed.smi:3164|AV-procd|sdf|12083|dock10
  -GOLD-   2272017513D 1   1.00000     0.00000
 Structure written by MMmdl.
 39 40  0  0  0  0  0  0  0  0  2 V2000
  143.4884  132.7203  148.5837 C   0  0  0  0  0  0  0  0  0  0  0  0
  144.2142  132.9640  149.8215 N   0  0  0  0  0  0  0  0  0  0  0  0
  145.5375  132.3553  149.7966 C   0  0  0  0  0  0  0  0  0  0  0  0
  146.3101  132.6250  151.0988 C   0  0  0  0  0  0  0  0  0  0  0  0
  146.3806  134.0295  151.3297 O   0  0  0  0  0  0  0  0  0  0  0  0
  145.0984  134.6481  151.4187 C   0  0  1  0  0  0  0  0  0  0  0  0
  145.3026  136.1465  151.6805 C   0  0  0  0  0  0  0  0  0  0  0  0
  146.2056  136.3647  152.8273 N   0  3  0  0  0  0  0  0  0  0  0  0
  146.0297  137.6695  153.4965 C   0  0  0  0  0  0  0  0  0  0  0  0
  146.7192  138.8013  152.7181 C   0  0  0  0  0  0  0  0  0  0  0  0
  147.7336  139.5624  153.5536 C   0  0  0  0  0  0  0  0  0  0  0  0
  148.8982  138.9250  154.0331 C   0  0  0  0  0  0  0  0  0  0  0  0
  149.8013  139.6751  154.8116 C   0  0  0  0  0  0  0  0  0  0  0  0
  149.5054  141.0252  155.0803 C   0  0  0  0  0  0  0  0  0  0  0  0
  148.3154  141.5682  154.5563 C   0  0  0  0  0  0  0  0  0  0  0  0
  147.4425  140.8572  153.8100 N   0  0  0  0  0  0  0  0  0  0  0  0
  144.3351  134.3883  150.1041 C   0  0  0  0  0  0  0  0  0  0  0  0
  143.3834  131.6501  148.4016 H   0  0  0  0  0  0  0  0  0  0  0  0
  144.0049  133.1606  147.7297 H   0  0  0  0  0  0  0  0  0  0  0  0
  142.4865  133.1478  148.6323 H   0  0  0  0  0  0  0  0  0  0  0  0
  145.4478  131.2793  149.6424 H   0  0  0  0  0  0  0  0  0  0  0  0
  146.1087  132.7448  148.9523 H   0  0  0  0  0  0  0  0  0  0  0  0
  145.8261  132.1339  151.9444 H   0  0  0  0  0  0  0  0  0  0  0  0
  147.3212  132.2233  151.0308 H   0  0  0  0  0  0  0  0  0  0  0  0
  144.5432  134.2096  152.2505 H   0  0  0  0  0  0  0  0  0  0  0  0
  145.7077  136.6365  150.7940 H   0  0  0  0  0  0  0  0  0  0  0  0
  144.3422  136.6154  151.8986 H   0  0  0  0  0  0  0  0  0  0  0  0
  146.0438  135.6350  153.5069 H   0  0  0  0  0  0  0  0  0  0  0  0
  144.9642  137.8836  153.5867 H   0  0  0  0  0  0  0  0  0  0  0  0
  146.4310  137.6132  154.5094 H   0  0  0  0  0  0  0  0  0  0  0  0
  147.2081  138.3976  151.8305 H   0  0  0  0  0  0  0  0  0  0  0  0
  145.9685  139.5047  152.3552 H   0  0  0  0  0  0  0  0  0  0  0  0
  149.0989  137.8872  153.8108 H   0  0  0  0  0  0  0  0  0  0  0  0
  150.7040  139.2232  155.1955 H   0  0  0  0  0  0  0  0  0  0  0  0
  150.1753  141.6317  155.6720 H   0  0  0  0  0  0  0  0  0  0  0  0
  148.0575  142.6000  154.7425 H   0  0  0  0  0  0  0  0  0  0  0  0
  144.8509  134.8847  149.2803 H   0  0  0  0  0  0  0  0  0  0  0  0
  143.3422  134.8357  150.1648 H   0  0  0  0  0  0  0  0  0  0  0  0
  147.1588  136.2944  152.4998 H   0  0  0  0  0  0  0  0  0  0  0  0
  1  2  1  0  0  0  0
  1 18  1  0  0  0  0
  1 19  1  0  0  0  0
  1 20  1  0  0  0  0
  2 17  1  0  0  0  0
  2  3  1  0  0  0  0
  3  4  1  0  0  0  0
  3 21  1  0  0  0  0
  3 22  1  0  0  0  0
  4  5  1  0  0  0  0
  4 23  1  0  0  0  0
  4 24  1  0  0  0  0
  5  6  1  0  0  0  0
  6  7  1  0  0  0  0
  6 17  1  0  0  0  0
  6 25  1  0  0  0  0
  7  8  1  0  0  0  0
  7 26  1  0  0  0  0
  7 27  1  0  0  0  0
  8  9  1  0  0  0  0
  8 28  1  0  0  0  0
  8 39  1  0  0  0  0
  9 10  1  0  0  0  0
  9 29  1  0  0  0  0
  9 30  1  0  0  0  0
 10 11  1  0  0  0  0
 10 31  1  0  0  0  0
 10 32  1  0  0  0  0
 11 16  1  0  0  0  0
 11 12  2  0  0  0  0
 12 13  1  0  0  0  0
 12 33  1  0  0  0  0
 13 14  2  0  0  0  0
 13 34  1  0  0  0  0
 14 15  1  0  0  0  0
 14 35  1  0  0  0  0
 15 16  2  0  0  0  0
 15 36  1  0  0  0  0
 17 37  1  0  0  0  0
 17 38  1  0  0  0  0
M  CHG  1   8   1
M  END
> <s_m_source_file>
AV-unprocessed.smi

> <i_m_source_file_index>
3164

> <i_lp_mmshare_version>
43012

> <i_f3d_flags>
0

> <s_epik_input>
W0NIM11OMVtDSDJdW0NIMl1PW0NASF0oW0NIMl0xKVtDSDJdW05IXVtDSDJdW0NIMl1jMltjSF1bY0hdW2NIXVtjSF1uMg==

> <s_epik_cmdline>
J2VwaWtfcHl0aG9uJywgJy1waCcsICc3LjAnLCAnLXRuJywgJzgnLCAnLW1hJywgJzIwMCcsICctbWV0YWxfYmluZGluZycsICctaW1hZScsICc8aW5maWxlLm1hZT4nLCAnLW9tYWUnLCAnPG91dGZpbGUubWFlPic=

> <r_epik_Ionization_Penalty>
0.584284

> <r_epik_Ionization_Penalty_Charging>
0.00270218

> <r_epik_Ionization_Penalty_Neutral>
0.581582

> <r_epik_State_Penalty>
0.593163

> <r_epik_Charging_Adjusted_Penalty>
0.595865

> <i_epik_Tot_Q>
1

> <i_epik_Tot_abs_Q>
1

> <r_epik_Metal_State_Penalty>
0.593163

> <b_epik_Metal_Only>
0

> <s_lp_Force_Field>
OPLS_2005

> <r_lp_Energy>
22.7337

> <b_lp_Chiralities_Consistent>
1

> <s_lp_Variant>
AV-unprocessed.smi:3164-5

> <Gold.Version>
5.8.1

> <Gold.Id.Protein>
6NUR|6NUR_protein|mol2

> <Gold.PLP.Fitness>
41.2027

> <Gold.PLP.PLP>
-33.4845

> <Gold.PLP.part.hbond>
-1.0000

> <Gold.PLP.part.metal>
0.0000

> <Gold.PLP.part.buried>
0.6371

> <Gold.PLP.part.nonpolar>
-33.7071

> <Gold.PLP.part.repulsive>
0.5695

> <Gold.PLP.ligand.clash>
0.0000

> <Gold.PLP.ligand.torsion>
0.6540

> <Gold.PLP.Chemscore.Hbond>
2.0000

> <Gold.PLP.Chemscore.CHOScore>
1.0000

> <Gold.PLP.Chemscore.Metal>
0.0000

> <Gold.Chemscore.Hbonds>
donor molecule, donor type, donor heavy atom, donor atom, acceptor molecule, acceptor atom, score
      L1  H     8    39       P1  7948  2.00
      L1  C    15    36       P1  8028  1.00

> <Gold.PLP.Chemscore.Internal.Correction>
0.0262

> <Gold.Rescore>
     Score         DG    S(hbond)    S(metal)    S(lipo)     H(rot)  DE(clash)    DE(int)     intcor
     15.08     -15.89       1.00        0.00      94.88       1.57       0.12       0.69       ----

> <Gold.Chemscore.Fitness>
15.0790

> <Gold.Chemscore.DG>
-15.8925

> <Gold.Chemscore.ZeroCoef>
-5.4800

> <Gold.Chemscore.Hbond>
0.9992

> <Gold.Chemscore.Metal>
0.0000

> <Gold.Chemscore.Lipo>
94.8801

> <Gold.Chemscore.Internal_Hbond>
0.0000

> <Gold.Chemscore.DEClash>
0.1209

> <Gold.Chemscore.DEInternal>
0.6926

> <Gold.Chemscore.Rot>
1.5726

> <Gold.Chemscore.Internal.Correction>
   9.000000E+99

> <Gold.Chemscore.Hbonds>
donor molecule, donor type, donor heavy atom, donor atom, acceptor molecule, acceptor atom, score
      L1  H     8    39       P1  7948  1.00

> <Gold.Chemscore.Hbond.Weighted>
-3.3374

> <Gold.Chemscore.Metal.Weighted>
-0.0000

> <Gold.Chemscore.Lipo.Weighted>
-11.1010

> <Gold.Chemscore.Internal_Hbond.Weighted>
0.0000

> <Gold.Chemscore.DEClash.Weighted>
0.1209

> <Gold.Chemscore.DEInternal.Weighted>
0.6926

> <Gold.Chemscore.Rot.Weighted>
4.0259

> <Gold.Chemscore.Internal.Correction.Weighted>
   9.000000E+99

> <Gold.Protein.RotatedTorsions>
[ 6907 6896 6895 6894 ] final   51.57 input  -60.11 | X-H torsion
[ 7974 7965 7964 7962 ] final   67.36 input  175.53 | X-H torsion
[ 8008 7997 7996 7995 ] final  -97.33 input   59.86 | X-H torsion
[ 10167 10162 10161 10158 ] final  -10.12 input  -65.29 | X-H torsion
[ 10718 10713 10712 10709 ] final  150.94 input   66.30 | X-H torsion
[ 10763 10752 10751 10750 ] final   75.61 input  -60.55 | X-H torsion
[ 11005 11000 10999 10996 ] final  -54.99 input  -57.11 | X-H torsion

> <Gold.Protein.ActiveResidues>
 VAL166  LYS551  ARG553  GLY616  TRP617  ASP618  TYR619  PRO620  LYS621  CYS622 
 ASP623  PHE694  ASN695  SER759  ASP760  ASP761  ALA762  ILE779  LEU786  VAL792 
 PHE793  MET794  SER795  GLU796  ALA797  LYS798  CYS799  TRP800  GLU811  SER814 

> <Gold.Protein.RotatedAtoms>
  152.3140  134.7462  160.0329 H   0  0  0  0  0  0  0  0  0  0  0  0  # atno 6907 bound_to 6896
  151.7933  133.3356  159.3513 H   0  0  0  0  0  0  0  0  0  0  0  0  # atno 6908 bound_to 6896
  150.7335  134.5753  159.5955 H   0  0  0  0  0  0  0  0  0  0  0  0  # atno 6909 bound_to 6896
  145.8156  139.3056  143.1073 H   0  0  0  0  0  0  0  0  0  0  0  0  # atno 7974 bound_to 7965
  154.7863  140.0464  157.1166 H   0  0  0  0  0  0  0  0  0  0  0  0  # atno 8008 bound_to 7997
  154.9644  140.3081  155.4996 H   0  0  0  0  0  0  0  0  0  0  0  0  # atno 8009 bound_to 7997
  156.2943  140.2264  156.4732 H   0  0  0  0  0  0  0  0  0  0  0  0  # atno 8010 bound_to 7997
  140.7105  143.5783  150.9019 H   0  0  0  0  0  0  0  0  0  0  0  0  # atno 10167 bound_to 10162
  157.2770  131.0828  151.1559 H   0  0  0  0  0  0  0  0  0  0  0  0  # atno 10718 bound_to 10713
  153.0667  135.4982  154.8215 H   0  0  0  0  0  0  0  0  0  0  0  0  # atno 10763 bound_to 10752
  154.6963  135.2993  154.9408 H   0  0  0  0  0  0  0  0  0  0  0  0  # atno 10764 bound_to 10752
  154.0147  135.6750  153.4820 H   0  0  0  0  0  0  0  0  0  0  0  0  # atno 10765 bound_to 10752
  141.1052  133.6614  156.4403 H   0  0  0  0  0  0  0  0  0  0  0  0  # atno 11005 bound_to 11000
  145.9730  140.8744  143.0153 LP  0  0  0  0  0  0  0  0  0  0  0  0  # atno 17320 bound_to 7965
  144.6753  140.1973  143.7390 LP  0  0  0  0  0  0  0  0  0  0  0  0  # atno 17321 bound_to 7965
  139.9509  143.6273  152.3029 LP  0  0  0  0  0  0  0  0  0  0  0  0  # atno 17342 bound_to 10162
  139.6792  144.7656  151.1640 LP  0  0  0  0  0  0  0  0  0  0  0  0  # atno 17343 bound_to 10162
  157.3008  130.6842  149.6163 LP  0  0  0  0  0  0  0  0  0  0  0  0  # atno 17370 bound_to 10713
  155.9664  130.4392  150.5251 LP  0  0  0  0  0  0  0  0  0  0  0  0  # atno 17371 bound_to 10713
  140.4919  134.6567  157.5214 LP  0  0  0  0  0  0  0  0  0  0  0  0  # atno 17394 bound_to 11000
  139.9920  134.6970  155.9673 LP  0  0  0  0  0  0  0  0  0  0  0  0  # atno 17395 bound_to 11000

$$$$
