AV-unprocessed.smi:90|AV-procd|sdf|832|dock9
  -GOLD-   2262017253D 1   1.00000     0.00000
 Structure written by MMmdl.
 64 67  0  0  0  0  0  0  0  0  2 V2000
  150.6392  130.6132  155.2500 C   0  0  0  0  0  0  0  0  0  0  0  0
  149.5985  131.6207  155.0611 N   0  0  0  0  0  0  0  0  0  0  0  0
  148.3891  131.2520  154.3316 C   0  0  0  0  0  0  0  0  0  0  0  0
  148.1822  132.1179  153.0729 C   0  0  0  0  0  0  0  0  0  0  0  0
  146.7463  132.0649  152.4880 C   0  0  1  0  0  0  0  0  0  0  0  0
  146.4688  133.3184  151.6192 C   0  0  0  0  0  0  0  0  0  0  0  0
  145.0687  133.3008  150.9977 C   0  0  0  0  0  0  0  0  0  0  0  0
  144.8760  132.0122  150.1987 C   0  0  0  0  0  0  0  0  0  0  0  0
  145.1355  130.7923  151.0911 C   0  0  0  0  0  0  0  0  0  0  0  0
  146.5003  130.8237  151.6827 N   0  3  2  0  0  0  0  0  0  0  0  0
  146.7790  129.5567  152.4033 C   0  0  0  0  0  0  0  0  0  0  0  0
  149.8147  132.8948  155.4991 C   0  0  0  0  0  0  0  0  0  0  0  0
  151.0621  133.2100  155.9412 N   0  0  0  0  0  0  0  0  0  0  0  0
  151.3398  134.4317  156.4017 C   0  0  0  0  0  0  0  0  0  0  0  0
  150.5312  135.4854  156.5035 N   0  0  0  0  0  0  0  0  0  0  0  0
  149.2798  135.1942  156.0498 C   0  0  0  0  0  0  0  0  0  0  0  0
  148.8363  133.9379  155.5385 C   0  0  0  0  0  0  0  0  0  0  0  0
  147.4959  134.0400  155.1782 N   0  0  0  0  0  0  0  0  0  0  0  0
  147.1672  135.2669  155.4703 C   0  0  0  0  0  0  0  0  0  0  0  0
  148.1832  136.0382  155.9843 N   0  0  0  0  0  0  0  0  0  0  0  0
  148.0897  137.4326  156.3968 C   0  0  0  0  0  0  0  0  0  0  0  0
  148.6818  138.4607  155.3859 C   0  0  0  0  0  0  0  0  0  0  0  0
  147.6213  138.8472  154.3157 C   0  0  0  0  0  0  0  0  0  0  0  0
  147.2318  137.7425  153.5243 O   0  0  0  0  0  0  0  0  0  0  0  0
  149.1485  139.7359  156.1350 C   0  0  0  0  0  0  0  0  0  0  0  0
  150.0335  140.6566  155.2735 C   0  0  0  0  0  0  0  0  0  0  0  0
  151.1489  139.9344  154.7695 O   0  0  0  0  0  0  0  0  0  0  0  0
  150.7690  138.8525  153.9292 C   0  0  0  0  0  0  0  0  0  0  0  0
  149.9411  137.8348  154.7336 C   0  0  0  0  0  0  0  0  0  0  0  0
  151.5951  130.9693  154.8644 H   0  0  0  0  0  0  0  0  0  0  0  0
  150.3922  129.6896  154.7261 H   0  0  0  0  0  0  0  0  0  0  0  0
  150.7573  130.3752  156.3075 H   0  0  0  0  0  0  0  0  0  0  0  0
  148.4792  130.2070  154.0328 H   0  0  0  0  0  0  0  0  0  0  0  0
  147.5336  131.2785  155.0026 H   0  0  0  0  0  0  0  0  0  0  0  0
  148.4526  133.1536  153.2806 H   0  0  0  0  0  0  0  0  0  0  0  0
  148.9038  131.7603  152.3412 H   0  0  0  0  0  0  0  0  0  0  0  0
  146.0409  132.0585  153.3209 H   0  0  0  0  0  0  0  0  0  0  0  0
  146.5635  134.2299  152.2075 H   0  0  0  0  0  0  0  0  0  0  0  0
  147.2144  133.3871  150.8256 H   0  0  0  0  0  0  0  0  0  0  0  0
  144.3134  133.3697  151.7817 H   0  0  0  0  0  0  0  0  0  0  0  0
  144.9315  134.1687  150.3523 H   0  0  0  0  0  0  0  0  0  0  0  0
  143.8643  131.9717  149.7937 H   0  0  0  0  0  0  0  0  0  0  0  0
  145.5551  131.9987  149.3449 H   0  0  0  0  0  0  0  0  0  0  0  0
  144.3927  130.7453  151.8893 H   0  0  0  0  0  0  0  0  0  0  0  0
  145.0133  129.8884  150.4930 H   0  0  0  0  0  0  0  0  0  0  0  0
  146.2545  129.5257  153.3592 H   0  0  0  0  0  0  0  0  0  0  0  0
  147.8448  129.4207  152.5815 H   0  0  0  0  0  0  0  0  0  0  0  0
  146.4591  128.6948  151.8169 H   0  0  0  0  0  0  0  0  0  0  0  0
  152.3544  134.5858  156.7386 H   0  0  0  0  0  0  0  0  0  0  0  0
  146.1688  135.6477  155.3108 H   0  0  0  0  0  0  0  0  0  0  0  0
  147.0344  137.6476  156.5696 H   0  0  0  0  0  0  0  0  0  0  0  0
  148.5688  137.5341  157.3713 H   0  0  0  0  0  0  0  0  0  0  0  0
  146.7320  139.2671  154.7853 H   0  0  0  0  0  0  0  0  0  0  0  0
  147.9922  139.6153  153.6392 H   0  0  0  0  0  0  0  0  0  0  0  0
  148.0100  137.3148  153.2008 H   0  0  0  0  0  0  0  0  0  0  0  0
  148.2922  140.3039  156.4999 H   0  0  0  0  0  0  0  0  0  0  0  0
  149.7211  139.4470  157.0173 H   0  0  0  0  0  0  0  0  0  0  0  0
  149.4721  141.1026  154.4524 H   0  0  0  0  0  0  0  0  0  0  0  0
  150.4029  141.4843  155.8792 H   0  0  0  0  0  0  0  0  0  0  0  0
  150.2219  139.2194  153.0602 H   0  0  0  0  0  0  0  0  0  0  0  0
  151.6729  138.3762  153.5492 H   0  0  0  0  0  0  0  0  0  0  0  0
  150.5853  137.4230  155.5117 H   0  0  0  0  0  0  0  0  0  0  0  0
  149.6718  136.9909  154.0979 H   0  0  0  0  0  0  0  0  0  0  0  0
  147.1424  130.8540  150.9036 H   0  0  0  0  0  0  0  0  0  0  0  0
  1  2  1  0  0  0  0
  1 30  1  0  0  0  0
  1 31  1  0  0  0  0
  1 32  1  0  0  0  0
  2  3  1  0  0  0  0
  2 12  1  0  0  0  0
  3  4  1  0  0  0  0
  3 33  1  0  0  0  0
  3 34  1  0  0  0  0
  4  5  1  0  0  0  0
  4 35  1  0  0  0  0
  4 36  1  0  0  0  0
  5 10  1  0  0  0  0
  5  6  1  0  0  0  0
  5 37  1  0  0  0  0
  6  7  1  0  0  0  0
  6 38  1  0  0  0  0
  6 39  1  0  0  0  0
  7  8  1  0  0  0  0
  7 40  1  0  0  0  0
  7 41  1  0  0  0  0
  8  9  1  0  0  0  0
  8 42  1  0  0  0  0
  8 43  1  0  0  0  0
  9 10  1  0  0  0  0
  9 44  1  0  0  0  0
  9 45  1  0  0  0  0
 10 11  1  0  0  0  0
 10 64  1  0  0  0  0
 11 46  1  0  0  0  0
 11 47  1  0  0  0  0
 11 48  1  0  0  0  0
 12 17  1  0  0  0  0
 12 13  2  0  0  0  0
 13 14  1  0  0  0  0
 14 15  2  0  0  0  0
 14 49  1  0  0  0  0
 15 16  1  0  0  0  0
 16 20  1  0  0  0  0
 16 17  2  0  0  0  0
 17 18  1  0  0  0  0
 18 19  2  0  0  0  0
 19 20  1  0  0  0  0
 19 50  1  0  0  0  0
 20 21  1  0  0  0  0
 21 22  1  0  0  0  0
 21 51  1  0  0  0  0
 21 52  1  0  0  0  0
 22 29  1  0  0  0  0
 22 23  1  0  0  0  0
 22 25  1  0  0  0  0
 23 24  1  0  0  0  0
 23 53  1  0  0  0  0
 23 54  1  0  0  0  0
 24 55  1  0  0  0  0
 25 26  1  0  0  0  0
 25 56  1  0  0  0  0
 25 57  1  0  0  0  0
 26 27  1  0  0  0  0
 26 58  1  0  0  0  0
 26 59  1  0  0  0  0
 27 28  1  0  0  0  0
 28 29  1  0  0  0  0
 28 60  1  0  0  0  0
 28 61  1  0  0  0  0
 29 62  1  0  0  0  0
 29 63  1  0  0  0  0
M  CHG  1  10   1
M  END
> <s_m_source_file>
AV-unprocessed.smi

> <i_m_source_file_index>
90

> <i_lp_mmshare_version>
43012

> <i_f3d_flags>
0

> <s_epik_input>
W0NIM11OMVtDSDJdW0NIMl1bQ0gyXVtDSDJdW0NASF0xW0NIMl1bQ0gyXU4oW0NIM10pYyhuW2NIXW4yKWMoYzIzKW5bY0hdbjNbQ0gyXUM0KFtDSDJdW09IXSlbQ0gyXVtDSDJdT1tDSDJdW0NIMl00

> <s_epik_cmdline>
J2VwaWtfcHl0aG9uJywgJy1waCcsICc3LjAnLCAnLXRuJywgJzgnLCAnLW1hJywgJzIwMCcsICctbWV0YWxfYmluZGluZycsICctaW1hZScsICc8aW5maWxlLm1hZT4nLCAnLW9tYWUnLCAnPG91dGZpbGUubWFlPic=

> <r_lp_tautomer_probability>
1

> <r_epik_Ionization_Penalty>
0.00234895

> <r_epik_Ionization_Penalty_Charging>
0.00106647

> <r_epik_Ionization_Penalty_Neutral>
0.00128248

> <r_epik_State_Penalty>
-0

> <r_epik_Charging_Adjusted_Penalty>
0.00106647

> <i_epik_Tot_Q>
1

> <i_epik_Tot_abs_Q>
1

> <r_epik_Metal_State_Penalty>
-0

> <b_epik_Metal_Only>
0

> <s_lp_Force_Field>
OPLS_2005

> <r_lp_Energy>
42.6574

> <b_lp_Chiralities_Consistent>
1

> <s_lp_Variant>
AV-unprocessed.smi:90-4

> <Gold.Version>
5.8.1

> <Gold.Id.Protein>
6NUR|6NUR_protein|mol2

> <Gold.PLP.Fitness>
44.3565

> <Gold.PLP.PLP>
-38.0226

> <Gold.PLP.part.hbond>
-3.0000

> <Gold.PLP.part.metal>
0.0000

> <Gold.PLP.part.buried>
-5.2701

> <Gold.PLP.part.nonpolar>
-30.0004

> <Gold.PLP.part.repulsive>
0.1151

> <Gold.PLP.ligand.clash>
0.0000

> <Gold.PLP.ligand.torsion>
1.0122

> <Gold.PLP.Chemscore.Hbond>
2.6920

> <Gold.PLP.Chemscore.CHOScore>
0.0000

> <Gold.PLP.Chemscore.Metal>
0.0000

> <Gold.Chemscore.Hbonds>
donor molecule, donor type, donor heavy atom, donor atom, acceptor molecule, acceptor atom, score
      L1  H    10    64       P1 10747  0.98
      L1  H    24    55       P1  7948  1.00
      P1  H  7989  7998       L1    27  0.65

> <Gold.PLP.Chemscore.Internal.Correction>
0.2822

> <Gold.Rescore>
     Score         DG    S(hbond)    S(metal)    S(lipo)     H(rot)  DE(clash)    DE(int)     intcor
     12.70     -16.32       1.95        0.00      96.84       2.73       0.14       3.49       ----

> <Gold.Chemscore.Fitness>
12.6960

> <Gold.Chemscore.DG>
-16.3216

> <Gold.Chemscore.ZeroCoef>
-5.4800

> <Gold.Chemscore.Hbond>
1.9496

> <Gold.Chemscore.Metal>
0.0000

> <Gold.Chemscore.Lipo>
96.8441

> <Gold.Chemscore.Internal_Hbond>
0.0000

> <Gold.Chemscore.DEClash>
0.1352

> <Gold.Chemscore.DEInternal>
3.4904

> <Gold.Chemscore.Rot>
2.7347

> <Gold.Chemscore.Internal.Correction>
   9.000000E+99

> <Gold.Chemscore.Hbonds>
donor molecule, donor type, donor heavy atom, donor atom, acceptor molecule, acceptor atom, score
      L1  H    10    64       P1 10747  0.93
      L1  H    24    55       P1  7948  0.95
      P1  H  7989  7998       L1    27  0.02

> <Gold.Chemscore.Hbond.Weighted>
-6.5118

> <Gold.Chemscore.Metal.Weighted>
-0.0000

> <Gold.Chemscore.Lipo.Weighted>
-11.3308

> <Gold.Chemscore.Internal_Hbond.Weighted>
0.0000

> <Gold.Chemscore.DEClash.Weighted>
0.1352

> <Gold.Chemscore.DEInternal.Weighted>
3.4904

> <Gold.Chemscore.Rot.Weighted>
7.0009

> <Gold.Chemscore.Internal.Correction.Weighted>
   9.000000E+99

> <Gold.Protein.RotatedTorsions>
[ 6907 6896 6895 6894 ] final  -46.74 input  -60.11 | X-H torsion
[ 7974 7965 7964 7962 ] final  -13.93 input  175.53 | X-H torsion
[ 8008 7997 7996 7995 ] final  158.15 input   59.86 | X-H torsion
[ 10167 10162 10161 10158 ] final  144.65 input  -65.29 | X-H torsion
[ 10718 10713 10712 10709 ] final  -48.01 input   66.30 | X-H torsion
[ 10763 10752 10751 10750 ] final -119.52 input  -60.55 | X-H torsion
[ 11005 11000 10999 10996 ] final  -83.41 input  -57.11 | X-H torsion

> <Gold.Protein.ActiveResidues>
 VAL166  LYS551  ARG553  GLY616  TRP617  ASP618  TYR619  PRO620  LYS621  CYS622 
 ASP623  PHE694  ASN695  SER759  ASP760  ASP761  ALA762  ILE779  LEU786  VAL792 
 PHE793  MET794  SER795  GLU796  ALA797  LYS798  CYS799  TRP800  GLU811  SER814 

> <Gold.Protein.RotatedAtoms>
  150.9081  134.8497  159.7406 H   0  0  0  0  0  0  0  0  0  0  0  0  # atno 6907 bound_to 6896
  152.4929  134.4401  159.9550 H   0  0  0  0  0  0  0  0  0  0  0  0  # atno 6908 bound_to 6896
  151.4446  133.3595  159.2822 H   0  0  0  0  0  0  0  0  0  0  0  0  # atno 6909 bound_to 6896
  146.2094  140.3275  142.8396 H   0  0  0  0  0  0  0  0  0  0  0  0  # atno 7974 bound_to 7965
  156.2320  140.1866  156.7217 H   0  0  0  0  0  0  0  0  0  0  0  0  # atno 8008 bound_to 7997
  154.6039  140.0632  156.9433 H   0  0  0  0  0  0  0  0  0  0  0  0  # atno 8009 bound_to 7997
  155.2128  140.3301  155.4329 H   0  0  0  0  0  0  0  0  0  0  0  0  # atno 8010 bound_to 7997
  139.4942  144.5957  151.6587 H   0  0  0  0  0  0  0  0  0  0  0  0  # atno 10167 bound_to 10162
  156.2029  130.4157  149.9216 H   0  0  0  0  0  0  0  0  0  0  0  0  # atno 10718 bound_to 10713
  154.8619  135.4235  154.2312 H   0  0  0  0  0  0  0  0  0  0  0  0  # atno 10763 bound_to 10752
  153.3296  135.6987  153.6965 H   0  0  0  0  0  0  0  0  0  0  0  0  # atno 10764 bound_to 10752
  153.5986  135.3541  155.2910 H   0  0  0  0  0  0  0  0  0  0  0  0  # atno 10765 bound_to 10752
  141.1658  133.7293  156.8716 H   0  0  0  0  0  0  0  0  0  0  0  0  # atno 11005 bound_to 11000
  144.8876  140.7482  143.5947 LP  0  0  0  0  0  0  0  0  0  0  0  0  # atno 17320 bound_to 7965
  145.3197  139.1792  143.4594 LP  0  0  0  0  0  0  0  0  0  0  0  0  # atno 17321 bound_to 7965
  140.5595  144.0293  150.6163 LP  0  0  0  0  0  0  0  0  0  0  0  0  # atno 17342 bound_to 10162
  140.3374  143.3040  152.0624 LP  0  0  0  0  0  0  0  0  0  0  0  0  # atno 17343 bound_to 10162
  156.6920  130.8899  151.3589 LP  0  0  0  0  0  0  0  0  0  0  0  0  # atno 17370 bound_to 10713
  157.6996  130.9318  150.0745 LP  0  0  0  0  0  0  0  0  0  0  0  0  # atno 17371 bound_to 10713
  140.1777  134.9055  157.2911 LP  0  0  0  0  0  0  0  0  0  0  0  0  # atno 17394 bound_to 11000
  140.2430  134.3773  155.7473 LP  0  0  0  0  0  0  0  0  0  0  0  0  # atno 17395 bound_to 11000

$$$$
