AV-unprocessed.smi:2646|AV-procd|sdf|10282|dock4
  -GOLD-   2272014293D 1   1.00000     0.00000
 Structure written by MMmdl.
 43 44  0  0  0  0  0  0  0  0  1 V2000
  143.7014  136.5886  152.2690 C   0  0  0  0  0  0  0  0  0  0  0  0
  144.9829  135.7658  152.5894 C   0  0  2  0  0  0  0  0  0  0  0  0
  144.8025  135.1429  154.0047 C   0  0  0  0  0  0  0  0  0  0  0  0
  143.5567  134.4936  154.1725 O   0  0  0  0  0  0  0  0  0  0  0  0
  146.1961  136.5983  152.6717 N   0  0  0  0  0  0  0  0  0  0  0  0
  146.4010  137.7862  153.2652 C   0  0  0  0  0  0  0  0  0  0  0  0
  145.5399  138.4243  153.8692 O   0  0  0  0  0  0  0  0  0  0  0  0
  147.6678  138.1955  153.0819 N   0  0  0  0  0  0  0  0  0  0  0  0
  148.2847  139.3774  153.5717 C   0  0  0  0  0  0  0  0  0  0  0  0
  147.5456  140.5778  153.5419 C   0  0  0  0  0  0  0  0  0  0  0  0
  148.1468  141.7642  154.0041 C   0  0  0  0  0  0  0  0  0  0  0  0
  149.4749  141.7045  154.4691 C   0  0  0  0  0  0  0  0  0  0  0  0
  150.2025  140.5682  154.4876 N   0  0  0  0  0  0  0  0  0  0  0  0
  149.6186  139.4331  154.0462 C   0  0  0  0  0  0  0  0  0  0  0  0
  145.1842  134.6072  151.5424 C   0  0  0  0  0  0  0  0  0  0  0  0
  143.8998  133.7715  151.2808 C   0  0  0  0  0  0  0  0  0  0  0  0
  144.0990  132.7184  150.1789 C   0  0  0  0  0  0  0  0  0  0  0  0
  145.2657  131.7797  150.5059 C   0  0  0  0  0  0  0  0  0  0  0  0
  146.5495  132.5804  150.7520 C   0  0  0  0  0  0  0  0  0  0  0  0
  146.3491  133.6290  151.8580 C   0  0  0  0  0  0  0  0  0  0  0  0
  142.8111  135.9635  152.3441 H   0  0  0  0  0  0  0  0  0  0  0  0
  143.6955  137.0226  151.2722 H   0  0  0  0  0  0  0  0  0  0  0  0
  143.5715  137.4239  152.9575 H   0  0  0  0  0  0  0  0  0  0  0  0
  145.5828  134.4054  154.1966 H   0  0  0  0  0  0  0  0  0  0  0  0
  144.8776  135.8944  154.7902 H   0  0  0  0  0  0  0  0  0  0  0  0
  142.9580  134.8170  153.5169 H   0  0  0  0  0  0  0  0  0  0  0  0
  147.0014  136.1994  152.2123 H   0  0  0  0  0  0  0  0  0  0  0  0
  148.2390  137.6236  152.4773 H   0  0  0  0  0  0  0  0  0  0  0  0
  146.5293  140.5917  153.1763 H   0  0  0  0  0  0  0  0  0  0  0  0
  147.6040  142.6978  154.0013 H   0  0  0  0  0  0  0  0  0  0  0  0
  149.9677  142.5951  154.8302 H   0  0  0  0  0  0  0  0  0  0  0  0
  150.2546  138.5615  154.0581 H   0  0  0  0  0  0  0  0  0  0  0  0
  145.4423  135.0890  150.5979 H   0  0  0  0  0  0  0  0  0  0  0  0
  143.5840  133.2726  152.1979 H   0  0  0  0  0  0  0  0  0  0  0  0
  143.0712  134.4071  150.9749 H   0  0  0  0  0  0  0  0  0  0  0  0
  143.1839  132.1398  150.0497 H   0  0  0  0  0  0  0  0  0  0  0  0
  144.2858  133.2171  149.2269 H   0  0  0  0  0  0  0  0  0  0  0  0
  145.0255  131.1887  151.3907 H   0  0  0  0  0  0  0  0  0  0  0  0
  145.4165  131.0719  149.6903 H   0  0  0  0  0  0  0  0  0  0  0  0
  147.3592  131.9037  151.0265 H   0  0  0  0  0  0  0  0  0  0  0  0
  146.8588  133.0738  149.8296 H   0  0  0  0  0  0  0  0  0  0  0  0
  147.2907  134.1607  151.9787 H   0  0  0  0  0  0  0  0  0  0  0  0
  146.1620  133.1087  152.7964 H   0  0  0  0  0  0  0  0  0  0  0  0
  1  2  1  0  0  0  0
  1 21  1  0  0  0  0
  1 22  1  0  0  0  0
  1 23  1  0  0  0  0
  2  3  1  0  0  0  0
  2  5  1  0  0  0  0
  2 15  1  0  0  0  0
  3  4  1  0  0  0  0
  3 24  1  0  0  0  0
  3 25  1  0  0  0  0
  4 26  1  0  0  0  0
  5  6  1  0  0  0  0
  5 27  1  0  0  0  0
  6  7  2  0  0  0  0
  6  8  1  0  0  0  0
  8  9  1  0  0  0  0
  8 28  1  0  0  0  0
  9 14  1  0  0  0  0
  9 10  2  0  0  0  0
 10 11  1  0  0  0  0
 10 29  1  0  0  0  0
 11 12  2  0  0  0  0
 11 30  1  0  0  0  0
 12 13  1  0  0  0  0
 12 31  1  0  0  0  0
 13 14  2  0  0  0  0
 14 32  1  0  0  0  0
 15 20  1  0  0  0  0
 15 16  1  0  0  0  0
 15 33  1  0  0  0  0
 16 17  1  0  0  0  0
 16 34  1  0  0  0  0
 16 35  1  0  0  0  0
 17 18  1  0  0  0  0
 17 36  1  0  0  0  0
 17 37  1  0  0  0  0
 18 19  1  0  0  0  0
 18 38  1  0  0  0  0
 18 39  1  0  0  0  0
 19 20  1  0  0  0  0
 19 40  1  0  0  0  0
 19 41  1  0  0  0  0
 20 42  1  0  0  0  0
 20 43  1  0  0  0  0
M  END
> <s_m_source_file>
AV-unprocessed.smi

> <i_m_source_file_index>
2646

> <i_lp_mmshare_version>
43012

> <i_f3d_flags>
0

> <s_epik_input>
W0NIMl0xW0NIMl1bQ0gyXVtDSDJdW0NIMl1bQ0hdMVtDQF0oW0NIM10pKFtDSDJdW09IXSlbTkhdQyg9TylbTkhdYzJbY0hdW2NIXVtjSF1uW2NIXTI=

> <s_epik_cmdline>
J2VwaWtfcHl0aG9uJywgJy1waCcsICc3LjAnLCAnLXRuJywgJzgnLCAnLW1hJywgJzIwMCcsICctbWV0YWxfYmluZGluZycsICctaW1hZScsICc8aW5maWxlLm1hZT4nLCAnLW9tYWUnLCAnPG91dGZpbGUubWFlPic=

> <r_epik_Ionization_Penalty>
0.00498697

> <r_epik_Ionization_Penalty_Charging>
0

> <r_epik_Ionization_Penalty_Neutral>
0.00498697

> <r_epik_State_Penalty>
0.00359645

> <r_epik_Charging_Adjusted_Penalty>
0.00359645

> <i_epik_Tot_Q>
0

> <i_epik_Tot_abs_Q>
0

> <r_epik_Metal_State_Penalty>
-0

> <b_epik_Metal_Only>
0

> <s_lp_Force_Field>
OPLS_2005

> <r_lp_Energy>
27.1909

> <b_lp_Chiralities_Consistent>
1

> <s_lp_Variant>
AV-unprocessed.smi:2646-2

> <Gold.Version>
5.8.1

> <Gold.Id.Protein>
6NUR|6NUR_protein|mol2

> <Gold.PLP.Fitness>
45.4379

> <Gold.PLP.PLP>
-35.1262

> <Gold.PLP.part.hbond>
-4.0000

> <Gold.PLP.part.metal>
0.0000

> <Gold.PLP.part.buried>
-1.2455

> <Gold.PLP.part.nonpolar>
-29.6850

> <Gold.PLP.part.repulsive>
0.2868

> <Gold.PLP.ligand.clash>
0.0000

> <Gold.PLP.ligand.torsion>
0.7371

> <Gold.PLP.Chemscore.Hbond>
2.9600

> <Gold.PLP.Chemscore.CHOScore>
0.9482

> <Gold.PLP.Chemscore.Metal>
0.0000

> <Gold.Chemscore.Hbonds>
donor molecule, donor type, donor heavy atom, donor atom, acceptor molecule, acceptor atom, score
      L1  H     5    27       P1  7948  1.00
      L1  H     8    28       P1  7948  1.00
      P1  H  7989  7998       L1    13  0.88
      L1  C    12    31       P1  8028  0.95

> <Gold.PLP.Chemscore.Internal.Correction>
0.0612

> <Gold.Rescore>
     Score         DG    S(hbond)    S(metal)    S(lipo)     H(rot)  DE(clash)    DE(int)     intcor
     16.10     -18.12       2.37        0.00      83.66       1.98       0.13       1.90       ----

> <Gold.Chemscore.Fitness>
16.0969

> <Gold.Chemscore.DG>
-18.1245

> <Gold.Chemscore.ZeroCoef>
-5.4800

> <Gold.Chemscore.Hbond>
2.3726

> <Gold.Chemscore.Metal>
0.0000

> <Gold.Chemscore.Lipo>
83.6595

> <Gold.Chemscore.Internal_Hbond>
0.0000

> <Gold.Chemscore.DEClash>
0.1315

> <Gold.Chemscore.DEInternal>
1.8961

> <Gold.Chemscore.Rot>
1.9798

> <Gold.Chemscore.Internal.Correction>
   9.000000E+99

> <Gold.Chemscore.Hbonds>
donor molecule, donor type, donor heavy atom, donor atom, acceptor molecule, acceptor atom, score
      L1  H     5    27       P1  7948  0.93
      L1  H     8    28       P1  7948  0.99
      P1  H  7989  7998       L1    13  0.31

> <Gold.Chemscore.Hbond.Weighted>
-7.9245

> <Gold.Chemscore.Metal.Weighted>
-0.0000

> <Gold.Chemscore.Lipo.Weighted>
-9.7882

> <Gold.Chemscore.Internal_Hbond.Weighted>
0.0000

> <Gold.Chemscore.DEClash.Weighted>
0.1315

> <Gold.Chemscore.DEInternal.Weighted>
1.8961

> <Gold.Chemscore.Rot.Weighted>
5.0682

> <Gold.Chemscore.Internal.Correction.Weighted>
   9.000000E+99

> <Gold.Protein.RotatedTorsions>
[ 6907 6896 6895 6894 ] final   93.79 input  -60.11 | X-H torsion
[ 7974 7965 7964 7962 ] final  147.23 input  175.53 | X-H torsion
[ 8008 7997 7996 7995 ] final   75.57 input   59.86 | X-H torsion
[ 10167 10162 10161 10158 ] final  -84.57 input  -65.29 | X-H torsion
[ 10718 10713 10712 10709 ] final  -18.72 input   66.30 | X-H torsion
[ 10763 10752 10751 10750 ] final  145.84 input  -60.55 | X-H torsion
[ 11005 11000 10999 10996 ] final -109.72 input  -57.11 | X-H torsion

> <Gold.Protein.ActiveResidues>
 VAL166  LYS551  ARG553  GLY616  TRP617  ASP618  TYR619  PRO620  LYS621  CYS622 
 ASP623  PHE694  ASN695  SER759  ASP760  ASP761  ALA762  ILE779  LEU786  VAL792 
 PHE793  MET794  SER795  GLU796  ALA797  LYS798  CYS799  TRP800  GLU811  SER814 

> <Gold.Protein.RotatedAtoms>
  152.5451  134.1293  159.8431 H   0  0  0  0  0  0  0  0  0  0  0  0  # atno 6907 bound_to 6896
  151.1340  133.5010  159.2606 H   0  0  0  0  0  0  0  0  0  0  0  0  # atno 6908 bound_to 6896
  151.1644  135.0298  159.8779 H   0  0  0  0  0  0  0  0  0  0  0  0  # atno 6909 bound_to 6896
  144.8608  139.6003  143.5931 H   0  0  0  0  0  0  0  0  0  0  0  0  # atno 7974 bound_to 7965
  155.8148  140.3472  155.5479 H   0  0  0  0  0  0  0  0  0  0  0  0  # atno 8008 bound_to 7997
  155.8404  140.0940  157.1758 H   0  0  0  0  0  0  0  0  0  0  0  0  # atno 8009 bound_to 7997
  154.4005  140.1395  156.3709 H   0  0  0  0  0  0  0  0  0  0  0  0  # atno 8010 bound_to 7997
  140.4120  143.2619  151.9005 H   0  0  0  0  0  0  0  0  0  0  0  0  # atno 10167 bound_to 10162
  156.5556  130.4712  149.6431 H   0  0  0  0  0  0  0  0  0  0  0  0  # atno 10718 bound_to 10713
  154.0121  135.2913  155.3391 H   0  0  0  0  0  0  0  0  0  0  0  0  # atno 10763 bound_to 10752
  154.7097  135.5154  153.8651 H   0  0  0  0  0  0  0  0  0  0  0  0  # atno 10764 bound_to 10752
  153.0718  135.6650  154.0351 H   0  0  0  0  0  0  0  0  0  0  0  0  # atno 10765 bound_to 10752
  141.0832  133.9185  157.2244 H   0  0  0  0  0  0  0  0  0  0  0  0  # atno 11005 bound_to 11000
  146.2859  139.7002  142.9196 LP  0  0  0  0  0  0  0  0  0  0  0  0  # atno 17320 bound_to 7965
  145.4316  141.0415  143.2907 LP  0  0  0  0  0  0  0  0  0  0  0  0  # atno 17321 bound_to 7965
  139.4782  144.5527  151.8361 LP  0  0  0  0  0  0  0  0  0  0  0  0  # atno 17342 bound_to 10162
  140.4627  144.1698  150.5908 LP  0  0  0  0  0  0  0  0  0  0  0  0  # atno 17343 bound_to 10162
  156.2845  130.7089  151.1922 LP  0  0  0  0  0  0  0  0  0  0  0  0  # atno 17370 bound_to 10713
  157.7379  131.0547  150.5329 LP  0  0  0  0  0  0  0  0  0  0  0  0  # atno 17371 bound_to 10713
  139.9647  135.0145  156.9355 LP  0  0  0  0  0  0  0  0  0  0  0  0  # atno 17394 bound_to 11000
  140.5423  134.0708  155.7345 LP  0  0  0  0  0  0  0  0  0  0  0  0  # atno 17395 bound_to 11000

$$$$
