AV-unprocessed.smi:1958|AV-procd|sdf|7907|dock2
  -GOLD-   2272010 63D 1   1.00000     0.00000
 Structure written by MMmdl.
 47 48  0  0  0  0  0  0  0  0  1 V2000
  154.4763  132.5964  157.9315 C   0  0  0  0  0  0  0  0  0  0  0  0
  154.2417  132.7483  159.3201 O   0  0  0  0  0  0  0  0  0  0  0  0
  155.3397  133.3393  159.9961 C   0  0  0  0  0  0  0  0  0  0  0  0
  155.1338  133.2124  161.5144 C   0  0  0  0  0  0  0  0  0  0  0  0
  154.6969  134.4786  162.1135 N   0  0  0  0  0  0  0  0  0  0  0  0
  154.2937  135.4288  161.1903 N   0  0  0  0  0  0  0  0  0  0  0  0
  153.9029  136.5969  161.5867 C   0  0  0  0  0  0  0  0  0  0  0  0
  153.4692  137.6480  160.6251 C   0  0  0  0  0  0  0  0  0  0  0  0
  152.9529  137.3648  159.5429 O   0  0  0  0  0  0  0  0  0  0  0  0
  153.6885  138.9147  161.0234 N   0  0  0  0  0  0  0  0  0  0  0  0
  153.3597  140.1210  160.2677 C   0  0  0  0  0  0  0  0  0  0  0  0
  154.2666  141.3304  160.6330 C   0  0  1  0  0  0  0  0  0  0  0  0
  155.6411  141.1599  159.9372 C   0  0  0  0  0  0  0  0  0  0  0  0
  153.6386  142.6415  160.3431 N   0  0  0  0  0  0  0  0  0  0  0  0
  152.4938  142.9241  161.2177 C   0  0  0  0  0  0  0  0  0  0  0  0
  151.8181  144.2706  160.9051 C   0  0  0  0  0  0  0  0  0  0  0  0
  151.4111  144.2976  159.5443 O   0  0  0  0  0  0  0  0  0  0  0  0
  152.5052  144.1087  158.6580 C   0  0  0  0  0  0  0  0  0  0  0  0
  153.1839  142.7599  158.9524 C   0  0  0  0  0  0  0  0  0  0  0  0
  153.8718  136.9302  163.0009 C   0  0  0  0  0  0  0  0  0  0  0  0
  154.2670  135.9928  163.8900 C   0  0  0  0  0  0  0  0  0  0  0  0
  154.7215  134.6672  163.4673 C   0  0  0  0  0  0  0  0  0  0  0  0
  155.0966  133.8009  164.2570 O   0  0  0  0  0  0  0  0  0  0  0  0
  153.6062  132.1379  157.4616 H   0  0  0  0  0  0  0  0  0  0  0  0
  155.3378  131.9543  157.7442 H   0  0  0  0  0  0  0  0  0  0  0  0
  154.6478  133.5616  157.4531 H   0  0  0  0  0  0  0  0  0  0  0  0
  156.2598  132.8282  159.7095 H   0  0  0  0  0  0  0  0  0  0  0  0
  155.4486  134.3861  159.7079 H   0  0  0  0  0  0  0  0  0  0  0  0
  154.4075  132.4238  161.7202 H   0  0  0  0  0  0  0  0  0  0  0  0
  156.0606  132.8790  161.9844 H   0  0  0  0  0  0  0  0  0  0  0  0
  154.1186  139.0513  161.9272 H   0  0  0  0  0  0  0  0  0  0  0  0
  153.3889  139.9424  159.1915 H   0  0  0  0  0  0  0  0  0  0  0  0
  152.3187  140.3181  160.5165 H   0  0  0  0  0  0  0  0  0  0  0  0
  154.4472  141.2770  161.7079 H   0  0  0  0  0  0  0  0  0  0  0  0
  156.0871  140.1856  160.1312 H   0  0  0  0  0  0  0  0  0  0  0  0
  156.3785  141.8793  160.2900 H   0  0  0  0  0  0  0  0  0  0  0  0
  155.5509  141.2695  158.8560 H   0  0  0  0  0  0  0  0  0  0  0  0
  151.7579  142.1226  161.1346 H   0  0  0  0  0  0  0  0  0  0  0  0
  152.8054  142.9615  162.2598 H   0  0  0  0  0  0  0  0  0  0  0  0
  150.9435  144.4114  161.5403 H   0  0  0  0  0  0  0  0  0  0  0  0
  152.4971  145.1003  161.1076 H   0  0  0  0  0  0  0  0  0  0  0  0
  152.1396  144.1321  157.6314 H   0  0  0  0  0  0  0  0  0  0  0  0
  153.2161  144.9299  158.7634 H   0  0  0  0  0  0  0  0  0  0  0  0
  154.0218  142.6742  158.2635 H   0  0  0  0  0  0  0  0  0  0  0  0
  152.4936  141.9480  158.7180 H   0  0  0  0  0  0  0  0  0  0  0  0
  153.5423  137.9011  163.3413 H   0  0  0  0  0  0  0  0  0  0  0  0
  154.2488  136.2271  164.9443 H   0  0  0  0  0  0  0  0  0  0  0  0
  1  2  1  0  0  0  0
  1 24  1  0  0  0  0
  1 25  1  0  0  0  0
  1 26  1  0  0  0  0
  2  3  1  0  0  0  0
  3  4  1  0  0  0  0
  3 27  1  0  0  0  0
  3 28  1  0  0  0  0
  4  5  1  0  0  0  0
  4 29  1  0  0  0  0
  4 30  1  0  0  0  0
  5 22  1  0  0  0  0
  5  6  1  0  0  0  0
  6  7  2  0  0  0  0
  7  8  1  0  0  0  0
  7 20  1  0  0  0  0
  8  9  2  0  0  0  0
  8 10  1  0  0  0  0
 10 11  1  0  0  0  0
 10 31  1  0  0  0  0
 11 12  1  0  0  0  0
 11 32  1  0  0  0  0
 11 33  1  0  0  0  0
 12 13  1  0  0  0  0
 12 14  1  0  0  0  0
 12 34  1  0  0  0  0
 13 35  1  0  0  0  0
 13 36  1  0  0  0  0
 13 37  1  0  0  0  0
 14 19  1  0  0  0  0
 14 15  1  0  0  0  0
 15 16  1  0  0  0  0
 15 38  1  0  0  0  0
 15 39  1  0  0  0  0
 16 17  1  0  0  0  0
 16 40  1  0  0  0  0
 16 41  1  0  0  0  0
 17 18  1  0  0  0  0
 18 19  1  0  0  0  0
 18 42  1  0  0  0  0
 18 43  1  0  0  0  0
 19 44  1  0  0  0  0
 19 45  1  0  0  0  0
 20 21  2  0  0  0  0
 20 46  1  0  0  0  0
 21 22  1  0  0  0  0
 21 47  1  0  0  0  0
 22 23  2  0  0  0  0
M  END
> <s_m_source_file>
AV-unprocessed.smi

> <i_m_source_file_index>
1958

> <i_lp_mmshare_version>
43012

> <i_f3d_flags>
0

> <s_epik_input>
W0NIM11PW0NIMl1bQ0gyXW4xbmMoW2NIXVtjSF1jMT1PKUMoPU8pW05IXVtDSDJdW0NASF0oW0NIM10pTjJbQ0gyXVtDSDJdT1tDSDJdW0NIMl0y

> <s_epik_cmdline>
J2VwaWtfcHl0aG9uJywgJy1waCcsICc3LjAnLCAnLXRuJywgJzgnLCAnLW1hJywgJzIwMCcsICctbWV0YWxfYmluZGluZycsICctaW1hZScsICc8aW5maWxlLm1hZT4nLCAnLW9tYWUnLCAnPG91dGZpbGUubWFlPic=

> <r_lp_tautomer_probability>
1

> <r_epik_Ionization_Penalty>
0.206669

> <r_epik_Ionization_Penalty_Charging>
5.75808e-09

> <r_epik_Ionization_Penalty_Neutral>
0.206669

> <r_epik_State_Penalty>
0.196651

> <r_epik_Charging_Adjusted_Penalty>
0.196651

> <i_epik_Tot_Q>
0

> <i_epik_Tot_abs_Q>
0

> <r_epik_Metal_State_Penalty>
0.198415

> <b_epik_Metal_Only>
0

> <s_lp_Force_Field>
OPLS_2005

> <r_lp_Energy>
50.1951

> <b_lp_Chiralities_Consistent>
1

> <s_lp_Variant>
AV-unprocessed.smi:1958-2

> <Gold.Version>
5.8.1

> <Gold.Id.Protein>
6NUR|6NUR_protein|mol2

> <Gold.PLP.Fitness>
41.1138

> <Gold.PLP.PLP>
-40.6346

> <Gold.PLP.part.hbond>
-1.4991

> <Gold.PLP.part.metal>
0.0000

> <Gold.PLP.part.buried>
-4.4546

> <Gold.PLP.part.nonpolar>
-33.7086

> <Gold.PLP.part.repulsive>
0.1413

> <Gold.PLP.ligand.clash>
0.0000

> <Gold.PLP.ligand.torsion>
1.3340

> <Gold.PLP.Chemscore.Hbond>
1.0000

> <Gold.PLP.Chemscore.CHOScore>
0.0000

> <Gold.PLP.Chemscore.Metal>
0.0000

> <Gold.Chemscore.Hbonds>
donor molecule, donor type, donor heavy atom, donor atom, acceptor molecule, acceptor atom, score
      P1  H  6896  6908       L1     2  1.00

> <Gold.PLP.Chemscore.Internal.Correction>
0.1473

> <Gold.Rescore>
     Score         DG    S(hbond)    S(metal)    S(lipo)     H(rot)  DE(clash)    DE(int)     intcor
     14.93     -16.11       0.93        0.00     109.09       2.04       0.01       1.17       ----

> <Gold.Chemscore.Fitness>
14.9264

> <Gold.Chemscore.DG>
-16.1127

> <Gold.Chemscore.ZeroCoef>
-5.4800

> <Gold.Chemscore.Hbond>
0.9266

> <Gold.Chemscore.Metal>
0.0000

> <Gold.Chemscore.Lipo>
109.0891

> <Gold.Chemscore.Internal_Hbond>
0.0000

> <Gold.Chemscore.DEClash>
0.0115

> <Gold.Chemscore.DEInternal>
1.1748

> <Gold.Chemscore.Rot>
2.0413

> <Gold.Chemscore.Internal.Correction>
   9.000000E+99

> <Gold.Chemscore.Hbonds>
donor molecule, donor type, donor heavy atom, donor atom, acceptor molecule, acceptor atom, score
      P1  H  6896  6908       L1     2  0.61

> <Gold.Chemscore.Hbond.Weighted>
-3.0949

> <Gold.Chemscore.Metal.Weighted>
-0.0000

> <Gold.Chemscore.Lipo.Weighted>
-12.7634

> <Gold.Chemscore.Internal_Hbond.Weighted>
0.0000

> <Gold.Chemscore.DEClash.Weighted>
0.0115

> <Gold.Chemscore.DEInternal.Weighted>
1.1748

> <Gold.Chemscore.Rot.Weighted>
5.2257

> <Gold.Chemscore.Internal.Correction.Weighted>
   9.000000E+99

> <Gold.Protein.RotatedTorsions>
[ 6907 6896 6895 6894 ] final   -2.67 input  -60.11 | X-H torsion
[ 7974 7965 7964 7962 ] final  -65.72 input  175.53 | X-H torsion
[ 8008 7997 7996 7995 ] final   -1.95 input   59.86 | X-H torsion
[ 10167 10162 10161 10158 ] final  175.18 input  -65.29 | X-H torsion
[ 10718 10713 10712 10709 ] final  142.09 input   66.30 | X-H torsion
[ 10763 10752 10751 10750 ] final -119.99 input  -60.55 | X-H torsion
[ 11005 11000 10999 10996 ] final   11.21 input  -57.11 | X-H torsion

> <Gold.Protein.ActiveResidues>
 VAL166  LYS551  ARG553  GLY616  TRP617  ASP618  TYR619  PRO620  LYS621  CYS622 
 ASP623  PHE694  ASN695  SER759  ASP760  ASP761  ALA762  ILE779  LEU786  VAL792 
 PHE793  MET794  SER795  GLU796  ALA797  LYS798  CYS799  TRP800  GLU811  SER814 

> <Gold.Protein.RotatedAtoms>
  151.5261  135.1068  159.9890 H   0  0  0  0  0  0  0  0  0  0  0  0  # atno 6907 bound_to 6896
  152.4599  133.7796  159.6854 H   0  0  0  0  0  0  0  0  0  0  0  0  # atno 6908 bound_to 6896
  150.8557  133.7654  159.3035 H   0  0  0  0  0  0  0  0  0  0  0  0  # atno 6909 bound_to 6896
  145.7508  140.8909  143.0481 H   0  0  0  0  0  0  0  0  0  0  0  0  # atno 7974 bound_to 7965
  154.6411  140.2546  155.7321 H   0  0  0  0  0  0  0  0  0  0  0  0  # atno 8008 bound_to 7997
  156.2529  140.2887  156.0726 H   0  0  0  0  0  0  0  0  0  0  0  0  # atno 8009 bound_to 7997
  155.1595  140.0384  157.2829 H   0  0  0  0  0  0  0  0  0  0  0  0  # atno 8010 bound_to 7997
  139.5168  144.3061  152.0334 H   0  0  0  0  0  0  0  0  0  0  0  0  # atno 10167 bound_to 10162
  157.3845  131.0996  151.0706 H   0  0  0  0  0  0  0  0  0  0  0  0  # atno 10718 bound_to 10713
  154.8632  135.4218  154.2388 H   0  0  0  0  0  0  0  0  0  0  0  0  # atno 10763 bound_to 10752
  153.3358  135.6991  153.6915 H   0  0  0  0  0  0  0  0  0  0  0  0  # atno 10764 bound_to 10752
  153.5913  135.3554  155.2885 H   0  0  0  0  0  0  0  0  0  0  0  0  # atno 10765 bound_to 10752
  140.5058  134.0701  155.7805 H   0  0  0  0  0  0  0  0  0  0  0  0  # atno 11005 bound_to 11000
  144.6850  139.9588  143.7480 LP  0  0  0  0  0  0  0  0  0  0  0  0  # atno 17320 bound_to 7965
  146.0359  139.3377  143.0727 LP  0  0  0  0  0  0  0  0  0  0  0  0  # atno 17321 bound_to 7965
  140.2507  144.4172  150.6223 LP  0  0  0  0  0  0  0  0  0  0  0  0  # atno 17342 bound_to 10162
  140.6227  143.2178  151.6661 LP  0  0  0  0  0  0  0  0  0  0  0  0  # atno 17343 bound_to 10162
  157.1762  130.6289  149.5657 LP  0  0  0  0  0  0  0  0  0  0  0  0  # atno 17370 bound_to 10713
  155.9783  130.4768  150.6650 LP  0  0  0  0  0  0  0  0  0  0  0  0  # atno 17371 bound_to 10713
  141.1411  133.9136  157.2322 LP  0  0  0  0  0  0  0  0  0  0  0  0  # atno 17394 bound_to 11000
  139.9687  135.0134  156.9455 LP  0  0  0  0  0  0  0  0  0  0  0  0  # atno 17395 bound_to 11000

$$$$
