AV-unprocessed.smi:698|AV-procd|sdf|3398|dock4
  -GOLD-   22720 0383D 1   1.00000     0.00000
 Structure written by MMmdl.
 33 34  0  0  0  0  0  0  0  0  1 V2000
  152.2720  145.2643  158.1714 C   0  0  0  0  0  0  0  0  0  0  0  0
  151.5050  143.9399  158.1699 C   0  0  0  0  0  0  0  0  0  0  0  0
  152.4078  142.8869  158.4954 O   0  0  0  0  0  0  0  0  0  0  0  0
  152.7499  142.7004  159.8192 C   0  0  0  0  0  0  0  0  0  0  0  0
  152.4226  143.7044  160.7500 C   0  0  0  0  0  0  0  0  0  0  0  0
  152.7728  143.5096  162.0979 C   0  0  0  0  0  0  0  0  0  0  0  0
  153.4367  142.3231  162.4635 C   0  0  0  0  0  0  0  0  0  0  0  0
  153.7341  141.3616  161.4725 C   0  0  0  0  0  0  0  0  0  0  0  0
  154.4065  140.2011  161.9392 N   0  0  0  0  0  0  0  0  0  0  0  0
  155.3239  140.1063  162.9199 C   0  0  0  0  0  0  0  0  0  0  0  0
  155.7213  141.0535  163.6002 O   0  0  0  0  0  0  0  0  0  0  0  0
  155.8639  138.6951  163.1816 C   0  0  1  0  0  0  0  0  0  0  0  0
  155.5326  138.1311  164.5770 C   0  0  0  0  0  0  0  0  0  0  0  0
  154.5512  137.0113  164.2894 C   0  0  0  0  0  0  0  0  0  0  0  0
  154.9730  136.5754  162.8936 C   0  0  0  0  0  0  0  0  0  0  0  0
  155.2532  137.8067  162.2476 O   0  0  0  0  0  0  0  0  0  0  0  0
  153.3886  141.5592  160.1767 N   0  0  0  0  0  0  0  0  0  0  0  0
  151.6093  146.0977  157.9374 H   0  0  0  0  0  0  0  0  0  0  0  0
  153.0717  145.2542  157.4305 H   0  0  0  0  0  0  0  0  0  0  0  0
  152.7197  145.4563  159.1468 H   0  0  0  0  0  0  0  0  0  0  0  0
  150.6956  143.9849  158.9004 H   0  0  0  0  0  0  0  0  0  0  0  0
  151.0628  143.7743  157.1860 H   0  0  0  0  0  0  0  0  0  0  0  0
  151.9135  144.6039  160.4365 H   0  0  0  0  0  0  0  0  0  0  0  0
  152.5369  144.2578  162.8400 H   0  0  0  0  0  0  0  0  0  0  0  0
  153.7140  142.1585  163.4947 H   0  0  0  0  0  0  0  0  0  0  0  0
  154.1589  139.3389  161.4767 H   0  0  0  0  0  0  0  0  0  0  0  0
  156.9449  138.6762  163.0315 H   0  0  0  0  0  0  0  0  0  0  0  0
  156.4377  137.7252  165.0305 H   0  0  0  0  0  0  0  0  0  0  0  0
  155.1239  138.8634  165.2745 H   0  0  0  0  0  0  0  0  0  0  0  0
  154.5934  136.2040  165.0208 H   0  0  0  0  0  0  0  0  0  0  0  0
  153.5328  137.4017  164.2666 H   0  0  0  0  0  0  0  0  0  0  0  0
  155.8774  135.9663  162.9305 H   0  0  0  0  0  0  0  0  0  0  0  0
  154.1972  136.0145  162.3722 H   0  0  0  0  0  0  0  0  0  0  0  0
  1  2  1  0  0  0  0
  1 18  1  0  0  0  0
  1 19  1  0  0  0  0
  1 20  1  0  0  0  0
  2  3  1  0  0  0  0
  2 21  1  0  0  0  0
  2 22  1  0  0  0  0
  3  4  1  0  0  0  0
  4 17  1  0  0  0  0
  4  5  2  0  0  0  0
  5  6  1  0  0  0  0
  5 23  1  0  0  0  0
  6  7  2  0  0  0  0
  6 24  1  0  0  0  0
  7  8  1  0  0  0  0
  7 25  1  0  0  0  0
  8  9  1  0  0  0  0
  8 17  2  0  0  0  0
  9 10  1  0  0  0  0
  9 26  1  0  0  0  0
 10 11  2  0  0  0  0
 10 12  1  0  0  0  0
 12 16  1  0  0  0  0
 12 13  1  0  0  0  0
 12 27  1  0  0  0  0
 13 14  1  0  0  0  0
 13 28  1  0  0  0  0
 13 29  1  0  0  0  0
 14 15  1  0  0  0  0
 14 30  1  0  0  0  0
 14 31  1  0  0  0  0
 15 16  1  0  0  0  0
 15 32  1  0  0  0  0
 15 33  1  0  0  0  0
M  END
> <s_m_source_file>
AV-unprocessed.smi

> <i_m_source_file_index>
698

> <i_lp_mmshare_version>
43012

> <i_f3d_flags>
0

> <s_epik_input>
W0NIM11bQ0gyXU9jMVtjSF1bY0hdW2NIXWMobjEpW05IXUMoPU8pW0NAQEhdMltDSDJdW0NIMl1bQ0gyXU8y

> <s_epik_cmdline>
J2VwaWtfcHl0aG9uJywgJy1waCcsICc3LjAnLCAnLXRuJywgJzgnLCAnLW1hJywgJzIwMCcsICctbWV0YWxfYmluZGluZycsICctaW1hZScsICc8aW5maWxlLm1hZT4nLCAnLW9tYWUnLCAnPG91dGZpbGUubWFlPic=

> <r_lp_tautomer_probability>
1

> <r_epik_Ionization_Penalty>
3.42089e-05

> <r_epik_Ionization_Penalty_Charging>
0

> <r_epik_Ionization_Penalty_Neutral>
3.42089e-05

> <r_epik_State_Penalty>
-0

> <r_epik_Charging_Adjusted_Penalty>
0

> <i_epik_Tot_Q>
0

> <i_epik_Tot_abs_Q>
0

> <r_epik_Metal_State_Penalty>
-0

> <b_epik_Metal_Only>
0

> <s_lp_Force_Field>
OPLS_2005

> <r_lp_Energy>
20.5333

> <b_lp_Chiralities_Consistent>
1

> <s_lp_Variant>
AV-unprocessed.smi:698-2

> <Gold.Version>
5.8.1

> <Gold.Id.Protein>
6NUR|6NUR_protein|mol2

> <Gold.PLP.Fitness>
39.9489

> <Gold.PLP.PLP>
-40.9626

> <Gold.PLP.part.hbond>
-1.0000

> <Gold.PLP.part.metal>
0.0000

> <Gold.PLP.part.buried>
-5.8829

> <Gold.PLP.part.nonpolar>
-32.3173

> <Gold.PLP.part.repulsive>
0.0062

> <Gold.PLP.ligand.clash>
0.0544

> <Gold.PLP.ligand.torsion>
0.4860

> <Gold.PLP.Chemscore.Hbond>
0.0000

> <Gold.PLP.Chemscore.CHOScore>
0.0000

> <Gold.PLP.Chemscore.Metal>
0.0000

> <Gold.PLP.Chemscore.Internal.Correction>
0.0127

> <Gold.Rescore>
     Score         DG    S(hbond)    S(metal)    S(lipo)     H(rot)  DE(clash)    DE(int)     intcor
     10.54     -12.51       0.00        0.00      91.09       1.42       0.16       1.81       ----

> <Gold.Chemscore.Fitness>
10.5388

> <Gold.Chemscore.DG>
-12.5060

> <Gold.Chemscore.ZeroCoef>
-5.4800

> <Gold.Chemscore.Hbond>
0.0000

> <Gold.Chemscore.Metal>
0.0000

> <Gold.Chemscore.Lipo>
91.0882

> <Gold.Chemscore.Internal_Hbond>
0.0000

> <Gold.Chemscore.DEClash>
0.1616

> <Gold.Chemscore.DEInternal>
1.8056

> <Gold.Chemscore.Rot>
1.4185

> <Gold.Chemscore.Internal.Correction>
   9.000000E+99

> <Gold.Chemscore.Hbond.Weighted>
-0.0000

> <Gold.Chemscore.Metal.Weighted>
-0.0000

> <Gold.Chemscore.Lipo.Weighted>
-10.6573

> <Gold.Chemscore.Internal_Hbond.Weighted>
0.0000

> <Gold.Chemscore.DEClash.Weighted>
0.1616

> <Gold.Chemscore.DEInternal.Weighted>
1.8056

> <Gold.Chemscore.Rot.Weighted>
3.6313

> <Gold.Chemscore.Internal.Correction.Weighted>
   9.000000E+99

> <Gold.Protein.RotatedTorsions>
[ 6907 6896 6895 6894 ] final  -30.86 input  -60.11 | X-H torsion
[ 7974 7965 7964 7962 ] final -142.26 input  175.53 | X-H torsion
[ 8008 7997 7996 7995 ] final -131.45 input   59.86 | X-H torsion
[ 10167 10162 10161 10158 ] final -175.15 input  -65.29 | X-H torsion
[ 10718 10713 10712 10709 ] final   23.72 input   66.30 | X-H torsion
[ 10763 10752 10751 10750 ] final  -62.25 input  -60.55 | X-H torsion
[ 11005 11000 10999 10996 ] final  -29.16 input  -57.11 | X-H torsion

> <Gold.Protein.ActiveResidues>
 VAL166  LYS551  ARG553  GLY616  TRP617  ASP618  TYR619  PRO620  LYS621  CYS622 
 ASP623  PHE694  ASN695  SER759  ASP760  ASP761  ALA762  ILE779  LEU786  VAL792 
 PHE793  MET794  SER795  GLU796  ALA797  LYS798  CYS799  TRP800  GLU811  SER814 

> <Gold.Protein.RotatedAtoms>
  151.0998  134.9965  159.8442 H   0  0  0  0  0  0  0  0  0  0  0  0  # atno 6907 bound_to 6896
  152.5436  134.1964  159.8704 H   0  0  0  0  0  0  0  0  0  0  0  0  # atno 6908 bound_to 6896
  151.2006  133.4569  159.2629 H   0  0  0  0  0  0  0  0  0  0  0  0  # atno 6909 bound_to 6896
  144.8457  140.5980  143.5423 H   0  0  0  0  0  0  0  0  0  0  0  0  # atno 7974 bound_to 7965
  155.3125  140.0458  157.3035 H   0  0  0  0  0  0  0  0  0  0  0  0  # atno 8008 bound_to 7997
  154.5425  140.2292  155.8584 H   0  0  0  0  0  0  0  0  0  0  0  0  # atno 8009 bound_to 7997
  156.1894  140.3054  155.9308 H   0  0  0  0  0  0  0  0  0  0  0  0  # atno 8010 bound_to 7997
  139.5596  144.1902  152.1217 H   0  0  0  0  0  0  0  0  0  0  0  0  # atno 10167 bound_to 10162
  157.1700  130.6755  149.6074 H   0  0  0  0  0  0  0  0  0  0  0  0  # atno 10718 bound_to 10713
  154.2970  135.6242  153.5409 H   0  0  0  0  0  0  0  0  0  0  0  0  # atno 10763 bound_to 10752
  152.9845  135.5669  154.5326 H   0  0  0  0  0  0  0  0  0  0  0  0  # atno 10764 bound_to 10752
  154.4949  135.2869  155.1443 H   0  0  0  0  0  0  0  0  0  0  0  0  # atno 10765 bound_to 10752
  140.9272  133.7361  156.0884 H   0  0  0  0  0  0  0  0  0  0  0  0  # atno 11005 bound_to 11000
  145.4602  139.1513  143.3870 LP  0  0  0  0  0  0  0  0  0  0  0  0  # atno 17320 bound_to 7965
  146.2742  140.4732  142.8802 LP  0  0  0  0  0  0  0  0  0  0  0  0  # atno 17321 bound_to 7965
  140.1413  144.5199  150.6742 LP  0  0  0  0  0  0  0  0  0  0  0  0  # atno 17342 bound_to 10162
  140.6874  143.2357  151.5223 LP  0  0  0  0  0  0  0  0  0  0  0  0  # atno 17343 bound_to 10162
  155.9740  130.4682  150.6352 LP  0  0  0  0  0  0  0  0  0  0  0  0  # atno 17370 bound_to 10713
  157.4052  131.0816  151.1272 LP  0  0  0  0  0  0  0  0  0  0  0  0  # atno 17371 bound_to 10713
  140.7911  134.3617  157.5464 LP  0  0  0  0  0  0  0  0  0  0  0  0  # atno 17394 bound_to 11000
  139.8788  134.9140  156.3098 LP  0  0  0  0  0  0  0  0  0  0  0  0  # atno 17395 bound_to 11000

$$$$
