AV-unprocessed.smi:3209|AV-procd|sdf|12271|dock6
  -GOLD-   2272018103D 1   1.00000     0.00000
 Structure written by MMmdl.
 37 39  0  0  0  0  0  0  0  0  2 V2000
  153.2380  143.2272  160.9936 C   0  0  0  0  0  0  0  0  0  0  0  0
  152.5718  143.5117  159.6911 C   0  0  0  0  0  0  0  0  0  0  0  0
  152.2077  142.5638  158.8233 N   0  0  0  0  0  0  0  0  0  0  0  0
  151.6024  143.0872  157.6765 C   0  0  0  0  0  0  0  0  0  0  0  0
  151.1330  142.1645  156.5930 C   0  0  0  0  0  0  0  0  0  0  0  0
  149.7513  141.5688  156.8947 C   0  0  0  0  0  0  0  0  0  0  0  0
  148.7038  142.2247  156.0865 N   0  3  0  0  0  0  0  0  0  0  0  0
  148.4563  141.5940  154.7716 C   0  0  1  0  0  0  0  0  0  0  0  0
  148.4324  140.0502  154.8061 C   0  0  0  0  0  0  0  0  0  0  0  0
  147.0941  139.7177  154.1171 C   0  0  1  0  0  0  0  0  0  0  0  0
  145.9420  140.0154  155.0926 C   0  0  0  0  0  0  0  0  0  0  0  0
  145.9277  141.5542  155.1353 C   0  0  0  0  0  0  0  0  0  0  0  0
  147.0745  141.9391  154.1749 C   0  0  2  0  0  0  0  0  0  0  0  0
  146.9487  140.8546  153.1094 C   0  0  0  0  0  0  0  0  0  0  0  0
  151.5102  144.4567  157.6904 C   0  0  0  0  0  0  0  0  0  0  0  0
  152.1834  145.1385  159.1455 S   0  0  0  0  0  0  0  0  0  0  0  0
  153.5441  142.1820  161.0493 H   0  0  0  0  0  0  0  0  0  0  0  0
  152.5531  143.4360  161.8153 H   0  0  0  0  0  0  0  0  0  0  0  0
  154.1217  143.8555  161.1055 H   0  0  0  0  0  0  0  0  0  0  0  0
  151.0996  142.6991  155.6427 H   0  0  0  0  0  0  0  0  0  0  0  0
  151.8539  141.3574  156.4568 H   0  0  0  0  0  0  0  0  0  0  0  0
  149.7524  140.4992  156.6805 H   0  0  0  0  0  0  0  0  0  0  0  0
  149.5189  141.6853  157.9539 H   0  0  0  0  0  0  0  0  0  0  0  0
  147.8391  142.2327  156.6085 H   0  0  0  0  0  0  0  0  0  0  0  0
  149.2266  141.9325  154.0759 H   0  0  0  0  0  0  0  0  0  0  0  0
  149.2734  139.6444  154.2425 H   0  0  0  0  0  0  0  0  0  0  0  0
  148.4802  139.6387  155.8153 H   0  0  0  0  0  0  0  0  0  0  0  0
  147.0571  138.7143  153.6918 H   0  0  0  0  0  0  0  0  0  0  0  0
  144.9965  139.6347  154.7037 H   0  0  0  0  0  0  0  0  0  0  0  0
  146.1013  139.5708  156.0757 H   0  0  0  0  0  0  0  0  0  0  0  0
  144.9747  141.9326  154.7631 H   0  0  0  0  0  0  0  0  0  0  0  0
  146.0617  141.9458  156.1438 H   0  0  0  0  0  0  0  0  0  0  0  0
  147.0043  142.9594  153.7966 H   0  0  0  0  0  0  0  0  0  0  0  0
  147.7472  140.8785  152.3656 H   0  0  0  0  0  0  0  0  0  0  0  0
  145.9844  140.8586  152.5976 H   0  0  0  0  0  0  0  0  0  0  0  0
  151.0881  145.1056  156.9369 H   0  0  0  0  0  0  0  0  0  0  0  0
  148.9916  143.1795  155.9259 H   0  0  0  0  0  0  0  0  0  0  0  0
  1  2  1  0  0  0  0
  1 17  1  0  0  0  0
  1 18  1  0  0  0  0
  1 19  1  0  0  0  0
  2 16  1  0  0  0  0
  2  3  2  0  0  0  0
  3  4  1  0  0  0  0
  4  5  1  0  0  0  0
  4 15  2  0  0  0  0
  5  6  1  0  0  0  0
  5 20  1  0  0  0  0
  5 21  1  0  0  0  0
  6  7  1  0  0  0  0
  6 22  1  0  0  0  0
  6 23  1  0  0  0  0
  7  8  1  0  0  0  0
  7 24  1  0  0  0  0
  7 37  1  0  0  0  0
  8 13  1  0  0  0  0
  8  9  1  0  0  0  0
  8 25  1  0  0  0  0
  9 10  1  0  0  0  0
  9 26  1  0  0  0  0
  9 27  1  0  0  0  0
 10 14  1  0  0  0  0
 10 11  1  0  0  0  0
 10 28  1  0  0  0  0
 11 12  1  0  0  0  0
 11 29  1  0  0  0  0
 11 30  1  0  0  0  0
 12 13  1  0  0  0  0
 12 31  1  0  0  0  0
 12 32  1  0  0  0  0
 13 14  1  0  0  0  0
 13 33  1  0  0  0  0
 14 34  1  0  0  0  0
 14 35  1  0  0  0  0
 15 16  1  0  0  0  0
 15 36  1  0  0  0  0
M  CHG  1   7   1
M  END
> <s_m_source_file>
AV-unprocessed.smi

> <i_m_source_file_index>
3209

> <i_lp_mmshare_version>
43012

> <i_f3d_flags>
0

> <s_epik_input>
W0NIM11jMW5jKFtjSF1zMSlbQ0gyXVtDSDJdW05IXVtDQEhdKFtDSDJdW0NASF0yMylbQ0BIXShbQ0gyXTMpW0NIMl1bQ0gyXTI=

> <s_epik_cmdline>
J2VwaWtfcHl0aG9uJywgJy1waCcsICc3LjAnLCAnLXRuJywgJzgnLCAnLW1hJywgJzIwMCcsICctbWV0YWxfYmluZGluZycsICctaW1hZScsICc8aW5maWxlLm1hZT4nLCAnLW9tYWUnLCAnPG91dGZpbGUubWFlPic=

> <r_lp_tautomer_probability>
1

> <r_epik_Ionization_Penalty>
0.000342479

> <r_epik_Ionization_Penalty_Charging>
0.000317129

> <r_epik_Ionization_Penalty_Neutral>
2.535e-05

> <r_epik_State_Penalty>
-0

> <r_epik_Charging_Adjusted_Penalty>
0.000317129

> <i_epik_Tot_Q>
1

> <i_epik_Tot_abs_Q>
1

> <r_epik_Metal_State_Penalty>
-0

> <b_epik_Metal_Only>
0

> <s_lp_Force_Field>
OPLS_2005

> <r_lp_Energy>
49.0881

> <b_lp_Chiralities_Consistent>
1

> <s_lp_Variant>
AV-unprocessed.smi:3209-4

> <Gold.Version>
5.8.1

> <Gold.Id.Protein>
6NUR|6NUR_protein|mol2

> <Gold.PLP.Fitness>
43.7403

> <Gold.PLP.PLP>
-36.8892

> <Gold.PLP.part.hbond>
-0.9764

> <Gold.PLP.part.metal>
0.0000

> <Gold.PLP.part.buried>
-5.1247

> <Gold.PLP.part.nonpolar>
-31.4776

> <Gold.PLP.part.repulsive>
0.0620

> <Gold.PLP.ligand.clash>
0.0000

> <Gold.PLP.ligand.torsion>
0.9940

> <Gold.PLP.Chemscore.Hbond>
2.0000

> <Gold.PLP.Chemscore.CHOScore>
0.9441

> <Gold.PLP.Chemscore.Metal>
0.0000

> <Gold.Chemscore.Hbonds>
donor molecule, donor type, donor heavy atom, donor atom, acceptor molecule, acceptor atom, score
      L1  H     7    37       P1  8028  2.00
      L1  C    15    36       P1  8028  0.95

> <Gold.PLP.Chemscore.Internal.Correction>
0.0068

> <Gold.Rescore>
     Score         DG    S(hbond)    S(metal)    S(lipo)     H(rot)  DE(clash)    DE(int)     intcor
     17.44     -18.34       0.96        0.00     111.09       1.31       0.05       0.84       ----

> <Gold.Chemscore.Fitness>
17.4409

> <Gold.Chemscore.DG>
-18.3378

> <Gold.Chemscore.ZeroCoef>
-5.4800

> <Gold.Chemscore.Hbond>
0.9628

> <Gold.Chemscore.Metal>
0.0000

> <Gold.Chemscore.Lipo>
111.0933

> <Gold.Chemscore.Internal_Hbond>
0.0000

> <Gold.Chemscore.DEClash>
0.0525

> <Gold.Chemscore.DEInternal>
0.8443

> <Gold.Chemscore.Rot>
1.3108

> <Gold.Chemscore.Internal.Correction>
   9.000000E+99

> <Gold.Chemscore.Hbonds>
donor molecule, donor type, donor heavy atom, donor atom, acceptor molecule, acceptor atom, score
      L1  H     7    37       P1  8028  0.96

> <Gold.Chemscore.Hbond.Weighted>
-3.2156

> <Gold.Chemscore.Metal.Weighted>
-0.0000

> <Gold.Chemscore.Lipo.Weighted>
-12.9979

> <Gold.Chemscore.Internal_Hbond.Weighted>
0.0000

> <Gold.Chemscore.DEClash.Weighted>
0.0525

> <Gold.Chemscore.DEInternal.Weighted>
0.8443

> <Gold.Chemscore.Rot.Weighted>
3.3558

> <Gold.Chemscore.Internal.Correction.Weighted>
   9.000000E+99

> <Gold.Protein.RotatedTorsions>
[ 6907 6896 6895 6894 ] final   39.88 input  -60.11 | X-H torsion
[ 7974 7965 7964 7962 ] final -115.88 input  175.53 | X-H torsion
[ 8008 7997 7996 7995 ] final  175.17 input   59.86 | X-H torsion
[ 10167 10162 10161 10158 ] final -140.02 input  -65.29 | X-H torsion
[ 10718 10713 10712 10709 ] final  125.32 input   66.30 | X-H torsion
[ 10763 10752 10751 10750 ] final   85.92 input  -60.55 | X-H torsion
[ 11005 11000 10999 10996 ] final  104.83 input  -57.11 | X-H torsion

> <Gold.Protein.ActiveResidues>
 VAL166  LYS551  ARG553  GLY616  TRP617  ASP618  TYR619  PRO620  LYS621  CYS622 
 ASP623  PHE694  ASN695  SER759  ASP760  ASP761  ALA762  ILE779  LEU786  VAL792 
 PHE793  MET794  SER795  GLU796  ALA797  LYS798  CYS799  TRP800  GLU811  SER814 

> <Gold.Protein.RotatedAtoms>
  152.1753  134.8800  160.0530 H   0  0  0  0  0  0  0  0  0  0  0  0  # atno 6907 bound_to 6896
  151.9745  133.3732  159.4092 H   0  0  0  0  0  0  0  0  0  0  0  0  # atno 6908 bound_to 6896
  150.6908  134.4028  159.5170 H   0  0  0  0  0  0  0  0  0  0  0  0  # atno 6909 bound_to 6896
  145.1032  140.8565  143.3914 H   0  0  0  0  0  0  0  0  0  0  0  0  # atno 7974 bound_to 7965
  156.0898  140.1416  156.9606 H   0  0  0  0  0  0  0  0  0  0  0  0  # atno 8008 bound_to 7997
  154.4635  140.0934  156.7005 H   0  0  0  0  0  0  0  0  0  0  0  0  # atno 8009 bound_to 7997
  155.4938  140.3449  155.4361 H   0  0  0  0  0  0  0  0  0  0  0  0  # atno 8010 bound_to 7997
  139.8322  143.7432  152.2665 H   0  0  0  0  0  0  0  0  0  0  0  0  # atno 10167 bound_to 10162
  157.5513  131.1094  150.8697 H   0  0  0  0  0  0  0  0  0  0  0  0  # atno 10718 bound_to 10713
  153.1521  135.4599  154.9651 H   0  0  0  0  0  0  0  0  0  0  0  0  # atno 10763 bound_to 10752
  154.7832  135.3195  154.7945 H   0  0  0  0  0  0  0  0  0  0  0  0  # atno 10764 bound_to 10752
  153.8449  135.6927  153.4853 H   0  0  0  0  0  0  0  0  0  0  0  0  # atno 10765 bound_to 10752
  139.8796  134.9314  156.5421 H   0  0  0  0  0  0  0  0  0  0  0  0  # atno 11005 bound_to 11000
  145.0931  139.2875  143.5724 LP  0  0  0  0  0  0  0  0  0  0  0  0  # atno 17320 bound_to 7965
  146.3529  140.0475  142.8638 LP  0  0  0  0  0  0  0  0  0  0  0  0  # atno 17321 bound_to 7965
  139.7643  144.7497  151.0318 LP  0  0  0  0  0  0  0  0  0  0  0  0  # atno 17342 bound_to 10162
  140.7805  143.4716  151.0139 LP  0  0  0  0  0  0  0  0  0  0  0  0  # atno 17343 bound_to 10162
  156.9221  130.5319  149.5279 LP  0  0  0  0  0  0  0  0  0  0  0  0  # atno 17370 bound_to 10713
  156.0579  130.5637  150.9131 LP  0  0  0  0  0  0  0  0  0  0  0  0  # atno 17371 bound_to 10713
  140.8303  133.8284  155.8977 LP  0  0  0  0  0  0  0  0  0  0  0  0  # atno 17394 bound_to 11000
  140.9335  134.1991  157.4847 LP  0  0  0  0  0  0  0  0  0  0  0  0  # atno 17395 bound_to 11000

$$$$
