AV-unprocessed.smi:898|AV-procd|sdf|4086|dock6
  -GOLD-   22720 1573D 1   1.00000     0.00000
 Structure written by MMmdl.
 33 35  0  0  0  0  0  0  0  0  2 V2000
  150.8896  140.5444  155.1282 O   0  0  0  0  0  0  0  0  0  0  0  0
  150.0891  141.4815  155.1727 C   0  0  0  0  0  0  0  0  0  0  0  0
  149.0426  141.6816  154.3396 N   0  5  0  0  0  0  0  0  0  0  0  0
  147.8240  141.9397  154.8420 C   0  0  0  0  0  0  0  0  0  0  0  0
  147.5077  141.6968  156.1217 N   0  0  0  0  0  0  0  0  0  0  0  0
  146.1973  142.0313  156.4313 N   0  0  0  0  0  0  0  0  0  0  0  0
  145.5386  142.5171  155.3766 C   0  0  0  0  0  0  0  0  0  0  0  0
  144.1132  142.9517  155.4553 C   0  0  0  0  0  0  0  0  0  0  0  0
  143.6678  144.3070  154.9501 C   0  0  0  0  0  0  0  0  0  0  0  0
  143.6865  144.0244  156.4307 C   0  0  0  0  0  0  0  0  0  0  0  0
  146.4859  142.5954  153.8996 S   0  0  0  0  0  0  0  0  0  0  0  0
  150.2100  142.4221  156.1207 N   0  0  0  0  0  0  0  0  0  0  0  0
  151.2258  142.4657  157.1694 C   0  0  1  0  0  0  0  0  0  0  0  0
  151.2833  143.8896  157.7554 C   0  0  0  0  0  0  0  0  0  0  0  0
  152.3723  144.0474  158.8289 C   0  0  0  0  0  0  0  0  0  0  0  0
  152.1488  143.1161  160.0284 C   0  0  0  0  0  0  0  0  0  0  0  0
  152.2116  141.3751  159.5274 S   0  0  0  0  0  0  0  0  0  0  0  0
  150.9196  141.4141  158.2540 C   0  0  0  0  0  0  0  0  0  0  0  0
  143.4449  142.1070  155.3004 H   0  0  0  0  0  0  0  0  0  0  0  0
  144.4242  144.9881  154.5651 H   0  0  0  0  0  0  0  0  0  0  0  0
  142.6971  144.3660  154.4624 H   0  0  0  0  0  0  0  0  0  0  0  0
  142.7291  143.8949  156.9311 H   0  0  0  0  0  0  0  0  0  0  0  0
  144.4623  144.5051  157.0236 H   0  0  0  0  0  0  0  0  0  0  0  0
  149.5314  143.1693  156.1152 H   0  0  0  0  0  0  0  0  0  0  0  0
  152.1968  142.2425  156.7231 H   0  0  0  0  0  0  0  0  0  0  0  0
  151.4732  144.6041  156.9534 H   0  0  0  0  0  0  0  0  0  0  0  0
  150.3136  144.1572  158.1780 H   0  0  0  0  0  0  0  0  0  0  0  0
  153.3534  143.8577  158.3918 H   0  0  0  0  0  0  0  0  0  0  0  0
  152.3872  145.0811  159.1755 H   0  0  0  0  0  0  0  0  0  0  0  0
  152.9115  143.2885  160.7880 H   0  0  0  0  0  0  0  0  0  0  0  0
  151.1830  143.3182  160.4926 H   0  0  0  0  0  0  0  0  0  0  0  0
  149.9607  141.6233  158.7294 H   0  0  0  0  0  0  0  0  0  0  0  0
  150.8472  140.4181  157.8162 H   0  0  0  0  0  0  0  0  0  0  0  0
  1  2  2  0  0  0  0
  2  3  1  0  0  0  0
  2 12  1  0  0  0  0
  3  4  1  0  0  0  0
  4 11  1  0  0  0  0
  4  5  2  0  0  0  0
  5  6  1  0  0  0  0
  6  7  2  0  0  0  0
  7  8  1  0  0  0  0
  7 11  1  0  0  0  0
  8 10  1  0  0  0  0
  8  9  1  0  0  0  0
  8 19  1  0  0  0  0
  9 10  1  0  0  0  0
  9 20  1  0  0  0  0
  9 21  1  0  0  0  0
 10 22  1  0  0  0  0
 10 23  1  0  0  0  0
 12 13  1  0  0  0  0
 12 24  1  0  0  0  0
 13 18  1  0  0  0  0
 13 14  1  0  0  0  0
 13 25  1  0  0  0  0
 14 15  1  0  0  0  0
 14 26  1  0  0  0  0
 14 27  1  0  0  0  0
 15 16  1  0  0  0  0
 15 28  1  0  0  0  0
 15 29  1  0  0  0  0
 16 17  1  0  0  0  0
 16 30  1  0  0  0  0
 16 31  1  0  0  0  0
 17 18  1  0  0  0  0
 18 32  1  0  0  0  0
 18 33  1  0  0  0  0
M  CHG  1   3  -1
M  END
> <s_m_source_file>
AV-unprocessed.smi

> <i_m_source_file_index>
898

> <i_lp_mmshare_version>
43012

> <i_f3d_flags>
0

> <s_epik_input>
W0NIMl0xU1tDSDJdW0NIMl1bQ0gyXVtDQEhdMVtOSF1DKD1PKVtOSF1jMm5uYyhzMilbQ0hdM1tDSDJdW0NIMl0z

> <s_epik_cmdline>
J2VwaWtfcHl0aG9uJywgJy1waCcsICc3LjAnLCAnLXRuJywgJzgnLCAnLW1hJywgJzIwMCcsICctbWV0YWxfYmluZGluZycsICctaW1hZScsICc8aW5maWxlLm1hZT4nLCAnLW9tYWUnLCAnPG91dGZpbGUubWFlPic=

> <r_lp_tautomer_probability>
1

> <r_epik_Ionization_Penalty>
4.71411

> <r_epik_Ionization_Penalty_Charging>
4.5615

> <r_epik_Ionization_Penalty_Neutral>
0.152604

> <r_epik_State_Penalty>
4.56123

> <r_epik_Charging_Adjusted_Penalty>
9.12273

> <i_epik_Tot_Q>
-1

> <i_epik_Tot_abs_Q>
1

> <r_epik_Metal_State_Penalty>
0.850765

> <b_epik_Metal_Only>
1

> <s_lp_Force_Field>
OPLS_2005

> <r_lp_Energy>
0.516701

> <b_lp_Chiralities_Consistent>
1

> <s_lp_Variant>
AV-unprocessed.smi:898-4

> <Gold.Version>
5.8.1

> <Gold.Id.Protein>
6NUR|6NUR_protein|mol2

> <Gold.PLP.Fitness>
39.7707

> <Gold.PLP.PLP>
-34.4650

> <Gold.PLP.part.hbond>
-3.0554

> <Gold.PLP.part.metal>
0.0000

> <Gold.PLP.part.buried>
-2.4611

> <Gold.PLP.part.nonpolar>
-28.2740

> <Gold.PLP.part.repulsive>
0.5854

> <Gold.PLP.ligand.clash>
0.0120

> <Gold.PLP.ligand.torsion>
0.7790

> <Gold.PLP.Chemscore.Hbond>
2.2420

> <Gold.PLP.Chemscore.CHOScore>
0.0000

> <Gold.PLP.Chemscore.Metal>
0.0000

> <Gold.Chemscore.Hbonds>
donor molecule, donor type, donor heavy atom, donor atom, acceptor molecule, acceptor atom, score
      L1  H    12    24       P1  8028  1.00
      P1  H  7989  7998       L1     1  0.93
      P1  H  8011  8017       L1     3  0.22

> <Gold.PLP.Chemscore.Internal.Correction>
0.1498

> <Gold.Rescore>
     Score         DG    S(hbond)    S(metal)    S(lipo)     H(rot)  DE(clash)    DE(int)     intcor
     15.12     -15.78       1.00        0.00      85.59       1.19       0.05       0.61       ----

> <Gold.Chemscore.Fitness>
15.1225

> <Gold.Chemscore.DG>
-15.7796

> <Gold.Chemscore.ZeroCoef>
-5.4800

> <Gold.Chemscore.Hbond>
0.9983

> <Gold.Chemscore.Metal>
0.0000

> <Gold.Chemscore.Lipo>
85.5946

> <Gold.Chemscore.Internal_Hbond>
0.0000

> <Gold.Chemscore.DEClash>
0.0518

> <Gold.Chemscore.DEInternal>
0.6053

> <Gold.Chemscore.Rot>
1.1911

> <Gold.Chemscore.Internal.Correction>
   9.000000E+99

> <Gold.Chemscore.Hbonds>
donor molecule, donor type, donor heavy atom, donor atom, acceptor molecule, acceptor atom, score
      L1  H    12    24       P1  8028  0.98
      P1  H  7989  7998       L1     1  0.20
      P1  H  8011  8017       L1     3  0.17

> <Gold.Chemscore.Hbond.Weighted>
-3.3343

> <Gold.Chemscore.Metal.Weighted>
-0.0000

> <Gold.Chemscore.Lipo.Weighted>
-10.0146

> <Gold.Chemscore.Internal_Hbond.Weighted>
0.0000

> <Gold.Chemscore.DEClash.Weighted>
0.0518

> <Gold.Chemscore.DEInternal.Weighted>
0.6053

> <Gold.Chemscore.Rot.Weighted>
3.0492

> <Gold.Chemscore.Internal.Correction.Weighted>
   9.000000E+99

> <Gold.Protein.RotatedTorsions>
[ 6907 6896 6895 6894 ] final   89.94 input  -60.11 | X-H torsion
[ 7974 7965 7964 7962 ] final  160.44 input  175.53 | X-H torsion
[ 8008 7997 7996 7995 ] final -161.22 input   59.86 | X-H torsion
[ 10167 10162 10161 10158 ] final   15.86 input  -65.29 | X-H torsion
[ 10718 10713 10712 10709 ] final  -69.05 input   66.30 | X-H torsion
[ 10763 10752 10751 10750 ] final -133.08 input  -60.55 | X-H torsion
[ 11005 11000 10999 10996 ] final  131.73 input  -57.11 | X-H torsion

> <Gold.Protein.ActiveResidues>
 VAL166  LYS551  ARG553  GLY616  TRP617  ASP618  TYR619  PRO620  LYS621  CYS622 
 ASP623  PHE694  ASN695  SER759  ASP760  ASP761  ALA762  ILE779  LEU786  VAL792 
 PHE793  MET794  SER795  GLU796  ALA797  LYS798  CYS799  TRP800  GLU811  SER814 

> <Gold.Protein.RotatedAtoms>
  152.5440  134.1889  159.8665 H   0  0  0  0  0  0  0  0  0  0  0  0  # atno 6907 bound_to 6896
  151.1886  133.4674  159.2602 H   0  0  0  0  0  0  0  0  0  0  0  0  # atno 6908 bound_to 6896
  151.1106  135.0036  159.8547 H   0  0  0  0  0  0  0  0  0  0  0  0  # atno 6909 bound_to 6896
  144.7737  139.7757  143.6287 H   0  0  0  0  0  0  0  0  0  0  0  0  # atno 7974 bound_to 7965
  155.7889  140.0875  157.2019 H   0  0  0  0  0  0  0  0  0  0  0  0  # atno 8008 bound_to 7997
  154.3986  140.1493  156.3198 H   0  0  0  0  0  0  0  0  0  0  0  0  # atno 8009 bound_to 7997
  155.8578  140.3431  155.5739 H   0  0  0  0  0  0  0  0  0  0  0  0  # atno 8010 bound_to 7997
  140.5838  143.8929  150.6812 H   0  0  0  0  0  0  0  0  0  0  0  0  # atno 10167 bound_to 10162
  156.0474  130.4305  150.2090 H   0  0  0  0  0  0  0  0  0  0  0  0  # atno 10718 bound_to 10713
  154.8736  135.3777  154.4515 H   0  0  0  0  0  0  0  0  0  0  0  0  # atno 10763 bound_to 10752
  153.5191  135.7029  153.5746 H   0  0  0  0  0  0  0  0  0  0  0  0  # atno 10764 bound_to 10752
  153.4001  135.3950  155.1947 H   0  0  0  0  0  0  0  0  0  0  0  0  # atno 10765 bound_to 10752
  139.9747  134.9567  156.9480 H   0  0  0  0  0  0  0  0  0  0  0  0  # atno 11005 bound_to 11000
  146.1901  139.5138  142.9810 LP  0  0  0  0  0  0  0  0  0  0  0  0  # atno 17320 bound_to 7965
  145.6249  141.0315  143.1895 LP  0  0  0  0  0  0  0  0  0  0  0  0  # atno 17321 bound_to 7965
  140.2435  143.3646  152.1466 LP  0  0  0  0  0  0  0  0  0  0  0  0  # atno 17342 bound_to 10162
  139.5185  144.7007  151.5501 LP  0  0  0  0  0  0  0  0  0  0  0  0  # atno 17343 bound_to 10162
  157.0178  130.9970  151.3348 LP  0  0  0  0  0  0  0  0  0  0  0  0  # atno 17370 bound_to 10713
  157.5365  130.8092  149.7978 LP  0  0  0  0  0  0  0  0  0  0  0  0  # atno 17371 bound_to 10713
  140.5219  134.0899  155.7294 LP  0  0  0  0  0  0  0  0  0  0  0  0  # atno 17394 bound_to 11000
  141.1425  133.9113  157.2292 LP  0  0  0  0  0  0  0  0  0  0  0  0  # atno 17395 bound_to 11000

$$$$
