AV-unprocessed.smi:174|AV-procd|sdf|1426|dock8
  -GOLD-   2262019203D 1   1.00000     0.00000
 Structure written by MMmdl.
 51 54  0  0  0  0  0  0  0  0  1 V2000
  145.6892  133.6803  150.1451 N   0  0  0  0  0  0  0  0  0  0  0  0
  144.8806  134.5723  150.7216 C   0  0  0  0  0  0  0  0  0  0  0  0
  144.2038  135.3607  150.0628 O   0  0  0  0  0  0  0  0  0  0  0  0
  144.8522  134.5801  152.2569 C   0  0  0  0  0  0  0  0  0  0  0  0
  145.5076  135.7575  152.8497 N   0  0  0  0  0  0  0  0  0  0  0  0
  145.0344  137.0708  152.4000 C   0  0  0  0  0  0  0  0  0  0  0  0
  146.1534  138.1167  152.4037 C   0  0  0  0  0  0  0  0  0  0  0  0
  146.7963  138.1612  153.7109 N   0  0  0  0  0  0  0  0  0  0  0  0
  147.5022  139.2647  154.0850 C   0  0  0  0  0  0  0  0  0  0  0  0
  146.9612  140.4814  153.8090 N   0  0  0  0  0  0  0  0  0  0  0  0
  147.6013  141.6061  154.1380 C   0  0  0  0  0  0  0  0  0  0  0  0
  148.7789  141.7466  154.7465 N   0  0  0  0  0  0  0  0  0  0  0  0
  149.3288  140.5343  155.0397 C   0  0  0  0  0  0  0  0  0  0  0  0
  148.7680  139.2555  154.7496 C   0  0  0  0  0  0  0  0  0  0  0  0
  149.6235  138.2622  155.2189 N   0  0  0  0  0  0  0  0  0  0  0  0
  150.6286  138.9116  155.7384 C   0  0  0  0  0  0  0  0  0  0  0  0
  150.5330  140.2810  155.6726 N   0  0  0  0  0  0  0  0  0  0  0  0
  151.5020  141.2427  156.1687 C   0  0  0  0  0  0  0  0  0  0  0  0
  151.7739  141.0826  157.6775 C   0  0  1  0  0  0  0  0  0  0  0  0
  152.7630  140.0899  157.8749 O   0  0  0  0  0  0  0  0  0  0  0  0
  152.2539  142.3958  158.3222 C   0  0  2  0  0  0  0  0  0  0  0  0
  152.4952  142.3138  159.8294 C   0  0  0  0  0  0  0  0  0  0  0  0
  152.3744  143.7595  160.2803 C   0  0  0  0  0  0  0  0  0  0  0  0
  151.5963  144.4362  159.1476 C   0  0  0  0  0  0  0  0  0  0  0  0
  151.2442  143.3905  158.2507 O   0  0  0  0  0  0  0  0  0  0  0  0
  147.1161  136.8969  154.3939 C   0  0  0  0  0  0  0  0  0  0  0  0
  146.4520  135.6332  153.8143 C   0  0  0  0  0  0  0  0  0  0  0  0
  146.8190  134.5397  154.2454 O   0  0  0  0  0  0  0  0  0  0  0  0
  145.7407  133.6286  149.1379 H   0  0  0  0  0  0  0  0  0  0  0  0
  146.2413  133.0562  150.7153 H   0  0  0  0  0  0  0  0  0  0  0  0
  143.8171  134.5166  152.5983 H   0  0  0  0  0  0  0  0  0  0  0  0
  145.3261  133.6637  152.6093 H   0  0  0  0  0  0  0  0  0  0  0  0
  144.6057  137.0128  151.3993 H   0  0  0  0  0  0  0  0  0  0  0  0
  144.2288  137.3879  153.0640 H   0  0  0  0  0  0  0  0  0  0  0  0
  146.8959  137.8785  151.6409 H   0  0  0  0  0  0  0  0  0  0  0  0
  145.7191  139.0857  152.1554 H   0  0  0  0  0  0  0  0  0  0  0  0
  147.0973  142.5246  153.8757 H   0  0  0  0  0  0  0  0  0  0  0  0
  151.4723  138.4068  156.1860 H   0  0  0  0  0  0  0  0  0  0  0  0
  152.4269  141.1343  155.6007 H   0  0  0  0  0  0  0  0  0  0  0  0
  151.1247  142.2438  155.9568 H   0  0  0  0  0  0  0  0  0  0  0  0
  150.8617  140.7481  158.1733 H   0  0  0  0  0  0  0  0  0  0  0  0
  152.4723  139.5082  158.5608 H   0  0  0  0  0  0  0  0  0  0  0  0
  153.1502  142.7654  157.8196 H   0  0  0  0  0  0  0  0  0  0  0  0
  151.7149  141.7170  160.3037 H   0  0  0  0  0  0  0  0  0  0  0  0
  153.4587  141.8699  160.0813 H   0  0  0  0  0  0  0  0  0  0  0  0
  151.8581  143.8359  161.2376 H   0  0  0  0  0  0  0  0  0  0  0  0
  153.3577  144.2180  160.3910 H   0  0  0  0  0  0  0  0  0  0  0  0
  150.7057  144.9538  159.5046 H   0  0  0  0  0  0  0  0  0  0  0  0
  152.2259  145.1604  158.6290 H   0  0  0  0  0  0  0  0  0  0  0  0
  148.1972  136.7490  154.3844 H   0  0  0  0  0  0  0  0  0  0  0  0
  146.8121  136.9650  155.4394 H   0  0  0  0  0  0  0  0  0  0  0  0
  1  2  1  0  0  0  0
  1 29  1  0  0  0  0
  1 30  1  0  0  0  0
  2  3  2  0  0  0  0
  2  4  1  0  0  0  0
  4  5  1  0  0  0  0
  4 31  1  0  0  0  0
  4 32  1  0  0  0  0
  5 27  1  0  0  0  0
  5  6  1  0  0  0  0
  6  7  1  0  0  0  0
  6 33  1  0  0  0  0
  6 34  1  0  0  0  0
  7  8  1  0  0  0  0
  7 35  1  0  0  0  0
  7 36  1  0  0  0  0
  8  9  1  0  0  0  0
  8 26  1  0  0  0  0
  9 14  1  0  0  0  0
  9 10  2  0  0  0  0
 10 11  1  0  0  0  0
 11 12  2  0  0  0  0
 11 37  1  0  0  0  0
 12 13  1  0  0  0  0
 13 17  1  0  0  0  0
 13 14  2  0  0  0  0
 14 15  1  0  0  0  0
 15 16  2  0  0  0  0
 16 17  1  0  0  0  0
 16 38  1  0  0  0  0
 17 18  1  0  0  0  0
 18 19  1  0  0  0  0
 18 39  1  0  0  0  0
 18 40  1  0  0  0  0
 19 20  1  0  0  0  0
 19 21  1  0  0  0  0
 19 41  1  0  0  0  0
 20 42  1  0  0  0  0
 21 25  1  0  0  0  0
 21 22  1  0  0  0  0
 21 43  1  0  0  0  0
 22 23  1  0  0  0  0
 22 44  1  0  0  0  0
 22 45  1  0  0  0  0
 23 24  1  0  0  0  0
 23 46  1  0  0  0  0
 23 47  1  0  0  0  0
 24 25  1  0  0  0  0
 24 48  1  0  0  0  0
 24 49  1  0  0  0  0
 26 27  1  0  0  0  0
 26 50  1  0  0  0  0
 26 51  1  0  0  0  0
 27 28  2  0  0  0  0
M  END
> <s_m_source_file>
AV-unprocessed.smi

> <i_m_source_file_index>
174

> <i_lp_mmshare_version>
43012

> <i_f3d_flags>
0

> <s_epik_input>
W05IMl1DKD1PKVtDSDJdTjFbQ0gyXVtDSDJdTihbQ0gyXUMxPU8pYyhuW2NIXW4yKWMoYzIzKW5bY0hdbjNbQ0gyXVtDQEhdKFtPSF0pW0NAQEhdNFtDSDJdW0NIMl1bQ0gyXU80

> <s_epik_cmdline>
J2VwaWtfcHl0aG9uJywgJy1waCcsICc3LjAnLCAnLXRuJywgJzgnLCAnLW1hJywgJzIwMCcsICctbWV0YWxfYmluZGluZycsICctaW1hZScsICc8aW5maWxlLm1hZT4nLCAnLW9tYWUnLCAnPG91dGZpbGUubWFlPic=

> <r_lp_tautomer_probability>
1

> <r_epik_Ionization_Penalty>
0.000250477

> <r_epik_Ionization_Penalty_Charging>
0

> <r_epik_Ionization_Penalty_Neutral>
0.000250477

> <r_epik_State_Penalty>
-0

> <r_epik_Charging_Adjusted_Penalty>
0

> <i_epik_Tot_Q>
0

> <i_epik_Tot_abs_Q>
0

> <r_epik_Metal_State_Penalty>
-0

> <b_epik_Metal_Only>
0

> <s_lp_Force_Field>
OPLS_2005

> <r_lp_Energy>
35.93

> <b_lp_Chiralities_Consistent>
1

> <s_lp_Variant>
AV-unprocessed.smi:174-2

> <Gold.Version>
5.8.1

> <Gold.Id.Protein>
6NUR|6NUR_protein|mol2

> <Gold.PLP.Fitness>
43.4175

> <Gold.PLP.PLP>
-39.7530

> <Gold.PLP.part.hbond>
-2.0399

> <Gold.PLP.part.metal>
0.0000

> <Gold.PLP.part.buried>
-7.5433

> <Gold.PLP.part.nonpolar>
-31.9297

> <Gold.PLP.part.repulsive>
1.1180

> <Gold.PLP.ligand.clash>
0.0000

> <Gold.PLP.ligand.torsion>
0.9010

> <Gold.PLP.Chemscore.Hbond>
1.7448

> <Gold.PLP.Chemscore.CHOScore>
0.0000

> <Gold.PLP.Chemscore.Metal>
0.0000

> <Gold.Chemscore.Hbonds>
donor molecule, donor type, donor heavy atom, donor atom, acceptor molecule, acceptor atom, score
      L1  H     1    29       P1  7921  0.71
      P1  H  7997  8009       L1    20  1.00

> <Gold.PLP.Chemscore.Internal.Correction>
0.2322

> <Gold.Rescore>
     Score         DG    S(hbond)    S(metal)    S(lipo)     H(rot)  DE(clash)    DE(int)     intcor
      7.35     -10.96       1.56        0.00      78.03       3.46       0.50       3.11       ----

> <Gold.Chemscore.Fitness>
7.3471

> <Gold.Chemscore.DG>
-10.9565

> <Gold.Chemscore.ZeroCoef>
-5.4800

> <Gold.Chemscore.Hbond>
1.5575

> <Gold.Chemscore.Metal>
0.0000

> <Gold.Chemscore.Lipo>
78.0317

> <Gold.Chemscore.Internal_Hbond>
0.0000

> <Gold.Chemscore.DEClash>
0.4958

> <Gold.Chemscore.DEInternal>
3.1135

> <Gold.Chemscore.Rot>
3.4591

> <Gold.Chemscore.Internal.Correction>
   9.000000E+99

> <Gold.Chemscore.Hbonds>
donor molecule, donor type, donor heavy atom, donor atom, acceptor molecule, acceptor atom, score
      L1  H     1    29       P1  7921  0.14
      P1  H  7997  8009       L1    20  0.94

> <Gold.Chemscore.Hbond.Weighted>
-5.2021

> <Gold.Chemscore.Metal.Weighted>
-0.0000

> <Gold.Chemscore.Lipo.Weighted>
-9.1297

> <Gold.Chemscore.Internal_Hbond.Weighted>
0.0000

> <Gold.Chemscore.DEClash.Weighted>
0.4958

> <Gold.Chemscore.DEInternal.Weighted>
3.1135

> <Gold.Chemscore.Rot.Weighted>
8.8553

> <Gold.Chemscore.Internal.Correction.Weighted>
   9.000000E+99

> <Gold.Protein.RotatedTorsions>
[ 6907 6896 6895 6894 ] final   50.36 input  -60.11 | X-H torsion
[ 7974 7965 7964 7962 ] final  117.95 input  175.53 | X-H torsion
[ 8008 7997 7996 7995 ] final  163.54 input   59.86 | X-H torsion
[ 10167 10162 10161 10158 ] final -144.48 input  -65.29 | X-H torsion
[ 10718 10713 10712 10709 ] final   83.18 input   66.30 | X-H torsion
[ 10763 10752 10751 10750 ] final -172.81 input  -60.55 | X-H torsion
[ 11005 11000 10999 10996 ] final  -93.04 input  -57.11 | X-H torsion

> <Gold.Protein.ActiveResidues>
 VAL166  LYS551  ARG553  GLY616  TRP617  ASP618  TYR619  PRO620  LYS621  CYS622 
 ASP623  PHE694  ASN695  SER759  ASP760  ASP761  ALA762  ILE779  LEU786  VAL792 
 PHE793  MET794  SER795  GLU796  ALA797  LYS798  CYS799  TRP800  GLU811  SER814 

> <Gold.Protein.RotatedAtoms>
  152.3010  134.7611  160.0357 H   0  0  0  0  0  0  0  0  0  0  0  0  # atno 6907 bound_to 6896
  151.8124  133.3378  159.3567 H   0  0  0  0  0  0  0  0  0  0  0  0  # atno 6908 bound_to 6896
  150.7274  134.5581  159.5873 H   0  0  0  0  0  0  0  0  0  0  0  0  # atno 6909 bound_to 6896
  145.1612  139.3154  143.4516 H   0  0  0  0  0  0  0  0  0  0  0  0  # atno 7974 bound_to 7965
  156.1949  140.1721  156.8018 H   0  0  0  0  0  0  0  0  0  0  0  0  # atno 8008 bound_to 7997
  154.5517  140.0716  156.8710 H   0  0  0  0  0  0  0  0  0  0  0  0  # atno 8009 bound_to 7997
  155.3015  140.3362  155.4250 H   0  0  0  0  0  0  0  0  0  0  0  0  # atno 8010 bound_to 7997
  139.7895  143.7986  152.2648 H   0  0  0  0  0  0  0  0  0  0  0  0  # atno 10167 bound_to 10162
  157.6873  131.0080  150.2485 H   0  0  0  0  0  0  0  0  0  0  0  0  # atno 10718 bound_to 10713
  154.6150  135.2869  155.0390 H   0  0  0  0  0  0  0  0  0  0  0  0  # atno 10763 bound_to 10752
  154.1605  135.6489  153.4989 H   0  0  0  0  0  0  0  0  0  0  0  0  # atno 10764 bound_to 10752
  153.0211  135.5377  154.6918 H   0  0  0  0  0  0  0  0  0  0  0  0  # atno 10765 bound_to 10752
  141.1507  133.7861  157.0104 H   0  0  0  0  0  0  0  0  0  0  0  0  # atno 11005 bound_to 11000
  146.3482  140.1723  142.8589 LP  0  0  0  0  0  0  0  0  0  0  0  0  # atno 17320 bound_to 7965
  145.0329  140.8885  143.5098 LP  0  0  0  0  0  0  0  0  0  0  0  0  # atno 17321 bound_to 7965
  139.8073  144.7350  150.9744 LP  0  0  0  0  0  0  0  0  0  0  0  0  # atno 17342 bound_to 10162
  140.7820  143.4285  151.0730 LP  0  0  0  0  0  0  0  0  0  0  0  0  # atno 17343 bound_to 10162
  156.3086  130.3768  149.7683 LP  0  0  0  0  0  0  0  0  0  0  0  0  # atno 17370 bound_to 10713
  156.5290  130.8249  151.3230 LP  0  0  0  0  0  0  0  0  0  0  0  0  # atno 17371 bound_to 10713
  140.0881  134.9608  157.1733 LP  0  0  0  0  0  0  0  0  0  0  0  0  # atno 17394 bound_to 11000
  140.3483  134.2627  155.7202 LP  0  0  0  0  0  0  0  0  0  0  0  0  # atno 17395 bound_to 11000

$$$$
