AV-unprocessed.smi:20|AV-procd|sdf|116|dock5
  -GOLD-   2262015283D 1   1.00000     0.00000
 Structure written by MMmdl.
 57 61  0  0  0  0  0  0  0  0  1 V2000
  149.3135  145.5546  160.4316 O   0  0  0  0  0  0  0  0  0  0  0  0
  150.2884  145.1238  159.8203 C   0  0  0  0  0  0  0  0  0  0  0  0
  150.4101  143.6926  159.3256 C   0  0  0  0  0  0  0  0  0  0  0  0
  151.9132  143.5576  158.9820 C   0  0  1  0  0  0  0  0  0  0  0  0
  152.7243  142.9627  160.1648 C   0  0  0  0  0  0  0  0  0  0  0  0
  152.4589  141.4585  160.3542 C   0  0  0  0  0  0  0  0  0  0  0  0
  152.6676  140.6879  159.0427 C   0  0  0  0  0  0  0  0  0  0  0  0
  151.8854  141.2877  157.9620 N   0  0  0  0  0  0  0  0  0  0  0  0
  151.6653  140.5450  156.8473 C   0  0  0  0  0  0  0  0  0  0  0  0
  152.6256  139.6913  156.4004 N   0  0  0  0  0  0  0  0  0  0  0  0
  152.4233  138.9635  155.2984 C   0  0  0  0  0  0  0  0  0  0  0  0
  151.3515  138.9318  154.5048 N   0  0  0  0  0  0  0  0  0  0  0  0
  150.3804  139.7781  154.9516 C   0  0  0  0  0  0  0  0  0  0  0  0
  150.4535  140.6132  156.1025 C   0  0  0  0  0  0  0  0  0  0  0  0
  149.2681  141.3253  156.2447 N   0  0  0  0  0  0  0  0  0  0  0  0
  148.5411  140.9414  155.2313 C   0  0  0  0  0  0  0  0  0  0  0  0
  149.1255  140.0022  154.4119 N   0  0  0  0  0  0  0  0  0  0  0  0
  148.5463  139.4118  153.2173 C   0  0  0  0  0  0  0  0  0  0  0  0
  146.9961  139.4266  153.1850 C   0  0  1  0  0  0  0  0  0  0  0  0
  146.5031  138.7895  151.8647 C   0  0  0  0  0  0  0  0  0  0  0  0
  146.8733  139.5628  150.7410 O   0  0  0  0  0  0  0  0  0  0  0  0
  146.3294  138.7851  154.4367 C   0  0  2  0  0  0  0  0  0  0  0  0
  146.7413  137.3465  154.7073 C   0  0  0  0  0  0  0  0  0  0  0  0
  145.6390  136.8676  155.6400 C   0  0  0  0  0  0  0  0  0  0  0  0
  144.4601  137.4706  155.1295 O   0  0  0  0  0  0  0  0  0  0  0  0
  144.8001  138.6354  154.3821 C   0  0  0  0  0  0  0  0  0  0  0  0
  152.1581  142.7038  157.7174 C   0  0  0  0  0  0  0  0  0  0  0  0
  152.3375  145.0274  158.7492 C   0  0  0  0  0  0  0  0  0  0  0  0
  151.3761  145.8172  159.4938 N   0  0  0  0  0  0  0  0  0  0  0  0
  150.0649  142.9826  160.0764 H   0  0  0  0  0  0  0  0  0  0  0  0
  149.7826  143.5794  158.4406 H   0  0  0  0  0  0  0  0  0  0  0  0
  153.7902  143.0992  159.9774 H   0  0  0  0  0  0  0  0  0  0  0  0
  152.5094  143.4971  161.0909 H   0  0  0  0  0  0  0  0  0  0  0  0
  153.1178  141.0592  161.1255 H   0  0  0  0  0  0  0  0  0  0  0  0
  151.4423  141.2972  160.7122 H   0  0  0  0  0  0  0  0  0  0  0  0
  153.7236  140.6970  158.7689 H   0  0  0  0  0  0  0  0  0  0  0  0
  152.3795  139.6458  159.1875 H   0  0  0  0  0  0  0  0  0  0  0  0
  153.2367  138.3132  155.0116 H   0  0  0  0  0  0  0  0  0  0  0  0
  147.5485  141.3299  155.0562 H   0  0  0  0  0  0  0  0  0  0  0  0
  148.9420  139.9665  152.3659 H   0  0  0  0  0  0  0  0  0  0  0  0
  148.9154  138.3912  153.1113 H   0  0  0  0  0  0  0  0  0  0  0  0
  146.6790  140.4695  153.1448 H   0  0  0  0  0  0  0  0  0  0  0  0
  146.8975  137.7808  151.7432 H   0  0  0  0  0  0  0  0  0  0  0  0
  145.4174  138.6889  151.8735 H   0  0  0  0  0  0  0  0  0  0  0  0
  147.6740  140.0229  150.9422 H   0  0  0  0  0  0  0  0  0  0  0  0
  146.5823  139.3757  155.3190 H   0  0  0  0  0  0  0  0  0  0  0  0
  146.7293  136.7636  153.7851 H   0  0  0  0  0  0  0  0  0  0  0  0
  147.7308  137.2590  155.1573 H   0  0  0  0  0  0  0  0  0  0  0  0
  145.5543  135.7812  155.6716 H   0  0  0  0  0  0  0  0  0  0  0  0
  145.8125  137.2285  156.6548 H   0  0  0  0  0  0  0  0  0  0  0  0
  144.2901  139.5043  154.7961 H   0  0  0  0  0  0  0  0  0  0  0  0
  144.4503  138.4919  153.3593 H   0  0  0  0  0  0  0  0  0  0  0  0
  151.5623  143.0910  156.8914 H   0  0  0  0  0  0  0  0  0  0  0  0
  153.2001  142.7978  157.4084 H   0  0  0  0  0  0  0  0  0  0  0  0
  153.3569  145.2363  159.0751 H   0  0  0  0  0  0  0  0  0  0  0  0
  152.2625  145.3043  157.6965 H   0  0  0  0  0  0  0  0  0  0  0  0
  151.5204  146.7915  159.7162 H   0  0  0  0  0  0  0  0  0  0  0  0
  1  2  2  0  0  0  0
  2 29  1  0  0  0  0
  2  3  1  0  0  0  0
  3  4  1  0  0  0  0
  3 30  1  0  0  0  0
  3 31  1  0  0  0  0
  4 27  1  0  0  0  0
  4  5  1  0  0  0  0
  4 28  1  0  0  0  0
  5  6  1  0  0  0  0
  5 32  1  0  0  0  0
  5 33  1  0  0  0  0
  6  7  1  0  0  0  0
  6 34  1  0  0  0  0
  6 35  1  0  0  0  0
  7  8  1  0  0  0  0
  7 36  1  0  0  0  0
  7 37  1  0  0  0  0
  8  9  1  0  0  0  0
  8 27  1  0  0  0  0
  9 14  1  0  0  0  0
  9 10  2  0  0  0  0
 10 11  1  0  0  0  0
 11 12  2  0  0  0  0
 11 38  1  0  0  0  0
 12 13  1  0  0  0  0
 13 17  1  0  0  0  0
 13 14  2  0  0  0  0
 14 15  1  0  0  0  0
 15 16  2  0  0  0  0
 16 17  1  0  0  0  0
 16 39  1  0  0  0  0
 17 18  1  0  0  0  0
 18 19  1  0  0  0  0
 18 40  1  0  0  0  0
 18 41  1  0  0  0  0
 19 20  1  0  0  0  0
 19 22  1  0  0  0  0
 19 42  1  0  0  0  0
 20 21  1  0  0  0  0
 20 43  1  0  0  0  0
 20 44  1  0  0  0  0
 21 45  1  0  0  0  0
 22 26  1  0  0  0  0
 22 23  1  0  0  0  0
 22 46  1  0  0  0  0
 23 24  1  0  0  0  0
 23 47  1  0  0  0  0
 23 48  1  0  0  0  0
 24 25  1  0  0  0  0
 24 49  1  0  0  0  0
 24 50  1  0  0  0  0
 25 26  1  0  0  0  0
 26 51  1  0  0  0  0
 26 52  1  0  0  0  0
 27 53  1  0  0  0  0
 27 54  1  0  0  0  0
 28 29  1  0  0  0  0
 28 55  1  0  0  0  0
 28 56  1  0  0  0  0
 29 57  1  0  0  0  0
M  END
> <s_m_source_file>
AV-unprocessed.smi

> <i_m_source_file_index>
20

> <i_lp_mmshare_version>
43012

> <i_f3d_flags>
0

> <s_epik_input>
W0NIMl0xW05IXUMoPU8pW0NIMl1bQ0BAXTEyW0NIMl1bQ0gyXVtDSDJdTihbQ0gyXTIpYyhuW2NIXW4zKWMoYzM0KW5bY0hdbjRbQ0gyXVtDQEhdKFtDSDJdW09IXSlbQ0BASF01W0NIMl1bQ0gyXU9bQ0gyXTU=

> <s_epik_cmdline>
J2VwaWtfcHl0aG9uJywgJy1waCcsICc3LjAnLCAnLXRuJywgJzgnLCAnLW1hJywgJzIwMCcsICctbWV0YWxfYmluZGluZycsICctaW1hZScsICc8aW5maWxlLm1hZT4nLCAnLW9tYWUnLCAnPG91dGZpbGUubWFlPic=

> <r_lp_tautomer_probability>
1

> <r_epik_Ionization_Penalty>
0.0019697

> <r_epik_Ionization_Penalty_Charging>
0

> <r_epik_Ionization_Penalty_Neutral>
0.0019697

> <r_epik_State_Penalty>
0.00113613

> <r_epik_Charging_Adjusted_Penalty>
0.00113613

> <i_epik_Tot_Q>
0

> <i_epik_Tot_abs_Q>
0

> <r_epik_Metal_State_Penalty>
-0

> <b_epik_Metal_Only>
0

> <s_lp_Force_Field>
OPLS_2005

> <r_lp_Energy>
60.744

> <b_lp_Chiralities_Consistent>
1

> <s_lp_Variant>
AV-unprocessed.smi:20-4

> <Gold.Version>
5.8.1

> <Gold.Id.Protein>
6NUR|6NUR_protein|mol2

> <Gold.PLP.Fitness>
48.0515

> <Gold.PLP.PLP>
-43.3284

> <Gold.PLP.part.hbond>
-4.8253

> <Gold.PLP.part.metal>
0.0000

> <Gold.PLP.part.buried>
-1.4296

> <Gold.PLP.part.nonpolar>
-38.2621

> <Gold.PLP.part.repulsive>
2.0915

> <Gold.PLP.ligand.clash>
0.0000

> <Gold.PLP.ligand.torsion>
0.9853

> <Gold.PLP.Chemscore.Hbond>
2.0573

> <Gold.PLP.Chemscore.CHOScore>
0.0000

> <Gold.PLP.Chemscore.Metal>
0.0000

> <Gold.Chemscore.Hbonds>
donor molecule, donor type, donor heavy atom, donor atom, acceptor molecule, acceptor atom, score
      L1  H    21    45       P1  7957  0.99
      P1  H  7954  7966       L1    21  0.05
      P1  H  7997  8010       L1    10  1.00

> <Gold.PLP.Chemscore.Internal.Correction>
0.5218

> <Gold.Rescore>
     Score         DG    S(hbond)    S(metal)    S(lipo)     H(rot)  DE(clash)    DE(int)     intcor
     12.76     -16.08       1.74        0.00     100.89       2.74       2.45       0.88       ----

> <Gold.Chemscore.Fitness>
12.7558

> <Gold.Chemscore.DG>
-16.0835

> <Gold.Chemscore.ZeroCoef>
-5.4800

> <Gold.Chemscore.Hbond>
1.7417

> <Gold.Chemscore.Metal>
0.0000

> <Gold.Chemscore.Lipo>
100.8931

> <Gold.Chemscore.Internal_Hbond>
0.0000

> <Gold.Chemscore.DEClash>
2.4474

> <Gold.Chemscore.DEInternal>
0.8803

> <Gold.Chemscore.Rot>
2.7415

> <Gold.Chemscore.Internal.Correction>
   9.000000E+99

> <Gold.Chemscore.Hbonds>
donor molecule, donor type, donor heavy atom, donor atom, acceptor molecule, acceptor atom, score
      L1  H    21    45       P1  7957  0.87
      P1  H  7997  8010       L1    10  0.60

> <Gold.Chemscore.Hbond.Weighted>
-5.8172

> <Gold.Chemscore.Metal.Weighted>
-0.0000

> <Gold.Chemscore.Lipo.Weighted>
-11.8045

> <Gold.Chemscore.Internal_Hbond.Weighted>
0.0000

> <Gold.Chemscore.DEClash.Weighted>
2.4474

> <Gold.Chemscore.DEInternal.Weighted>
0.8803

> <Gold.Chemscore.Rot.Weighted>
7.0182

> <Gold.Chemscore.Internal.Correction.Weighted>
   9.000000E+99

> <Gold.Protein.RotatedTorsions>
[ 6907 6896 6895 6894 ] final  -23.95 input  -60.11 | X-H torsion
[ 7974 7965 7964 7962 ] final  -37.74 input  175.53 | X-H torsion
[ 8008 7997 7996 7995 ] final   72.67 input   59.86 | X-H torsion
[ 10167 10162 10161 10158 ] final   75.38 input  -65.29 | X-H torsion
[ 10718 10713 10712 10709 ] final -169.56 input   66.30 | X-H torsion
[ 10763 10752 10751 10750 ] final  -42.11 input  -60.55 | X-H torsion
[ 11005 11000 10999 10996 ] final   44.47 input  -57.11 | X-H torsion

> <Gold.Protein.ActiveResidues>
 VAL166  LYS551  ARG553  GLY616  TRP617  ASP618  TYR619  PRO620  LYS621  CYS622 
 ASP623  PHE694  ASN695  SER759  ASP760  ASP761  ALA762  ILE779  LEU786  VAL792 
 PHE793  MET794  SER795  GLU796  ALA797  LYS798  CYS799  TRP800  GLU811  SER814 

> <Gold.Protein.RotatedAtoms>
  151.1966  135.0425  159.8854 H   0  0  0  0  0  0  0  0  0  0  0  0  # atno 6907 bound_to 6896
  152.5436  134.0897  159.8281 H   0  0  0  0  0  0  0  0  0  0  0  0  # atno 6908 bound_to 6896
  151.1032  133.5180  159.2641 H   0  0  0  0  0  0  0  0  0  0  0  0  # atno 6909 bound_to 6896
  146.0548  140.6431  142.9024 H   0  0  0  0  0  0  0  0  0  0  0  0  # atno 7974 bound_to 7965
  155.7723  140.3484  155.5253 H   0  0  0  0  0  0  0  0  0  0  0  0  # atno 8008 bound_to 7997
  155.8809  140.1002  157.1506 H   0  0  0  0  0  0  0  0  0  0  0  0  # atno 8009 bound_to 7997
  154.4024  140.1322  156.4183 H   0  0  0  0  0  0  0  0  0  0  0  0  # atno 8010 bound_to 7997
  140.0035  144.5668  150.7717 H   0  0  0  0  0  0  0  0  0  0  0  0  # atno 10167 bound_to 10162
  156.7134  130.9242  151.3091 H   0  0  0  0  0  0  0  0  0  0  0  0  # atno 10718 bound_to 10713
  153.9736  135.6725  153.4748 H   0  0  0  0  0  0  0  0  0  0  0  0  # atno 10763 bound_to 10752
  153.0781  135.4938  154.8443 H   0  0  0  0  0  0  0  0  0  0  0  0  # atno 10764 bound_to 10752
  154.7205  135.3116  154.9016 H   0  0  0  0  0  0  0  0  0  0  0  0  # atno 10765 bound_to 10752
  140.1549  134.4415  155.8356 H   0  0  0  0  0  0  0  0  0  0  0  0  # atno 11005 bound_to 11000
  144.7142  140.4150  143.7057 LP  0  0  0  0  0  0  0  0  0  0  0  0  # atno 17320 bound_to 7965
  145.6662  139.1590  143.2780 LP  0  0  0  0  0  0  0  0  0  0  0  0  # atno 17321 bound_to 7965
  140.7409  143.2811  151.3596 LP  0  0  0  0  0  0  0  0  0  0  0  0  # atno 17342 bound_to 10162
  139.6255  144.0823  152.2430 LP  0  0  0  0  0  0  0  0  0  0  0  0  # atno 17343 bound_to 10162
  157.6927  130.9250  150.0558 LP  0  0  0  0  0  0  0  0  0  0  0  0  # atno 17370 bound_to 10713
  156.1645  130.3644  149.9252 LP  0  0  0  0  0  0  0  0  0  0  0  0  # atno 17371 bound_to 10713
  141.2203  133.6888  156.7489 LP  0  0  0  0  0  0  0  0  0  0  0  0  # atno 17394 bound_to 11000
  140.2560  134.8504  157.3713 LP  0  0  0  0  0  0  0  0  0  0  0  0  # atno 17395 bound_to 11000

$$$$
