AV-unprocessed.smi:2637|AV-procd|sdf|10261|dock10
  -GOLD-   2272014273D 1   1.00000     0.00000
 Structure written by MMmdl.
 40 41  0  0  0  0  0  0  0  0  1 V2000
  146.3717  129.9723  153.4301 C   0  0  0  0  0  0  0  0  0  0  0  0
  147.4353  130.9945  153.7037 C   0  0  0  0  0  0  0  0  0  0  0  0
  147.4051  132.3904  153.4177 C   0  0  0  0  0  0  0  0  0  0  0  0
  148.6215  132.8181  153.8757 C   0  0  0  0  0  0  0  0  0  0  0  0
  149.1462  134.0724  153.8661 N   0  0  0  0  0  0  0  0  0  0  0  0
  149.8363  134.7028  154.8324 C   0  0  0  0  0  0  0  0  0  0  0  0
  150.1307  134.2243  155.9279 O   0  0  0  0  0  0  0  0  0  0  0  0
  150.1676  135.9464  154.4552 N   0  0  0  0  0  0  0  0  0  0  0  0
  150.9040  136.9113  155.2668 C   0  0  0  0  0  0  0  0  0  0  0  0
  151.5812  137.9924  154.4068 C   0  0  0  0  0  0  0  0  0  0  0  0
  152.5863  138.8684  155.1790 C   0  0  0  0  0  0  0  0  0  0  0  0
  151.9101  139.7304  156.1531 N   0  0  0  0  0  0  0  0  0  0  0  0
  152.2959  139.8725  157.4289 C   0  0  0  0  0  0  0  0  0  0  0  0
  153.2497  139.3132  157.9692 O   0  0  0  0  0  0  0  0  0  0  0  0
  151.3908  140.8495  158.1675 C   0  0  0  0  0  0  0  0  0  0  0  0
  150.3930  141.2811  157.0881 C   0  0  0  0  0  0  0  0  0  0  0  0
  150.8465  140.4943  155.8659 C   0  0  0  0  0  0  0  0  0  0  0  0
  150.2858  140.5827  154.7738 O   0  0  0  0  0  0  0  0  0  0  0  0
  149.3079  131.7399  154.3887 N   0  0  0  0  0  0  0  0  0  0  0  0
  150.6270  131.6865  154.9883 C   0  0  0  0  0  0  0  0  0  0  0  0
  148.5691  130.6142  154.2820 N   0  0  0  0  0  0  0  0  0  0  0  0
  145.4824  130.4342  153.0008 H   0  0  0  0  0  0  0  0  0  0  0  0
  146.0711  129.4624  154.3458 H   0  0  0  0  0  0  0  0  0  0  0  0
  146.7253  129.2174  152.7274 H   0  0  0  0  0  0  0  0  0  0  0  0
  146.6139  132.9602  152.9544 H   0  0  0  0  0  0  0  0  0  0  0  0
  148.9856  134.5982  153.0197 H   0  0  0  0  0  0  0  0  0  0  0  0
  149.8814  136.2546  153.5374 H   0  0  0  0  0  0  0  0  0  0  0  0
  150.2616  137.3708  156.0198 H   0  0  0  0  0  0  0  0  0  0  0  0
  151.6670  136.3610  155.8176 H   0  0  0  0  0  0  0  0  0  0  0  0
  152.0986  137.5027  153.5808 H   0  0  0  0  0  0  0  0  0  0  0  0
  150.8162  138.6230  153.9519 H   0  0  0  0  0  0  0  0  0  0  0  0
  153.3164  138.2444  155.6961 H   0  0  0  0  0  0  0  0  0  0  0  0
  153.1644  139.4731  154.4781 H   0  0  0  0  0  0  0  0  0  0  0  0
  150.8960  140.3539  159.0034 H   0  0  0  0  0  0  0  0  0  0  0  0
  151.9680  141.6928  158.5485 H   0  0  0  0  0  0  0  0  0  0  0  0
  149.3683  141.0190  157.3535 H   0  0  0  0  0  0  0  0  0  0  0  0
  150.4437  142.3527  156.8931 H   0  0  0  0  0  0  0  0  0  0  0  0
  151.3335  132.2499  154.3779 H   0  0  0  0  0  0  0  0  0  0  0  0
  150.9728  130.6545  155.0618 H   0  0  0  0  0  0  0  0  0  0  0  0
  150.5913  132.1221  155.9873 H   0  0  0  0  0  0  0  0  0  0  0  0
  1  2  1  0  0  0  0
  1 22  1  0  0  0  0
  1 23  1  0  0  0  0
  1 24  1  0  0  0  0
  2 21  2  0  0  0  0
  2  3  1  0  0  0  0
  3  4  2  0  0  0  0
  3 25  1  0  0  0  0
  4  5  1  0  0  0  0
  4 19  1  0  0  0  0
  5  6  1  0  0  0  0
  5 26  1  0  0  0  0
  6  7  2  0  0  0  0
  6  8  1  0  0  0  0
  8  9  1  0  0  0  0
  8 27  1  0  0  0  0
  9 10  1  0  0  0  0
  9 28  1  0  0  0  0
  9 29  1  0  0  0  0
 10 11  1  0  0  0  0
 10 30  1  0  0  0  0
 10 31  1  0  0  0  0
 11 12  1  0  0  0  0
 11 32  1  0  0  0  0
 11 33  1  0  0  0  0
 12 17  1  0  0  0  0
 12 13  1  0  0  0  0
 13 14  2  0  0  0  0
 13 15  1  0  0  0  0
 15 16  1  0  0  0  0
 15 34  1  0  0  0  0
 15 35  1  0  0  0  0
 16 17  1  0  0  0  0
 16 36  1  0  0  0  0
 16 37  1  0  0  0  0
 17 18  2  0  0  0  0
 19 20  1  0  0  0  0
 19 21  1  0  0  0  0
 20 38  1  0  0  0  0
 20 39  1  0  0  0  0
 20 40  1  0  0  0  0
M  END
> <s_m_source_file>
AV-unprocessed.smi

> <i_m_source_file_index>
2637

> <i_lp_mmshare_version>
43012

> <i_f3d_flags>
0

> <s_epik_input>
W0NIM11jMVtjSF1jKG4objEpW0NIM10pW05IXUMoPU8pW05IXVtDSDJdW0NIMl1bQ0gyXU4yQyg9TylbQ0gyXVtDSDJdQzI9Tw==

> <s_epik_cmdline>
J2VwaWtfcHl0aG9uJywgJy1waCcsICc3LjAnLCAnLXRuJywgJzgnLCAnLW1hJywgJzIwMCcsICctbWV0YWxfYmluZGluZycsICctaW1hZScsICc8aW5maWxlLm1hZT4nLCAnLW9tYWUnLCAnPG91dGZpbGUubWFlPic=

> <r_lp_tautomer_probability>
1

> <r_epik_Ionization_Penalty>
9.41646e-05

> <r_epik_Ionization_Penalty_Charging>
0

> <r_epik_Ionization_Penalty_Neutral>
9.41646e-05

> <r_epik_State_Penalty>
-0

> <r_epik_Charging_Adjusted_Penalty>
0

> <i_epik_Tot_Q>
0

> <i_epik_Tot_abs_Q>
0

> <r_epik_Metal_State_Penalty>
-0

> <b_epik_Metal_Only>
0

> <s_lp_Force_Field>
OPLS_2005

> <r_lp_Energy>
13.5658

> <b_lp_Chiralities_Consistent>
1

> <s_lp_Variant>
AV-unprocessed.smi:2637-1

> <Gold.Version>
5.8.1

> <Gold.Id.Protein>
6NUR|6NUR_protein|mol2

> <Gold.PLP.Fitness>
46.4473

> <Gold.PLP.PLP>
-38.0213

> <Gold.PLP.part.hbond>
-4.8498

> <Gold.PLP.part.metal>
0.0000

> <Gold.PLP.part.buried>
-4.1212

> <Gold.PLP.part.nonpolar>
-28.9633

> <Gold.PLP.part.repulsive>
0.2594

> <Gold.PLP.ligand.clash>
0.0000

> <Gold.PLP.ligand.torsion>
0.6661

> <Gold.PLP.Chemscore.Hbond>
3.2320

> <Gold.PLP.Chemscore.CHOScore>
0.0000

> <Gold.PLP.Chemscore.Metal>
0.0000

> <Gold.Chemscore.Hbonds>
donor molecule, donor type, donor heavy atom, donor atom, acceptor molecule, acceptor atom, score
      L1  H     5    26       P1  7948  0.55
      L1  H     8    27       P1  7948  0.85
      P1  H  7989  7998       L1    18  0.93
      P1  H  7997  8008       L1    14  1.00

> <Gold.PLP.Chemscore.Internal.Correction>
0.0623

> <Gold.Rescore>
     Score         DG    S(hbond)    S(metal)    S(lipo)     H(rot)  DE(clash)    DE(int)     intcor
      7.55     -10.88       1.33        0.00      53.39       2.07       0.04       3.29       ----

> <Gold.Chemscore.Fitness>
7.5541

> <Gold.Chemscore.DG>
-10.8795

> <Gold.Chemscore.ZeroCoef>
-5.4800

> <Gold.Chemscore.Hbond>
1.3332

> <Gold.Chemscore.Metal>
0.0000

> <Gold.Chemscore.Lipo>
53.3860

> <Gold.Chemscore.Internal_Hbond>
0.0000

> <Gold.Chemscore.DEClash>
0.0392

> <Gold.Chemscore.DEInternal>
3.2862

> <Gold.Chemscore.Rot>
2.0701

> <Gold.Chemscore.Internal.Correction>
   9.000000E+99

> <Gold.Chemscore.Hbonds>
donor molecule, donor type, donor heavy atom, donor atom, acceptor molecule, acceptor atom, score
      L1  H     5    26       P1  7948  0.03
      L1  H     8    27       P1  7948  0.15
      P1  H  7989  7998       L1    18  0.54
      P1  H  7997  8008       L1    14  0.45

> <Gold.Chemscore.Hbond.Weighted>
-4.4528

> <Gold.Chemscore.Metal.Weighted>
-0.0000

> <Gold.Chemscore.Lipo.Weighted>
-6.2462

> <Gold.Chemscore.Internal_Hbond.Weighted>
0.0000

> <Gold.Chemscore.DEClash.Weighted>
0.0392

> <Gold.Chemscore.DEInternal.Weighted>
3.2862

> <Gold.Chemscore.Rot.Weighted>
5.2995

> <Gold.Chemscore.Internal.Correction.Weighted>
   9.000000E+99

> <Gold.Protein.RotatedTorsions>
[ 6907 6896 6895 6894 ] final  -57.93 input  -60.11 | X-H torsion
[ 7974 7965 7964 7962 ] final -179.79 input  175.53 | X-H torsion
[ 8008 7997 7996 7995 ] final  -95.43 input   59.86 | X-H torsion
[ 10167 10162 10161 10158 ] final -129.43 input  -65.29 | X-H torsion
[ 10718 10713 10712 10709 ] final  -11.48 input   66.30 | X-H torsion
[ 10763 10752 10751 10750 ] final  -39.39 input  -60.55 | X-H torsion
[ 11005 11000 10999 10996 ] final   74.40 input  -57.11 | X-H torsion

> <Gold.Protein.ActiveResidues>
 VAL166  LYS551  ARG553  GLY616  TRP617  ASP618  TYR619  PRO620  LYS621  CYS622 
 ASP623  PHE694  ASN695  SER759  ASP760  ASP761  ALA762  ILE779  LEU786  VAL792 
 PHE793  MET794  SER795  GLU796  ALA797  LYS798  CYS799  TRP800  GLU811  SER814 

> <Gold.Protein.RotatedAtoms>
  150.8047  134.7164  159.6632 H   0  0  0  0  0  0  0  0  0  0  0  0  # atno 6907 bound_to 6896
  152.4166  134.6028  160.0014 H   0  0  0  0  0  0  0  0  0  0  0  0  # atno 6908 bound_to 6896
  151.6255  133.3299  159.3133 H   0  0  0  0  0  0  0  0  0  0  0  0  # atno 6909 bound_to 6896
  144.7139  140.0664  143.6431 H   0  0  0  0  0  0  0  0  0  0  0  0  # atno 7974 bound_to 7965
  154.7613  140.0480  157.0975 H   0  0  0  0  0  0  0  0  0  0  0  0  # atno 8008 bound_to 7997
  154.9935  140.3116  155.4877 H   0  0  0  0  0  0  0  0  0  0  0  0  # atno 8009 bound_to 7997
  156.2904  140.2214  156.5041 H   0  0  0  0  0  0  0  0  0  0  0  0  # atno 8010 bound_to 7997
  139.9399  143.6175  152.2506 H   0  0  0  0  0  0  0  0  0  0  0  0  # atno 10167 bound_to 10162
  156.6585  130.4975  149.6038 H   0  0  0  0  0  0  0  0  0  0  0  0  # atno 10718 bound_to 10713
  153.9286  135.6774  153.4746 H   0  0  0  0  0  0  0  0  0  0  0  0  # atno 10763 bound_to 10752
  153.0991  135.4836  154.8831 H   0  0  0  0  0  0  0  0  0  0  0  0  # atno 10764 bound_to 10752
  154.7440  135.3168  154.8635 H   0  0  0  0  0  0  0  0  0  0  0  0  # atno 10765 bound_to 10752
  139.9393  134.7429  156.1143 H   0  0  0  0  0  0  0  0  0  0  0  0  # atno 11005 bound_to 11000
  145.9820  139.2948  143.1036 LP  0  0  0  0  0  0  0  0  0  0  0  0  # atno 17320 bound_to 7965
  145.9000  140.9249  143.0508 LP  0  0  0  0  0  0  0  0  0  0  0  0  # atno 17321 bound_to 7965
  139.6713  144.7660  151.1778 LP  0  0  0  0  0  0  0  0  0  0  0  0  # atno 17342 bound_to 10162
  140.7614  143.5861  150.8845 LP  0  0  0  0  0  0  0  0  0  0  0  0  # atno 17343 bound_to 10162
  156.2029  130.6631  151.1187 LP  0  0  0  0  0  0  0  0  0  0  0  0  # atno 17370 bound_to 10713
  157.7117  131.0730  150.6475 LP  0  0  0  0  0  0  0  0  0  0  0  0  # atno 17371 bound_to 10713
  141.1021  133.6673  156.2777 LP  0  0  0  0  0  0  0  0  0  0  0  0  # atno 17394 bound_to 11000
  140.5994  134.5570  157.5514 LP  0  0  0  0  0  0  0  0  0  0  0  0  # atno 17395 bound_to 11000

$$$$
