AV-unprocessed.smi:513|AV-procd|sdf|2774|dock4
  -GOLD-   2262023243D 1   1.00000     0.00000
 Structure written by MMmdl.
 42 44  0  0  0  0  0  0  0  0  3 V2000
  153.1220  138.6571  154.7170 C   0  0  0  0  0  0  0  0  0  0  0  0
  151.8991  139.3592  154.5816 O   0  0  0  0  0  0  0  0  0  0  0  0
  150.7861  138.5958  155.0138 C   0  0  0  0  0  0  0  0  0  0  0  0
  150.6765  138.6978  156.5393 C   0  0  0  0  0  0  0  0  0  0  0  0
  150.4292  140.0737  156.9647 N   0  0  0  0  0  0  0  0  0  0  0  0
  149.5422  140.9693  156.4500 C   0  0  0  0  0  0  0  0  0  0  0  0
  148.6882  140.6549  155.3908 N   0  0  0  0  0  0  0  0  0  0  0  0
  147.9134  139.4186  155.3224 C   0  0  0  0  0  0  0  0  0  0  0  0
  146.4372  139.7008  154.9877 C   0  0  0  0  0  0  0  0  0  0  0  0
  146.3242  140.4674  153.7292 N   0  3  0  0  0  0  0  0  0  0  0  0
  147.1606  141.6854  153.7283 C   0  0  0  0  0  0  0  0  0  0  0  0
  148.6142  141.3387  154.1003 C   0  0  0  0  0  0  0  0  0  0  0  0
  149.5972  142.1841  156.9980 N   0  0  0  0  0  0  0  0  0  0  0  0
  150.5885  142.0498  157.9575 C   0  0  0  0  0  0  0  0  0  0  0  0
  151.1162  140.7963  157.9467 C   0  0  0  0  0  0  0  0  0  0  0  0
  152.2328  140.3688  158.8198 C   0  0  0  0  0  0  0  0  0  0  0  0
  152.7014  139.2352  158.7434 O   0  0  0  0  0  0  0  0  0  0  0  0
  152.6436  141.3690  159.6618 N   0  5  0  0  0  0  0  0  0  0  0  0
  152.1305  142.6472  159.7134 C   0  0  0  0  0  0  0  0  0  0  0  0
  152.5630  143.4904  160.5002 O   0  0  0  0  0  0  0  0  0  0  0  0
  151.1115  143.0056  158.8704 N   0  0  0  0  0  0  0  0  0  0  0  0
  150.5531  144.3605  158.8954 C   0  0  0  0  0  0  0  0  0  0  0  0
  153.9441  139.2822  154.3690 H   0  0  0  0  0  0  0  0  0  0  0  0
  153.1195  137.7426  154.1225 H   0  0  0  0  0  0  0  0  0  0  0  0
  153.3138  138.3974  155.7589 H   0  0  0  0  0  0  0  0  0  0  0  0
  149.8707  138.9609  154.5455 H   0  0  0  0  0  0  0  0  0  0  0  0
  150.9173  137.5542  154.7163 H   0  0  0  0  0  0  0  0  0  0  0  0
  149.8849  138.0476  156.8954 H   0  0  0  0  0  0  0  0  0  0  0  0
  151.5760  138.3170  157.0190 H   0  0  0  0  0  0  0  0  0  0  0  0
  148.3545  138.7586  154.5743 H   0  0  0  0  0  0  0  0  0  0  0  0
  147.9763  138.8930  156.2761 H   0  0  0  0  0  0  0  0  0  0  0  0
  145.8807  138.7681  154.8930 H   0  0  0  0  0  0  0  0  0  0  0  0
  145.9730  140.2708  155.7939 H   0  0  0  0  0  0  0  0  0  0  0  0
  146.6318  139.8744  152.9718 H   0  0  0  0  0  0  0  0  0  0  0  0
  147.1182  142.1503  152.7434 H   0  0  0  0  0  0  0  0  0  0  0  0
  146.7439  142.4006  154.4385 H   0  0  0  0  0  0  0  0  0  0  0  0
  149.2399  142.2306  154.1015 H   0  0  0  0  0  0  0  0  0  0  0  0
  149.0411  140.6855  153.3380 H   0  0  0  0  0  0  0  0  0  0  0  0
  150.1892  144.6081  159.8936 H   0  0  0  0  0  0  0  0  0  0  0  0
  149.7177  144.4845  158.2071 H   0  0  0  0  0  0  0  0  0  0  0  0
  151.3158  145.0900  158.6198 H   0  0  0  0  0  0  0  0  0  0  0  0
  145.3589  140.7215  153.5750 H   0  0  0  0  0  0  0  0  0  0  0  0
  1  2  1  0  0  0  0
  1 23  1  0  0  0  0
  1 24  1  0  0  0  0
  1 25  1  0  0  0  0
  2  3  1  0  0  0  0
  3  4  1  0  0  0  0
  3 26  1  0  0  0  0
  3 27  1  0  0  0  0
  4  5  1  0  0  0  0
  4 28  1  0  0  0  0
  4 29  1  0  0  0  0
  5 15  1  0  0  0  0
  5  6  1  0  0  0  0
  6  7  1  0  0  0  0
  6 13  2  0  0  0  0
  7 12  1  0  0  0  0
  7  8  1  0  0  0  0
  8  9  1  0  0  0  0
  8 30  1  0  0  0  0
  8 31  1  0  0  0  0
  9 10  1  0  0  0  0
  9 32  1  0  0  0  0
  9 33  1  0  0  0  0
 10 11  1  0  0  0  0
 10 34  1  0  0  0  0
 10 42  1  0  0  0  0
 11 12  1  0  0  0  0
 11 35  1  0  0  0  0
 11 36  1  0  0  0  0
 12 37  1  0  0  0  0
 12 38  1  0  0  0  0
 13 14  1  0  0  0  0
 14 21  1  0  0  0  0
 14 15  2  0  0  0  0
 15 16  1  0  0  0  0
 16 17  2  0  0  0  0
 16 18  1  0  0  0  0
 18 19  1  0  0  0  0
 19 20  2  0  0  0  0
 19 21  1  0  0  0  0
 21 22  1  0  0  0  0
 22 39  1  0  0  0  0
 22 40  1  0  0  0  0
 22 41  1  0  0  0  0
M  CHG  1  10   1
M  CHG  1  18  -1
M  END
> <s_m_source_file>
AV-unprocessed.smi

> <i_m_source_file_index>
513

> <i_lp_mmshare_version>
43012

> <i_f3d_flags>
0

> <s_epik_input>
W0NIM11uMWMoPU8pW25IXWMoPU8pYyhjMTIpbihbQ0gyXVtDSDJdT1tDSDNdKWMobjIpTjNbQ0gyXVtDSDJdW05IXVtDSDJdW0NIMl0z

> <s_epik_cmdline>
J2VwaWtfcHl0aG9uJywgJy1waCcsICc3LjAnLCAnLXRuJywgJzgnLCAnLW1hJywgJzIwMCcsICctbWV0YWxfYmluZGluZycsICctaW1hZScsICc8aW5maWxlLm1hZT4nLCAnLW9tYWUnLCAnPG91dGZpbGUubWFlPic=

> <r_epik_Ionization_Penalty>
5.91573

> <r_epik_Ionization_Penalty_Charging>
0.0691516

> <r_epik_Ionization_Penalty_Neutral>
5.84657

> <r_epik_State_Penalty>
5.85298

> <r_epik_Charging_Adjusted_Penalty>
5.92213

> <i_epik_Tot_Q>
0

> <i_epik_Tot_abs_Q>
2

> <r_epik_Metal_State_Penalty>
1.81849

> <b_epik_Metal_Only>
1

> <s_lp_Force_Field>
OPLS_2005

> <r_lp_Energy>
49.8146

> <b_lp_Chiralities_Consistent>
1

> <s_lp_Variant>
AV-unprocessed.smi:513-3

> <Gold.Version>
5.8.1

> <Gold.Id.Protein>
6NUR|6NUR_protein|mol2

> <Gold.PLP.Fitness>
39.9662

> <Gold.PLP.PLP>
-32.9558

> <Gold.PLP.part.hbond>
-2.0000

> <Gold.PLP.part.metal>
0.0000

> <Gold.PLP.part.buried>
-6.6066

> <Gold.PLP.part.nonpolar>
-25.5992

> <Gold.PLP.part.repulsive>
1.3521

> <Gold.PLP.ligand.clash>
0.0000

> <Gold.PLP.ligand.torsion>
1.1394

> <Gold.PLP.Chemscore.Hbond>
2.9120

> <Gold.PLP.Chemscore.CHOScore>
0.0000

> <Gold.PLP.Chemscore.Metal>
0.0000

> <Gold.Chemscore.Hbonds>
donor molecule, donor type, donor heavy atom, donor atom, acceptor molecule, acceptor atom, score
      L1  H    10    42       P1 10175  1.95
      P1  H  7989  7998       L1     2  0.96

> <Gold.PLP.Chemscore.Internal.Correction>
0.5532

> <Gold.Rescore>
     Score         DG    S(hbond)    S(metal)    S(lipo)     H(rot)  DE(clash)    DE(int)     intcor
     11.12     -13.82       1.89        0.00      51.26       1.55       0.39       2.31       ----

> <Gold.Chemscore.Fitness>
11.1234

> <Gold.Chemscore.DG>
-13.8248

> <Gold.Chemscore.ZeroCoef>
-5.4800

> <Gold.Chemscore.Hbond>
1.8927

> <Gold.Chemscore.Metal>
0.0000

> <Gold.Chemscore.Lipo>
51.2620

> <Gold.Chemscore.Internal_Hbond>
0.0000

> <Gold.Chemscore.DEClash>
0.3901

> <Gold.Chemscore.DEInternal>
2.3112

> <Gold.Chemscore.Rot>
1.5526

> <Gold.Chemscore.Internal.Correction>
   9.000000E+99

> <Gold.Chemscore.Hbonds>
donor molecule, donor type, donor heavy atom, donor atom, acceptor molecule, acceptor atom, score
      L1  H    10    42       P1 10175  0.81
      P1  H  7989  7998       L1     2  0.90

> <Gold.Chemscore.Hbond.Weighted>
-6.3217

> <Gold.Chemscore.Metal.Weighted>
-0.0000

> <Gold.Chemscore.Lipo.Weighted>
-5.9977

> <Gold.Chemscore.Internal_Hbond.Weighted>
0.0000

> <Gold.Chemscore.DEClash.Weighted>
0.3901

> <Gold.Chemscore.DEInternal.Weighted>
2.3112

> <Gold.Chemscore.Rot.Weighted>
3.9745

> <Gold.Chemscore.Internal.Correction.Weighted>
   9.000000E+99

> <Gold.Protein.RotatedTorsions>
[ 6907 6896 6895 6894 ] final  105.19 input  -60.11 | X-H torsion
[ 7974 7965 7964 7962 ] final    7.30 input  175.53 | X-H torsion
[ 8008 7997 7996 7995 ] final  150.43 input   59.86 | X-H torsion
[ 10167 10162 10161 10158 ] final   92.61 input  -65.29 | X-H torsion
[ 10718 10713 10712 10709 ] final -155.00 input   66.30 | X-H torsion
[ 10763 10752 10751 10750 ] final   79.09 input  -60.55 | X-H torsion
[ 11005 11000 10999 10996 ] final  111.75 input  -57.11 | X-H torsion

> <Gold.Protein.ActiveResidues>
 VAL166  LYS551  ARG553  GLY616  TRP617  ASP618  TYR619  PRO620  LYS621  CYS622 
 ASP623  PHE694  ASN695  SER759  ASP760  ASP761  ALA762  ILE779  LEU786  VAL792 
 PHE793  MET794  SER795  GLU796  ALA797  LYS798  CYS799  TRP800  GLU811  SER814 

> <Gold.Protein.RotatedAtoms>
  152.5239  133.9565  159.7696 H   0  0  0  0  0  0  0  0  0  0  0  0  # atno 6907 bound_to 6896
  150.9864  133.6185  159.2722 H   0  0  0  0  0  0  0  0  0  0  0  0  # atno 6908 bound_to 6896
  151.3344  135.0855  159.9402 H   0  0  0  0  0  0  0  0  0  0  0  0  # atno 6909 bound_to 6896
  146.2428  140.0103  142.8407 H   0  0  0  0  0  0  0  0  0  0  0  0  # atno 7974 bound_to 7965
  156.2716  140.2075  156.6017 H   0  0  0  0  0  0  0  0  0  0  0  0  # atno 8008 bound_to 7997
  154.6902  140.0531  157.0379 H   0  0  0  0  0  0  0  0  0  0  0  0  # atno 8009 bound_to 7997
  155.0878  140.3193  155.4585 H   0  0  0  0  0  0  0  0  0  0  0  0  # atno 8010 bound_to 7997
  139.8260  144.6709  150.9459 H   0  0  0  0  0  0  0  0  0  0  0  0  # atno 10167 bound_to 10162
  156.5069  130.8417  151.2631 H   0  0  0  0  0  0  0  0  0  0  0  0  # atno 10718 bound_to 10713
  153.0925  135.4852  154.8717 H   0  0  0  0  0  0  0  0  0  0  0  0  # atno 10763 bound_to 10752
  154.7286  135.3055  154.8931 H   0  0  0  0  0  0  0  0  0  0  0  0  # atno 10764 bound_to 10752
  153.9574  135.6816  153.4798 H   0  0  0  0  0  0  0  0  0  0  0  0  # atno 10765 bound_to 10752
  139.8911  134.9515  156.6480 H   0  0  0  0  0  0  0  0  0  0  0  0  # atno 11005 bound_to 11000
  145.1333  140.9530  143.4531 LP  0  0  0  0  0  0  0  0  0  0  0  0  # atno 17320 bound_to 7965
  145.0366  139.3295  143.5998 LP  0  0  0  0  0  0  0  0  0  0  0  0  # atno 17321 bound_to 7965
  140.7810  143.4046  151.1092 LP  0  0  0  0  0  0  0  0  0  0  0  0  # atno 17342 bound_to 10162
  139.7703  143.8504  152.3119 LP  0  0  0  0  0  0  0  0  0  0  0  0  # atno 17343 bound_to 10162
  157.7456  130.9963  150.2774 LP  0  0  0  0  0  0  0  0  0  0  0  0  # atno 17370 bound_to 10713
  156.3278  130.3795  149.7517 LP  0  0  0  0  0  0  0  0  0  0  0  0  # atno 17371 bound_to 10713
  140.7542  133.8872  155.8369 LP  0  0  0  0  0  0  0  0  0  0  0  0  # atno 17394 bound_to 11000
  140.9975  134.1195  157.4349 LP  0  0  0  0  0  0  0  0  0  0  0  0  # atno 17395 bound_to 11000

$$$$
