AV-unprocessed.smi:496|AV-procd|sdf|2716|dock3
  -GOLD-   2262023163D 1   1.00000     0.00000
 Structure written by MMmdl.
 42 44  0  0  0  0  0  0  0  0  1 V2000
  154.7233  135.7079  158.6774 C   0  0  0  0  0  0  0  0  0  0  0  0
  153.6087  136.2516  159.3627 O   0  0  0  0  0  0  0  0  0  0  0  0
  153.2303  137.5214  158.8606 C   0  0  0  0  0  0  0  0  0  0  0  0
  151.8846  137.9181  159.4802 C   0  0  0  0  0  0  0  0  0  0  0  0
  151.3758  139.1596  158.9162 N   0  0  0  0  0  0  0  0  0  0  0  0
  150.2548  139.3604  158.1741 C   0  0  0  0  0  0  0  0  0  0  0  0
  149.3124  138.2446  157.7959 C   0  0  2  0  0  0  0  0  0  0  0  0
  148.2261  138.7116  156.8172 C   0  0  0  0  0  0  0  0  0  0  0  0
  148.7032  137.7209  159.0159 N   0  0  0  0  0  0  0  0  0  0  0  0
  148.8044  136.4547  159.4508 C   0  0  0  0  0  0  0  0  0  0  0  0
  149.4153  135.5752  158.8433 O   0  0  0  0  0  0  0  0  0  0  0  0
  148.1129  136.1555  160.7187 C   0  0  0  0  0  0  0  0  0  0  0  0
  147.7649  134.9649  161.3017 C   0  0  0  0  0  0  0  0  0  0  0  0
  147.0982  135.2859  162.5164 C   0  0  0  0  0  0  0  0  0  0  0  0
  147.0806  136.6494  162.5861 C   0  0  0  0  0  0  0  0  0  0  0  0
  147.6888  137.1935  161.4972 O   0  0  0  0  0  0  0  0  0  0  0  0
  150.0316  140.6240  157.8016 N   0  0  0  0  0  0  0  0  0  0  0  0
  151.1102  141.2985  158.3359 C   0  0  0  0  0  0  0  0  0  0  0  0
  151.4540  142.6683  158.2815 C   0  0  0  0  0  0  0  0  0  0  0  0
  152.6283  143.1346  158.9079 C   0  0  0  0  0  0  0  0  0  0  0  0
  153.4729  142.2400  159.5965 C   0  0  0  0  0  0  0  0  0  0  0  0
  153.1470  140.8717  159.6641 C   0  0  0  0  0  0  0  0  0  0  0  0
  151.9734  140.4109  159.0372 C   0  0  0  0  0  0  0  0  0  0  0  0
  154.9732  134.7344  159.0992 H   0  0  0  0  0  0  0  0  0  0  0  0
  155.5986  136.3516  158.7744 H   0  0  0  0  0  0  0  0  0  0  0  0
  154.5056  135.5697  157.6174 H   0  0  0  0  0  0  0  0  0  0  0  0
  153.9899  138.2636  159.1122 H   0  0  0  0  0  0  0  0  0  0  0  0
  153.1535  137.4837  157.7731 H   0  0  0  0  0  0  0  0  0  0  0  0
  151.1434  137.1293  159.3536 H   0  0  0  0  0  0  0  0  0  0  0  0
  151.9991  138.0452  160.5568 H   0  0  0  0  0  0  0  0  0  0  0  0
  149.8535  137.4356  157.3073 H   0  0  0  0  0  0  0  0  0  0  0  0
  148.6688  139.0971  155.8984 H   0  0  0  0  0  0  0  0  0  0  0  0
  147.6130  139.5041  157.2477 H   0  0  0  0  0  0  0  0  0  0  0  0
  147.5639  137.8894  156.5448 H   0  0  0  0  0  0  0  0  0  0  0  0
  148.1823  138.3751  159.5811 H   0  0  0  0  0  0  0  0  0  0  0  0
  147.9643  133.9806  160.9036 H   0  0  0  0  0  0  0  0  0  0  0  0
  146.6823  134.6059  163.2452 H   0  0  0  0  0  0  0  0  0  0  0  0
  146.6944  137.3598  163.3023 H   0  0  0  0  0  0  0  0  0  0  0  0
  150.8139  143.3610  157.7557 H   0  0  0  0  0  0  0  0  0  0  0  0
  152.8826  144.1832  158.8592 H   0  0  0  0  0  0  0  0  0  0  0  0
  154.3711  142.6049  160.0731 H   0  0  0  0  0  0  0  0  0  0  0  0
  153.7937  140.1857  160.1905 H   0  0  0  0  0  0  0  0  0  0  0  0
  1  2  1  0  0  0  0
  1 24  1  0  0  0  0
  1 25  1  0  0  0  0
  1 26  1  0  0  0  0
  2  3  1  0  0  0  0
  3  4  1  0  0  0  0
  3 27  1  0  0  0  0
  3 28  1  0  0  0  0
  4  5  1  0  0  0  0
  4 29  1  0  0  0  0
  4 30  1  0  0  0  0
  5 23  1  0  0  0  0
  5  6  1  0  0  0  0
  6  7  1  0  0  0  0
  6 17  2  0  0  0  0
  7  8  1  0  0  0  0
  7  9  1  0  0  0  0
  7 31  1  0  0  0  0
  8 32  1  0  0  0  0
  8 33  1  0  0  0  0
  8 34  1  0  0  0  0
  9 10  1  0  0  0  0
  9 35  1  0  0  0  0
 10 11  2  0  0  0  0
 10 12  1  0  0  0  0
 12 16  1  0  0  0  0
 12 13  2  0  0  0  0
 13 14  1  0  0  0  0
 13 36  1  0  0  0  0
 14 15  2  0  0  0  0
 14 37  1  0  0  0  0
 15 16  1  0  0  0  0
 15 38  1  0  0  0  0
 17 18  1  0  0  0  0
 18 23  2  0  0  0  0
 18 19  1  0  0  0  0
 19 20  2  0  0  0  0
 19 39  1  0  0  0  0
 20 21  1  0  0  0  0
 20 40  1  0  0  0  0
 21 22  2  0  0  0  0
 21 41  1  0  0  0  0
 22 23  1  0  0  0  0
 22 42  1  0  0  0  0
M  END
> <s_m_source_file>
AV-unprocessed.smi

> <i_m_source_file_index>
496

> <i_lp_mmshare_version>
43012

> <i_f3d_flags>
0

> <s_epik_input>
W2NIXTFbY0hdW2NIXVtjSF1jKGMxMiluKFtDSDJdW0NIMl1PW0NIM10pYyhuMilbQ0BIXShbQ0gzXSlbTkhdQyg9TyljM1tjSF1bY0hdW2NIXW8z

> <s_epik_cmdline>
J2VwaWtfcHl0aG9uJywgJy1waCcsICc3LjAnLCAnLXRuJywgJzgnLCAnLW1hJywgJzIwMCcsICctbWV0YWxfYmluZGluZycsICctaW1hZScsICc8aW5maWxlLm1hZT4nLCAnLW9tYWUnLCAnPG91dGZpbGUubWFlPic=

> <r_epik_Ionization_Penalty>
0.116528

> <r_epik_Ionization_Penalty_Charging>
0

> <r_epik_Ionization_Penalty_Neutral>
0.116528

> <r_epik_State_Penalty>
0.106132

> <r_epik_Charging_Adjusted_Penalty>
0.106132

> <i_epik_Tot_Q>
0

> <i_epik_Tot_abs_Q>
0

> <r_epik_Metal_State_Penalty>
0.0963468

> <b_epik_Metal_Only>
0

> <s_lp_Force_Field>
OPLS_2005

> <r_lp_Energy>
7.66614

> <b_lp_Chiralities_Consistent>
1

> <s_lp_Variant>
AV-unprocessed.smi:496-1

> <Gold.Version>
5.8.1

> <Gold.Id.Protein>
6NUR|6NUR_protein|mol2

> <Gold.PLP.Fitness>
53.4807

> <Gold.PLP.PLP>
-42.4856

> <Gold.PLP.part.hbond>
-4.0000

> <Gold.PLP.part.metal>
0.0000

> <Gold.PLP.part.buried>
-6.0906

> <Gold.PLP.part.nonpolar>
-32.0574

> <Gold.PLP.part.repulsive>
0.2181

> <Gold.PLP.ligand.clash>
0.0000

> <Gold.PLP.ligand.torsion>
0.2300

> <Gold.PLP.Chemscore.Hbond>
3.7920

> <Gold.PLP.Chemscore.CHOScore>
0.0000

> <Gold.PLP.Chemscore.Metal>
0.0000

> <Gold.Chemscore.Hbonds>
donor molecule, donor type, donor heavy atom, donor atom, acceptor molecule, acceptor atom, score
      P1  H  6896  6907       L1    11  1.00
      P1  H  6896  6908       L1     2  0.98
      P1  H  6931  6943       L1    16  1.00
      P1  H  6934  6947       L1    16  0.78

> <Gold.PLP.Chemscore.Internal.Correction>
0.0792

> <Gold.Rescore>
     Score         DG    S(hbond)    S(metal)    S(lipo)     H(rot)  DE(clash)    DE(int)     intcor
     23.69     -24.02       3.47        0.00      99.91       1.85       0.03       0.31       ----

> <Gold.Chemscore.Fitness>
23.6887

> <Gold.Chemscore.DG>
-24.0246

> <Gold.Chemscore.ZeroCoef>
-5.4800

> <Gold.Chemscore.Hbond>
3.4689

> <Gold.Chemscore.Metal>
0.0000

> <Gold.Chemscore.Lipo>
99.9074

> <Gold.Chemscore.Internal_Hbond>
0.0000

> <Gold.Chemscore.DEClash>
0.0282

> <Gold.Chemscore.DEInternal>
0.3077

> <Gold.Chemscore.Rot>
1.8480

> <Gold.Chemscore.Internal.Correction>
   9.000000E+99

> <Gold.Chemscore.Hbonds>
donor molecule, donor type, donor heavy atom, donor atom, acceptor molecule, acceptor atom, score
      P1  H  6896  6907       L1    11  0.98
      P1  H  6896  6908       L1     2  0.83
      P1  H  6931  6943       L1    16  0.63
      P1  H  6934  6947       L1    16  0.74

> <Gold.Chemscore.Hbond.Weighted>
-11.5862

> <Gold.Chemscore.Metal.Weighted>
-0.0000

> <Gold.Chemscore.Lipo.Weighted>
-11.6892

> <Gold.Chemscore.Internal_Hbond.Weighted>
0.0000

> <Gold.Chemscore.DEClash.Weighted>
0.0282

> <Gold.Chemscore.DEInternal.Weighted>
0.3077

> <Gold.Chemscore.Rot.Weighted>
4.7308

> <Gold.Chemscore.Internal.Correction.Weighted>
   9.000000E+99

> <Gold.Protein.RotatedTorsions>
[ 6907 6896 6895 6894 ] final  -82.84 input  -60.11 | X-H torsion
[ 7974 7965 7964 7962 ] final  -72.68 input  175.53 | X-H torsion
[ 8008 7997 7996 7995 ] final   61.51 input   59.86 | X-H torsion
[ 10167 10162 10161 10158 ] final  -57.29 input  -65.29 | X-H torsion
[ 10718 10713 10712 10709 ] final   -9.26 input   66.30 | X-H torsion
[ 10763 10752 10751 10750 ] final  -20.55 input  -60.55 | X-H torsion
[ 11005 11000 10999 10996 ] final   52.93 input  -57.11 | X-H torsion

> <Gold.Protein.ActiveResidues>
 VAL166  LYS551  ARG553  GLY616  TRP617  ASP618  TYR619  PRO620  LYS621  CYS622 
 ASP623  PHE694  ASN695  SER759  ASP760  ASP761  ALA762  ILE779  LEU786  VAL792 
 PHE793  MET794  SER795  GLU796  ALA797  LYS798  CYS799  TRP800  GLU811  SER814 

> <Gold.Protein.RotatedAtoms>
  150.6892  134.3604  159.4947 H   0  0  0  0  0  0  0  0  0  0  0  0  # atno 6907 bound_to 6896
  152.1433  134.9043  160.0561 H   0  0  0  0  0  0  0  0  0  0  0  0  # atno 6908 bound_to 6896
  152.0168  133.3848  159.4279 H   0  0  0  0  0  0  0  0  0  0  0  0  # atno 6909 bound_to 6896
  145.6620  140.9249  143.0928 H   0  0  0  0  0  0  0  0  0  0  0  0  # atno 7974 bound_to 7965
  155.5994  140.3494  155.4589 H   0  0  0  0  0  0  0  0  0  0  0  0  # atno 8008 bound_to 7997
  156.0240  140.1260  157.0353 H   0  0  0  0  0  0  0  0  0  0  0  0  # atno 8009 bound_to 7997
  154.4326  140.1057  156.5990 H   0  0  0  0  0  0  0  0  0  0  0  0  # atno 8010 bound_to 7997
  140.6267  143.2441  151.5346 H   0  0  0  0  0  0  0  0  0  0  0  0  # atno 10167 bound_to 10162
  156.6906  130.5064  149.5944 H   0  0  0  0  0  0  0  0  0  0  0  0  # atno 10718 bound_to 10713
  153.6222  135.6992  153.5306 H   0  0  0  0  0  0  0  0  0  0  0  0  # atno 10763 bound_to 10752
  153.2928  135.4152  155.1182 H   0  0  0  0  0  0  0  0  0  0  0  0  # atno 10764 bound_to 10752
  154.8541  135.3629  154.5763 H   0  0  0  0  0  0  0  0  0  0  0  0  # atno 10765 bound_to 10752
  140.0809  134.5340  155.8948 H   0  0  0  0  0  0  0  0  0  0  0  0  # atno 11005 bound_to 11000
  144.7086  139.8461  143.7422 LP  0  0  0  0  0  0  0  0  0  0  0  0  # atno 17320 bound_to 7965
  146.1117  139.4123  143.0283 LP  0  0  0  0  0  0  0  0  0  0  0  0  # atno 17321 bound_to 7965
  139.5486  144.2455  152.1489 LP  0  0  0  0  0  0  0  0  0  0  0  0  # atno 17342 bound_to 10162
  140.1688  144.4956  150.6591 LP  0  0  0  0  0  0  0  0  0  0  0  0  # atno 17343 bound_to 10162
  156.1800  130.6493  151.0940 LP  0  0  0  0  0  0  0  0  0  0  0  0  # atno 17370 bound_to 10713
  157.7010  131.0776  150.6820 LP  0  0  0  0  0  0  0  0  0  0  0  0  # atno 17371 bound_to 10713
  141.2046  133.6640  156.6131 LP  0  0  0  0  0  0  0  0  0  0  0  0  # atno 17394 bound_to 11000
  140.3490  134.7785  157.4453 LP  0  0  0  0  0  0  0  0  0  0  0  0  # atno 17395 bound_to 11000

$$$$
