AV-unprocessed.smi:3289|AV-procd|sdf|12610|dock4
  -GOLD-   2272018543D 1   1.00000     0.00000
 Structure written by MMmdl.
 39 40  0  0  0  0  0  0  0  0  1 V2000
  152.5813  144.9410  158.8469 C   0  0  0  0  0  0  0  0  0  0  0  0
  151.5673  144.1604  159.6950 C   0  0  0  0  0  0  0  0  0  0  0  0
  151.7882  144.3775  161.1997 C   0  0  0  0  0  0  0  0  0  0  0  0
  151.5610  142.6982  159.3382 C   0  0  0  0  0  0  0  0  0  0  0  0
  151.7691  141.7322  160.2301 N   0  0  0  0  0  0  0  0  0  0  0  0
  151.7152  140.5494  159.5035 C   0  0  0  0  0  0  0  0  0  0  0  0
  151.4854  140.8404  158.1820 C   0  0  0  0  0  0  0  0  0  0  0  0
  151.3954  142.2239  158.0830 N   0  0  0  0  0  0  0  0  0  0  0  0
  151.1769  142.9583  156.8449 C   0  0  0  0  0  0  0  0  0  0  0  0
  150.5185  142.0742  155.7833 C   0  0  0  0  0  0  0  0  0  0  0  0
  151.0472  141.0128  155.4531 O   0  0  0  0  0  0  0  0  0  0  0  0
  149.3709  142.5254  155.2538 N   0  0  0  0  0  0  0  0  0  0  0  0
  148.5920  141.8389  154.2297 C   0  0  0  0  0  0  0  0  0  0  0  0
  147.1318  142.3202  154.2147 C   0  0  1  0  0  0  0  0  0  0  0  0
  146.5922  142.6886  155.5929 C   0  0  0  0  0  0  0  0  0  0  0  0
  145.4015  143.5548  155.2392 C   0  0  0  0  0  0  0  0  0  0  0  0
  145.8410  144.2372  153.9417 C   0  0  0  0  0  0  0  0  0  0  0  0
  146.9957  143.5351  153.4892 O   0  0  0  0  0  0  0  0  0  0  0  0
  152.3664  144.8325  157.7833 H   0  0  0  0  0  0  0  0  0  0  0  0
  153.5988  144.5888  159.0188 H   0  0  0  0  0  0  0  0  0  0  0  0
  152.5530  146.0052  159.0817 H   0  0  0  0  0  0  0  0  0  0  0  0
  150.5884  144.5795  159.4725 H   0  0  0  0  0  0  0  0  0  0  0  0
  151.0259  143.8628  161.7855 H   0  0  0  0  0  0  0  0  0  0  0  0
  151.7409  145.4364  161.4550 H   0  0  0  0  0  0  0  0  0  0  0  0
  152.7618  144.0035  161.5180 H   0  0  0  0  0  0  0  0  0  0  0  0
  151.8487  139.5906  159.9821 H   0  0  0  0  0  0  0  0  0  0  0  0
  151.3896  140.1939  157.3220 H   0  0  0  0  0  0  0  0  0  0  0  0
  150.5230  143.8068  157.0494 H   0  0  0  0  0  0  0  0  0  0  0  0
  152.1214  143.3750  156.4939 H   0  0  0  0  0  0  0  0  0  0  0  0
  149.0084  143.4068  155.5872 H   0  0  0  0  0  0  0  0  0  0  0  0
  149.0558  142.0541  153.2668 H   0  0  0  0  0  0  0  0  0  0  0  0
  148.6425  140.7565  154.3600 H   0  0  0  0  0  0  0  0  0  0  0  0
  146.4860  141.5663  153.7606 H   0  0  0  0  0  0  0  0  0  0  0  0
  146.3236  141.8188  156.1930 H   0  0  0  0  0  0  0  0  0  0  0  0
  147.3273  143.2744  156.1469 H   0  0  0  0  0  0  0  0  0  0  0  0
  144.5287  142.9277  155.0517 H   0  0  0  0  0  0  0  0  0  0  0  0
  145.1457  144.2645  156.0263 H   0  0  0  0  0  0  0  0  0  0  0  0
  145.0526  144.2011  153.1895 H   0  0  0  0  0  0  0  0  0  0  0  0
  146.1024  145.2825  154.1084 H   0  0  0  0  0  0  0  0  0  0  0  0
  1  2  1  0  0  0  0
  1 19  1  0  0  0  0
  1 20  1  0  0  0  0
  1 21  1  0  0  0  0
  2  3  1  0  0  0  0
  2  4  1  0  0  0  0
  2 22  1  0  0  0  0
  3 23  1  0  0  0  0
  3 24  1  0  0  0  0
  3 25  1  0  0  0  0
  4  8  1  0  0  0  0
  4  5  2  0  0  0  0
  5  6  1  0  0  0  0
  6  7  2  0  0  0  0
  6 26  1  0  0  0  0
  7  8  1  0  0  0  0
  7 27  1  0  0  0  0
  8  9  1  0  0  0  0
  9 10  1  0  0  0  0
  9 28  1  0  0  0  0
  9 29  1  0  0  0  0
 10 11  2  0  0  0  0
 10 12  1  0  0  0  0
 12 13  1  0  0  0  0
 12 30  1  0  0  0  0
 13 14  1  0  0  0  0
 13 31  1  0  0  0  0
 13 32  1  0  0  0  0
 14 18  1  0  0  0  0
 14 15  1  0  0  0  0
 14 33  1  0  0  0  0
 15 16  1  0  0  0  0
 15 34  1  0  0  0  0
 15 35  1  0  0  0  0
 16 17  1  0  0  0  0
 16 36  1  0  0  0  0
 16 37  1  0  0  0  0
 17 18  1  0  0  0  0
 17 38  1  0  0  0  0
 17 39  1  0  0  0  0
M  END
> <s_m_source_file>
AV-unprocessed.smi

> <i_m_source_file_index>
3289

> <i_lp_mmshare_version>
43012

> <i_f3d_flags>
0

> <s_epik_input>
W0NIM11bQ0hdKFtDSDNdKWMxbltjSF1bY0hdbjFbQ0gyXUMoPU8pW05IXVtDSDJdW0NAQEhdMltDSDJdW0NIMl1bQ0gyXU8y

> <s_epik_cmdline>
J2VwaWtfcHl0aG9uJywgJy1waCcsICc3LjAnLCAnLXRuJywgJzgnLCAnLW1hJywgJzIwMCcsICctbWV0YWxfYmluZGluZycsICctaW1hZScsICc8aW5maWxlLm1hZT4nLCAnLW9tYWUnLCAnPG91dGZpbGUubWFlPic=

> <r_lp_tautomer_probability>
1

> <r_epik_Ionization_Penalty>
0.587725

> <r_epik_Ionization_Penalty_Charging>
0.587725

> <r_epik_Ionization_Penalty_Neutral>
1.43432e-07

> <r_epik_State_Penalty>
0.601029

> <r_epik_Charging_Adjusted_Penalty>
1.18875

> <i_epik_Tot_Q>
0

> <i_epik_Tot_abs_Q>
0

> <r_epik_Metal_State_Penalty>
0.297663

> <b_epik_Metal_Only>
0

> <s_lp_Force_Field>
OPLS_2005

> <r_lp_Energy>
18.4157

> <b_lp_Chiralities_Consistent>
1

> <s_lp_Variant>
AV-unprocessed.smi:3289-4

> <Gold.Version>
5.8.1

> <Gold.Id.Protein>
6NUR|6NUR_protein|mol2

> <Gold.PLP.Fitness>
44.6280

> <Gold.PLP.PLP>
-40.3447

> <Gold.PLP.part.hbond>
-2.2048

> <Gold.PLP.part.metal>
0.0000

> <Gold.PLP.part.buried>
-5.6824

> <Gold.PLP.part.nonpolar>
-31.5799

> <Gold.PLP.part.repulsive>
0.4461

> <Gold.PLP.ligand.clash>
0.0000

> <Gold.PLP.ligand.torsion>
0.7750

> <Gold.PLP.Chemscore.Hbond>
1.9200

> <Gold.PLP.Chemscore.CHOScore>
0.0000

> <Gold.PLP.Chemscore.Metal>
0.0000

> <Gold.Chemscore.Hbonds>
donor molecule, donor type, donor heavy atom, donor atom, acceptor molecule, acceptor atom, score
      L1  H    12    30       P1  8028  0.47
      P1  H  7989  7998       L1    11  0.67
      P1  H  8022  8030       L1    18  0.18

> <Gold.PLP.Chemscore.Internal.Correction>
0.0732

> <Gold.Rescore>
     Score         DG    S(hbond)    S(metal)    S(lipo)     H(rot)  DE(clash)    DE(int)     intcor
     13.44     -16.27       1.67        0.00      82.15       1.72       0.50       2.32       ----

> <Gold.Chemscore.Fitness>
13.4420

> <Gold.Chemscore.DG>
-16.2682

> <Gold.Chemscore.ZeroCoef>
-5.4800

> <Gold.Chemscore.Hbond>
1.6688

> <Gold.Chemscore.Metal>
0.0000

> <Gold.Chemscore.Lipo>
82.1475

> <Gold.Chemscore.Internal_Hbond>
0.0000

> <Gold.Chemscore.DEClash>
0.5024

> <Gold.Chemscore.DEInternal>
2.3238

> <Gold.Chemscore.Rot>
1.7175

> <Gold.Chemscore.Internal.Correction>
   9.000000E+99

> <Gold.Chemscore.Hbonds>
donor molecule, donor type, donor heavy atom, donor atom, acceptor molecule, acceptor atom, score
      L1  H    12    30       P1  8028  0.45
      P1  H  7989  7998       L1    11  0.57
      P1  H  8022  8030       L1    18  0.11

> <Gold.Chemscore.Hbond.Weighted>
-5.5737

> <Gold.Chemscore.Metal.Weighted>
-0.0000

> <Gold.Chemscore.Lipo.Weighted>
-9.6113

> <Gold.Chemscore.Internal_Hbond.Weighted>
0.0000

> <Gold.Chemscore.DEClash.Weighted>
0.5024

> <Gold.Chemscore.DEInternal.Weighted>
2.3238

> <Gold.Chemscore.Rot.Weighted>
4.3967

> <Gold.Chemscore.Internal.Correction.Weighted>
   9.000000E+99

> <Gold.Protein.RotatedTorsions>
[ 6907 6896 6895 6894 ] final -129.80 input  -60.11 | X-H torsion
[ 7974 7965 7964 7962 ] final -105.61 input  175.53 | X-H torsion
[ 8008 7997 7996 7995 ] final   86.78 input   59.86 | X-H torsion
[ 10167 10162 10161 10158 ] final  -97.50 input  -65.29 | X-H torsion
[ 10718 10713 10712 10709 ] final  169.18 input   66.30 | X-H torsion
[ 10763 10752 10751 10750 ] final   92.86 input  -60.55 | X-H torsion
[ 11005 11000 10999 10996 ] final  -38.37 input  -57.11 | X-H torsion

> <Gold.Protein.ActiveResidues>
 VAL166  LYS551  ARG553  GLY616  TRP617  ASP618  TYR619  PRO620  LYS621  CYS622 
 ASP623  PHE694  ASN695  SER759  ASP760  ASP761  ALA762  ILE779  LEU786  VAL792 
 PHE793  MET794  SER795  GLU796  ALA797  LYS798  CYS799  TRP800  GLU811  SER814 

> <Gold.Protein.RotatedAtoms>
  150.9326  133.6749  159.2807 H   0  0  0  0  0  0  0  0  0  0  0  0  # atno 6907 bound_to 6896
  151.4165  135.0991  159.9610 H   0  0  0  0  0  0  0  0  0  0  0  0  # atno 6908 bound_to 6896
  152.5033  133.8788  159.7390 H   0  0  0  0  0  0  0  0  0  0  0  0  # atno 6909 bound_to 6896
  145.2283  140.9161  143.3219 H   0  0  0  0  0  0  0  0  0  0  0  0  # atno 7974 bound_to 7965
  155.9671  140.3388  155.6542 H   0  0  0  0  0  0  0  0  0  0  0  0  # atno 8008 bound_to 7997
  155.6722  140.0728  157.2534 H   0  0  0  0  0  0  0  0  0  0  0  0  # atno 8009 bound_to 7997
  154.4157  140.1689  156.1879 H   0  0  0  0  0  0  0  0  0  0  0  0  # atno 8010 bound_to 7997
  140.2828  143.3271  152.0425 H   0  0  0  0  0  0  0  0  0  0  0  0  # atno 10167 bound_to 10162
  157.0264  131.0247  151.2758 H   0  0  0  0  0  0  0  0  0  0  0  0  # atno 10718 bound_to 10713
  153.2239  135.4346  155.0520 H   0  0  0  0  0  0  0  0  0  0  0  0  # atno 10763 bound_to 10752
  154.8263  135.3363  154.6887 H   0  0  0  0  0  0  0  0  0  0  0  0  # atno 10764 bound_to 10752
  153.7318  135.7010  153.5044 H   0  0  0  0  0  0  0  0  0  0  0  0  # atno 10765 bound_to 10752
  141.0023  133.6949  156.2044 H   0  0  0  0  0  0  0  0  0  0  0  0  # atno 11005 bound_to 11000
  144.9701  139.3889  143.6313 LP  0  0  0  0  0  0  0  0  0  0  0  0  # atno 17320 bound_to 7965
  146.3359  139.8794  142.8827 LP  0  0  0  0  0  0  0  0  0  0  0  0  # atno 17321 bound_to 7965
  139.4958  144.6580  151.6529 LP  0  0  0  0  0  0  0  0  0  0  0  0  # atno 17342 bound_to 10162
  140.5798  143.9966  150.6262 LP  0  0  0  0  0  0  0  0  0  0  0  0  # atno 17343 bound_to 10162
  157.5211  130.7998  149.7810 LP  0  0  0  0  0  0  0  0  0  0  0  0  # atno 17370 bound_to 10713
  156.0084  130.3844  150.2348 LP  0  0  0  0  0  0  0  0  0  0  0  0  # atno 17371 bound_to 10713
  140.6870  134.4707  157.5589 LP  0  0  0  0  0  0  0  0  0  0  0  0  # atno 17394 bound_to 11000
  139.9045  134.8481  156.1762 LP  0  0  0  0  0  0  0  0  0  0  0  0  # atno 17395 bound_to 11000

$$$$
