AV-unprocessed.smi:1995|AV-procd|sdf|8077|dock5
  -GOLD-   2272010293D 1   1.00000     0.00000
 Structure written by MMmdl.
 42 43  0  0  0  0  0  0  0  0  1 V2000
  146.0357  140.1363  156.6148 C   0  0  0  0  0  0  0  0  0  0  0  0
  145.9955  140.1207  155.0762 C   0  0  0  0  0  0  0  0  0  0  0  0
  147.0023  139.1411  154.3899 C   0  0  2  0  0  0  0  0  0  0  0  0
  146.8424  139.3365  152.8589 C   0  0  0  0  0  0  0  0  0  0  0  0
  146.5823  137.6729  154.7392 C   0  0  0  0  0  0  0  0  0  0  0  0
  146.7192  136.7157  153.6398 N   0  0  0  0  0  0  0  0  0  0  0  0
  145.7291  135.9917  153.0968 C   0  0  0  0  0  0  0  0  0  0  0  0
  144.5572  136.0533  153.4694 O   0  0  0  0  0  0  0  0  0  0  0  0
  146.1906  135.1994  152.1131 N   0  0  0  0  0  0  0  0  0  0  0  0
  145.4654  134.2707  151.3209 C   0  0  0  0  0  0  0  0  0  0  0  0
  144.1306  134.2346  151.2306 N   0  0  0  0  0  0  0  0  0  0  0  0
  143.6895  133.2148  150.3833 C   0  0  0  0  0  0  0  0  0  0  0  0
  144.7091  132.4789  149.8330 C   0  0  0  0  0  0  0  0  0  0  0  0
  146.2734  133.0418  150.3585 S   0  0  0  0  0  0  0  0  0  0  0  0
  148.4024  139.4033  154.8437 N   0  0  0  0  0  0  0  0  0  0  0  0
  148.8701  140.7864  154.6708 C   0  0  0  0  0  0  0  0  0  0  0  0
  150.2674  141.0109  155.2730 C   0  0  0  0  0  0  0  0  0  0  0  0
  151.1908  140.1023  154.6885 O   0  0  0  0  0  0  0  0  0  0  0  0
  150.8130  138.7471  154.8922 C   0  0  0  0  0  0  0  0  0  0  0  0
  149.4189  138.4978  154.2908 C   0  0  0  0  0  0  0  0  0  0  0  0
  145.3296  140.8679  157.0074 H   0  0  0  0  0  0  0  0  0  0  0  0
  147.0238  140.4031  156.9898 H   0  0  0  0  0  0  0  0  0  0  0  0
  145.7663  139.1688  157.0370 H   0  0  0  0  0  0  0  0  0  0  0  0
  144.9747  139.8948  154.7669 H   0  0  0  0  0  0  0  0  0  0  0  0
  146.1436  141.1365  154.7119 H   0  0  0  0  0  0  0  0  0  0  0  0
  145.8082  139.2025  152.5428 H   0  0  0  0  0  0  0  0  0  0  0  0
  147.4386  138.6227  152.2908 H   0  0  0  0  0  0  0  0  0  0  0  0
  147.1270  140.3370  152.5361 H   0  0  0  0  0  0  0  0  0  0  0  0
  147.1488  137.2967  155.5911 H   0  0  0  0  0  0  0  0  0  0  0  0
  145.5390  137.6515  155.0549 H   0  0  0  0  0  0  0  0  0  0  0  0
  147.6499  136.5930  153.2687 H   0  0  0  0  0  0  0  0  0  0  0  0
  147.1785  135.2583  151.9152 H   0  0  0  0  0  0  0  0  0  0  0  0
  142.6287  133.0822  150.2291 H   0  0  0  0  0  0  0  0  0  0  0  0
  144.6345  131.6430  149.1533 H   0  0  0  0  0  0  0  0  0  0  0  0
  148.9038  141.0460  153.6130 H   0  0  0  0  0  0  0  0  0  0  0  0
  148.1960  141.4925  155.1505 H   0  0  0  0  0  0  0  0  0  0  0  0
  150.6024  142.0303  155.0812 H   0  0  0  0  0  0  0  0  0  0  0  0
  150.2482  140.8785  156.3560 H   0  0  0  0  0  0  0  0  0  0  0  0
  151.5505  138.0982  154.4202 H   0  0  0  0  0  0  0  0  0  0  0  0
  150.8201  138.5164  155.9586 H   0  0  0  0  0  0  0  0  0  0  0  0
  149.1686  137.4581  154.4894 H   0  0  0  0  0  0  0  0  0  0  0  0
  149.4766  138.6109  153.2082 H   0  0  0  0  0  0  0  0  0  0  0  0
  1  2  1  0  0  0  0
  1 21  1  0  0  0  0
  1 22  1  0  0  0  0
  1 23  1  0  0  0  0
  2  3  1  0  0  0  0
  2 24  1  0  0  0  0
  2 25  1  0  0  0  0
  3  4  1  0  0  0  0
  3  5  1  0  0  0  0
  3 15  1  0  0  0  0
  4 26  1  0  0  0  0
  4 27  1  0  0  0  0
  4 28  1  0  0  0  0
  5  6  1  0  0  0  0
  5 29  1  0  0  0  0
  5 30  1  0  0  0  0
  6  7  1  0  0  0  0
  6 31  1  0  0  0  0
  7  8  2  0  0  0  0
  7  9  1  0  0  0  0
  9 10  1  0  0  0  0
  9 32  1  0  0  0  0
 10 14  1  0  0  0  0
 10 11  2  0  0  0  0
 11 12  1  0  0  0  0
 12 13  2  0  0  0  0
 12 33  1  0  0  0  0
 13 14  1  0  0  0  0
 13 34  1  0  0  0  0
 15 20  1  0  0  0  0
 15 16  1  0  0  0  0
 16 17  1  0  0  0  0
 16 35  1  0  0  0  0
 16 36  1  0  0  0  0
 17 18  1  0  0  0  0
 17 37  1  0  0  0  0
 17 38  1  0  0  0  0
 18 19  1  0  0  0  0
 19 20  1  0  0  0  0
 19 39  1  0  0  0  0
 19 40  1  0  0  0  0
 20 41  1  0  0  0  0
 20 42  1  0  0  0  0
M  END
> <s_m_source_file>
AV-unprocessed.smi

> <i_m_source_file_index>
1995

> <i_lp_mmshare_version>
43012

> <i_f3d_flags>
0

> <s_epik_input>
W0NIMl0xW0NIMl1PW0NIMl1bQ0gyXU4xW0NAQF0oW0NIM10pKFtDSDJdW0NIM10pW0NIMl1bTkhdQyg9TylbTkhdYzJuW2NIXVtjSF1zMg==

> <s_epik_cmdline>
J2VwaWtfcHl0aG9uJywgJy1waCcsICc3LjAnLCAnLXRuJywgJzgnLCAnLW1hJywgJzIwMCcsICctbWV0YWxfYmluZGluZycsICctaW1hZScsICc8aW5maWxlLm1hZT4nLCAnLW9tYWUnLCAnPG91dGZpbGUubWFlPic=

> <r_lp_tautomer_probability>
0.999

> <r_epik_Ionization_Penalty>
0.295852

> <r_epik_Ionization_Penalty_Charging>
0

> <r_epik_Ionization_Penalty_Neutral>
0.295852

> <r_epik_State_Penalty>
0.288723

> <r_epik_Charging_Adjusted_Penalty>
0.288723

> <i_epik_Tot_Q>
0

> <i_epik_Tot_abs_Q>
0

> <r_epik_Metal_State_Penalty>
0.29791

> <b_epik_Metal_Only>
0

> <s_lp_Force_Field>
OPLS_2005

> <r_lp_Energy>
41.4857

> <b_lp_Chiralities_Consistent>
1

> <s_lp_Variant>
AV-unprocessed.smi:1995-2

> <Gold.Version>
5.8.1

> <Gold.Id.Protein>
6NUR|6NUR_protein|mol2

> <Gold.PLP.Fitness>
38.6423

> <Gold.PLP.PLP>
-28.7692

> <Gold.PLP.part.hbond>
-2.9511

> <Gold.PLP.part.metal>
0.0000

> <Gold.PLP.part.buried>
-3.1783

> <Gold.PLP.part.nonpolar>
-23.0161

> <Gold.PLP.part.repulsive>
0.3957

> <Gold.PLP.ligand.clash>
0.4553

> <Gold.PLP.ligand.torsion>
0.8598

> <Gold.PLP.Chemscore.Hbond>
2.9920

> <Gold.PLP.Chemscore.CHOScore>
1.0000

> <Gold.PLP.Chemscore.Metal>
0.0000

> <Gold.Chemscore.Hbonds>
donor molecule, donor type, donor heavy atom, donor atom, acceptor molecule, acceptor atom, score
      L1  H     6    31       P1  7948  1.00
      L1  H     9    32       P1  7948  1.00
      P1  H  7989  7998       L1    18  0.88
      L1  C    12    33       P1 10186  1.00

> <Gold.PLP.Chemscore.Internal.Correction>
0.0719

> <Gold.Rescore>
     Score         DG    S(hbond)    S(metal)    S(lipo)     H(rot)  DE(clash)    DE(int)     intcor
     16.65     -18.93       2.82        0.00      72.56       1.74       0.07       2.21       ----

> <Gold.Chemscore.Fitness>
16.6501

> <Gold.Chemscore.DG>
-18.9303

> <Gold.Chemscore.ZeroCoef>
-5.4800

> <Gold.Chemscore.Hbond>
2.8194

> <Gold.Chemscore.Metal>
0.0000

> <Gold.Chemscore.Lipo>
72.5639

> <Gold.Chemscore.Internal_Hbond>
0.0000

> <Gold.Chemscore.DEClash>
0.0686

> <Gold.Chemscore.DEInternal>
2.2116

> <Gold.Chemscore.Rot>
1.7408

> <Gold.Chemscore.Internal.Correction>
   9.000000E+99

> <Gold.Chemscore.Hbonds>
donor molecule, donor type, donor heavy atom, donor atom, acceptor molecule, acceptor atom, score
      L1  H     6    31       P1  7948  0.97
      L1  H     9    32       P1  7948  0.94
      P1  H  7989  7998       L1    18  0.26

> <Gold.Chemscore.Hbond.Weighted>
-9.4169

> <Gold.Chemscore.Metal.Weighted>
-0.0000

> <Gold.Chemscore.Lipo.Weighted>
-8.4900

> <Gold.Chemscore.Internal_Hbond.Weighted>
0.0000

> <Gold.Chemscore.DEClash.Weighted>
0.0686

> <Gold.Chemscore.DEInternal.Weighted>
2.2116

> <Gold.Chemscore.Rot.Weighted>
4.4565

> <Gold.Chemscore.Internal.Correction.Weighted>
   9.000000E+99

> <Gold.Protein.RotatedTorsions>
[ 6907 6896 6895 6894 ] final  -17.30 input  -60.11 | X-H torsion
[ 7974 7965 7964 7962 ] final   44.93 input  175.53 | X-H torsion
[ 8008 7997 7996 7995 ] final   96.91 input   59.86 | X-H torsion
[ 10167 10162 10161 10158 ] final  -93.12 input  -65.29 | X-H torsion
[ 10718 10713 10712 10709 ] final   26.12 input   66.30 | X-H torsion
[ 10763 10752 10751 10750 ] final -156.66 input  -60.55 | X-H torsion
[ 11005 11000 10999 10996 ] final  -51.89 input  -57.11 | X-H torsion

> <Gold.Protein.ActiveResidues>
 VAL166  LYS551  ARG553  GLY616  TRP617  ASP618  TYR619  PRO620  LYS621  CYS622 
 ASP623  PHE694  ASN695  SER759  ASP760  ASP761  ALA762  ILE779  LEU786  VAL792 
 PHE793  MET794  SER795  GLU796  ALA797  LYS798  CYS799  TRP800  GLU811  SER814 

> <Gold.Protein.RotatedAtoms>
  151.2954  135.0753  159.9218 H   0  0  0  0  0  0  0  0  0  0  0  0  # atno 6907 bound_to 6896
  152.5308  133.9888  159.7851 H   0  0  0  0  0  0  0  0  0  0  0  0  # atno 6908 bound_to 6896
  151.0166  133.5864  159.2707 H   0  0  0  0  0  0  0  0  0  0  0  0  # atno 6909 bound_to 6896
  146.0525  139.5020  142.9709 H   0  0  0  0  0  0  0  0  0  0  0  0  # atno 7974 bound_to 7965
  156.0846  140.3266  155.7737 H   0  0  0  0  0  0  0  0  0  0  0  0  # atno 8008 bound_to 7997
  155.5097  140.0576  157.2943 H   0  0  0  0  0  0  0  0  0  0  0  0  # atno 8009 bound_to 7997
  154.4602  140.1962  156.0283 H   0  0  0  0  0  0  0  0  0  0  0  0  # atno 8010 bound_to 7997
  140.3279  143.3012  151.9975 H   0  0  0  0  0  0  0  0  0  0  0  0  # atno 10167 bound_to 10162
  157.2025  130.6897  149.6194 H   0  0  0  0  0  0  0  0  0  0  0  0  # atno 10718 bound_to 10713
  154.7695  135.3141  154.8217 H   0  0  0  0  0  0  0  0  0  0  0  0  # atno 10763 bound_to 10752
  153.8957  135.6821  153.4762 H   0  0  0  0  0  0  0  0  0  0  0  0  # atno 10764 bound_to 10752
  153.1307  135.4781  154.9278 H   0  0  0  0  0  0  0  0  0  0  0  0  # atno 10765 bound_to 10752
  141.0895  133.6635  156.3944 H   0  0  0  0  0  0  0  0  0  0  0  0  # atno 11005 bound_to 11000
  145.6700  141.0219  143.1662 LP  0  0  0  0  0  0  0  0  0  0  0  0  # atno 17320 bound_to 7965
  144.7130  139.8300  143.7408 LP  0  0  0  0  0  0  0  0  0  0  0  0  # atno 17321 bound_to 7965
  139.4862  144.6259  151.7165 LP  0  0  0  0  0  0  0  0  0  0  0  0  # atno 17342 bound_to 10162
  140.5424  144.0557  150.6094 LP  0  0  0  0  0  0  0  0  0  0  0  0  # atno 17343 bound_to 10162
  155.9699  130.4578  150.5975 LP  0  0  0  0  0  0  0  0  0  0  0  0  # atno 17370 bound_to 10713
  157.3752  131.0772  151.1523 LP  0  0  0  0  0  0  0  0  0  0  0  0  # atno 17371 bound_to 10713
  140.5284  134.6236  157.5342 LP  0  0  0  0  0  0  0  0  0  0  0  0  # atno 17394 bound_to 11000
  139.9719  134.7279  156.0025 LP  0  0  0  0  0  0  0  0  0  0  0  0  # atno 17395 bound_to 11000

$$$$
