AV-unprocessed.smi:490|AV-procd|sdf|2704|dock4
  -GOLD-   2262023143D 1   1.00000     0.00000
 Structure written by MMmdl.
 49 51  0  0  0  0  0  0  0  0  1 V2000
  152.3587  144.5243  159.6393 C   0  0  0  0  0  0  0  0  0  0  0  0
  152.6408  143.0332  159.7095 C   0  0  0  0  0  0  0  0  0  0  0  0
  153.5819  142.5585  160.6455 C   0  0  0  0  0  0  0  0  0  0  0  0
  153.8648  141.1845  160.7369 C   0  0  0  0  0  0  0  0  0  0  0  0
  153.1996  140.2682  159.8999 C   0  0  0  0  0  0  0  0  0  0  0  0
  153.5095  138.7870  160.0082 C   0  0  0  0  0  0  0  0  0  0  0  0
  152.2434  140.7314  158.9684 C   0  0  0  0  0  0  0  0  0  0  0  0
  151.5974  139.8197  158.1720 O   0  0  0  0  0  0  0  0  0  0  0  0
  150.2862  139.4968  158.6160 C   0  0  0  0  0  0  0  0  0  0  0  0
  150.0271  138.0012  158.3550 C   0  0  1  0  0  0  0  0  0  0  0  0
  148.8722  137.6147  159.0702 O   0  0  0  0  0  0  0  0  0  0  0  0
  149.8028  137.6484  156.8686 C   0  0  0  0  0  0  0  0  0  0  0  0
  149.7566  138.8233  156.0055 N   0  0  0  0  0  0  0  0  0  0  0  0
  150.6341  139.1816  155.0334 C   0  0  0  0  0  0  0  0  0  0  0  0
  151.8266  138.3463  154.6785 C   0  0  0  0  0  0  0  0  0  0  0  0
  151.4706  137.1005  154.1188 O   0  0  0  0  0  0  0  0  0  0  0  0
  150.3642  140.3227  154.3988 N   0  0  0  0  0  0  0  0  0  0  0  0
  149.1931  140.7361  155.0016 C   0  0  0  0  0  0  0  0  0  0  0  0
  148.4001  141.8833  154.7731 C   0  0  0  0  0  0  0  0  0  0  0  0
  147.2253  142.0999  155.5223 C   0  0  0  0  0  0  0  0  0  0  0  0
  146.8261  141.1731  156.5068 C   0  0  0  0  0  0  0  0  0  0  0  0
  147.6019  140.0236  156.7502 C   0  0  0  0  0  0  0  0  0  0  0  0
  148.7781  139.8145  156.0042 C   0  0  0  0  0  0  0  0  0  0  0  0
  151.9746  142.1204  158.8543 C   0  0  0  0  0  0  0  0  0  0  0  0
  150.9785  142.6337  157.8217 C   0  0  0  0  0  0  0  0  0  0  0  0
  152.8773  145.0648  160.4316 H   0  0  0  0  0  0  0  0  0  0  0  0
  151.2911  144.7184  159.7483 H   0  0  0  0  0  0  0  0  0  0  0  0
  152.6906  144.9309  158.6840 H   0  0  0  0  0  0  0  0  0  0  0  0
  154.0965  143.2484  161.2982 H   0  0  0  0  0  0  0  0  0  0  0  0
  154.5931  140.8381  161.4557 H   0  0  0  0  0  0  0  0  0  0  0  0
  153.7752  138.3818  159.0316 H   0  0  0  0  0  0  0  0  0  0  0  0
  152.6409  138.2445  160.3814 H   0  0  0  0  0  0  0  0  0  0  0  0
  154.3423  138.6030  160.6871 H   0  0  0  0  0  0  0  0  0  0  0  0
  150.1620  139.7485  159.6702 H   0  0  0  0  0  0  0  0  0  0  0  0
  149.5642  140.1046  158.0750 H   0  0  0  0  0  0  0  0  0  0  0  0
  150.8669  137.4200  158.7348 H   0  0  0  0  0  0  0  0  0  0  0  0
  148.8820  136.6747  159.1677 H   0  0  0  0  0  0  0  0  0  0  0  0
  150.5978  136.9927  156.5123 H   0  0  0  0  0  0  0  0  0  0  0  0
  148.8753  137.0873  156.7488 H   0  0  0  0  0  0  0  0  0  0  0  0
  152.4427  138.8866  153.9587 H   0  0  0  0  0  0  0  0  0  0  0  0
  152.4478  138.1830  155.5578 H   0  0  0  0  0  0  0  0  0  0  0  0
  151.2045  137.2394  153.2228 H   0  0  0  0  0  0  0  0  0  0  0  0
  148.6967  142.5979  154.0197 H   0  0  0  0  0  0  0  0  0  0  0  0
  146.6272  142.9806  155.3403 H   0  0  0  0  0  0  0  0  0  0  0  0
  145.9248  141.3462  157.0763 H   0  0  0  0  0  0  0  0  0  0  0  0
  147.3004  139.3155  157.5079 H   0  0  0  0  0  0  0  0  0  0  0  0
  150.6993  141.8705  157.0960 H   0  0  0  0  0  0  0  0  0  0  0  0
  151.3990  143.4672  157.2594 H   0  0  0  0  0  0  0  0  0  0  0  0
  150.0698  142.9767  158.3163 H   0  0  0  0  0  0  0  0  0  0  0  0
  1  2  1  0  0  0  0
  1 26  1  0  0  0  0
  1 27  1  0  0  0  0
  1 28  1  0  0  0  0
  2 24  1  0  0  0  0
  2  3  2  0  0  0  0
  3  4  1  0  0  0  0
  3 29  1  0  0  0  0
  4  5  2  0  0  0  0
  4 30  1  0  0  0  0
  5  6  1  0  0  0  0
  5  7  1  0  0  0  0
  6 31  1  0  0  0  0
  6 32  1  0  0  0  0
  6 33  1  0  0  0  0
  7  8  1  0  0  0  0
  7 24  2  0  0  0  0
  8  9  1  0  0  0  0
  9 10  1  0  0  0  0
  9 34  1  0  0  0  0
  9 35  1  0  0  0  0
 10 11  1  0  0  0  0
 10 12  1  0  0  0  0
 10 36  1  0  0  0  0
 11 37  1  0  0  0  0
 12 13  1  0  0  0  0
 12 38  1  0  0  0  0
 12 39  1  0  0  0  0
 13 23  1  0  0  0  0
 13 14  1  0  0  0  0
 14 15  1  0  0  0  0
 14 17  2  0  0  0  0
 15 16  1  0  0  0  0
 15 40  1  0  0  0  0
 15 41  1  0  0  0  0
 16 42  1  0  0  0  0
 17 18  1  0  0  0  0
 18 23  2  0  0  0  0
 18 19  1  0  0  0  0
 19 20  2  0  0  0  0
 19 43  1  0  0  0  0
 20 21  1  0  0  0  0
 20 44  1  0  0  0  0
 21 22  2  0  0  0  0
 21 45  1  0  0  0  0
 22 23  1  0  0  0  0
 22 46  1  0  0  0  0
 24 25  1  0  0  0  0
 25 47  1  0  0  0  0
 25 48  1  0  0  0  0
 25 49  1  0  0  0  0
M  END
> <s_m_source_file>
AV-unprocessed.smi

> <i_m_source_file_index>
490

> <i_lp_mmshare_version>
43012

> <i_f3d_flags>
0

> <s_epik_input>
W0NIM11jMVtjSF1bY0hdYyhbQ0gzXSljKGMxW0NIM10pT1tDSDJdW0NASF0oW09IXSlbQ0gyXW4oYyhuMilbQ0gyXVtPSF0pYyhjMjMpW2NIXVtjSF1bY0hdW2NIXTM=

> <s_epik_cmdline>
J2VwaWtfcHl0aG9uJywgJy1waCcsICc3LjAnLCAnLXRuJywgJzgnLCAnLW1hJywgJzIwMCcsICctbWV0YWxfYmluZGluZycsICctaW1hZScsICc8aW5maWxlLm1hZT4nLCAnLW9tYWUnLCAnPG91dGZpbGUubWFlPic=

> <r_lp_tautomer_probability>
1

> <r_epik_Ionization_Penalty>
0.0555874

> <r_epik_Ionization_Penalty_Charging>
0

> <r_epik_Ionization_Penalty_Neutral>
0.0555874

> <r_epik_State_Penalty>
0.0478234

> <r_epik_Charging_Adjusted_Penalty>
0.0478234

> <i_epik_Tot_Q>
0

> <i_epik_Tot_abs_Q>
0

> <r_epik_Metal_State_Penalty>
4.98044e-05

> <b_epik_Metal_Only>
0

> <s_lp_Force_Field>
OPLS_2005

> <r_lp_Energy>
21.221

> <b_lp_Chiralities_Consistent>
1

> <s_lp_Variant>
AV-unprocessed.smi:490-2

> <Gold.Version>
5.8.1

> <Gold.Id.Protein>
6NUR|6NUR_protein|mol2

> <Gold.PLP.Fitness>
55.2494

> <Gold.PLP.PLP>
-48.9485

> <Gold.PLP.part.hbond>
-3.5300

> <Gold.PLP.part.metal>
0.0000

> <Gold.PLP.part.buried>
-5.5401

> <Gold.PLP.part.nonpolar>
-40.4848

> <Gold.PLP.part.repulsive>
0.9082

> <Gold.PLP.ligand.clash>
0.0000

> <Gold.PLP.ligand.torsion>
1.4339

> <Gold.PLP.Chemscore.Hbond>
2.9760

> <Gold.PLP.Chemscore.CHOScore>
0.0000

> <Gold.PLP.Chemscore.Metal>
0.0000

> <Gold.Chemscore.Hbonds>
donor molecule, donor type, donor heavy atom, donor atom, acceptor molecule, acceptor atom, score
      L1  H    16    42       P1  7949  0.49
      P1  H  7989  7998       L1    17  1.00
      P1  H 10752 10765       L1    16  0.91

> <Gold.PLP.Chemscore.Internal.Correction>
0.2407

> <Gold.Rescore>
     Score         DG    S(hbond)    S(metal)    S(lipo)     H(rot)  DE(clash)    DE(int)     intcor
     18.27     -21.05       2.31        0.00     131.13       2.93       0.03       2.75       ----

> <Gold.Chemscore.Fitness>
18.2749

> <Gold.Chemscore.DG>
-21.0500

> <Gold.Chemscore.ZeroCoef>
-5.4800

> <Gold.Chemscore.Hbond>
2.3122

> <Gold.Chemscore.Metal>
0.0000

> <Gold.Chemscore.Lipo>
131.1328

> <Gold.Chemscore.Internal_Hbond>
0.0000

> <Gold.Chemscore.DEClash>
0.0266

> <Gold.Chemscore.DEInternal>
2.7485

> <Gold.Chemscore.Rot>
2.9279

> <Gold.Chemscore.Internal.Correction>
   9.000000E+99

> <Gold.Chemscore.Hbonds>
donor molecule, donor type, donor heavy atom, donor atom, acceptor molecule, acceptor atom, score
      L1  H    16    42       P1  7949  0.27
      P1  H  7989  7998       L1    17  0.85
      P1  H 10752 10765       L1    16  0.47

> <Gold.Chemscore.Hbond.Weighted>
-7.7228

> <Gold.Chemscore.Metal.Weighted>
-0.0000

> <Gold.Chemscore.Lipo.Weighted>
-15.3425

> <Gold.Chemscore.Internal_Hbond.Weighted>
0.0000

> <Gold.Chemscore.DEClash.Weighted>
0.0266

> <Gold.Chemscore.DEInternal.Weighted>
2.7485

> <Gold.Chemscore.Rot.Weighted>
7.4954

> <Gold.Chemscore.Internal.Correction.Weighted>
   9.000000E+99

> <Gold.Protein.RotatedTorsions>
[ 6907 6896 6895 6894 ] final   -8.00 input  -60.11 | X-H torsion
[ 7974 7965 7964 7962 ] final  -10.09 input  175.53 | X-H torsion
[ 8008 7997 7996 7995 ] final   39.34 input   59.86 | X-H torsion
[ 10167 10162 10161 10158 ] final  -42.20 input  -65.29 | X-H torsion
[ 10718 10713 10712 10709 ] final  -97.98 input   66.30 | X-H torsion
[ 10763 10752 10751 10750 ] final  150.26 input  -60.55 | X-H torsion
[ 11005 11000 10999 10996 ] final  117.17 input  -57.11 | X-H torsion

> <Gold.Protein.ActiveResidues>
 VAL166  LYS551  ARG553  GLY616  TRP617  ASP618  TYR619  PRO620  LYS621  CYS622 
 ASP623  PHE694  ASN695  SER759  ASP760  ASP761  ALA762  ILE779  LEU786  VAL792 
 PHE793  MET794  SER795  GLU796  ALA797  LYS798  CYS799  TRP800  GLU811  SER814 

> <Gold.Protein.RotatedAtoms>
  151.4406  135.1020  159.9668 H   0  0  0  0  0  0  0  0  0  0  0  0  # atno 6907 bound_to 6896
  152.4924  133.8532  159.7223 H   0  0  0  0  0  0  0  0  0  0  0  0  # atno 6908 bound_to 6896
  150.9091  133.6962  159.2887 H   0  0  0  0  0  0  0  0  0  0  0  0  # atno 6909 bound_to 6896
  146.2232  140.2712  142.8357 H   0  0  0  0  0  0  0  0  0  0  0  0  # atno 7974 bound_to 7965
  155.2350  140.3341  155.4299 H   0  0  0  0  0  0  0  0  0  0  0  0  # atno 8008 bound_to 7997
  156.2279  140.1837  156.7362 H   0  0  0  0  0  0  0  0  0  0  0  0  # atno 8009 bound_to 7997
  154.5929  140.0635  156.9249 H   0  0  0  0  0  0  0  0  0  0  0  0  # atno 8010 bound_to 7997
  140.6977  143.3051  151.3175 H   0  0  0  0  0  0  0  0  0  0  0  0  # atno 10167 bound_to 10162
  156.0096  130.5218  150.6455 H   0  0  0  0  0  0  0  0  0  0  0  0  # atno 10718 bound_to 10713
  154.0846  135.2857  155.3283 H   0  0  0  0  0  0  0  0  0  0  0  0  # atno 10763 bound_to 10752
  154.6661  135.5317  153.8082 H   0  0  0  0  0  0  0  0  0  0  0  0  # atno 10764 bound_to 10752
  153.0436  135.6546  154.1019 H   0  0  0  0  0  0  0  0  0  0  0  0  # atno 10765 bound_to 10752
  139.9065  134.9607  156.7310 H   0  0  0  0  0  0  0  0  0  0  0  0  # atno 11005 bound_to 11000
  144.9266  140.7928  143.5715 LP  0  0  0  0  0  0  0  0  0  0  0  0  # atno 17320 bound_to 7965
  145.2653  139.1976  143.4870 LP  0  0  0  0  0  0  0  0  0  0  0  0  # atno 17321 bound_to 7965
  139.6454  144.0462  152.2586 LP  0  0  0  0  0  0  0  0  0  0  0  0  # atno 17342 bound_to 10162
  139.9980  144.6314  150.7755 LP  0  0  0  0  0  0  0  0  0  0  0  0  # atno 17343 bound_to 10162
  157.4226  131.0839  151.1116 LP  0  0  0  0  0  0  0  0  0  0  0  0  # atno 17370 bound_to 10713
  157.1713  130.6268  149.5641 LP  0  0  0  0  0  0  0  0  0  0  0  0  # atno 17371 bound_to 10713
  140.6925  133.9377  155.7975 LP  0  0  0  0  0  0  0  0  0  0  0  0  # atno 17394 bound_to 11000
  141.0431  134.0593  157.3877 LP  0  0  0  0  0  0  0  0  0  0  0  0  # atno 17395 bound_to 11000

$$$$
