AV-unprocessed.smi:3330|AV-procd|sdf|12805|dock8
  -GOLD-   2272019173D 1   1.00000     0.00000
 Structure written by MMmdl.
 38 39  0  0  0  0  0  0  0  0  1 V2000
  152.1556  138.4542  157.8607 C   0  0  0  0  0  0  0  0  0  0  0  0
  150.7612  139.0489  158.1400 C   0  0  2  0  0  0  0  0  0  0  0  0
  149.7523  138.0461  157.8078 N   0  0  0  0  0  0  0  0  0  0  0  0
  149.6230  137.0253  158.8357 C   0  0  0  0  0  0  0  0  0  0  0  0
  148.1506  136.9203  159.2599 C   0  0  0  0  0  0  0  0  0  0  0  0
  147.9454  135.8027  160.1839 N   0  0  0  0  0  0  0  0  0  0  0  0
  147.4195  135.9240  161.4096 C   0  0  0  0  0  0  0  0  0  0  0  0
  147.0371  136.9545  161.9631 O   0  0  0  0  0  0  0  0  0  0  0  0
  147.3536  134.5501  162.0404 C   0  0  0  0  0  0  0  0  0  0  0  0
  147.9032  133.7668  160.9548 N   0  0  0  0  0  0  0  0  0  0  0  0
  148.2316  134.5196  159.8969 C   0  0  0  0  0  0  0  0  0  0  0  0
  148.7092  134.0940  158.8461 O   0  0  0  0  0  0  0  0  0  0  0  0
  150.4723  140.3334  157.3160 C   0  0  2  0  0  0  0  0  0  0  0  0
  150.9444  140.2358  155.8522 C   0  0  0  0  0  0  0  0  0  0  0  0
  151.0597  141.5109  157.9482 N   0  0  0  0  0  0  0  0  0  0  0  0
  150.7976  142.8395  157.6836 C   0  0  0  0  0  0  0  0  0  0  0  0
  151.5618  143.5852  158.5346 C   0  0  0  0  0  0  0  0  0  0  0  0
  152.2663  142.6124  159.2963 C   0  0  0  0  0  0  0  0  0  0  0  0
  151.9641  141.3733  158.9452 N   0  0  0  0  0  0  0  0  0  0  0  0
  152.9476  139.1360  158.1685 H   0  0  0  0  0  0  0  0  0  0  0  0
  152.2923  138.2420  156.7997 H   0  0  0  0  0  0  0  0  0  0  0  0
  152.3197  137.5260  158.4077 H   0  0  0  0  0  0  0  0  0  0  0  0
  150.6849  139.2990  159.1994 H   0  0  0  0  0  0  0  0  0  0  0  0
  149.9521  137.6285  156.9102 H   0  0  0  0  0  0  0  0  0  0  0  0
  149.9766  136.0644  158.4620 H   0  0  0  0  0  0  0  0  0  0  0  0
  150.2391  137.2921  159.6955 H   0  0  0  0  0  0  0  0  0  0  0  0
  147.8305  137.8514  159.7317 H   0  0  0  0  0  0  0  0  0  0  0  0
  147.5145  136.7995  158.3810 H   0  0  0  0  0  0  0  0  0  0  0  0
  147.9727  134.4876  162.9360 H   0  0  0  0  0  0  0  0  0  0  0  0
  146.3277  134.2593  162.2684 H   0  0  0  0  0  0  0  0  0  0  0  0
  148.0151  132.7643  161.0004 H   0  0  0  0  0  0  0  0  0  0  0  0
  149.3924  140.4908  157.2952 H   0  0  0  0  0  0  0  0  0  0  0  0
  150.3867  139.4811  155.2989 H   0  0  0  0  0  0  0  0  0  0  0  0
  152.0031  139.9822  155.7889 H   0  0  0  0  0  0  0  0  0  0  0  0
  150.7984  141.1828  155.3317 H   0  0  0  0  0  0  0  0  0  0  0  0
  150.0929  143.1401  156.9224 H   0  0  0  0  0  0  0  0  0  0  0  0
  151.6077  144.6618  158.6049 H   0  0  0  0  0  0  0  0  0  0  0  0
  152.9825  142.7685  160.0895 H   0  0  0  0  0  0  0  0  0  0  0  0
  1  2  1  0  0  0  0
  1 20  1  0  0  0  0
  1 21  1  0  0  0  0
  1 22  1  0  0  0  0
  2  3  1  0  0  0  0
  2 13  1  0  0  0  0
  2 23  1  0  0  0  0
  3  4  1  0  0  0  0
  3 24  1  0  0  0  0
  4  5  1  0  0  0  0
  4 25  1  0  0  0  0
  4 26  1  0  0  0  0
  5  6  1  0  0  0  0
  5 27  1  0  0  0  0
  5 28  1  0  0  0  0
  6 11  1  0  0  0  0
  6  7  1  0  0  0  0
  7  8  2  0  0  0  0
  7  9  1  0  0  0  0
  9 10  1  0  0  0  0
  9 29  1  0  0  0  0
  9 30  1  0  0  0  0
 10 11  1  0  0  0  0
 10 31  1  0  0  0  0
 11 12  2  0  0  0  0
 13 14  1  0  0  0  0
 13 15  1  0  0  0  0
 13 32  1  0  0  0  0
 14 33  1  0  0  0  0
 14 34  1  0  0  0  0
 14 35  1  0  0  0  0
 15 19  1  0  0  0  0
 15 16  1  0  0  0  0
 16 17  2  0  0  0  0
 16 36  1  0  0  0  0
 17 18  1  0  0  0  0
 17 37  1  0  0  0  0
 18 19  2  0  0  0  0
 18 38  1  0  0  0  0
M  END
> <s_m_source_file>
AV-unprocessed.smi

> <i_m_source_file_index>
3330

> <i_lp_mmshare_version>
43012

> <i_f3d_flags>
0

> <s_epik_input>
bjFbY0hdW2NIXVtjSF1uMVtDQEBIXShbQ0gzXSlbQ0BIXShbQ0gzXSlbTkhdW0NIMl1bQ0gyXU4yQyg9TylbQ0gyXVtOSF1DMj1P

> <s_epik_cmdline>
J2VwaWtfcHl0aG9uJywgJy1waCcsICc3LjAnLCAnLXRuJywgJzgnLCAnLW1hJywgJzIwMCcsICctbWV0YWxfYmluZGluZycsICctaW1hZScsICc8aW5maWxlLm1hZT4nLCAnLW9tYWUnLCAnPG91dGZpbGUubWFlPic=

> <r_lp_tautomer_probability>
1

> <r_epik_Ionization_Penalty>
2.2997

> <r_epik_Ionization_Penalty_Charging>
0

> <r_epik_Ionization_Penalty_Neutral>
2.2997

> <r_epik_State_Penalty>
2.44917

> <r_epik_Charging_Adjusted_Penalty>
2.44917

> <i_epik_Tot_Q>
0

> <i_epik_Tot_abs_Q>
0

> <r_epik_Metal_State_Penalty>
2.52438

> <b_epik_Metal_Only>
0

> <s_lp_Force_Field>
OPLS_2005

> <r_lp_Energy>
24.6484

> <b_lp_Chiralities_Consistent>
1

> <s_lp_Variant>
AV-unprocessed.smi:3330-5

> <Gold.Version>
5.8.1

> <Gold.Id.Protein>
6NUR|6NUR_protein|mol2

> <Gold.PLP.Fitness>
43.8123

> <Gold.PLP.PLP>
-35.8017

> <Gold.PLP.part.hbond>
-3.0000

> <Gold.PLP.part.metal>
0.0000

> <Gold.PLP.part.buried>
-4.5380

> <Gold.PLP.part.nonpolar>
-29.0031

> <Gold.PLP.part.repulsive>
0.0646

> <Gold.PLP.ligand.clash>
0.0000

> <Gold.PLP.ligand.torsion>
1.1733

> <Gold.PLP.Chemscore.Hbond>
2.4176

> <Gold.PLP.Chemscore.CHOScore>
1.0000

> <Gold.PLP.Chemscore.Metal>
0.0000

> <Gold.Chemscore.Hbonds>
donor molecule, donor type, donor heavy atom, donor atom, acceptor molecule, acceptor atom, score
      P1  H  6896  6908       L1    12  0.85
      P1  H  6931  6943       L1     8  0.13
      P1  H  6934  6947       L1     8  0.27
      L1  C    16    36       P1  8028  1.00

> <Gold.PLP.Chemscore.Internal.Correction>
0.1044

> <Gold.Rescore>
     Score         DG    S(hbond)    S(metal)    S(lipo)     H(rot)  DE(clash)    DE(int)     intcor
     12.01     -13.33       1.91        0.00      69.30       2.60       0.02       1.30       ----

> <Gold.Chemscore.Fitness>
12.0113

> <Gold.Chemscore.DG>
-13.3321

> <Gold.Chemscore.ZeroCoef>
-5.4800

> <Gold.Chemscore.Hbond>
1.9124

> <Gold.Chemscore.Metal>
0.0000

> <Gold.Chemscore.Lipo>
69.3014

> <Gold.Chemscore.Internal_Hbond>
0.0000

> <Gold.Chemscore.DEClash>
0.0197

> <Gold.Chemscore.DEInternal>
1.3011

> <Gold.Chemscore.Rot>
2.5952

> <Gold.Chemscore.Internal.Correction>
   9.000000E+99

> <Gold.Chemscore.Hbonds>
donor molecule, donor type, donor heavy atom, donor atom, acceptor molecule, acceptor atom, score
      P1  H  6896  6908       L1    12  0.14
      P1  H  6931  6943       L1     8  0.04
      P1  H  6934  6947       L1     8  0.26

> <Gold.Chemscore.Hbond.Weighted>
-6.3876

> <Gold.Chemscore.Metal.Weighted>
-0.0000

> <Gold.Chemscore.Lipo.Weighted>
-8.1083

> <Gold.Chemscore.Internal_Hbond.Weighted>
0.0000

> <Gold.Chemscore.DEClash.Weighted>
0.0197

> <Gold.Chemscore.DEInternal.Weighted>
1.3011

> <Gold.Chemscore.Rot.Weighted>
6.6437

> <Gold.Chemscore.Internal.Correction.Weighted>
   9.000000E+99

> <Gold.Protein.RotatedTorsions>
[ 6907 6896 6895 6894 ] final  145.25 input  -60.11 | X-H torsion
[ 7974 7965 7964 7962 ] final  -51.08 input  175.53 | X-H torsion
[ 8008 7997 7996 7995 ] final  125.95 input   59.86 | X-H torsion
[ 10167 10162 10161 10158 ] final   -3.56 input  -65.29 | X-H torsion
[ 10718 10713 10712 10709 ] final   83.01 input   66.30 | X-H torsion
[ 10763 10752 10751 10750 ] final   92.03 input  -60.55 | X-H torsion
[ 11005 11000 10999 10996 ] final  -33.22 input  -57.11 | X-H torsion

> <Gold.Protein.ActiveResidues>
 VAL166  LYS551  ARG553  GLY616  TRP617  ASP618  TYR619  PRO620  LYS621  CYS622 
 ASP623  PHE694  ASN695  SER759  ASP760  ASP761  ALA762  ILE779  LEU786  VAL792 
 PHE793  MET794  SER795  GLU796  ALA797  LYS798  CYS799  TRP800  GLU811  SER814 

> <Gold.Protein.RotatedAtoms>
  152.1832  133.4722  159.4968 H   0  0  0  0  0  0  0  0  0  0  0  0  # atno 6907 bound_to 6896
  150.6938  134.1806  159.4256 H   0  0  0  0  0  0  0  0  0  0  0  0  # atno 6908 bound_to 6896
  151.9718  135.0072  160.0604 H   0  0  0  0  0  0  0  0  0  0  0  0  # atno 6909 bound_to 6896
  145.9229  140.7818  142.9638 H   0  0  0  0  0  0  0  0  0  0  0  0  # atno 7974 bound_to 7965
  156.2849  140.2704  156.2032 H   0  0  0  0  0  0  0  0  0  0  0  0  # atno 8008 bound_to 7997
  155.0340  140.0386  157.2502 H   0  0  0  0  0  0  0  0  0  0  0  0  # atno 8009 bound_to 7997
  154.7330  140.2710  155.6444 H   0  0  0  0  0  0  0  0  0  0  0  0  # atno 8010 bound_to 7997
  140.6894  143.6526  150.8337 H   0  0  0  0  0  0  0  0  0  0  0  0  # atno 10167 bound_to 10162
  157.6870  131.0072  150.2459 H   0  0  0  0  0  0  0  0  0  0  0  0  # atno 10718 bound_to 10713
  153.2147  135.4376  155.0420 H   0  0  0  0  0  0  0  0  0  0  0  0  # atno 10763 bound_to 10752
  154.8219  135.3341  154.7016 H   0  0  0  0  0  0  0  0  0  0  0  0  # atno 10764 bound_to 10752
  153.7452  135.7002  153.5014 H   0  0  0  0  0  0  0  0  0  0  0  0  # atno 10765 bound_to 10752
  140.9617  133.7161  156.1379 H   0  0  0  0  0  0  0  0  0  0  0  0  # atno 11005 bound_to 11000
  144.6755  140.2004  143.7387 LP  0  0  0  0  0  0  0  0  0  0  0  0  # atno 17320 bound_to 7965
  145.8526  139.2183  143.1763 LP  0  0  0  0  0  0  0  0  0  0  0  0  # atno 17321 bound_to 7965
  140.0237  143.5515  152.2789 LP  0  0  0  0  0  0  0  0  0  0  0  0  # atno 17342 bound_to 10162
  139.6283  144.7640  151.2591 LP  0  0  0  0  0  0  0  0  0  0  0  0  # atno 17343 bound_to 10162
  156.3065  130.3766  149.7701 LP  0  0  0  0  0  0  0  0  0  0  0  0  # atno 17370 bound_to 10713
  156.5315  130.8260  151.3239 LP  0  0  0  0  0  0  0  0  0  0  0  0  # atno 17371 bound_to 10713
  140.7458  134.4099  157.5548 LP  0  0  0  0  0  0  0  0  0  0  0  0  # atno 17394 bound_to 11000
  139.8880  134.8867  156.2497 LP  0  0  0  0  0  0  0  0  0  0  0  0  # atno 17395 bound_to 11000

$$$$
