AV-unprocessed.smi:370|AV-procd|sdf|2436|dock8
  -GOLD-   2262022373D 1   1.00000     0.00000
 Structure written by MMmdl.
 42 43  0  0  0  0  0  0  0  0  1 V2000
  144.4286  132.3668  149.4192 C   0  0  0  0  0  0  0  0  0  0  0  0
  145.2909  132.7170  150.5830 C   0  0  0  0  0  0  0  0  0  0  0  0
  146.2575  133.6638  150.7719 C   0  0  0  0  0  0  0  0  0  0  0  0
  146.6692  133.4358  152.1173 C   0  0  0  0  0  0  0  0  0  0  0  0
  147.6726  134.1504  152.8211 N   0  0  0  0  0  0  0  0  0  0  0  0
  147.9993  134.0676  154.1218 C   0  0  0  0  0  0  0  0  0  0  0  0
  147.4805  133.3080  154.9397 O   0  0  0  0  0  0  0  0  0  0  0  0
  148.9873  134.9212  154.4251 N   0  0  0  0  0  0  0  0  0  0  0  0
  149.6121  135.0789  155.7385 C   0  0  0  0  0  0  0  0  0  0  0  0
  149.4035  136.5014  156.3363 C   0  0  0  0  0  0  0  0  0  0  0  0
  147.8794  136.6997  156.5210 C   0  0  0  0  0  0  0  0  0  0  0  0
  150.0349  136.4814  157.7518 C   0  0  0  0  0  0  0  0  0  0  0  0
  150.0293  137.5528  155.4853 N   0  0  0  0  0  0  0  0  0  0  0  0
  149.6323  138.9281  155.8105 C   0  0  0  0  0  0  0  0  0  0  0  0
  150.2153  139.9484  154.8184 C   0  0  0  0  0  0  0  0  0  0  0  0
  151.6325  139.8331  154.7918 O   0  0  0  0  0  0  0  0  0  0  0  0
  152.0629  138.5290  154.4220 C   0  0  0  0  0  0  0  0  0  0  0  0
  151.4934  137.4945  155.4076 C   0  0  0  0  0  0  0  0  0  0  0  0
  146.0168  132.4390  152.6868 N   0  0  0  0  0  0  0  0  0  0  0  0
  145.1280  131.9741  151.7106 O   0  0  0  0  0  0  0  0  0  0  0  0
  144.5133  133.1167  148.6323 H   0  0  0  0  0  0  0  0  0  0  0  0
  143.3817  132.3064  149.7167 H   0  0  0  0  0  0  0  0  0  0  0  0
  144.7185  131.4031  149.0003 H   0  0  0  0  0  0  0  0  0  0  0  0
  146.6030  134.3906  150.0524 H   0  0  0  0  0  0  0  0  0  0  0  0
  148.2087  134.8000  152.2650 H   0  0  0  0  0  0  0  0  0  0  0  0
  149.3585  135.4957  153.6827 H   0  0  0  0  0  0  0  0  0  0  0  0
  149.1989  134.3147  156.3961 H   0  0  0  0  0  0  0  0  0  0  0  0
  150.6770  134.8439  155.6894 H   0  0  0  0  0  0  0  0  0  0  0  0
  147.4584  135.9191  157.1558 H   0  0  0  0  0  0  0  0  0  0  0  0
  147.3409  136.6577  155.5746 H   0  0  0  0  0  0  0  0  0  0  0  0
  147.6408  137.6508  156.9964 H   0  0  0  0  0  0  0  0  0  0  0  0
  149.7173  135.6055  158.3189 H   0  0  0  0  0  0  0  0  0  0  0  0
  149.7459  137.3481  158.3459 H   0  0  0  0  0  0  0  0  0  0  0  0
  151.1243  136.4615  157.7073 H   0  0  0  0  0  0  0  0  0  0  0  0
  148.5495  139.0354  155.7956 H   0  0  0  0  0  0  0  0  0  0  0  0
  149.9627  139.1886  156.8161 H   0  0  0  0  0  0  0  0  0  0  0  0
  149.8100  139.7890  153.8178 H   0  0  0  0  0  0  0  0  0  0  0  0
  149.9461  140.9622  155.1149 H   0  0  0  0  0  0  0  0  0  0  0  0
  151.7435  138.3076  153.4025 H   0  0  0  0  0  0  0  0  0  0  0  0
  153.1524  138.4989  154.4293 H   0  0  0  0  0  0  0  0  0  0  0  0
  151.9307  137.6693  156.3907 H   0  0  0  0  0  0  0  0  0  0  0  0
  151.8265  136.5106  155.0825 H   0  0  0  0  0  0  0  0  0  0  0  0
  1  2  1  0  0  0  0
  1 21  1  0  0  0  0
  1 22  1  0  0  0  0
  1 23  1  0  0  0  0
  2 20  1  0  0  0  0
  2  3  2  0  0  0  0
  3  4  1  0  0  0  0
  3 24  1  0  0  0  0
  4  5  1  0  0  0  0
  4 19  2  0  0  0  0
  5  6  1  0  0  0  0
  5 25  1  0  0  0  0
  6  7  2  0  0  0  0
  6  8  1  0  0  0  0
  8  9  1  0  0  0  0
  8 26  1  0  0  0  0
  9 10  1  0  0  0  0
  9 27  1  0  0  0  0
  9 28  1  0  0  0  0
 10 11  1  0  0  0  0
 10 12  1  0  0  0  0
 10 13  1  0  0  0  0
 11 29  1  0  0  0  0
 11 30  1  0  0  0  0
 11 31  1  0  0  0  0
 12 32  1  0  0  0  0
 12 33  1  0  0  0  0
 12 34  1  0  0  0  0
 13 18  1  0  0  0  0
 13 14  1  0  0  0  0
 14 15  1  0  0  0  0
 14 35  1  0  0  0  0
 14 36  1  0  0  0  0
 15 16  1  0  0  0  0
 15 37  1  0  0  0  0
 15 38  1  0  0  0  0
 16 17  1  0  0  0  0
 17 18  1  0  0  0  0
 17 39  1  0  0  0  0
 17 40  1  0  0  0  0
 18 41  1  0  0  0  0
 18 42  1  0  0  0  0
 19 20  1  0  0  0  0
M  END
> <s_m_source_file>
AV-unprocessed.smi

> <i_m_source_file_index>
370

> <i_lp_mmshare_version>
43012

> <i_f3d_flags>
0

> <s_epik_input>
W0NIM11jMVtjSF1jKG5vMSlbTkhdQyg9TylbTkhdW0NIMl1DKFtDSDNdKShbQ0gzXSlOMltDSDJdW0NIMl1PW0NIMl1bQ0gyXTI=

> <s_epik_cmdline>
J2VwaWtfcHl0aG9uJywgJy1waCcsICc3LjAnLCAnLXRuJywgJzgnLCAnLW1hJywgJzIwMCcsICctbWV0YWxfYmluZGluZycsICctaW1hZScsICc8aW5maWxlLm1hZT4nLCAnLW9tYWUnLCAnPG91dGZpbGUubWFlPic=

> <r_epik_Ionization_Penalty>
0.214074

> <r_epik_Ionization_Penalty_Charging>
0

> <r_epik_Ionization_Penalty_Neutral>
0.214074

> <r_epik_State_Penalty>
0.204211

> <r_epik_Charging_Adjusted_Penalty>
0.204211

> <i_epik_Tot_Q>
0

> <i_epik_Tot_abs_Q>
0

> <r_epik_Metal_State_Penalty>
0.217151

> <b_epik_Metal_Only>
0

> <s_lp_Force_Field>
OPLS_2005

> <r_lp_Energy>
40.6457

> <b_lp_Chiralities_Consistent>
1

> <s_lp_Variant>
AV-unprocessed.smi:370-1

> <Gold.Version>
5.8.1

> <Gold.Id.Protein>
6NUR|6NUR_protein|mol2

> <Gold.PLP.Fitness>
34.8230

> <Gold.PLP.PLP>
-26.3224

> <Gold.PLP.part.hbond>
-3.0000

> <Gold.PLP.part.metal>
0.0000

> <Gold.PLP.part.buried>
-5.1503

> <Gold.PLP.part.nonpolar>
-18.2970

> <Gold.PLP.part.repulsive>
0.4369

> <Gold.PLP.ligand.clash>
0.0000

> <Gold.PLP.ligand.torsion>
0.1925

> <Gold.PLP.Chemscore.Hbond>
2.9440

> <Gold.PLP.Chemscore.CHOScore>
0.0000

> <Gold.PLP.Chemscore.Metal>
0.0000

> <Gold.Chemscore.Hbonds>
donor molecule, donor type, donor heavy atom, donor atom, acceptor molecule, acceptor atom, score
      L1  H     5    25       P1  7948  1.00
      L1  H     8    26       P1  7948  0.88
      P1  H  7989  7998       L1    16  0.45

> <Gold.PLP.Chemscore.Internal.Correction>
0.0536

> <Gold.Rescore>
     Score         DG    S(hbond)    S(metal)    S(lipo)     H(rot)  DE(clash)    DE(int)     intcor
     13.02     -14.57       1.90        0.00      57.42       1.55       0.05       1.50       ----

> <Gold.Chemscore.Fitness>
13.0207

> <Gold.Chemscore.DG>
-14.5660

> <Gold.Chemscore.ZeroCoef>
-5.4800

> <Gold.Chemscore.Hbond>
1.9005

> <Gold.Chemscore.Metal>
0.0000

> <Gold.Chemscore.Lipo>
57.4232

> <Gold.Chemscore.Internal_Hbond>
0.0000

> <Gold.Chemscore.DEClash>
0.0469

> <Gold.Chemscore.DEInternal>
1.4983

> <Gold.Chemscore.Rot>
1.5548

> <Gold.Chemscore.Internal.Correction>
   9.000000E+99

> <Gold.Chemscore.Hbonds>
donor molecule, donor type, donor heavy atom, donor atom, acceptor molecule, acceptor atom, score
      L1  H     5    25       P1  7948  0.30
      L1  H     8    26       P1  7948  0.30
      P1  H  7989  7998       L1    16  0.01

> <Gold.Chemscore.Hbond.Weighted>
-6.3477

> <Gold.Chemscore.Metal.Weighted>
-0.0000

> <Gold.Chemscore.Lipo.Weighted>
-6.7185

> <Gold.Chemscore.Internal_Hbond.Weighted>
0.0000

> <Gold.Chemscore.DEClash.Weighted>
0.0469

> <Gold.Chemscore.DEInternal.Weighted>
1.4983

> <Gold.Chemscore.Rot.Weighted>
3.9802

> <Gold.Chemscore.Internal.Correction.Weighted>
   9.000000E+99

> <Gold.Protein.RotatedTorsions>
[ 6907 6896 6895 6894 ] final -117.78 input  -60.11 | X-H torsion
[ 7974 7965 7964 7962 ] final   40.75 input  175.53 | X-H torsion
[ 8008 7997 7996 7995 ] final -155.96 input   59.86 | X-H torsion
[ 10167 10162 10161 10158 ] final  177.14 input  -65.29 | X-H torsion
[ 10718 10713 10712 10709 ] final -161.23 input   66.30 | X-H torsion
[ 10763 10752 10751 10750 ] final  149.37 input  -60.55 | X-H torsion
[ 11005 11000 10999 10996 ] final    8.64 input  -57.11 | X-H torsion

> <Gold.Protein.ActiveResidues>
 VAL166  LYS551  ARG553  GLY616  TRP617  ASP618  TYR619  PRO620  LYS621  CYS622 
 ASP623  PHE694  ASN695  SER759  ASP760  ASP761  ALA762  ILE779  LEU786  VAL792 
 PHE793  MET794  SER795  GLU796  ALA797  LYS798  CYS799  TRP800  GLU811  SER814 

> <Gold.Protein.RotatedAtoms>
  150.8164  133.8329  159.3158 H   0  0  0  0  0  0  0  0  0  0  0  0  # atno 6907 bound_to 6896
  151.6100  135.1039  160.0088 H   0  0  0  0  0  0  0  0  0  0  0  0  # atno 6908 bound_to 6896
  152.4256  133.7148  159.6556 H   0  0  0  0  0  0  0  0  0  0  0  0  # atno 6909 bound_to 6896
  146.0879  139.5496  142.9494 H   0  0  0  0  0  0  0  0  0  0  0  0  # atno 7974 bound_to 7965
  155.7099  140.0777  157.2375 H   0  0  0  0  0  0  0  0  0  0  0  0  # atno 8008 bound_to 7997
  154.4060  140.1632  156.2338 H   0  0  0  0  0  0  0  0  0  0  0  0  # atno 8009 bound_to 7997
  155.9292  140.3392  155.6238 H   0  0  0  0  0  0  0  0  0  0  0  0  # atno 8010 bound_to 7997
  139.5242  144.2832  152.0528 H   0  0  0  0  0  0  0  0  0  0  0  0  # atno 10167 bound_to 10162
  156.5932  130.8779  151.2895 H   0  0  0  0  0  0  0  0  0  0  0  0  # atno 10718 bound_to 10713
  154.0700  135.2867  155.3310 H   0  0  0  0  0  0  0  0  0  0  0  0  # atno 10763 bound_to 10752
  154.6753  135.5284  153.8194 H   0  0  0  0  0  0  0  0  0  0  0  0  # atno 10764 bound_to 10752
  153.0489  135.6568  154.0882 H   0  0  0  0  0  0  0  0  0  0  0  0  # atno 10765 bound_to 10752
  140.5347  134.0433  155.7884 H   0  0  0  0  0  0  0  0  0  0  0  0  # atno 11005 bound_to 11000
  145.6094  141.0342  143.1974 LP  0  0  0  0  0  0  0  0  0  0  0  0  # atno 17320 bound_to 7965
  144.7339  139.7643  143.7337 LP  0  0  0  0  0  0  0  0  0  0  0  0  # atno 17321 bound_to 7965
  140.2287  144.4391  150.6310 LP  0  0  0  0  0  0  0  0  0  0  0  0  # atno 17342 bound_to 10162
  140.6370  143.2196  151.6373 LP  0  0  0  0  0  0  0  0  0  0  0  0  # atno 17343 bound_to 10162
  157.7298  130.9676  150.1805 LP  0  0  0  0  0  0  0  0  0  0  0  0  # atno 17370 bound_to 10713
  156.2532  130.3702  149.8210 LP  0  0  0  0  0  0  0  0  0  0  0  0  # atno 17371 bound_to 10713
  141.1262  133.9380  157.2631 LP  0  0  0  0  0  0  0  0  0  0  0  0  # atno 17394 bound_to 11000
  139.9536  135.0170  156.9063 LP  0  0  0  0  0  0  0  0  0  0  0  0  # atno 17395 bound_to 11000

$$$$
