AV-unprocessed.smi:2642|AV-procd|sdf|10275|dock3
  -GOLD-   2272014283D 1   1.00000     0.00000
 Structure written by MMmdl.
 31 32  0  0  0  0  0  0  0  0  2 V2000
  144.8458  136.5923  153.4868 O   0  0  0  0  0  0  0  0  0  0  0  0
  145.9632  136.3236  153.0463 C   0  0  0  0  0  0  0  0  0  0  0  0
  147.0580  137.0496  153.3121 N   0  0  0  0  0  0  0  0  0  0  0  0
  147.0891  138.2472  154.1422 C   0  0  0  0  0  0  0  0  0  0  0  0
  147.9850  138.0495  155.3781 C   0  0  0  0  0  0  0  0  0  0  0  0
  149.3782  137.8061  154.9932 N   0  0  0  0  0  0  0  0  0  0  0  0
  150.2078  138.7476  154.5335 C   0  0  0  0  0  0  0  0  0  0  0  0
  149.9700  139.9412  154.3478 O   0  0  0  0  0  0  0  0  0  0  0  0
  151.5427  138.0892  154.2728 C   0  0  0  0  0  0  0  0  0  0  0  0
  151.2937  136.7195  154.6619 N   0  5  0  0  0  0  0  0  0  0  0  0
  150.0099  136.6196  155.0791 C   0  0  0  0  0  0  0  0  0  0  0  0
  149.4487  135.6063  155.4953 O   0  0  0  0  0  0  0  0  0  0  0  0
  146.2513  135.2950  152.2303 N   0  0  0  0  0  0  0  0  0  0  0  0
  145.3801  134.2915  151.7260 C   0  0  0  0  0  0  0  0  0  0  0  0
  145.7540  133.3162  150.7697 C   0  0  0  0  0  0  0  0  0  0  0  0
  144.7896  132.3863  150.3351 C   0  0  0  0  0  0  0  0  0  0  0  0
  143.4880  132.4683  150.8663 C   0  0  0  0  0  0  0  0  0  0  0  0
  143.1144  133.4006  151.7679 N   0  0  0  0  0  0  0  0  0  0  0  0
  144.0437  134.2898  152.1785 C   0  0  0  0  0  0  0  0  0  0  0  0
  147.9337  136.7604  152.9018 H   0  0  0  0  0  0  0  0  0  0  0  0
  147.4220  139.1068  153.5577 H   0  0  0  0  0  0  0  0  0  0  0  0
  146.0662  138.4616  154.4529 H   0  0  0  0  0  0  0  0  0  0  0  0
  147.9310  138.9279  156.0235 H   0  0  0  0  0  0  0  0  0  0  0  0
  147.6139  137.2193  155.9816 H   0  0  0  0  0  0  0  0  0  0  0  0
  151.8103  138.1964  153.2211 H   0  0  0  0  0  0  0  0  0  0  0  0
  152.3175  138.5717  154.8691 H   0  0  0  0  0  0  0  0  0  0  0  0
  147.1998  135.2561  151.8866 H   0  0  0  0  0  0  0  0  0  0  0  0
  146.7477  133.2700  150.3522 H   0  0  0  0  0  0  0  0  0  0  0  0
  145.0418  131.6294  149.6071 H   0  0  0  0  0  0  0  0  0  0  0  0
  142.7252  131.7703  150.5542 H   0  0  0  0  0  0  0  0  0  0  0  0
  143.7084  135.0229  152.8978 H   0  0  0  0  0  0  0  0  0  0  0  0
  1  2  2  0  0  0  0
  2  3  1  0  0  0  0
  2 13  1  0  0  0  0
  3  4  1  0  0  0  0
  3 20  1  0  0  0  0
  4  5  1  0  0  0  0
  4 21  1  0  0  0  0
  4 22  1  0  0  0  0
  5  6  1  0  0  0  0
  5 23  1  0  0  0  0
  5 24  1  0  0  0  0
  6 11  1  0  0  0  0
  6  7  1  0  0  0  0
  7  8  2  0  0  0  0
  7  9  1  0  0  0  0
  9 10  1  0  0  0  0
  9 25  1  0  0  0  0
  9 26  1  0  0  0  0
 10 11  1  0  0  0  0
 11 12  2  0  0  0  0
 13 14  1  0  0  0  0
 13 27  1  0  0  0  0
 14 19  1  0  0  0  0
 14 15  2  0  0  0  0
 15 16  1  0  0  0  0
 15 28  1  0  0  0  0
 16 17  2  0  0  0  0
 16 29  1  0  0  0  0
 17 18  1  0  0  0  0
 17 30  1  0  0  0  0
 18 19  2  0  0  0  0
 19 31  1  0  0  0  0
M  CHG  1  10  -1
M  END
> <s_m_source_file>
AV-unprocessed.smi

> <i_m_source_file_index>
2642

> <i_lp_mmshare_version>
43012

> <i_f3d_flags>
0

> <s_epik_input>
W2NIXTFuW2NIXVtjSF1bY0hdYzFbTkhdQyg9TylbTkhdW0NIMl1bQ0gyXU4yQyg9TylbQ0gyXVtOSF1DMj1P

> <s_epik_cmdline>
J2VwaWtfcHl0aG9uJywgJy1waCcsICc3LjAnLCAnLXRuJywgJzgnLCAnLW1hJywgJzIwMCcsICctbWV0YWxfYmluZGluZycsICctaW1hZScsICc8aW5maWxlLm1hZT4nLCAnLW9tYWUnLCAnPG91dGZpbGUubWFlPic=

> <r_lp_tautomer_probability>
1

> <r_epik_Ionization_Penalty>
5.82623

> <r_epik_Ionization_Penalty_Charging>
5.82164

> <r_epik_Ionization_Penalty_Neutral>
0.00459419

> <r_epik_State_Penalty>
5.8249

> <r_epik_Charging_Adjusted_Penalty>
11.6465

> <i_epik_Tot_Q>
-1

> <i_epik_Tot_abs_Q>
1

> <r_epik_Metal_State_Penalty>
1.79397

> <b_epik_Metal_Only>
1

> <s_lp_Force_Field>
OPLS_2005

> <r_lp_Energy>
16.7854

> <b_lp_Chiralities_Consistent>
1

> <s_lp_Variant>
AV-unprocessed.smi:2642-2

> <Gold.Version>
5.8.1

> <Gold.Id.Protein>
6NUR|6NUR_protein|mol2

> <Gold.PLP.Fitness>
44.2804

> <Gold.PLP.PLP>
-27.0644

> <Gold.PLP.part.hbond>
-3.8895

> <Gold.PLP.part.metal>
0.0000

> <Gold.PLP.part.buried>
-7.0923

> <Gold.PLP.part.nonpolar>
-18.2554

> <Gold.PLP.part.repulsive>
1.0628

> <Gold.PLP.ligand.clash>
0.0000

> <Gold.PLP.ligand.torsion>
0.1657

> <Gold.PLP.Chemscore.Hbond>
4.8630

> <Gold.PLP.Chemscore.CHOScore>
0.9822

> <Gold.PLP.Chemscore.Metal>
0.0000

> <Gold.Chemscore.Hbonds>
donor molecule, donor type, donor heavy atom, donor atom, acceptor molecule, acceptor atom, score
      L1  H     3    20       P1  7948  1.00
      L1  H    13    27       P1  7948  0.91
      P1  H  7989  7998       L1     8  0.88
      P1  H 10752 10764       L1    10  2.00
      L1  C    17    30       P1 10952  0.90

> <Gold.PLP.Chemscore.Internal.Correction>
0.0117

> <Gold.Rescore>
     Score         DG    S(hbond)    S(metal)    S(lipo)     H(rot)  DE(clash)    DE(int)     intcor
     15.43     -17.24       3.36        0.00      46.24       1.90       0.11       1.71       ----

> <Gold.Chemscore.Fitness>
15.4322

> <Gold.Chemscore.DG>
-17.2438

> <Gold.Chemscore.ZeroCoef>
-5.4800

> <Gold.Chemscore.Hbond>
3.3561

> <Gold.Chemscore.Metal>
0.0000

> <Gold.Chemscore.Lipo>
46.2440

> <Gold.Chemscore.Internal_Hbond>
0.0000

> <Gold.Chemscore.DEClash>
0.1052

> <Gold.Chemscore.DEInternal>
1.7064

> <Gold.Chemscore.Rot>
1.8969

> <Gold.Chemscore.Internal.Correction>
   9.000000E+99

> <Gold.Chemscore.Hbonds>
donor molecule, donor type, donor heavy atom, donor atom, acceptor molecule, acceptor atom, score
      L1  H     3    20       P1  7948  0.95
      L1  H    13    27       P1  7948  0.86
      P1  H  7989  7998       L1     8  0.61
      P1  H 10752 10764       L1    10  0.68

> <Gold.Chemscore.Hbond.Weighted>
-11.2093

> <Gold.Chemscore.Metal.Weighted>
-0.0000

> <Gold.Chemscore.Lipo.Weighted>
-5.4105

> <Gold.Chemscore.Internal_Hbond.Weighted>
0.0000

> <Gold.Chemscore.DEClash.Weighted>
0.1052

> <Gold.Chemscore.DEInternal.Weighted>
1.7064

> <Gold.Chemscore.Rot.Weighted>
4.8561

> <Gold.Chemscore.Internal.Correction.Weighted>
   9.000000E+99

> <Gold.Protein.RotatedTorsions>
[ 6907 6896 6895 6894 ] final   98.81 input  -60.11 | X-H torsion
[ 7974 7965 7964 7962 ] final    3.18 input  175.53 | X-H torsion
[ 8008 7997 7996 7995 ] final  -77.16 input   59.86 | X-H torsion
[ 10167 10162 10161 10158 ] final   68.80 input  -65.29 | X-H torsion
[ 10718 10713 10712 10709 ] final  147.25 input   66.30 | X-H torsion
[ 10763 10752 10751 10750 ] final  -74.31 input  -60.55 | X-H torsion
[ 11005 11000 10999 10996 ] final  154.43 input  -57.11 | X-H torsion

> <Gold.Protein.ActiveResidues>
 VAL166  LYS551  ARG553  GLY616  TRP617  ASP618  TYR619  PRO620  LYS621  CYS622 
 ASP623  PHE694  ASN695  SER759  ASP760  ASP761  ALA762  ILE779  LEU786  VAL792 
 PHE793  MET794  SER795  GLU796  ALA797  LYS798  CYS799  TRP800  GLU811  SER814 

> <Gold.Protein.RotatedAtoms>
  152.5403  134.0524  159.8115 H   0  0  0  0  0  0  0  0  0  0  0  0  # atno 6907 bound_to 6896
  151.0663  133.5495  159.2637 H   0  0  0  0  0  0  0  0  0  0  0  0  # atno 6908 bound_to 6896
  151.2374  135.0585  159.9065 H   0  0  0  0  0  0  0  0  0  0  0  0  # atno 6909 bound_to 6896
  146.2445  140.0724  142.8361 H   0  0  0  0  0  0  0  0  0  0  0  0  # atno 7974 bound_to 7965
  154.5571  140.0715  156.8760 H   0  0  0  0  0  0  0  0  0  0  0  0  # atno 8008 bound_to 7997
  155.2882  140.3376  155.4236 H   0  0  0  0  0  0  0  0  0  0  0  0  # atno 8009 bound_to 7997
  156.2011  140.1722  156.7884 H   0  0  0  0  0  0  0  0  0  0  0  0  # atno 8010 bound_to 7997
  140.0747  144.5122  150.7203 H   0  0  0  0  0  0  0  0  0  0  0  0  # atno 10167 bound_to 10162
  157.3232  131.0908  151.1223 H   0  0  0  0  0  0  0  0  0  0  0  0  # atno 10718 bound_to 10713
  154.4713  135.5869  153.6324 H   0  0  0  0  0  0  0  0  0  0  0  0  # atno 10763 bound_to 10752
  152.9835  135.6067  154.3363 H   0  0  0  0  0  0  0  0  0  0  0  0  # atno 10764 bound_to 10752
  154.3245  135.2843  155.2482 H   0  0  0  0  0  0  0  0  0  0  0  0  # atno 10765 bound_to 10752
  140.1489  134.8688  157.2428 H   0  0  0  0  0  0  0  0  0  0  0  0  # atno 11005 bound_to 11000
  145.0805  140.9217  143.4828 LP  0  0  0  0  0  0  0  0  0  0  0  0  # atno 17320 bound_to 7965
  145.0876  139.2914  143.5751 LP  0  0  0  0  0  0  0  0  0  0  0  0  # atno 17321 bound_to 7965
  140.7108  143.2503  151.4587 LP  0  0  0  0  0  0  0  0  0  0  0  0  # atno 17342 bound_to 10162
  139.5815  144.1699  152.1974 LP  0  0  0  0  0  0  0  0  0  0  0  0  # atno 17343 bound_to 10162
  157.2500  130.6609  149.5927 LP  0  0  0  0  0  0  0  0  0  0  0  0  # atno 17370 bound_to 10713
  155.9688  130.4541  150.5838 LP  0  0  0  0  0  0  0  0  0  0  0  0  # atno 17371 bound_to 10713
  140.2629  134.3549  155.7400 LP  0  0  0  0  0  0  0  0  0  0  0  0  # atno 17394 bound_to 11000
  141.2196  133.7380  156.9108 LP  0  0  0  0  0  0  0  0  0  0  0  0  # atno 17395 bound_to 11000

$$$$
