AV-unprocessed.smi:1978|AV-procd|sdf|8015|dock9
  -GOLD-   2272010203D 1   1.00000     0.00000
 Structure written by MMmdl.
 44 45  0  0  0  0  0  0  0  0  3 V2000
  153.2708  138.8968  154.5844 C   0  0  0  0  0  0  0  0  0  0  0  0
  151.7930  138.7676  154.4442 C   0  0  0  0  0  0  0  0  0  0  0  0
  150.9715  137.7030  154.2025 C   0  0  0  0  0  0  0  0  0  0  0  0
  149.6789  138.2913  154.1883 C   0  0  0  0  0  0  0  0  0  0  0  0
  148.5256  137.4968  153.9543 N   0  0  0  0  0  0  0  0  0  0  0  0
  147.5707  137.1201  154.8241 C   0  0  0  0  0  0  0  0  0  0  0  0
  147.6466  137.4457  156.0146 O   0  0  0  0  0  0  0  0  0  0  0  0
  146.5915  136.3883  154.2256 N   0  5  0  0  0  0  0  0  0  0  0  0
  146.4435  134.9364  154.3325 C   0  0  0  0  0  0  0  0  0  0  0  0
  146.9949  134.2450  153.0595 C   0  0  1  0  0  0  0  0  0  0  0  0
  148.2433  133.3598  153.3218 C   0  0  0  0  0  0  0  0  0  0  0  0
  145.8852  133.5210  152.3613 N   0  3  2  0  0  0  0  0  0  0  0  0
  146.2616  132.7115  151.1644 C   0  0  0  0  0  0  0  0  0  0  0  0
  145.1144  131.7775  150.7486 C   0  0  0  0  0  0  0  0  0  0  0  0
  143.8234  132.5662  150.4992 C   0  0  0  0  0  0  0  0  0  0  0  0
  143.4740  133.4058  151.7364 C   0  0  0  0  0  0  0  0  0  0  0  0
  144.6382  134.3229  152.1663 C   0  0  2  0  0  0  0  0  0  0  0  0
  144.8213  135.5239  151.2150 C   0  0  0  0  0  0  0  0  0  0  0  0
  149.7095  139.5979  154.4065 N   0  0  0  0  0  0  0  0  0  0  0  0
  151.0643  139.9094  154.5718 O   0  0  0  0  0  0  0  0  0  0  0  0
  153.7672  137.9505  154.3681 H   0  0  0  0  0  0  0  0  0  0  0  0
  153.5379  139.1949  155.5983 H   0  0  0  0  0  0  0  0  0  0  0  0
  153.6598  139.6471  153.8959 H   0  0  0  0  0  0  0  0  0  0  0  0
  151.2519  136.6706  154.0555 H   0  0  0  0  0  0  0  0  0  0  0  0
  148.3951  137.1895  153.0021 H   0  0  0  0  0  0  0  0  0  0  0  0
  146.9601  134.5412  155.2075 H   0  0  0  0  0  0  0  0  0  0  0  0
  145.4007  134.6392  154.4550 H   0  0  0  0  0  0  0  0  0  0  0  0
  147.3164  135.0514  152.3981 H   0  0  0  0  0  0  0  0  0  0  0  0
  149.0846  133.9472  153.6943 H   0  0  0  0  0  0  0  0  0  0  0  0
  148.5885  132.8809  152.4062 H   0  0  0  0  0  0  0  0  0  0  0  0
  148.0579  132.5686  154.0502 H   0  0  0  0  0  0  0  0  0  0  0  0
  146.5313  133.3607  150.3312 H   0  0  0  0  0  0  0  0  0  0  0  0
  147.1396  132.1046  151.3873 H   0  0  0  0  0  0  0  0  0  0  0  0
  145.3914  131.2226  149.8517 H   0  0  0  0  0  0  0  0  0  0  0  0
  144.9453  131.0362  151.5308 H   0  0  0  0  0  0  0  0  0  0  0  0
  143.9436  133.2113  149.6283 H   0  0  0  0  0  0  0  0  0  0  0  0
  143.0059  131.8827  150.2675 H   0  0  0  0  0  0  0  0  0  0  0  0
  142.5759  133.9953  151.5487 H   0  0  0  0  0  0  0  0  0  0  0  0
  143.2263  132.7347  152.5600 H   0  0  0  0  0  0  0  0  0  0  0  0
  144.3618  134.7290  153.1406 H   0  0  0  0  0  0  0  0  0  0  0  0
  143.8847  136.0700  151.1010 H   0  0  0  0  0  0  0  0  0  0  0  0
  145.1431  135.2201  150.2195 H   0  0  0  0  0  0  0  0  0  0  0  0
  145.5533  136.2331  151.5999 H   0  0  0  0  0  0  0  0  0  0  0  0
  145.6098  132.8312  153.0463 H   0  0  0  0  0  0  0  0  0  0  0  0
  1  2  1  0  0  0  0
  1 21  1  0  0  0  0
  1 22  1  0  0  0  0
  1 23  1  0  0  0  0
  2 20  1  0  0  0  0
  2  3  2  0  0  0  0
  3  4  1  0  0  0  0
  3 24  1  0  0  0  0
  4  5  1  0  0  0  0
  4 19  2  0  0  0  0
  5  6  1  0  0  0  0
  5 25  1  0  0  0  0
  6  7  2  0  0  0  0
  6  8  1  0  0  0  0
  8  9  1  0  0  0  0
  9 10  1  0  0  0  0
  9 26  1  0  0  0  0
  9 27  1  0  0  0  0
 10 11  1  0  0  0  0
 10 12  1  0  0  0  0
 10 28  1  0  0  0  0
 11 29  1  0  0  0  0
 11 30  1  0  0  0  0
 11 31  1  0  0  0  0
 12 17  1  0  0  0  0
 12 13  1  0  0  0  0
 12 44  1  0  0  0  0
 13 14  1  0  0  0  0
 13 32  1  0  0  0  0
 13 33  1  0  0  0  0
 14 15  1  0  0  0  0
 14 34  1  0  0  0  0
 14 35  1  0  0  0  0
 15 16  1  0  0  0  0
 15 36  1  0  0  0  0
 15 37  1  0  0  0  0
 16 17  1  0  0  0  0
 16 38  1  0  0  0  0
 16 39  1  0  0  0  0
 17 18  1  0  0  0  0
 17 40  1  0  0  0  0
 18 41  1  0  0  0  0
 18 42  1  0  0  0  0
 18 43  1  0  0  0  0
 19 20  1  0  0  0  0
M  CHG  1   8  -1
M  CHG  1  12   1
M  END
> <s_m_source_file>
AV-unprocessed.smi

> <i_m_source_file_index>
1978

> <i_lp_mmshare_version>
43012

> <i_f3d_flags>
0

> <s_epik_input>
W0NIM11jMVtjSF1jKG5vMSlbTkhdQyg9TylbTkhdW0NIMl1bQ0BIXShbQ0gzXSlOMltDSDJdW0NIMl1bQ0gyXVtDSDJdW0NASF0yW0NIM10=

> <s_epik_cmdline>
J2VwaWtfcHl0aG9uJywgJy1waCcsICc3LjAnLCAnLXRuJywgJzgnLCAnLW1hJywgJzIwMCcsICctbWV0YWxfYmluZGluZycsICctaW1hZScsICc8aW5maWxlLm1hZT4nLCAnLW9tYWUnLCAnPG91dGZpbGUubWFlPic=

> <r_epik_Ionization_Penalty>
6.7666

> <r_epik_Ionization_Penalty_Charging>
6.7666

> <r_epik_Ionization_Penalty_Neutral>
5.77131e-06

> <r_epik_State_Penalty>
6.79217

> <r_epik_Charging_Adjusted_Penalty>
13.5588

> <i_epik_Tot_Q>
0

> <i_epik_Tot_abs_Q>
2

> <r_epik_Metal_State_Penalty>
2.72569

> <b_epik_Metal_Only>
1

> <s_lp_Force_Field>
OPLS_2005

> <r_lp_Energy>
20.871

> <b_lp_Chiralities_Consistent>
1

> <s_lp_Variant>
AV-unprocessed.smi:1978-24

> <Gold.Version>
5.8.1

> <Gold.Id.Protein>
6NUR|6NUR_protein|mol2

> <Gold.PLP.Fitness>
35.4098

> <Gold.PLP.PLP>
-33.8528

> <Gold.PLP.part.hbond>
-2.0000

> <Gold.PLP.part.metal>
0.0000

> <Gold.PLP.part.buried>
-3.5879

> <Gold.PLP.part.nonpolar>
-28.8796

> <Gold.PLP.part.repulsive>
0.2837

> <Gold.PLP.ligand.clash>
0.0000

> <Gold.PLP.ligand.torsion>
2.3429

> <Gold.PLP.Chemscore.Hbond>
1.9920

> <Gold.PLP.Chemscore.CHOScore>
0.0000

> <Gold.PLP.Chemscore.Metal>
0.0000

> <Gold.Chemscore.Hbonds>
donor molecule, donor type, donor heavy atom, donor atom, acceptor molecule, acceptor atom, score
      L1  H     5    25       P1  7948  0.90
      P1  H  7989  7998       L1    20  1.00

> <Gold.PLP.Chemscore.Internal.Correction>
0.2668

> <Gold.Rescore>
     Score         DG    S(hbond)    S(metal)    S(lipo)     H(rot)  DE(clash)    DE(int)     intcor
     13.69     -16.20       1.60        0.00      79.32       1.52       0.08       2.43       ----

> <Gold.Chemscore.Fitness>
13.6912

> <Gold.Chemscore.DG>
-16.2015

> <Gold.Chemscore.ZeroCoef>
-5.4800

> <Gold.Chemscore.Hbond>
1.5957

> <Gold.Chemscore.Metal>
0.0000

> <Gold.Chemscore.Lipo>
79.3195

> <Gold.Chemscore.Internal_Hbond>
0.0000

> <Gold.Chemscore.DEClash>
0.0845

> <Gold.Chemscore.DEInternal>
2.4257

> <Gold.Chemscore.Rot>
1.5190

> <Gold.Chemscore.Internal.Correction>
   9.000000E+99

> <Gold.Chemscore.Hbonds>
donor molecule, donor type, donor heavy atom, donor atom, acceptor molecule, acceptor atom, score
      L1  H     5    25       P1  7948  0.85
      P1  H  7989  7998       L1    20  0.42

> <Gold.Chemscore.Hbond.Weighted>
-5.3297

> <Gold.Chemscore.Metal.Weighted>
-0.0000

> <Gold.Chemscore.Lipo.Weighted>
-9.2804

> <Gold.Chemscore.Internal_Hbond.Weighted>
0.0000

> <Gold.Chemscore.DEClash.Weighted>
0.0845

> <Gold.Chemscore.DEInternal.Weighted>
2.4257

> <Gold.Chemscore.Rot.Weighted>
3.8886

> <Gold.Chemscore.Internal.Correction.Weighted>
   9.000000E+99

> <Gold.Protein.RotatedTorsions>
[ 6907 6896 6895 6894 ] final   80.89 input  -60.11 | X-H torsion
[ 7974 7965 7964 7962 ] final -140.11 input  175.53 | X-H torsion
[ 8008 7997 7996 7995 ] final -151.61 input   59.86 | X-H torsion
[ 10167 10162 10161 10158 ] final  102.52 input  -65.29 | X-H torsion
[ 10718 10713 10712 10709 ] final  132.82 input   66.30 | X-H torsion
[ 10763 10752 10751 10750 ] final -164.53 input  -60.55 | X-H torsion
[ 11005 11000 10999 10996 ] final -150.93 input  -57.11 | X-H torsion

> <Gold.Protein.ActiveResidues>
 VAL166  LYS551  ARG553  GLY616  TRP617  ASP618  TYR619  PRO620  LYS621  CYS622 
 ASP623  PHE694  ASN695  SER759  ASP760  ASP761  ALA762  ILE779  LEU786  VAL792 
 PHE793  MET794  SER795  GLU796  ALA797  LYS798  CYS799  TRP800  GLU811  SER814 

> <Gold.Protein.RotatedAtoms>
  152.5250  134.3288  159.9175 H   0  0  0  0  0  0  0  0  0  0  0  0  # atno 6907 bound_to 6896
  151.3238  133.4022  159.2664 H   0  0  0  0  0  0  0  0  0  0  0  0  # atno 6908 bound_to 6896
  150.9937  134.9283  159.7972 H   0  0  0  0  0  0  0  0  0  0  0  0  # atno 6909 bound_to 6896
  144.8623  140.6239  143.5320 H   0  0  0  0  0  0  0  0  0  0  0  0  # atno 7974 bound_to 7965
  155.6422  140.0703  157.2615 H   0  0  0  0  0  0  0  0  0  0  0  0  # atno 8008 bound_to 7997
  154.4181  140.1748  156.1634 H   0  0  0  0  0  0  0  0  0  0  0  0  # atno 8009 bound_to 7997
  155.9846  140.3350  155.6698 H   0  0  0  0  0  0  0  0  0  0  0  0  # atno 8010 bound_to 7997
  139.7343  144.7028  151.0674 H   0  0  0  0  0  0  0  0  0  0  0  0  # atno 10167 bound_to 10162
  157.4834  131.1087  150.9652 H   0  0  0  0  0  0  0  0  0  0  0  0  # atno 10718 bound_to 10713
  154.7020  135.2989  154.9327 H   0  0  0  0  0  0  0  0  0  0  0  0  # atno 10763 bound_to 10752
  154.0257  135.6677  153.4780 H   0  0  0  0  0  0  0  0  0  0  0  0  # atno 10764 bound_to 10752
  153.0688  135.5073  154.8169 H   0  0  0  0  0  0  0  0  0  0  0  0  # atno 10765 bound_to 10752
  140.7350  134.3578  157.5159 H   0  0  0  0  0  0  0  0  0  0  0  0  # atno 11005 bound_to 11000
  145.4288  139.1552  143.4034 LP  0  0  0  0  0  0  0  0  0  0  0  0  # atno 17320 bound_to 7965
  146.2870  140.4402  142.8754 LP  0  0  0  0  0  0  0  0  0  0  0  0  # atno 17321 bound_to 7965
  140.7776  143.5004  150.9778 LP  0  0  0  0  0  0  0  0  0  0  0  0  # atno 17342 bound_to 10162
  139.8692  143.7214  152.3167 LP  0  0  0  0  0  0  0  0  0  0  0  0  # atno 17343 bound_to 10162
  157.0378  130.5737  149.5352 LP  0  0  0  0  0  0  0  0  0  0  0  0  # atno 17370 bound_to 10713
  156.0133  130.5226  150.8058 LP  0  0  0  0  0  0  0  0  0  0  0  0  # atno 17371 bound_to 10713
  139.8818  134.9043  156.2875 LP  0  0  0  0  0  0  0  0  0  0  0  0  # atno 17394 bound_to 11000
  140.9887  133.7222  156.0781 LP  0  0  0  0  0  0  0  0  0  0  0  0  # atno 17395 bound_to 11000

$$$$
