AV-unprocessed.smi:3209|AV-procd|sdf|12271|dock8
  -GOLD-   2272018103D 1   1.00000     0.00000
 Structure written by MMmdl.
 37 39  0  0  0  0  0  0  0  0  2 V2000
  151.7840  135.9549  156.6215 C   0  0  0  0  0  0  0  0  0  0  0  0
  151.4991  137.2282  155.9013 C   0  0  0  0  0  0  0  0  0  0  0  0
  151.8217  138.4347  156.3750 N   0  0  0  0  0  0  0  0  0  0  0  0
  151.4476  139.4698  155.5124 C   0  0  0  0  0  0  0  0  0  0  0  0
  151.7304  140.8929  155.8873 C   0  0  0  0  0  0  0  0  0  0  0  0
  150.4529  141.7403  155.9585 C   0  0  0  0  0  0  0  0  0  0  0  0
  150.7133  143.0368  156.6156 N   0  3  0  0  0  0  0  0  0  0  0  0
  150.6532  143.0006  158.0932 C   0  0  1  0  0  0  0  0  0  0  0  0
  151.6523  142.0177  158.7419 C   0  0  0  0  0  0  0  0  0  0  0  0
  152.3781  142.9050  159.7724 C   0  0  1  0  0  0  0  0  0  0  0  0
  153.3649  143.8252  159.0329 C   0  0  0  0  0  0  0  0  0  0  0  0
  152.4289  144.8227  158.3268 C   0  0  0  0  0  0  0  0  0  0  0  0
  151.0243  144.3448  158.7564 C   0  0  2  0  0  0  0  0  0  0  0  0
  151.2885  143.8893  160.1882 C   0  0  0  0  0  0  0  0  0  0  0  0
  150.8344  139.0252  154.3676 C   0  0  0  0  0  0  0  0  0  0  0  0
  150.7031  137.2882  154.3336 S   0  0  0  0  0  0  0  0  0  0  0  0
  152.1137  136.1549  157.6415 H   0  0  0  0  0  0  0  0  0  0  0  0
  152.5663  135.4010  156.1026 H   0  0  0  0  0  0  0  0  0  0  0  0
  150.8853  135.3393  156.6602 H   0  0  0  0  0  0  0  0  0  0  0  0
  152.2432  140.9254  156.8495 H   0  0  0  0  0  0  0  0  0  0  0  0
  152.4191  141.3352  155.1663 H   0  0  0  0  0  0  0  0  0  0  0  0
  150.0681  141.9185  154.9534 H   0  0  0  0  0  0  0  0  0  0  0  0
  149.6800  141.2029  156.5091 H   0  0  0  0  0  0  0  0  0  0  0  0
  151.6248  143.3719  156.3377 H   0  0  0  0  0  0  0  0  0  0  0  0
  149.6362  142.7383  158.3910 H   0  0  0  0  0  0  0  0  0  0  0  0
  151.1189  141.2035  159.2342 H   0  0  0  0  0  0  0  0  0  0  0  0
  152.3488  141.5744  158.0288 H   0  0  0  0  0  0  0  0  0  0  0  0
  152.8331  142.3451  160.5902 H   0  0  0  0  0  0  0  0  0  0  0  0
  154.0147  144.3443  159.7390 H   0  0  0  0  0  0  0  0  0  0  0  0
  154.0005  143.2805  158.3335 H   0  0  0  0  0  0  0  0  0  0  0  0
  152.6150  145.8348  158.6886 H   0  0  0  0  0  0  0  0  0  0  0  0
  152.5677  144.8330  157.2456 H   0  0  0  0  0  0  0  0  0  0  0  0
  150.2529  145.1090  158.6566 H   0  0  0  0  0  0  0  0  0  0  0  0
  150.4287  143.4097  160.6594 H   0  0  0  0  0  0  0  0  0  0  0  0
  151.6517  144.6880  160.8377 H   0  0  0  0  0  0  0  0  0  0  0  0
  150.4533  139.6102  153.5433 H   0  0  0  0  0  0  0  0  0  0  0  0
  150.0168  143.6921  156.2905 H   0  0  0  0  0  0  0  0  0  0  0  0
  1  2  1  0  0  0  0
  1 17  1  0  0  0  0
  1 18  1  0  0  0  0
  1 19  1  0  0  0  0
  2 16  1  0  0  0  0
  2  3  2  0  0  0  0
  3  4  1  0  0  0  0
  4  5  1  0  0  0  0
  4 15  2  0  0  0  0
  5  6  1  0  0  0  0
  5 20  1  0  0  0  0
  5 21  1  0  0  0  0
  6  7  1  0  0  0  0
  6 22  1  0  0  0  0
  6 23  1  0  0  0  0
  7  8  1  0  0  0  0
  7 24  1  0  0  0  0
  7 37  1  0  0  0  0
  8 13  1  0  0  0  0
  8  9  1  0  0  0  0
  8 25  1  0  0  0  0
  9 10  1  0  0  0  0
  9 26  1  0  0  0  0
  9 27  1  0  0  0  0
 10 14  1  0  0  0  0
 10 11  1  0  0  0  0
 10 28  1  0  0  0  0
 11 12  1  0  0  0  0
 11 29  1  0  0  0  0
 11 30  1  0  0  0  0
 12 13  1  0  0  0  0
 12 31  1  0  0  0  0
 12 32  1  0  0  0  0
 13 14  1  0  0  0  0
 13 33  1  0  0  0  0
 14 34  1  0  0  0  0
 14 35  1  0  0  0  0
 15 16  1  0  0  0  0
 15 36  1  0  0  0  0
M  CHG  1   7   1
M  END
> <s_m_source_file>
AV-unprocessed.smi

> <i_m_source_file_index>
3209

> <i_lp_mmshare_version>
43012

> <i_f3d_flags>
0

> <s_epik_input>
W0NIM11jMW5jKFtjSF1zMSlbQ0gyXVtDSDJdW05IXVtDQEhdKFtDSDJdW0NASF0yMylbQ0BIXShbQ0gyXTMpW0NIMl1bQ0gyXTI=

> <s_epik_cmdline>
J2VwaWtfcHl0aG9uJywgJy1waCcsICc3LjAnLCAnLXRuJywgJzgnLCAnLW1hJywgJzIwMCcsICctbWV0YWxfYmluZGluZycsICctaW1hZScsICc8aW5maWxlLm1hZT4nLCAnLW9tYWUnLCAnPG91dGZpbGUubWFlPic=

> <r_lp_tautomer_probability>
1

> <r_epik_Ionization_Penalty>
0.000342479

> <r_epik_Ionization_Penalty_Charging>
0.000317129

> <r_epik_Ionization_Penalty_Neutral>
2.535e-05

> <r_epik_State_Penalty>
-0

> <r_epik_Charging_Adjusted_Penalty>
0.000317129

> <i_epik_Tot_Q>
1

> <i_epik_Tot_abs_Q>
1

> <r_epik_Metal_State_Penalty>
-0

> <b_epik_Metal_Only>
0

> <s_lp_Force_Field>
OPLS_2005

> <r_lp_Energy>
49.0881

> <b_lp_Chiralities_Consistent>
1

> <s_lp_Variant>
AV-unprocessed.smi:3209-4

> <Gold.Version>
5.8.1

> <Gold.Id.Protein>
6NUR|6NUR_protein|mol2

> <Gold.PLP.Fitness>
44.6702

> <Gold.PLP.PLP>
-36.2290

> <Gold.PLP.part.hbond>
-1.0000

> <Gold.PLP.part.metal>
0.0000

> <Gold.PLP.part.buried>
-2.4669

> <Gold.PLP.part.nonpolar>
-31.3687

> <Gold.PLP.part.repulsive>
0.0589

> <Gold.PLP.ligand.clash>
0.0000

> <Gold.PLP.ligand.torsion>
0.1789

> <Gold.PLP.Chemscore.Hbond>
2.0000

> <Gold.PLP.Chemscore.CHOScore>
0.9307

> <Gold.PLP.Chemscore.Metal>
0.0000

> <Gold.Chemscore.Hbonds>
donor molecule, donor type, donor heavy atom, donor atom, acceptor molecule, acceptor atom, score
      L1  H     7    37       P1  8028  2.00
      L1  C    15    36       P1  7957  0.94

> <Gold.PLP.Chemscore.Internal.Correction>
0.0068

> <Gold.Rescore>
     Score         DG    S(hbond)    S(metal)    S(lipo)     H(rot)  DE(clash)    DE(int)     intcor
     19.54     -20.25       1.00        0.00     126.36       1.31       0.51       0.20       ----

> <Gold.Chemscore.Fitness>
19.5419

> <Gold.Chemscore.DG>
-20.2486

> <Gold.Chemscore.ZeroCoef>
-5.4800

> <Gold.Chemscore.Hbond>
1.0000

> <Gold.Chemscore.Metal>
0.0000

> <Gold.Chemscore.Lipo>
126.3622

> <Gold.Chemscore.Internal_Hbond>
0.0000

> <Gold.Chemscore.DEClash>
0.5054

> <Gold.Chemscore.DEInternal>
0.2013

> <Gold.Chemscore.Rot>
1.3108

> <Gold.Chemscore.Internal.Correction>
   9.000000E+99

> <Gold.Chemscore.Hbonds>
donor molecule, donor type, donor heavy atom, donor atom, acceptor molecule, acceptor atom, score
      L1  H     7    37       P1  8028  1.00

> <Gold.Chemscore.Hbond.Weighted>
-3.3400

> <Gold.Chemscore.Metal.Weighted>
-0.0000

> <Gold.Chemscore.Lipo.Weighted>
-14.7844

> <Gold.Chemscore.Internal_Hbond.Weighted>
0.0000

> <Gold.Chemscore.DEClash.Weighted>
0.5054

> <Gold.Chemscore.DEInternal.Weighted>
0.2013

> <Gold.Chemscore.Rot.Weighted>
3.3558

> <Gold.Chemscore.Internal.Correction.Weighted>
   9.000000E+99

> <Gold.Protein.RotatedTorsions>
[ 6907 6896 6895 6894 ] final  160.90 input  -60.11 | X-H torsion
[ 7974 7965 7964 7962 ] final -103.68 input  175.53 | X-H torsion
[ 8008 7997 7996 7995 ] final -165.58 input   59.86 | X-H torsion
[ 10167 10162 10161 10158 ] final  101.91 input  -65.29 | X-H torsion
[ 10718 10713 10712 10709 ] final  134.49 input   66.30 | X-H torsion
[ 10763 10752 10751 10750 ] final -106.98 input  -60.55 | X-H torsion
[ 11005 11000 10999 10996 ] final -100.21 input  -57.11 | X-H torsion

> <Gold.Protein.ActiveResidues>
 VAL166  LYS551  ARG553  GLY616  TRP617  ASP618  TYR619  PRO620  LYS621  CYS622 
 ASP623  PHE694  ASN695  SER759  ASP760  ASP761  ALA762  ILE779  LEU786  VAL792 
 PHE793  MET794  SER795  GLU796  ALA797  LYS798  CYS799  TRP800  GLU811  SER814 

> <Gold.Protein.RotatedAtoms>
  151.9637  133.3703  159.4044 H   0  0  0  0  0  0  0  0  0  0  0  0  # atno 6907 bound_to 6896
  150.6960  134.4213  159.5215 H   0  0  0  0  0  0  0  0  0  0  0  0  # atno 6908 bound_to 6896
  152.1906  134.8675  160.0568 H   0  0  0  0  0  0  0  0  0  0  0  0  # atno 6909 bound_to 6896
  145.2528  140.9244  143.3085 H   0  0  0  0  0  0  0  0  0  0  0  0  # atno 7974 bound_to 7965
  155.8519  140.0964  157.1669 H   0  0  0  0  0  0  0  0  0  0  0  0  # atno 8008 bound_to 7997
  154.3986  140.1381  156.3916 H   0  0  0  0  0  0  0  0  0  0  0  0  # atno 8009 bound_to 7997
  155.7952  140.3454  155.5374 H   0  0  0  0  0  0  0  0  0  0  0  0  # atno 8010 bound_to 7997
  139.7396  144.7015  151.0595 H   0  0  0  0  0  0  0  0  0  0  0  0  # atno 10167 bound_to 10162
  157.4668  131.1077  150.9853 H   0  0  0  0  0  0  0  0  0  0  0  0  # atno 10718 bound_to 10713
  154.8047  135.4691  154.0362 H   0  0  0  0  0  0  0  0  0  0  0  0  # atno 10763 bound_to 10752
  153.1840  135.6845  153.8446 H   0  0  0  0  0  0  0  0  0  0  0  0  # atno 10764 bound_to 10752
  153.7987  135.3233  155.3365 H   0  0  0  0  0  0  0  0  0  0  0  0  # atno 10765 bound_to 10752
  141.1279  133.8381  157.1072 H   0  0  0  0  0  0  0  0  0  0  0  0  # atno 11005 bound_to 11000
  144.9487  139.4107  143.6413 LP  0  0  0  0  0  0  0  0  0  0  0  0  # atno 17320 bound_to 7965
  146.3297  139.8484  142.8877 LP  0  0  0  0  0  0  0  0  0  0  0  0  # atno 17321 bound_to 7965
  140.7784  143.4941  150.9856 LP  0  0  0  0  0  0  0  0  0  0  0  0  # atno 17342 bound_to 10162
  139.8629  143.7291  152.3172 LP  0  0  0  0  0  0  0  0  0  0  0  0  # atno 17343 bound_to 10162
  157.0631  130.5833  149.5389 LP  0  0  0  0  0  0  0  0  0  0  0  0  # atno 17370 bound_to 10713
  156.0054  130.5140  150.7811 LP  0  0  0  0  0  0  0  0  0  0  0  0  # atno 17371 bound_to 10713
  140.0297  134.9907  157.0756 LP  0  0  0  0  0  0  0  0  0  0  0  0  # atno 17394 bound_to 11000
  140.4305  134.1785  155.7168 LP  0  0  0  0  0  0  0  0  0  0  0  0  # atno 17395 bound_to 11000

$$$$
