AV-unprocessed.smi:1838|AV-procd|sdf|7482|dock2
  -GOLD-   22720 9183D 1   1.00000     0.00000
 Structure written by MMmdl.
 35 36  0  0  0  0  0  0  0  0  1 V2000
  151.5936  138.4333  154.5154 C   0  0  0  0  0  0  0  0  0  0  0  0
  150.2877  138.2065  153.9965 O   0  0  0  0  0  0  0  0  0  0  0  0
  149.3501  139.2160  154.1047 C   0  0  0  0  0  0  0  0  0  0  0  0
  149.7671  140.4436  154.5051 N   0  0  0  0  0  0  0  0  0  0  0  0
  148.8544  141.4315  154.6061 C   0  0  0  0  0  0  0  0  0  0  0  0
  147.4907  141.2536  154.3096 C   0  0  0  0  0  0  0  0  0  0  0  0
  147.0556  139.9814  153.8949 C   0  0  0  0  0  0  0  0  0  0  0  0
  147.9990  138.9297  153.7987 C   0  0  0  0  0  0  0  0  0  0  0  0
  147.6707  137.6135  153.3715 N   0  0  0  0  0  0  0  0  0  0  0  0
  146.4771  136.9974  153.3980 C   0  0  0  0  0  0  0  0  0  0  0  0
  145.4339  137.4834  153.8345 O   0  0  0  0  0  0  0  0  0  0  0  0
  146.5639  135.7552  152.9017 N   0  0  0  0  0  0  0  0  0  0  0  0
  145.4530  134.8147  152.7704 C   0  0  2  0  0  0  0  0  0  0  0  0
  145.9562  133.4246  152.3365 C   0  0  0  0  0  0  0  0  0  0  0  0
  144.7739  132.5094  152.0064 C   0  0  0  0  0  0  0  0  0  0  0  0
  143.9049  133.1317  150.9013 C   0  0  0  0  0  0  0  0  0  0  0  0
  143.6215  134.5510  151.1195 N   0  0  0  0  0  0  0  0  0  0  0  0
  144.3265  135.3934  151.8952 C   0  0  0  0  0  0  0  0  0  0  0  0
  144.0601  136.5934  151.9429 O   0  0  0  0  0  0  0  0  0  0  0  0
  152.2046  137.5453  154.3544 H   0  0  0  0  0  0  0  0  0  0  0  0
  151.5689  138.6269  155.5890 H   0  0  0  0  0  0  0  0  0  0  0  0
  152.0840  139.2678  154.0118 H   0  0  0  0  0  0  0  0  0  0  0  0
  149.2233  142.3945  154.9264 H   0  0  0  0  0  0  0  0  0  0  0  0
  146.7949  142.0754  154.3933 H   0  0  0  0  0  0  0  0  0  0  0  0
  146.0149  139.8436  153.6457 H   0  0  0  0  0  0  0  0  0  0  0  0
  148.4530  137.0531  153.0658 H   0  0  0  0  0  0  0  0  0  0  0  0
  147.4619  135.4397  152.5652 H   0  0  0  0  0  0  0  0  0  0  0  0
  144.9930  134.7003  153.7540 H   0  0  0  0  0  0  0  0  0  0  0  0
  146.6015  133.5158  151.4612 H   0  0  0  0  0  0  0  0  0  0  0  0
  146.5619  132.9775  153.1258 H   0  0  0  0  0  0  0  0  0  0  0  0
  145.1276  131.5251  151.6982 H   0  0  0  0  0  0  0  0  0  0  0  0
  144.1726  132.3568  152.9038 H   0  0  0  0  0  0  0  0  0  0  0  0
  144.4131  133.0397  149.9407 H   0  0  0  0  0  0  0  0  0  0  0  0
  142.9640  132.5882  150.8109 H   0  0  0  0  0  0  0  0  0  0  0  0
  142.8608  134.9439  150.5839 H   0  0  0  0  0  0  0  0  0  0  0  0
  1  2  1  0  0  0  0
  1 20  1  0  0  0  0
  1 21  1  0  0  0  0
  1 22  1  0  0  0  0
  2  3  1  0  0  0  0
  3  8  1  0  0  0  0
  3  4  2  0  0  0  0
  4  5  1  0  0  0  0
  5  6  2  0  0  0  0
  5 23  1  0  0  0  0
  6  7  1  0  0  0  0
  6 24  1  0  0  0  0
  7  8  2  0  0  0  0
  7 25  1  0  0  0  0
  8  9  1  0  0  0  0
  9 10  1  0  0  0  0
  9 26  1  0  0  0  0
 10 11  2  0  0  0  0
 10 12  1  0  0  0  0
 12 13  1  0  0  0  0
 12 27  1  0  0  0  0
 13 18  1  0  0  0  0
 13 14  1  0  0  0  0
 13 28  1  0  0  0  0
 14 15  1  0  0  0  0
 14 29  1  0  0  0  0
 14 30  1  0  0  0  0
 15 16  1  0  0  0  0
 15 31  1  0  0  0  0
 15 32  1  0  0  0  0
 16 17  1  0  0  0  0
 16 33  1  0  0  0  0
 16 34  1  0  0  0  0
 17 18  1  0  0  0  0
 17 35  1  0  0  0  0
 18 19  2  0  0  0  0
M  END
> <s_m_source_file>
AV-unprocessed.smi

> <i_m_source_file_index>
1838

> <i_lp_mmshare_version>
43012

> <i_f3d_flags>
0

> <s_epik_input>
W0NIM11PYzFuW2NIXVtjSF1bY0hdYzFbTkhdQyg9TylbTkhdW0NAQEhdMltDSDJdW0NIMl1bQ0gyXVtOSF1DMj1P

> <s_epik_cmdline>
J2VwaWtfcHl0aG9uJywgJy1waCcsICc3LjAnLCAnLXRuJywgJzgnLCAnLW1hJywgJzIwMCcsICctbWV0YWxfYmluZGluZycsICctaW1hZScsICc8aW5maWxlLm1hZT4nLCAnLW9tYWUnLCAnPG91dGZpbGUubWFlPic=

> <r_lp_tautomer_probability>
1

> <r_epik_Ionization_Penalty>
8.30645e-05

> <r_epik_Ionization_Penalty_Charging>
0

> <r_epik_Ionization_Penalty_Neutral>
8.30645e-05

> <r_epik_State_Penalty>
-0

> <r_epik_Charging_Adjusted_Penalty>
0

> <i_epik_Tot_Q>
0

> <i_epik_Tot_abs_Q>
0

> <r_epik_Metal_State_Penalty>
-0

> <b_epik_Metal_Only>
0

> <s_lp_Force_Field>
OPLS_2005

> <r_lp_Energy>
11.8898

> <b_lp_Chiralities_Consistent>
1

> <s_lp_Variant>
AV-unprocessed.smi:1838-1

> <Gold.Version>
5.8.1

> <Gold.Id.Protein>
6NUR|6NUR_protein|mol2

> <Gold.PLP.Fitness>
36.8783

> <Gold.PLP.PLP>
-26.1982

> <Gold.PLP.part.hbond>
-3.6193

> <Gold.PLP.part.metal>
0.0000

> <Gold.PLP.part.buried>
-4.1669

> <Gold.PLP.part.nonpolar>
-20.8272

> <Gold.PLP.part.repulsive>
1.9394

> <Gold.PLP.ligand.clash>
0.0000

> <Gold.PLP.ligand.torsion>
0.2348

> <Gold.PLP.Chemscore.Hbond>
2.7019

> <Gold.PLP.Chemscore.CHOScore>
1.0000

> <Gold.PLP.Chemscore.Metal>
0.0000

> <Gold.Chemscore.Hbonds>
donor molecule, donor type, donor heavy atom, donor atom, acceptor molecule, acceptor atom, score
      L1  H     9    26       P1  7948  0.85
      L1  H    12    27       P1  7948  0.74
      L1  H    17    35       P1 10186  0.43
      P1  H  7989  7998       L1     4  0.58
      L1  C     5    23       P1  8028  1.00

> <Gold.PLP.Chemscore.Internal.Correction>
0.0439

> <Gold.Rescore>
     Score         DG    S(hbond)    S(metal)    S(lipo)     H(rot)  DE(clash)    DE(int)     intcor
      9.69     -15.11       2.09        0.00      51.85       1.33       1.15       4.27       ----

> <Gold.Chemscore.Fitness>
9.6911

> <Gold.Chemscore.DG>
-15.1076

> <Gold.Chemscore.ZeroCoef>
-5.4800

> <Gold.Chemscore.Hbond>
2.0851

> <Gold.Chemscore.Metal>
0.0000

> <Gold.Chemscore.Lipo>
51.8466

> <Gold.Chemscore.Internal_Hbond>
0.0000

> <Gold.Chemscore.DEClash>
1.1465

> <Gold.Chemscore.DEInternal>
4.2700

> <Gold.Chemscore.Rot>
1.3292

> <Gold.Chemscore.Internal.Correction>
   9.000000E+99

> <Gold.Chemscore.Hbonds>
donor molecule, donor type, donor heavy atom, donor atom, acceptor molecule, acceptor atom, score
      L1  H     9    26       P1  7948  0.78
      L1  H    12    27       P1  7948  0.74
      L1  H    17    35       P1 10186  0.05
      P1  H  7989  7998       L1     4  0.36

> <Gold.Chemscore.Hbond.Weighted>
-6.9642

> <Gold.Chemscore.Metal.Weighted>
-0.0000

> <Gold.Chemscore.Lipo.Weighted>
-6.0660

> <Gold.Chemscore.Internal_Hbond.Weighted>
0.0000

> <Gold.Chemscore.DEClash.Weighted>
1.1465

> <Gold.Chemscore.DEInternal.Weighted>
4.2700

> <Gold.Chemscore.Rot.Weighted>
3.4027

> <Gold.Chemscore.Internal.Correction.Weighted>
   9.000000E+99

> <Gold.Protein.RotatedTorsions>
[ 6907 6896 6895 6894 ] final -162.59 input  -60.11 | X-H torsion
[ 7974 7965 7964 7962 ] final   51.61 input  175.53 | X-H torsion
[ 8008 7997 7996 7995 ] final  144.68 input   59.86 | X-H torsion
[ 10167 10162 10161 10158 ] final   95.60 input  -65.29 | X-H torsion
[ 10718 10713 10712 10709 ] final -136.61 input   66.30 | X-H torsion
[ 10763 10752 10751 10750 ] final -142.92 input  -60.55 | X-H torsion
[ 11005 11000 10999 10996 ] final  -29.64 input  -57.11 | X-H torsion

> <Gold.Protein.ActiveResidues>
 VAL166  LYS551  ARG553  GLY616  TRP617  ASP618  TYR619  PRO620  LYS621  CYS622 
 ASP623  PHE694  ASN695  SER759  ASP760  ASP761  ALA762  ILE779  LEU786  VAL792 
 PHE793  MET794  SER795  GLU796  ALA797  LYS798  CYS799  TRP800  GLU811  SER814 

> <Gold.Protein.RotatedAtoms>
  151.3827  133.3816  159.2711 H   0  0  0  0  0  0  0  0  0  0  0  0  # atno 6907 bound_to 6896
  150.9565  134.8960  159.7715 H   0  0  0  0  0  0  0  0  0  0  0  0  # atno 6908 bound_to 6896
  152.5133  134.3784  159.9395 H   0  0  0  0  0  0  0  0  0  0  0  0  # atno 6909 bound_to 6896
  145.9896  139.4325  143.0082 H   0  0  0  0  0  0  0  0  0  0  0  0  # atno 7974 bound_to 7965
  156.2902  140.2229  156.5092 H   0  0  0  0  0  0  0  0  0  0  0  0  # atno 8008 bound_to 7997
  154.7623  140.0472  157.1005 H   0  0  0  0  0  0  0  0  0  0  0  0  # atno 8009 bound_to 7997
  154.9976  140.3097  155.4884 H   0  0  0  0  0  0  0  0  0  0  0  0  # atno 8010 bound_to 7997
  139.7973  144.6828  150.9811 H   0  0  0  0  0  0  0  0  0  0  0  0  # atno 10167 bound_to 10162
  156.2789  130.7309  151.1300 H   0  0  0  0  0  0  0  0  0  0  0  0  # atno 10718 bound_to 10713
  154.8490  135.3482  154.6104 H   0  0  0  0  0  0  0  0  0  0  0  0  # atno 10763 bound_to 10752
  153.6713  135.6985  153.5151 H   0  0  0  0  0  0  0  0  0  0  0  0  # atno 10764 bound_to 10752
  153.2740  135.4284  155.0972 H   0  0  0  0  0  0  0  0  0  0  0  0  # atno 10765 bound_to 10752
  140.9314  133.7336  156.0941 H   0  0  0  0  0  0  0  0  0  0  0  0  # atno 11005 bound_to 11000
  145.7650  140.9920  143.1180 LP  0  0  0  0  0  0  0  0  0  0  0  0  # atno 17320 bound_to 7965
  144.6885  139.9377  143.7474 LP  0  0  0  0  0  0  0  0  0  0  0  0  # atno 17321 bound_to 7965
  140.7820  143.4318  151.0683 LP  0  0  0  0  0  0  0  0  0  0  0  0  # atno 17342 bound_to 10162
  139.7991  143.8109  152.3161 LP  0  0  0  0  0  0  0  0  0  0  0  0  # atno 17343 bound_to 10162
  157.7308  131.0613  150.5708 LP  0  0  0  0  0  0  0  0  0  0  0  0  # atno 17370 bound_to 10713
  156.5812  130.4305  149.5976 LP  0  0  0  0  0  0  0  0  0  0  0  0  # atno 17371 bound_to 10713
  140.7857  134.3674  157.5477 LP  0  0  0  0  0  0  0  0  0  0  0  0  # atno 17394 bound_to 11000
  139.8797  134.9109  156.3026 LP  0  0  0  0  0  0  0  0  0  0  0  0  # atno 17395 bound_to 11000

$$$$
