AV-unprocessed.smi:795|AV-procd|sdf|3764|dock9
  -GOLD-   22720 1193D 1   1.00000     0.00000
 Structure written by MMmdl.
 49 52  0  0  0  0  0  0  0  0  1 V2000
  147.9558  140.6731  157.7723 C   0  0  0  0  0  0  0  0  0  0  0  0
  148.8086  139.6656  157.0495 C   0  0  0  0  0  0  0  0  0  0  0  0
  148.3759  138.4481  157.0293 N   0  0  0  0  0  0  0  0  0  0  0  0
  149.0819  137.4422  156.3977 N   0  0  0  0  0  0  0  0  0  0  0  0
  148.4527  136.1196  156.5145 C   0  0  0  0  0  0  0  0  0  0  0  0
  148.6004  135.5318  157.9238 C   0  0  0  0  0  0  0  0  0  0  0  0
  149.1899  134.4653  158.1000 O   0  0  0  0  0  0  0  0  0  0  0  0
  148.0463  136.2394  158.9195 N   0  0  0  0  0  0  0  0  0  0  0  0
  148.0985  135.8961  160.3393 C   0  0  2  0  0  0  0  0  0  0  0  0
  147.4764  134.5001  160.5929 C   0  0  2  0  0  0  0  0  0  0  0  0
  145.9597  134.5124  160.2838 C   0  0  0  0  0  0  0  0  0  0  0  0
  145.2591  135.5514  161.1856 C   0  0  1  0  0  0  0  0  0  0  0  0
  145.4729  135.1734  162.6673 C   0  0  0  0  0  0  0  0  0  0  0  0
  146.9853  135.1572  162.9780 C   0  0  1  0  0  0  0  0  0  0  0  0
  147.6867  134.1176  162.0751 C   0  0  0  0  0  0  0  0  0  0  0  0
  147.5782  136.5594  162.7150 C   0  0  0  0  0  0  0  0  0  0  0  0
  147.3670  136.9360  161.2316 C   0  0  2  0  0  0  0  0  0  0  0  0
  145.8518  136.9521  160.9209 C   0  0  0  0  0  0  0  0  0  0  0  0
  150.2652  137.6192  155.7417 C   0  0  0  0  0  0  0  0  0  0  0  0
  150.8625  136.6946  155.1891 O   0  0  0  0  0  0  0  0  0  0  0  0
  150.7488  139.0017  155.7668 C   0  0  0  0  0  0  0  0  0  0  0  0
  151.9866  139.2303  155.0937 C   0  0  0  0  0  0  0  0  0  0  0  0
  153.0006  139.4171  154.5674 N   0  0  0  0  0  0  0  0  0  0  0  0
  150.0676  139.9957  156.3900 C   0  0  0  0  0  0  0  0  0  0  0  0
  150.5278  141.4459  156.4476 C   0  0  0  0  0  0  0  0  0  0  0  0
  147.6493  141.4752  157.1004 H   0  0  0  0  0  0  0  0  0  0  0  0
  148.5033  141.1173  158.6038 H   0  0  0  0  0  0  0  0  0  0  0  0
  147.0498  140.2216  158.1799 H   0  0  0  0  0  0  0  0  0  0  0  0
  147.3945  136.1962  156.2559 H   0  0  0  0  0  0  0  0  0  0  0  0
  148.8732  135.4143  155.7960 H   0  0  0  0  0  0  0  0  0  0  0  0
  147.5734  137.0988  158.6801 H   0  0  0  0  0  0  0  0  0  0  0  0
  149.1523  135.8611  160.6229 H   0  0  0  0  0  0  0  0  0  0  0  0
  147.9692  133.7599  159.9611 H   0  0  0  0  0  0  0  0  0  0  0  0
  145.7812  134.7427  159.2329 H   0  0  0  0  0  0  0  0  0  0  0  0
  145.5347  133.5222  160.4528 H   0  0  0  0  0  0  0  0  0  0  0  0
  144.1914  135.5621  160.9646 H   0  0  0  0  0  0  0  0  0  0  0  0
  144.9620  135.8861  163.3159 H   0  0  0  0  0  0  0  0  0  0  0  0
  145.0334  134.1972  162.8756 H   0  0  0  0  0  0  0  0  0  0  0  0
  147.1376  134.8900  164.0241 H   0  0  0  0  0  0  0  0  0  0  0  0
  147.2882  133.1207  162.2679 H   0  0  0  0  0  0  0  0  0  0  0  0
  148.7514  134.0726  162.3071 H   0  0  0  0  0  0  0  0  0  0  0  0
  147.1037  137.2975  163.3629 H   0  0  0  0  0  0  0  0  0  0  0  0
  148.6406  136.5732  162.9611 H   0  0  0  0  0  0  0  0  0  0  0  0
  147.7795  137.9311  161.0628 H   0  0  0  0  0  0  0  0  0  0  0  0
  145.6745  137.2511  159.8873 H   0  0  0  0  0  0  0  0  0  0  0  0
  145.3501  137.6953  161.5417 H   0  0  0  0  0  0  0  0  0  0  0  0
  151.4949  141.5912  155.9674 H   0  0  0  0  0  0  0  0  0  0  0  0
  150.6256  141.7769  157.4820 H   0  0  0  0  0  0  0  0  0  0  0  0
  149.8098  142.0947  155.9448 H   0  0  0  0  0  0  0  0  0  0  0  0
  1  2  1  0  0  0  0
  1 26  1  0  0  0  0
  1 27  1  0  0  0  0
  1 28  1  0  0  0  0
  2 24  1  0  0  0  0
  2  3  2  0  0  0  0
  3  4  1  0  0  0  0
  4  5  1  0  0  0  0
  4 19  1  0  0  0  0
  5  6  1  0  0  0  0
  5 29  1  0  0  0  0
  5 30  1  0  0  0  0
  6  7  2  0  0  0  0
  6  8  1  0  0  0  0
  8  9  1  0  0  0  0
  8 31  1  0  0  0  0
  9 17  1  0  0  0  0
  9 10  1  0  0  0  0
  9 32  1  0  0  0  0
 10 15  1  0  0  0  0
 10 11  1  0  0  0  0
 10 33  1  0  0  0  0
 11 12  1  0  0  0  0
 11 34  1  0  0  0  0
 11 35  1  0  0  0  0
 12 18  1  0  0  0  0
 12 13  1  0  0  0  0
 12 36  1  0  0  0  0
 13 14  1  0  0  0  0
 13 37  1  0  0  0  0
 13 38  1  0  0  0  0
 14 15  1  0  0  0  0
 14 16  1  0  0  0  0
 14 39  1  0  0  0  0
 15 40  1  0  0  0  0
 15 41  1  0  0  0  0
 16 17  1  0  0  0  0
 16 42  1  0  0  0  0
 16 43  1  0  0  0  0
 17 18  1  0  0  0  0
 17 44  1  0  0  0  0
 18 45  1  0  0  0  0
 18 46  1  0  0  0  0
 19 20  2  0  0  0  0
 19 21  1  0  0  0  0
 21 22  1  0  0  0  0
 21 24  2  0  0  0  0
 22 23  3  0  0  0  0
 24 25  1  0  0  0  0
 25 47  1  0  0  0  0
 25 48  1  0  0  0  0
 25 49  1  0  0  0  0
M  END
> <s_m_source_file>
AV-unprocessed.smi

> <i_m_source_file_index>
795

> <i_lp_mmshare_version>
43012

> <i_f3d_flags>
0

> <s_epik_input>
TiNDYyhjMVtDSDNdKWMoPU8pbihuYzFbQ0gzXSlbQ0gyXUMoPU8pW05IXVtDQEhdKFtDQEhdMjMpW0NAQEhdNFtDSDJdW0NASF0oW0NIMl0zKVtDSDJdW0NASF0oW0NIMl0yKVtDSDJdNA==

> <s_epik_cmdline>
J2VwaWtfcHl0aG9uJywgJy1waCcsICc3LjAnLCAnLXRuJywgJzgnLCAnLW1hJywgJzIwMCcsICctbWV0YWxfYmluZGluZycsICctaW1hZScsICc8aW5maWxlLm1hZT4nLCAnLW9tYWUnLCAnPG91dGZpbGUubWFlPic=

> <r_lp_tautomer_probability>
1

> <r_epik_Ionization_Penalty>
2.02301e-08

> <r_epik_Ionization_Penalty_Charging>
2.3673e-11

> <r_epik_Ionization_Penalty_Neutral>
2.02064e-08

> <r_epik_State_Penalty>
-0

> <r_epik_Charging_Adjusted_Penalty>
2.3673e-11

> <i_epik_Tot_Q>
0

> <i_epik_Tot_abs_Q>
0

> <r_epik_Metal_State_Penalty>
-0

> <b_epik_Metal_Only>
0

> <s_lp_Force_Field>
OPLS_2005

> <r_lp_Energy>
43.8057

> <b_lp_Chiralities_Consistent>
1

> <s_lp_Variant>
AV-unprocessed.smi:795-1

> <Gold.Version>
5.8.1

> <Gold.Id.Protein>
6NUR|6NUR_protein|mol2

> <Gold.PLP.Fitness>
45.2306

> <Gold.PLP.PLP>
-36.7294

> <Gold.PLP.part.hbond>
-3.0000

> <Gold.PLP.part.metal>
0.0000

> <Gold.PLP.part.buried>
-5.9928

> <Gold.PLP.part.nonpolar>
-28.1932

> <Gold.PLP.part.repulsive>
0.2044

> <Gold.PLP.ligand.clash>
0.0000

> <Gold.PLP.ligand.torsion>
0.1674

> <Gold.PLP.Chemscore.Hbond>
2.9440

> <Gold.PLP.Chemscore.CHOScore>
0.0000

> <Gold.PLP.Chemscore.Metal>
0.0000

> <Gold.Chemscore.Hbonds>
donor molecule, donor type, donor heavy atom, donor atom, acceptor molecule, acceptor atom, score
      P1  H  6896  6908       L1     7  0.69
      P1  H  7997  8010       L1    23  0.81

> <Gold.PLP.Chemscore.Internal.Correction>
0.0039

> <Gold.Rescore>
     Score         DG    S(hbond)    S(metal)    S(lipo)     H(rot)  DE(clash)    DE(int)     intcor
     21.06     -21.19       2.92        0.00      82.50       1.44       0.00       0.13       ----

> <Gold.Chemscore.Fitness>
21.0573

> <Gold.Chemscore.DG>
-21.1874

> <Gold.Chemscore.ZeroCoef>
-5.4800

> <Gold.Chemscore.Hbond>
2.9199

> <Gold.Chemscore.Metal>
0.0000

> <Gold.Chemscore.Lipo>
82.4972

> <Gold.Chemscore.Internal_Hbond>
0.0000

> <Gold.Chemscore.DEClash>
0.0000

> <Gold.Chemscore.DEInternal>
0.1301

> <Gold.Chemscore.Rot>
1.4442

> <Gold.Chemscore.Internal.Correction>
   9.000000E+99

> <Gold.Chemscore.Hbonds>
donor molecule, donor type, donor heavy atom, donor atom, acceptor molecule, acceptor atom, score
      P1  H  6896  6908       L1     7  0.68
      P1  H  7997  8010       L1    23  0.71
      P1  H 10752 10764       L1    20  0.06

> <Gold.Chemscore.Hbond.Weighted>
-9.7523

> <Gold.Chemscore.Metal.Weighted>
-0.0000

> <Gold.Chemscore.Lipo.Weighted>
-9.6522

> <Gold.Chemscore.Internal_Hbond.Weighted>
0.0000

> <Gold.Chemscore.DEClash.Weighted>
0.0000

> <Gold.Chemscore.DEInternal.Weighted>
0.1301

> <Gold.Chemscore.Rot.Weighted>
3.6971

> <Gold.Chemscore.Internal.Correction.Weighted>
   9.000000E+99

> <Gold.Protein.RotatedTorsions>
[ 6907 6896 6895 6894 ] final  117.60 input  -60.11 | X-H torsion
[ 7974 7965 7964 7962 ] final  121.19 input  175.53 | X-H torsion
[ 8008 7997 7996 7995 ] final  106.63 input   59.86 | X-H torsion
[ 10167 10162 10161 10158 ] final   53.66 input  -65.29 | X-H torsion
[ 10718 10713 10712 10709 ] final   96.88 input   66.30 | X-H torsion
[ 10763 10752 10751 10750 ] final  -49.68 input  -60.55 | X-H torsion
[ 11005 11000 10999 10996 ] final -134.16 input  -57.11 | X-H torsion

> <Gold.Protein.ActiveResidues>
 VAL166  LYS551  ARG553  GLY616  TRP617  ASP618  TYR619  PRO620  LYS621  CYS622 
 ASP623  PHE694  ASN695  SER759  ASP760  ASP761  ALA762  ILE779  LEU786  VAL792 
 PHE793  MET794  SER795  GLU796  ALA797  LYS798  CYS799  TRP800  GLU811  SER814 

> <Gold.Protein.RotatedAtoms>
  152.4601  133.7804  159.6847 H   0  0  0  0  0  0  0  0  0  0  0  0  # atno 6907 bound_to 6896
  150.8542  133.7731  159.3021 H   0  0  0  0  0  0  0  0  0  0  0  0  # atno 6908 bound_to 6896
  151.5317  135.1071  159.9956 H   0  0  0  0  0  0  0  0  0  0  0  0  # atno 6909 bound_to 6896
  145.1223  139.3381  143.4708 H   0  0  0  0  0  0  0  0  0  0  0  0  # atno 7974 bound_to 7965
  156.1758  140.3109  155.9057 H   0  0  0  0  0  0  0  0  0  0  0  0  # atno 8008 bound_to 7997
  155.3490  140.0470  157.3063 H   0  0  0  0  0  0  0  0  0  0  0  0  # atno 8009 bound_to 7997
  154.5289  140.2224  155.8850 H   0  0  0  0  0  0  0  0  0  0  0  0  # atno 8010 bound_to 7997
  140.2384  144.3610  150.6389 H   0  0  0  0  0  0  0  0  0  0  0  0  # atno 10167 bound_to 10162
  157.6921  131.0592  150.4558 H   0  0  0  0  0  0  0  0  0  0  0  0  # atno 10718 bound_to 10713
  154.0981  135.6567  153.4863 H   0  0  0  0  0  0  0  0  0  0  0  0  # atno 10763 bound_to 10752
  153.0298  135.5218  154.7314 H   0  0  0  0  0  0  0  0  0  0  0  0  # atno 10764 bound_to 10752
  154.6457  135.2994  155.0017 H   0  0  0  0  0  0  0  0  0  0  0  0  # atno 10765 bound_to 10752
  140.9016  134.1684  157.4456 H   0  0  0  0  0  0  0  0  0  0  0  0  # atno 11005 bound_to 11000
  146.3520  140.1187  142.8601 LP  0  0  0  0  0  0  0  0  0  0  0  0  # atno 17320 bound_to 7965
  145.0727  140.9166  143.4872 LP  0  0  0  0  0  0  0  0  0  0  0  0  # atno 17321 bound_to 7965
  140.6132  143.2170  151.6844 LP  0  0  0  0  0  0  0  0  0  0  0  0  # atno 17342 bound_to 10162
  139.5085  144.3607  152.0565 LP  0  0  0  0  0  0  0  0  0  0  0  0  # atno 17343 bound_to 10162
  156.4906  130.4094  149.6409 LP  0  0  0  0  0  0  0  0  0  0  0  0  # atno 17370 bound_to 10713
  156.3421  130.7387  151.2334 LP  0  0  0  0  0  0  0  0  0  0  0  0  # atno 17371 bound_to 10713
  139.8743  134.9900  156.5483 LP  0  0  0  0  0  0  0  0  0  0  0  0  # atno 17394 bound_to 11000
  140.8223  133.8344  155.8907 LP  0  0  0  0  0  0  0  0  0  0  0  0  # atno 17395 bound_to 11000

$$$$
