AV-unprocessed.smi:129|AV-procd|sdf|1157|dock4
  -GOLD-   2262018293D 1   1.00000     0.00000
 Structure written by MMmdl.
 58 61  0  0  0  0  0  0  0  0  1 V2000
  150.9786  141.0652  157.6041 C   0  0  0  0  0  0  0  0  0  0  0  0
  151.9106  141.5189  158.5748 O   0  0  0  0  0  0  0  0  0  0  0  0
  151.8246  142.8283  159.0052 C   0  0  0  0  0  0  0  0  0  0  0  0
  151.0036  143.8030  158.3819 C   0  0  0  0  0  0  0  0  0  0  0  0
  150.9567  145.1207  158.8727 C   0  0  0  0  0  0  0  0  0  0  0  0
  151.7212  145.4810  159.9952 C   0  0  0  0  0  0  0  0  0  0  0  0
  152.5394  144.5253  160.6233 C   0  0  0  0  0  0  0  0  0  0  0  0
  152.6079  143.2017  160.1242 C   0  0  0  0  0  0  0  0  0  0  0  0
  153.4068  142.1940  160.7336 N   0  0  0  0  0  0  0  0  0  0  0  0
  154.0535  142.2326  161.9145 C   0  0  0  0  0  0  0  0  0  0  0  0
  154.0044  143.1678  162.7137 O   0  0  0  0  0  0  0  0  0  0  0  0
  154.8383  140.9954  162.2489 C   0  0  0  0  0  0  0  0  0  0  0  0
  154.6496  139.8173  161.4939 C   0  0  0  0  0  0  0  0  0  0  0  0
  155.3543  138.6418  161.8149 C   0  0  0  0  0  0  0  0  0  0  0  0
  156.2603  138.6207  162.8942 C   0  0  0  0  0  0  0  0  0  0  0  0
  156.9102  137.3871  163.1703 N   0  0  0  0  0  0  0  0  0  0  0  0
  157.6041  137.0217  164.2635 C   0  0  0  0  0  0  0  0  0  0  0  0
  157.8297  137.7565  165.2260 O   0  0  0  0  0  0  0  0  0  0  0  0
  158.1487  135.5844  164.2326 C   0  0  0  0  0  0  0  0  0  0  0  0
  157.3851  134.6405  165.0781 N   0  0  0  0  0  0  0  0  0  0  0  0
  158.0603  133.9672  166.1263 C   0  0  0  0  0  0  0  0  0  0  0  0
  159.2600  134.1519  166.3357 O   0  0  0  0  0  0  0  0  0  0  0  0
  157.2407  133.0620  166.9236 C   0  0  0  0  0  0  0  0  0  0  0  0
  157.8015  132.3682  167.9286 F   0  0  0  0  0  0  0  0  0  0  0  0
  155.9253  132.9070  166.6680 C   0  0  0  0  0  0  0  0  0  0  0  0
  155.2742  133.5866  165.6538 N   0  0  0  0  0  0  0  0  0  0  0  0
  153.7944  133.4085  165.3848 C   0  0  2  0  0  0  0  0  0  0  0  0
  153.1625  132.4682  166.4292 C   0  0  0  0  0  0  0  0  0  0  0  0
  152.4513  131.4409  165.5706 C   0  0  0  0  0  0  0  0  0  0  0  0
  153.3052  131.4351  164.3119 C   0  0  0  0  0  0  0  0  0  0  0  0
  153.6062  132.8127  164.1326 O   0  0  0  0  0  0  0  0  0  0  0  0
  156.0026  134.4700  164.8278 C   0  0  0  0  0  0  0  0  0  0  0  0
  155.4421  135.0822  163.9159 O   0  0  0  0  0  0  0  0  0  0  0  0
  156.4362  139.7932  163.6674 C   0  0  0  0  0  0  0  0  0  0  0  0
  155.7312  140.9695  163.3452 C   0  0  0  0  0  0  0  0  0  0  0  0
  151.1790  140.0185  157.3759 H   0  0  0  0  0  0  0  0  0  0  0  0
  151.0662  141.6277  156.6737 H   0  0  0  0  0  0  0  0  0  0  0  0
  149.9541  141.1310  157.9726 H   0  0  0  0  0  0  0  0  0  0  0  0
  150.3956  143.5652  157.5225 H   0  0  0  0  0  0  0  0  0  0  0  0
  150.3270  145.8542  158.3912 H   0  0  0  0  0  0  0  0  0  0  0  0
  151.6761  146.4895  160.3793 H   0  0  0  0  0  0  0  0  0  0  0  0
  153.0959  144.8269  161.4972 H   0  0  0  0  0  0  0  0  0  0  0  0
  153.5911  141.3848  160.1585 H   0  0  0  0  0  0  0  0  0  0  0  0
  153.9609  139.8059  160.6612 H   0  0  0  0  0  0  0  0  0  0  0  0
  155.1940  137.7514  161.2243 H   0  0  0  0  0  0  0  0  0  0  0  0
  156.8883  136.7122  162.4197 H   0  0  0  0  0  0  0  0  0  0  0  0
  158.1693  135.2450  163.1957 H   0  0  0  0  0  0  0  0  0  0  0  0
  159.2004  135.6071  164.5223 H   0  0  0  0  0  0  0  0  0  0  0  0
  155.3782  132.2188  167.2937 H   0  0  0  0  0  0  0  0  0  0  0  0
  153.3729  134.4152  165.3756 H   0  0  0  0  0  0  0  0  0  0  0  0
  153.9394  131.9913  167.0292 H   0  0  0  0  0  0  0  0  0  0  0  0
  152.4895  133.0147  167.0904 H   0  0  0  0  0  0  0  0  0  0  0  0
  152.3825  130.4617  166.0447 H   0  0  0  0  0  0  0  0  0  0  0  0
  151.4420  131.7809  165.3352 H   0  0  0  0  0  0  0  0  0  0  0  0
  154.2217  130.8644  164.4672 H   0  0  0  0  0  0  0  0  0  0  0  0
  152.7837  131.0217  163.4485 H   0  0  0  0  0  0  0  0  0  0  0  0
  157.0902  139.8108  164.5252 H   0  0  0  0  0  0  0  0  0  0  0  0
  155.8756  141.8462  163.9600 H   0  0  0  0  0  0  0  0  0  0  0  0
  1  2  1  0  0  0  0
  1 36  1  0  0  0  0
  1 37  1  0  0  0  0
  1 38  1  0  0  0  0
  2  3  1  0  0  0  0
  3  8  1  0  0  0  0
  3  4  2  0  0  0  0
  4  5  1  0  0  0  0
  4 39  1  0  0  0  0
  5  6  2  0  0  0  0
  5 40  1  0  0  0  0
  6  7  1  0  0  0  0
  6 41  1  0  0  0  0
  7  8  2  0  0  0  0
  7 42  1  0  0  0  0
  8  9  1  0  0  0  0
  9 10  1  0  0  0  0
  9 43  1  0  0  0  0
 10 11  2  0  0  0  0
 10 12  1  0  0  0  0
 12 35  1  0  0  0  0
 12 13  2  0  0  0  0
 13 14  1  0  0  0  0
 13 44  1  0  0  0  0
 14 15  2  0  0  0  0
 14 45  1  0  0  0  0
 15 16  1  0  0  0  0
 15 34  1  0  0  0  0
 16 17  1  0  0  0  0
 16 46  1  0  0  0  0
 17 18  2  0  0  0  0
 17 19  1  0  0  0  0
 19 20  1  0  0  0  0
 19 47  1  0  0  0  0
 19 48  1  0  0  0  0
 20 32  1  0  0  0  0
 20 21  1  0  0  0  0
 21 22  2  0  0  0  0
 21 23  1  0  0  0  0
 23 24  1  0  0  0  0
 23 25  2  0  0  0  0
 25 26  1  0  0  0  0
 25 49  1  0  0  0  0
 26 27  1  0  0  0  0
 26 32  1  0  0  0  0
 27 31  1  0  0  0  0
 27 28  1  0  0  0  0
 27 50  1  0  0  0  0
 28 29  1  0  0  0  0
 28 51  1  0  0  0  0
 28 52  1  0  0  0  0
 29 30  1  0  0  0  0
 29 53  1  0  0  0  0
 29 54  1  0  0  0  0
 30 31  1  0  0  0  0
 30 55  1  0  0  0  0
 30 56  1  0  0  0  0
 32 33  2  0  0  0  0
 34 35  2  0  0  0  0
 34 57  1  0  0  0  0
 35 58  1  0  0  0  0
M  END
> <s_m_source_file>
AV-unprocessed.smi

> <i_m_source_file_index>
129

> <i_lp_mmshare_version>
43012

> <i_f3d_flags>
0

> <s_epik_input>
W0NIM11PYzFbY0hdW2NIXVtjSF1bY0hdYzFbTkhdQyg9TyljMltjSF1bY0hdYyhbY0hdW2NIXTIpW05IXUMoPU8pW0NIMl1uM2MoPU8pYyhGKVtjSF1uKGMzPU8pW0NAQEhdNFtDSDJdW0NIMl1bQ0gyXU80

> <s_epik_cmdline>
J2VwaWtfcHl0aG9uJywgJy1waCcsICc3LjAnLCAnLXRuJywgJzgnLCAnLW1hJywgJzIwMCcsICctbWV0YWxfYmluZGluZycsICctaW1hZScsICc8aW5maWxlLm1hZT4nLCAnLW9tYWUnLCAnPG91dGZpbGUubWFlPic=

> <r_lp_tautomer_probability>
1

> <r_epik_Ionization_Penalty>
2.57954e-06

> <r_epik_Ionization_Penalty_Charging>
3.88729e-08

> <r_epik_Ionization_Penalty_Neutral>
2.54066e-06

> <r_epik_State_Penalty>
-0

> <r_epik_Charging_Adjusted_Penalty>
3.88729e-08

> <i_epik_Tot_Q>
0

> <i_epik_Tot_abs_Q>
0

> <r_epik_Metal_State_Penalty>
-0

> <b_epik_Metal_Only>
0

> <s_epik_Chemistry_Notes>
This compound contains an acetal/aminal-like group ( X-CH(R)-Y where X, Y are N, S, or O) that may be acid/base labile, releasing an aldehyde.

> <s_lp_Force_Field>
OPLS_2005

> <r_lp_Energy>
50.6218

> <b_lp_Chiralities_Consistent>
1

> <s_lp_Variant>
AV-unprocessed.smi:129-1

> <Gold.Version>
5.8.1

> <Gold.Id.Protein>
6NUR|6NUR_protein|mol2

> <Gold.PLP.Fitness>
51.9236

> <Gold.PLP.PLP>
-52.7418

> <Gold.PLP.part.hbond>
0.0000

> <Gold.PLP.part.metal>
0.0000

> <Gold.PLP.part.buried>
-5.1102

> <Gold.PLP.part.nonpolar>
-46.3985

> <Gold.PLP.part.repulsive>
0.2256

> <Gold.PLP.ligand.clash>
0.0000

> <Gold.PLP.ligand.torsion>
0.4868

> <Gold.PLP.Chemscore.Hbond>
0.0000

> <Gold.PLP.Chemscore.CHOScore>
0.0000

> <Gold.PLP.Chemscore.Metal>
0.0000

> <Gold.PLP.Chemscore.Internal.Correction>
0.1555

> <Gold.Rescore>
     Score         DG    S(hbond)    S(metal)    S(lipo)     H(rot)  DE(clash)    DE(int)     intcor
     11.18     -18.00       0.00        0.00     149.56       1.94       0.15       6.67       ----

> <Gold.Chemscore.Fitness>
11.1823

> <Gold.Chemscore.DG>
-18.0049

> <Gold.Chemscore.ZeroCoef>
-5.4800

> <Gold.Chemscore.Hbond>
0.0000

> <Gold.Chemscore.Metal>
0.0000

> <Gold.Chemscore.Lipo>
149.5646

> <Gold.Chemscore.Internal_Hbond>
0.0000

> <Gold.Chemscore.DEClash>
0.1488

> <Gold.Chemscore.DEInternal>
6.6738

> <Gold.Chemscore.Rot>
1.9430

> <Gold.Chemscore.Internal.Correction>
   9.000000E+99

> <Gold.Chemscore.Hbond.Weighted>
-0.0000

> <Gold.Chemscore.Metal.Weighted>
-0.0000

> <Gold.Chemscore.Lipo.Weighted>
-17.4991

> <Gold.Chemscore.Internal_Hbond.Weighted>
0.0000

> <Gold.Chemscore.DEClash.Weighted>
0.1488

> <Gold.Chemscore.DEInternal.Weighted>
6.6738

> <Gold.Chemscore.Rot.Weighted>
4.9741

> <Gold.Chemscore.Internal.Correction.Weighted>
   9.000000E+99

> <Gold.Protein.RotatedTorsions>
[ 6907 6896 6895 6894 ] final  102.01 input  -60.11 | X-H torsion
[ 7974 7965 7964 7962 ] final   95.43 input  175.53 | X-H torsion
[ 8008 7997 7996 7995 ] final -145.37 input   59.86 | X-H torsion
[ 10167 10162 10161 10158 ] final  128.55 input  -65.29 | X-H torsion
[ 10718 10713 10712 10709 ] final -102.70 input   66.30 | X-H torsion
[ 10763 10752 10751 10750 ] final  153.20 input  -60.55 | X-H torsion
[ 11005 11000 10999 10996 ] final -165.90 input  -57.11 | X-H torsion

> <Gold.Protein.ActiveResidues>
 VAL166  LYS551  ARG553  GLY616  TRP617  ASP618  TYR619  PRO620  LYS621  CYS622 
 ASP623  PHE694  ASN695  SER759  ASP760  ASP761  ALA762  ILE779  LEU786  VAL792 
 PHE793  MET794  SER795  GLU796  ALA797  LYS798  CYS799  TRP800  GLU811  SER814 

> <Gold.Protein.RotatedAtoms>
  152.5335  134.0039  159.7907 H   0  0  0  0  0  0  0  0  0  0  0  0  # atno 6907 bound_to 6896
  151.0253  133.5831  159.2674 H   0  0  0  0  0  0  0  0  0  0  0  0  # atno 6908 bound_to 6896
  151.2856  135.0733  159.9239 H   0  0  0  0  0  0  0  0  0  0  0  0  # atno 6909 bound_to 6896
  145.4523  139.2292  143.3033 H   0  0  0  0  0  0  0  0  0  0  0  0  # atno 7974 bound_to 7965
  155.5421  140.0609  157.2868 H   0  0  0  0  0  0  0  0  0  0  0  0  # atno 8008 bound_to 7997
  154.4448  140.1917  156.0646 H   0  0  0  0  0  0  0  0  0  0  0  0  # atno 8009 bound_to 7997
  156.0577  140.3276  155.7428 H   0  0  0  0  0  0  0  0  0  0  0  0  # atno 8010 bound_to 7997
  139.5521  144.6821  151.4291 H   0  0  0  0  0  0  0  0  0  0  0  0  # atno 10167 bound_to 10162
  156.0238  130.5432  150.7146 H   0  0  0  0  0  0  0  0  0  0  0  0  # atno 10718 bound_to 10713
  154.1323  135.2826  155.3182 H   0  0  0  0  0  0  0  0  0  0  0  0  # atno 10763 bound_to 10752
  154.6347  135.5423  153.7723 H   0  0  0  0  0  0  0  0  0  0  0  0  # atno 10764 bound_to 10752
  153.0277  135.6471  154.1473 H   0  0  0  0  0  0  0  0  0  0  0  0  # atno 10765 bound_to 10752
  140.5706  134.5242  157.5161 H   0  0  0  0  0  0  0  0  0  0  0  0  # atno 11005 bound_to 11000
  146.2497  140.5284  142.8898 LP  0  0  0  0  0  0  0  0  0  0  0  0  # atno 17320 bound_to 7965
  144.8054  140.6289  143.6451 LP  0  0  0  0  0  0  0  0  0  0  0  0  # atno 17321 bound_to 7965
  140.6786  143.8133  150.7091 LP  0  0  0  0  0  0  0  0  0  0  0  0  # atno 17342 bound_to 10162
  140.1579  143.4301  152.2087 LP  0  0  0  0  0  0  0  0  0  0  0  0  # atno 17343 bound_to 10162
  157.4776  131.0899  151.0573 LP  0  0  0  0  0  0  0  0  0  0  0  0  # atno 17370 bound_to 10713
  157.1015  130.5984  149.5461 LP  0  0  0  0  0  0  0  0  0  0  0  0  # atno 17371 bound_to 10713
  139.9364  134.7868  156.0792 LP  0  0  0  0  0  0  0  0  0  0  0  0  # atno 17394 bound_to 11000
  141.1059  133.6660  156.2862 LP  0  0  0  0  0  0  0  0  0  0  0  0  # atno 17395 bound_to 11000

$$$$
