AV-unprocessed.smi:1406|AV-procd|sdf|5722|dock1
  -GOLD-   22720 5353D 1   1.00000     0.00000
 Structure written by MMmdl.
 41 43  0  0  0  0  0  0  0  0  2 V2000
  146.7587  138.9028  152.3370 C   0  0  0  0  0  0  0  0  0  0  0  0
  147.0948  138.6875  153.8265 C   0  0  1  0  0  0  0  0  0  0  0  0
  146.9499  137.2229  154.2702 C   0  0  0  0  0  0  0  0  0  0  0  0
  147.6008  136.7796  155.2171 O   0  0  0  0  0  0  0  0  0  0  0  0
  146.0601  136.4839  153.5887 N   0  0  0  0  0  0  0  0  0  0  0  0
  145.6794  135.1173  153.9306 C   0  0  2  0  0  0  0  0  0  0  0  0
  146.8564  134.1511  153.9636 C   0  0  0  0  0  0  0  0  0  0  0  0
  146.1799  132.7811  153.8491 C   0  0  0  0  0  0  0  0  0  0  0  0
  144.9024  132.9918  153.1244 N   0  3  2  0  0  0  0  0  0  0  0  0
  144.7562  132.1571  151.9018 C   0  0  0  0  0  0  0  0  0  0  0  0
  143.6302  132.6899  151.0033 C   0  0  0  0  0  0  0  0  0  0  0  0
  143.9274  134.1198  150.5136 C   0  0  0  0  0  0  0  0  0  0  0  0
  144.8986  134.8713  151.4433 C   0  0  0  0  0  0  0  0  0  0  0  0
  144.7149  134.4573  152.9253 C   0  0  2  0  0  0  0  0  0  0  0  0
  148.4264  139.1783  154.1624 N   0  0  0  0  0  0  0  0  0  0  0  0
  149.5977  138.9625  153.5602 C   0  0  0  0  0  0  0  0  0  0  0  0
  150.6116  139.6229  154.1011 N   0  0  0  0  0  0  0  0  0  0  0  0
  149.9508  140.2755  155.1026 C   0  0  0  0  0  0  0  0  0  0  0  0
  148.6385  140.0543  155.1764 N   0  0  0  0  0  0  0  0  0  0  0  0
  145.7395  138.5849  152.1137 H   0  0  0  0  0  0  0  0  0  0  0  0
  147.4299  138.3473  151.6806 H   0  0  0  0  0  0  0  0  0  0  0  0
  146.8362  139.9573  152.0705 H   0  0  0  0  0  0  0  0  0  0  0  0
  146.3798  139.2715  154.4084 H   0  0  0  0  0  0  0  0  0  0  0  0
  145.5722  136.9179  152.8184 H   0  0  0  0  0  0  0  0  0  0  0  0
  145.2172  135.1123  154.9202 H   0  0  0  0  0  0  0  0  0  0  0  0
  147.5061  134.3153  153.1025 H   0  0  0  0  0  0  0  0  0  0  0  0
  147.4616  134.2481  154.8656 H   0  0  0  0  0  0  0  0  0  0  0  0
  146.8322  132.0502  153.3692 H   0  0  0  0  0  0  0  0  0  0  0  0
  145.9412  132.3989  154.8422 H   0  0  0  0  0  0  0  0  0  0  0  0
  145.6904  132.1486  151.3372 H   0  0  0  0  0  0  0  0  0  0  0  0
  144.5568  131.1266  152.1976 H   0  0  0  0  0  0  0  0  0  0  0  0
  143.4756  132.0290  150.1498 H   0  0  0  0  0  0  0  0  0  0  0  0
  142.6953  132.6838  151.5656 H   0  0  0  0  0  0  0  0  0  0  0  0
  144.3505  134.0926  149.5088 H   0  0  0  0  0  0  0  0  0  0  0  0
  142.9887  134.6691  150.4318 H   0  0  0  0  0  0  0  0  0  0  0  0
  145.9250  134.6664  151.1357 H   0  0  0  0  0  0  0  0  0  0  0  0
  144.7519  135.9430  151.3096 H   0  0  0  0  0  0  0  0  0  0  0  0
  143.6910  134.7055  153.2086 H   0  0  0  0  0  0  0  0  0  0  0  0
  149.7093  138.3169  152.7014 H   0  0  0  0  0  0  0  0  0  0  0  0
  150.4496  140.9408  155.7919 H   0  0  0  0  0  0  0  0  0  0  0  0
  144.1684  132.7063  153.7572 H   0  0  0  0  0  0  0  0  0  0  0  0
  1  2  1  0  0  0  0
  1 20  1  0  0  0  0
  1 21  1  0  0  0  0
  1 22  1  0  0  0  0
  2  3  1  0  0  0  0
  2 15  1  0  0  0  0
  2 23  1  0  0  0  0
  3  4  2  0  0  0  0
  3  5  1  0  0  0  0
  5  6  1  0  0  0  0
  5 24  1  0  0  0  0
  6 14  1  0  0  0  0
  6  7  1  0  0  0  0
  6 25  1  0  0  0  0
  7  8  1  0  0  0  0
  7 26  1  0  0  0  0
  7 27  1  0  0  0  0
  8  9  1  0  0  0  0
  8 28  1  0  0  0  0
  8 29  1  0  0  0  0
  9 14  1  0  0  0  0
  9 10  1  0  0  0  0
  9 41  1  0  0  0  0
 10 11  1  0  0  0  0
 10 30  1  0  0  0  0
 10 31  1  0  0  0  0
 11 12  1  0  0  0  0
 11 32  1  0  0  0  0
 11 33  1  0  0  0  0
 12 13  1  0  0  0  0
 12 34  1  0  0  0  0
 12 35  1  0  0  0  0
 13 14  1  0  0  0  0
 13 36  1  0  0  0  0
 13 37  1  0  0  0  0
 14 38  1  0  0  0  0
 15 19  1  0  0  0  0
 15 16  1  0  0  0  0
 16 17  2  0  0  0  0
 16 39  1  0  0  0  0
 17 18  1  0  0  0  0
 18 19  2  0  0  0  0
 18 40  1  0  0  0  0
M  CHG  1   9   1
M  END
> <s_m_source_file>
AV-unprocessed.smi

> <i_m_source_file_index>
1406

> <i_lp_mmshare_version>
43012

> <i_f3d_flags>
0

> <s_epik_input>
bjFbY0hdbltjSF1uMVtDQEhdKFtDSDNdKUMoPU8pW05IXVtDQEhdKFtDSDJdW0NIMl0yKVtDQEBIXShOMjMpW0NIMl1bQ0gyXVtDSDJdW0NIMl0z

> <s_epik_cmdline>
J2VwaWtfcHl0aG9uJywgJy1waCcsICc3LjAnLCAnLXRuJywgJzgnLCAnLW1hJywgJzIwMCcsICctbWV0YWxfYmluZGluZycsICctaW1hZScsICc8aW5maWxlLm1hZT4nLCAnLW9tYWUnLCAnPG91dGZpbGUubWFlPic=

> <r_lp_tautomer_probability>
1

> <r_epik_Ionization_Penalty>
0.00197066

> <r_epik_Ionization_Penalty_Charging>
0.00196223

> <r_epik_Ionization_Penalty_Neutral>
8.43107e-06

> <r_epik_State_Penalty>
0.00133866

> <r_epik_Charging_Adjusted_Penalty>
0.00330089

> <i_epik_Tot_Q>
1

> <i_epik_Tot_abs_Q>
1

> <r_epik_Metal_State_Penalty>
-0

> <b_epik_Metal_Only>
0

> <s_lp_Force_Field>
OPLS_2005

> <r_lp_Energy>
45.0436

> <b_lp_Chiralities_Consistent>
1

> <s_lp_Variant>
AV-unprocessed.smi:1406-14

> <Gold.Version>
5.8.1

> <Gold.Id.Protein>
6NUR|6NUR_protein|mol2

> <Gold.PLP.Fitness>
33.4319

> <Gold.PLP.PLP>
-22.2188

> <Gold.PLP.part.hbond>
-2.0000

> <Gold.PLP.part.metal>
0.0000

> <Gold.PLP.part.buried>
-2.3511

> <Gold.PLP.part.nonpolar>
-19.6516

> <Gold.PLP.part.repulsive>
0.2362

> <Gold.PLP.ligand.clash>
0.0000

> <Gold.PLP.ligand.torsion>
1.0029

> <Gold.PLP.Chemscore.Hbond>
2.9825

> <Gold.PLP.Chemscore.CHOScore>
1.3867

> <Gold.PLP.Chemscore.Metal>
0.0000

> <Gold.Chemscore.Hbonds>
donor molecule, donor type, donor heavy atom, donor atom, acceptor molecule, acceptor atom, score
      L1  H     9    41       P1 10957  1.95
      P1  H  7989  7998       L1    17  1.00
      L1  C    16    39       P1  7948  1.00
      L1  C    16    39       P1  7957  0.32

> <Gold.PLP.Chemscore.Internal.Correction>
0.1112

> <Gold.Rescore>
     Score         DG    S(hbond)    S(metal)    S(lipo)     H(rot)  DE(clash)    DE(int)     intcor
      9.37     -11.42       1.82        0.00      40.17       1.89       0.00       2.05       ----

> <Gold.Chemscore.Fitness>
9.3666

> <Gold.Chemscore.DG>
-11.4155

> <Gold.Chemscore.ZeroCoef>
-5.4800

> <Gold.Chemscore.Hbond>
1.8160

> <Gold.Chemscore.Metal>
0.0000

> <Gold.Chemscore.Lipo>
40.1684

> <Gold.Chemscore.Internal_Hbond>
0.0000

> <Gold.Chemscore.DEClash>
0.0021

> <Gold.Chemscore.DEInternal>
2.0468

> <Gold.Chemscore.Rot>
1.8865

> <Gold.Chemscore.Internal.Correction>
   9.000000E+99

> <Gold.Chemscore.Hbonds>
donor molecule, donor type, donor heavy atom, donor atom, acceptor molecule, acceptor atom, score
      L1  H     9    41       P1 10957  0.65
      P1  H  7989  7998       L1    17  0.35

> <Gold.Chemscore.Hbond.Weighted>
-6.0653

> <Gold.Chemscore.Metal.Weighted>
-0.0000

> <Gold.Chemscore.Lipo.Weighted>
-4.6997

> <Gold.Chemscore.Internal_Hbond.Weighted>
0.0000

> <Gold.Chemscore.DEClash.Weighted>
0.0021

> <Gold.Chemscore.DEInternal.Weighted>
2.0468

> <Gold.Chemscore.Rot.Weighted>
4.8295

> <Gold.Chemscore.Internal.Correction.Weighted>
   9.000000E+99

> <Gold.Protein.RotatedTorsions>
[ 6907 6896 6895 6894 ] final  127.96 input  -60.11 | X-H torsion
[ 7974 7965 7964 7962 ] final -168.33 input  175.53 | X-H torsion
[ 8008 7997 7996 7995 ] final  -29.54 input   59.86 | X-H torsion
[ 10167 10162 10161 10158 ] final   98.28 input  -65.29 | X-H torsion
[ 10718 10713 10712 10709 ] final  145.84 input   66.30 | X-H torsion
[ 10763 10752 10751 10750 ] final   62.67 input  -60.55 | X-H torsion
[ 11005 11000 10999 10996 ] final   33.14 input  -57.11 | X-H torsion

> <Gold.Protein.ActiveResidues>
 VAL166  LYS551  ARG553  GLY616  TRP617  ASP618  TYR619  PRO620  LYS621  CYS622 
 ASP623  PHE694  ASN695  SER759  ASP760  ASP761  ALA762  ILE779  LEU786  VAL792 
 PHE793  MET794  SER795  GLU796  ALA797  LYS798  CYS799  TRP800  GLU811  SER814 

> <Gold.Protein.RotatedAtoms>
  152.3764  133.6486  159.6126 H   0  0  0  0  0  0  0  0  0  0  0  0  # atno 6907 bound_to 6896
  150.7707  133.9187  159.3400 H   0  0  0  0  0  0  0  0  0  0  0  0  # atno 6908 bound_to 6896
  151.7000  135.0933  160.0300 H   0  0  0  0  0  0  0  0  0  0  0  0  # atno 6909 bound_to 6896
  144.7205  140.2386  143.6294 H   0  0  0  0  0  0  0  0  0  0  0  0  # atno 7974 bound_to 7965
  154.4286  140.1815  156.1264 H   0  0  0  0  0  0  0  0  0  0  0  0  # atno 8008 bound_to 7997
  156.0102  140.3351  155.6908 H   0  0  0  0  0  0  0  0  0  0  0  0  # atno 8009 bound_to 7997
  155.6121  140.0651  157.2694 H   0  0  0  0  0  0  0  0  0  0  0  0  # atno 8010 bound_to 7997
  139.7723  144.6918  151.0139 H   0  0  0  0  0  0  0  0  0  0  0  0  # atno 10167 bound_to 10162
  157.3404  131.0935  151.1087 H   0  0  0  0  0  0  0  0  0  0  0  0  # atno 10718 bound_to 10713
  152.9991  135.5457  154.6230 H   0  0  0  0  0  0  0  0  0  0  0  0  # atno 10763 bound_to 10752
  154.5525  135.2827  155.0998 H   0  0  0  0  0  0  0  0  0  0  0  0  # atno 10764 bound_to 10752
  154.2232  135.6447  153.5204 H   0  0  0  0  0  0  0  0  0  0  0  0  # atno 10765 bound_to 10752
  140.2662  134.3135  155.7842 H   0  0  0  0  0  0  0  0  0  0  0  0  # atno 11005 bound_to 11000
  145.8341  139.2099  143.1865 LP  0  0  0  0  0  0  0  0  0  0  0  0  # atno 17320 bound_to 7965
  146.0404  140.8170  142.9831 LP  0  0  0  0  0  0  0  0  0  0  0  0  # atno 17321 bound_to 7965
  140.7814  143.4575  151.0325 LP  0  0  0  0  0  0  0  0  0  0  0  0  # atno 17342 bound_to 10162
  139.8258  143.7758  152.3178 LP  0  0  0  0  0  0  0  0  0  0  0  0  # atno 17343 bound_to 10162
  157.2301  130.6521  149.5846 LP  0  0  0  0  0  0  0  0  0  0  0  0  # atno 17370 bound_to 10713
  155.9707  130.4601  150.6062 LP  0  0  0  0  0  0  0  0  0  0  0  0  # atno 17371 bound_to 10713
  141.2184  133.7439  156.9264 LP  0  0  0  0  0  0  0  0  0  0  0  0  # atno 17394 bound_to 11000
  140.1417  134.9289  157.2475 LP  0  0  0  0  0  0  0  0  0  0  0  0  # atno 17395 bound_to 11000

$$$$
