AV-unprocessed.smi:2576|AV-procd|sdf|10118|dock4
  -GOLD-   2272014133D 1   1.00000     0.00000
 Structure written by MMmdl.
 27 28  0  0  0  0  0  0  0  0  1 V2000
  148.1099  142.1849  156.1959 O   0  0  0  0  0  0  0  0  0  0  0  0
  149.0965  141.2180  155.8881 C   0  0  2  0  0  0  0  0  0  0  0  0
  150.4837  141.8905  155.9048 C   0  0  0  0  0  0  0  0  0  0  0  0
  151.4158  141.2303  156.8027 N   0  0  0  0  0  0  0  0  0  0  0  0
  152.0159  140.0715  156.4091 N   0  0  0  0  0  0  0  0  0  0  0  0
  152.8006  139.6645  157.3619 N   0  0  0  0  0  0  0  0  0  0  0  0
  152.7144  140.5720  158.4047 C   0  0  0  0  0  0  0  0  0  0  0  0
  153.3448  140.6181  159.6682 C   0  0  0  0  0  0  0  0  0  0  0  0
  153.0732  141.6760  160.5636 C   0  0  0  0  0  0  0  0  0  0  0  0
  153.8634  141.6975  162.1002 Cl  0  0  0  0  0  0  0  0  0  0  0  0
  152.1659  142.7017  160.2035 C   0  0  0  0  0  0  0  0  0  0  0  0
  151.8203  144.0017  161.2876 Cl  0  0  0  0  0  0  0  0  0  0  0  0
  151.5314  142.6692  158.9458 C   0  0  0  0  0  0  0  0  0  0  0  0
  151.8161  141.6082  158.0696 C   0  0  0  0  0  0  0  0  0  0  0  0
  148.7882  140.5783  154.5193 C   0  0  0  0  0  0  0  0  0  0  0  0
  147.2943  140.5384  154.1497 C   0  0  0  0  0  0  0  0  0  0  0  0
  146.8501  141.7860  154.0027 F   0  0  0  0  0  0  0  0  0  0  0  0
  147.1182  139.8873  153.0002 F   0  0  0  0  0  0  0  0  0  0  0  0
  146.5781  139.9455  155.1046 F   0  0  0  0  0  0  0  0  0  0  0  0
  148.5262  143.0316  156.2581 H   0  0  0  0  0  0  0  0  0  0  0  0
  149.0690  140.4481  156.6599 H   0  0  0  0  0  0  0  0  0  0  0  0
  150.9160  141.8906  154.9030 H   0  0  0  0  0  0  0  0  0  0  0  0
  150.3963  142.9362  156.2030 H   0  0  0  0  0  0  0  0  0  0  0  0
  154.0376  139.8384  159.9489 H   0  0  0  0  0  0  0  0  0  0  0  0
  150.8365  143.4448  158.6593 H   0  0  0  0  0  0  0  0  0  0  0  0
  149.3473  141.0939  153.7372 H   0  0  0  0  0  0  0  0  0  0  0  0
  149.1587  139.5523  154.5229 H   0  0  0  0  0  0  0  0  0  0  0  0
  1  2  1  0  0  0  0
  1 20  1  0  0  0  0
  2  3  1  0  0  0  0
  2 15  1  0  0  0  0
  2 21  1  0  0  0  0
  3  4  1  0  0  0  0
  3 22  1  0  0  0  0
  3 23  1  0  0  0  0
  4 14  1  0  0  0  0
  4  5  1  0  0  0  0
  5  6  2  0  0  0  0
  6  7  1  0  0  0  0
  7 14  2  0  0  0  0
  7  8  1  0  0  0  0
  8  9  2  0  0  0  0
  8 24  1  0  0  0  0
  9 10  1  0  0  0  0
  9 11  1  0  0  0  0
 11 12  1  0  0  0  0
 11 13  2  0  0  0  0
 13 14  1  0  0  0  0
 13 25  1  0  0  0  0
 15 16  1  0  0  0  0
 15 26  1  0  0  0  0
 15 27  1  0  0  0  0
 16 17  1  0  0  0  0
 16 18  1  0  0  0  0
 16 19  1  0  0  0  0
M  END
> <s_m_source_file>
AV-unprocessed.smi

> <i_m_source_file_index>
2576

> <i_lp_mmshare_version>
43012

> <i_f3d_flags>
0

> <s_epik_input>
RkMoRikoRilbQ0gyXVtDQEhdKFtPSF0pW0NIMl1uKG5uMSljKGMxMilbY0hdYyhDbCljKENsKVtjSF0y

> <s_epik_cmdline>
J2VwaWtfcHl0aG9uJywgJy1waCcsICc3LjAnLCAnLXRuJywgJzgnLCAnLW1hJywgJzIwMCcsICctbWV0YWxfYmluZGluZycsICctaW1hZScsICc8aW5maWxlLm1hZT4nLCAnLW9tYWUnLCAnPG91dGZpbGUubWFlPic=

> <r_lp_tautomer_probability>
1

> <r_epik_Ionization_Penalty>
1.57739e-05

> <r_epik_Ionization_Penalty_Charging>
0

> <r_epik_Ionization_Penalty_Neutral>
1.57739e-05

> <r_epik_State_Penalty>
-0

> <r_epik_Charging_Adjusted_Penalty>
0

> <i_epik_Tot_Q>
0

> <i_epik_Tot_abs_Q>
0

> <r_epik_Metal_State_Penalty>
-0

> <b_epik_Metal_Only>
0

> <s_lp_Force_Field>
OPLS_2005

> <r_lp_Energy>
8.87224

> <b_lp_Chiralities_Consistent>
1

> <s_lp_Variant>
AV-unprocessed.smi:2576-1

> <Gold.Version>
5.8.1

> <Gold.Id.Protein>
6NUR|6NUR_protein|mol2

> <Gold.PLP.Fitness>
43.3591

> <Gold.PLP.PLP>
-40.2595

> <Gold.PLP.part.hbond>
-2.0659

> <Gold.PLP.part.metal>
0.0000

> <Gold.PLP.part.buried>
-3.1930

> <Gold.PLP.part.nonpolar>
-33.9156

> <Gold.PLP.part.repulsive>
0.0000

> <Gold.PLP.ligand.clash>
0.0000

> <Gold.PLP.ligand.torsion>
1.3806

> <Gold.PLP.Chemscore.Hbond>
1.9500

> <Gold.PLP.Chemscore.CHOScore>
0.0000

> <Gold.PLP.Chemscore.Metal>
0.0000

> <Gold.Chemscore.Hbonds>
donor molecule, donor type, donor heavy atom, donor atom, acceptor molecule, acceptor atom, score
      L1  H     1    20       P1  8028  1.00
      P1  H  7997  8008       L1     6  0.90

> <Gold.PLP.Chemscore.Internal.Correction>
0.0109

> <Gold.Rescore>
     Score         DG    S(hbond)    S(metal)    S(lipo)     H(rot)  DE(clash)    DE(int)     intcor
     11.56     -15.90       1.19        0.00     102.95       2.18       0.07       4.27       ----

> <Gold.Chemscore.Fitness>
11.5581

> <Gold.Chemscore.DG>
-15.9039

> <Gold.Chemscore.ZeroCoef>
-5.4800

> <Gold.Chemscore.Hbond>
1.1861

> <Gold.Chemscore.Metal>
0.0000

> <Gold.Chemscore.Lipo>
102.9477

> <Gold.Chemscore.Internal_Hbond>
0.0000

> <Gold.Chemscore.DEClash>
0.0709

> <Gold.Chemscore.DEInternal>
4.2750

> <Gold.Chemscore.Rot>
2.1807

> <Gold.Chemscore.Internal.Correction>
   9.000000E+99

> <Gold.Chemscore.Hbonds>
donor molecule, donor type, donor heavy atom, donor atom, acceptor molecule, acceptor atom, score
      L1  H     1    20       P1  8028  0.90
      P1  H  7997  8008       L1     6  0.06

> <Gold.Chemscore.Hbond.Weighted>
-3.9616

> <Gold.Chemscore.Metal.Weighted>
-0.0000

> <Gold.Chemscore.Lipo.Weighted>
-12.0449

> <Gold.Chemscore.Internal_Hbond.Weighted>
0.0000

> <Gold.Chemscore.DEClash.Weighted>
0.0709

> <Gold.Chemscore.DEInternal.Weighted>
4.2750

> <Gold.Chemscore.Rot.Weighted>
5.5826

> <Gold.Chemscore.Internal.Correction.Weighted>
   9.000000E+99

> <Gold.Protein.RotatedTorsions>
[ 6907 6896 6895 6894 ] final   20.51 input  -60.11 | X-H torsion
[ 7974 7965 7964 7962 ] final -124.19 input  175.53 | X-H torsion
[ 8008 7997 7996 7995 ] final  -57.82 input   59.86 | X-H torsion
[ 10167 10162 10161 10158 ] final  179.51 input  -65.29 | X-H torsion
[ 10718 10713 10712 10709 ] final  -18.49 input   66.30 | X-H torsion
[ 10763 10752 10751 10750 ] final  -98.49 input  -60.55 | X-H torsion
[ 11005 11000 10999 10996 ] final   -6.94 input  -57.11 | X-H torsion

> <Gold.Protein.ActiveResidues>
 VAL166  LYS551  ARG553  GLY616  TRP617  ASP618  TYR619  PRO620  LYS621  CYS622 
 ASP623  PHE694  ASN695  SER759  ASP760  ASP761  ALA762  ILE779  LEU786  VAL792 
 PHE793  MET794  SER795  GLU796  ALA797  LYS798  CYS799  TRP800  GLU811  SER814 

> <Gold.Protein.RotatedAtoms>
  151.8974  135.0392  160.0503 H   0  0  0  0  0  0  0  0  0  0  0  0  # atno 6907 bound_to 6896
  152.2386  133.5112  159.5265 H   0  0  0  0  0  0  0  0  0  0  0  0  # atno 6908 bound_to 6896
  150.7046  134.1036  159.4017 H   0  0  0  0  0  0  0  0  0  0  0  0  # atno 6909 bound_to 6896
  145.0107  140.7903  143.4440 H   0  0  0  0  0  0  0  0  0  0  0  0  # atno 7974 bound_to 7965
  154.4283  140.1098  156.5858 H   0  0  0  0  0  0  0  0  0  0  0  0  # atno 8008 bound_to 7997
  155.6064  140.3494  155.4590 H   0  0  0  0  0  0  0  0  0  0  0  0  # atno 8009 bound_to 7997
  156.0133  140.1224  157.0421 H   0  0  0  0  0  0  0  0  0  0  0  0  # atno 8010 bound_to 7997
  139.5339  144.2552  152.0752 H   0  0  0  0  0  0  0  0  0  0  0  0  # atno 10167 bound_to 10162
  156.5589  130.4720  149.6416 H   0  0  0  0  0  0  0  0  0  0  0  0  # atno 10718 bound_to 10713
  154.7419  135.5007  153.9137 H   0  0  0  0  0  0  0  0  0  0  0  0  # atno 10763 bound_to 10752
  153.1051  135.6695  153.9609 H   0  0  0  0  0  0  0  0  0  0  0  0  # atno 10764 bound_to 10752
  153.9383  135.3070  155.3422 H   0  0  0  0  0  0  0  0  0  0  0  0  # atno 10765 bound_to 10752
  140.7074  133.8938  155.8726 H   0  0  0  0  0  0  0  0  0  0  0  0  # atno 11005 bound_to 11000
  145.2027  139.2244  143.5184 LP  0  0  0  0  0  0  0  0  0  0  0  0  # atno 17320 bound_to 7965
  146.3469  140.1848  142.8589 LP  0  0  0  0  0  0  0  0  0  0  0  0  # atno 17321 bound_to 7965
  140.2020  144.4648  150.6427 LP  0  0  0  0  0  0  0  0  0  0  0  0  # atno 17342 bound_to 10162
  140.6535  143.2231  151.6023 LP  0  0  0  0  0  0  0  0  0  0  0  0  # atno 17343 bound_to 10162
  156.2817  130.7074  151.1900 LP  0  0  0  0  0  0  0  0  0  0  0  0  # atno 17370 bound_to 10713
  157.7372  131.0554  150.5366 LP  0  0  0  0  0  0  0  0  0  0  0  0  # atno 17371 bound_to 10713
  141.0113  134.1016  157.4218 LP  0  0  0  0  0  0  0  0  0  0  0  0  # atno 17394 bound_to 11000
  139.8880  135.0095  156.6598 LP  0  0  0  0  0  0  0  0  0  0  0  0  # atno 17395 bound_to 11000

$$$$
