AV-unprocessed.smi:833|AV-procd|sdf|3881|dock3
  -GOLD-   22720 1333D 1   1.00000     0.00000
 Structure written by MMmdl.
 39 40  0  0  0  0  0  0  0  0  1 V2000
  147.0111  140.3435  152.9497 C   0  0  0  0  0  0  0  0  0  0  0  0
  148.1578  140.3561  153.9697 C   0  0  1  0  0  0  0  0  0  0  0  0
  149.0924  139.3849  153.5458 O   0  0  0  0  0  0  0  0  0  0  0  0
  148.8529  141.7311  154.0412 C   0  0  0  0  0  0  0  0  0  0  0  0
  149.4793  141.9587  155.3389 N   0  0  0  0  0  0  0  0  0  0  0  0
  150.4419  141.1968  155.8753 C   0  0  0  0  0  0  0  0  0  0  0  0
  150.9111  140.2022  155.3224 O   0  0  0  0  0  0  0  0  0  0  0  0
  150.8001  141.6492  157.0880 N   0  0  0  0  0  0  0  0  0  0  0  0
  151.7391  141.0776  157.9919 C   0  0  0  0  0  0  0  0  0  0  0  0
  152.2800  139.7869  157.7740 C   0  0  0  0  0  0  0  0  0  0  0  0
  153.2576  139.2909  158.6535 C   0  0  0  0  0  0  0  0  0  0  0  0
  153.6741  140.1117  159.7143 C   0  0  0  0  0  0  0  0  0  0  0  0
  153.1794  141.3474  159.9276 N   0  0  0  0  0  0  0  0  0  0  0  0
  152.2247  141.8346  159.0969 C   0  0  0  0  0  0  0  0  0  0  0  0
  151.7319  143.1293  159.3808 N   0  0  0  0  0  0  0  0  0  0  0  0
  151.9902  143.6887  160.7047 C   0  0  0  0  0  0  0  0  0  0  0  0
  152.2271  145.1892  160.5036 C   0  0  0  0  0  0  0  0  0  0  0  0
  151.5699  145.4819  159.1584 C   0  0  0  0  0  0  0  0  0  0  0  0
  151.8240  144.1915  158.3848 C   0  0  0  0  0  0  0  0  0  0  0  0
  146.2328  141.0547  153.2271 H   0  0  0  0  0  0  0  0  0  0  0  0
  146.5476  139.3580  152.8900 H   0  0  0  0  0  0  0  0  0  0  0  0
  147.3630  140.6077  151.9518 H   0  0  0  0  0  0  0  0  0  0  0  0
  147.7650  140.0736  154.9475 H   0  0  0  0  0  0  0  0  0  0  0  0
  149.5264  139.7056  152.7693 H   0  0  0  0  0  0  0  0  0  0  0  0
  149.5621  141.8709  153.2228 H   0  0  0  0  0  0  0  0  0  0  0  0
  148.1077  142.5192  153.9297 H   0  0  0  0  0  0  0  0  0  0  0  0
  149.1534  142.7550  155.8668 H   0  0  0  0  0  0  0  0  0  0  0  0
  150.2606  142.4196  157.4549 H   0  0  0  0  0  0  0  0  0  0  0  0
  151.9780  139.1800  156.9341 H   0  0  0  0  0  0  0  0  0  0  0  0
  153.6871  138.3106  158.5095 H   0  0  0  0  0  0  0  0  0  0  0  0
  154.4287  139.7704  160.4073 H   0  0  0  0  0  0  0  0  0  0  0  0
  151.1101  143.5338  161.3292 H   0  0  0  0  0  0  0  0  0  0  0  0
  152.8414  143.2133  161.1943 H   0  0  0  0  0  0  0  0  0  0  0  0
  151.8244  145.7946  161.3160 H   0  0  0  0  0  0  0  0  0  0  0  0
  153.2981  145.3856  160.4373 H   0  0  0  0  0  0  0  0  0  0  0  0
  150.4979  145.6333  159.2921 H   0  0  0  0  0  0  0  0  0  0  0  0
  151.9796  146.3627  158.6635 H   0  0  0  0  0  0  0  0  0  0  0  0
  152.8213  144.2243  157.9443 H   0  0  0  0  0  0  0  0  0  0  0  0
  151.0990  144.0493  157.5830 H   0  0  0  0  0  0  0  0  0  0  0  0
  1  2  1  0  0  0  0
  1 20  1  0  0  0  0
  1 21  1  0  0  0  0
  1 22  1  0  0  0  0
  2  3  1  0  0  0  0
  2  4  1  0  0  0  0
  2 23  1  0  0  0  0
  3 24  1  0  0  0  0
  4  5  1  0  0  0  0
  4 25  1  0  0  0  0
  4 26  1  0  0  0  0
  5  6  1  0  0  0  0
  5 27  1  0  0  0  0
  6  7  2  0  0  0  0
  6  8  1  0  0  0  0
  8  9  1  0  0  0  0
  8 28  1  0  0  0  0
  9 14  1  0  0  0  0
  9 10  2  0  0  0  0
 10 11  1  0  0  0  0
 10 29  1  0  0  0  0
 11 12  2  0  0  0  0
 11 30  1  0  0  0  0
 12 13  1  0  0  0  0
 12 31  1  0  0  0  0
 13 14  2  0  0  0  0
 14 15  1  0  0  0  0
 15 19  1  0  0  0  0
 15 16  1  0  0  0  0
 16 17  1  0  0  0  0
 16 32  1  0  0  0  0
 16 33  1  0  0  0  0
 17 18  1  0  0  0  0
 17 34  1  0  0  0  0
 17 35  1  0  0  0  0
 18 19  1  0  0  0  0
 18 36  1  0  0  0  0
 18 37  1  0  0  0  0
 19 38  1  0  0  0  0
 19 39  1  0  0  0  0
M  END
> <s_m_source_file>
AV-unprocessed.smi

> <i_m_source_file_index>
833

> <i_lp_mmshare_version>
43012

> <i_f3d_flags>
0

> <s_epik_input>
W0NIM11bQ0BIXShbT0hdKVtDSDJdW05IXUMoPU8pW05IXWMxW2NIXVtjSF1bY0hdbmMxTjJbQ0gyXVtDSDJdW0NIMl1bQ0gyXTI=

> <s_epik_cmdline>
J2VwaWtfcHl0aG9uJywgJy1waCcsICc3LjAnLCAnLXRuJywgJzgnLCAnLW1hJywgJzIwMCcsICctbWV0YWxfYmluZGluZycsICctaW1hZScsICc8aW5maWxlLm1hZT4nLCAnLW9tYWUnLCAnPG91dGZpbGUubWFlPic=

> <r_lp_tautomer_probability>
1

> <r_epik_Ionization_Penalty>
0.0986749

> <r_epik_Ionization_Penalty_Charging>
0

> <r_epik_Ionization_Penalty_Neutral>
0.0986749

> <r_epik_State_Penalty>
0.0881977

> <r_epik_Charging_Adjusted_Penalty>
0.0881977

> <i_epik_Tot_Q>
0

> <i_epik_Tot_abs_Q>
0

> <r_epik_Metal_State_Penalty>
0.0755487

> <b_epik_Metal_Only>
0

> <s_lp_Force_Field>
OPLS_2005

> <r_lp_Energy>
30.9988

> <b_lp_Chiralities_Consistent>
1

> <s_lp_Variant>
AV-unprocessed.smi:833-2

> <Gold.Version>
5.8.1

> <Gold.Id.Protein>
6NUR|6NUR_protein|mol2

> <Gold.PLP.Fitness>
44.9644

> <Gold.PLP.PLP>
-37.3488

> <Gold.PLP.part.hbond>
-2.8453

> <Gold.PLP.part.metal>
0.0000

> <Gold.PLP.part.buried>
-0.6669

> <Gold.PLP.part.nonpolar>
-32.5113

> <Gold.PLP.part.repulsive>
0.2628

> <Gold.PLP.ligand.clash>
0.0000

> <Gold.PLP.ligand.torsion>
0.5697

> <Gold.PLP.Chemscore.Hbond>
2.8073

> <Gold.PLP.Chemscore.CHOScore>
0.0000

> <Gold.PLP.Chemscore.Metal>
0.0000

> <Gold.Chemscore.Hbonds>
donor molecule, donor type, donor heavy atom, donor atom, acceptor molecule, acceptor atom, score
      L1  H     3    24       P1  7957  1.00
      L1  H     5    27       P1  8028  0.80
      P1  H  7989  7998       L1     7  0.89

> <Gold.PLP.Chemscore.Internal.Correction>
0.3332

> <Gold.Rescore>
     Score         DG    S(hbond)    S(metal)    S(lipo)     H(rot)  DE(clash)    DE(int)     intcor
     14.82     -19.74       2.45        0.00      96.47       2.03       1.49       3.43       ----

> <Gold.Chemscore.Fitness>
14.8214

> <Gold.Chemscore.DG>
-19.7407

> <Gold.Chemscore.ZeroCoef>
-5.4800

> <Gold.Chemscore.Hbond>
2.4466

> <Gold.Chemscore.Metal>
0.0000

> <Gold.Chemscore.Lipo>
96.4731

> <Gold.Chemscore.Internal_Hbond>
0.0000

> <Gold.Chemscore.DEClash>
1.4899

> <Gold.Chemscore.DEInternal>
3.4294

> <Gold.Chemscore.Rot>
2.0306

> <Gold.Chemscore.Internal.Correction>
   9.000000E+99

> <Gold.Chemscore.Hbonds>
donor molecule, donor type, donor heavy atom, donor atom, acceptor molecule, acceptor atom, score
      L1  H     3    24       P1  7957  0.97
      L1  H     5    27       P1  8028  0.77
      P1  H  7989  7998       L1     7  0.43

> <Gold.Chemscore.Hbond.Weighted>
-8.1718

> <Gold.Chemscore.Metal.Weighted>
-0.0000

> <Gold.Chemscore.Lipo.Weighted>
-11.2873

> <Gold.Chemscore.Internal_Hbond.Weighted>
0.0000

> <Gold.Chemscore.DEClash.Weighted>
1.4899

> <Gold.Chemscore.DEInternal.Weighted>
3.4294

> <Gold.Chemscore.Rot.Weighted>
5.1984

> <Gold.Chemscore.Internal.Correction.Weighted>
   9.000000E+99

> <Gold.Protein.RotatedTorsions>
[ 6907 6896 6895 6894 ] final   83.11 input  -60.11 | X-H torsion
[ 7974 7965 7964 7962 ] final   53.92 input  175.53 | X-H torsion
[ 8008 7997 7996 7995 ] final  -99.75 input   59.86 | X-H torsion
[ 10167 10162 10161 10158 ] final  131.83 input  -65.29 | X-H torsion
[ 10718 10713 10712 10709 ] final    9.86 input   66.30 | X-H torsion
[ 10763 10752 10751 10750 ] final   15.84 input  -60.55 | X-H torsion
[ 11005 11000 10999 10996 ] final  114.82 input  -57.11 | X-H torsion

> <Gold.Protein.ActiveResidues>
 VAL166  LYS551  ARG553  GLY616  TRP617  ASP618  TYR619  PRO620  LYS621  CYS622 
 ASP623  PHE694  ASN695  SER759  ASP760  ASP761  ALA762  ILE779  LEU786  VAL792 
 PHE793  MET794  SER795  GLU796  ALA797  LYS798  CYS799  TRP800  GLU811  SER814 

> <Gold.Protein.RotatedAtoms>
  152.5318  134.2945  159.9055 H   0  0  0  0  0  0  0  0  0  0  0  0  # atno 6907 bound_to 6896
  151.2897  133.4165  159.2640 H   0  0  0  0  0  0  0  0  0  0  0  0  # atno 6908 bound_to 6896
  151.0212  134.9486  159.8117 H   0  0  0  0  0  0  0  0  0  0  0  0  # atno 6909 bound_to 6896
  145.9662  139.4105  143.0218 H   0  0  0  0  0  0  0  0  0  0  0  0  # atno 7974 bound_to 7965
  154.8191  140.0445  157.1398 H   0  0  0  0  0  0  0  0  0  0  0  0  # atno 8008 bound_to 7997
  154.9280  140.3036  155.5162 H   0  0  0  0  0  0  0  0  0  0  0  0  # atno 8009 bound_to 7997
  156.2978  140.2328  156.4337 H   0  0  0  0  0  0  0  0  0  0  0  0  # atno 8010 bound_to 7997
  139.5366  144.6689  151.4764 H   0  0  0  0  0  0  0  0  0  0  0  0  # atno 10167 bound_to 10162
  156.9725  130.5974  149.5670 H   0  0  0  0  0  0  0  0  0  0  0  0  # atno 10718 bound_to 10713
  153.1487  135.6774  153.8915 H   0  0  0  0  0  0  0  0  0  0  0  0  # atno 10763 bound_to 10752
  153.8348  135.3113  155.3423 H   0  0  0  0  0  0  0  0  0  0  0  0  # atno 10764 bound_to 10752
  154.7845  135.4869  154.0003 H   0  0  0  0  0  0  0  0  0  0  0  0  # atno 10765 bound_to 10752
  139.8991  134.9574  156.6950 H   0  0  0  0  0  0  0  0  0  0  0  0  # atno 11005 bound_to 11000
  145.7971  140.9788  143.1018 LP  0  0  0  0  0  0  0  0  0  0  0  0  # atno 17320 bound_to 7965
  144.6826  139.9755  143.7483 LP  0  0  0  0  0  0  0  0  0  0  0  0  # atno 17321 bound_to 7965
  140.6576  143.8567  150.6852 LP  0  0  0  0  0  0  0  0  0  0  0  0  # atno 17342 bound_to 10162
  140.1951  143.4004  152.1834 LP  0  0  0  0  0  0  0  0  0  0  0  0  # atno 17343 bound_to 10162
  156.0277  130.5370  150.8450 LP  0  0  0  0  0  0  0  0  0  0  0  0  # atno 17370 bound_to 10713
  157.5582  131.0945  150.9597 LP  0  0  0  0  0  0  0  0  0  0  0  0  # atno 17371 bound_to 10713
  140.7195  133.9153  155.8137 LP  0  0  0  0  0  0  0  0  0  0  0  0  # atno 17394 bound_to 11000
  141.0238  134.0852  157.4091 LP  0  0  0  0  0  0  0  0  0  0  0  0  # atno 17395 bound_to 11000

$$$$
