AV-unprocessed.smi:2465|AV-procd|sdf|9722|dock3
  -GOLD-   2272013363D 1   1.00000     0.00000
 Structure written by MMmdl.
 40 41  0  0  0  0  0  0  0  0  1 V2000
  145.2185  135.6552  150.9585 C   0  0  0  0  0  0  0  0  0  0  0  0
  145.0961  134.1610  151.1998 C   0  0  0  0  0  0  0  0  0  0  0  0
  144.0167  133.4476  150.6389 C   0  0  0  0  0  0  0  0  0  0  0  0
  143.9233  132.0639  150.8800 C   0  0  0  0  0  0  0  0  0  0  0  0
  144.8135  131.3826  151.6293 N   0  0  0  0  0  0  0  0  0  0  0  0
  145.8472  132.0664  152.1643 C   0  0  0  0  0  0  0  0  0  0  0  0
  146.0489  133.4573  151.9759 C   0  0  0  0  0  0  0  0  0  0  0  0
  147.1286  134.1781  152.5607 N   0  0  0  0  0  0  0  0  0  0  0  0
  147.8799  133.8491  153.6256 C   0  0  0  0  0  0  0  0  0  0  0  0
  147.7729  132.8131  154.2815 O   0  0  0  0  0  0  0  0  0  0  0  0
  148.7954  134.7942  153.8817 N   0  0  0  0  0  0  0  0  0  0  0  0
  149.7723  134.7409  154.9633 C   0  0  0  0  0  0  0  0  0  0  0  0
  150.0510  136.1363  155.5435 C   0  0  0  0  0  0  0  0  0  0  0  0
  150.9700  136.9727  154.6392 C   0  0  0  0  0  0  0  0  0  0  0  0
  150.9765  138.3770  155.0382 N   0  0  0  0  0  0  0  0  0  0  0  0
  149.8169  139.2205  154.8024 C   0  0  0  0  0  0  0  0  0  0  0  0
  150.1180  140.5273  155.5501 C   0  0  0  0  0  0  0  0  0  0  0  0
  151.6159  140.4862  155.8718 C   0  0  0  0  0  0  0  0  0  0  0  0
  151.9925  139.0387  155.6048 C   0  0  0  0  0  0  0  0  0  0  0  0
  153.0955  138.5725  155.8867 O   0  0  0  0  0  0  0  0  0  0  0  0
  144.3914  136.0289  150.3542 H   0  0  0  0  0  0  0  0  0  0  0  0
  146.1480  135.8804  150.4349 H   0  0  0  0  0  0  0  0  0  0  0  0
  145.2143  136.1958  151.9054 H   0  0  0  0  0  0  0  0  0  0  0  0
  143.2717  133.9457  150.0362 H   0  0  0  0  0  0  0  0  0  0  0  0
  143.1082  131.4903  150.4641 H   0  0  0  0  0  0  0  0  0  0  0  0
  146.5071  131.4705  152.7748 H   0  0  0  0  0  0  0  0  0  0  0  0
  147.3969  135.0214  152.0753 H   0  0  0  0  0  0  0  0  0  0  0  0
  148.8179  135.6103  153.2879 H   0  0  0  0  0  0  0  0  0  0  0  0
  149.3793  134.0872  155.7423 H   0  0  0  0  0  0  0  0  0  0  0  0
  150.6964  134.2813  154.6088 H   0  0  0  0  0  0  0  0  0  0  0  0
  149.1102  136.6697  155.6866 H   0  0  0  0  0  0  0  0  0  0  0  0
  150.4997  136.0327  156.5324 H   0  0  0  0  0  0  0  0  0  0  0  0
  151.9880  136.5813  154.6694 H   0  0  0  0  0  0  0  0  0  0  0  0
  150.6411  136.8956  153.6020 H   0  0  0  0  0  0  0  0  0  0  0  0
  149.7125  139.3976  153.7311 H   0  0  0  0  0  0  0  0  0  0  0  0
  148.9019  138.7489  155.1632 H   0  0  0  0  0  0  0  0  0  0  0  0
  149.8498  141.4027  154.9576 H   0  0  0  0  0  0  0  0  0  0  0  0
  149.5430  140.5689  156.4761 H   0  0  0  0  0  0  0  0  0  0  0  0
  152.1842  141.1377  155.2072 H   0  0  0  0  0  0  0  0  0  0  0  0
  151.8242  140.7689  156.9041 H   0  0  0  0  0  0  0  0  0  0  0  0
  1  2  1  0  0  0  0
  1 21  1  0  0  0  0
  1 22  1  0  0  0  0
  1 23  1  0  0  0  0
  2  7  1  0  0  0  0
  2  3  2  0  0  0  0
  3  4  1  0  0  0  0
  3 24  1  0  0  0  0
  4  5  2  0  0  0  0
  4 25  1  0  0  0  0
  5  6  1  0  0  0  0
  6  7  2  0  0  0  0
  6 26  1  0  0  0  0
  7  8  1  0  0  0  0
  8  9  1  0  0  0  0
  8 27  1  0  0  0  0
  9 10  2  0  0  0  0
  9 11  1  0  0  0  0
 11 12  1  0  0  0  0
 11 28  1  0  0  0  0
 12 13  1  0  0  0  0
 12 29  1  0  0  0  0
 12 30  1  0  0  0  0
 13 14  1  0  0  0  0
 13 31  1  0  0  0  0
 13 32  1  0  0  0  0
 14 15  1  0  0  0  0
 14 33  1  0  0  0  0
 14 34  1  0  0  0  0
 15 19  1  0  0  0  0
 15 16  1  0  0  0  0
 16 17  1  0  0  0  0
 16 35  1  0  0  0  0
 16 36  1  0  0  0  0
 17 18  1  0  0  0  0
 17 37  1  0  0  0  0
 17 38  1  0  0  0  0
 18 19  1  0  0  0  0
 18 39  1  0  0  0  0
 18 40  1  0  0  0  0
 19 20  2  0  0  0  0
M  END
> <s_m_source_file>
AV-unprocessed.smi

> <i_m_source_file_index>
2465

> <i_lp_mmshare_version>
43012

> <i_f3d_flags>
0

> <s_epik_input>
W0NIM11jMVtjSF1bY0hdbltjSF1jMVtOSF1DKD1PKVtOSF1bQ0gyXVtDSDJdW0NIMl1OMltDSDJdW0NIMl1bQ0gyXUMyPU8=

> <s_epik_cmdline>
J2VwaWtfcHl0aG9uJywgJy1waCcsICc3LjAnLCAnLXRuJywgJzgnLCAnLW1hJywgJzIwMCcsICctbWV0YWxfYmluZGluZycsICctaW1hZScsICc8aW5maWxlLm1hZT4nLCAnLW9tYWUnLCAnPG91dGZpbGUubWFlPic=

> <r_epik_Ionization_Penalty>
0.0211997

> <r_epik_Ionization_Penalty_Charging>
0

> <r_epik_Ionization_Penalty_Neutral>
0.0211997

> <r_epik_State_Penalty>
0.0170047

> <r_epik_Charging_Adjusted_Penalty>
0.0170047

> <i_epik_Tot_Q>
0

> <i_epik_Tot_abs_Q>
0

> <r_epik_Metal_State_Penalty>
0.0163833

> <b_epik_Metal_Only>
0

> <s_lp_Force_Field>
OPLS_2005

> <r_lp_Energy>
19.6331

> <b_lp_Chiralities_Consistent>
1

> <s_lp_Variant>
AV-unprocessed.smi:2465-1

> <Gold.Version>
5.8.1

> <Gold.Id.Protein>
6NUR|6NUR_protein|mol2

> <Gold.PLP.Fitness>
46.3783

> <Gold.PLP.PLP>
-37.2300

> <Gold.PLP.part.hbond>
-2.8418

> <Gold.PLP.part.metal>
0.0000

> <Gold.PLP.part.buried>
-4.2591

> <Gold.PLP.part.nonpolar>
-30.7190

> <Gold.PLP.part.repulsive>
0.2196

> <Gold.PLP.ligand.clash>
0.0000

> <Gold.PLP.ligand.torsion>
0.4980

> <Gold.PLP.Chemscore.Hbond>
2.8640

> <Gold.PLP.Chemscore.CHOScore>
0.4995

> <Gold.PLP.Chemscore.Metal>
0.0000

> <Gold.Chemscore.Hbonds>
donor molecule, donor type, donor heavy atom, donor atom, acceptor molecule, acceptor atom, score
      L1  H     8    27       P1  7948  0.80
      L1  H    11    28       P1  7948  0.96
      P1  H  7997  8010       L1    20  1.00
      L1  C     4    25       P1 10952  0.56

> <Gold.PLP.Chemscore.Internal.Correction>
0.0540

> <Gold.Rescore>
     Score         DG    S(hbond)    S(metal)    S(lipo)     H(rot)  DE(clash)    DE(int)     intcor
     16.83     -18.44       2.76        0.00      70.00       1.74       0.05       1.56       ----

> <Gold.Chemscore.Fitness>
16.8280

> <Gold.Chemscore.DG>
-18.4413

> <Gold.Chemscore.ZeroCoef>
-5.4800

> <Gold.Chemscore.Hbond>
2.7629

> <Gold.Chemscore.Metal>
0.0000

> <Gold.Chemscore.Lipo>
70.0031

> <Gold.Chemscore.Internal_Hbond>
0.0000

> <Gold.Chemscore.DEClash>
0.0515

> <Gold.Chemscore.DEInternal>
1.5617

> <Gold.Chemscore.Rot>
1.7410

> <Gold.Chemscore.Internal.Correction>
   9.000000E+99

> <Gold.Chemscore.Hbonds>
donor molecule, donor type, donor heavy atom, donor atom, acceptor molecule, acceptor atom, score
      L1  H     8    27       P1  7948  0.76
      L1  H    11    28       P1  7948  0.79
      P1  H  7997  8010       L1    20  0.63

> <Gold.Chemscore.Hbond.Weighted>
-9.2280

> <Gold.Chemscore.Metal.Weighted>
-0.0000

> <Gold.Chemscore.Lipo.Weighted>
-8.1904

> <Gold.Chemscore.Internal_Hbond.Weighted>
0.0000

> <Gold.Chemscore.DEClash.Weighted>
0.0515

> <Gold.Chemscore.DEInternal.Weighted>
1.5617

> <Gold.Chemscore.Rot.Weighted>
4.4571

> <Gold.Chemscore.Internal.Correction.Weighted>
   9.000000E+99

> <Gold.Protein.RotatedTorsions>
[ 6907 6896 6895 6894 ] final  146.14 input  -60.11 | X-H torsion
[ 7974 7965 7964 7962 ] final  -50.25 input  175.53 | X-H torsion
[ 8008 7997 7996 7995 ] final   79.39 input   59.86 | X-H torsion
[ 10167 10162 10161 10158 ] final   54.30 input  -65.29 | X-H torsion
[ 10718 10713 10712 10709 ] final -115.71 input   66.30 | X-H torsion
[ 10763 10752 10751 10750 ] final  127.20 input  -60.55 | X-H torsion
[ 11005 11000 10999 10996 ] final  -78.52 input  -57.11 | X-H torsion

> <Gold.Protein.ActiveResidues>
 VAL166  LYS551  ARG553  GLY616  TRP617  ASP618  TYR619  PRO620  LYS621  CYS622 
 ASP623  PHE694  ASN695  SER759  ASP760  ASP761  ALA762  ILE779  LEU786  VAL792 
 PHE793  MET794  SER795  GLU796  ALA797  LYS798  CYS799  TRP800  GLU811  SER814 

> <Gold.Protein.RotatedAtoms>
  152.1718  133.4648  159.4912 H   0  0  0  0  0  0  0  0  0  0  0  0  # atno 6907 bound_to 6896
  150.6921  134.1944  159.4307 H   0  0  0  0  0  0  0  0  0  0  0  0  # atno 6908 bound_to 6896
  151.9851  135.0008  160.0610 H   0  0  0  0  0  0  0  0  0  0  0  0  # atno 6909 bound_to 6896
  145.9318  140.7742  142.9596 H   0  0  0  0  0  0  0  0  0  0  0  0  # atno 7974 bound_to 7965
  155.8690  140.3450  155.5808 H   0  0  0  0  0  0  0  0  0  0  0  0  # atno 8008 bound_to 7997
  155.7848  140.0863  157.2059 H   0  0  0  0  0  0  0  0  0  0  0  0  # atno 8009 bound_to 7997
  154.4016  140.1494  156.3081 H   0  0  0  0  0  0  0  0  0  0  0  0  # atno 8010 bound_to 7997
  140.2316  144.3681  150.6412 H   0  0  0  0  0  0  0  0  0  0  0  0  # atno 10167 bound_to 10162
  156.0914  130.6095  150.8941 H   0  0  0  0  0  0  0  0  0  0  0  0  # atno 10718 bound_to 10713
  153.7056  135.3276  155.3235 H   0  0  0  0  0  0  0  0  0  0  0  0  # atno 10763 bound_to 10752
  154.8400  135.4465  154.1366 H   0  0  0  0  0  0  0  0  0  0  0  0  # atno 10764 bound_to 10752
  153.2445  135.6974  153.7825 H   0  0  0  0  0  0  0  0  0  0  0  0  # atno 10765 bound_to 10752
  141.1665  133.7067  156.7984 H   0  0  0  0  0  0  0  0  0  0  0  0  # atno 11005 bound_to 11000
  144.6766  140.2139  143.7374 LP  0  0  0  0  0  0  0  0  0  0  0  0  # atno 17320 bound_to 7965
  145.8416  139.2132  143.1824 LP  0  0  0  0  0  0  0  0  0  0  0  0  # atno 17321 bound_to 7965
  140.6181  143.2174  151.6751 LP  0  0  0  0  0  0  0  0  0  0  0  0  # atno 17342 bound_to 10162
  139.5108  144.3531  152.0634 LP  0  0  0  0  0  0  0  0  0  0  0  0  # atno 17343 bound_to 10162
  157.6064  131.0939  150.8872 LP  0  0  0  0  0  0  0  0  0  0  0  0  # atno 17370 bound_to 10713
  156.9020  130.5250  149.5282 LP  0  0  0  0  0  0  0  0  0  0  0  0  # atno 17371 bound_to 10713
  140.2274  134.8711  157.3441 LP  0  0  0  0  0  0  0  0  0  0  0  0  # atno 17394 bound_to 11000
  140.1926  134.4353  155.7707 LP  0  0  0  0  0  0  0  0  0  0  0  0  # atno 17395 bound_to 11000

$$$$
