AV-unprocessed.smi:2076|AV-procd|sdf|8459|dock5
  -GOLD-   2272011153D 1   1.00000     0.00000
 Structure written by MMmdl.
 45 46  0  0  0  0  0  0  0  0  2 V2000
  153.8611  140.4150  160.3414 C   0  0  0  0  0  0  0  0  0  0  0  0
  153.1093  141.5143  159.6510 C   0  0  0  0  0  0  0  0  0  0  0  0
  153.1445  142.9109  159.9213 C   0  0  0  0  0  0  0  0  0  0  0  0
  152.2873  143.4537  159.0063 C   0  0  0  0  0  0  0  0  0  0  0  0
  151.9017  144.8779  158.7749 C   0  0  0  0  0  0  0  0  0  0  0  0
  151.7871  142.4059  158.2537 N   0  0  0  0  0  0  0  0  0  0  0  0
  150.8543  142.4408  157.1373 C   0  0  0  0  0  0  0  0  0  0  0  0
  150.4173  141.0282  156.7460 C   0  0  0  0  0  0  0  0  0  0  0  0
  150.2820  140.1600  157.6074 O   0  0  0  0  0  0  0  0  0  0  0  0
  150.1878  140.8178  155.4423 N   0  0  0  0  0  0  0  0  0  0  0  0
  149.6774  139.5759  154.8779 C   0  0  0  0  0  0  0  0  0  0  0  0
  148.7641  139.8309  153.6499 C   0  0  2  0  0  0  0  0  0  0  0  0
  147.9295  141.1171  153.8566 C   0  0  0  0  0  0  0  0  0  0  0  0
  147.8620  138.6779  153.3225 N   0  3  0  0  0  0  0  0  0  0  0  0
  147.2871  138.0383  154.5374 C   0  0  0  0  0  0  0  0  0  0  0  0
  146.4510  136.8021  154.1697 C   0  0  0  0  0  0  0  0  0  0  0  0
  145.4147  137.1816  153.2767 O   0  0  0  0  0  0  0  0  0  0  0  0
  145.9381  137.7025  152.0641 C   0  0  0  0  0  0  0  0  0  0  0  0
  146.7709  138.9643  152.3499 C   0  0  0  0  0  0  0  0  0  0  0  0
  152.2949  141.2180  158.6514 N   0  0  0  0  0  0  0  0  0  0  0  0
  154.4233  140.7977  161.1935 H   0  0  0  0  0  0  0  0  0  0  0  0
  154.5698  139.9392  159.6632 H   0  0  0  0  0  0  0  0  0  0  0  0
  153.1830  139.6454  160.7111 H   0  0  0  0  0  0  0  0  0  0  0  0
  153.7164  143.4359  160.6721 H   0  0  0  0  0  0  0  0  0  0  0  0
  152.4127  145.5380  159.4759 H   0  0  0  0  0  0  0  0  0  0  0  0
  150.8286  145.0171  158.9061 H   0  0  0  0  0  0  0  0  0  0  0  0
  152.1653  145.1931  157.7653 H   0  0  0  0  0  0  0  0  0  0  0  0
  149.9822  143.0374  157.4096 H   0  0  0  0  0  0  0  0  0  0  0  0
  151.3269  142.9389  156.2902 H   0  0  0  0  0  0  0  0  0  0  0  0
  150.3279  141.5906  154.8070 H   0  0  0  0  0  0  0  0  0  0  0  0
  150.5470  138.9775  154.6034 H   0  0  0  0  0  0  0  0  0  0  0  0
  149.1280  139.0277  155.6454 H   0  0  0  0  0  0  0  0  0  0  0  0
  149.4237  139.9862  152.7943 H   0  0  0  0  0  0  0  0  0  0  0  0
  148.5584  141.9868  154.0480 H   0  0  0  0  0  0  0  0  0  0  0  0
  147.2519  141.0119  154.7042 H   0  0  0  0  0  0  0  0  0  0  0  0
  147.3297  141.3734  152.9853 H   0  0  0  0  0  0  0  0  0  0  0  0
  148.0688  137.7311  155.2293 H   0  0  0  0  0  0  0  0  0  0  0  0
  146.6625  138.7593  155.0673 H   0  0  0  0  0  0  0  0  0  0  0  0
  147.0742  136.0261  153.7218 H   0  0  0  0  0  0  0  0  0  0  0  0
  146.0031  136.3725  155.0662 H   0  0  0  0  0  0  0  0  0  0  0  0
  146.5403  136.9452  151.5592 H   0  0  0  0  0  0  0  0  0  0  0  0
  145.1093  137.9439  151.3983 H   0  0  0  0  0  0  0  0  0  0  0  0
  146.1297  139.7572  152.7387 H   0  0  0  0  0  0  0  0  0  0  0  0
  147.1765  139.3060  151.3980 H   0  0  0  0  0  0  0  0  0  0  0  0
  148.4471  137.9855  152.8765 H   0  0  0  0  0  0  0  0  0  0  0  0
  1  2  1  0  0  0  0
  1 21  1  0  0  0  0
  1 22  1  0  0  0  0
  1 23  1  0  0  0  0
  2 20  2  0  0  0  0
  2  3  1  0  0  0  0
  3  4  2  0  0  0  0
  3 24  1  0  0  0  0
  4  5  1  0  0  0  0
  4  6  1  0  0  0  0
  5 25  1  0  0  0  0
  5 26  1  0  0  0  0
  5 27  1  0  0  0  0
  6  7  1  0  0  0  0
  6 20  1  0  0  0  0
  7  8  1  0  0  0  0
  7 28  1  0  0  0  0
  7 29  1  0  0  0  0
  8  9  2  0  0  0  0
  8 10  1  0  0  0  0
 10 11  1  0  0  0  0
 10 30  1  0  0  0  0
 11 12  1  0  0  0  0
 11 31  1  0  0  0  0
 11 32  1  0  0  0  0
 12 13  1  0  0  0  0
 12 14  1  0  0  0  0
 12 33  1  0  0  0  0
 13 34  1  0  0  0  0
 13 35  1  0  0  0  0
 13 36  1  0  0  0  0
 14 19  1  0  0  0  0
 14 15  1  0  0  0  0
 14 45  1  0  0  0  0
 15 16  1  0  0  0  0
 15 37  1  0  0  0  0
 15 38  1  0  0  0  0
 16 17  1  0  0  0  0
 16 39  1  0  0  0  0
 16 40  1  0  0  0  0
 17 18  1  0  0  0  0
 18 19  1  0  0  0  0
 18 41  1  0  0  0  0
 18 42  1  0  0  0  0
 19 43  1  0  0  0  0
 19 44  1  0  0  0  0
M  CHG  1  14   1
M  END
> <s_m_source_file>
AV-unprocessed.smi

> <i_m_source_file_index>
2076

> <i_lp_mmshare_version>
43012

> <i_f3d_flags>
0

> <s_epik_input>
W0NIM11jMVtjSF1jKFtDSDNdKW4objEpW0NIMl1DKD1PKVtOSF1bQ0gyXVtDQEhdKFtDSDNdKU4yW0NIMl1bQ0gyXU9bQ0gyXVtDSDJdMg==

> <s_epik_cmdline>
J2VwaWtfcHl0aG9uJywgJy1waCcsICc3LjAnLCAnLXRuJywgJzgnLCAnLW1hJywgJzIwMCcsICctbWV0YWxfYmluZGluZycsICctaW1hZScsICc8aW5maWxlLm1hZT4nLCAnLW9tYWUnLCAnPG91dGZpbGUubWFlPic=

> <r_lp_tautomer_probability>
1

> <r_epik_Ionization_Penalty>
0.748594

> <r_epik_Ionization_Penalty_Charging>
0.748396

> <r_epik_Ionization_Penalty_Neutral>
0.000197403

> <r_epik_State_Penalty>
0.775162

> <r_epik_Charging_Adjusted_Penalty>
1.52356

> <i_epik_Tot_Q>
1

> <i_epik_Tot_abs_Q>
1

> <r_epik_Metal_State_Penalty>
0.77529

> <b_epik_Metal_Only>
0

> <s_lp_Force_Field>
OPLS_2005

> <r_lp_Energy>
18.1598

> <b_lp_Chiralities_Consistent>
1

> <s_lp_Variant>
AV-unprocessed.smi:2076-3

> <Gold.Version>
5.8.1

> <Gold.Id.Protein>
6NUR|6NUR_protein|mol2

> <Gold.PLP.Fitness>
42.6008

> <Gold.PLP.PLP>
-38.9301

> <Gold.PLP.part.hbond>
-2.0000

> <Gold.PLP.part.metal>
0.0000

> <Gold.PLP.part.buried>
-0.0682

> <Gold.PLP.part.nonpolar>
-38.8090

> <Gold.PLP.part.repulsive>
0.3449

> <Gold.PLP.ligand.clash>
0.0000

> <Gold.PLP.ligand.torsion>
1.1611

> <Gold.PLP.Chemscore.Hbond>
1.9825

> <Gold.PLP.Chemscore.CHOScore>
0.0000

> <Gold.PLP.Chemscore.Metal>
0.0000

> <Gold.Chemscore.Hbonds>
donor molecule, donor type, donor heavy atom, donor atom, acceptor molecule, acceptor atom, score
      L1  H    14    45       P1  7948  1.82

> <Gold.PLP.Chemscore.Internal.Correction>
0.0454

> <Gold.Rescore>
     Score         DG    S(hbond)    S(metal)    S(lipo)     H(rot)  DE(clash)    DE(int)     intcor
     12.76     -16.91       0.95        0.00     109.35       1.78       1.64       2.52       ----

> <Gold.Chemscore.Fitness>
12.7582

> <Gold.Chemscore.DG>
-16.9109

> <Gold.Chemscore.ZeroCoef>
-5.4800

> <Gold.Chemscore.Hbond>
0.9530

> <Gold.Chemscore.Metal>
0.0000

> <Gold.Chemscore.Lipo>
109.3520

> <Gold.Chemscore.Internal_Hbond>
0.0000

> <Gold.Chemscore.DEClash>
1.6376

> <Gold.Chemscore.DEInternal>
2.5150

> <Gold.Chemscore.Rot>
1.7760

> <Gold.Chemscore.Internal.Correction>
   9.000000E+99

> <Gold.Chemscore.Hbonds>
donor molecule, donor type, donor heavy atom, donor atom, acceptor molecule, acceptor atom, score
      L1  H    14    45       P1  7948  0.87

> <Gold.Chemscore.Hbond.Weighted>
-3.1832

> <Gold.Chemscore.Metal.Weighted>
-0.0000

> <Gold.Chemscore.Lipo.Weighted>
-12.7942

> <Gold.Chemscore.Internal_Hbond.Weighted>
0.0000

> <Gold.Chemscore.DEClash.Weighted>
1.6376

> <Gold.Chemscore.DEInternal.Weighted>
2.5150

> <Gold.Chemscore.Rot.Weighted>
4.5464

> <Gold.Chemscore.Internal.Correction.Weighted>
   9.000000E+99

> <Gold.Protein.RotatedTorsions>
[ 6907 6896 6895 6894 ] final -170.92 input  -60.11 | X-H torsion
[ 7974 7965 7964 7962 ] final  117.10 input  175.53 | X-H torsion
[ 8008 7997 7996 7995 ] final   46.70 input   59.86 | X-H torsion
[ 10167 10162 10161 10158 ] final  -62.36 input  -65.29 | X-H torsion
[ 10718 10713 10712 10709 ] final  145.54 input   66.30 | X-H torsion
[ 10763 10752 10751 10750 ] final   92.66 input  -60.55 | X-H torsion
[ 11005 11000 10999 10996 ] final -178.63 input  -57.11 | X-H torsion

> <Gold.Protein.ActiveResidues>
 VAL166  LYS551  ARG553  GLY616  TRP617  ASP618  TYR619  PRO620  LYS621  CYS622 
 ASP623  PHE694  ASN695  SER759  ASP760  ASP761  ALA762  ILE779  LEU786  VAL792 
 PHE793  MET794  SER795  GLU796  ALA797  LYS798  CYS799  TRP800  GLU811  SER814 

> <Gold.Protein.RotatedAtoms>
  151.5155  133.3476  159.2892 H   0  0  0  0  0  0  0  0  0  0  0  0  # atno 6907 bound_to 6896
  150.8685  134.8056  159.7148 H   0  0  0  0  0  0  0  0  0  0  0  0  # atno 6908 bound_to 6896
  152.4681  134.5036  159.9784 H   0  0  0  0  0  0  0  0  0  0  0  0  # atno 6909 bound_to 6896
  145.1715  139.3099  143.4465 H   0  0  0  0  0  0  0  0  0  0  0  0  # atno 7974 bound_to 7965
  155.3568  140.3416  155.4240 H   0  0  0  0  0  0  0  0  0  0  0  0  # atno 8008 bound_to 7997
  156.1735  140.1639  156.8440 H   0  0  0  0  0  0  0  0  0  0  0  0  # atno 8009 bound_to 7997
  154.5257  140.0756  156.8237 H   0  0  0  0  0  0  0  0  0  0  0  0  # atno 8010 bound_to 7997
  140.5944  143.2348  151.6068 H   0  0  0  0  0  0  0  0  0  0  0  0  # atno 10167 bound_to 10162
  157.3441  131.0940  151.1057 H   0  0  0  0  0  0  0  0  0  0  0  0  # atno 10718 bound_to 10713
  153.2217  135.4353  155.0496 H   0  0  0  0  0  0  0  0  0  0  0  0  # atno 10763 bound_to 10752
  154.8253  135.3358  154.6918 H   0  0  0  0  0  0  0  0  0  0  0  0  # atno 10764 bound_to 10752
  153.7349  135.7008  153.5036 H   0  0  0  0  0  0  0  0  0  0  0  0  # atno 10765 bound_to 10752
  140.4276  134.6548  157.4696 H   0  0  0  0  0  0  0  0  0  0  0  0  # atno 11005 bound_to 11000
  146.3468  140.1863  142.8589 LP  0  0  0  0  0  0  0  0  0  0  0  0  # atno 17320 bound_to 7965
  145.0228  140.8807  143.5157 LP  0  0  0  0  0  0  0  0  0  0  0  0  # atno 17321 bound_to 7965
  139.5249  144.3091  152.1008 LP  0  0  0  0  0  0  0  0  0  0  0  0  # atno 17342 bound_to 10162
  140.2261  144.4416  150.6320 LP  0  0  0  0  0  0  0  0  0  0  0  0  # atno 17343 bound_to 10162
  157.2258  130.6502  149.5829 LP  0  0  0  0  0  0  0  0  0  0  0  0  # atno 17370 bound_to 10713
  155.9712  130.4614  150.6110 LP  0  0  0  0  0  0  0  0  0  0  0  0  # atno 17371 bound_to 10713
  140.0156  134.6624  155.9314 LP  0  0  0  0  0  0  0  0  0  0  0  0  # atno 17394 bound_to 11000
  141.1759  133.6540  156.4826 LP  0  0  0  0  0  0  0  0  0  0  0  0  # atno 17395 bound_to 11000

$$$$
