AV-unprocessed.smi:1103|AV-procd|sdf|4771|dock4
  -GOLD-   22720 3313D 1   1.00000     0.00000
 Structure written by MMmdl.
 44 45  0  0  0  0  0  0  0  0  2 V2000
  148.4051  136.0841  155.5518 C   0  0  0  0  0  0  0  0  0  0  0  0
  147.1679  136.4986  154.7419 C   0  0  0  0  0  0  0  0  0  0  0  0
  147.4325  137.6554  153.8494 N   0  3  1  0  0  0  0  0  0  0  0  0
  146.3195  137.8907  152.8942 C   0  0  0  0  0  0  0  0  0  0  0  0
  146.6791  138.9965  151.8908 C   0  0  0  0  0  0  0  0  0  0  0  0
  147.0508  140.2942  152.6180 C   0  0  0  0  0  0  0  0  0  0  0  0
  148.1858  140.0391  153.6248 C   0  0  1  0  0  0  0  0  0  0  0  0
  148.5610  141.3395  154.3694 C   0  0  0  0  0  0  0  0  0  0  0  0
  149.0896  141.0955  155.7082 N   0  0  0  0  0  0  0  0  0  0  0  0
  150.3504  140.7276  155.9833 C   0  0  0  0  0  0  0  0  0  0  0  0
  151.2032  140.5508  155.1121 O   0  0  0  0  0  0  0  0  0  0  0  0
  150.6847  140.5335  157.4670 C   0  0  0  0  0  0  0  0  0  0  0  0
  151.2898  141.7149  158.0598 N   0  0  0  0  0  0  0  0  0  0  0  0
  151.0085  143.0418  157.8076 C   0  0  0  0  0  0  0  0  0  0  0  0
  151.8260  143.7941  158.6024 C   0  0  0  0  0  0  0  0  0  0  0  0
  151.9115  145.2890  158.7108 C   0  0  0  0  0  0  0  0  0  0  0  0
  152.5853  142.8202  159.3116 C   0  0  0  0  0  0  0  0  0  0  0  0
  152.2646  141.5793  158.9839 N   0  0  0  0  0  0  0  0  0  0  0  0
  147.7917  138.8963  154.5878 C   0  0  0  0  0  0  0  0  0  0  0  0
  148.2007  135.1789  156.1242 H   0  0  0  0  0  0  0  0  0  0  0  0
  148.7087  136.8517  156.2628 H   0  0  0  0  0  0  0  0  0  0  0  0
  149.2525  135.8760  154.8977 H   0  0  0  0  0  0  0  0  0  0  0  0
  146.8671  135.6407  154.1393 H   0  0  0  0  0  0  0  0  0  0  0  0
  146.3289  136.7190  155.4035 H   0  0  0  0  0  0  0  0  0  0  0  0
  146.0996  136.9725  152.3477 H   0  0  0  0  0  0  0  0  0  0  0  0
  145.4152  138.1578  153.4435 H   0  0  0  0  0  0  0  0  0  0  0  0
  147.5147  138.6711  151.2695 H   0  0  0  0  0  0  0  0  0  0  0  0
  145.8420  139.1743  151.2150 H   0  0  0  0  0  0  0  0  0  0  0  0
  147.3523  141.0498  151.8917 H   0  0  0  0  0  0  0  0  0  0  0  0
  146.1748  140.6892  153.1344 H   0  0  0  0  0  0  0  0  0  0  0  0
  149.0580  139.7118  153.0565 H   0  0  0  0  0  0  0  0  0  0  0  0
  149.2912  141.9096  153.7923 H   0  0  0  0  0  0  0  0  0  0  0  0
  147.6836  141.9795  154.4664 H   0  0  0  0  0  0  0  0  0  0  0  0
  148.4553  141.2306  156.4824 H   0  0  0  0  0  0  0  0  0  0  0  0
  149.7735  140.2785  158.0106 H   0  0  0  0  0  0  0  0  0  0  0  0
  151.3768  139.6992  157.5876 H   0  0  0  0  0  0  0  0  0  0  0  0
  150.2539  143.3370  157.0934 H   0  0  0  0  0  0  0  0  0  0  0  0
  152.6076  145.5998  159.4901 H   0  0  0  0  0  0  0  0  0  0  0  0
  150.9439  145.7305  158.9505 H   0  0  0  0  0  0  0  0  0  0  0  0
  152.2505  145.7411  157.7786 H   0  0  0  0  0  0  0  0  0  0  0  0
  153.3560  142.9777  160.0516 H   0  0  0  0  0  0  0  0  0  0  0  0
  146.9517  139.2035  155.2131 H   0  0  0  0  0  0  0  0  0  0  0  0
  148.6235  138.6896  155.2598 H   0  0  0  0  0  0  0  0  0  0  0  0
  148.2336  137.4044  153.2877 H   0  0  0  0  0  0  0  0  0  0  0  0
  1  2  1  0  0  0  0
  1 20  1  0  0  0  0
  1 21  1  0  0  0  0
  1 22  1  0  0  0  0
  2  3  1  0  0  0  0
  2 23  1  0  0  0  0
  2 24  1  0  0  0  0
  3 19  1  0  0  0  0
  3  4  1  0  0  0  0
  3 44  1  0  0  0  0
  4  5  1  0  0  0  0
  4 25  1  0  0  0  0
  4 26  1  0  0  0  0
  5  6  1  0  0  0  0
  5 27  1  0  0  0  0
  5 28  1  0  0  0  0
  6  7  1  0  0  0  0
  6 29  1  0  0  0  0
  6 30  1  0  0  0  0
  7  8  1  0  0  0  0
  7 19  1  0  0  0  0
  7 31  1  0  0  0  0
  8  9  1  0  0  0  0
  8 32  1  0  0  0  0
  8 33  1  0  0  0  0
  9 10  1  0  0  0  0
  9 34  1  0  0  0  0
 10 11  2  0  0  0  0
 10 12  1  0  0  0  0
 12 13  1  0  0  0  0
 12 35  1  0  0  0  0
 12 36  1  0  0  0  0
 13 18  1  0  0  0  0
 13 14  1  0  0  0  0
 14 15  2  0  0  0  0
 14 37  1  0  0  0  0
 15 16  1  0  0  0  0
 15 17  1  0  0  0  0
 16 38  1  0  0  0  0
 16 39  1  0  0  0  0
 16 40  1  0  0  0  0
 17 18  2  0  0  0  0
 17 41  1  0  0  0  0
 19 42  1  0  0  0  0
 19 43  1  0  0  0  0
M  CHG  1   3   1
M  END
> <s_m_source_file>
AV-unprocessed.smi

> <i_m_source_file_index>
1103

> <i_lp_mmshare_version>
43012

> <i_f3d_flags>
0

> <s_epik_input>
W0NIM11bQ0gyXU4xW0NIMl1bQ0gyXVtDSDJdW0NASF0oW0NIMl0xKVtDSDJdW05IXUMoPU8pW0NIMl1uMltjSF1jKFtDSDNdKVtjSF1uMg==

> <s_epik_cmdline>
J2VwaWtfcHl0aG9uJywgJy1waCcsICc3LjAnLCAnLXRuJywgJzgnLCAnLW1hJywgJzIwMCcsICctbWV0YWxfYmluZGluZycsICctaW1hZScsICc8aW5maWxlLm1hZT4nLCAnLW9tYWUnLCAnPG91dGZpbGUubWFlPic=

> <r_lp_tautomer_probability>
1

> <r_epik_Ionization_Penalty>
0.000672456

> <r_epik_Ionization_Penalty_Charging>
0.000647327

> <r_epik_Ionization_Penalty_Neutral>
2.51297e-05

> <r_epik_State_Penalty>
0.000409793

> <r_epik_Charging_Adjusted_Penalty>
0.00105712

> <i_epik_Tot_Q>
1

> <i_epik_Tot_abs_Q>
1

> <r_epik_Metal_State_Penalty>
-0

> <b_epik_Metal_Only>
0

> <s_lp_Force_Field>
OPLS_2005

> <r_lp_Energy>
19.0507

> <b_lp_Chiralities_Consistent>
1

> <s_lp_Variant>
AV-unprocessed.smi:1103-1

> <Gold.Version>
5.8.1

> <Gold.Id.Protein>
6NUR|6NUR_protein|mol2

> <Gold.PLP.Fitness>
44.9943

> <Gold.PLP.PLP>
-35.4090

> <Gold.PLP.part.hbond>
-2.0000

> <Gold.PLP.part.metal>
0.0000

> <Gold.PLP.part.buried>
1.2872

> <Gold.PLP.part.nonpolar>
-34.8004

> <Gold.PLP.part.repulsive>
0.1338

> <Gold.PLP.ligand.clash>
0.0000

> <Gold.PLP.ligand.torsion>
1.2256

> <Gold.PLP.Chemscore.Hbond>
2.9920

> <Gold.PLP.Chemscore.CHOScore>
0.9975

> <Gold.PLP.Chemscore.Metal>
0.0000

> <Gold.Chemscore.Hbonds>
donor molecule, donor type, donor heavy atom, donor atom, acceptor molecule, acceptor atom, score
      L1  H     3    44       P1  7948  1.89
      P1  H  7989  7998       L1    11  0.93
      L1  C    14    37       P1  8028  1.00

> <Gold.PLP.Chemscore.Internal.Correction>
0.0680

> <Gold.Rescore>
     Score         DG    S(hbond)    S(metal)    S(lipo)     H(rot)  DE(clash)    DE(int)     intcor
     17.42     -18.79       1.97        0.00      94.39       1.68       0.20       1.17       ----

> <Gold.Chemscore.Fitness>
17.4196

> <Gold.Chemscore.DG>
-18.7878

> <Gold.Chemscore.ZeroCoef>
-5.4800

> <Gold.Chemscore.Hbond>
1.9675

> <Gold.Chemscore.Metal>
0.0000

> <Gold.Chemscore.Lipo>
94.3850

> <Gold.Chemscore.Internal_Hbond>
0.0000

> <Gold.Chemscore.DEClash>
0.2010

> <Gold.Chemscore.DEInternal>
1.1672

> <Gold.Chemscore.Rot>
1.6823

> <Gold.Chemscore.Internal.Correction>
   9.000000E+99

> <Gold.Chemscore.Hbonds>
donor molecule, donor type, donor heavy atom, donor atom, acceptor molecule, acceptor atom, score
      L1  H     3    44       P1  7948  0.89
      P1  H  7989  7998       L1    11  0.91

> <Gold.Chemscore.Hbond.Weighted>
-6.5714

> <Gold.Chemscore.Metal.Weighted>
-0.0000

> <Gold.Chemscore.Lipo.Weighted>
-11.0430

> <Gold.Chemscore.Internal_Hbond.Weighted>
0.0000

> <Gold.Chemscore.DEClash.Weighted>
0.2010

> <Gold.Chemscore.DEInternal.Weighted>
1.1672

> <Gold.Chemscore.Rot.Weighted>
4.3066

> <Gold.Chemscore.Internal.Correction.Weighted>
   9.000000E+99

> <Gold.Protein.RotatedTorsions>
[ 6907 6896 6895 6894 ] final   12.52 input  -60.11 | X-H torsion
[ 7974 7965 7964 7962 ] final  171.62 input  175.53 | X-H torsion
[ 8008 7997 7996 7995 ] final -122.59 input   59.86 | X-H torsion
[ 10167 10162 10161 10158 ] final  -93.36 input  -65.29 | X-H torsion
[ 10718 10713 10712 10709 ] final   74.05 input   66.30 | X-H torsion
[ 10763 10752 10751 10750 ] final -169.07 input  -60.55 | X-H torsion
[ 11005 11000 10999 10996 ] final  -68.15 input  -57.11 | X-H torsion

> <Gold.Protein.ActiveResidues>
 VAL166  LYS551  ARG553  GLY616  TRP617  ASP618  TYR619  PRO620  LYS621  CYS622 
 ASP623  PHE694  ASN695  SER759  ASP760  ASP761  ALA762  ILE779  LEU786  VAL792 
 PHE793  MET794  SER795  GLU796  ALA797  LYS798  CYS799  TRP800  GLU811  SER814 

> <Gold.Protein.RotatedAtoms>
  151.7716  135.0785  160.0360 H   0  0  0  0  0  0  0  0  0  0  0  0  # atno 6907 bound_to 6896
  152.3284  133.5927  159.5801 H   0  0  0  0  0  0  0  0  0  0  0  0  # atno 6908 bound_to 6896
  150.7409  133.9821  159.3621 H   0  0  0  0  0  0  0  0  0  0  0  0  # atno 6909 bound_to 6896
  144.7290  139.9378  143.6427 H   0  0  0  0  0  0  0  0  0  0  0  0  # atno 7974 bound_to 7965
  155.1668  140.0407  157.2854 H   0  0  0  0  0  0  0  0  0  0  0  0  # atno 8008 bound_to 7997
  154.6298  140.2521  155.7421 H   0  0  0  0  0  0  0  0  0  0  0  0  # atno 8009 bound_to 7997
  156.2478  140.2877  156.0644 H   0  0  0  0  0  0  0  0  0  0  0  0  # atno 8010 bound_to 7997
  140.3254  143.3025  152.0001 H   0  0  0  0  0  0  0  0  0  0  0  0  # atno 10167 bound_to 10162
  157.6575  130.9659  150.1156 H   0  0  0  0  0  0  0  0  0  0  0  0  # atno 10718 bound_to 10713
  154.6562  135.2918  154.9925 H   0  0  0  0  0  0  0  0  0  0  0  0  # atno 10763 bound_to 10752
  154.1000  135.6578  153.4870 H   0  0  0  0  0  0  0  0  0  0  0  0  # atno 10764 bound_to 10752
  153.0404  135.5240  154.7492 H   0  0  0  0  0  0  0  0  0  0  0  0  # atno 10765 bound_to 10752
  141.1525  133.6734  156.6402 H   0  0  0  0  0  0  0  0  0  0  0  0  # atno 11005 bound_to 11000
  146.0808  139.3796  143.0465 LP  0  0  0  0  0  0  0  0  0  0  0  0  # atno 17320 bound_to 7965
  145.7843  140.9842  143.1082 LP  0  0  0  0  0  0  0  0  0  0  0  0  # atno 17321 bound_to 7965
  139.4866  144.6278  151.7130 LP  0  0  0  0  0  0  0  0  0  0  0  0  # atno 17342 bound_to 10162
  140.5446  144.0524  150.6102 LP  0  0  0  0  0  0  0  0  0  0  0  0  # atno 17343 bound_to 10162
  156.2041  130.3662  149.8751 LP  0  0  0  0  0  0  0  0  0  0  0  0  # atno 17370 bound_to 10713
  156.6648  130.8796  151.3553 LP  0  0  0  0  0  0  0  0  0  0  0  0  # atno 17371 bound_to 10713
  140.3399  134.7858  157.4390 LP  0  0  0  0  0  0  0  0  0  0  0  0  # atno 17394 bound_to 11000
  140.0947  134.5554  155.8410 LP  0  0  0  0  0  0  0  0  0  0  0  0  # atno 17395 bound_to 11000

$$$$
