AV-unprocessed.smi:265|AV-procd|sdf|2016|dock9
  -GOLD-   2262021213D 1   1.00000     0.00000
 Structure written by MMmdl.
 52 56  0  0  0  0  0  0  0  0  1 V2000
  145.3101  135.1961  150.7858 C   0  0  0  0  0  0  0  0  0  0  0  0
  145.2696  133.9178  151.6375 C   0  0  1  0  0  0  0  0  0  0  0  0
  144.0735  133.1766  151.4006 O   0  0  0  0  0  0  0  0  0  0  0  0
  144.3698  131.7951  151.2312 C   0  0  0  0  0  0  0  0  0  0  0  0
  145.7697  131.6115  151.8078 C   0  0  0  0  0  0  0  0  0  0  0  0
  146.4451  132.9305  151.4578 C   0  0  1  0  0  0  0  0  0  0  0  0
  146.8465  132.8855  150.0984 O   0  0  0  0  0  0  0  0  0  0  0  0
  147.7243  133.2593  152.2696 C   0  0  0  0  0  0  0  0  0  0  0  0
  147.5470  133.2927  153.7128 N   0  0  0  0  0  0  0  0  0  0  0  0
  146.6754  134.0910  154.4205 C   0  0  0  0  0  0  0  0  0  0  0  0
  146.7107  133.9438  155.7170 N   0  0  0  0  0  0  0  0  0  0  0  0
  147.6949  132.9851  155.9181 C   0  0  0  0  0  0  0  0  0  0  0  0
  148.2517  132.3700  157.0688 C   0  0  0  0  0  0  0  0  0  0  0  0
  147.8314  132.6742  158.3143 N   0  0  0  0  0  0  0  0  0  0  0  0
  148.2396  131.6919  159.3185 C   0  0  0  0  0  0  0  0  0  0  0  0
  147.5504  131.9624  160.6698 C   0  0  0  0  0  0  0  0  0  0  0  0
  147.7966  133.4150  161.1025 C   0  0  2  0  0  0  0  0  0  0  0  0
  147.0836  133.7457  162.2846 O   0  0  0  0  0  0  0  0  0  0  0  0
  147.4076  135.0407  162.8029 C   0  0  0  0  0  0  0  0  0  0  0  0
  147.4215  136.1371  161.7156 C   0  0  0  0  0  0  0  0  0  0  0  0
  147.4476  137.3216  162.0417 O   0  0  0  0  0  0  0  0  0  0  0  0
  147.4470  135.7543  160.4284 N   0  0  0  0  0  0  0  0  0  0  0  0
  147.2940  134.3687  160.0066 C   0  0  1  0  0  0  0  0  0  0  0  0
  148.0234  134.0757  158.6863 C   0  0  0  0  0  0  0  0  0  0  0  0
  149.2339  131.4483  156.8896 N   0  0  0  0  0  0  0  0  0  0  0  0
  149.6484  131.1505  155.6540 C   0  0  0  0  0  0  0  0  0  0  0  0
  149.2246  131.6460  154.4884 N   0  0  0  0  0  0  0  0  0  0  0  0
  148.2356  132.5682  154.6705 C   0  0  0  0  0  0  0  0  0  0  0  0
  148.8667  133.5537  161.2732 H   0  0  0  0  0  0  0  0  0  0  0  0
  146.2255  134.2042  159.8555 H   0  0  0  0  0  0  0  0  0  0  0  0
  146.2268  135.7577  150.9663 H   0  0  0  0  0  0  0  0  0  0  0  0
  144.4700  135.8470  151.0278 H   0  0  0  0  0  0  0  0  0  0  0  0
  145.2541  134.9735  149.7200 H   0  0  0  0  0  0  0  0  0  0  0  0
  145.2052  134.2123  152.6837 H   0  0  0  0  0  0  0  0  0  0  0  0
  143.6282  131.1646  151.7217 H   0  0  0  0  0  0  0  0  0  0  0  0
  144.3608  131.5620  150.1656 H   0  0  0  0  0  0  0  0  0  0  0  0
  145.6824  131.4910  152.8872 H   0  0  0  0  0  0  0  0  0  0  0  0
  146.2861  130.7352  151.4142 H   0  0  0  0  0  0  0  0  0  0  0  0
  147.5529  132.2636  150.0146 H   0  0  0  0  0  0  0  0  0  0  0  0
  148.5021  132.5270  152.0474 H   0  0  0  0  0  0  0  0  0  0  0  0
  148.1237  134.2256  151.9581 H   0  0  0  0  0  0  0  0  0  0  0  0
  146.0038  134.7879  153.9402 H   0  0  0  0  0  0  0  0  0  0  0  0
  147.9951  130.6861  158.9740 H   0  0  0  0  0  0  0  0  0  0  0  0
  149.3230  131.7317  159.4415 H   0  0  0  0  0  0  0  0  0  0  0  0
  146.4790  131.7794  160.5783 H   0  0  0  0  0  0  0  0  0  0  0  0
  147.9228  131.2725  161.4273 H   0  0  0  0  0  0  0  0  0  0  0  0
  146.6881  135.3011  163.5795 H   0  0  0  0  0  0  0  0  0  0  0  0
  148.3906  135.0031  163.2740 H   0  0  0  0  0  0  0  0  0  0  0  0
  147.4897  136.4631  159.7105 H   0  0  0  0  0  0  0  0  0  0  0  0
  149.0887  134.2880  158.7893 H   0  0  0  0  0  0  0  0  0  0  0  0
  147.6393  134.7210  157.8949 H   0  0  0  0  0  0  0  0  0  0  0  0
  150.4325  130.4102  155.5898 H   0  0  0  0  0  0  0  0  0  0  0  0
  1  2  1  0  0  0  0
  1 31  1  0  0  0  0
  1 32  1  0  0  0  0
  1 33  1  0  0  0  0
  2  6  1  0  0  0  0
  2  3  1  0  0  0  0
  2 34  1  0  0  0  0
  3  4  1  0  0  0  0
  4  5  1  0  0  0  0
  4 35  1  0  0  0  0
  4 36  1  0  0  0  0
  5  6  1  0  0  0  0
  5 37  1  0  0  0  0
  5 38  1  0  0  0  0
  6  7  1  0  0  0  0
  6  8  1  0  0  0  0
  7 39  1  0  0  0  0
  8  9  1  0  0  0  0
  8 40  1  0  0  0  0
  8 41  1  0  0  0  0
  9 28  1  0  0  0  0
  9 10  1  0  0  0  0
 10 11  2  0  0  0  0
 10 42  1  0  0  0  0
 11 12  1  0  0  0  0
 12 28  2  0  0  0  0
 12 13  1  0  0  0  0
 13 14  1  0  0  0  0
 13 25  2  0  0  0  0
 14 24  1  0  0  0  0
 14 15  1  0  0  0  0
 15 16  1  0  0  0  0
 15 43  1  0  0  0  0
 15 44  1  0  0  0  0
 16 17  1  0  0  0  0
 16 45  1  0  0  0  0
 16 46  1  0  0  0  0
 17 29  1  0  0  0  0
 17 23  1  0  0  0  0
 17 18  1  0  0  0  0
 18 19  1  0  0  0  0
 19 20  1  0  0  0  0
 19 47  1  0  0  0  0
 19 48  1  0  0  0  0
 20 21  2  0  0  0  0
 20 22  1  0  0  0  0
 22 23  1  0  0  0  0
 22 49  1  0  0  0  0
 23 30  1  0  0  0  0
 23 24  1  0  0  0  0
 24 50  1  0  0  0  0
 24 51  1  0  0  0  0
 25 26  1  0  0  0  0
 26 27  2  0  0  0  0
 26 52  1  0  0  0  0
 27 28  1  0  0  0  0
M  END
> <s_m_source_file>
AV-unprocessed.smi

> <i_m_source_file_index>
265

> <i_lp_mmshare_version>
43012

> <i_f3d_flags>
0

> <s_epik_input>
W0NIMl0xW0NIMl1PW0NAQEhdKFtDSDNdKVtDQEBdMShbT0hdKVtDSDJdbihbY0hdbjIpYyhjMjMpbltjSF1uYzNOKFtDSDJdW0NIMl00KVtDSDJdW0NAQEhdKFtDQEhdNDUpW05IXUMoPU8pW0NIMl1PNQ==

> <s_epik_cmdline>
J2VwaWtfcHl0aG9uJywgJy1waCcsICc3LjAnLCAnLXRuJywgJzgnLCAnLW1hJywgJzIwMCcsICctbWV0YWxfYmluZGluZycsICctaW1hZScsICc8aW5maWxlLm1hZT4nLCAnLW9tYWUnLCAnPG91dGZpbGUubWFlPic=

> <r_lp_tautomer_probability>
1

> <r_epik_Ionization_Penalty>
0.00221504

> <r_epik_Ionization_Penalty_Charging>
0

> <r_epik_Ionization_Penalty_Neutral>
0.00221504

> <r_epik_State_Penalty>
-0

> <r_epik_Charging_Adjusted_Penalty>
0

> <i_epik_Tot_Q>
0

> <i_epik_Tot_abs_Q>
0

> <r_epik_Metal_State_Penalty>
-0

> <b_epik_Metal_Only>
0

> <s_lp_Force_Field>
OPLS_2005

> <r_lp_Energy>
49.8504

> <b_lp_Chiralities_Consistent>
1

> <s_lp_Variant>
AV-unprocessed.smi:265-2

> <Gold.Version>
5.8.1

> <Gold.Id.Protein>
6NUR|6NUR_protein|mol2

> <Gold.PLP.Fitness>
45.8487

> <Gold.PLP.PLP>
-38.5122

> <Gold.PLP.part.hbond>
-4.1329

> <Gold.PLP.part.metal>
0.0000

> <Gold.PLP.part.buried>
-5.6311

> <Gold.PLP.part.nonpolar>
-29.1241

> <Gold.PLP.part.repulsive>
0.3163

> <Gold.PLP.ligand.clash>
0.0000

> <Gold.PLP.ligand.torsion>
0.2272

> <Gold.PLP.Chemscore.Hbond>
2.5200

> <Gold.PLP.Chemscore.CHOScore>
0.0000

> <Gold.PLP.Chemscore.Metal>
0.0000

> <Gold.Chemscore.Hbonds>
donor molecule, donor type, donor heavy atom, donor atom, acceptor molecule, acceptor atom, score
      L1  H     7    39       P1 10747  1.00
      P1  H  6931  6943       L1    21  0.85
      P1  H  6934  6947       L1    21  0.65

> <Gold.PLP.Chemscore.Internal.Correction>
0.2310

> <Gold.Rescore>
     Score         DG    S(hbond)    S(metal)    S(lipo)     H(rot)  DE(clash)    DE(int)     intcor
     16.69     -17.05       2.61        0.00      73.40       2.25       0.14       0.22       ----

> <Gold.Chemscore.Fitness>
16.6879

> <Gold.Chemscore.DG>
-17.0497

> <Gold.Chemscore.ZeroCoef>
-5.4800

> <Gold.Chemscore.Hbond>
2.6137

> <Gold.Chemscore.Metal>
0.0000

> <Gold.Chemscore.Lipo>
73.3989

> <Gold.Chemscore.Internal_Hbond>
0.0000

> <Gold.Chemscore.DEClash>
0.1394

> <Gold.Chemscore.DEInternal>
0.2223

> <Gold.Chemscore.Rot>
2.2453

> <Gold.Chemscore.Internal.Correction>
   9.000000E+99

> <Gold.Chemscore.Hbonds>
donor molecule, donor type, donor heavy atom, donor atom, acceptor molecule, acceptor atom, score
      L1  H     7    39       P1 10747  0.96
      P1  H  6931  6943       L1    21  0.81
      P1  H  6934  6947       L1    21  0.61

> <Gold.Chemscore.Hbond.Weighted>
-8.7299

> <Gold.Chemscore.Metal.Weighted>
-0.0000

> <Gold.Chemscore.Lipo.Weighted>
-8.5877

> <Gold.Chemscore.Internal_Hbond.Weighted>
0.0000

> <Gold.Chemscore.DEClash.Weighted>
0.1394

> <Gold.Chemscore.DEInternal.Weighted>
0.2223

> <Gold.Chemscore.Rot.Weighted>
5.7479

> <Gold.Chemscore.Internal.Correction.Weighted>
   9.000000E+99

> <Gold.Protein.RotatedTorsions>
[ 6907 6896 6895 6894 ] final   34.98 input  -60.11 | X-H torsion
[ 7974 7965 7964 7962 ] final   97.03 input  175.53 | X-H torsion
[ 8008 7997 7996 7995 ] final  -49.90 input   59.86 | X-H torsion
[ 10167 10162 10161 10158 ] final  -87.74 input  -65.29 | X-H torsion
[ 10718 10713 10712 10709 ] final -107.14 input   66.30 | X-H torsion
[ 10763 10752 10751 10750 ] final  130.59 input  -60.55 | X-H torsion
[ 11005 11000 10999 10996 ] final -160.28 input  -57.11 | X-H torsion

> <Gold.Protein.ActiveResidues>
 VAL166  LYS551  ARG553  GLY616  TRP617  ASP618  TYR619  PRO620  LYS621  CYS622 
 ASP623  PHE694  ASN695  SER759  ASP760  ASP761  ALA762  ILE779  LEU786  VAL792 
 PHE793  MET794  SER795  GLU796  ALA797  LYS798  CYS799  TRP800  GLU811  SER814 

> <Gold.Protein.RotatedAtoms>
  152.1099  134.9282  160.0566 H   0  0  0  0  0  0  0  0  0  0  0  0  # atno 6907 bound_to 6896
  152.0464  133.3995  159.4366 H   0  0  0  0  0  0  0  0  0  0  0  0  # atno 6908 bound_to 6896
  150.6843  134.3278  159.4858 H   0  0  0  0  0  0  0  0  0  0  0  0  # atno 6909 bound_to 6896
  145.4309  139.2310  143.3144 H   0  0  0  0  0  0  0  0  0  0  0  0  # atno 7974 bound_to 7965
  154.4052  140.1285  156.4578 H   0  0  0  0  0  0  0  0  0  0  0  0  # atno 8008 bound_to 7997
  155.7302  140.3491  155.5036 H   0  0  0  0  0  0  0  0  0  0  0  0  # atno 8009 bound_to 7997
  155.9134  140.1040  157.1252 H   0  0  0  0  0  0  0  0  0  0  0  0  # atno 8010 bound_to 7997
  140.3815  143.2746  151.9378 H   0  0  0  0  0  0  0  0  0  0  0  0  # atno 10167 bound_to 10162
  156.0422  130.5648  150.7779 H   0  0  0  0  0  0  0  0  0  0  0  0  # atno 10718 bound_to 10713
  153.7605  135.3196  155.3336 H   0  0  0  0  0  0  0  0  0  0  0  0  # atno 10763 bound_to 10752
  154.8232  135.4589  154.0842 H   0  0  0  0  0  0  0  0  0  0  0  0  # atno 10764 bound_to 10752
  153.2072  135.6931  153.8242 H   0  0  0  0  0  0  0  0  0  0  0  0  # atno 10765 bound_to 10752
  140.6333  134.4629  157.5230 H   0  0  0  0  0  0  0  0  0  0  0  0  # atno 11005 bound_to 11000
  146.2607  140.5046  142.8854 LP  0  0  0  0  0  0  0  0  0  0  0  0  # atno 17320 bound_to 7965
  144.8183  140.6506  143.6370 LP  0  0  0  0  0  0  0  0  0  0  0  0  # atno 17321 bound_to 7965
  139.4795  144.5814  151.7926 LP  0  0  0  0  0  0  0  0  0  0  0  0  # atno 17342 bound_to 10162
  140.4933  144.1278  150.5955 LP  0  0  0  0  0  0  0  0  0  0  0  0  # atno 17343 bound_to 10162
  157.5255  131.0934  151.0023 LP  0  0  0  0  0  0  0  0  0  0  0  0  # atno 17370 bound_to 10713
  157.0343  130.5724  149.5347 LP  0  0  0  0  0  0  0  0  0  0  0  0  # atno 17371 bound_to 10713
  139.9108  134.8349  156.1536 LP  0  0  0  0  0  0  0  0  0  0  0  0  # atno 17394 bound_to 11000
  141.0660  133.6819  156.2045 LP  0  0  0  0  0  0  0  0  0  0  0  0  # atno 17395 bound_to 11000

$$$$
