AV-unprocessed.smi:435|AV-procd|sdf|2556|dock3
  -GOLD-   2262022523D 1   1.00000     0.00000
 Structure written by MMmdl.
 44 45  0  0  0  0  0  0  0  0  1 V2000
  151.1220  144.7521  160.1956 C   0  0  0  0  0  0  0  0  0  0  0  0
  151.6899  143.4255  159.7682 C   0  0  0  0  0  0  0  0  0  0  0  0
  151.3877  143.0221  158.5781 N   0  0  0  0  0  0  0  0  0  0  0  0
  151.8551  141.8190  158.0856 N   0  0  0  0  0  0  0  0  0  0  0  0
  151.4338  141.5306  156.7066 C   0  0  0  0  0  0  0  0  0  0  0  0
  149.9734  141.0671  156.5986 C   0  0  0  0  0  0  0  0  0  0  0  0
  149.5728  140.0882  157.2303 O   0  0  0  0  0  0  0  0  0  0  0  0
  149.1924  141.7784  155.7714 N   0  0  0  0  0  0  0  0  0  0  0  0
  147.7772  141.5252  155.5190 C   0  0  2  0  0  0  0  0  0  0  0  0
  147.2183  142.5240  154.4856 C   0  0  0  0  0  0  0  0  0  0  0  0
  145.7100  142.3219  154.2673 C   0  0  0  0  0  0  0  0  0  0  0  0
  144.9263  142.4182  155.5901 C   0  0  1  0  0  0  0  0  0  0  0  0
  143.4214  142.2122  155.3678 C   0  0  0  0  0  0  0  0  0  0  0  0
  145.4865  141.4170  156.6181 C   0  0  0  0  0  0  0  0  0  0  0  0
  146.9940  141.6183  156.8409 C   0  0  0  0  0  0  0  0  0  0  0  0
  152.6408  140.9475  158.7821 C   0  0  0  0  0  0  0  0  0  0  0  0
  153.0198  139.8746  158.3100 O   0  0  0  0  0  0  0  0  0  0  0  0
  152.9837  141.4135  160.1275 C   0  0  0  0  0  0  0  0  0  0  0  0
  153.8126  140.5350  160.8881 C   0  0  0  0  0  0  0  0  0  0  0  0
  154.4948  139.8391  161.5128 N   0  0  0  0  0  0  0  0  0  0  0  0
  152.5434  142.5995  160.6167 C   0  0  0  0  0  0  0  0  0  0  0  0
  152.8711  143.1255  162.0076 C   0  0  0  0  0  0  0  0  0  0  0  0
  150.5942  144.6614  161.1449 H   0  0  0  0  0  0  0  0  0  0  0  0
  150.4146  145.1459  159.4644 H   0  0  0  0  0  0  0  0  0  0  0  0
  151.9151  145.4896  160.3180 H   0  0  0  0  0  0  0  0  0  0  0  0
  151.5840  142.4126  156.0811 H   0  0  0  0  0  0  0  0  0  0  0  0
  152.0658  140.7539  156.2725 H   0  0  0  0  0  0  0  0  0  0  0  0
  149.6069  142.5614  155.2868 H   0  0  0  0  0  0  0  0  0  0  0  0
  147.6631  140.5119  155.1289 H   0  0  0  0  0  0  0  0  0  0  0  0
  147.4012  143.5455  154.8219 H   0  0  0  0  0  0  0  0  0  0  0  0
  147.7399  142.4151  153.5340 H   0  0  0  0  0  0  0  0  0  0  0  0
  145.3414  143.0657  153.5601 H   0  0  0  0  0  0  0  0  0  0  0  0
  145.5388  141.3478  153.8069 H   0  0  0  0  0  0  0  0  0  0  0  0
  145.0642  143.4238  155.9903 H   0  0  0  0  0  0  0  0  0  0  0  0
  143.2115  141.2198  154.9676 H   0  0  0  0  0  0  0  0  0  0  0  0
  143.0239  142.9453  154.6652 H   0  0  0  0  0  0  0  0  0  0  0  0
  142.8689  142.3184  156.3015 H   0  0  0  0  0  0  0  0  0  0  0  0
  144.9606  141.5237  157.5675 H   0  0  0  0  0  0  0  0  0  0  0  0
  145.3038  140.3968  156.2775 H   0  0  0  0  0  0  0  0  0  0  0  0
  147.3622  140.8724  157.5464 H   0  0  0  0  0  0  0  0  0  0  0  0
  147.1630  142.5915  157.3042 H   0  0  0  0  0  0  0  0  0  0  0  0
  153.6374  142.5291  162.5020 H   0  0  0  0  0  0  0  0  0  0  0  0
  151.9812  143.1111  162.6370 H   0  0  0  0  0  0  0  0  0  0  0  0
  153.2425  144.1494  161.9595 H   0  0  0  0  0  0  0  0  0  0  0  0
  1  2  1  0  0  0  0
  1 23  1  0  0  0  0
  1 24  1  0  0  0  0
  1 25  1  0  0  0  0
  2 21  1  0  0  0  0
  2  3  2  0  0  0  0
  3  4  1  0  0  0  0
  4  5  1  0  0  0  0
  4 16  1  0  0  0  0
  5  6  1  0  0  0  0
  5 26  1  0  0  0  0
  5 27  1  0  0  0  0
  6  7  2  0  0  0  0
  6  8  1  0  0  0  0
  8  9  1  0  0  0  0
  8 28  1  0  0  0  0
  9 15  1  0  0  0  0
  9 10  1  0  0  0  0
  9 29  1  0  0  0  0
 10 11  1  0  0  0  0
 10 30  1  0  0  0  0
 10 31  1  0  0  0  0
 11 12  1  0  0  0  0
 11 32  1  0  0  0  0
 11 33  1  0  0  0  0
 12 13  1  0  0  0  0
 12 14  1  0  0  0  0
 12 34  1  0  0  0  0
 13 35  1  0  0  0  0
 13 36  1  0  0  0  0
 13 37  1  0  0  0  0
 14 15  1  0  0  0  0
 14 38  1  0  0  0  0
 14 39  1  0  0  0  0
 15 40  1  0  0  0  0
 15 41  1  0  0  0  0
 16 17  2  0  0  0  0
 16 18  1  0  0  0  0
 18 19  1  0  0  0  0
 18 21  2  0  0  0  0
 19 20  3  0  0  0  0
 21 22  1  0  0  0  0
 22 42  1  0  0  0  0
 22 43  1  0  0  0  0
 22 44  1  0  0  0  0
M  END
> <s_m_source_file>
AV-unprocessed.smi

> <i_m_source_file_index>
435

> <i_lp_mmshare_version>
43012

> <i_f3d_flags>
0

> <s_epik_input>
TiNDYyhjMVtDSDNdKWMoPU8pbihuYzFbQ0gzXSlbQ0gyXUMoPU8pW05IXVtDQEBIXTJbQ0gyXVtDSDJdW0NAQEhdKFtDSDNdKVtDSDJdW0NIMl0y

> <s_epik_cmdline>
J2VwaWtfcHl0aG9uJywgJy1waCcsICc3LjAnLCAnLXRuJywgJzgnLCAnLW1hJywgJzIwMCcsICctbWV0YWxfYmluZGluZycsICctaW1hZScsICc8aW5maWxlLm1hZT4nLCAnLW9tYWUnLCAnPG91dGZpbGUubWFlPic=

> <r_lp_tautomer_probability>
1

> <r_epik_Ionization_Penalty>
1.90703e-08

> <r_epik_Ionization_Penalty_Charging>
2.32563e-11

> <r_epik_Ionization_Penalty_Neutral>
1.90471e-08

> <r_epik_State_Penalty>
-0

> <r_epik_Charging_Adjusted_Penalty>
2.32563e-11

> <i_epik_Tot_Q>
0

> <i_epik_Tot_abs_Q>
0

> <r_epik_Metal_State_Penalty>
-0

> <b_epik_Metal_Only>
0

> <s_lp_Force_Field>
OPLS_2005

> <r_lp_Energy>
23.1706

> <b_lp_Chiralities_Consistent>
1

> <s_lp_Variant>
AV-unprocessed.smi:435-1

> <Gold.Version>
5.8.1

> <Gold.Id.Protein>
6NUR|6NUR_protein|mol2

> <Gold.PLP.Fitness>
42.5280

> <Gold.PLP.PLP>
-38.7683

> <Gold.PLP.part.hbond>
-2.0000

> <Gold.PLP.part.metal>
0.0000

> <Gold.PLP.part.buried>
-4.0340

> <Gold.PLP.part.nonpolar>
-33.0236

> <Gold.PLP.part.repulsive>
0.2191

> <Gold.PLP.ligand.clash>
0.0000

> <Gold.PLP.ligand.torsion>
0.2330

> <Gold.PLP.Chemscore.Hbond>
1.4072

> <Gold.PLP.Chemscore.CHOScore>
0.0000

> <Gold.PLP.Chemscore.Metal>
0.0000

> <Gold.Chemscore.Hbonds>
donor molecule, donor type, donor heavy atom, donor atom, acceptor molecule, acceptor atom, score
      L1  H     8    28       P1  8028  0.14
      P1  H  7997  8010       L1    17  0.93

> <Gold.PLP.Chemscore.Internal.Correction>
0.0041

> <Gold.Rescore>
     Score         DG    S(hbond)    S(metal)    S(lipo)     H(rot)  DE(clash)    DE(int)     intcor
     16.11     -16.53       1.51        0.00      83.23       1.46       0.13       0.30       ----

> <Gold.Chemscore.Fitness>
16.1053

> <Gold.Chemscore.DG>
-16.5291

> <Gold.Chemscore.ZeroCoef>
-5.4800

> <Gold.Chemscore.Hbond>
1.5128

> <Gold.Chemscore.Metal>
0.0000

> <Gold.Chemscore.Lipo>
83.2289

> <Gold.Chemscore.Internal_Hbond>
0.0000

> <Gold.Chemscore.DEClash>
0.1277

> <Gold.Chemscore.DEInternal>
0.2961

> <Gold.Chemscore.Rot>
1.4615

> <Gold.Chemscore.Internal.Correction>
   9.000000E+99

> <Gold.Chemscore.Hbonds>
donor molecule, donor type, donor heavy atom, donor atom, acceptor molecule, acceptor atom, score
      L1  H     8    28       P1  8028  0.15
      P1  H  7997  8010       L1    17  0.75

> <Gold.Chemscore.Hbond.Weighted>
-5.0526

> <Gold.Chemscore.Metal.Weighted>
-0.0000

> <Gold.Chemscore.Lipo.Weighted>
-9.7378

> <Gold.Chemscore.Internal_Hbond.Weighted>
0.0000

> <Gold.Chemscore.DEClash.Weighted>
0.1277

> <Gold.Chemscore.DEInternal.Weighted>
0.2961

> <Gold.Chemscore.Rot.Weighted>
3.7414

> <Gold.Chemscore.Internal.Correction.Weighted>
   9.000000E+99

> <Gold.Protein.RotatedTorsions>
[ 6907 6896 6895 6894 ] final  -29.31 input  -60.11 | X-H torsion
[ 7974 7965 7964 7962 ] final  -49.46 input  175.53 | X-H torsion
[ 8008 7997 7996 7995 ] final   47.41 input   59.86 | X-H torsion
[ 10167 10162 10161 10158 ] final  117.96 input  -65.29 | X-H torsion
[ 10718 10713 10712 10709 ] final  131.19 input   66.30 | X-H torsion
[ 10763 10752 10751 10750 ] final -104.29 input  -60.55 | X-H torsion
[ 11005 11000 10999 10996 ] final  -47.53 input  -57.11 | X-H torsion

> <Gold.Protein.ActiveResidues>
 VAL166  LYS551  ARG553  GLY616  TRP617  ASP618  TYR619  PRO620  LYS621  CYS622 
 ASP623  PHE694  ASN695  SER759  ASP760  ASP761  ALA762  ILE779  LEU786  VAL792 
 PHE793  MET794  SER795  GLU796  ALA797  LYS798  CYS799  TRP800  GLU811  SER814 

> <Gold.Protein.RotatedAtoms>
  151.1209  135.0078  159.8537 H   0  0  0  0  0  0  0  0  0  0  0  0  # atno 6907 bound_to 6896
  152.5448  134.1724  159.8612 H   0  0  0  0  0  0  0  0  0  0  0  0  # atno 6908 bound_to 6896
  151.1782  133.4697  159.2627 H   0  0  0  0  0  0  0  0  0  0  0  0  # atno 6909 bound_to 6896
  145.9403  140.7668  142.9555 H   0  0  0  0  0  0  0  0  0  0  0  0  # atno 7974 bound_to 7965
  155.3686  140.3422  155.4242 H   0  0  0  0  0  0  0  0  0  0  0  0  # atno 8008 bound_to 7997
  156.1675  140.1621  156.8540 H   0  0  0  0  0  0  0  0  0  0  0  0  # atno 8009 bound_to 7997
  154.5199  140.0769  156.8135 H   0  0  0  0  0  0  0  0  0  0  0  0  # atno 8010 bound_to 7997
  139.6144  144.7089  151.2773 H   0  0  0  0  0  0  0  0  0  0  0  0  # atno 10167 bound_to 10162
  157.4991  131.1093  150.9451 H   0  0  0  0  0  0  0  0  0  0  0  0  # atno 10718 bound_to 10713
  154.7868  135.4792  153.9963 H   0  0  0  0  0  0  0  0  0  0  0  0  # atno 10763 bound_to 10752
  153.1571  135.6802  153.8803 H   0  0  0  0  0  0  0  0  0  0  0  0  # atno 10764 bound_to 10752
  153.8429  135.3177  155.3405 H   0  0  0  0  0  0  0  0  0  0  0  0  # atno 10765 bound_to 10752
  141.0646  133.6698  156.3311 H   0  0  0  0  0  0  0  0  0  0  0  0  # atno 11005 bound_to 11000
  144.6778  140.2270  143.7360 LP  0  0  0  0  0  0  0  0  0  0  0  0  # atno 17320 bound_to 7965
  145.8308  139.2085  143.1884 LP  0  0  0  0  0  0  0  0  0  0  0  0  # atno 17321 bound_to 7965
  140.7341  143.6777  150.8028 LP  0  0  0  0  0  0  0  0  0  0  0  0  # atno 17342 bound_to 10162
  140.0377  143.5378  152.2732 LP  0  0  0  0  0  0  0  0  0  0  0  0  # atno 17343 bound_to 10162
  157.0128  130.5643  149.5322 LP  0  0  0  0  0  0  0  0  0  0  0  0  # atno 17370 bound_to 10713
  156.0218  130.5313  150.8297 LP  0  0  0  0  0  0  0  0  0  0  0  0  # atno 17371 bound_to 10713
  140.5799  134.5756  157.5477 LP  0  0  0  0  0  0  0  0  0  0  0  0  # atno 17394 bound_to 11000
  139.9464  134.7694  156.0551 LP  0  0  0  0  0  0  0  0  0  0  0  0  # atno 17395 bound_to 11000

$$$$
