AV-unprocessed.smi:1295|AV-procd|sdf|5410|dock8
  -GOLD-   22720 4573D 1   1.00000     0.00000
 Structure written by MMmdl.
 42 43  0  0  0  0  0  0  0  0  2 V2000
  154.3308  137.8839  157.2984 C   0  0  0  0  0  0  0  0  0  0  0  0
  153.0489  138.0029  156.5023 C   0  0  0  0  0  0  0  0  0  0  0  0
  152.4473  136.9399  156.1246 N   0  0  0  0  0  0  0  0  0  0  0  0
  151.2545  137.0447  155.3893 C   0  0  0  0  0  0  0  0  0  0  0  0
  150.6036  135.7310  154.9915 C   0  0  0  0  0  0  0  0  0  0  0  0
  150.7285  138.2614  155.0670 C   0  0  0  0  0  0  0  0  0  0  0  0
  149.4287  138.4258  154.2798 C   0  0  0  0  0  0  0  0  0  0  0  0
  148.2018  137.7293  154.8720 C   0  0  0  0  0  0  0  0  0  0  0  0
  147.7308  138.1047  155.9454 O   0  0  0  0  0  0  0  0  0  0  0  0
  147.6943  136.7169  154.1519 N   0  0  0  0  0  0  0  0  0  0  0  0
  146.5001  135.9347  154.4762 C   0  0  1  0  0  0  0  0  0  0  0  0
  145.2433  136.8054  154.2767 C   0  0  0  0  0  0  0  0  0  0  0  0
  144.9736  137.1050  152.7915 C   0  0  0  0  0  0  0  0  0  0  0  0
  144.8819  135.8095  151.9711 C   0  0  0  0  0  0  0  0  0  0  0  0
  146.1395  134.9436  152.1493 C   0  0  0  0  0  0  0  0  0  0  0  0
  146.4112  134.6345  153.6364 C   0  0  1  0  0  0  0  0  0  0  0  0
  147.6339  133.7174  153.8095 C   0  0  0  0  0  0  0  0  0  0  0  0
  151.4574  139.4621  155.5142 C   0  0  0  0  0  0  0  0  0  0  0  0
  151.0356  140.5845  155.2380 O   0  0  0  0  0  0  0  0  0  0  0  0
  152.6014  139.2765  156.2328 N   0  5  0  0  0  0  0  0  0  0  0  0
  154.6960  136.8560  157.3034 H   0  0  0  0  0  0  0  0  0  0  0  0
  154.1620  138.1933  158.3301 H   0  0  0  0  0  0  0  0  0  0  0  0
  155.1064  138.5186  156.8687 H   0  0  0  0  0  0  0  0  0  0  0  0
  149.6223  135.6341  155.4562 H   0  0  0  0  0  0  0  0  0  0  0  0
  151.2087  134.8799  155.3061 H   0  0  0  0  0  0  0  0  0  0  0  0
  150.4845  135.6717  153.9097 H   0  0  0  0  0  0  0  0  0  0  0  0
  149.2234  139.4932  154.1917 H   0  0  0  0  0  0  0  0  0  0  0  0
  149.5482  138.0844  153.2513 H   0  0  0  0  0  0  0  0  0  0  0  0
  148.1619  136.4815  153.2887 H   0  0  0  0  0  0  0  0  0  0  0  0
  146.5319  135.6550  155.5306 H   0  0  0  0  0  0  0  0  0  0  0  0
  144.3800  136.2880  154.6973 H   0  0  0  0  0  0  0  0  0  0  0  0
  145.3377  137.7377  154.8353 H   0  0  0  0  0  0  0  0  0  0  0  0
  144.0494  137.6744  152.6902 H   0  0  0  0  0  0  0  0  0  0  0  0
  145.7673  137.7368  152.3907 H   0  0  0  0  0  0  0  0  0  0  0  0
  144.0020  135.2437  152.2795 H   0  0  0  0  0  0  0  0  0  0  0  0
  144.7412  136.0470  150.9163 H   0  0  0  0  0  0  0  0  0  0  0  0
  146.0195  134.0135  151.5928 H   0  0  0  0  0  0  0  0  0  0  0  0
  146.9992  135.4528  151.7117 H   0  0  0  0  0  0  0  0  0  0  0  0
  145.5511  134.0761  154.0095 H   0  0  0  0  0  0  0  0  0  0  0  0
  148.5393  134.1699  153.4046 H   0  0  0  0  0  0  0  0  0  0  0  0
  147.4856  132.7672  153.2960 H   0  0  0  0  0  0  0  0  0  0  0  0
  147.8128  133.4982  154.8625 H   0  0  0  0  0  0  0  0  0  0  0  0
  1  2  1  0  0  0  0
  1 21  1  0  0  0  0
  1 22  1  0  0  0  0
  1 23  1  0  0  0  0
  2 20  1  0  0  0  0
  2  3  2  0  0  0  0
  3  4  1  0  0  0  0
  4  5  1  0  0  0  0
  4  6  2  0  0  0  0
  5 24  1  0  0  0  0
  5 25  1  0  0  0  0
  5 26  1  0  0  0  0
  6  7  1  0  0  0  0
  6 18  1  0  0  0  0
  7  8  1  0  0  0  0
  7 27  1  0  0  0  0
  7 28  1  0  0  0  0
  8  9  2  0  0  0  0
  8 10  1  0  0  0  0
 10 11  1  0  0  0  0
 10 29  1  0  0  0  0
 11 16  1  0  0  0  0
 11 12  1  0  0  0  0
 11 30  1  0  0  0  0
 12 13  1  0  0  0  0
 12 31  1  0  0  0  0
 12 32  1  0  0  0  0
 13 14  1  0  0  0  0
 13 33  1  0  0  0  0
 13 34  1  0  0  0  0
 14 15  1  0  0  0  0
 14 35  1  0  0  0  0
 14 36  1  0  0  0  0
 15 16  1  0  0  0  0
 15 37  1  0  0  0  0
 15 38  1  0  0  0  0
 16 17  1  0  0  0  0
 16 39  1  0  0  0  0
 17 40  1  0  0  0  0
 17 41  1  0  0  0  0
 17 42  1  0  0  0  0
 18 19  2  0  0  0  0
 18 20  1  0  0  0  0
M  CHG  1  20  -1
M  END
> <s_m_source_file>
AV-unprocessed.smi

> <i_m_source_file_index>
1295

> <i_lp_mmshare_version>
43012

> <i_f3d_flags>
0

> <s_epik_input>
W0NIM11jMW5jKFtDSDNdKWMoYyg9TylbbkhdMSlbQ0gyXUMoPU8pW05IXVtDQEBIXTJbQ0gyXVtDSDJdW0NIMl1bQ0gyXVtDQEhdMltDSDNd

> <s_epik_cmdline>
J2VwaWtfcHl0aG9uJywgJy1waCcsICc3LjAnLCAnLXRuJywgJzgnLCAnLW1hJywgJzIwMCcsICctbWV0YWxfYmluZGluZycsICctaW1hZScsICc8aW5maWxlLm1hZT4nLCAnLW9tYWUnLCAnPG91dGZpbGUubWFlPic=

> <r_lp_tautomer_probability>
0.839158

> <r_epik_Ionization_Penalty>
6.67742

> <r_epik_Ionization_Penalty_Charging>
7.78154e-08

> <r_epik_Ionization_Penalty_Neutral>
6.67742

> <r_epik_State_Penalty>
4.51991

> <r_epik_Charging_Adjusted_Penalty>
4.51991

> <i_epik_Tot_Q>
-1

> <i_epik_Tot_abs_Q>
1

> <r_epik_Metal_State_Penalty>
0.853272

> <b_epik_Metal_Only>
1

> <s_lp_Force_Field>
OPLS_2005

> <r_lp_Energy>
15.7399

> <b_lp_Chiralities_Consistent>
1

> <s_lp_Variant>
AV-unprocessed.smi:1295-10

> <Gold.Version>
5.8.1

> <Gold.Id.Protein>
6NUR|6NUR_protein|mol2

> <Gold.PLP.Fitness>
37.7236

> <Gold.PLP.PLP>
-23.2400

> <Gold.PLP.part.hbond>
-4.0000

> <Gold.PLP.part.metal>
0.0000

> <Gold.PLP.part.buried>
-0.5055

> <Gold.PLP.part.nonpolar>
-18.8421

> <Gold.PLP.part.repulsive>
0.0645

> <Gold.PLP.ligand.clash>
0.0000

> <Gold.PLP.ligand.torsion>
0.2016

> <Gold.PLP.Chemscore.Hbond>
4.9600

> <Gold.PLP.Chemscore.CHOScore>
0.0000

> <Gold.PLP.Chemscore.Metal>
0.0000

> <Gold.Chemscore.Hbonds>
donor molecule, donor type, donor heavy atom, donor atom, acceptor molecule, acceptor atom, score
      L1  H    10    29       P1  7948  1.00
      P1  H  7989  7998       L1    19  0.93
      P1  H  7997  8009       L1    20  1.60
      P1  H 10752 10763       L1     3  0.82

> <Gold.PLP.Chemscore.Internal.Correction>
0.0068

> <Gold.Rescore>
     Score         DG    S(hbond)    S(metal)    S(lipo)     H(rot)  DE(clash)    DE(int)     intcor
     18.21     -18.46       3.21        0.00      50.84       1.45       0.09       0.17       ----

> <Gold.Chemscore.Fitness>
18.2078

> <Gold.Chemscore.DG>
-18.4636

> <Gold.Chemscore.ZeroCoef>
-5.4800

> <Gold.Chemscore.Hbond>
3.2140

> <Gold.Chemscore.Metal>
0.0000

> <Gold.Chemscore.Lipo>
50.8394

> <Gold.Chemscore.Internal_Hbond>
0.0000

> <Gold.Chemscore.DEClash>
0.0892

> <Gold.Chemscore.DEInternal>
0.1665

> <Gold.Chemscore.Rot>
1.4450

> <Gold.Chemscore.Internal.Correction>
   9.000000E+99

> <Gold.Chemscore.Hbonds>
donor molecule, donor type, donor heavy atom, donor atom, acceptor molecule, acceptor atom, score
      L1  H    10    29       P1  7948  1.00
      P1  H  7989  7998       L1    19  0.40
      P1  H  7997  8009       L1    20  0.12
      P1  H 10752 10763       L1     3  0.16

> <Gold.Chemscore.Hbond.Weighted>
-10.7346

> <Gold.Chemscore.Metal.Weighted>
-0.0000

> <Gold.Chemscore.Lipo.Weighted>
-5.9482

> <Gold.Chemscore.Internal_Hbond.Weighted>
0.0000

> <Gold.Chemscore.DEClash.Weighted>
0.0892

> <Gold.Chemscore.DEInternal.Weighted>
0.1665

> <Gold.Chemscore.Rot.Weighted>
3.6992

> <Gold.Chemscore.Internal.Correction.Weighted>
   9.000000E+99

> <Gold.Protein.RotatedTorsions>
[ 6907 6896 6895 6894 ] final  -14.65 input  -60.11 | X-H torsion
[ 7974 7965 7964 7962 ] final   54.34 input  175.53 | X-H torsion
[ 8008 7997 7996 7995 ] final -162.73 input   59.86 | X-H torsion
[ 10167 10162 10161 10158 ] final -164.60 input  -65.29 | X-H torsion
[ 10718 10713 10712 10709 ] final   77.62 input   66.30 | X-H torsion
[ 10763 10752 10751 10750 ] final   97.46 input  -60.55 | X-H torsion
[ 11005 11000 10999 10996 ] final -167.71 input  -57.11 | X-H torsion

> <Gold.Protein.ActiveResidues>
 VAL166  LYS551  ARG553  GLY616  TRP617  ASP618  TYR619  PRO620  LYS621  CYS622 
 ASP623  PHE694  ASN695  SER759  ASP760  ASP761  ALA762  ILE779  LEU786  VAL792 
 PHE793  MET794  SER795  GLU796  ALA797  LYS798  CYS799  TRP800  GLU811  SER814 

> <Gold.Protein.RotatedAtoms>
  151.3362  135.0853  159.9355 H   0  0  0  0  0  0  0  0  0  0  0  0  # atno 6907 bound_to 6896
  152.5223  133.9493  159.7674 H   0  0  0  0  0  0  0  0  0  0  0  0  # atno 6908 bound_to 6896
  150.9841  133.6162  159.2748 H   0  0  0  0  0  0  0  0  0  0  0  0  # atno 6909 bound_to 6896
  145.9619  139.4067  143.0243 H   0  0  0  0  0  0  0  0  0  0  0  0  # atno 7974 bound_to 7965
  155.8110  140.0905  157.1903 H   0  0  0  0  0  0  0  0  0  0  0  0  # atno 8008 bound_to 7997
  154.3980  140.1454  156.3447 H   0  0  0  0  0  0  0  0  0  0  0  0  # atno 8009 bound_to 7997
  155.8365  140.3440  155.5607 H   0  0  0  0  0  0  0  0  0  0  0  0  # atno 8010 bound_to 7997
  139.6240  144.0569  152.1958 H   0  0  0  0  0  0  0  0  0  0  0  0  # atno 10167 bound_to 10162
  157.6717  130.9830  150.1667 H   0  0  0  0  0  0  0  0  0  0  0  0  # atno 10718 bound_to 10713
  153.2771  135.4182  155.1043 H   0  0  0  0  0  0  0  0  0  0  0  0  # atno 10763 bound_to 10752
  154.8476  135.3486  154.6163 H   0  0  0  0  0  0  0  0  0  0  0  0  # atno 10764 bound_to 10752
  153.6583  135.7049  153.5243 H   0  0  0  0  0  0  0  0  0  0  0  0  # atno 10765 bound_to 10752
  140.5502  134.5436  157.5120 H   0  0  0  0  0  0  0  0  0  0  0  0  # atno 11005 bound_to 11000
  145.8028  140.9763  143.0989 LP  0  0  0  0  0  0  0  0  0  0  0  0  # atno 17320 bound_to 7965
  144.6817  139.9823  143.7483 LP  0  0  0  0  0  0  0  0  0  0  0  0  # atno 17321 bound_to 7965
  140.0218  144.6147  150.7560 LP  0  0  0  0  0  0  0  0  0  0  0  0  # atno 17342 bound_to 10162
  140.7399  143.2798  151.3633 LP  0  0  0  0  0  0  0  0  0  0  0  0  # atno 17343 bound_to 10162
  156.2431  130.3693  149.8315 LP  0  0  0  0  0  0  0  0  0  0  0  0  # atno 17370 bound_to 10713
  156.6109  130.8586  151.3454 LP  0  0  0  0  0  0  0  0  0  0  0  0  # atno 17371 bound_to 10713
  139.9459  134.7703  156.0563 LP  0  0  0  0  0  0  0  0  0  0  0  0  # atno 17394 bound_to 11000
  141.1176  133.6623  156.3133 LP  0  0  0  0  0  0  0  0  0  0  0  0  # atno 17395 bound_to 11000

$$$$
