AV-unprocessed.smi:21|AV-procd|sdf|149|dock5
  -GOLD-   2262015363D 1   1.00000     0.00000
 Structure written by MMmdl.
 62 65  0  0  0  0  0  0  0  0  2 V2000
  143.8305  133.0718  148.7436 C   0  0  0  0  0  0  0  0  0  0  0  0
  143.7389  131.8040  149.3733 O   0  0  0  0  0  0  0  0  0  0  0  0
  144.0659  131.8307  150.7548 C   0  0  1  0  0  0  0  0  0  0  0  0
  145.4979  132.2786  151.0282 C   0  0  0  0  0  0  0  0  0  0  0  0
  145.4410  132.7766  152.4781 C   0  0  1  0  0  0  0  0  0  0  0  0
  146.5859  133.7467  152.8628 C   0  0  0  0  0  0  0  0  0  0  0  0
  147.5449  133.1445  153.7944 N   0  0  0  0  0  0  0  0  0  0  0  0
  147.8470  131.7273  153.6303 C   0  0  0  0  0  0  0  0  0  0  0  0
  148.2912  133.9134  154.6433 C   0  0  0  0  0  0  0  0  0  0  0  0
  149.2849  133.3141  155.3537 N   0  0  0  0  0  0  0  0  0  0  0  0
  150.0463  134.0096  156.2015 C   0  0  0  0  0  0  0  0  0  0  0  0
  149.9924  135.3078  156.4929 N   0  0  0  0  0  0  0  0  0  0  0  0
  149.0059  135.9283  155.7873 C   0  0  0  0  0  0  0  0  0  0  0  0
  148.1164  135.3187  154.8531 C   0  0  0  0  0  0  0  0  0  0  0  0
  147.2498  136.2871  154.3529 N   0  0  0  0  0  0  0  0  0  0  0  0
  147.6049  137.3913  154.9490 C   0  0  0  0  0  0  0  0  0  0  0  0
  148.6581  137.2665  155.8231 N   0  0  0  0  0  0  0  0  0  0  0  0
  149.2598  138.3200  156.6220 C   0  0  0  0  0  0  0  0  0  0  0  0
  150.7151  138.6444  156.1957 C   0  0  1  0  0  0  0  0  0  0  0  0
  150.8789  138.5786  154.6592 C   0  0  0  0  0  0  0  0  0  0  0  0
  150.2348  139.6646  154.0262 O   0  0  0  0  0  0  0  0  0  0  0  0
  151.2434  139.9856  156.7761 C   0  0  1  0  0  0  0  0  0  0  0  0
  150.3701  141.2134  156.5751 C   0  0  0  0  0  0  0  0  0  0  0  0
  150.9536  142.1641  157.6111 C   0  0  0  0  0  0  0  0  0  0  0  0
  151.2221  141.3313  158.7309 O   0  0  0  0  0  0  0  0  0  0  0  0
  151.5087  140.0055  158.2891 C   0  0  0  0  0  0  0  0  0  0  0  0
  144.0536  133.2947  152.6671 N   0  3  1  0  0  0  0  0  0  0  0  0
  143.8970  134.7243  153.0259 C   0  0  0  0  0  0  0  0  0  0  0  0
  143.2588  132.9077  151.4775 C   0  0  0  0  0  0  0  0  0  0  0  0
  143.8746  130.8624  151.2214 H   0  0  0  0  0  0  0  0  0  0  0  0
  145.5038  131.9025  153.1278 H   0  0  0  0  0  0  0  0  0  0  0  0
  143.6059  132.9683  147.6820 H   0  0  0  0  0  0  0  0  0  0  0  0
  144.8356  133.4859  148.8338 H   0  0  0  0  0  0  0  0  0  0  0  0
  143.1193  133.7819  149.1661 H   0  0  0  0  0  0  0  0  0  0  0  0
  146.2299  131.4831  150.8852 H   0  0  0  0  0  0  0  0  0  0  0  0
  145.7551  133.0997  150.3579 H   0  0  0  0  0  0  0  0  0  0  0  0
  147.0765  134.1426  151.9740 H   0  0  0  0  0  0  0  0  0  0  0  0
  146.1663  134.6170  153.3679 H   0  0  0  0  0  0  0  0  0  0  0  0
  148.8513  131.5904  153.2285 H   0  0  0  0  0  0  0  0  0  0  0  0
  147.1481  131.2544  152.9400 H   0  0  0  0  0  0  0  0  0  0  0  0
  147.7695  131.2025  154.5829 H   0  0  0  0  0  0  0  0  0  0  0  0
  150.8080  133.4453  156.7192 H   0  0  0  0  0  0  0  0  0  0  0  0
  147.1080  138.3324  154.7624 H   0  0  0  0  0  0  0  0  0  0  0  0
  148.6303  139.2062  156.5398 H   0  0  0  0  0  0  0  0  0  0  0  0
  149.2109  138.0044  157.6630 H   0  0  0  0  0  0  0  0  0  0  0  0
  151.3503  137.8611  156.6126 H   0  0  0  0  0  0  0  0  0  0  0  0
  151.9295  138.6228  154.3739 H   0  0  0  0  0  0  0  0  0  0  0  0
  150.4819  137.6426  154.2656 H   0  0  0  0  0  0  0  0  0  0  0  0
  150.1041  139.4482  153.1154 H   0  0  0  0  0  0  0  0  0  0  0  0
  152.2038  140.2056  156.3074 H   0  0  0  0  0  0  0  0  0  0  0  0
  150.4168  141.6118  155.5612 H   0  0  0  0  0  0  0  0  0  0  0  0
  149.3273  141.0140  156.8190 H   0  0  0  0  0  0  0  0  0  0  0  0
  151.8887  142.5975  157.2531 H   0  0  0  0  0  0  0  0  0  0  0  0
  150.2752  142.9776  157.8691 H   0  0  0  0  0  0  0  0  0  0  0  0
  150.8735  139.3146  158.8410 H   0  0  0  0  0  0  0  0  0  0  0  0
  152.5438  139.7438  158.5111 H   0  0  0  0  0  0  0  0  0  0  0  0
  144.3164  135.3764  152.2587 H   0  0  0  0  0  0  0  0  0  0  0  0
  144.3749  134.9480  153.9796 H   0  0  0  0  0  0  0  0  0  0  0  0
  142.8394  134.9688  153.1313 H   0  0  0  0  0  0  0  0  0  0  0  0
  143.1430  133.7709  150.8192 H   0  0  0  0  0  0  0  0  0  0  0  0
  142.2610  132.5669  151.7541 H   0  0  0  0  0  0  0  0  0  0  0  0
  143.6764  132.7699  153.4435 H   0  0  0  0  0  0  0  0  0  0  0  0
  1  2  1  0  0  0  0
  1 32  1  0  0  0  0
  1 33  1  0  0  0  0
  1 34  1  0  0  0  0
  2  3  1  0  0  0  0
  3 30  1  0  0  0  0
  3 29  1  0  0  0  0
  3  4  1  0  0  0  0
  4  5  1  0  0  0  0
  4 35  1  0  0  0  0
  4 36  1  0  0  0  0
  5 31  1  0  0  0  0
  5  6  1  0  0  0  0
  5 27  1  0  0  0  0
  6  7  1  0  0  0  0
  6 37  1  0  0  0  0
  6 38  1  0  0  0  0
  7  8  1  0  0  0  0
  7  9  1  0  0  0  0
  8 39  1  0  0  0  0
  8 40  1  0  0  0  0
  8 41  1  0  0  0  0
  9 14  1  0  0  0  0
  9 10  2  0  0  0  0
 10 11  1  0  0  0  0
 11 12  2  0  0  0  0
 11 42  1  0  0  0  0
 12 13  1  0  0  0  0
 13 17  1  0  0  0  0
 13 14  2  0  0  0  0
 14 15  1  0  0  0  0
 15 16  2  0  0  0  0
 16 17  1  0  0  0  0
 16 43  1  0  0  0  0
 17 18  1  0  0  0  0
 18 19  1  0  0  0  0
 18 44  1  0  0  0  0
 18 45  1  0  0  0  0
 19 20  1  0  0  0  0
 19 22  1  0  0  0  0
 19 46  1  0  0  0  0
 20 21  1  0  0  0  0
 20 47  1  0  0  0  0
 20 48  1  0  0  0  0
 21 49  1  0  0  0  0
 22 26  1  0  0  0  0
 22 23  1  0  0  0  0
 22 50  1  0  0  0  0
 23 24  1  0  0  0  0
 23 51  1  0  0  0  0
 23 52  1  0  0  0  0
 24 25  1  0  0  0  0
 24 53  1  0  0  0  0
 24 54  1  0  0  0  0
 25 26  1  0  0  0  0
 26 55  1  0  0  0  0
 26 56  1  0  0  0  0
 27 28  1  0  0  0  0
 27 29  1  0  0  0  0
 27 62  1  0  0  0  0
 28 57  1  0  0  0  0
 28 58  1  0  0  0  0
 28 59  1  0  0  0  0
 29 60  1  0  0  0  0
 29 61  1  0  0  0  0
M  CHG  1  27   1
M  END
> <s_m_source_file>
AV-unprocessed.smi

> <i_m_source_file_index>
21

> <i_lp_mmshare_version>
43012

> <i_f3d_flags>
0

> <s_epik_input>
W0NIM11PW0NASF0xW0NIMl1bQ0BIXShOKFtDSDNdKVtDSDJdMSlbQ0gyXU4oW0NIM10pYyhuW2NIXW4yKWMoYzIzKW5bY0hdbjNbQ0gyXVtDQEhdKFtDSDJdW09IXSlbQ0BASF00W0NIMl1bQ0gyXU9bQ0gyXTQ=

> <s_epik_cmdline>
J2VwaWtfcHl0aG9uJywgJy1waCcsICc3LjAnLCAnLXRuJywgJzgnLCAnLW1hJywgJzIwMCcsICctbWV0YWxfYmluZGluZycsICctaW1hZScsICc8aW5maWxlLm1hZT4nLCAnLW9tYWUnLCAnPG91dGZpbGUubWFlPic=

> <r_lp_tautomer_probability>
1

> <r_epik_Ionization_Penalty>
0.0157465

> <r_epik_Ionization_Penalty_Charging>
0.015354

> <r_epik_Ionization_Penalty_Neutral>
0.000392529

> <r_epik_State_Penalty>
0.0120612

> <r_epik_Charging_Adjusted_Penalty>
0.0274152

> <i_epik_Tot_Q>
1

> <i_epik_Tot_abs_Q>
1

> <r_epik_Metal_State_Penalty>
0.0121253

> <b_epik_Metal_Only>
0

> <s_lp_Force_Field>
OPLS_2005

> <r_lp_Energy>
61.5082

> <b_lp_Chiralities_Consistent>
1

> <s_lp_Variant>
AV-unprocessed.smi:21-29

> <Gold.Version>
5.8.1

> <Gold.Id.Protein>
6NUR|6NUR_protein|mol2

> <Gold.PLP.Fitness>
51.8103

> <Gold.PLP.PLP>
-41.2788

> <Gold.PLP.part.hbond>
-3.9959

> <Gold.PLP.part.metal>
0.0000

> <Gold.PLP.part.buried>
-4.9189

> <Gold.PLP.part.nonpolar>
-34.9945

> <Gold.PLP.part.repulsive>
2.1352

> <Gold.PLP.ligand.clash>
0.4785

> <Gold.PLP.ligand.torsion>
1.5143

> <Gold.PLP.Chemscore.Hbond>
4.5569

> <Gold.PLP.Chemscore.CHOScore>
0.0000

> <Gold.PLP.Chemscore.Metal>
0.0000

> <Gold.Chemscore.Hbonds>
donor molecule, donor type, donor heavy atom, donor atom, acceptor molecule, acceptor atom, score
      L1  H    21    49       P1  7957  0.84
      L1  H    27    62       P1 10957  2.00
      P1  H  7989  7998       L1    21  0.40
      P1  H 10785 10796       L1     2  0.85

> <Gold.PLP.Chemscore.Internal.Correction>
0.3679

> <Gold.Rescore>
     Score         DG    S(hbond)    S(metal)    S(lipo)     H(rot)  DE(clash)    DE(int)     intcor
     14.50     -18.07       2.83        0.00      94.14       3.08       0.96       2.61       ----

> <Gold.Chemscore.Fitness>
14.4975

> <Gold.Chemscore.DG>
-18.0685

> <Gold.Chemscore.ZeroCoef>
-5.4800

> <Gold.Chemscore.Hbond>
2.8289

> <Gold.Chemscore.Metal>
0.0000

> <Gold.Chemscore.Lipo>
94.1385

> <Gold.Chemscore.Internal_Hbond>
0.0000

> <Gold.Chemscore.DEClash>
0.9608

> <Gold.Chemscore.DEInternal>
2.6101

> <Gold.Chemscore.Rot>
3.0758

> <Gold.Chemscore.Internal.Correction>
   9.000000E+99

> <Gold.Chemscore.Hbonds>
donor molecule, donor type, donor heavy atom, donor atom, acceptor molecule, acceptor atom, score
      L1  H    21    49       P1  7957  0.76
      L1  H    27    62       P1 10957  0.60
      P1  H  7989  7998       L1    21  0.01
      P1  H 10785 10796       L1     2  0.75

> <Gold.Chemscore.Hbond.Weighted>
-9.4484

> <Gold.Chemscore.Metal.Weighted>
-0.0000

> <Gold.Chemscore.Lipo.Weighted>
-11.0142

> <Gold.Chemscore.Internal_Hbond.Weighted>
0.0000

> <Gold.Chemscore.DEClash.Weighted>
0.9608

> <Gold.Chemscore.DEInternal.Weighted>
2.6101

> <Gold.Chemscore.Rot.Weighted>
7.8741

> <Gold.Chemscore.Internal.Correction.Weighted>
   9.000000E+99

> <Gold.Protein.RotatedTorsions>
[ 6907 6896 6895 6894 ] final  -15.63 input  -60.11 | X-H torsion
[ 7974 7965 7964 7962 ] final   93.11 input  175.53 | X-H torsion
[ 8008 7997 7996 7995 ] final   -2.20 input   59.86 | X-H torsion
[ 10167 10162 10161 10158 ] final  -88.28 input  -65.29 | X-H torsion
[ 10718 10713 10712 10709 ] final  122.87 input   66.30 | X-H torsion
[ 10763 10752 10751 10750 ] final  -84.54 input  -60.55 | X-H torsion
[ 11005 11000 10999 10996 ] final   16.68 input  -57.11 | X-H torsion

> <Gold.Protein.ActiveResidues>
 VAL166  LYS551  ARG553  GLY616  TRP617  ASP618  TYR619  PRO620  LYS621  CYS622 
 ASP623  PHE694  ASN695  SER759  ASP760  ASP761  ALA762  ILE779  LEU786  VAL792 
 PHE793  MET794  SER795  GLU796  ALA797  LYS798  CYS799  TRP800  GLU811  SER814 

> <Gold.Protein.RotatedAtoms>
  151.3211  135.0818  159.9305 H   0  0  0  0  0  0  0  0  0  0  0  0  # atno 6907 bound_to 6896
  152.5256  133.9638  159.7740 H   0  0  0  0  0  0  0  0  0  0  0  0  # atno 6908 bound_to 6896
  150.9959  133.6051  159.2732 H   0  0  0  0  0  0  0  0  0  0  0  0  # atno 6909 bound_to 6896
  145.4833  139.2278  143.2871 H   0  0  0  0  0  0  0  0  0  0  0  0  # atno 7974 bound_to 7965
  154.6384  140.2540  155.7351 H   0  0  0  0  0  0  0  0  0  0  0  0  # atno 8008 bound_to 7997
  156.2516  140.2892  156.0687 H   0  0  0  0  0  0  0  0  0  0  0  0  # atno 8009 bound_to 7997
  155.1635  140.0385  157.2838 H   0  0  0  0  0  0  0  0  0  0  0  0  # atno 8010 bound_to 7997
  140.3762  143.2770  151.9439 H   0  0  0  0  0  0  0  0  0  0  0  0  # atno 10167 bound_to 10162
  157.5709  131.1083  150.8369 H   0  0  0  0  0  0  0  0  0  0  0  0  # atno 10718 bound_to 10713
  154.6007  135.5517  153.7372 H   0  0  0  0  0  0  0  0  0  0  0  0  # atno 10763 bound_to 10752
  153.0153  135.6366  154.1718 H   0  0  0  0  0  0  0  0  0  0  0  0  # atno 10764 bound_to 10752
  154.1658  135.2895  155.3075 H   0  0  0  0  0  0  0  0  0  0  0  0  # atno 10765 bound_to 10752
  140.4444  134.1288  155.7694 H   0  0  0  0  0  0  0  0  0  0  0  0  # atno 11005 bound_to 11000
  146.2328  140.5621  142.8968 LP  0  0  0  0  0  0  0  0  0  0  0  0  # atno 17320 bound_to 7965
  144.7876  140.5968  143.6563 LP  0  0  0  0  0  0  0  0  0  0  0  0  # atno 17321 bound_to 7965
  139.4799  144.5861  151.7851 LP  0  0  0  0  0  0  0  0  0  0  0  0  # atno 17342 bound_to 10162
  140.4983  144.1207  150.5965 LP  0  0  0  0  0  0  0  0  0  0  0  0  # atno 17343 bound_to 10162
  156.8841  130.5190  149.5289 LP  0  0  0  0  0  0  0  0  0  0  0  0  # atno 17370 bound_to 10713
  156.0754  130.5777  150.9464 LP  0  0  0  0  0  0  0  0  0  0  0  0  # atno 17371 bound_to 10713
  141.1691  133.8643  157.1624 LP  0  0  0  0  0  0  0  0  0  0  0  0  # atno 17394 bound_to 11000
  140.0048  135.0013  157.0269 LP  0  0  0  0  0  0  0  0  0  0  0  0  # atno 17395 bound_to 11000

$$$$
