AV-unprocessed.smi:1560|AV-procd|sdf|6281|dock3
  -GOLD-   22720 6473D 1   1.00000     0.00000
 Structure written by MMmdl.
 47 48  0  0  0  0  0  0  0  0  3 V2000
  142.1176  136.2184  153.2384 C   0  0  0  0  0  0  0  0  0  0  0  0
  142.7032  135.2917  154.3190 C   0  0  0  0  0  0  0  0  0  0  0  0
  144.1982  134.8902  154.1264 C   0  0  1  0  0  0  0  0  0  0  0  0
  144.9478  136.1439  153.6029 C   0  0  0  0  0  0  0  0  0  0  0  0
  144.8170  134.4722  155.4967 C   0  0  0  0  0  0  0  0  0  0  0  0
  144.6773  135.4881  156.5396 N   0  0  0  0  0  0  0  0  0  0  0  0
  143.8724  135.4037  157.6103 C   0  0  0  0  0  0  0  0  0  0  0  0
  143.1170  134.4524  157.8147 O   0  0  0  0  0  0  0  0  0  0  0  0
  143.9013  136.5958  158.5753 C   0  0  0  0  0  0  0  0  0  0  0  0
  145.1402  136.6508  159.3674 N   0  0  0  0  0  0  0  0  0  0  0  0
  145.4053  135.5855  160.2463 C   0  0  0  0  0  0  0  0  0  0  0  0
  146.5183  135.5500  161.0038 C   0  0  0  0  0  0  0  0  0  0  0  0
  147.4620  136.6560  160.8967 C   0  0  0  0  0  0  0  0  0  0  0  0
  148.4813  136.6422  161.5838 O   0  0  0  0  0  0  0  0  0  0  0  0
  147.1617  137.6645  160.0266 N   0  5  0  0  0  0  0  0  0  0  0  0
  146.0275  137.6855  159.2599 C   0  0  0  0  0  0  0  0  0  0  0  0
  145.7775  138.6033  158.4771 O   0  0  0  0  0  0  0  0  0  0  0  0
  144.3014  133.7618  153.1296 N   0  3  0  0  0  0  0  0  0  0  0  0
  143.5648  133.9473  151.8471 C   0  0  0  0  0  0  0  0  0  0  0  0
  143.5920  132.6515  151.0178 C   0  0  0  0  0  0  0  0  0  0  0  0
  144.9358  132.2561  150.7811 O   0  0  0  0  0  0  0  0  0  0  0  0
  145.6274  131.9907  151.9933 C   0  0  0  0  0  0  0  0  0  0  0  0
  145.6794  133.2703  152.8430 C   0  0  0  0  0  0  0  0  0  0  0  0
  141.0750  136.4473  153.4601 H   0  0  0  0  0  0  0  0  0  0  0  0
  142.1440  135.7605  152.2498 H   0  0  0  0  0  0  0  0  0  0  0  0
  142.6509  137.1672  153.1853 H   0  0  0  0  0  0  0  0  0  0  0  0
  142.5803  135.7962  155.2776 H   0  0  0  0  0  0  0  0  0  0  0  0
  142.0776  134.4032  154.4002 H   0  0  0  0  0  0  0  0  0  0  0  0
  144.7034  137.0326  154.1859 H   0  0  0  0  0  0  0  0  0  0  0  0
  144.6977  136.3627  152.5645 H   0  0  0  0  0  0  0  0  0  0  0  0
  146.0302  136.0290  153.6637 H   0  0  0  0  0  0  0  0  0  0  0  0
  144.3914  133.5331  155.8506 H   0  0  0  0  0  0  0  0  0  0  0  0
  145.8855  134.2885  155.3894 H   0  0  0  0  0  0  0  0  0  0  0  0
  145.2587  136.3095  156.4558 H   0  0  0  0  0  0  0  0  0  0  0  0
  143.7663  137.5288  158.0243 H   0  0  0  0  0  0  0  0  0  0  0  0
  143.0321  136.5222  159.2302 H   0  0  0  0  0  0  0  0  0  0  0  0
  144.6598  134.8040  160.2610 H   0  0  0  0  0  0  0  0  0  0  0  0
  146.7095  134.7228  161.6715 H   0  0  0  0  0  0  0  0  0  0  0  0
  142.5209  134.2055  152.0148 H   0  0  0  0  0  0  0  0  0  0  0  0
  144.0095  134.7591  151.2711 H   0  0  0  0  0  0  0  0  0  0  0  0
  143.0495  131.8527  151.5262 H   0  0  0  0  0  0  0  0  0  0  0  0
  143.0981  132.8098  150.0589 H   0  0  0  0  0  0  0  0  0  0  0  0
  145.1432  131.1784  152.5380 H   0  0  0  0  0  0  0  0  0  0  0  0
  146.6377  131.6569  151.7556 H   0  0  0  0  0  0  0  0  0  0  0  0
  146.2494  134.0279  152.3048 H   0  0  0  0  0  0  0  0  0  0  0  0
  146.2253  133.0471  153.7576 H   0  0  0  0  0  0  0  0  0  0  0  0
  143.8367  132.9885  153.5836 H   0  0  0  0  0  0  0  0  0  0  0  0
  1  2  1  0  0  0  0
  1 24  1  0  0  0  0
  1 25  1  0  0  0  0
  1 26  1  0  0  0  0
  2  3  1  0  0  0  0
  2 27  1  0  0  0  0
  2 28  1  0  0  0  0
  3  4  1  0  0  0  0
  3  5  1  0  0  0  0
  3 18  1  0  0  0  0
  4 29  1  0  0  0  0
  4 30  1  0  0  0  0
  4 31  1  0  0  0  0
  5  6  1  0  0  0  0
  5 32  1  0  0  0  0
  5 33  1  0  0  0  0
  6  7  1  0  0  0  0
  6 34  1  0  0  0  0
  7  8  2  0  0  0  0
  7  9  1  0  0  0  0
  9 10  1  0  0  0  0
  9 35  1  0  0  0  0
  9 36  1  0  0  0  0
 10 16  1  0  0  0  0
 10 11  1  0  0  0  0
 11 12  2  0  0  0  0
 11 37  1  0  0  0  0
 12 13  1  0  0  0  0
 12 38  1  0  0  0  0
 13 14  2  0  0  0  0
 13 15  1  0  0  0  0
 15 16  1  0  0  0  0
 16 17  2  0  0  0  0
 18 23  1  0  0  0  0
 18 19  1  0  0  0  0
 18 47  1  0  0  0  0
 19 20  1  0  0  0  0
 19 39  1  0  0  0  0
 19 40  1  0  0  0  0
 20 21  1  0  0  0  0
 20 41  1  0  0  0  0
 20 42  1  0  0  0  0
 21 22  1  0  0  0  0
 22 23  1  0  0  0  0
 22 43  1  0  0  0  0
 22 44  1  0  0  0  0
 23 45  1  0  0  0  0
 23 46  1  0  0  0  0
M  CHG  1  15  -1
M  CHG  1  18   1
M  END
> <s_m_source_file>
AV-unprocessed.smi

> <i_m_source_file_index>
1560

> <i_lp_mmshare_version>
43012

> <i_f3d_flags>
0

> <s_epik_input>
W0NIMl0xW0NIMl1PW0NIMl1bQ0gyXU4xW0NAQF0oW0NIM10pKFtDSDJdW0NIM10pW0NIMl1bTkhdQyg9TylbQ0gyXW4yW2NIXVtjSF1jKD1PKVtuSF1jMj1P

> <s_epik_cmdline>
J2VwaWtfcHl0aG9uJywgJy1waCcsICc3LjAnLCAnLXRuJywgJzgnLCAnLW1hJywgJzIwMCcsICctbWV0YWxfYmluZGluZycsICctaW1hZScsICc8aW5maWxlLm1hZT4nLCAnLW9tYWUnLCAnPG91dGZpbGUubWFlPic=

> <r_lp_tautomer_probability>
0.999537

> <r_epik_Ionization_Penalty>
3.51944

> <r_epik_Ionization_Penalty_Charging>
0.588852

> <r_epik_Ionization_Penalty_Neutral>
2.93059

> <r_epik_State_Penalty>
3.4987

> <r_epik_Charging_Adjusted_Penalty>
4.08755

> <i_epik_Tot_Q>
0

> <i_epik_Tot_abs_Q>
2

> <r_epik_Metal_State_Penalty>
1.01204

> <b_epik_Metal_Only>
1

> <s_lp_Force_Field>
OPLS_2005

> <r_lp_Energy>
37.4968

> <b_lp_Chiralities_Consistent>
1

> <s_lp_Variant>
AV-unprocessed.smi:1560-7

> <Gold.Version>
5.8.1

> <Gold.Id.Protein>
6NUR|6NUR_protein|mol2

> <Gold.PLP.Fitness>
39.0083

> <Gold.PLP.PLP>
-22.0709

> <Gold.PLP.part.hbond>
-4.0000

> <Gold.PLP.part.metal>
0.0000

> <Gold.PLP.part.buried>
-5.6675

> <Gold.PLP.part.nonpolar>
-13.3029

> <Gold.PLP.part.repulsive>
0.1709

> <Gold.PLP.ligand.clash>
0.0000

> <Gold.PLP.ligand.torsion>
0.5918

> <Gold.PLP.Chemscore.Hbond>
5.9760

> <Gold.PLP.Chemscore.CHOScore>
0.0000

> <Gold.PLP.Chemscore.Metal>
0.0000

> <Gold.Chemscore.Hbonds>
donor molecule, donor type, donor heavy atom, donor atom, acceptor molecule, acceptor atom, score
      L1  H    18    47       P1 10957  1.79
      P1  H  6931  6943       L1    14  1.00
      P1  H  6934  6947       L1    15  2.00
      P1  H 11000 11005       L1     8  0.76

> <Gold.PLP.Chemscore.Internal.Correction>
0.1930

> <Gold.Rescore>
     Score         DG    S(hbond)    S(metal)    S(lipo)     H(rot)  DE(clash)    DE(int)     intcor
     16.42     -17.26       3.79        0.00      47.15       2.50       0.01       0.83       ----

> <Gold.Chemscore.Fitness>
16.4215

> <Gold.Chemscore.DG>
-17.2567

> <Gold.Chemscore.ZeroCoef>
-5.4800

> <Gold.Chemscore.Hbond>
3.7885

> <Gold.Chemscore.Metal>
0.0000

> <Gold.Chemscore.Lipo>
47.1454

> <Gold.Chemscore.Internal_Hbond>
0.0000

> <Gold.Chemscore.DEClash>
0.0073

> <Gold.Chemscore.DEInternal>
0.8279

> <Gold.Chemscore.Rot>
2.4973

> <Gold.Chemscore.Internal.Correction>
   9.000000E+99

> <Gold.Chemscore.Hbonds>
donor molecule, donor type, donor heavy atom, donor atom, acceptor molecule, acceptor atom, score
      L1  H    18    47       P1 10957  0.77
      P1  H  6931  6943       L1    14  0.82
      P1  H  6934  6947       L1    15  0.31
      P1  H 11000 11005       L1     8  0.73

> <Gold.Chemscore.Hbond.Weighted>
-12.6537

> <Gold.Chemscore.Metal.Weighted>
-0.0000

> <Gold.Chemscore.Lipo.Weighted>
-5.5160

> <Gold.Chemscore.Internal_Hbond.Weighted>
0.0000

> <Gold.Chemscore.DEClash.Weighted>
0.0073

> <Gold.Chemscore.DEInternal.Weighted>
0.8279

> <Gold.Chemscore.Rot.Weighted>
6.3930

> <Gold.Chemscore.Internal.Correction.Weighted>
   9.000000E+99

> <Gold.Protein.RotatedTorsions>
[ 6907 6896 6895 6894 ] final   84.00 input  -60.11 | X-H torsion
[ 7974 7965 7964 7962 ] final   51.21 input  175.53 | X-H torsion
[ 8008 7997 7996 7995 ] final   14.54 input   59.86 | X-H torsion
[ 10167 10162 10161 10158 ] final  -27.75 input  -65.29 | X-H torsion
[ 10718 10713 10712 10709 ] final -126.19 input   66.30 | X-H torsion
[ 10763 10752 10751 10750 ] final -139.20 input  -60.55 | X-H torsion
[ 11005 11000 10999 10996 ] final -113.19 input  -57.11 | X-H torsion

> <Gold.Protein.ActiveResidues>
 VAL166  LYS551  ARG553  GLY616  TRP617  ASP618  TYR619  PRO620  LYS621  CYS622 
 ASP623  PHE694  ASN695  SER759  ASP760  ASP761  ALA762  ILE779  LEU786  VAL792 
 PHE793  MET794  SER795  GLU796  ALA797  LYS798  CYS799  TRP800  GLU811  SER814 

> <Gold.Protein.RotatedAtoms>
  152.5341  134.2808  159.9006 H   0  0  0  0  0  0  0  0  0  0  0  0  # atno 6907 bound_to 6896
  151.2763  133.4224  159.2632 H   0  0  0  0  0  0  0  0  0  0  0  0  # atno 6908 bound_to 6896
  151.0323  134.9563  159.8174 H   0  0  0  0  0  0  0  0  0  0  0  0  # atno 6909 bound_to 6896
  145.9936  139.4364  143.0058 H   0  0  0  0  0  0  0  0  0  0  0  0  # atno 7974 bound_to 7965
  154.8499  140.2928  155.5605 H   0  0  0  0  0  0  0  0  0  0  0  0  # atno 8008 bound_to 7997
  156.3016  140.2498  156.3388 H   0  0  0  0  0  0  0  0  0  0  0  0  # atno 8009 bound_to 7997
  154.9033  140.0391  157.1894 H   0  0  0  0  0  0  0  0  0  0  0  0  # atno 8010 bound_to 7997
  140.7275  143.4067  151.1173 H   0  0  0  0  0  0  0  0  0  0  0  0  # atno 10167 bound_to 10162
  156.1743  130.6688  151.0221 H   0  0  0  0  0  0  0  0  0  0  0  0  # atno 10718 bound_to 10713
  154.8616  135.3589  154.5507 H   0  0  0  0  0  0  0  0  0  0  0  0  # atno 10763 bound_to 10752
  153.6126  135.7009  153.5346 H   0  0  0  0  0  0  0  0  0  0  0  0  # atno 10764 bound_to 10752
  153.3197  135.4155  155.1366 H   0  0  0  0  0  0  0  0  0  0  0  0  # atno 10765 bound_to 10752
  141.0629  133.9506  157.2633 H   0  0  0  0  0  0  0  0  0  0  0  0  # atno 11005 bound_to 11000
  145.7594  140.9941  143.1208 LP  0  0  0  0  0  0  0  0  0  0  0  0  # atno 17320 bound_to 7965
  144.6896  139.9311  143.7472 LP  0  0  0  0  0  0  0  0  0  0  0  0  # atno 17321 bound_to 7965
  139.7695  143.8515  152.3117 LP  0  0  0  0  0  0  0  0  0  0  0  0  # atno 17342 bound_to 10162
  139.8429  144.7201  150.9309 LP  0  0  0  0  0  0  0  0  0  0  0  0  # atno 17343 bound_to 10162
  157.6824  131.0834  150.7333 LP  0  0  0  0  0  0  0  0  0  0  0  0  # atno 17370 bound_to 10713
  156.7392  130.4733  149.5481 LP  0  0  0  0  0  0  0  0  0  0  0  0  # atno 17371 bound_to 10713
  139.9449  135.0185  156.8823 LP  0  0  0  0  0  0  0  0  0  0  0  0  # atno 17394 bound_to 11000
  140.5832  134.0332  155.7471 LP  0  0  0  0  0  0  0  0  0  0  0  0  # atno 17395 bound_to 11000

$$$$
