AV-unprocessed.smi:2634|AV-procd|sdf|10254|dock7
  -GOLD-   2272014263D 1   1.00000     0.00000
 Structure written by MMmdl.
 27 28  0  0  0  0  0  0  0  0  2 V2000
  144.1288  135.7053  149.9284 N   0  0  0  0  0  0  0  0  0  0  0  0
  144.7798  134.6425  150.5576 C   0  0  0  0  0  0  0  0  0  0  0  0
  145.8255  134.7328  151.4138 N   0  3  0  0  0  0  0  0  0  0  0  0
  146.4173  135.9122  151.8049 N   0  0  0  0  0  0  0  0  0  0  0  0
  146.2311  133.4739  151.8497 C   0  0  0  0  0  0  0  0  0  0  0  0
  147.2407  133.0609  152.7146 C   0  0  0  0  0  0  0  0  0  0  0  0
  147.3610  131.6717  152.9239 C   0  0  0  0  0  0  0  0  0  0  0  0
  146.5006  130.7537  152.2866 C   0  0  0  0  0  0  0  0  0  0  0  0
  145.4804  131.1819  151.4111 C   0  0  0  0  0  0  0  0  0  0  0  0
  145.3611  132.5563  151.2058 C   0  0  0  0  0  0  0  0  0  0  0  0
  144.4785  133.3228  150.4166 N   0  0  0  0  0  0  0  0  0  0  0  0
  143.4498  132.6492  149.6148 C   0  0  0  0  0  0  0  0  0  0  0  0
  143.7953  132.6579  148.1194 C   0  0  0  0  0  0  0  0  0  0  0  0
  143.5250  133.9322  147.5791 O   0  0  0  0  0  0  0  0  0  0  0  0
  144.4073  136.6633  150.0854 H   0  0  0  0  0  0  0  0  0  0  0  0
  147.4126  135.7468  151.8556 H   0  0  0  0  0  0  0  0  0  0  0  0
  146.0938  136.1159  152.7400 H   0  0  0  0  0  0  0  0  0  0  0  0
  147.9013  133.7620  153.2036 H   0  0  0  0  0  0  0  0  0  0  0  0
  148.1297  131.3021  153.5871 H   0  0  0  0  0  0  0  0  0  0  0  0
  146.6262  129.6969  152.4729 H   0  0  0  0  0  0  0  0  0  0  0  0
  144.8299  130.4670  150.9290 H   0  0  0  0  0  0  0  0  0  0  0  0
  143.3252  131.6318  149.9878 H   0  0  0  0  0  0  0  0  0  0  0  0
  142.5034  133.1625  149.7884 H   0  0  0  0  0  0  0  0  0  0  0  0
  144.8491  132.4227  147.9661 H   0  0  0  0  0  0  0  0  0  0  0  0
  143.2110  131.9125  147.5790 H   0  0  0  0  0  0  0  0  0  0  0  0
  144.3038  134.4631  147.6511 H   0  0  0  0  0  0  0  0  0  0  0  0
  143.3490  135.5529  149.3046 H   0  0  0  0  0  0  0  0  0  0  0  0
  1  2  1  0  0  0  0
  1 15  1  0  0  0  0
  1 27  1  0  0  0  0
  2 11  1  0  0  0  0
  2  3  2  0  0  0  0
  3  4  1  0  0  0  0
  3  5  1  0  0  0  0
  4 16  1  0  0  0  0
  4 17  1  0  0  0  0
  5 10  2  0  0  0  0
  5  6  1  0  0  0  0
  6  7  2  0  0  0  0
  6 18  1  0  0  0  0
  7  8  1  0  0  0  0
  7 19  1  0  0  0  0
  8  9  2  0  0  0  0
  8 20  1  0  0  0  0
  9 10  1  0  0  0  0
  9 21  1  0  0  0  0
 10 11  1  0  0  0  0
 11 12  1  0  0  0  0
 12 13  1  0  0  0  0
 12 22  1  0  0  0  0
 12 23  1  0  0  0  0
 13 14  1  0  0  0  0
 13 24  1  0  0  0  0
 13 25  1  0  0  0  0
 14 26  1  0  0  0  0
M  CHG  1   3   1
M  END
> <s_m_source_file>
AV-unprocessed.smi

> <i_m_source_file_index>
2634

> <i_lp_mmshare_version>
43012

> <i_f3d_flags>
0

> <s_epik_input>
W05IMl1uMS9jKD1OXFtIXSluKFtDSDJdW0NIMl1bT0hdKWMoYzEyKVtjSF1bY0hdW2NIXVtjSF0y

> <s_epik_cmdline>
J2VwaWtfcHl0aG9uJywgJy1waCcsICc3LjAnLCAnLXRuJywgJzgnLCAnLW1hJywgJzIwMCcsICctbWV0YWxfYmluZGluZycsICctaW1hZScsICc8aW5maWxlLm1hZT4nLCAnLW9tYWUnLCAnPG91dGZpbGUubWFlPic=

> <r_lp_tautomer_probability>
1

> <r_epik_Ionization_Penalty>
1.24644e-06

> <r_epik_Ionization_Penalty_Charging>
0

> <r_epik_Ionization_Penalty_Neutral>
1.24644e-06

> <r_epik_State_Penalty>
-0

> <r_epik_Charging_Adjusted_Penalty>
0

> <i_epik_Tot_Q>
1

> <i_epik_Tot_abs_Q>
1

> <r_epik_Metal_State_Penalty>
-0

> <b_epik_Metal_Only>
0

> <s_lp_Force_Field>
OPLS_2005

> <r_lp_Energy>
25.9386

> <b_lp_Chiralities_Consistent>
1

> <s_lp_Variant>
AV-unprocessed.smi:2634-1

> <Gold.Version>
5.8.1

> <Gold.Id.Protein>
6NUR|6NUR_protein|mol2

> <Gold.PLP.Fitness>
44.4462

> <Gold.PLP.PLP>
-33.3169

> <Gold.PLP.part.hbond>
-6.2339

> <Gold.PLP.part.metal>
0.0000

> <Gold.PLP.part.buried>
0.1311

> <Gold.PLP.part.nonpolar>
-25.4432

> <Gold.PLP.part.repulsive>
0.1047

> <Gold.PLP.ligand.clash>
0.0000

> <Gold.PLP.ligand.torsion>
0.2314

> <Gold.PLP.Chemscore.Hbond>
3.8640

> <Gold.PLP.Chemscore.CHOScore>
0.0000

> <Gold.PLP.Chemscore.Metal>
0.0000

> <Gold.Chemscore.Hbonds>
donor molecule, donor type, donor heavy atom, donor atom, acceptor molecule, acceptor atom, score
      L1  H     1    15       P1 10171  0.86
      L1  H     4    16       P1  7948  1.00
      L1  H    14    26       P1  7921  1.00
      P1  H 10192 10197       L1    14  1.00

> <Gold.PLP.Chemscore.Internal.Correction>
0.0001

> <Gold.Rescore>
     Score         DG    S(hbond)    S(metal)    S(lipo)     H(rot)  DE(clash)    DE(int)     intcor
     18.85     -20.81       3.75        0.00      66.89       1.96       0.74       1.23       ----

> <Gold.Chemscore.Fitness>
18.8451

> <Gold.Chemscore.DG>
-20.8144

> <Gold.Chemscore.ZeroCoef>
-5.4800

> <Gold.Chemscore.Hbond>
3.7536

> <Gold.Chemscore.Metal>
0.0000

> <Gold.Chemscore.Lipo>
66.8869

> <Gold.Chemscore.Internal_Hbond>
0.0000

> <Gold.Chemscore.DEClash>
0.7405

> <Gold.Chemscore.DEInternal>
1.2288

> <Gold.Chemscore.Rot>
1.9643

> <Gold.Chemscore.Internal.Correction>
   9.000000E+99

> <Gold.Chemscore.Hbonds>
donor molecule, donor type, donor heavy atom, donor atom, acceptor molecule, acceptor atom, score
      L1  H     1    15       P1 10171  0.82
      L1  H     4    16       P1  7948  0.95
      L1  H    14    26       P1  7921  0.99
      P1  H 10192 10197       L1    14  0.59

> <Gold.Chemscore.Hbond.Weighted>
-12.5372

> <Gold.Chemscore.Metal.Weighted>
-0.0000

> <Gold.Chemscore.Lipo.Weighted>
-7.8258

> <Gold.Chemscore.Internal_Hbond.Weighted>
0.0000

> <Gold.Chemscore.DEClash.Weighted>
0.7405

> <Gold.Chemscore.DEInternal.Weighted>
1.2288

> <Gold.Chemscore.Rot.Weighted>
5.0285

> <Gold.Chemscore.Internal.Correction.Weighted>
   9.000000E+99

> <Gold.Protein.RotatedTorsions>
[ 6907 6896 6895 6894 ] final -116.12 input  -60.11 | X-H torsion
[ 7974 7965 7964 7962 ] final  -92.79 input  175.53 | X-H torsion
[ 8008 7997 7996 7995 ] final  140.64 input   59.86 | X-H torsion
[ 10167 10162 10161 10158 ] final  168.73 input  -65.29 | X-H torsion
[ 10718 10713 10712 10709 ] final  177.29 input   66.30 | X-H torsion
[ 10763 10752 10751 10750 ] final  177.25 input  -60.55 | X-H torsion
[ 11005 11000 10999 10996 ] final -165.81 input  -57.11 | X-H torsion

> <Gold.Protein.ActiveResidues>
 VAL166  LYS551  ARG553  GLY616  TRP617  ASP618  TYR619  PRO620  LYS621  CYS622 
 ASP623  PHE694  ASN695  SER759  ASP760  ASP761  ALA762  ILE779  LEU786  VAL792 
 PHE793  MET794  SER795  GLU796  ALA797  LYS798  CYS799  TRP800  GLU811  SER814 

> <Gold.Protein.RotatedAtoms>
  150.8031  133.8561  159.3218 H   0  0  0  0  0  0  0  0  0  0  0  0  # atno 6907 bound_to 6896
  151.6368  135.1015  160.0142 H   0  0  0  0  0  0  0  0  0  0  0  0  # atno 6908 bound_to 6896
  152.4120  133.6938  159.6441 H   0  0  0  0  0  0  0  0  0  0  0  0  # atno 6909 bound_to 6896
  145.3951  140.9532  143.2318 H   0  0  0  0  0  0  0  0  0  0  0  0  # atno 7974 bound_to 7965
  156.2976  140.2336  156.4433 H   0  0  0  0  0  0  0  0  0  0  0  0  # atno 8008 bound_to 7997
  154.8166  140.0440  157.1401 H   0  0  0  0  0  0  0  0  0  0  0  0  # atno 8009 bound_to 7997
  154.9362  140.3023  155.5146 H   0  0  0  0  0  0  0  0  0  0  0  0  # atno 8010 bound_to 7997
  139.4975  144.3783  151.9650 H   0  0  0  0  0  0  0  0  0  0  0  0  # atno 10167 bound_to 10162
  156.9076  130.9899  151.3026 H   0  0  0  0  0  0  0  0  0  0  0  0  # atno 10718 bound_to 10713
  154.4919  135.2779  155.1490 H   0  0  0  0  0  0  0  0  0  0  0  0  # atno 10763 bound_to 10752
  154.3158  135.6220  153.5489 H   0  0  0  0  0  0  0  0  0  0  0  0  # atno 10764 bound_to 10752
  152.9889  135.5730  154.5342 H   0  0  0  0  0  0  0  0  0  0  0  0  # atno 10765 bound_to 10752
  140.5715  134.5233  157.5162 H   0  0  0  0  0  0  0  0  0  0  0  0  # atno 11005 bound_to 11000
  144.8413  139.5468  143.6899 LP  0  0  0  0  0  0  0  0  0  0  0  0  # atno 17320 bound_to 7965
  146.2779  139.6800  142.9250 LP  0  0  0  0  0  0  0  0  0  0  0  0  # atno 17321 bound_to 7965
  140.3219  144.3418  150.6007 LP  0  0  0  0  0  0  0  0  0  0  0  0  # atno 17342 bound_to 10162
  140.5716  143.2180  151.7589 LP  0  0  0  0  0  0  0  0  0  0  0  0  # atno 17343 bound_to 10162
  157.5987  130.8497  149.8769 LP  0  0  0  0  0  0  0  0  0  0  0  0  # atno 17370 bound_to 10713
  156.0551  130.3710  150.1109 LP  0  0  0  0  0  0  0  0  0  0  0  0  # atno 17371 bound_to 10713
  139.9359  134.7876  156.0804 LP  0  0  0  0  0  0  0  0  0  0  0  0  # atno 17394 bound_to 11000
  141.1053  133.6662  156.2849 LP  0  0  0  0  0  0  0  0  0  0  0  0  # atno 17395 bound_to 11000

$$$$
