AV-unprocessed.smi:2203|AV-procd|sdf|8936|dock7
  -GOLD-   2272012153D 1   1.00000     0.00000
 Structure written by MMmdl.
 48 49  0  0  0  0  0  0  0  0  1 V2000
  151.6256  144.7323  157.9145 C   0  0  0  0  0  0  0  0  0  0  0  0
  151.9679  143.3699  158.4461 C   0  0  0  0  0  0  0  0  0  0  0  0
  152.8710  143.2604  159.4048 N   0  0  0  0  0  0  0  0  0  0  0  0
  152.9557  141.9372  159.6543 N   0  0  0  0  0  0  0  0  0  0  0  0
  153.8901  141.4672  160.6666 C   0  0  0  0  0  0  0  0  0  0  0  0
  153.7935  142.2499  161.9944 C   0  0  0  0  0  0  0  0  0  0  0  0
  154.2992  141.3960  163.1662 C   0  0  0  0  0  0  0  0  0  0  0  0
  152.3776  142.7826  162.2774 C   0  0  0  0  0  0  0  0  0  0  0  0
  152.0885  141.2106  158.8582 C   0  0  0  0  0  0  0  0  0  0  0  0
  151.9747  139.7215  158.9367 C   0  0  0  0  0  0  0  0  0  0  0  0
  151.4324  142.1068  158.0571 C   0  0  0  0  0  0  0  0  0  0  0  0
  150.3884  141.8349  157.0025 C   0  0  0  0  0  0  0  0  0  0  0  0
  149.0198  141.6259  157.6522 C   0  0  0  0  0  0  0  0  0  0  0  0
  148.7899  140.5961  158.2857 O   0  0  0  0  0  0  0  0  0  0  0  0
  148.1165  142.6026  157.4757 N   0  0  0  0  0  0  0  0  0  0  0  0
  146.7475  142.5839  157.9761 C   0  0  0  0  0  0  0  0  0  0  0  0
  146.5737  143.5394  159.1677 C   0  0  1  0  0  0  0  0  0  0  0  0
  145.1415  144.0274  159.3684 C   0  0  0  0  0  0  0  0  0  0  0  0
  145.1009  144.3956  160.8432 C   0  0  0  0  0  0  0  0  0  0  0  0
  146.3188  143.6831  161.4404 C   0  0  0  0  0  0  0  0  0  0  0  0
  146.8332  142.8720  160.3926 O   0  0  0  0  0  0  0  0  0  0  0  0
  150.7017  145.1026  158.3588 H   0  0  0  0  0  0  0  0  0  0  0  0
  151.4895  144.7101  156.8336 H   0  0  0  0  0  0  0  0  0  0  0  0
  152.4113  145.4572  158.1304 H   0  0  0  0  0  0  0  0  0  0  0  0
  153.7071  140.4064  160.8462 H   0  0  0  0  0  0  0  0  0  0  0  0
  154.8994  141.5337  160.2599 H   0  0  0  0  0  0  0  0  0  0  0  0
  154.4534  143.1146  161.9207 H   0  0  0  0  0  0  0  0  0  0  0  0
  153.6778  140.5111  163.3083 H   0  0  0  0  0  0  0  0  0  0  0  0
  154.2909  141.9619  164.0982 H   0  0  0  0  0  0  0  0  0  0  0  0
  155.3225  141.0605  162.9958 H   0  0  0  0  0  0  0  0  0  0  0  0
  151.6513  141.9704  162.3199 H   0  0  0  0  0  0  0  0  0  0  0  0
  152.0502  143.4833  161.5092 H   0  0  0  0  0  0  0  0  0  0  0  0
  152.3405  143.3119  163.2299 H   0  0  0  0  0  0  0  0  0  0  0  0
  151.0857  139.3672  158.4151 H   0  0  0  0  0  0  0  0  0  0  0  0
  151.9029  139.3847  159.9707 H   0  0  0  0  0  0  0  0  0  0  0  0
  152.8418  139.2430  158.4813 H   0  0  0  0  0  0  0  0  0  0  0  0
  150.3155  142.6565  156.2894 H   0  0  0  0  0  0  0  0  0  0  0  0
  150.6421  140.9528  156.4135 H   0  0  0  0  0  0  0  0  0  0  0  0
  148.3940  143.4131  156.9418 H   0  0  0  0  0  0  0  0  0  0  0  0
  146.0555  142.8475  157.1746 H   0  0  0  0  0  0  0  0  0  0  0  0
  146.5036  141.5635  158.2731 H   0  0  0  0  0  0  0  0  0  0  0  0
  147.2440  144.3967  159.0782 H   0  0  0  0  0  0  0  0  0  0  0  0
  144.8842  144.8608  158.7141 H   0  0  0  0  0  0  0  0  0  0  0  0
  144.4369  143.2172  159.1755 H   0  0  0  0  0  0  0  0  0  0  0  0
  145.1842  145.4738  160.9838 H   0  0  0  0  0  0  0  0  0  0  0  0
  144.1695  144.0675  161.3056 H   0  0  0  0  0  0  0  0  0  0  0  0
  147.0776  144.4073  161.7399 H   0  0  0  0  0  0  0  0  0  0  0  0
  146.0642  143.0780  162.3110 H   0  0  0  0  0  0  0  0  0  0  0  0
  1  2  1  0  0  0  0
  1 22  1  0  0  0  0
  1 23  1  0  0  0  0
  1 24  1  0  0  0  0
  2 11  1  0  0  0  0
  2  3  2  0  0  0  0
  3  4  1  0  0  0  0
  4  5  1  0  0  0  0
  4  9  1  0  0  0  0
  5  6  1  0  0  0  0
  5 25  1  0  0  0  0
  5 26  1  0  0  0  0
  6  7  1  0  0  0  0
  6  8  1  0  0  0  0
  6 27  1  0  0  0  0
  7 28  1  0  0  0  0
  7 29  1  0  0  0  0
  7 30  1  0  0  0  0
  8 31  1  0  0  0  0
  8 32  1  0  0  0  0
  8 33  1  0  0  0  0
  9 10  1  0  0  0  0
  9 11  2  0  0  0  0
 10 34  1  0  0  0  0
 10 35  1  0  0  0  0
 10 36  1  0  0  0  0
 11 12  1  0  0  0  0
 12 13  1  0  0  0  0
 12 37  1  0  0  0  0
 12 38  1  0  0  0  0
 13 14  2  0  0  0  0
 13 15  1  0  0  0  0
 15 16  1  0  0  0  0
 15 39  1  0  0  0  0
 16 17  1  0  0  0  0
 16 40  1  0  0  0  0
 16 41  1  0  0  0  0
 17 21  1  0  0  0  0
 17 18  1  0  0  0  0
 17 42  1  0  0  0  0
 18 19  1  0  0  0  0
 18 43  1  0  0  0  0
 18 44  1  0  0  0  0
 19 20  1  0  0  0  0
 19 45  1  0  0  0  0
 19 46  1  0  0  0  0
 20 21  1  0  0  0  0
 20 47  1  0  0  0  0
 20 48  1  0  0  0  0
M  END
> <s_m_source_file>
AV-unprocessed.smi

> <i_m_source_file_index>
2203

> <i_lp_mmshare_version>
43012

> <i_f3d_flags>
0

> <s_epik_input>
W0NIM11jMW5uKFtDSDJdW0NIXShbQ0gzXSlbQ0gzXSljKFtDSDNdKWMxW0NIMl1DKD1PKVtOSF1bQ0gyXVtDQEBIXTJbQ0gyXVtDSDJdW0NIMl1PMg==

> <s_epik_cmdline>
J2VwaWtfcHl0aG9uJywgJy1waCcsICc3LjAnLCAnLXRuJywgJzgnLCAnLW1hJywgJzIwMCcsICctbWV0YWxfYmluZGluZycsICctaW1hZScsICc8aW5maWxlLm1hZT4nLCAnLW9tYWUnLCAnPG91dGZpbGUubWFlPic=

> <r_lp_tautomer_probability>
1

> <r_epik_Ionization_Penalty>
0.00306713

> <r_epik_Ionization_Penalty_Charging>
0

> <r_epik_Ionization_Penalty_Neutral>
0.00306713

> <r_epik_State_Penalty>
0.00215672

> <r_epik_Charging_Adjusted_Penalty>
0.00215672

> <i_epik_Tot_Q>
0

> <i_epik_Tot_abs_Q>
0

> <r_epik_Metal_State_Penalty>
-0

> <b_epik_Metal_Only>
0

> <s_lp_Force_Field>
OPLS_2005

> <r_lp_Energy>
15.0648

> <b_lp_Chiralities_Consistent>
1

> <s_lp_Variant>
AV-unprocessed.smi:2203-2

> <Gold.Version>
5.8.1

> <Gold.Id.Protein>
6NUR|6NUR_protein|mol2

> <Gold.PLP.Fitness>
45.8888

> <Gold.PLP.PLP>
-40.9386

> <Gold.PLP.part.hbond>
-3.9489

> <Gold.PLP.part.metal>
0.0000

> <Gold.PLP.part.buried>
-3.8510

> <Gold.PLP.part.nonpolar>
-33.2948

> <Gold.PLP.part.repulsive>
0.0818

> <Gold.PLP.ligand.clash>
0.0000

> <Gold.PLP.ligand.torsion>
1.2447

> <Gold.PLP.Chemscore.Hbond>
2.4664

> <Gold.PLP.Chemscore.CHOScore>
0.0000

> <Gold.PLP.Chemscore.Metal>
0.0000

> <Gold.Chemscore.Hbonds>
donor molecule, donor type, donor heavy atom, donor atom, acceptor molecule, acceptor atom, score
      L1  H    15    39       P1  8028  0.90
      P1  H  6933  6944       L1    21  0.64
      P1  H  6934  6946       L1    21  0.93

> <Gold.PLP.Chemscore.Internal.Correction>
0.0404

> <Gold.Rescore>
     Score         DG    S(hbond)    S(metal)    S(lipo)     H(rot)  DE(clash)    DE(int)     intcor
     16.30     -18.85       1.44        0.00     108.97       1.63       0.45       2.10       ----

> <Gold.Chemscore.Fitness>
16.3030

> <Gold.Chemscore.DG>
-18.8530

> <Gold.Chemscore.ZeroCoef>
-5.4800

> <Gold.Chemscore.Hbond>
1.4381

> <Gold.Chemscore.Metal>
0.0000

> <Gold.Chemscore.Lipo>
108.9747

> <Gold.Chemscore.Internal_Hbond>
0.0000

> <Gold.Chemscore.DEClash>
0.4546

> <Gold.Chemscore.DEInternal>
2.0954

> <Gold.Chemscore.Rot>
1.6329

> <Gold.Chemscore.Internal.Correction>
   9.000000E+99

> <Gold.Chemscore.Hbonds>
donor molecule, donor type, donor heavy atom, donor atom, acceptor molecule, acceptor atom, score
      L1  H    15    39       P1  8028  0.18
      P1  H  6933  6944       L1    21  0.06
      P1  H  6934  6946       L1    21  0.79

> <Gold.Chemscore.Hbond.Weighted>
-4.8033

> <Gold.Chemscore.Metal.Weighted>
-0.0000

> <Gold.Chemscore.Lipo.Weighted>
-12.7500

> <Gold.Chemscore.Internal_Hbond.Weighted>
0.0000

> <Gold.Chemscore.DEClash.Weighted>
0.4546

> <Gold.Chemscore.DEInternal.Weighted>
2.0954

> <Gold.Chemscore.Rot.Weighted>
4.1803

> <Gold.Chemscore.Internal.Correction.Weighted>
   9.000000E+99

> <Gold.Protein.RotatedTorsions>
[ 6907 6896 6895 6894 ] final   26.12 input  -60.11 | X-H torsion
[ 7974 7965 7964 7962 ] final  -69.08 input  175.53 | X-H torsion
[ 8008 7997 7996 7995 ] final -111.21 input   59.86 | X-H torsion
[ 10167 10162 10161 10158 ] final   34.02 input  -65.29 | X-H torsion
[ 10718 10713 10712 10709 ] final  136.07 input   66.30 | X-H torsion
[ 10763 10752 10751 10750 ] final   76.31 input  -60.55 | X-H torsion
[ 11005 11000 10999 10996 ] final  -76.51 input  -57.11 | X-H torsion

> <Gold.Protein.ActiveResidues>
 VAL166  LYS551  ARG553  GLY616  TRP617  ASP618  TYR619  PRO620  LYS621  CYS622 
 ASP623  PHE694  ASN695  SER759  ASP760  ASP761  ALA762  ILE779  LEU786  VAL792 
 PHE793  MET794  SER795  GLU796  ALA797  LYS798  CYS799  TRP800  GLU811  SER814 

> <Gold.Protein.RotatedAtoms>
  151.9828  135.0020  160.0557 H   0  0  0  0  0  0  0  0  0  0  0  0  # atno 6907 bound_to 6896
  152.1681  133.4620  159.4903 H   0  0  0  0  0  0  0  0  0  0  0  0  # atno 6908 bound_to 6896
  150.6897  134.1905  159.4326 H   0  0  0  0  0  0  0  0  0  0  0  0  # atno 6909 bound_to 6896
  145.7084  140.9088  143.0694 H   0  0  0  0  0  0  0  0  0  0  0  0  # atno 7974 bound_to 7965
  154.9863  140.0395  157.2300 H   0  0  0  0  0  0  0  0  0  0  0  0  # atno 8008 bound_to 7997
  154.7669  140.2794  155.6147 H   0  0  0  0  0  0  0  0  0  0  0  0  # atno 8009 bound_to 7997
  156.2914  140.2617  156.2461 H   0  0  0  0  0  0  0  0  0  0  0  0  # atno 8010 bound_to 7997
  140.4354  144.1265  150.6165 H   0  0  0  0  0  0  0  0  0  0  0  0  # atno 10167 bound_to 10162
  157.4505  131.1065  151.0039 H   0  0  0  0  0  0  0  0  0  0  0  0  # atno 10718 bound_to 10713
  153.0716  135.4956  154.8317 H   0  0  0  0  0  0  0  0  0  0  0  0  # atno 10763 bound_to 10752
  154.7031  135.3005  154.9314 H   0  0  0  0  0  0  0  0  0  0  0  0  # atno 10764 bound_to 10752
  154.0032  135.6764  153.4813 H   0  0  0  0  0  0  0  0  0  0  0  0  # atno 10765 bound_to 10752
  141.1654  133.6986  156.7680 H   0  0  0  0  0  0  0  0  0  0  0  0  # atno 11005 bound_to 11000
  144.6949  139.9041  143.7460 LP  0  0  0  0  0  0  0  0  0  0  0  0  # atno 17320 bound_to 7965
  146.0735  139.3723  143.0508 LP  0  0  0  0  0  0  0  0  0  0  0  0  # atno 17321 bound_to 7965
  140.4380  143.2539  151.9510 LP  0  0  0  0  0  0  0  0  0  0  0  0  # atno 17342 bound_to 10162
  139.4787  144.5682  151.8131 LP  0  0  0  0  0  0  0  0  0  0  0  0  # atno 17343 bound_to 10162
  157.0871  130.5927  149.5432 LP  0  0  0  0  0  0  0  0  0  0  0  0  # atno 17370 bound_to 10713
  155.9985  130.5059  150.7573 LP  0  0  0  0  0  0  0  0  0  0  0  0  # atno 17371 bound_to 10713
  140.2485  134.8559  157.3644 LP  0  0  0  0  0  0  0  0  0  0  0  0  # atno 17394 bound_to 11000
  140.1726  134.4590  155.7822 LP  0  0  0  0  0  0  0  0  0  0  0  0  # atno 17395 bound_to 11000

$$$$
