AV-unprocessed.smi:2930|AV-procd|sdf|11240|dock10
  -GOLD-   2272016133D 1   1.00000     0.00000
 Structure written by MMmdl.
 40 41  0  0  0  0  0  0  0  0  1 V2000
  148.4715  140.7857  154.0955 C   0  0  0  0  0  0  0  0  0  0  0  0
  147.0785  140.7771  154.7400 C   0  0  2  0  0  0  0  0  0  0  0  0
  146.1825  139.9510  153.9345 N   0  0  0  0  0  0  0  0  0  0  0  0
  146.3529  138.6495  153.6602 C   0  0  0  0  0  0  0  0  0  0  0  0
  147.3122  137.9887  154.0574 O   0  0  0  0  0  0  0  0  0  0  0  0
  145.3540  138.1829  152.8923 N   0  0  0  0  0  0  0  0  0  0  0  0
  145.1521  136.8610  152.4127 C   0  0  0  0  0  0  0  0  0  0  0  0
  144.0890  136.4484  151.5743 C   0  0  0  0  0  0  0  0  0  0  0  0
  143.9791  135.1728  151.1458 N   0  0  0  0  0  0  0  0  0  0  0  0
  144.9159  134.2989  151.5370 C   0  0  0  0  0  0  0  0  0  0  0  0
  144.7931  132.9802  151.0899 N   0  0  0  0  0  0  0  0  0  0  0  0
  143.8014  132.6121  150.0837 C   0  0  0  0  0  0  0  0  0  0  0  0
  145.6437  131.9195  151.6220 C   0  0  0  0  0  0  0  0  0  0  0  0
  145.9638  134.5903  152.3190 N   0  0  0  0  0  0  0  0  0  0  0  0
  146.0861  135.8624  152.7527 C   0  0  0  0  0  0  0  0  0  0  0  0
  146.5044  142.1879  154.8854 C   0  0  0  0  0  0  0  0  0  0  0  0
  145.0374  142.3803  155.3003 C   0  0  0  0  0  0  0  0  0  0  0  0
  144.9926  143.6187  154.4010 C   0  0  0  0  0  0  0  0  0  0  0  0
  146.1804  143.0265  153.6385 C   0  0  0  0  0  0  0  0  0  0  0  0
  149.1770  141.3653  154.6914 H   0  0  0  0  0  0  0  0  0  0  0  0
  148.4446  141.2214  153.0961 H   0  0  0  0  0  0  0  0  0  0  0  0
  148.8699  139.7744  154.0086 H   0  0  0  0  0  0  0  0  0  0  0  0
  147.1866  140.3301  155.7298 H   0  0  0  0  0  0  0  0  0  0  0  0
  145.3645  140.4084  153.5601 H   0  0  0  0  0  0  0  0  0  0  0  0
  144.6749  138.8636  152.5848 H   0  0  0  0  0  0  0  0  0  0  0  0
  143.3274  137.1238  151.2176 H   0  0  0  0  0  0  0  0  0  0  0  0
  143.9780  133.1599  149.1576 H   0  0  0  0  0  0  0  0  0  0  0  0
  142.7967  132.8469  150.4366 H   0  0  0  0  0  0  0  0  0  0  0  0
  143.8311  131.5477  149.8510 H   0  0  0  0  0  0  0  0  0  0  0  0
  145.4888  131.8131  152.6961 H   0  0  0  0  0  0  0  0  0  0  0  0
  146.6950  132.1503  151.4472 H   0  0  0  0  0  0  0  0  0  0  0  0
  145.4339  130.9558  151.1579 H   0  0  0  0  0  0  0  0  0  0  0  0
  146.9381  136.0822  153.3794 H   0  0  0  0  0  0  0  0  0  0  0  0
  147.1279  142.7888  155.5513 H   0  0  0  0  0  0  0  0  0  0  0  0
  144.3875  141.5788  154.9448 H   0  0  0  0  0  0  0  0  0  0  0  0
  144.8856  142.5796  156.3616 H   0  0  0  0  0  0  0  0  0  0  0  0
  144.0805  143.7253  153.8135 H   0  0  0  0  0  0  0  0  0  0  0  0
  145.2457  144.5378  154.9317 H   0  0  0  0  0  0  0  0  0  0  0  0
  146.9518  143.7452  153.3603 H   0  0  0  0  0  0  0  0  0  0  0  0
  145.8710  142.4190  152.7864 H   0  0  0  0  0  0  0  0  0  0  0  0
  1  2  1  0  0  0  0
  1 20  1  0  0  0  0
  1 21  1  0  0  0  0
  1 22  1  0  0  0  0
  2  3  1  0  0  0  0
  2 16  1  0  0  0  0
  2 23  1  0  0  0  0
  3  4  1  0  0  0  0
  3 24  1  0  0  0  0
  4  5  2  0  0  0  0
  4  6  1  0  0  0  0
  6  7  1  0  0  0  0
  6 25  1  0  0  0  0
  7 15  1  0  0  0  0
  7  8  2  0  0  0  0
  8  9  1  0  0  0  0
  8 26  1  0  0  0  0
  9 10  2  0  0  0  0
 10 11  1  0  0  0  0
 10 14  1  0  0  0  0
 11 12  1  0  0  0  0
 11 13  1  0  0  0  0
 12 27  1  0  0  0  0
 12 28  1  0  0  0  0
 12 29  1  0  0  0  0
 13 30  1  0  0  0  0
 13 31  1  0  0  0  0
 13 32  1  0  0  0  0
 14 15  2  0  0  0  0
 15 33  1  0  0  0  0
 16 19  1  0  0  0  0
 16 17  1  0  0  0  0
 16 34  1  0  0  0  0
 17 18  1  0  0  0  0
 17 35  1  0  0  0  0
 17 36  1  0  0  0  0
 18 19  1  0  0  0  0
 18 37  1  0  0  0  0
 18 38  1  0  0  0  0
 19 39  1  0  0  0  0
 19 40  1  0  0  0  0
M  END
> <s_m_source_file>
AV-unprocessed.smi

> <i_m_source_file_index>
2930

> <i_lp_mmshare_version>
43012

> <i_f3d_flags>
0

> <s_epik_input>
W0NIMl0xW0NIMl1bQ0gyXVtDSF0xW0NASF0oW0NIM10pW05IXUMoPU8pW05IXWMyW2NIXW5jKE4oW0NIM10pW0NIM10pbltjSF0y

> <s_epik_cmdline>
J2VwaWtfcHl0aG9uJywgJy1waCcsICc3LjAnLCAnLXRuJywgJzgnLCAnLW1hJywgJzIwMCcsICctbWV0YWxfYmluZGluZycsICctaW1hZScsICc8aW5maWxlLm1hZT4nLCAnLW9tYWUnLCAnPG91dGZpbGUubWFlPic=

> <r_lp_tautomer_probability>
1

> <r_epik_Ionization_Penalty>
0.000323856

> <r_epik_Ionization_Penalty_Charging>
0

> <r_epik_Ionization_Penalty_Neutral>
0.000323856

> <r_epik_State_Penalty>
-0

> <r_epik_Charging_Adjusted_Penalty>
0

> <i_epik_Tot_Q>
0

> <i_epik_Tot_abs_Q>
0

> <r_epik_Metal_State_Penalty>
-0

> <b_epik_Metal_Only>
0

> <s_lp_Force_Field>
OPLS_2005

> <r_lp_Energy>
8.18879

> <b_lp_Chiralities_Consistent>
1

> <s_lp_Variant>
AV-unprocessed.smi:2930-1

> <Gold.Version>
5.8.1

> <Gold.Id.Protein>
6NUR|6NUR_protein|mol2

> <Gold.PLP.Fitness>
39.1132

> <Gold.PLP.PLP>
-29.2451

> <Gold.PLP.part.hbond>
-2.0000

> <Gold.PLP.part.metal>
0.0000

> <Gold.PLP.part.buried>
-2.0291

> <Gold.PLP.part.nonpolar>
-25.7975

> <Gold.PLP.part.repulsive>
0.4544

> <Gold.PLP.ligand.clash>
0.0000

> <Gold.PLP.ligand.torsion>
0.1065

> <Gold.PLP.Chemscore.Hbond>
2.0000

> <Gold.PLP.Chemscore.CHOScore>
1.3221

> <Gold.PLP.Chemscore.Metal>
0.0000

> <Gold.Chemscore.Hbonds>
donor molecule, donor type, donor heavy atom, donor atom, acceptor molecule, acceptor atom, score
      L1  H     3    24       P1 10175  1.00
      L1  H     6    25       P1 10175  1.00
      L1  C     8    26       P1 10171  0.79
      L1  C    15    33       P1  7948  0.53

> <Gold.PLP.Chemscore.Internal.Correction>
0.1148

> <Gold.Rescore>
     Score         DG    S(hbond)    S(metal)    S(lipo)     H(rot)  DE(clash)    DE(int)     intcor
     13.61     -16.35       1.93        0.00      63.94       1.19       1.19       1.54       ----

> <Gold.Chemscore.Fitness>
13.6150

> <Gold.Chemscore.DG>
-16.3539

> <Gold.Chemscore.ZeroCoef>
-5.4800

> <Gold.Chemscore.Hbond>
1.9317

> <Gold.Chemscore.Metal>
0.0000

> <Gold.Chemscore.Lipo>
63.9415

> <Gold.Chemscore.Internal_Hbond>
0.0000

> <Gold.Chemscore.DEClash>
1.1940

> <Gold.Chemscore.DEInternal>
1.5449

> <Gold.Chemscore.Rot>
1.1949

> <Gold.Chemscore.Internal.Correction>
   9.000000E+99

> <Gold.Chemscore.Hbonds>
donor molecule, donor type, donor heavy atom, donor atom, acceptor molecule, acceptor atom, score
      L1  H     3    24       P1 10175  0.93
      L1  H     6    25       P1 10175  1.00

> <Gold.Chemscore.Hbond.Weighted>
-6.4517

> <Gold.Chemscore.Metal.Weighted>
-0.0000

> <Gold.Chemscore.Lipo.Weighted>
-7.4812

> <Gold.Chemscore.Internal_Hbond.Weighted>
0.0000

> <Gold.Chemscore.DEClash.Weighted>
1.1940

> <Gold.Chemscore.DEInternal.Weighted>
1.5449

> <Gold.Chemscore.Rot.Weighted>
3.0590

> <Gold.Chemscore.Internal.Correction.Weighted>
   9.000000E+99

> <Gold.Protein.RotatedTorsions>
[ 6907 6896 6895 6894 ] final -114.94 input  -60.11 | X-H torsion
[ 7974 7965 7964 7962 ] final -169.12 input  175.53 | X-H torsion
[ 8008 7997 7996 7995 ] final  -39.90 input   59.86 | X-H torsion
[ 10167 10162 10161 10158 ] final   76.30 input  -65.29 | X-H torsion
[ 10718 10713 10712 10709 ] final -170.19 input   66.30 | X-H torsion
[ 10763 10752 10751 10750 ] final  -45.45 input  -60.55 | X-H torsion
[ 11005 11000 10999 10996 ] final    0.82 input  -57.11 | X-H torsion

> <Gold.Protein.ActiveResidues>
 VAL166  LYS551  ARG553  GLY616  TRP617  ASP618  TYR619  PRO620  LYS621  CYS622 
 ASP623  PHE694  ASN695  SER759  ASP760  ASP761  ALA762  ILE779  LEU786  VAL792 
 PHE793  MET794  SER795  GLU796  ALA797  LYS798  CYS799  TRP800  GLU811  SER814 

> <Gold.Protein.RotatedAtoms>
  150.7940  133.8729  159.3263 H   0  0  0  0  0  0  0  0  0  0  0  0  # atno 6907 bound_to 6896
  151.6559  135.0994  160.0179 H   0  0  0  0  0  0  0  0  0  0  0  0  # atno 6908 bound_to 6896
  152.4019  133.6791  159.6359 H   0  0  0  0  0  0  0  0  0  0  0  0  # atno 6909 bound_to 6896
  144.7191  140.2269  143.6309 H   0  0  0  0  0  0  0  0  0  0  0  0  # atno 7974 bound_to 7965
  154.4018  140.1539  156.2938 H   0  0  0  0  0  0  0  0  0  0  0  0  # atno 8008 bound_to 7997
  155.8761  140.3446  155.5833 H   0  0  0  0  0  0  0  0  0  0  0  0  # atno 8009 bound_to 7997
  155.7720  140.0831  157.2094 H   0  0  0  0  0  0  0  0  0  0  0  0  # atno 8010 bound_to 7997
  139.9937  144.5738  150.7796 H   0  0  0  0  0  0  0  0  0  0  0  0  # atno 10167 bound_to 10162
  156.7226  130.9276  151.3098 H   0  0  0  0  0  0  0  0  0  0  0  0  # atno 10718 bound_to 10713
  154.0287  135.6659  153.4779 H   0  0  0  0  0  0  0  0  0  0  0  0  # atno 10763 bound_to 10752
  153.0549  135.5062  154.7954 H   0  0  0  0  0  0  0  0  0  0  0  0  # atno 10764 bound_to 10752
  154.6892  135.3058  154.9469 H   0  0  0  0  0  0  0  0  0  0  0  0  # atno 10765 bound_to 10752
  140.6223  133.9650  155.8231 H   0  0  0  0  0  0  0  0  0  0  0  0  # atno 11005 bound_to 11000
  145.8448  139.2147  143.1806 LP  0  0  0  0  0  0  0  0  0  0  0  0  # atno 17320 bound_to 7965
  146.0314  140.8254  142.9874 LP  0  0  0  0  0  0  0  0  0  0  0  0  # atno 17321 bound_to 7965
  140.7445  143.2861  151.3458 LP  0  0  0  0  0  0  0  0  0  0  0  0  # atno 17342 bound_to 10162
  139.6321  144.0700  152.2485 LP  0  0  0  0  0  0  0  0  0  0  0  0  # atno 17343 bound_to 10162
  157.6892  130.9216  150.0467 LP  0  0  0  0  0  0  0  0  0  0  0  0  # atno 17370 bound_to 10713
  156.1584  130.3643  149.9335 LP  0  0  0  0  0  0  0  0  0  0  0  0  # atno 17371 bound_to 10713
  141.0734  134.0172  157.3494 LP  0  0  0  0  0  0  0  0  0  0  0  0  # atno 17394 bound_to 11000
  139.9148  135.0195  156.7839 LP  0  0  0  0  0  0  0  0  0  0  0  0  # atno 17395 bound_to 11000

$$$$
