AV-unprocessed.smi:1434|AV-procd|sdf|5852|dock2
  -GOLD-   22720 5523D 1   1.00000     0.00000
 Structure written by MMmdl.
 45 46  0  0  0  0  0  0  0  0  2 V2000
  148.7745  132.7199  153.3795 C   0  0  0  0  0  0  0  0  0  0  0  0
  148.8759  133.8137  154.8525 S   0  0  0  0  0  0  0  0  0  0  0  0
  147.5434  134.3706  155.1298 O   0  0  0  0  0  0  0  0  0  0  0  0
  149.6160  133.1059  155.9083 O   0  0  0  0  0  0  0  0  0  0  0  0
  149.8694  135.1056  154.2882 N   0  0  0  0  0  0  0  0  0  0  0  0
  150.2169  136.1775  155.2221 C   0  0  1  0  0  0  0  0  0  0  0  0
  150.7436  135.5861  156.5470 C   0  0  0  0  0  0  0  0  0  0  0  0
  151.3024  136.6805  157.4767 C   0  0  0  0  0  0  0  0  0  0  0  0
  152.2941  137.5899  156.7277 C   0  0  0  0  0  0  0  0  0  0  0  0
  151.6176  138.1559  155.5475 N   0  0  0  0  0  0  0  0  0  0  0  0
  151.1293  139.4168  155.4362 C   0  0  0  0  0  0  0  0  0  0  0  0
  150.4921  139.8116  154.4588 O   0  0  0  0  0  0  0  0  0  0  0  0
  151.4360  140.2305  156.4595 N   0  0  0  0  0  0  0  0  0  0  0  0
  151.0400  141.6290  156.5490 C   0  0  0  0  0  0  0  0  0  0  0  0
  150.0351  141.8371  157.6898 C   0  0  0  0  0  0  0  0  0  0  0  0
  150.4890  142.9091  158.6614 C   0  0  0  0  0  0  0  0  0  0  0  0
  151.1542  142.5969  159.8671 C   0  0  0  0  0  0  0  0  0  0  0  0
  151.5598  143.6438  160.7210 C   0  0  0  0  0  0  0  0  0  0  0  0
  151.2927  144.9786  160.3520 C   0  0  0  0  0  0  0  0  0  0  0  0
  150.6265  145.2332  159.1360 C   0  0  0  0  0  0  0  0  0  0  0  0
  150.2541  144.2031  158.3445 N   0  3  0  0  0  0  0  0  0  0  0  0
  151.2677  137.1058  154.5831 C   0  0  0  0  0  0  0  0  0  0  0  0
  148.1742  131.8429  153.6212 H   0  0  0  0  0  0  0  0  0  0  0  0
  149.7767  132.4036  153.0913 H   0  0  0  0  0  0  0  0  0  0  0  0
  148.3114  133.2596  152.5540 H   0  0  0  0  0  0  0  0  0  0  0  0
  149.5108  135.4868  153.4130 H   0  0  0  0  0  0  0  0  0  0  0  0
  149.3201  136.7656  155.4247 H   0  0  0  0  0  0  0  0  0  0  0  0
  149.9576  135.0291  157.0576 H   0  0  0  0  0  0  0  0  0  0  0  0
  151.5378  134.8696  156.3320 H   0  0  0  0  0  0  0  0  0  0  0  0
  150.4805  137.2826  157.8662 H   0  0  0  0  0  0  0  0  0  0  0  0
  151.7878  136.2238  158.3397 H   0  0  0  0  0  0  0  0  0  0  0  0
  152.6949  138.3394  157.4098 H   0  0  0  0  0  0  0  0  0  0  0  0
  153.1569  137.0076  156.4010 H   0  0  0  0  0  0  0  0  0  0  0  0
  151.9763  139.8511  157.2233 H   0  0  0  0  0  0  0  0  0  0  0  0
  151.9223  142.2497  156.7153 H   0  0  0  0  0  0  0  0  0  0  0  0
  150.6031  141.9358  155.5974 H   0  0  0  0  0  0  0  0  0  0  0  0
  149.0601  142.1147  157.2862 H   0  0  0  0  0  0  0  0  0  0  0  0
  149.8890  140.9025  158.2334 H   0  0  0  0  0  0  0  0  0  0  0  0
  151.3551  141.5696  160.1347 H   0  0  0  0  0  0  0  0  0  0  0  0
  152.0709  143.4254  161.6473 H   0  0  0  0  0  0  0  0  0  0  0  0
  151.5961  145.7945  160.9918 H   0  0  0  0  0  0  0  0  0  0  0  0
  150.3828  146.2214  158.7744 H   0  0  0  0  0  0  0  0  0  0  0  0
  152.1653  136.5425  154.3227 H   0  0  0  0  0  0  0  0  0  0  0  0
  150.8933  137.5134  153.6425 H   0  0  0  0  0  0  0  0  0  0  0  0
  149.7752  144.4112  157.4680 H   0  0  0  0  0  0  0  0  0  0  0  0
  1  2  1  0  0  0  0
  1 23  1  0  0  0  0
  1 24  1  0  0  0  0
  1 25  1  0  0  0  0
  2  3  2  0  0  0  0
  2  4  2  0  0  0  0
  2  5  1  0  0  0  0
  5  6  1  0  0  0  0
  5 26  1  0  0  0  0
  6 22  1  0  0  0  0
  6  7  1  0  0  0  0
  6 27  1  0  0  0  0
  7  8  1  0  0  0  0
  7 28  1  0  0  0  0
  7 29  1  0  0  0  0
  8  9  1  0  0  0  0
  8 30  1  0  0  0  0
  8 31  1  0  0  0  0
  9 10  1  0  0  0  0
  9 32  1  0  0  0  0
  9 33  1  0  0  0  0
 10 11  1  0  0  0  0
 10 22  1  0  0  0  0
 11 12  2  0  0  0  0
 11 13  1  0  0  0  0
 13 14  1  0  0  0  0
 13 34  1  0  0  0  0
 14 15  1  0  0  0  0
 14 35  1  0  0  0  0
 14 36  1  0  0  0  0
 15 16  1  0  0  0  0
 15 37  1  0  0  0  0
 15 38  1  0  0  0  0
 16 21  1  0  0  0  0
 16 17  2  0  0  0  0
 17 18  1  0  0  0  0
 17 39  1  0  0  0  0
 18 19  2  0  0  0  0
 18 40  1  0  0  0  0
 19 20  1  0  0  0  0
 19 41  1  0  0  0  0
 20 21  2  0  0  0  0
 20 42  1  0  0  0  0
 21 45  1  0  0  0  0
 22 43  1  0  0  0  0
 22 44  1  0  0  0  0
M  CHG  1  21   1
M  END
> <s_m_source_file>
AV-unprocessed.smi

> <i_m_source_file_index>
1434

> <i_lp_mmshare_version>
43012

> <i_f3d_flags>
0

> <s_epik_input>
W0NIM11TKD1PKSg9TylbTkhdW0NAQEhdMVtDSDJdW0NIMl1bQ0gyXU4oW0NIMl0xKUMoPU8pW05IXVtDSDJdW0NIMl1jMltjSF1bY0hdW2NIXVtjSF1uMg==

> <s_epik_cmdline>
J2VwaWtfcHl0aG9uJywgJy1waCcsICc3LjAnLCAnLXRuJywgJzgnLCAnLW1hJywgJzIwMCcsICctbWV0YWxfYmluZGluZycsICctaW1hZScsICc8aW5maWxlLm1hZT4nLCAnLW9tYWUnLCAnPG91dGZpbGUubWFlPic=

> <r_epik_Ionization_Penalty>
1.55113

> <r_epik_Ionization_Penalty_Charging>
1.55107

> <r_epik_Ionization_Penalty_Neutral>
6.01346e-05

> <r_epik_State_Penalty>
1.64529

> <r_epik_Charging_Adjusted_Penalty>
3.19637

> <i_epik_Tot_Q>
1

> <i_epik_Tot_abs_Q>
1

> <r_epik_Metal_State_Penalty>
1.69621

> <b_epik_Metal_Only>
0

> <s_lp_Force_Field>
OPLS_2005

> <r_lp_Energy>
28.1725

> <b_lp_Chiralities_Consistent>
1

> <s_lp_Variant>
AV-unprocessed.smi:1434-4

> <Gold.Version>
5.8.1

> <Gold.Id.Protein>
6NUR|6NUR_protein|mol2

> <Gold.PLP.Fitness>
49.9272

> <Gold.PLP.PLP>
-40.4007

> <Gold.PLP.part.hbond>
-3.4885

> <Gold.PLP.part.metal>
0.0000

> <Gold.PLP.part.buried>
-5.1428

> <Gold.PLP.part.nonpolar>
-32.8893

> <Gold.PLP.part.repulsive>
0.3744

> <Gold.PLP.ligand.clash>
0.0000

> <Gold.PLP.ligand.torsion>
0.8148

> <Gold.PLP.Chemscore.Hbond>
3.6500

> <Gold.PLP.Chemscore.CHOScore>
0.0000

> <Gold.PLP.Chemscore.Metal>
0.0000

> <Gold.Chemscore.Hbonds>
donor molecule, donor type, donor heavy atom, donor atom, acceptor molecule, acceptor atom, score
      L1  H     5    26       P1  7948  0.75
      L1  H    21    45       P1  8028  1.80
      P1  H  7989  7998       L1    12  1.00

> <Gold.PLP.Chemscore.Internal.Correction>
0.2062

> <Gold.Rescore>
     Score         DG    S(hbond)    S(metal)    S(lipo)     H(rot)  DE(clash)    DE(int)     intcor
     15.56     -17.63       1.96        0.00      94.45       2.13       0.03       2.04       ----

> <Gold.Chemscore.Fitness>
15.5607

> <Gold.Chemscore.DG>
-17.6290

> <Gold.Chemscore.ZeroCoef>
-5.4800

> <Gold.Chemscore.Hbond>
1.9633

> <Gold.Chemscore.Metal>
0.0000

> <Gold.Chemscore.Lipo>
94.4539

> <Gold.Chemscore.Internal_Hbond>
0.0000

> <Gold.Chemscore.DEClash>
0.0288

> <Gold.Chemscore.DEInternal>
2.0395

> <Gold.Chemscore.Rot>
2.1326

> <Gold.Chemscore.Internal.Correction>
   9.000000E+99

> <Gold.Chemscore.Hbonds>
donor molecule, donor type, donor heavy atom, donor atom, acceptor molecule, acceptor atom, score
      L1  H     5    26       P1  7948  0.09
      L1  H    21    45       P1  8028  0.17
      P1  H  7989  7998       L1    12  0.60

> <Gold.Chemscore.Hbond.Weighted>
-6.5575

> <Gold.Chemscore.Metal.Weighted>
-0.0000

> <Gold.Chemscore.Lipo.Weighted>
-11.0511

> <Gold.Chemscore.Internal_Hbond.Weighted>
0.0000

> <Gold.Chemscore.DEClash.Weighted>
0.0288

> <Gold.Chemscore.DEInternal.Weighted>
2.0395

> <Gold.Chemscore.Rot.Weighted>
5.4595

> <Gold.Chemscore.Internal.Correction.Weighted>
   9.000000E+99

> <Gold.Protein.RotatedTorsions>
[ 6907 6896 6895 6894 ] final  -31.17 input  -60.11 | X-H torsion
[ 7974 7965 7964 7962 ] final   86.89 input  175.53 | X-H torsion
[ 8008 7997 7996 7995 ] final  163.75 input   59.86 | X-H torsion
[ 10167 10162 10161 10158 ] final -164.90 input  -65.29 | X-H torsion
[ 10718 10713 10712 10709 ] final  -91.21 input   66.30 | X-H torsion
[ 10763 10752 10751 10750 ] final   74.54 input  -60.55 | X-H torsion
[ 11005 11000 10999 10996 ] final   32.75 input  -57.11 | X-H torsion

> <Gold.Protein.ActiveResidues>
 VAL166  LYS551  ARG553  GLY616  TRP617  ASP618  TYR619  PRO620  LYS621  CYS622 
 ASP623  PHE694  ASN695  SER759  ASP760  ASP761  ALA762  ILE779  LEU786  VAL792 
 PHE793  MET794  SER795  GLU796  ALA797  LYS798  CYS799  TRP800  GLU811  SER814 

> <Gold.Protein.RotatedAtoms>
  151.0957  134.9943  159.8424 H   0  0  0  0  0  0  0  0  0  0  0  0  # atno 6907 bound_to 6896
  152.5433  134.2011  159.8722 H   0  0  0  0  0  0  0  0  0  0  0  0  # atno 6908 bound_to 6896
  151.2050  133.4545  159.2630 H   0  0  0  0  0  0  0  0  0  0  0  0  # atno 6909 bound_to 6896
  145.5662  139.2309  143.2431 H   0  0  0  0  0  0  0  0  0  0  0  0  # atno 7974 bound_to 7965
  156.1933  140.1715  156.8049 H   0  0  0  0  0  0  0  0  0  0  0  0  # atno 8008 bound_to 7997
  154.5498  140.0720  156.8681 H   0  0  0  0  0  0  0  0  0  0  0  0  # atno 8009 bound_to 7997
  155.3051  140.3364  155.4248 H   0  0  0  0  0  0  0  0  0  0  0  0  # atno 8010 bound_to 7997
  139.6219  144.0608  152.1940 H   0  0  0  0  0  0  0  0  0  0  0  0  # atno 10167 bound_to 10162
  155.9992  130.4939  150.5440 H   0  0  0  0  0  0  0  0  0  0  0  0  # atno 10718 bound_to 10713
  153.0594  135.5022  154.8057 H   0  0  0  0  0  0  0  0  0  0  0  0  # atno 10763 bound_to 10752
  154.6858  135.2976  154.9551 H   0  0  0  0  0  0  0  0  0  0  0  0  # atno 10764 bound_to 10752
  154.0322  135.6728  153.4834 H   0  0  0  0  0  0  0  0  0  0  0  0  # atno 10765 bound_to 10752
  140.2703  134.3090  155.7830 H   0  0  0  0  0  0  0  0  0  0  0  0  # atno 11005 bound_to 11000
  146.1816  140.6488  142.9186 LP  0  0  0  0  0  0  0  0  0  0  0  0  # atno 17320 bound_to 7965
  144.7459  140.5066  143.6836 LP  0  0  0  0  0  0  0  0  0  0  0  0  # atno 17321 bound_to 7965
  140.0252  144.6123  150.7533 LP  0  0  0  0  0  0  0  0  0  0  0  0  # atno 17342 bound_to 10162
  140.7387  143.2782  151.3679 LP  0  0  0  0  0  0  0  0  0  0  0  0  # atno 17343 bound_to 10162
  157.3372  131.0710  151.1816 LP  0  0  0  0  0  0  0  0  0  0  0  0  # atno 17370 bound_to 10713
  157.2676  130.6689  149.6004 LP  0  0  0  0  0  0  0  0  0  0  0  0  # atno 17371 bound_to 10713
  141.2178  133.7462  156.9324 LP  0  0  0  0  0  0  0  0  0  0  0  0  # atno 17394 bound_to 11000
  140.1380  134.9312  157.2428 LP  0  0  0  0  0  0  0  0  0  0  0  0  # atno 17395 bound_to 11000

$$$$
