AV-unprocessed.smi:1570|AV-procd|sdf|6318|dock3
  -GOLD-   22720 6523D 1   1.00000     0.00000
 Structure written by MMmdl.
 52 54  0  0  0  0  0  0  0  0  2 V2000
  153.9650  141.4768  162.0660 C   0  0  0  0  0  0  0  0  0  0  0  0
  154.2050  140.9189  160.6572 C   0  0  0  0  0  0  0  0  0  0  0  0
  153.0514  141.1541  159.7927 N   0  0  0  0  0  0  0  0  0  0  0  0
  152.4317  140.2406  159.0093 C   0  0  0  0  0  0  0  0  0  0  0  0
  152.7335  139.0519  158.9062 O   0  0  0  0  0  0  0  0  0  0  0  0
  151.4456  140.8704  158.3272 N   0  0  0  0  0  0  0  0  0  0  0  0
  150.5564  140.2780  157.3283 C   0  0  0  0  0  0  0  0  0  0  0  0
  151.0138  140.5924  155.8893 C   0  0  2  0  0  0  0  0  0  0  0  0
  150.3269  141.7493  155.4572 O   0  0  0  0  0  0  0  0  0  0  0  0
  150.7225  139.4474  154.8951 C   0  0  0  0  0  0  0  0  0  0  0  0
  151.0527  138.1114  155.4503 N   0  3  1  0  0  0  0  0  0  0  0  0
  150.6903  136.9919  154.5463 C   0  0  0  0  0  0  0  0  0  0  0  0
  151.0208  135.6382  155.2019 C   0  0  1  0  0  0  0  0  0  0  0  0
  150.7379  134.4602  154.2629 C   0  0  0  0  0  0  0  0  0  0  0  0
  152.4024  135.6115  155.5434 O   0  0  0  0  0  0  0  0  0  0  0  0
  152.7552  136.6236  156.4802 C   0  0  1  0  0  0  0  0  0  0  0  0
  154.2333  136.4436  156.8435 C   0  0  0  0  0  0  0  0  0  0  0  0
  152.4733  138.0042  155.8579 C   0  0  0  0  0  0  0  0  0  0  0  0
  151.4425  142.2283  158.6771 C   0  0  0  0  0  0  0  0  0  0  0  0
  150.6335  143.2930  158.2431 C   0  0  0  0  0  0  0  0  0  0  0  0
  150.8986  144.5706  158.7891 C   0  0  0  0  0  0  0  0  0  0  0  0
  151.9420  144.7556  159.7331 C   0  0  0  0  0  0  0  0  0  0  0  0
  152.7414  143.6664  160.1524 C   0  0  0  0  0  0  0  0  0  0  0  0
  152.4545  142.4074  159.5966 C   0  0  0  0  0  0  0  0  0  0  0  0
  154.8295  141.2981  162.7055 H   0  0  0  0  0  0  0  0  0  0  0  0
  153.1014  141.0049  162.5356 H   0  0  0  0  0  0  0  0  0  0  0  0
  153.7874  142.5524  162.0403 H   0  0  0  0  0  0  0  0  0  0  0  0
  155.0943  141.3784  160.2231 H   0  0  0  0  0  0  0  0  0  0  0  0
  154.4124  139.8497  160.7085 H   0  0  0  0  0  0  0  0  0  0  0  0
  150.4810  139.1991  157.4763 H   0  0  0  0  0  0  0  0  0  0  0  0
  149.5533  140.6722  157.4964 H   0  0  0  0  0  0  0  0  0  0  0  0
  152.0767  140.8303  155.9049 H   0  0  0  0  0  0  0  0  0  0  0  0
  150.4220  142.4213  156.1153 H   0  0  0  0  0  0  0  0  0  0  0  0
  149.6749  139.4431  154.5946 H   0  0  0  0  0  0  0  0  0  0  0  0
  151.2961  139.6253  153.9837 H   0  0  0  0  0  0  0  0  0  0  0  0
  149.6287  137.0267  154.3037 H   0  0  0  0  0  0  0  0  0  0  0  0
  151.2344  137.0940  153.6057 H   0  0  0  0  0  0  0  0  0  0  0  0
  150.4242  135.5112  156.1070 H   0  0  0  0  0  0  0  0  0  0  0  0
  149.6854  134.4272  153.9803 H   0  0  0  0  0  0  0  0  0  0  0  0
  150.9825  133.5120  154.7422 H   0  0  0  0  0  0  0  0  0  0  0  0
  151.3279  134.5329  153.3487 H   0  0  0  0  0  0  0  0  0  0  0  0
  152.1580  136.4995  157.3855 H   0  0  0  0  0  0  0  0  0  0  0  0
  154.5543  137.1925  157.5678 H   0  0  0  0  0  0  0  0  0  0  0  0
  154.8706  136.5338  155.9634 H   0  0  0  0  0  0  0  0  0  0  0  0
  154.4094  135.4610  157.2820 H   0  0  0  0  0  0  0  0  0  0  0  0
  153.1136  138.1669  154.9893 H   0  0  0  0  0  0  0  0  0  0  0  0
  152.7075  138.7869  156.5809 H   0  0  0  0  0  0  0  0  0  0  0  0
  149.8424  143.1467  157.5225 H   0  0  0  0  0  0  0  0  0  0  0  0
  150.3003  145.4161  158.4828 H   0  0  0  0  0  0  0  0  0  0  0  0
  152.1288  145.7402  160.1359 H   0  0  0  0  0  0  0  0  0  0  0  0
  153.5383  143.8021  160.8684 H   0  0  0  0  0  0  0  0  0  0  0  0
  150.5064  138.0083  156.2940 H   0  0  0  0  0  0  0  0  0  0  0  0
  1  2  1  0  0  0  0
  1 25  1  0  0  0  0
  1 26  1  0  0  0  0
  1 27  1  0  0  0  0
  2  3  1  0  0  0  0
  2 28  1  0  0  0  0
  2 29  1  0  0  0  0
  3 24  1  0  0  0  0
  3  4  1  0  0  0  0
  4  5  2  0  0  0  0
  4  6  1  0  0  0  0
  6  7  1  0  0  0  0
  6 19  1  0  0  0  0
  7  8  1  0  0  0  0
  7 30  1  0  0  0  0
  7 31  1  0  0  0  0
  8  9  1  0  0  0  0
  8 10  1  0  0  0  0
  8 32  1  0  0  0  0
  9 33  1  0  0  0  0
 10 11  1  0  0  0  0
 10 34  1  0  0  0  0
 10 35  1  0  0  0  0
 11 18  1  0  0  0  0
 11 12  1  0  0  0  0
 11 52  1  0  0  0  0
 12 13  1  0  0  0  0
 12 36  1  0  0  0  0
 12 37  1  0  0  0  0
 13 14  1  0  0  0  0
 13 15  1  0  0  0  0
 13 38  1  0  0  0  0
 14 39  1  0  0  0  0
 14 40  1  0  0  0  0
 14 41  1  0  0  0  0
 15 16  1  0  0  0  0
 16 17  1  0  0  0  0
 16 18  1  0  0  0  0
 16 42  1  0  0  0  0
 17 43  1  0  0  0  0
 17 44  1  0  0  0  0
 17 45  1  0  0  0  0
 18 46  1  0  0  0  0
 18 47  1  0  0  0  0
 19 24  2  0  0  0  0
 19 20  1  0  0  0  0
 20 21  2  0  0  0  0
 20 48  1  0  0  0  0
 21 22  1  0  0  0  0
 21 49  1  0  0  0  0
 22 23  2  0  0  0  0
 22 50  1  0  0  0  0
 23 24  1  0  0  0  0
 23 51  1  0  0  0  0
M  CHG  1  11   1
M  END
> <s_m_source_file>
AV-unprocessed.smi

> <i_m_source_file_index>
1570

> <i_lp_mmshare_version>
43012

> <i_f3d_flags>
0

> <s_epik_input>
W2NIXTFbY0hdW2NIXVtjSF1jKGMxMiluKFtDSDJdW0NIM10pYyg9TyluMltDSDJdW0NASF0oW09IXSlbQ0gyXU4zW0NIMl1bQ0BASF0oW0NIM10pT1tDQEBIXShbQ0gzXSlbQ0gyXTM=

> <s_epik_cmdline>
J2VwaWtfcHl0aG9uJywgJy1waCcsICc3LjAnLCAnLXRuJywgJzgnLCAnLW1hJywgJzIwMCcsICctbWV0YWxfYmluZGluZycsICctaW1hZScsICc8aW5maWxlLm1hZT4nLCAnLW9tYWUnLCAnPG91dGZpbGUubWFlPic=

> <r_epik_Ionization_Penalty>
0.706332

> <r_epik_Ionization_Penalty_Charging>
0.706318

> <r_epik_Ionization_Penalty_Neutral>
1.42224e-05

> <r_epik_State_Penalty>
0.729493

> <r_epik_Charging_Adjusted_Penalty>
1.43581

> <i_epik_Tot_Q>
1

> <i_epik_Tot_abs_Q>
1

> <r_epik_Metal_State_Penalty>
0.729493

> <b_epik_Metal_Only>
0

> <s_lp_Force_Field>
OPLS_2005

> <r_lp_Energy>
50.1879

> <b_lp_Chiralities_Consistent>
1

> <s_lp_Variant>
AV-unprocessed.smi:1570-7

> <Gold.Version>
5.8.1

> <Gold.Id.Protein>
6NUR|6NUR_protein|mol2

> <Gold.PLP.Fitness>
50.0850

> <Gold.PLP.PLP>
-47.9472

> <Gold.PLP.part.hbond>
-2.0000

> <Gold.PLP.part.metal>
0.0000

> <Gold.PLP.part.buried>
-3.7262

> <Gold.PLP.part.nonpolar>
-42.8633

> <Gold.PLP.part.repulsive>
0.0455

> <Gold.PLP.ligand.clash>
0.0000

> <Gold.PLP.ligand.torsion>
0.9248

> <Gold.PLP.Chemscore.Hbond>
1.2800

> <Gold.PLP.Chemscore.CHOScore>
0.0000

> <Gold.PLP.Chemscore.Metal>
0.0000

> <Gold.PLP.Chemscore.Internal.Correction>
0.1474

> <Gold.Rescore>
     Score         DG    S(hbond)    S(metal)    S(lipo)     H(rot)  DE(clash)    DE(int)     intcor
     16.15     -18.47       0.93        0.00     130.93       2.13       0.16       2.16       ----

> <Gold.Chemscore.Fitness>
16.1475

> <Gold.Chemscore.DG>
-18.4672

> <Gold.Chemscore.ZeroCoef>
-5.4800

> <Gold.Chemscore.Hbond>
0.9347

> <Gold.Chemscore.Metal>
0.0000

> <Gold.Chemscore.Lipo>
130.9305

> <Gold.Chemscore.Internal_Hbond>
0.0000

> <Gold.Chemscore.DEClash>
0.1572

> <Gold.Chemscore.DEInternal>
2.1625

> <Gold.Chemscore.Rot>
2.1303

> <Gold.Chemscore.Internal.Correction>
   9.000000E+99

> <Gold.Chemscore.Hbond.Weighted>
-3.1219

> <Gold.Chemscore.Metal.Weighted>
-0.0000

> <Gold.Chemscore.Lipo.Weighted>
-15.3189

> <Gold.Chemscore.Internal_Hbond.Weighted>
0.0000

> <Gold.Chemscore.DEClash.Weighted>
0.1572

> <Gold.Chemscore.DEInternal.Weighted>
2.1625

> <Gold.Chemscore.Rot.Weighted>
5.4535

> <Gold.Chemscore.Internal.Correction.Weighted>
   9.000000E+99

> <Gold.Protein.RotatedTorsions>
[ 6907 6896 6895 6894 ] final  132.46 input  -60.11 | X-H torsion
[ 7974 7965 7964 7962 ] final -167.31 input  175.53 | X-H torsion
[ 8008 7997 7996 7995 ] final -166.62 input   59.86 | X-H torsion
[ 10167 10162 10161 10158 ] final -173.34 input  -65.29 | X-H torsion
[ 10718 10713 10712 10709 ] final  -54.39 input   66.30 | X-H torsion
[ 10763 10752 10751 10750 ] final  -38.82 input  -60.55 | X-H torsion
[ 11005 11000 10999 10996 ] final   -7.06 input  -57.11 | X-H torsion

> <Gold.Protein.ActiveResidues>
 VAL166  LYS551  ARG553  GLY616  TRP617  ASP618  TYR619  PRO620  LYS621  CYS622 
 ASP623  PHE694  ASN695  SER759  ASP760  ASP761  ALA762  ILE779  LEU786  VAL792 
 PHE793  MET794  SER795  GLU796  ALA797  LYS798  CYS799  TRP800  GLU811  SER814 

> <Gold.Protein.RotatedAtoms>
  152.3321  133.5970  159.5816 H   0  0  0  0  0  0  0  0  0  0  0  0  # atno 6907 bound_to 6896
  150.7429  133.9851  159.3598 H   0  0  0  0  0  0  0  0  0  0  0  0  # atno 6908 bound_to 6896
  151.7725  135.0783  160.0413 H   0  0  0  0  0  0  0  0  0  0  0  0  # atno 6909 bound_to 6896
  144.7226  140.2537  143.6275 H   0  0  0  0  0  0  0  0  0  0  0  0  # atno 7974 bound_to 7965
  155.8663  140.0986  157.1580 H   0  0  0  0  0  0  0  0  0  0  0  0  # atno 8008 bound_to 7997
  154.3994  140.1355  156.4086 H   0  0  0  0  0  0  0  0  0  0  0  0  # atno 8009 bound_to 7997
  155.7800  140.3458  155.5295 H   0  0  0  0  0  0  0  0  0  0  0  0  # atno 8010 bound_to 7997
  139.5694  144.1678  152.1361 H   0  0  0  0  0  0  0  0  0  0  0  0  # atno 10167 bound_to 10162
  156.1454  130.4153  150.0032 H   0  0  0  0  0  0  0  0  0  0  0  0  # atno 10718 bound_to 10713
  153.9192  135.6784  153.4748 H   0  0  0  0  0  0  0  0  0  0  0  0  # atno 10763 bound_to 10752
  153.1038  135.4815  154.8911 H   0  0  0  0  0  0  0  0  0  0  0  0  # atno 10764 bound_to 10752
  154.7487  135.3179  154.8554 H   0  0  0  0  0  0  0  0  0  0  0  0  # atno 10765 bound_to 10752
  140.7087  133.8927  155.8735 H   0  0  0  0  0  0  0  0  0  0  0  0  # atno 11005 bound_to 11000
  145.8203  139.2041  143.1941 LP  0  0  0  0  0  0  0  0  0  0  0  0  # atno 17320 bound_to 7965
  146.0519  140.8060  142.9777 LP  0  0  0  0  0  0  0  0  0  0  0  0  # atno 17321 bound_to 7965
  140.1208  144.5375  150.6864 LP  0  0  0  0  0  0  0  0  0  0  0  0  # atno 17342 bound_to 10162
  140.6978  143.2415  151.4951 LP  0  0  0  0  0  0  0  0  0  0  0  0  # atno 17343 bound_to 10162
  156.7905  130.9254  151.3646 LP  0  0  0  0  0  0  0  0  0  0  0  0  # atno 17370 bound_to 10713
  157.6612  130.8968  149.9834 LP  0  0  0  0  0  0  0  0  0  0  0  0  # atno 17371 bound_to 10713
  141.0102  134.1030  157.4229 LP  0  0  0  0  0  0  0  0  0  0  0  0  # atno 17394 bound_to 11000
  139.8877  135.0092  156.6577 LP  0  0  0  0  0  0  0  0  0  0  0  0  # atno 17395 bound_to 11000

$$$$
