AV-unprocessed.smi:3173|AV-procd|sdf|12120|dock1
  -GOLD-   2272017563D 1   1.00000     0.00000
 Structure written by MMmdl.
 36 37  0  0  0  0  0  0  0  0  2 V2000
  149.7353  140.3191  154.0910 O   0  0  0  0  0  0  0  0  0  0  0  0
  149.1621  141.3409  154.4700 C   0  0  0  0  0  0  0  0  0  0  0  0
  147.8229  141.7572  153.8514 C   0  0  0  0  0  0  0  0  0  0  0  0
  146.7486  140.6508  153.9042 C   0  0  1  0  0  0  0  0  0  0  0  0
  147.1910  139.3933  153.2013 C   0  0  0  0  0  0  0  0  0  0  0  0
  147.0476  138.3043  153.9536 C   0  0  0  0  0  0  0  0  0  0  0  0
  146.4821  138.6135  155.3117 C   0  0  0  0  0  0  0  0  0  0  0  0
  146.4023  140.1561  155.3347 C   0  0  0  0  0  0  0  0  0  0  0  0
  149.6493  142.1420  155.4300 N   0  0  0  0  0  0  0  0  0  0  0  0
  150.9086  141.9309  156.1346 C   0  0  0  0  0  0  0  0  0  0  0  0
  150.6846  141.6685  157.6336 C   0  0  0  0  0  0  0  0  0  0  0  0
  151.1753  142.8151  158.4959 C   0  0  0  0  0  0  0  0  0  0  0  0
  152.0510  142.6120  159.5845 C   0  0  0  0  0  0  0  0  0  0  0  0
  152.4769  143.7225  160.3427 C   0  0  0  0  0  0  0  0  0  0  0  0
  152.0192  145.0108  159.9970 C   0  0  0  0  0  0  0  0  0  0  0  0
  151.1469  145.1563  158.8989 C   0  0  0  0  0  0  0  0  0  0  0  0
  150.7621  144.0681  158.1964 N   0  3  0  0  0  0  0  0  0  0  0  0
  147.4684  142.6388  154.3864 H   0  0  0  0  0  0  0  0  0  0  0  0
  147.9794  142.0667  152.8167 H   0  0  0  0  0  0  0  0  0  0  0  0
  145.8413  140.9901  153.4017 H   0  0  0  0  0  0  0  0  0  0  0  0
  147.5651  139.4018  152.1879 H   0  0  0  0  0  0  0  0  0  0  0  0
  147.2880  137.2976  153.6448 H   0  0  0  0  0  0  0  0  0  0  0  0
  145.4975  138.1564  155.4154 H   0  0  0  0  0  0  0  0  0  0  0  0
  147.1320  138.2284  156.0982 H   0  0  0  0  0  0  0  0  0  0  0  0
  147.1187  140.5410  156.0618 H   0  0  0  0  0  0  0  0  0  0  0  0
  145.4159  140.5011  155.6465 H   0  0  0  0  0  0  0  0  0  0  0  0
  149.1137  142.9607  155.6815 H   0  0  0  0  0  0  0  0  0  0  0  0
  151.4534  141.1018  155.6792 H   0  0  0  0  0  0  0  0  0  0  0  0
  151.5257  142.8194  155.9987 H   0  0  0  0  0  0  0  0  0  0  0  0
  149.6242  141.5045  157.8307 H   0  0  0  0  0  0  0  0  0  0  0  0
  151.1980  140.7558  157.9395 H   0  0  0  0  0  0  0  0  0  0  0  0
  152.3946  141.6187  159.8352 H   0  0  0  0  0  0  0  0  0  0  0  0
  153.1470  143.5876  161.1793 H   0  0  0  0  0  0  0  0  0  0  0  0
  152.3337  145.8742  160.5652 H   0  0  0  0  0  0  0  0  0  0  0  0
  150.7491  146.1030  158.5637 H   0  0  0  0  0  0  0  0  0  0  0  0
  150.1311  144.1977  157.4053 H   0  0  0  0  0  0  0  0  0  0  0  0
  1  2  2  0  0  0  0
  2  3  1  0  0  0  0
  2  9  1  0  0  0  0
  3  4  1  0  0  0  0
  3 18  1  0  0  0  0
  3 19  1  0  0  0  0
  4  8  1  0  0  0  0
  4  5  1  0  0  0  0
  4 20  1  0  0  0  0
  5  6  2  0  0  0  0
  5 21  1  0  0  0  0
  6  7  1  0  0  0  0
  6 22  1  0  0  0  0
  7  8  1  0  0  0  0
  7 23  1  0  0  0  0
  7 24  1  0  0  0  0
  8 25  1  0  0  0  0
  8 26  1  0  0  0  0
  9 10  1  0  0  0  0
  9 27  1  0  0  0  0
 10 11  1  0  0  0  0
 10 28  1  0  0  0  0
 10 29  1  0  0  0  0
 11 12  1  0  0  0  0
 11 30  1  0  0  0  0
 11 31  1  0  0  0  0
 12 17  1  0  0  0  0
 12 13  2  0  0  0  0
 13 14  1  0  0  0  0
 13 32  1  0  0  0  0
 14 15  2  0  0  0  0
 14 33  1  0  0  0  0
 15 16  1  0  0  0  0
 15 34  1  0  0  0  0
 16 17  2  0  0  0  0
 16 35  1  0  0  0  0
 17 36  1  0  0  0  0
M  CHG  1  17   1
M  END
> <s_m_source_file>
AV-unprocessed.smi

> <i_m_source_file_index>
3173

> <i_lp_mmshare_version>
43012

> <i_f3d_flags>
0

> <s_epik_input>
W0NIMl0xW0NIMl1bQ0hdPVtDSF1bQ0BIXTFbQ0gyXUMoPU8pW05IXVtDSDJdW0NIMl1jMltjSF1bY0hdW2NIXVtjSF1uMg==

> <s_epik_cmdline>
J2VwaWtfcHl0aG9uJywgJy1waCcsICc3LjAnLCAnLXRuJywgJzgnLCAnLW1hJywgJzIwMCcsICctbWV0YWxfYmluZGluZycsICctaW1hZScsICc8aW5maWxlLm1hZT4nLCAnLW9tYWUnLCAnPG91dGZpbGUubWFlPic=

> <r_epik_Ionization_Penalty>
1.86798

> <r_epik_Ionization_Penalty_Charging>
1.86798

> <r_epik_Ionization_Penalty_Neutral>
1.53848e-08

> <r_epik_State_Penalty>
1.98677

> <r_epik_Charging_Adjusted_Penalty>
3.85475

> <i_epik_Tot_Q>
1

> <i_epik_Tot_abs_Q>
1

> <r_epik_Metal_State_Penalty>
2.01174

> <b_epik_Metal_Only>
0

> <s_lp_Force_Field>
OPLS_2005

> <r_lp_Energy>
20.3145

> <b_lp_Chiralities_Consistent>
1

> <s_lp_Variant>
AV-unprocessed.smi:3173-4

> <Gold.Version>
5.8.1

> <Gold.Id.Protein>
6NUR|6NUR_protein|mol2

> <Gold.PLP.Fitness>
46.8562

> <Gold.PLP.PLP>
-36.0694

> <Gold.PLP.part.hbond>
-2.9858

> <Gold.PLP.part.metal>
0.0000

> <Gold.PLP.part.buried>
-4.5848

> <Gold.PLP.part.nonpolar>
-27.4477

> <Gold.PLP.part.repulsive>
1.0930

> <Gold.PLP.ligand.clash>
0.0000

> <Gold.PLP.ligand.torsion>
0.4664

> <Gold.PLP.Chemscore.Hbond>
3.8800

> <Gold.PLP.Chemscore.CHOScore>
0.0000

> <Gold.PLP.Chemscore.Metal>
0.0000

> <Gold.Chemscore.Hbonds>
donor molecule, donor type, donor heavy atom, donor atom, acceptor molecule, acceptor atom, score
      L1  H     9    27       P1  8028  1.00
      L1  H    17    36       P1  8028  1.27
      P1  H  7989  7998       L1     1  0.74

> <Gold.PLP.Chemscore.Internal.Correction>
0.0796

> <Gold.Rescore>
     Score         DG    S(hbond)    S(metal)    S(lipo)     H(rot)  DE(clash)    DE(int)     intcor
     16.56     -18.82       1.99        0.00      92.60       1.61       0.46       1.79       ----

> <Gold.Chemscore.Fitness>
16.5641

> <Gold.Chemscore.DG>
-18.8177

> <Gold.Chemscore.ZeroCoef>
-5.4800

> <Gold.Chemscore.Hbond>
1.9852

> <Gold.Chemscore.Metal>
0.0000

> <Gold.Chemscore.Lipo>
92.6001

> <Gold.Chemscore.Internal_Hbond>
0.0000

> <Gold.Chemscore.DEClash>
0.4615

> <Gold.Chemscore.DEInternal>
1.7921

> <Gold.Chemscore.Rot>
1.6122

> <Gold.Chemscore.Internal.Correction>
   9.000000E+99

> <Gold.Chemscore.Hbonds>
donor molecule, donor type, donor heavy atom, donor atom, acceptor molecule, acceptor atom, score
      L1  H     9    27       P1  8028  0.94
      L1  H    17    36       P1  8028  0.41
      P1  H  7989  7998       L1     1  0.42

> <Gold.Chemscore.Hbond.Weighted>
-6.6306

> <Gold.Chemscore.Metal.Weighted>
-0.0000

> <Gold.Chemscore.Lipo.Weighted>
-10.8342

> <Gold.Chemscore.Internal_Hbond.Weighted>
0.0000

> <Gold.Chemscore.DEClash.Weighted>
0.4615

> <Gold.Chemscore.DEInternal.Weighted>
1.7921

> <Gold.Chemscore.Rot.Weighted>
4.1271

> <Gold.Chemscore.Internal.Correction.Weighted>
   9.000000E+99

> <Gold.Protein.RotatedTorsions>
[ 6907 6896 6895 6894 ] final -158.75 input  -60.11 | X-H torsion
[ 7974 7965 7964 7962 ] final  -11.14 input  175.53 | X-H torsion
[ 8008 7997 7996 7995 ] final  -67.69 input   59.86 | X-H torsion
[ 10167 10162 10161 10158 ] final   44.85 input  -65.29 | X-H torsion
[ 10718 10713 10712 10709 ] final    9.84 input   66.30 | X-H torsion
[ 10763 10752 10751 10750 ] final   85.15 input  -60.55 | X-H torsion
[ 11005 11000 10999 10996 ] final    7.39 input  -57.11 | X-H torsion

> <Gold.Protein.ActiveResidues>
 VAL166  LYS551  ARG553  GLY616  TRP617  ASP618  TYR619  PRO620  LYS621  CYS622 
 ASP623  PHE694  ASN695  SER759  ASP760  ASP761  ALA762  ILE779  LEU786  VAL792 
 PHE793  MET794  SER795  GLU796  ALA797  LYS798  CYS799  TRP800  GLU811  SER814 

> <Gold.Protein.RotatedAtoms>
  151.3230  133.4032  159.2655 H   0  0  0  0  0  0  0  0  0  0  0  0  # atno 6907 bound_to 6896
  151.0018  134.9329  159.7968 H   0  0  0  0  0  0  0  0  0  0  0  0  # atno 6908 bound_to 6896
  152.5277  134.3195  159.9195 H   0  0  0  0  0  0  0  0  0  0  0  0  # atno 6909 bound_to 6896
  146.2197  140.2868  142.8366 H   0  0  0  0  0  0  0  0  0  0  0  0  # atno 7974 bound_to 7965
  154.4817  140.0887  156.7393 H   0  0  0  0  0  0  0  0  0  0  0  0  # atno 8008 bound_to 7997
  155.4453  140.3455  155.4276 H   0  0  0  0  0  0  0  0  0  0  0  0  # atno 8009 bound_to 7997
  156.1201  140.1472  156.9205 H   0  0  0  0  0  0  0  0  0  0  0  0  # atno 8010 bound_to 7997
  140.3301  144.2599  150.6169 H   0  0  0  0  0  0  0  0  0  0  0  0  # atno 10167 bound_to 10162
  156.9722  130.5973  149.5669 H   0  0  0  0  0  0  0  0  0  0  0  0  # atno 10718 bound_to 10713
  153.1448  135.4628  154.9549 H   0  0  0  0  0  0  0  0  0  0  0  0  # atno 10763 bound_to 10752
  154.7777  135.3178  154.8059 H   0  0  0  0  0  0  0  0  0  0  0  0  # atno 10764 bound_to 10752
  153.8575  135.6915  153.4840 H   0  0  0  0  0  0  0  0  0  0  0  0  # atno 10765 bound_to 10752
  140.5488  134.0303  155.7929 H   0  0  0  0  0  0  0  0  0  0  0  0  # atno 11005 bound_to 11000
  144.9156  140.7809  143.5780 LP  0  0  0  0  0  0  0  0  0  0  0  0  # atno 17320 bound_to 7965
  145.2801  139.1921  143.4795 LP  0  0  0  0  0  0  0  0  0  0  0  0  # atno 17321 bound_to 7965
  140.5405  143.2224  151.8092 LP  0  0  0  0  0  0  0  0  0  0  0  0  # atno 17342 bound_to 10162
  139.4858  144.4606  151.9545 LP  0  0  0  0  0  0  0  0  0  0  0  0  # atno 17343 bound_to 10162
  156.0278  130.5371  150.8454 LP  0  0  0  0  0  0  0  0  0  0  0  0  # atno 17370 bound_to 10713
  157.5585  131.0945  150.9594 LP  0  0  0  0  0  0  0  0  0  0  0  0  # atno 17371 bound_to 10713
  141.1184  133.9502  157.2778 LP  0  0  0  0  0  0  0  0  0  0  0  0  # atno 17394 bound_to 11000
  139.9466  135.0183  156.8869 LP  0  0  0  0  0  0  0  0  0  0  0  0  # atno 17395 bound_to 11000

$$$$
