AV-unprocessed.smi:1826|AV-procd|sdf|7415|dock1
  -GOLD-   22720 9 93D 1   1.00000     0.00000
 Structure written by MMmdl.
 39 41  0  0  0  0  0  0  0  0  1 V2000
  152.9916  138.3336  157.0771 O   0  0  0  0  0  0  0  0  0  0  0  0
  152.6356  138.7491  158.3782 C   0  0  0  0  0  0  0  0  0  0  0  0
  152.4326  140.2308  158.4746 C   0  0  0  0  0  0  0  0  0  0  0  0
  151.4588  140.8452  157.8020 N   0  0  0  0  0  0  0  0  0  0  0  0
  151.6598  142.1734  158.1191 C   0  0  0  0  0  0  0  0  0  0  0  0
  150.9557  143.3298  157.7135 C   0  0  0  0  0  0  0  0  0  0  0  0
  151.3564  144.6048  158.1637 C   0  0  0  0  0  0  0  0  0  0  0  0
  152.4677  144.7416  159.0199 C   0  0  0  0  0  0  0  0  0  0  0  0
  153.1832  143.6024  159.4343 C   0  0  0  0  0  0  0  0  0  0  0  0
  152.7729  142.3297  158.9924 C   0  0  0  0  0  0  0  0  0  0  0  0
  153.2326  141.0346  159.2228 N   0  0  0  0  0  0  0  0  0  0  0  0
  154.3596  140.6583  160.0724 C   0  0  0  0  0  0  0  0  0  0  0  0
  153.9802  140.3886  161.5491 C   0  0  2  0  0  0  0  0  0  0  0  0
  154.6604  141.2811  162.4096 O   0  0  0  0  0  0  0  0  0  0  0  0
  154.1579  138.9292  161.9509 C   0  0  0  0  0  0  0  0  0  0  0  0
  153.6060  137.8837  161.1767 C   0  0  0  0  0  0  0  0  0  0  0  0
  153.7558  136.5431  161.5804 C   0  0  0  0  0  0  0  0  0  0  0  0
  154.4580  136.2286  162.7639 C   0  0  0  0  0  0  0  0  0  0  0  0
  154.6252  134.7833  163.2088 C   0  0  0  0  0  0  0  0  0  0  0  0
  155.9210  134.5222  163.3759 F   0  0  0  0  0  0  0  0  0  0  0  0
  153.9925  134.5761  164.3642 F   0  0  0  0  0  0  0  0  0  0  0  0
  154.1304  133.9363  162.3052 F   0  0  0  0  0  0  0  0  0  0  0  0
  155.0198  137.2722  163.5297 C   0  0  0  0  0  0  0  0  0  0  0  0
  154.8699  138.6130  163.1268 C   0  0  0  0  0  0  0  0  0  0  0  0
  152.2716  137.8427  156.7118 H   0  0  0  0  0  0  0  0  0  0  0  0
  151.7141  138.2410  158.6646 H   0  0  0  0  0  0  0  0  0  0  0  0
  153.3997  138.4230  159.0809 H   0  0  0  0  0  0  0  0  0  0  0  0
  150.1066  143.2357  157.0532 H   0  0  0  0  0  0  0  0  0  0  0  0
  150.8103  145.4818  157.8483 H   0  0  0  0  0  0  0  0  0  0  0  0
  152.7705  145.7215  159.3594 H   0  0  0  0  0  0  0  0  0  0  0  0
  154.0337  143.7065  160.0908 H   0  0  0  0  0  0  0  0  0  0  0  0
  154.8415  139.7776  159.6481 H   0  0  0  0  0  0  0  0  0  0  0  0
  155.1058  141.4519  160.0211 H   0  0  0  0  0  0  0  0  0  0  0  0
  152.9209  140.6218  161.6632 H   0  0  0  0  0  0  0  0  0  0  0  0
  155.1438  141.8964  161.8798 H   0  0  0  0  0  0  0  0  0  0  0  0
  153.0494  138.1031  160.2774 H   0  0  0  0  0  0  0  0  0  0  0  0
  153.3233  135.7592  160.9766 H   0  0  0  0  0  0  0  0  0  0  0  0
  155.5667  137.0469  164.4336 H   0  0  0  0  0  0  0  0  0  0  0  0
  155.2965  139.4007  163.7305 H   0  0  0  0  0  0  0  0  0  0  0  0
  1  2  1  0  0  0  0
  1 25  1  0  0  0  0
  2  3  1  0  0  0  0
  2 26  1  0  0  0  0
  2 27  1  0  0  0  0
  3 11  1  0  0  0  0
  3  4  2  0  0  0  0
  4  5  1  0  0  0  0
  5 10  2  0  0  0  0
  5  6  1  0  0  0  0
  6  7  2  0  0  0  0
  6 28  1  0  0  0  0
  7  8  1  0  0  0  0
  7 29  1  0  0  0  0
  8  9  2  0  0  0  0
  8 30  1  0  0  0  0
  9 10  1  0  0  0  0
  9 31  1  0  0  0  0
 10 11  1  0  0  0  0
 11 12  1  0  0  0  0
 12 13  1  0  0  0  0
 12 32  1  0  0  0  0
 12 33  1  0  0  0  0
 13 14  1  0  0  0  0
 13 15  1  0  0  0  0
 13 34  1  0  0  0  0
 14 35  1  0  0  0  0
 15 24  1  0  0  0  0
 15 16  2  0  0  0  0
 16 17  1  0  0  0  0
 16 36  1  0  0  0  0
 17 18  2  0  0  0  0
 17 37  1  0  0  0  0
 18 19  1  0  0  0  0
 18 23  1  0  0  0  0
 19 20  1  0  0  0  0
 19 21  1  0  0  0  0
 19 22  1  0  0  0  0
 23 24  2  0  0  0  0
 23 38  1  0  0  0  0
 24 39  1  0  0  0  0
M  END
> <s_m_source_file>
AV-unprocessed.smi

> <i_m_source_file_index>
1826

> <i_lp_mmshare_version>
43012

> <i_f3d_flags>
0

> <s_epik_input>
W2NIXTFbY0hdW2NIXVtjSF1jKGMxMiluKGMobjIpW0NIMl1bT0hdKVtDSDJdW0NASF0oW09IXSljM1tjSF1bY0hdYyhDKEYpKEYpRilbY0hdW2NIXTM=

> <s_epik_cmdline>
J2VwaWtfcHl0aG9uJywgJy1waCcsICc3LjAnLCAnLXRuJywgJzgnLCAnLW1hJywgJzIwMCcsICctbWV0YWxfYmluZGluZycsICctaW1hZScsICc8aW5maWxlLm1hZT4nLCAnLW9tYWUnLCAnPG91dGZpbGUubWFlPic=

> <r_epik_Ionization_Penalty>
0.0634718

> <r_epik_Ionization_Penalty_Charging>
0

> <r_epik_Ionization_Penalty_Neutral>
0.0634718

> <r_epik_State_Penalty>
0.0551572

> <r_epik_Charging_Adjusted_Penalty>
0.0551572

> <i_epik_Tot_Q>
0

> <i_epik_Tot_abs_Q>
0

> <r_epik_Metal_State_Penalty>
5.78034e-05

> <b_epik_Metal_Only>
0

> <s_lp_Force_Field>
OPLS_2005

> <r_lp_Energy>
13.2523

> <b_lp_Chiralities_Consistent>
1

> <s_lp_Variant>
AV-unprocessed.smi:1826-1

> <Gold.Version>
5.8.1

> <Gold.Id.Protein>
6NUR|6NUR_protein|mol2

> <Gold.PLP.Fitness>
48.1894

> <Gold.PLP.PLP>
-47.6814

> <Gold.PLP.part.hbond>
-2.0000

> <Gold.PLP.part.metal>
0.0000

> <Gold.PLP.part.buried>
-5.1856

> <Gold.PLP.part.nonpolar>
-41.4194

> <Gold.PLP.part.repulsive>
0.0000

> <Gold.PLP.ligand.clash>
0.6704

> <Gold.PLP.ligand.torsion>
1.3112

> <Gold.PLP.Chemscore.Hbond>
0.9500

> <Gold.PLP.Chemscore.CHOScore>
0.0000

> <Gold.PLP.Chemscore.Metal>
0.0000

> <Gold.Chemscore.Hbonds>
donor molecule, donor type, donor heavy atom, donor atom, acceptor molecule, acceptor atom, score
      P1  H  7997  8009       L1     1  0.33

> <Gold.PLP.Chemscore.Internal.Correction>
0.9508

> <Gold.Rescore>
     Score         DG    S(hbond)    S(metal)    S(lipo)     H(rot)  DE(clash)    DE(int)     intcor
     12.74     -14.05       0.00        0.00     137.01       2.91       0.09       1.22       ----

> <Gold.Chemscore.Fitness>
12.7436

> <Gold.Chemscore.DG>
-14.0526

> <Gold.Chemscore.ZeroCoef>
-5.4800

> <Gold.Chemscore.Hbond>
0.0007

> <Gold.Chemscore.Metal>
0.0000

> <Gold.Chemscore.Lipo>
137.0112

> <Gold.Chemscore.Internal_Hbond>
0.0000

> <Gold.Chemscore.DEClash>
0.0875

> <Gold.Chemscore.DEInternal>
1.2214

> <Gold.Chemscore.Rot>
2.9141

> <Gold.Chemscore.Internal.Correction>
   9.000000E+99

> <Gold.Chemscore.Hbonds>
donor molecule, donor type, donor heavy atom, donor atom, acceptor molecule, acceptor atom, score
      P1  H  7997  8009       L1     1  0.04

> <Gold.Chemscore.Hbond.Weighted>
-0.0023

> <Gold.Chemscore.Metal.Weighted>
-0.0000

> <Gold.Chemscore.Lipo.Weighted>
-16.0303

> <Gold.Chemscore.Internal_Hbond.Weighted>
0.0000

> <Gold.Chemscore.DEClash.Weighted>
0.0875

> <Gold.Chemscore.DEInternal.Weighted>
1.2214

> <Gold.Chemscore.Rot.Weighted>
7.4600

> <Gold.Chemscore.Internal.Correction.Weighted>
   9.000000E+99

> <Gold.Protein.RotatedTorsions>
[ 6907 6896 6895 6894 ] final  115.19 input  -60.11 | X-H torsion
[ 7974 7965 7964 7962 ] final  -34.91 input  175.53 | X-H torsion
[ 8008 7997 7996 7995 ] final  174.23 input   59.86 | X-H torsion
[ 10167 10162 10161 10158 ] final  152.00 input  -65.29 | X-H torsion
[ 10718 10713 10712 10709 ] final  168.12 input   66.30 | X-H torsion
[ 10763 10752 10751 10750 ] final   47.93 input  -60.55 | X-H torsion
[ 11005 11000 10999 10996 ] final    9.29 input  -57.11 | X-H torsion

> <Gold.Protein.ActiveResidues>
 VAL166  LYS551  ARG553  GLY616  TRP617  ASP618  TYR619  PRO620  LYS621  CYS622 
 ASP623  PHE694  ASN695  SER759  ASP760  ASP761  ALA762  ILE779  LEU786  VAL792 
 PHE793  MET794  SER795  GLU796  ALA797  LYS798  CYS799  TRP800  GLU811  SER814 

> <Gold.Protein.RotatedAtoms>
  152.4756  133.8131  159.7013 H   0  0  0  0  0  0  0  0  0  0  0  0  # atno 6907 bound_to 6896
  150.8772  133.7413  159.2949 H   0  0  0  0  0  0  0  0  0  0  0  0  # atno 6908 bound_to 6896
  151.4929  135.1062  159.9860 H   0  0  0  0  0  0  0  0  0  0  0  0  # atno 6909 bound_to 6896
  146.0790  140.6096  142.8917 H   0  0  0  0  0  0  0  0  0  0  0  0  # atno 7974 bound_to 7965
  156.0995  140.1440  156.9486 H   0  0  0  0  0  0  0  0  0  0  0  0  # atno 8008 bound_to 7997
  154.4693  140.0915  156.7148 H   0  0  0  0  0  0  0  0  0  0  0  0  # atno 8009 bound_to 7997
  155.4784  140.3444  155.4338 H   0  0  0  0  0  0  0  0  0  0  0  0  # atno 8010 bound_to 7997
  139.4836  144.5394  151.7589 H   0  0  0  0  0  0  0  0  0  0  0  0  # atno 10167 bound_to 10162
  157.0417  131.0288  151.2711 H   0  0  0  0  0  0  0  0  0  0  0  0  # atno 10718 bound_to 10713
  152.9796  135.5960  154.3843 H   0  0  0  0  0  0  0  0  0  0  0  0  # atno 10763 bound_to 10752
  154.3504  135.2767  155.2377 H   0  0  0  0  0  0  0  0  0  0  0  0  # atno 10764 bound_to 10752
  154.4418  135.6011  153.6189 H   0  0  0  0  0  0  0  0  0  0  0  0  # atno 10765 bound_to 10752
  140.5274  134.0500  155.7863 H   0  0  0  0  0  0  0  0  0  0  0  0  # atno 11005 bound_to 11000
  144.7281  140.4587  143.6958 LP  0  0  0  0  0  0  0  0  0  0  0  0  # atno 17320 bound_to 7965
  145.6252  139.1529  143.3000 LP  0  0  0  0  0  0  0  0  0  0  0  0  # atno 17321 bound_to 7965
  140.4932  144.1280  150.5954 LP  0  0  0  0  0  0  0  0  0  0  0  0  # atno 17342 bound_to 10162
  140.4147  143.2640  151.9789 LP  0  0  0  0  0  0  0  0  0  0  0  0  # atno 17343 bound_to 10162
  157.5099  130.7932  149.7694 LP  0  0  0  0  0  0  0  0  0  0  0  0  # atno 17370 bound_to 10713
  156.0036  130.3867  150.2513 LP  0  0  0  0  0  0  0  0  0  0  0  0  # atno 17371 bound_to 10713
  141.1300  133.9317  157.2554 LP  0  0  0  0  0  0  0  0  0  0  0  0  # atno 17394 bound_to 11000
  139.9573  135.0162  156.9163 LP  0  0  0  0  0  0  0  0  0  0  0  0  # atno 17395 bound_to 11000

$$$$
