AV-unprocessed.smi:212|AV-procd|sdf|1623|dock4
  -GOLD-   2262019563D 1   1.00000     0.00000
 Structure written by MMmdl.
 65 68  0  0  0  0  0  0  0  0  2 V2000
  147.0273  140.5144  152.4024 C   0  0  0  0  0  0  0  0  0  0  0  0
  147.3121  139.9903  153.8201 C   0  0  2  0  0  0  0  0  0  0  0  0
  146.4257  138.7802  154.1835 C   0  0  0  0  0  0  0  0  0  0  0  0
  145.0152  139.1864  154.4223 N   0  3  1  0  0  0  0  0  0  0  0  0
  144.1004  138.0366  154.6492 C   0  0  0  0  0  0  0  0  0  0  0  0
  144.0838  137.0456  153.4615 C   0  0  0  0  0  0  0  0  0  0  0  0
  145.2624  136.0640  153.5764 C   0  0  0  0  0  0  0  0  0  0  0  0
  142.7546  136.2736  153.3623 C   0  0  0  0  0  0  0  0  0  0  0  0
  144.2721  137.7609  152.2565 O   0  0  0  0  0  0  0  0  0  0  0  0
  144.9056  140.2360  155.4663 C   0  0  0  0  0  0  0  0  0  0  0  0
  145.7881  141.4504  155.1235 C   0  0  0  0  0  0  0  0  0  0  0  0
  147.1631  141.0444  154.8270 N   0  0  0  0  0  0  0  0  0  0  0  0
  148.0740  141.0363  155.8356 C   0  0  0  0  0  0  0  0  0  0  0  0
  147.8110  141.6985  156.9939 N   0  0  0  0  0  0  0  0  0  0  0  0
  148.6953  141.6862  157.9958 C   0  0  0  0  0  0  0  0  0  0  0  0
  149.8856  141.0861  158.0503 N   0  0  0  0  0  0  0  0  0  0  0  0
  150.1594  140.4272  156.8886 C   0  0  0  0  0  0  0  0  0  0  0  0
  149.3188  140.3518  155.7425 C   0  0  0  0  0  0  0  0  0  0  0  0
  149.9397  139.6019  154.7499 N   0  0  0  0  0  0  0  0  0  0  0  0
  151.0785  139.2488  155.2815 C   0  0  0  0  0  0  0  0  0  0  0  0
  151.2881  139.6966  156.5661 N   0  0  0  0  0  0  0  0  0  0  0  0
  152.4554  139.4555  157.3954 C   0  0  0  0  0  0  0  0  0  0  0  0
  152.0994  138.9649  158.8208 C   0  0  1  0  0  0  0  0  0  0  0  0
  152.4796  137.4824  159.0539 C   0  0  0  0  0  0  0  0  0  0  0  0
  151.4671  136.6104  158.5944 O   0  0  0  0  0  0  0  0  0  0  0  0
  152.6844  139.9032  159.9063 C   0  0  2  0  0  0  0  0  0  0  0  0
  152.3371  141.3722  159.7403 C   0  0  0  0  0  0  0  0  0  0  0  0
  153.3894  142.0516  160.6092 C   0  0  0  0  0  0  0  0  0  0  0  0
  154.5483  141.2308  160.5199 O   0  0  0  0  0  0  0  0  0  0  0  0
  154.2150  139.9812  159.9230 C   0  0  0  0  0  0  0  0  0  0  0  0
  147.2006  139.7366  151.6582 H   0  0  0  0  0  0  0  0  0  0  0  0
  147.6826  141.3513  152.1592 H   0  0  0  0  0  0  0  0  0  0  0  0
  145.9975  140.8531  152.2878 H   0  0  0  0  0  0  0  0  0  0  0  0
  148.3411  139.6311  153.8133 H   0  0  0  0  0  0  0  0  0  0  0  0
  146.4792  138.0319  153.3930 H   0  0  0  0  0  0  0  0  0  0  0  0
  146.8122  138.3046  155.0865 H   0  0  0  0  0  0  0  0  0  0  0  0
  144.3612  137.5250  155.5777 H   0  0  0  0  0  0  0  0  0  0  0  0
  143.0831  138.4025  154.7981 H   0  0  0  0  0  0  0  0  0  0  0  0
  145.1874  135.4623  154.4827 H   0  0  0  0  0  0  0  0  0  0  0  0
  146.2177  136.5895  153.6094 H   0  0  0  0  0  0  0  0  0  0  0  0
  145.2949  135.3772  152.7296 H   0  0  0  0  0  0  0  0  0  0  0  0
  142.5536  135.7168  154.2784 H   0  0  0  0  0  0  0  0  0  0  0  0
  142.7736  135.5562  152.5409 H   0  0  0  0  0  0  0  0  0  0  0  0
  141.9087  136.9400  153.1885 H   0  0  0  0  0  0  0  0  0  0  0  0
  143.8164  138.5866  152.3216 H   0  0  0  0  0  0  0  0  0  0  0  0
  143.8680  140.5596  155.5574 H   0  0  0  0  0  0  0  0  0  0  0  0
  145.1930  139.8147  156.4306 H   0  0  0  0  0  0  0  0  0  0  0  0
  145.3850  141.9605  154.2485 H   0  0  0  0  0  0  0  0  0  0  0  0
  145.7608  142.1843  155.9301 H   0  0  0  0  0  0  0  0  0  0  0  0
  148.4085  142.2354  158.8805 H   0  0  0  0  0  0  0  0  0  0  0  0
  151.7992  138.6433  154.7508 H   0  0  0  0  0  0  0  0  0  0  0  0
  153.0929  138.7272  156.8924 H   0  0  0  0  0  0  0  0  0  0  0  0
  153.0250  140.3841  157.4386 H   0  0  0  0  0  0  0  0  0  0  0  0
  151.0133  139.0157  158.9090 H   0  0  0  0  0  0  0  0  0  0  0  0
  153.4114  137.2356  158.5455 H   0  0  0  0  0  0  0  0  0  0  0  0
  152.6580  137.2855  160.1109 H   0  0  0  0  0  0  0  0  0  0  0  0
  151.2768  136.8189  157.6925 H   0  0  0  0  0  0  0  0  0  0  0  0
  152.3460  139.5789  160.8917 H   0  0  0  0  0  0  0  0  0  0  0  0
  152.4563  141.6784  158.6999 H   0  0  0  0  0  0  0  0  0  0  0  0
  151.3213  141.6139  160.0544 H   0  0  0  0  0  0  0  0  0  0  0  0
  153.5971  143.0739  160.2919 H   0  0  0  0  0  0  0  0  0  0  0  0
  153.0628  142.0789  161.6496 H   0  0  0  0  0  0  0  0  0  0  0  0
  154.6682  139.1544  160.4705 H   0  0  0  0  0  0  0  0  0  0  0  0
  154.6151  139.9718  158.9082 H   0  0  0  0  0  0  0  0  0  0  0  0
  144.6996  139.6200  153.5664 H   0  0  0  0  0  0  0  0  0  0  0  0
  1  2  1  0  0  0  0
  1 31  1  0  0  0  0
  1 32  1  0  0  0  0
  1 33  1  0  0  0  0
  2 12  1  0  0  0  0
  2  3  1  0  0  0  0
  2 34  1  0  0  0  0
  3  4  1  0  0  0  0
  3 35  1  0  0  0  0
  3 36  1  0  0  0  0
  4  5  1  0  0  0  0
  4 10  1  0  0  0  0
  4 65  1  0  0  0  0
  5  6  1  0  0  0  0
  5 37  1  0  0  0  0
  5 38  1  0  0  0  0
  6  7  1  0  0  0  0
  6  8  1  0  0  0  0
  6  9  1  0  0  0  0
  7 39  1  0  0  0  0
  7 40  1  0  0  0  0
  7 41  1  0  0  0  0
  8 42  1  0  0  0  0
  8 43  1  0  0  0  0
  8 44  1  0  0  0  0
  9 45  1  0  0  0  0
 10 11  1  0  0  0  0
 10 46  1  0  0  0  0
 10 47  1  0  0  0  0
 11 12  1  0  0  0  0
 11 48  1  0  0  0  0
 11 49  1  0  0  0  0
 12 13  1  0  0  0  0
 13 18  1  0  0  0  0
 13 14  2  0  0  0  0
 14 15  1  0  0  0  0
 15 16  2  0  0  0  0
 15 50  1  0  0  0  0
 16 17  1  0  0  0  0
 17 21  1  0  0  0  0
 17 18  2  0  0  0  0
 18 19  1  0  0  0  0
 19 20  2  0  0  0  0
 20 21  1  0  0  0  0
 20 51  1  0  0  0  0
 21 22  1  0  0  0  0
 22 23  1  0  0  0  0
 22 52  1  0  0  0  0
 22 53  1  0  0  0  0
 23 24  1  0  0  0  0
 23 26  1  0  0  0  0
 23 54  1  0  0  0  0
 24 25  1  0  0  0  0
 24 55  1  0  0  0  0
 24 56  1  0  0  0  0
 25 57  1  0  0  0  0
 26 30  1  0  0  0  0
 26 27  1  0  0  0  0
 26 58  1  0  0  0  0
 27 28  1  0  0  0  0
 27 59  1  0  0  0  0
 27 60  1  0  0  0  0
 28 29  1  0  0  0  0
 28 61  1  0  0  0  0
 28 62  1  0  0  0  0
 29 30  1  0  0  0  0
 30 63  1  0  0  0  0
 30 64  1  0  0  0  0
M  CHG  1   4   1
M  END
> <s_m_source_file>
AV-unprocessed.smi

> <i_m_source_file_index>
212

> <i_lp_mmshare_version>
43012

> <i_f3d_flags>
0

> <s_epik_input>
W0NIM11bQ0BASF0xW0NIMl1OKFtDSDJdQyhbQ0gzXSkoW0NIM10pW09IXSlbQ0gyXVtDSDJdTjFjKG5bY0hdbjIpYyhjMjMpbltjSF1uM1tDSDJdW0NASF0oW0NIMl1bT0hdKVtDQEBIXTRbQ0gyXVtDSDJdT1tDSDJdNA==

> <s_epik_cmdline>
J2VwaWtfcHl0aG9uJywgJy1waCcsICc3LjAnLCAnLXRuJywgJzgnLCAnLW1hJywgJzIwMCcsICctbWV0YWxfYmluZGluZycsICctaW1hZScsICc8aW5maWxlLm1hZT4nLCAnLW9tYWUnLCAnPG91dGZpbGUubWFlPic=

> <r_lp_tautomer_probability>
1

> <r_epik_Ionization_Penalty>
0.00182193

> <r_epik_Ionization_Penalty_Charging>
0.00173996

> <r_epik_Ionization_Penalty_Neutral>
8.19718e-05

> <r_epik_State_Penalty>
-0

> <r_epik_Charging_Adjusted_Penalty>
0.00173996

> <i_epik_Tot_Q>
1

> <i_epik_Tot_abs_Q>
1

> <r_epik_Metal_State_Penalty>
-0

> <b_epik_Metal_Only>
0

> <s_lp_Force_Field>
OPLS_2005

> <r_lp_Energy>
57.8669

> <b_lp_Chiralities_Consistent>
1

> <s_lp_Variant>
AV-unprocessed.smi:212-7

> <Gold.Version>
5.8.1

> <Gold.Id.Protein>
6NUR|6NUR_protein|mol2

> <Gold.PLP.Fitness>
46.5432

> <Gold.PLP.PLP>
-37.3446

> <Gold.PLP.part.hbond>
-4.4617

> <Gold.PLP.part.metal>
0.0000

> <Gold.PLP.part.buried>
-4.0765

> <Gold.PLP.part.nonpolar>
-29.6633

> <Gold.PLP.part.repulsive>
0.6125

> <Gold.PLP.ligand.clash>
0.0000

> <Gold.PLP.ligand.torsion>
1.7875

> <Gold.PLP.Chemscore.Hbond>
3.8406

> <Gold.PLP.Chemscore.CHOScore>
0.0000

> <Gold.PLP.Chemscore.Metal>
0.0000

> <Gold.Chemscore.Hbonds>
donor molecule, donor type, donor heavy atom, donor atom, acceptor molecule, acceptor atom, score
      L1  H     4    65       P1 10175  2.00
      L1  H     9    45       P1 10175  1.00
      P1  H  6896  6907       L1    25  0.67

> <Gold.PLP.Chemscore.Internal.Correction>
1.2518

> <Gold.Rescore>
     Score         DG    S(hbond)    S(metal)    S(lipo)     H(rot)  DE(clash)    DE(int)     intcor
     10.69     -15.82       2.75        0.00      84.35       3.40       0.16       4.97       ----

> <Gold.Chemscore.Fitness>
10.6921

> <Gold.Chemscore.DG>
-15.8222

> <Gold.Chemscore.ZeroCoef>
-5.4800

> <Gold.Chemscore.Hbond>
2.7465

> <Gold.Chemscore.Metal>
0.0000

> <Gold.Chemscore.Lipo>
84.3522

> <Gold.Chemscore.Internal_Hbond>
0.0000

> <Gold.Chemscore.DEClash>
0.1611

> <Gold.Chemscore.DEInternal>
4.9689

> <Gold.Chemscore.Rot>
3.3986

> <Gold.Chemscore.Internal.Correction>
   9.000000E+99

> <Gold.Chemscore.Hbonds>
donor molecule, donor type, donor heavy atom, donor atom, acceptor molecule, acceptor atom, score
      L1  H     4    65       P1 10175  0.99
      L1  H     9    45       P1 10175  0.99
      P1  H  6896  6907       L1    25  0.58

> <Gold.Chemscore.Hbond.Weighted>
-9.1734

> <Gold.Chemscore.Metal.Weighted>
-0.0000

> <Gold.Chemscore.Lipo.Weighted>
-9.8692

> <Gold.Chemscore.Internal_Hbond.Weighted>
0.0000

> <Gold.Chemscore.DEClash.Weighted>
0.1611

> <Gold.Chemscore.DEInternal.Weighted>
4.9689

> <Gold.Chemscore.Rot.Weighted>
8.7005

> <Gold.Chemscore.Internal.Correction.Weighted>
   9.000000E+99

> <Gold.Protein.RotatedTorsions>
[ 6907 6896 6895 6894 ] final  -30.58 input  -60.11 | X-H torsion
[ 7974 7965 7964 7962 ] final -145.25 input  175.53 | X-H torsion
[ 8008 7997 7996 7995 ] final   10.00 input   59.86 | X-H torsion
[ 10167 10162 10161 10158 ] final  -39.69 input  -65.29 | X-H torsion
[ 10718 10713 10712 10709 ] final  125.61 input   66.30 | X-H torsion
[ 10763 10752 10751 10750 ] final  -46.06 input  -60.55 | X-H torsion
[ 11005 11000 10999 10996 ] final  138.91 input  -57.11 | X-H torsion

> <Gold.Protein.ActiveResidues>
 VAL166  LYS551  ARG553  GLY616  TRP617  ASP618  TYR619  PRO620  LYS621  CYS622 
 ASP623  PHE694  ASN695  SER759  ASP760  ASP761  ALA762  ILE779  LEU786  VAL792 
 PHE793  MET794  SER795  GLU796  ALA797  LYS798  CYS799  TRP800  GLU811  SER814 

> <Gold.Protein.RotatedAtoms>
  151.1036  134.9986  159.8460 H   0  0  0  0  0  0  0  0  0  0  0  0  # atno 6907 bound_to 6896
  152.5438  134.1920  159.8688 H   0  0  0  0  0  0  0  0  0  0  0  0  # atno 6908 bound_to 6896
  151.1965  133.4591  159.2629 H   0  0  0  0  0  0  0  0  0  0  0  0  # atno 6909 bound_to 6896
  144.8240  140.5607  143.5559 H   0  0  0  0  0  0  0  0  0  0  0  0  # atno 7974 bound_to 7965
  154.7876  140.2830  155.6016 H   0  0  0  0  0  0  0  0  0  0  0  0  # atno 8008 bound_to 7997
  156.2959  140.2611  156.2644 H   0  0  0  0  0  0  0  0  0  0  0  0  # atno 8009 bound_to 7997
  154.9709  140.0376  157.2223 H   0  0  0  0  0  0  0  0  0  0  0  0  # atno 8010 bound_to 7997
  140.7056  143.3199  151.2819 H   0  0  0  0  0  0  0  0  0  0  0  0  # atno 10167 bound_to 10162
  157.5489  131.1094  150.8736 H   0  0  0  0  0  0  0  0  0  0  0  0  # atno 10718 bound_to 10713
  154.0387  135.6647  153.4788 H   0  0  0  0  0  0  0  0  0  0  0  0  # atno 10763 bound_to 10752
  153.0510  135.5084  154.7863 H   0  0  0  0  0  0  0  0  0  0  0  0  # atno 10764 bound_to 10752
  154.6832  135.3048  154.9550 H   0  0  0  0  0  0  0  0  0  0  0  0  # atno 10765 bound_to 10752
  140.0217  134.9393  157.0487 H   0  0  0  0  0  0  0  0  0  0  0  0  # atno 11005 bound_to 11000
  145.5040  139.1482  143.3641 LP  0  0  0  0  0  0  0  0  0  0  0  0  # atno 17320 bound_to 7965
  146.2546  140.5180  142.8879 LP  0  0  0  0  0  0  0  0  0  0  0  0  # atno 17321 bound_to 7965
  139.6649  144.0123  152.2716 LP  0  0  0  0  0  0  0  0  0  0  0  0  # atno 17342 bound_to 10162
  139.9702  144.6498  150.7996 LP  0  0  0  0  0  0  0  0  0  0  0  0  # atno 17343 bound_to 10162
  156.9266  130.5334  149.5279 LP  0  0  0  0  0  0  0  0  0  0  0  0  # atno 17370 bound_to 10713
  156.0559  130.5621  150.9091 LP  0  0  0  0  0  0  0  0  0  0  0  0  # atno 17371 bound_to 10713
  140.4376  134.1715  155.7171 LP  0  0  0  0  0  0  0  0  0  0  0  0  # atno 17394 bound_to 11000
  141.1778  133.8478  157.1363 LP  0  0  0  0  0  0  0  0  0  0  0  0  # atno 17395 bound_to 11000

$$$$
