AV-unprocessed.smi:129|AV-procd|sdf|1158|dock2
  -GOLD-   2262018293D 1   1.00000     0.00000
 Structure written by MMmdl.
 58 61  0  0  0  0  0  0  0  0  1 V2000
  153.6051  143.4440  163.6983 C   0  0  0  0  0  0  0  0  0  0  0  0
  153.3386  142.5624  162.6173 O   0  0  0  0  0  0  0  0  0  0  0  0
  152.7717  143.0822  161.4700 C   0  0  0  0  0  0  0  0  0  0  0  0
  152.3527  144.4321  161.3486 C   0  0  0  0  0  0  0  0  0  0  0  0
  151.7861  144.9016  160.1496 C   0  0  0  0  0  0  0  0  0  0  0  0
  151.6370  144.0337  159.0550 C   0  0  0  0  0  0  0  0  0  0  0  0
  152.0480  142.6931  159.1607 C   0  0  0  0  0  0  0  0  0  0  0  0
  152.6037  142.2067  160.3697 C   0  0  0  0  0  0  0  0  0  0  0  0
  153.0542  140.8658  160.5301 N   0  0  0  0  0  0  0  0  0  0  0  0
  153.4640  139.9862  159.5960 C   0  0  0  0  0  0  0  0  0  0  0  0
  153.5697  140.2276  158.3937 O   0  0  0  0  0  0  0  0  0  0  0  0
  153.8568  138.6385  160.1312 C   0  0  0  0  0  0  0  0  0  0  0  0
  154.0661  137.5620  159.2424 C   0  0  0  0  0  0  0  0  0  0  0  0
  154.4109  136.2882  159.7323 C   0  0  0  0  0  0  0  0  0  0  0  0
  154.5529  136.0662  161.1168 C   0  0  0  0  0  0  0  0  0  0  0  0
  154.8823  134.7467  161.5295 N   0  0  0  0  0  0  0  0  0  0  0  0
  154.8986  133.6122  160.8066 C   0  0  0  0  0  0  0  0  0  0  0  0
  154.5679  133.5321  159.6229 O   0  0  0  0  0  0  0  0  0  0  0  0
  155.3256  132.3559  161.5818 C   0  0  0  0  0  0  0  0  0  0  0  0
  154.4212  132.0185  162.7026 N   0  0  0  0  0  0  0  0  0  0  0  0
  154.3937  132.8761  163.8303 C   0  0  0  0  0  0  0  0  0  0  0  0
  155.0979  133.8857  163.8820 O   0  0  0  0  0  0  0  0  0  0  0  0
  153.4912  132.4762  164.9038 C   0  0  0  0  0  0  0  0  0  0  0  0
  153.3929  133.2358  166.0081 F   0  0  0  0  0  0  0  0  0  0  0  0
  152.7501  131.3533  164.8069 C   0  0  0  0  0  0  0  0  0  0  0  0
  152.7964  130.5182  163.7047 N   0  0  0  0  0  0  0  0  0  0  0  0
  151.9675  129.2546  163.6183 C   0  0  1  0  0  0  0  0  0  0  0  0
  151.2765  128.9685  164.9638 C   0  0  0  0  0  0  0  0  0  0  0  0
  149.8368  128.7322  164.5537 C   0  0  0  0  0  0  0  0  0  0  0  0
  149.7138  129.6125  163.3190 C   0  0  0  0  0  0  0  0  0  0  0  0
  150.9586  129.4125  162.6611 O   0  0  0  0  0  0  0  0  0  0  0  0
  153.6423  130.8397  162.6211 C   0  0  0  0  0  0  0  0  0  0  0  0
  153.7038  130.1038  161.6337 O   0  0  0  0  0  0  0  0  0  0  0  0
  154.3182  137.1366  162.0128 C   0  0  0  0  0  0  0  0  0  0  0  0
  153.9750  138.4116  161.5219 C   0  0  0  0  0  0  0  0  0  0  0  0
  154.0526  142.8817  164.5175 H   0  0  0  0  0  0  0  0  0  0  0  0
  152.6897  143.9022  164.0753 H   0  0  0  0  0  0  0  0  0  0  0  0
  154.3104  144.2253  163.4113 H   0  0  0  0  0  0  0  0  0  0  0  0
  152.4561  145.1324  162.1632 H   0  0  0  0  0  0  0  0  0  0  0  0
  151.4716  145.9316  160.0681 H   0  0  0  0  0  0  0  0  0  0  0  0
  151.2125  144.3973  158.1308 H   0  0  0  0  0  0  0  0  0  0  0  0
  151.9391  142.0621  158.2927 H   0  0  0  0  0  0  0  0  0  0  0  0
  152.9770  140.4995  161.4681 H   0  0  0  0  0  0  0  0  0  0  0  0
  153.9663  137.7058  158.1761 H   0  0  0  0  0  0  0  0  0  0  0  0
  154.5690  135.4785  159.0348 H   0  0  0  0  0  0  0  0  0  0  0  0
  155.0862  134.6424  162.5129 H   0  0  0  0  0  0  0  0  0  0  0  0
  155.4005  131.5184  160.8856 H   0  0  0  0  0  0  0  0  0  0  0  0
  156.3496  132.5014  161.9283 H   0  0  0  0  0  0  0  0  0  0  0  0
  152.1014  131.1149  165.6355 H   0  0  0  0  0  0  0  0  0  0  0  0
  152.6516  128.4696  163.2907 H   0  0  0  0  0  0  0  0  0  0  0  0
  151.7297  128.1117  165.4633 H   0  0  0  0  0  0  0  0  0  0  0  0
  151.3485  129.8398  165.6175 H   0  0  0  0  0  0  0  0  0  0  0  0
  149.6901  127.6859  164.2824 H   0  0  0  0  0  0  0  0  0  0  0  0
  149.1208  128.9887  165.3348 H   0  0  0  0  0  0  0  0  0  0  0  0
  148.8745  129.3329  162.6822 H   0  0  0  0  0  0  0  0  0  0  0  0
  149.5992  130.6602  163.6001 H   0  0  0  0  0  0  0  0  0  0  0  0
  154.3770  137.0012  163.0815 H   0  0  0  0  0  0  0  0  0  0  0  0
  153.7921  139.2092  162.2277 H   0  0  0  0  0  0  0  0  0  0  0  0
  1  2  1  0  0  0  0
  1 36  1  0  0  0  0
  1 37  1  0  0  0  0
  1 38  1  0  0  0  0
  2  3  1  0  0  0  0
  3  8  1  0  0  0  0
  3  4  2  0  0  0  0
  4  5  1  0  0  0  0
  4 39  1  0  0  0  0
  5  6  2  0  0  0  0
  5 40  1  0  0  0  0
  6  7  1  0  0  0  0
  6 41  1  0  0  0  0
  7  8  2  0  0  0  0
  7 42  1  0  0  0  0
  8  9  1  0  0  0  0
  9 10  1  0  0  0  0
  9 43  1  0  0  0  0
 10 11  2  0  0  0  0
 10 12  1  0  0  0  0
 12 35  1  0  0  0  0
 12 13  2  0  0  0  0
 13 14  1  0  0  0  0
 13 44  1  0  0  0  0
 14 15  2  0  0  0  0
 14 45  1  0  0  0  0
 15 16  1  0  0  0  0
 15 34  1  0  0  0  0
 16 17  1  0  0  0  0
 16 46  1  0  0  0  0
 17 18  2  0  0  0  0
 17 19  1  0  0  0  0
 19 20  1  0  0  0  0
 19 47  1  0  0  0  0
 19 48  1  0  0  0  0
 20 32  1  0  0  0  0
 20 21  1  0  0  0  0
 21 22  2  0  0  0  0
 21 23  1  0  0  0  0
 23 24  1  0  0  0  0
 23 25  2  0  0  0  0
 25 26  1  0  0  0  0
 25 49  1  0  0  0  0
 26 27  1  0  0  0  0
 26 32  1  0  0  0  0
 27 31  1  0  0  0  0
 27 28  1  0  0  0  0
 27 50  1  0  0  0  0
 28 29  1  0  0  0  0
 28 51  1  0  0  0  0
 28 52  1  0  0  0  0
 29 30  1  0  0  0  0
 29 53  1  0  0  0  0
 29 54  1  0  0  0  0
 30 31  1  0  0  0  0
 30 55  1  0  0  0  0
 30 56  1  0  0  0  0
 32 33  2  0  0  0  0
 34 35  2  0  0  0  0
 34 57  1  0  0  0  0
 35 58  1  0  0  0  0
M  END
> <s_m_source_file>
AV-unprocessed.smi

> <i_m_source_file_index>
129

> <i_lp_mmshare_version>
43012

> <i_f3d_flags>
0

> <s_epik_input>
W0NIM11PYzFbY0hdW2NIXVtjSF1bY0hdYzFbTkhdQyg9TyljMltjSF1bY0hdYyhbY0hdW2NIXTIpW05IXUMoPU8pW0NIMl1uM2MoPU8pYyhGKVtjSF1uKGMzPU8pW0NAQEhdNFtDSDJdW0NIMl1bQ0gyXU80

> <s_epik_cmdline>
J2VwaWtfcHl0aG9uJywgJy1waCcsICc3LjAnLCAnLXRuJywgJzgnLCAnLW1hJywgJzIwMCcsICctbWV0YWxfYmluZGluZycsICctaW1hZScsICc8aW5maWxlLm1hZT4nLCAnLW9tYWUnLCAnPG91dGZpbGUubWFlPic=

> <r_lp_tautomer_probability>
1

> <r_epik_Ionization_Penalty>
2.57954e-06

> <r_epik_Ionization_Penalty_Charging>
3.88729e-08

> <r_epik_Ionization_Penalty_Neutral>
2.54066e-06

> <r_epik_State_Penalty>
-0

> <r_epik_Charging_Adjusted_Penalty>
3.88729e-08

> <i_epik_Tot_Q>
0

> <i_epik_Tot_abs_Q>
0

> <r_epik_Metal_State_Penalty>
-0

> <b_epik_Metal_Only>
0

> <s_epik_Chemistry_Notes>
This compound contains an acetal/aminal-like group ( X-CH(R)-Y where X, Y are N, S, or O) that may be acid/base labile, releasing an aldehyde.

> <s_lp_Force_Field>
OPLS_2005

> <r_lp_Energy>
51.387

> <b_lp_Chiralities_Consistent>
1

> <s_lp_Variant>
AV-unprocessed.smi:129-2

> <Gold.Version>
5.8.1

> <Gold.Id.Protein>
6NUR|6NUR_protein|mol2

> <Gold.PLP.Fitness>
60.3981

> <Gold.PLP.PLP>
-55.3981

> <Gold.PLP.part.hbond>
-2.0000

> <Gold.PLP.part.metal>
0.0000

> <Gold.PLP.part.buried>
-5.1978

> <Gold.PLP.part.nonpolar>
-47.7870

> <Gold.PLP.part.repulsive>
0.2846

> <Gold.PLP.ligand.clash>
0.0000

> <Gold.PLP.ligand.torsion>
0.4883

> <Gold.PLP.Chemscore.Hbond>
1.9280

> <Gold.PLP.Chemscore.CHOScore>
0.0000

> <Gold.PLP.Chemscore.Metal>
0.0000

> <Gold.Chemscore.Hbonds>
donor molecule, donor type, donor heavy atom, donor atom, acceptor molecule, acceptor atom, score
      P1  H  6896  6908       L1    18  0.95
      P1  H  7997  8009       L1    11  0.93

> <Gold.PLP.Chemscore.Internal.Correction>
0.1926

> <Gold.Rescore>
     Score         DG    S(hbond)    S(metal)    S(lipo)     H(rot)  DE(clash)    DE(int)     intcor
     18.05     -24.65       1.87        0.00     153.01       1.94       0.86       5.73       ----

> <Gold.Chemscore.Fitness>
18.0543

> <Gold.Chemscore.DG>
-24.6475

> <Gold.Chemscore.ZeroCoef>
-5.4800

> <Gold.Chemscore.Hbond>
1.8683

> <Gold.Chemscore.Metal>
0.0000

> <Gold.Chemscore.Lipo>
153.0053

> <Gold.Chemscore.Internal_Hbond>
0.0000

> <Gold.Chemscore.DEClash>
0.8590

> <Gold.Chemscore.DEInternal>
5.7342

> <Gold.Chemscore.Rot>
1.9430

> <Gold.Chemscore.Internal.Correction>
   9.000000E+99

> <Gold.Chemscore.Hbonds>
donor molecule, donor type, donor heavy atom, donor atom, acceptor molecule, acceptor atom, score
      P1  H  6896  6908       L1    18  0.20
      P1  H  7997  8009       L1    11  0.90

> <Gold.Chemscore.Hbond.Weighted>
-6.2400

> <Gold.Chemscore.Metal.Weighted>
-0.0000

> <Gold.Chemscore.Lipo.Weighted>
-17.9016

> <Gold.Chemscore.Internal_Hbond.Weighted>
0.0000

> <Gold.Chemscore.DEClash.Weighted>
0.8590

> <Gold.Chemscore.DEInternal.Weighted>
5.7342

> <Gold.Chemscore.Rot.Weighted>
4.9741

> <Gold.Chemscore.Internal.Correction.Weighted>
   9.000000E+99

> <Gold.Protein.RotatedTorsions>
[ 6907 6896 6895 6894 ] final  -19.22 input  -60.11 | X-H torsion
[ 7974 7965 7964 7962 ] final  179.14 input  175.53 | X-H torsion
[ 8008 7997 7996 7995 ] final  148.51 input   59.86 | X-H torsion
[ 10167 10162 10161 10158 ] final -138.37 input  -65.29 | X-H torsion
[ 10718 10713 10712 10709 ] final  -70.48 input   66.30 | X-H torsion
[ 10763 10752 10751 10750 ] final -126.74 input  -60.55 | X-H torsion
[ 11005 11000 10999 10996 ] final -155.18 input  -57.11 | X-H torsion

> <Gold.Protein.ActiveResidues>
 VAL166  LYS551  ARG553  GLY616  TRP617  ASP618  TYR619  PRO620  LYS621  CYS622 
 ASP623  PHE694  ASN695  SER759  ASP760  ASP761  ALA762  ILE779  LEU786  VAL792 
 PHE793  MET794  SER795  GLU796  ALA797  LYS798  CYS799  TRP800  GLU811  SER814 

> <Gold.Protein.RotatedAtoms>
  151.2664  135.0670  159.9117 H   0  0  0  0  0  0  0  0  0  0  0  0  # atno 6907 bound_to 6896
  152.5358  134.0177  159.7977 H   0  0  0  0  0  0  0  0  0  0  0  0  # atno 6908 bound_to 6896
  151.0408  133.5658  159.2682 H   0  0  0  0  0  0  0  0  0  0  0  0  # atno 6909 bound_to 6896
  144.7148  140.0503  143.6435 H   0  0  0  0  0  0  0  0  0  0  0  0  # atno 7974 bound_to 7965
  156.2789  140.2127  156.5709 H   0  0  0  0  0  0  0  0  0  0  0  0  # atno 8008 bound_to 7997
  154.7136  140.0510  157.0597 H   0  0  0  0  0  0  0  0  0  0  0  0  # atno 8009 bound_to 7997
  155.0572  140.3162  155.4675 H   0  0  0  0  0  0  0  0  0  0  0  0  # atno 8010 bound_to 7997
  139.8485  143.7229  152.2659 H   0  0  0  0  0  0  0  0  0  0  0  0  # atno 10167 bound_to 10162
  156.0406  130.4332  150.2302 H   0  0  0  0  0  0  0  0  0  0  0  0  # atno 10718 bound_to 10713
  154.8748  135.3985  154.3481 H   0  0  0  0  0  0  0  0  0  0  0  0  # atno 10763 bound_to 10752
  153.4270  135.7024  153.6261 H   0  0  0  0  0  0  0  0  0  0  0  0  # atno 10764 bound_to 10752
  153.4899  135.3750  155.2456 H   0  0  0  0  0  0  0  0  0  0  0  0  # atno 10765 bound_to 10752
  140.6893  134.4059  157.5220 H   0  0  0  0  0  0  0  0  0  0  0  0  # atno 11005 bound_to 11000
  145.9950  139.3045  143.0962 LP  0  0  0  0  0  0  0  0  0  0  0  0  # atno 17320 bound_to 7965
  145.8859  140.9334  143.0577 LP  0  0  0  0  0  0  0  0  0  0  0  0  # atno 17321 bound_to 7965
  139.7489  144.7540  151.0537 LP  0  0  0  0  0  0  0  0  0  0  0  0  # atno 17342 bound_to 10162
  140.7790  143.4884  150.9926 LP  0  0  0  0  0  0  0  0  0  0  0  0  # atno 17343 bound_to 10162
  157.0397  131.0031  151.3287 LP  0  0  0  0  0  0  0  0  0  0  0  0  # atno 17370 bound_to 10713
  157.5218  130.8003  149.7817 LP  0  0  0  0  0  0  0  0  0  0  0  0  # atno 17371 bound_to 10713
  139.8928  134.8746  156.2253 LP  0  0  0  0  0  0  0  0  0  0  0  0  # atno 17394 bound_to 11000
  141.0254  133.7018  156.1339 LP  0  0  0  0  0  0  0  0  0  0  0  0  # atno 17395 bound_to 11000

$$$$
