AV-unprocessed.smi:1492|AV-procd|sdf|6042|dock3
  -GOLD-   22720 6153D 1   1.00000     0.00000
 Structure written by MMmdl.
 53 54  0  0  0  0  0  0  0  0  2 V2000
  144.0457  133.1553  151.5106 C   0  0  0  0  0  0  0  0  0  0  0  0
  144.0370  134.3651  152.4652 C   0  0  0  0  0  0  0  0  0  0  0  0
  145.1769  135.4267  152.3062 C   0  0  1  0  0  0  0  0  0  0  0  0
  145.3898  135.7040  150.7971 C   0  0  0  0  0  0  0  0  0  0  0  0
  144.7467  136.7590  153.0005 C   0  0  0  0  0  0  0  0  0  0  0  0
  145.6247  137.8774  152.6617 N   0  0  0  0  0  0  0  0  0  0  0  0
  146.3658  138.5976  153.5170 C   0  0  0  0  0  0  0  0  0  0  0  0
  146.2899  138.4901  154.7392 O   0  0  0  0  0  0  0  0  0  0  0  0
  147.3738  139.5718  152.9009 C   0  0  0  0  0  0  0  0  0  0  0  0
  148.2670  140.3243  153.8889 C   0  0  0  0  0  0  0  0  0  0  0  0
  147.9962  141.5782  154.3325 C   0  0  0  0  0  0  0  0  0  0  0  0
  146.7781  142.3873  153.9245 C   0  0  0  0  0  0  0  0  0  0  0  0
  148.8480  142.2261  155.2097 N   0  0  0  0  0  0  0  0  0  0  0  0
  149.9970  141.5625  155.6069 C   0  0  0  0  0  0  0  0  0  0  0  0
  150.8692  142.3663  156.5457 C   0  0  0  0  0  0  0  0  0  0  0  0
  150.3472  140.3708  155.2300 N   0  0  0  0  0  0  0  0  0  0  0  0
  149.5123  139.6662  154.3489 C   0  0  0  0  0  0  0  0  0  0  0  0
  149.8232  138.5404  153.9626 O   0  0  0  0  0  0  0  0  0  0  0  0
  146.4509  134.9121  152.9455 N   0  3  0  0  0  0  0  0  0  0  0  0
  146.5255  134.9778  154.4342 C   0  0  0  0  0  0  0  0  0  0  0  0
  147.9207  134.5673  154.9371 C   0  0  0  0  0  0  0  0  0  0  0  0
  148.2523  133.2712  154.4632 O   0  0  0  0  0  0  0  0  0  0  0  0
  148.2900  133.2299  153.0453 C   0  0  0  0  0  0  0  0  0  0  0  0
  146.8983  133.5637  152.4881 C   0  0  0  0  0  0  0  0  0  0  0  0
  148.6027  143.1539  155.5257 H   0  0  0  0  0  0  0  0  0  0  0  0
  143.2313  132.4762  151.7634 H   0  0  0  0  0  0  0  0  0  0  0  0
  144.9685  132.5813  151.5837 H   0  0  0  0  0  0  0  0  0  0  0  0
  143.9025  133.4344  150.4691 H   0  0  0  0  0  0  0  0  0  0  0  0
  143.0659  134.8563  152.3912 H   0  0  0  0  0  0  0  0  0  0  0  0
  144.0781  133.9275  153.4614 H   0  0  0  0  0  0  0  0  0  0  0  0
  144.4908  136.1106  150.3349 H   0  0  0  0  0  0  0  0  0  0  0  0
  145.6520  134.7990  150.2492 H   0  0  0  0  0  0  0  0  0  0  0  0
  146.1724  136.4396  150.6161 H   0  0  0  0  0  0  0  0  0  0  0  0
  143.7420  137.0406  152.6869 H   0  0  0  0  0  0  0  0  0  0  0  0
  144.6522  136.6461  154.0799 H   0  0  0  0  0  0  0  0  0  0  0  0
  145.7372  138.0752  151.6781 H   0  0  0  0  0  0  0  0  0  0  0  0
  147.9859  139.0078  152.1976 H   0  0  0  0  0  0  0  0  0  0  0  0
  146.8360  140.2946  152.2853 H   0  0  0  0  0  0  0  0  0  0  0  0
  146.7359  142.4934  152.8402 H   0  0  0  0  0  0  0  0  0  0  0  0
  146.7952  143.3881  154.3580 H   0  0  0  0  0  0  0  0  0  0  0  0
  145.8654  141.8942  154.2597 H   0  0  0  0  0  0  0  0  0  0  0  0
  151.7785  141.8192  156.7981 H   0  0  0  0  0  0  0  0  0  0  0  0
  150.3333  142.5829  157.4702 H   0  0  0  0  0  0  0  0  0  0  0  0
  151.1582  143.3097  156.0816 H   0  0  0  0  0  0  0  0  0  0  0  0
  146.3532  135.9856  154.8050 H   0  0  0  0  0  0  0  0  0  0  0  0
  145.7676  134.3310  154.8768 H   0  0  0  0  0  0  0  0  0  0  0  0
  148.6753  135.2866  154.6182 H   0  0  0  0  0  0  0  0  0  0  0  0
  147.9369  134.5575  156.0271 H   0  0  0  0  0  0  0  0  0  0  0  0
  149.0403  133.9214  152.6625 H   0  0  0  0  0  0  0  0  0  0  0  0
  148.5899  132.2302  152.7310 H   0  0  0  0  0  0  0  0  0  0  0  0
  146.1962  132.7987  152.8194 H   0  0  0  0  0  0  0  0  0  0  0  0
  146.9520  133.5021  151.4033 H   0  0  0  0  0  0  0  0  0  0  0  0
  147.1649  135.5509  152.6255 H   0  0  0  0  0  0  0  0  0  0  0  0
  1  2  1  0  0  0  0
  1 26  1  0  0  0  0
  1 27  1  0  0  0  0
  1 28  1  0  0  0  0
  2  3  1  0  0  0  0
  2 29  1  0  0  0  0
  2 30  1  0  0  0  0
  3  4  1  0  0  0  0
  3  5  1  0  0  0  0
  3 19  1  0  0  0  0
  4 31  1  0  0  0  0
  4 32  1  0  0  0  0
  4 33  1  0  0  0  0
  5  6  1  0  0  0  0
  5 34  1  0  0  0  0
  5 35  1  0  0  0  0
  6  7  1  0  0  0  0
  6 36  1  0  0  0  0
  7  8  2  0  0  0  0
  7  9  1  0  0  0  0
  9 37  1  0  0  0  0
  9 38  1  0  0  0  0
  9 10  1  0  0  0  0
 10 17  1  0  0  0  0
 10 11  2  0  0  0  0
 11 12  1  0  0  0  0
 11 13  1  0  0  0  0
 12 39  1  0  0  0  0
 12 40  1  0  0  0  0
 12 41  1  0  0  0  0
 13 25  1  0  0  0  0
 13 14  1  0  0  0  0
 14 15  1  0  0  0  0
 14 16  2  0  0  0  0
 15 42  1  0  0  0  0
 15 43  1  0  0  0  0
 15 44  1  0  0  0  0
 16 17  1  0  0  0  0
 17 18  2  0  0  0  0
 19 24  1  0  0  0  0
 19 20  1  0  0  0  0
 19 53  1  0  0  0  0
 20 21  1  0  0  0  0
 20 45  1  0  0  0  0
 20 46  1  0  0  0  0
 21 22  1  0  0  0  0
 21 47  1  0  0  0  0
 21 48  1  0  0  0  0
 22 23  1  0  0  0  0
 23 24  1  0  0  0  0
 23 49  1  0  0  0  0
 23 50  1  0  0  0  0
 24 51  1  0  0  0  0
 24 52  1  0  0  0  0
M  CHG  1  19   1
M  END
> <s_m_source_file>
AV-unprocessed.smi

> <i_m_source_file_index>
1492

> <i_lp_mmshare_version>
43012

> <i_f3d_flags>
0

> <s_epik_input>
W0NIMl0xW0NIMl1PW0NIMl1bQ0gyXU4xW0NAQF0oW0NIM10pKFtDSDJdW0NIM10pW0NIMl1bTkhdQyg9TylbQ0gyXWMyYyhbQ0gzXSluYyhbQ0gzXSlbbkhdYzI9Tw==

> <s_epik_cmdline>
J2VwaWtfcHl0aG9uJywgJy1waCcsICc3LjAnLCAnLXRuJywgJzgnLCAnLW1hJywgJzIwMCcsICctbWV0YWxfYmluZGluZycsICctaW1hZScsICc8aW5maWxlLm1hZT4nLCAnLW9tYWUnLCAnPG91dGZpbGUubWFlPic=

> <r_lp_tautomer_probability>
0.156392

> <r_epik_Ionization_Penalty>
0.523233

> <r_epik_Ionization_Penalty_Charging>
0.523147

> <r_epik_Ionization_Penalty_Neutral>
8.52784e-05

> <r_epik_State_Penalty>
1.66677

> <r_epik_Charging_Adjusted_Penalty>
2.18991

> <i_epik_Tot_Q>
1

> <i_epik_Tot_abs_Q>
1

> <r_epik_Metal_State_Penalty>
1.84524

> <b_epik_Metal_Only>
0

> <s_lp_Force_Field>
OPLS_2005

> <r_lp_Energy>
37.6543

> <b_lp_Chiralities_Consistent>
1

> <s_lp_Variant>
AV-unprocessed.smi:1492-7

> <Gold.Version>
5.8.1

> <Gold.Id.Protein>
6NUR|6NUR_protein|mol2

> <Gold.PLP.Fitness>
46.8068

> <Gold.PLP.PLP>
-37.9191

> <Gold.PLP.part.hbond>
-3.2567

> <Gold.PLP.part.metal>
0.0000

> <Gold.PLP.part.buried>
-2.5690

> <Gold.PLP.part.nonpolar>
-32.3037

> <Gold.PLP.part.repulsive>
1.2987

> <Gold.PLP.ligand.clash>
0.0000

> <Gold.PLP.ligand.torsion>
0.9270

> <Gold.PLP.Chemscore.Hbond>
3.4916

> <Gold.PLP.Chemscore.CHOScore>
0.0000

> <Gold.PLP.Chemscore.Metal>
0.0000

> <Gold.Chemscore.Hbonds>
donor molecule, donor type, donor heavy atom, donor atom, acceptor molecule, acceptor atom, score
      L1  H    13    25       P1  8028  1.00
      L1  H    19    53       P1  7948  1.95
      P1  H  7989  7998       L1    16  0.22

> <Gold.PLP.Chemscore.Internal.Correction>
0.2671

> <Gold.Rescore>
     Score         DG    S(hbond)    S(metal)    S(lipo)     H(rot)  DE(clash)    DE(int)     intcor
     14.66     -15.90       1.97        0.00      80.83       2.19       0.50       0.74       ----

> <Gold.Chemscore.Fitness>
14.6617

> <Gold.Chemscore.DG>
-15.9045

> <Gold.Chemscore.ZeroCoef>
-5.4800

> <Gold.Chemscore.Hbond>
1.9701

> <Gold.Chemscore.Metal>
0.0000

> <Gold.Chemscore.Lipo>
80.8330

> <Gold.Chemscore.Internal_Hbond>
0.0000

> <Gold.Chemscore.DEClash>
0.5008

> <Gold.Chemscore.DEInternal>
0.7420

> <Gold.Chemscore.Rot>
2.1926

> <Gold.Chemscore.Internal.Correction>
   9.000000E+99

> <Gold.Chemscore.Hbonds>
donor molecule, donor type, donor heavy atom, donor atom, acceptor molecule, acceptor atom, score
      L1  H    13    25       P1  8028  0.95
      L1  H    19    53       P1  7948  0.91

> <Gold.Chemscore.Hbond.Weighted>
-6.5800

> <Gold.Chemscore.Metal.Weighted>
-0.0000

> <Gold.Chemscore.Lipo.Weighted>
-9.4575

> <Gold.Chemscore.Internal_Hbond.Weighted>
0.0000

> <Gold.Chemscore.DEClash.Weighted>
0.5008

> <Gold.Chemscore.DEInternal.Weighted>
0.7420

> <Gold.Chemscore.Rot.Weighted>
5.6129

> <Gold.Chemscore.Internal.Correction.Weighted>
   9.000000E+99

> <Gold.Protein.RotatedTorsions>
[ 6907 6896 6895 6894 ] final  -51.13 input  -60.11 | X-H torsion
[ 7974 7965 7964 7962 ] final -157.12 input  175.53 | X-H torsion
[ 8008 7997 7996 7995 ] final   25.69 input   59.86 | X-H torsion
[ 10167 10162 10161 10158 ] final   34.05 input  -65.29 | X-H torsion
[ 10718 10713 10712 10709 ] final   22.26 input   66.30 | X-H torsion
[ 10763 10752 10751 10750 ] final  -55.61 input  -60.55 | X-H torsion
[ 11005 11000 10999 10996 ] final  170.50 input  -57.11 | X-H torsion

> <Gold.Protein.ActiveResidues>
 VAL166  LYS551  ARG553  GLY616  TRP617  ASP618  TYR619  PRO620  LYS621  CYS622 
 ASP623  PHE694  ASN695  SER759  ASP760  ASP761  ALA762  ILE779  LEU786  VAL792 
 PHE793  MET794  SER795  GLU796  ALA797  LYS798  CYS799  TRP800  GLU811  SER814 

> <Gold.Protein.RotatedAtoms>
  150.8641  134.8000  159.7104 H   0  0  0  0  0  0  0  0  0  0  0  0  # atno 6907 bound_to 6896
  152.4668  134.5052  159.9747 H   0  0  0  0  0  0  0  0  0  0  0  0  # atno 6908 bound_to 6896
  151.5152  133.3439  159.2927 H   0  0  0  0  0  0  0  0  0  0  0  0  # atno 6909 bound_to 6896
  144.7562  140.4013  143.6010 H   0  0  0  0  0  0  0  0  0  0  0  0  # atno 7974 bound_to 7965
  155.0156  140.3141  155.4813 H   0  0  0  0  0  0  0  0  0  0  0  0  # atno 8008 bound_to 7997
  156.2901  140.2206  156.5214 H   0  0  0  0  0  0  0  0  0  0  0  0  # atno 8009 bound_to 7997
  154.7496  140.0467  157.0870 H   0  0  0  0  0  0  0  0  0  0  0  0  # atno 8010 bound_to 7997
  140.4351  144.1269  150.6165 H   0  0  0  0  0  0  0  0  0  0  0  0  # atno 10167 bound_to 10162
  157.1498  130.6669  149.6008 H   0  0  0  0  0  0  0  0  0  0  0  0  # atno 10718 bound_to 10713
  154.1936  135.6423  153.5067 H   0  0  0  0  0  0  0  0  0  0  0  0  # atno 10763 bound_to 10752
  153.0029  135.5434  154.6389 H   0  0  0  0  0  0  0  0  0  0  0  0  # atno 10764 bound_to 10752
  154.5784  135.2923  155.0730 H   0  0  0  0  0  0  0  0  0  0  0  0  # atno 10765 bound_to 10752
  140.3091  134.7532  157.3977 H   0  0  0  0  0  0  0  0  0  0  0  0  # atno 11005 bound_to 11000
  145.6771  139.1611  143.2722 LP  0  0  0  0  0  0  0  0  0  0  0  0  # atno 17320 bound_to 7965
  146.1575  140.6837  142.9293 LP  0  0  0  0  0  0  0  0  0  0  0  0  # atno 17321 bound_to 7965
  140.4383  143.2538  151.9506 LP  0  0  0  0  0  0  0  0  0  0  0  0  # atno 17342 bound_to 10162
  139.4786  144.5679  151.8136 LP  0  0  0  0  0  0  0  0  0  0  0  0  # atno 17343 bound_to 10162
  155.9772  130.4748  150.6582 LP  0  0  0  0  0  0  0  0  0  0  0  0  # atno 17370 bound_to 10713
  157.4231  131.0839  151.1112 LP  0  0  0  0  0  0  0  0  0  0  0  0  # atno 17371 bound_to 10713
  140.1041  134.5433  155.8326 LP  0  0  0  0  0  0  0  0  0  0  0  0  # atno 17394 bound_to 11000
  141.2112  133.6704  156.6565 LP  0  0  0  0  0  0  0  0  0  0  0  0  # atno 17395 bound_to 11000

$$$$
