AV-unprocessed.smi:3112|AV-procd|sdf|11845|dock9
  -GOLD-   2272017223D 1   1.00000     0.00000
 Structure written by MMmdl.
 36 36  0  0  0  0  0  0  0  0  1 V2000
  144.9412  135.9016  152.0358 C   0  0  0  0  0  0  0  0  0  0  0  0
  145.2585  137.2132  152.7665 C   0  0  0  0  0  0  0  0  0  0  0  0
  146.5950  137.8456  152.3294 C   0  0  1  0  0  0  0  0  0  0  0  0
  146.5389  138.2648  150.9805 O   0  0  0  0  0  0  0  0  0  0  0  0
  147.0558  139.0277  153.2031 C   0  0  0  0  0  0  0  0  0  0  0  0
  148.4898  138.9750  153.5018 N   0  0  0  0  0  0  0  0  0  0  0  0
  148.9343  139.8769  154.5687 C   0  0  2  0  0  0  0  0  0  0  0  0
  148.3216  141.2664  154.3095 C   0  0  0  0  0  0  0  0  0  0  0  0
  150.4887  139.9269  154.6715 C   0  0  2  0  0  0  0  0  0  0  0  0
  151.1806  138.5556  154.5587 C   0  0  0  0  0  0  0  0  0  0  0  0
  150.9307  140.5963  155.8892 N   0  0  0  0  0  0  0  0  0  0  0  0
  150.6511  141.8817  156.3060 C   0  0  0  0  0  0  0  0  0  0  0  0
  151.2789  142.0689  157.5039 C   0  0  0  0  0  0  0  0  0  0  0  0
  151.9285  140.8259  157.7428 C   0  0  0  0  0  0  0  0  0  0  0  0
  151.7194  139.9474  156.7762 N   0  0  0  0  0  0  0  0  0  0  0  0
  144.0063  135.4733  152.3976 H   0  0  0  0  0  0  0  0  0  0  0  0
  145.7272  135.1623  152.1926 H   0  0  0  0  0  0  0  0  0  0  0  0
  144.8377  136.0595  150.9621 H   0  0  0  0  0  0  0  0  0  0  0  0
  144.4390  137.9167  152.6149 H   0  0  0  0  0  0  0  0  0  0  0  0
  145.2934  137.0114  153.8377 H   0  0  0  0  0  0  0  0  0  0  0  0
  147.3706  137.0811  152.3841 H   0  0  0  0  0  0  0  0  0  0  0  0
  145.6329  138.3835  150.7404 H   0  0  0  0  0  0  0  0  0  0  0  0
  146.8407  139.9548  152.6704 H   0  0  0  0  0  0  0  0  0  0  0  0
  146.4583  139.0639  154.1116 H   0  0  0  0  0  0  0  0  0  0  0  0
  149.0098  139.1724  152.6531 H   0  0  0  0  0  0  0  0  0  0  0  0
  148.5312  139.5329  155.5225 H   0  0  0  0  0  0  0  0  0  0  0  0
  148.5058  141.9529  155.1360 H   0  0  0  0  0  0  0  0  0  0  0  0
  147.2396  141.2010  154.1899 H   0  0  0  0  0  0  0  0  0  0  0  0
  148.7285  141.7173  153.4039 H   0  0  0  0  0  0  0  0  0  0  0  0
  150.8526  140.5345  153.8412 H   0  0  0  0  0  0  0  0  0  0  0  0
  151.0763  138.1393  153.5574 H   0  0  0  0  0  0  0  0  0  0  0  0
  150.7719  137.8394  155.2721 H   0  0  0  0  0  0  0  0  0  0  0  0
  152.2508  138.6411  154.7502 H   0  0  0  0  0  0  0  0  0  0  0  0
  150.0337  142.5488  155.7224 H   0  0  0  0  0  0  0  0  0  0  0  0
  151.2748  142.9582  158.1164 H   0  0  0  0  0  0  0  0  0  0  0  0
  152.5416  140.5377  158.5839 H   0  0  0  0  0  0  0  0  0  0  0  0
  1  2  1  0  0  0  0
  1 16  1  0  0  0  0
  1 17  1  0  0  0  0
  1 18  1  0  0  0  0
  2  3  1  0  0  0  0
  2 19  1  0  0  0  0
  2 20  1  0  0  0  0
  3  4  1  0  0  0  0
  3  5  1  0  0  0  0
  3 21  1  0  0  0  0
  4 22  1  0  0  0  0
  5  6  1  0  0  0  0
  5 23  1  0  0  0  0
  5 24  1  0  0  0  0
  6  7  1  0  0  0  0
  6 25  1  0  0  0  0
  7  8  1  0  0  0  0
  7  9  1  0  0  0  0
  7 26  1  0  0  0  0
  8 27  1  0  0  0  0
  8 28  1  0  0  0  0
  8 29  1  0  0  0  0
  9 10  1  0  0  0  0
  9 11  1  0  0  0  0
  9 30  1  0  0  0  0
 10 31  1  0  0  0  0
 10 32  1  0  0  0  0
 10 33  1  0  0  0  0
 11 15  1  0  0  0  0
 11 12  1  0  0  0  0
 12 13  2  0  0  0  0
 12 34  1  0  0  0  0
 13 14  1  0  0  0  0
 13 35  1  0  0  0  0
 14 15  2  0  0  0  0
 14 36  1  0  0  0  0
M  END
> <s_m_source_file>
AV-unprocessed.smi

> <i_m_source_file_index>
3112

> <i_lp_mmshare_version>
43012

> <i_f3d_flags>
0

> <s_epik_input>
W0NIM11bQ0gyXVtDQEhdKFtPSF0pW0NIMl1bTkhdW0NASF0oW0NIM10pW0NASF0oW0NIM10pbjFbY0hdW2NIXVtjSF1uMQ==

> <s_epik_cmdline>
J2VwaWtfcHl0aG9uJywgJy1waCcsICc3LjAnLCAnLXRuJywgJzgnLCAnLW1hJywgJzIwMCcsICctbWV0YWxfYmluZGluZycsICctaW1hZScsICc8aW5maWxlLm1hZT4nLCAnLW9tYWUnLCAnPG91dGZpbGUubWFlPic=

> <r_lp_tautomer_probability>
1

> <r_epik_Ionization_Penalty>
2.16876

> <r_epik_Ionization_Penalty_Charging>
0

> <r_epik_Ionization_Penalty_Neutral>
2.16876

> <r_epik_State_Penalty>
2.30854

> <r_epik_Charging_Adjusted_Penalty>
2.30854

> <i_epik_Tot_Q>
0

> <i_epik_Tot_abs_Q>
0

> <r_epik_Metal_State_Penalty>
2.3073

> <b_epik_Metal_Only>
0

> <s_lp_Force_Field>
OPLS_2005

> <r_lp_Energy>
23.3328

> <b_lp_Chiralities_Consistent>
1

> <s_lp_Variant>
AV-unprocessed.smi:3112-10

> <Gold.Version>
5.8.1

> <Gold.Id.Protein>
6NUR|6NUR_protein|mol2

> <Gold.PLP.Fitness>
43.6859

> <Gold.PLP.PLP>
-33.3993

> <Gold.PLP.part.hbond>
-3.5106

> <Gold.PLP.part.metal>
0.0000

> <Gold.PLP.part.buried>
0.4432

> <Gold.PLP.part.nonpolar>
-29.7086

> <Gold.PLP.part.repulsive>
0.0000

> <Gold.PLP.ligand.clash>
0.0000

> <Gold.PLP.ligand.torsion>
0.9362

> <Gold.PLP.Chemscore.Hbond>
3.0000

> <Gold.PLP.Chemscore.CHOScore>
1.0000

> <Gold.PLP.Chemscore.Metal>
0.0000

> <Gold.Chemscore.Hbonds>
donor molecule, donor type, donor heavy atom, donor atom, acceptor molecule, acceptor atom, score
      L1  H     4    22       P1 10171  1.00
      L1  H     6    25       P1  7957  1.00
      P1  H  7954  7966       L1     4  1.00
      L1  C    12    34       P1  8028  1.00

> <Gold.PLP.Chemscore.Internal.Correction>
0.1590

> <Gold.Rescore>
     Score         DG    S(hbond)    S(metal)    S(lipo)     H(rot)  DE(clash)    DE(int)     intcor
     13.40     -14.77       1.98        0.00      73.46       2.31       0.11       1.26       ----

> <Gold.Chemscore.Fitness>
13.4049

> <Gold.Chemscore.DG>
-14.7699

> <Gold.Chemscore.ZeroCoef>
-5.4800

> <Gold.Chemscore.Hbond>
1.9792

> <Gold.Chemscore.Metal>
0.0000

> <Gold.Chemscore.Lipo>
73.4620

> <Gold.Chemscore.Internal_Hbond>
0.0000

> <Gold.Chemscore.DEClash>
0.1087

> <Gold.Chemscore.DEInternal>
1.2563

> <Gold.Chemscore.Rot>
2.3108

> <Gold.Chemscore.Internal.Correction>
   9.000000E+99

> <Gold.Chemscore.Hbonds>
donor molecule, donor type, donor heavy atom, donor atom, acceptor molecule, acceptor atom, score
      L1  H     4    22       P1 10171  0.97
      L1  H     6    25       P1  7957  1.00
      P1  H  7954  7966       L1     4  0.88

> <Gold.Chemscore.Hbond.Weighted>
-6.6105

> <Gold.Chemscore.Metal.Weighted>
-0.0000

> <Gold.Chemscore.Lipo.Weighted>
-8.5951

> <Gold.Chemscore.Internal_Hbond.Weighted>
0.0000

> <Gold.Chemscore.DEClash.Weighted>
0.1087

> <Gold.Chemscore.DEInternal.Weighted>
1.2563

> <Gold.Chemscore.Rot.Weighted>
5.9157

> <Gold.Chemscore.Internal.Correction.Weighted>
   9.000000E+99

> <Gold.Protein.RotatedTorsions>
[ 6907 6896 6895 6894 ] final   22.48 input  -60.11 | X-H torsion
[ 7974 7965 7964 7962 ] final   59.19 input  175.53 | X-H torsion
[ 8008 7997 7996 7995 ] final   53.72 input   59.86 | X-H torsion
[ 10167 10162 10161 10158 ] final   81.02 input  -65.29 | X-H torsion
[ 10718 10713 10712 10709 ] final  174.39 input   66.30 | X-H torsion
[ 10763 10752 10751 10750 ] final  -15.54 input  -60.55 | X-H torsion
[ 11005 11000 10999 10996 ] final    6.56 input  -57.11 | X-H torsion

> <Gold.Protein.ActiveResidues>
 VAL166  LYS551  ARG553  GLY616  TRP617  ASP618  TYR619  PRO620  LYS621  CYS622 
 ASP623  PHE694  ASN695  SER759  ASP760  ASP761  ALA762  ILE779  LEU786  VAL792 
 PHE793  MET794  SER795  GLU796  ALA797  LYS798  CYS799  TRP800  GLU811  SER814 

> <Gold.Protein.RotatedAtoms>
  151.9278  135.0270  160.0526 H   0  0  0  0  0  0  0  0  0  0  0  0  # atno 6907 bound_to 6896
  152.2144  133.4931  159.5136 H   0  0  0  0  0  0  0  0  0  0  0  0  # atno 6908 bound_to 6896
  150.6984  134.1341  159.4123 H   0  0  0  0  0  0  0  0  0  0  0  0  # atno 6909 bound_to 6896
  145.9099  139.3646  143.0542 H   0  0  0  0  0  0  0  0  0  0  0  0  # atno 7974 bound_to 7965
  155.4730  140.3466  155.4328 H   0  0  0  0  0  0  0  0  0  0  0  0  # atno 8008 bound_to 7997
  156.1088  140.1455  156.9396 H   0  0  0  0  0  0  0  0  0  0  0  0  # atno 8009 bound_to 7997
  154.4742  140.0890  156.7200 H   0  0  0  0  0  0  0  0  0  0  0  0  # atno 8010 bound_to 7997
  139.9436  144.6073  150.8228 H   0  0  0  0  0  0  0  0  0  0  0  0  # atno 10167 bound_to 10162
  156.9502  131.0029  151.2950 H   0  0  0  0  0  0  0  0  0  0  0  0  # atno 10718 bound_to 10713
  153.5449  135.7012  153.5619 H   0  0  0  0  0  0  0  0  0  0  0  0  # atno 10763 bound_to 10752
  153.3568  135.3980  155.1688 H   0  0  0  0  0  0  0  0  0  0  0  0  # atno 10764 bound_to 10752
  154.8669  135.3779  154.4956 H   0  0  0  0  0  0  0  0  0  0  0  0  # atno 10765 bound_to 10752
  140.5581  134.0219  155.7961 H   0  0  0  0  0  0  0  0  0  0  0  0  # atno 11005 bound_to 11000
  145.8685  140.9434  143.0663 LP  0  0  0  0  0  0  0  0  0  0  0  0  # atno 17320 bound_to 7965
  144.6742  140.0623  143.7475 LP  0  0  0  0  0  0  0  0  0  0  0  0  # atno 17321 bound_to 7965
  140.7604  143.3150  151.2756 LP  0  0  0  0  0  0  0  0  0  0  0  0  # atno 17342 bound_to 10162
  139.6685  144.0063  152.2738 LP  0  0  0  0  0  0  0  0  0  0  0  0  # atno 17343 bound_to 10162
  157.5727  130.8321  149.8413 LP  0  0  0  0  0  0  0  0  0  0  0  0  # atno 17370 bound_to 10713
  156.0366  130.3750  150.1545 LP  0  0  0  0  0  0  0  0  0  0  0  0  # atno 17371 bound_to 10713
  141.1131  133.9584  157.2872 LP  0  0  0  0  0  0  0  0  0  0  0  0  # atno 17394 bound_to 11000
  139.9422  135.0189  156.8742 LP  0  0  0  0  0  0  0  0  0  0  0  0  # atno 17395 bound_to 11000

$$$$
