AV-unprocessed.smi:3217|AV-procd|sdf|12291|dock3
  -GOLD-   2272018133D 1   1.00000     0.00000
 Structure written by MMmdl.
 34 35  0  0  0  0  0  0  0  0  1 V2000
  143.8409  136.5184  151.9104 C   0  0  0  0  0  0  0  0  0  0  0  0
  144.9603  135.5785  152.3812 C   0  0  2  0  0  0  0  0  0  0  0  0
  146.1774  136.3620  152.5898 N   0  0  0  0  0  0  0  0  0  0  0  0
  146.2503  137.5604  153.1871 C   0  0  0  0  0  0  0  0  0  0  0  0
  145.2757  138.1509  153.6514 O   0  0  0  0  0  0  0  0  0  0  0  0
  147.5142  138.0174  153.1930 N   0  0  0  0  0  0  0  0  0  0  0  0
  148.0177  139.2484  153.6959 C   0  0  0  0  0  0  0  0  0  0  0  0
  147.2530  140.4321  153.8396 C   0  0  0  0  0  0  0  0  0  0  0  0
  147.8736  141.5831  154.3623 C   0  0  0  0  0  0  0  0  0  0  0  0
  149.2310  141.5084  154.7296 C   0  0  0  0  0  0  0  0  0  0  0  0
  149.9682  140.3844  154.6106 N   0  0  0  0  0  0  0  0  0  0  0  0
  149.3669  139.2851  154.1078 C   0  0  0  0  0  0  0  0  0  0  0  0
  145.2211  134.4406  151.3736 C   0  0  1  0  0  0  0  0  0  0  0  0
  146.1898  133.3596  151.8607 C   0  0  0  0  0  0  0  0  0  0  0  0
  145.7632  132.1674  151.0362 C   0  0  0  0  0  0  0  0  0  0  0  0
  144.2481  132.3376  151.0140 C   0  0  0  0  0  0  0  0  0  0  0  0
  144.0114  133.7413  151.0849 O   0  0  0  0  0  0  0  0  0  0  0  0
  142.9029  135.9785  151.7775 H   0  0  0  0  0  0  0  0  0  0  0  0
  144.0905  136.9908  150.9598 H   0  0  0  0  0  0  0  0  0  0  0  0
  143.6619  137.3099  152.6391 H   0  0  0  0  0  0  0  0  0  0  0  0
  144.6379  135.1297  153.3224 H   0  0  0  0  0  0  0  0  0  0  0  0
  147.0339  135.9593  152.2393 H   0  0  0  0  0  0  0  0  0  0  0  0
  148.1931  137.4371  152.7227 H   0  0  0  0  0  0  0  0  0  0  0  0
  146.2089  140.4824  153.5744 H   0  0  0  0  0  0  0  0  0  0  0  0
  147.3196  142.5024  154.4817 H   0  0  0  0  0  0  0  0  0  0  0  0
  149.7361  142.3727  155.1344 H   0  0  0  0  0  0  0  0  0  0  0  0
  149.9880  138.4048  154.0278 H   0  0  0  0  0  0  0  0  0  0  0  0
  145.5950  134.8499  150.4334 H   0  0  0  0  0  0  0  0  0  0  0  0
  147.2364  133.6273  151.7133 H   0  0  0  0  0  0  0  0  0  0  0  0
  146.0356  133.1527  152.9209 H   0  0  0  0  0  0  0  0  0  0  0  0
  146.1672  132.2453  150.0258 H   0  0  0  0  0  0  0  0  0  0  0  0
  146.0797  131.2145  151.4609 H   0  0  0  0  0  0  0  0  0  0  0  0
  143.7931  131.9002  150.1250 H   0  0  0  0  0  0  0  0  0  0  0  0
  143.7997  131.8672  151.8899 H   0  0  0  0  0  0  0  0  0  0  0  0
  1  2  1  0  0  0  0
  1 18  1  0  0  0  0
  1 19  1  0  0  0  0
  1 20  1  0  0  0  0
  2  3  1  0  0  0  0
  2 13  1  0  0  0  0
  2 21  1  0  0  0  0
  3  4  1  0  0  0  0
  3 22  1  0  0  0  0
  4  5  2  0  0  0  0
  4  6  1  0  0  0  0
  6  7  1  0  0  0  0
  6 23  1  0  0  0  0
  7 12  1  0  0  0  0
  7  8  2  0  0  0  0
  8  9  1  0  0  0  0
  8 24  1  0  0  0  0
  9 10  2  0  0  0  0
  9 25  1  0  0  0  0
 10 11  1  0  0  0  0
 10 26  1  0  0  0  0
 11 12  2  0  0  0  0
 12 27  1  0  0  0  0
 13 17  1  0  0  0  0
 13 14  1  0  0  0  0
 13 28  1  0  0  0  0
 14 15  1  0  0  0  0
 14 29  1  0  0  0  0
 14 30  1  0  0  0  0
 15 16  1  0  0  0  0
 15 31  1  0  0  0  0
 15 32  1  0  0  0  0
 16 17  1  0  0  0  0
 16 33  1  0  0  0  0
 16 34  1  0  0  0  0
M  END
> <s_m_source_file>
AV-unprocessed.smi

> <i_m_source_file_index>
3217

> <i_lp_mmshare_version>
43012

> <i_f3d_flags>
0

> <s_epik_input>
TzFbQ0gyXVtDSDJdW0NIMl1bQ0BIXTFbQ0BIXShbQ0gzXSlbTkhdQyg9TylbTkhdYzJbY0hdW2NIXVtjSF1uW2NIXTI=

> <s_epik_cmdline>
J2VwaWtfcHl0aG9uJywgJy1waCcsICc3LjAnLCAnLXRuJywgJzgnLCAnLW1hJywgJzIwMCcsICctbWV0YWxfYmluZGluZycsICctaW1hZScsICc8aW5maWxlLm1hZT4nLCAnLW9tYWUnLCAnPG91dGZpbGUubWFlPic=

> <r_epik_Ionization_Penalty>
0.00475451

> <r_epik_Ionization_Penalty_Charging>
0

> <r_epik_Ionization_Penalty_Neutral>
0.00475451

> <r_epik_State_Penalty>
0.00341814

> <r_epik_Charging_Adjusted_Penalty>
0.00341814

> <i_epik_Tot_Q>
0

> <i_epik_Tot_abs_Q>
0

> <r_epik_Metal_State_Penalty>
-0

> <b_epik_Metal_Only>
0

> <s_lp_Force_Field>
OPLS_2005

> <r_lp_Energy>
20.7141

> <b_lp_Chiralities_Consistent>
1

> <s_lp_Variant>
AV-unprocessed.smi:3217-3

> <Gold.Version>
5.8.1

> <Gold.Id.Protein>
6NUR|6NUR_protein|mol2

> <Gold.PLP.Fitness>
38.5596

> <Gold.PLP.PLP>
-27.5913

> <Gold.PLP.part.hbond>
-3.0000

> <Gold.PLP.part.metal>
0.0000

> <Gold.PLP.part.buried>
-2.6420

> <Gold.PLP.part.nonpolar>
-22.9855

> <Gold.PLP.part.repulsive>
0.4645

> <Gold.PLP.ligand.clash>
0.0000

> <Gold.PLP.ligand.torsion>
0.3766

> <Gold.PLP.Chemscore.Hbond>
2.9040

> <Gold.PLP.Chemscore.CHOScore>
1.0000

> <Gold.PLP.Chemscore.Metal>
0.0000

> <Gold.Chemscore.Hbonds>
donor molecule, donor type, donor heavy atom, donor atom, acceptor molecule, acceptor atom, score
      L1  H     3    22       P1  7948  0.96
      L1  H     6    23       P1  7948  1.00
      P1  H  7989  7998       L1    11  0.87
      L1  C    10    26       P1  8028  0.96

> <Gold.PLP.Chemscore.Internal.Correction>
0.0095

> <Gold.Rescore>
     Score         DG    S(hbond)    S(metal)    S(lipo)     H(rot)  DE(clash)    DE(int)     intcor
     15.32     -18.21       2.46        0.00      65.31       1.22       0.23       2.66       ----

> <Gold.Chemscore.Fitness>
15.3178

> <Gold.Chemscore.DG>
-18.2138

> <Gold.Chemscore.ZeroCoef>
-5.4800

> <Gold.Chemscore.Hbond>
2.4626

> <Gold.Chemscore.Metal>
0.0000

> <Gold.Chemscore.Lipo>
65.3099

> <Gold.Chemscore.Internal_Hbond>
0.0000

> <Gold.Chemscore.DEClash>
0.2319

> <Gold.Chemscore.DEInternal>
2.6641

> <Gold.Chemscore.Rot>
1.2236

> <Gold.Chemscore.Internal.Correction>
   9.000000E+99

> <Gold.Chemscore.Hbonds>
donor molecule, donor type, donor heavy atom, donor atom, acceptor molecule, acceptor atom, score
      L1  H     3    22       P1  7948  0.91
      L1  H     6    23       P1  7948  1.00
      P1  H  7989  7998       L1    11  0.35

> <Gold.Chemscore.Hbond.Weighted>
-8.2251

> <Gold.Chemscore.Metal.Weighted>
-0.0000

> <Gold.Chemscore.Lipo.Weighted>
-7.6413

> <Gold.Chemscore.Internal_Hbond.Weighted>
0.0000

> <Gold.Chemscore.DEClash.Weighted>
0.2319

> <Gold.Chemscore.DEInternal.Weighted>
2.6641

> <Gold.Chemscore.Rot.Weighted>
3.1325

> <Gold.Chemscore.Internal.Correction.Weighted>
   9.000000E+99

> <Gold.Protein.RotatedTorsions>
[ 6907 6896 6895 6894 ] final  -85.28 input  -60.11 | X-H torsion
[ 7974 7965 7964 7962 ] final -136.10 input  175.53 | X-H torsion
[ 8008 7997 7996 7995 ] final  -94.81 input   59.86 | X-H torsion
[ 10167 10162 10161 10158 ] final -105.03 input  -65.29 | X-H torsion
[ 10718 10713 10712 10709 ] final -160.40 input   66.30 | X-H torsion
[ 10763 10752 10751 10750 ] final  -20.13 input  -60.55 | X-H torsion
[ 11005 11000 10999 10996 ] final  137.78 input  -57.11 | X-H torsion

> <Gold.Protein.ActiveResidues>
 VAL166  LYS551  ARG553  GLY616  TRP617  ASP618  TYR619  PRO620  LYS621  CYS622 
 ASP623  PHE694  ASN695  SER759  ASP760  ASP761  ALA762  ILE779  LEU786  VAL792 
 PHE793  MET794  SER795  GLU796  ALA797  LYS798  CYS799  TRP800  GLU811  SER814 

> <Gold.Protein.RotatedAtoms>
  150.6871  134.3230  159.4794 H   0  0  0  0  0  0  0  0  0  0  0  0  # atno 6907 bound_to 6896
  152.1103  134.9276  160.0576 H   0  0  0  0  0  0  0  0  0  0  0  0  # atno 6908 bound_to 6896
  152.0522  133.3989  159.4418 H   0  0  0  0  0  0  0  0  0  0  0  0  # atno 6909 bound_to 6896
  144.8956  140.6702  143.5117 H   0  0  0  0  0  0  0  0  0  0  0  0  # atno 7974 bound_to 7965
  154.7532  140.0486  157.0911 H   0  0  0  0  0  0  0  0  0  0  0  0  # atno 8008 bound_to 7997
  155.0030  140.3127  155.4840 H   0  0  0  0  0  0  0  0  0  0  0  0  # atno 8009 bound_to 7997
  156.2889  140.2198  156.5141 H   0  0  0  0  0  0  0  0  0  0  0  0  # atno 8010 bound_to 7997
  140.2030  143.3804  152.1114 H   0  0  0  0  0  0  0  0  0  0  0  0  # atno 10167 bound_to 10162
  156.5816  130.8732  151.2866 H   0  0  0  0  0  0  0  0  0  0  0  0  # atno 10718 bound_to 10713
  153.6155  135.6994  153.5330 H   0  0  0  0  0  0  0  0  0  0  0  0  # atno 10763 bound_to 10752
  153.2981  135.4137  155.1227 H   0  0  0  0  0  0  0  0  0  0  0  0  # atno 10764 bound_to 10752
  154.8554  135.3642  154.5695 H   0  0  0  0  0  0  0  0  0  0  0  0  # atno 10765 bound_to 10752
  140.0137  134.9427  157.0332 H   0  0  0  0  0  0  0  0  0  0  0  0  # atno 11005 bound_to 11000
  145.3705  139.1659  143.4334 LP  0  0  0  0  0  0  0  0  0  0  0  0  # atno 17320 bound_to 7965
  146.3079  140.3777  142.8680 LP  0  0  0  0  0  0  0  0  0  0  0  0  # atno 17321 bound_to 7965
  139.5210  144.7040  151.5410 LP  0  0  0  0  0  0  0  0  0  0  0  0  # atno 17342 bound_to 10162
  140.6377  143.8951  150.6663 LP  0  0  0  0  0  0  0  0  0  0  0  0  # atno 17343 bound_to 10162
  157.7325  130.9716  150.1931 LP  0  0  0  0  0  0  0  0  0  0  0  0  # atno 17370 bound_to 10713
  156.2626  130.3712  149.8114 LP  0  0  0  0  0  0  0  0  0  0  0  0  # atno 17371 bound_to 10713
  140.4508  134.1584  155.7181 LP  0  0  0  0  0  0  0  0  0  0  0  0  # atno 17394 bound_to 11000
  141.1729  133.8573  157.1515 LP  0  0  0  0  0  0  0  0  0  0  0  0  # atno 17395 bound_to 11000

$$$$
