AV-unprocessed.smi:21|AV-procd|sdf|139|dock8
  -GOLD-   2262015343D 1   1.00000     0.00000
 Structure written by MMmdl.
 62 65  0  0  0  0  0  0  0  0  2 V2000
  143.3288  134.3829  152.5138 C   0  0  0  0  0  0  0  0  0  0  0  0
  143.8281  133.2060  151.8982 O   0  0  0  0  0  0  0  0  0  0  0  0
  144.9573  133.4314  151.0640 C   0  0  1  0  0  0  0  0  0  0  0  0
  146.1351  133.8240  151.9468 C   0  0  0  0  0  0  0  0  0  0  0  0
  146.6979  132.4803  152.4199 C   0  0  2  0  0  0  0  0  0  0  0  0
  148.1762  132.5387  152.8591 C   0  0  0  0  0  0  0  0  0  0  0  0
  148.4519  131.6998  154.0270 N   0  0  0  0  0  0  0  0  0  0  0  0
  147.5041  130.6409  154.3497 C   0  0  0  0  0  0  0  0  0  0  0  0
  149.3068  132.1545  154.9848 C   0  0  0  0  0  0  0  0  0  0  0  0
  149.7123  131.2789  155.9422 N   0  0  0  0  0  0  0  0  0  0  0  0
  150.5575  131.6600  156.9026 C   0  0  0  0  0  0  0  0  0  0  0  0
  151.1231  132.8521  157.0871 N   0  0  0  0  0  0  0  0  0  0  0  0
  150.7353  133.7397  156.1287 C   0  0  0  0  0  0  0  0  0  0  0  0
  149.8309  133.4819  155.0568 C   0  0  0  0  0  0  0  0  0  0  0  0
  149.6845  134.6336  154.2906 N   0  0  0  0  0  0  0  0  0  0  0  0
  150.4466  135.5149  154.8760 C   0  0  0  0  0  0  0  0  0  0  0  0
  151.1349  135.0571  155.9755 N   0  0  0  0  0  0  0  0  0  0  0  0
  152.0634  135.8232  156.7956 C   0  0  0  0  0  0  0  0  0  0  0  0
  151.4535  137.1065  157.4265 C   0  0  2  0  0  0  0  0  0  0  0  0
  149.9406  136.9614  157.7183 C   0  0  0  0  0  0  0  0  0  0  0  0
  149.6844  135.8268  158.5201 O   0  0  0  0  0  0  0  0  0  0  0  0
  151.7436  138.3716  156.5770 C   0  0  2  0  0  0  0  0  0  0  0  0
  151.2708  139.6742  157.2018 C   0  0  0  0  0  0  0  0  0  0  0  0
  151.2729  140.6238  156.0096 C   0  0  0  0  0  0  0  0  0  0  0  0
  150.9561  139.8193  154.8793 O   0  0  0  0  0  0  0  0  0  0  0  0
  151.0048  138.4416  155.2358 C   0  0  0  0  0  0  0  0  0  0  0  0
  146.5065  131.5687  151.2684 N   0  3  1  0  0  0  0  0  0  0  0  0
  146.3049  130.1516  151.6436 C   0  0  0  0  0  0  0  0  0  0  0  0
  145.4245  132.1183  150.4157 C   0  0  0  0  0  0  0  0  0  0  0  0
  144.7463  134.2103  150.3291 H   0  0  0  0  0  0  0  0  0  0  0  0
  146.0781  132.1238  153.2449 H   0  0  0  0  0  0  0  0  0  0  0  0
  142.4569  134.1346  153.1188 H   0  0  0  0  0  0  0  0  0  0  0  0
  143.0240  135.1284  151.7790 H   0  0  0  0  0  0  0  0  0  0  0  0
  144.0761  134.8275  153.1722 H   0  0  0  0  0  0  0  0  0  0  0  0
  146.8775  134.3499  151.3445 H   0  0  0  0  0  0  0  0  0  0  0  0
  145.8482  134.4813  152.7684 H   0  0  0  0  0  0  0  0  0  0  0  0
  148.8080  132.1809  152.0458 H   0  0  0  0  0  0  0  0  0  0  0  0
  148.4825  133.5723  153.0217 H   0  0  0  0  0  0  0  0  0  0  0  0
  147.9904  129.8366  154.9030 H   0  0  0  0  0  0  0  0  0  0  0  0
  147.0882  130.2081  153.4396 H   0  0  0  0  0  0  0  0  0  0  0  0
  146.6772  131.0294  154.9447 H   0  0  0  0  0  0  0  0  0  0  0  0
  150.8210  130.9008  157.6244 H   0  0  0  0  0  0  0  0  0  0  0  0
  150.5395  136.5271  154.5094 H   0  0  0  0  0  0  0  0  0  0  0  0
  152.4288  135.1652  157.5846 H   0  0  0  0  0  0  0  0  0  0  0  0
  152.9401  136.0636  156.1947 H   0  0  0  0  0  0  0  0  0  0  0  0
  151.9488  137.2502  158.3881 H   0  0  0  0  0  0  0  0  0  0  0  0
  149.5654  137.8258  158.2652 H   0  0  0  0  0  0  0  0  0  0  0  0
  149.3606  136.8985  156.7976 H   0  0  0  0  0  0  0  0  0  0  0  0
  148.9770  136.0311  159.1127 H   0  0  0  0  0  0  0  0  0  0  0  0
  152.8129  138.4426  156.3736 H   0  0  0  0  0  0  0  0  0  0  0  0
  150.2562  139.5649  157.5878 H   0  0  0  0  0  0  0  0  0  0  0  0
  151.9024  140.0300  158.0144 H   0  0  0  0  0  0  0  0  0  0  0  0
  150.5647  141.4440  156.1286 H   0  0  0  0  0  0  0  0  0  0  0  0
  152.2665  141.0503  155.8658 H   0  0  0  0  0  0  0  0  0  0  0  0
  151.4952  137.8577  154.4566 H   0  0  0  0  0  0  0  0  0  0  0  0
  149.9812  138.0782  155.3380 H   0  0  0  0  0  0  0  0  0  0  0  0
  145.3933  130.0263  152.2297 H   0  0  0  0  0  0  0  0  0  0  0  0
  147.1446  129.7832  152.2333 H   0  0  0  0  0  0  0  0  0  0  0  0
  146.2255  129.5301  150.7513 H   0  0  0  0  0  0  0  0  0  0  0  0
  144.6053  131.4125  150.2719 H   0  0  0  0  0  0  0  0  0  0  0  0
  145.8505  132.3187  149.4321 H   0  0  0  0  0  0  0  0  0  0  0  0
  147.3516  131.6185  150.7172 H   0  0  0  0  0  0  0  0  0  0  0  0
  1  2  1  0  0  0  0
  1 32  1  0  0  0  0
  1 33  1  0  0  0  0
  1 34  1  0  0  0  0
  2  3  1  0  0  0  0
  3 30  1  0  0  0  0
  3 29  1  0  0  0  0
  3  4  1  0  0  0  0
  4  5  1  0  0  0  0
  4 35  1  0  0  0  0
  4 36  1  0  0  0  0
  5 31  1  0  0  0  0
  5  6  1  0  0  0  0
  5 27  1  0  0  0  0
  6  7  1  0  0  0  0
  6 37  1  0  0  0  0
  6 38  1  0  0  0  0
  7  8  1  0  0  0  0
  7  9  1  0  0  0  0
  8 39  1  0  0  0  0
  8 40  1  0  0  0  0
  8 41  1  0  0  0  0
  9 14  1  0  0  0  0
  9 10  2  0  0  0  0
 10 11  1  0  0  0  0
 11 12  2  0  0  0  0
 11 42  1  0  0  0  0
 12 13  1  0  0  0  0
 13 17  1  0  0  0  0
 13 14  2  0  0  0  0
 14 15  1  0  0  0  0
 15 16  2  0  0  0  0
 16 17  1  0  0  0  0
 16 43  1  0  0  0  0
 17 18  1  0  0  0  0
 18 19  1  0  0  0  0
 18 44  1  0  0  0  0
 18 45  1  0  0  0  0
 19 20  1  0  0  0  0
 19 22  1  0  0  0  0
 19 46  1  0  0  0  0
 20 21  1  0  0  0  0
 20 47  1  0  0  0  0
 20 48  1  0  0  0  0
 21 49  1  0  0  0  0
 22 26  1  0  0  0  0
 22 23  1  0  0  0  0
 22 50  1  0  0  0  0
 23 24  1  0  0  0  0
 23 51  1  0  0  0  0
 23 52  1  0  0  0  0
 24 25  1  0  0  0  0
 24 53  1  0  0  0  0
 24 54  1  0  0  0  0
 25 26  1  0  0  0  0
 26 55  1  0  0  0  0
 26 56  1  0  0  0  0
 27 28  1  0  0  0  0
 27 29  1  0  0  0  0
 27 62  1  0  0  0  0
 28 57  1  0  0  0  0
 28 58  1  0  0  0  0
 28 59  1  0  0  0  0
 29 60  1  0  0  0  0
 29 61  1  0  0  0  0
M  CHG  1  27   1
M  END
> <s_m_source_file>
AV-unprocessed.smi

> <i_m_source_file_index>
21

> <i_lp_mmshare_version>
43012

> <i_f3d_flags>
0

> <s_epik_input>
W0NIM11PW0NASF0xW0NIMl1bQ0BIXShOKFtDSDNdKVtDSDJdMSlbQ0gyXU4oW0NIM10pYyhuW2NIXW4yKWMoYzIzKW5bY0hdbjNbQ0gyXVtDQEhdKFtDSDJdW09IXSlbQ0BASF00W0NIMl1bQ0gyXU9bQ0gyXTQ=

> <s_epik_cmdline>
J2VwaWtfcHl0aG9uJywgJy1waCcsICc3LjAnLCAnLXRuJywgJzgnLCAnLW1hJywgJzIwMCcsICctbWV0YWxfYmluZGluZycsICctaW1hZScsICc8aW5maWxlLm1hZT4nLCAnLW9tYWUnLCAnPG91dGZpbGUubWFlPic=

> <r_lp_tautomer_probability>
1

> <r_epik_Ionization_Penalty>
0.0157465

> <r_epik_Ionization_Penalty_Charging>
0.015354

> <r_epik_Ionization_Penalty_Neutral>
0.000392529

> <r_epik_State_Penalty>
0.0120612

> <r_epik_Charging_Adjusted_Penalty>
0.0274152

> <i_epik_Tot_Q>
1

> <i_epik_Tot_abs_Q>
1

> <r_epik_Metal_State_Penalty>
0.0121253

> <b_epik_Metal_Only>
0

> <s_lp_Force_Field>
OPLS_2005

> <r_lp_Energy>
57.752

> <b_lp_Chiralities_Consistent>
1

> <s_lp_Variant>
AV-unprocessed.smi:21-19

> <Gold.Version>
5.8.1

> <Gold.Id.Protein>
6NUR|6NUR_protein|mol2

> <Gold.PLP.Fitness>
51.4176

> <Gold.PLP.PLP>
-42.1727

> <Gold.PLP.part.hbond>
-4.0000

> <Gold.PLP.part.metal>
0.0000

> <Gold.PLP.part.buried>
-7.0661

> <Gold.PLP.part.nonpolar>
-32.8279

> <Gold.PLP.part.repulsive>
1.2590

> <Gold.PLP.ligand.clash>
0.0000

> <Gold.PLP.ligand.torsion>
1.5289

> <Gold.PLP.Chemscore.Hbond>
3.9200

> <Gold.PLP.Chemscore.CHOScore>
0.0000

> <Gold.PLP.Chemscore.Metal>
0.0000

> <Gold.Chemscore.Hbonds>
donor molecule, donor type, donor heavy atom, donor atom, acceptor molecule, acceptor atom, score
      L1  H    27    62       P1 10747  0.96
      P1  H  6896  6908       L1    12  0.56
      P1  H  6896  6909       L1    21  0.99
      P1  H  7989  7998       L1    25  1.00

> <Gold.PLP.Chemscore.Internal.Correction>
0.5427

> <Gold.Rescore>
     Score         DG    S(hbond)    S(metal)    S(lipo)     H(rot)  DE(clash)    DE(int)     intcor
     16.25     -19.49       3.54        0.00      85.94       3.08       0.41       2.84       ----

> <Gold.Chemscore.Fitness>
16.2454

> <Gold.Chemscore.DG>
-19.4948

> <Gold.Chemscore.ZeroCoef>
-5.4800

> <Gold.Chemscore.Hbond>
3.5433

> <Gold.Chemscore.Metal>
0.0000

> <Gold.Chemscore.Lipo>
85.9361

> <Gold.Chemscore.Internal_Hbond>
0.0000

> <Gold.Chemscore.DEClash>
0.4074

> <Gold.Chemscore.DEInternal>
2.8420

> <Gold.Chemscore.Rot>
3.0758

> <Gold.Chemscore.Internal.Correction>
   9.000000E+99

> <Gold.Chemscore.Hbonds>
donor molecule, donor type, donor heavy atom, donor atom, acceptor molecule, acceptor atom, score
      L1  H    27    62       P1 10747  0.92
      P1  H  6896  6908       L1    12  0.46
      P1  H  6896  6909       L1    21  0.24
      P1  H  7989  7998       L1    25  0.30

> <Gold.Chemscore.Hbond.Weighted>
-11.8345

> <Gold.Chemscore.Metal.Weighted>
-0.0000

> <Gold.Chemscore.Lipo.Weighted>
-10.0545

> <Gold.Chemscore.Internal_Hbond.Weighted>
0.0000

> <Gold.Chemscore.DEClash.Weighted>
0.4074

> <Gold.Chemscore.DEInternal.Weighted>
2.8420

> <Gold.Chemscore.Rot.Weighted>
7.8741

> <Gold.Chemscore.Internal.Correction.Weighted>
   9.000000E+99

> <Gold.Protein.RotatedTorsions>
[ 6907 6896 6895 6894 ] final   76.49 input  -60.11 | X-H torsion
[ 7974 7965 7964 7962 ] final   63.01 input  175.53 | X-H torsion
[ 8008 7997 7996 7995 ] final  -20.65 input   59.86 | X-H torsion
[ 10167 10162 10161 10158 ] final  -35.12 input  -65.29 | X-H torsion
[ 10718 10713 10712 10709 ] final   48.15 input   66.30 | X-H torsion
[ 10763 10752 10751 10750 ] final  161.43 input  -60.55 | X-H torsion
[ 11005 11000 10999 10996 ] final   71.43 input  -57.11 | X-H torsion

> <Gold.Protein.ActiveResidues>
 VAL166  LYS551  ARG553  GLY616  TRP617  ASP618  TYR619  PRO620  LYS621  CYS622 
 ASP623  PHE694  ASN695  SER759  ASP760  ASP761  ALA762  ILE779  LEU786  VAL792 
 PHE793  MET794  SER795  GLU796  ALA797  LYS798  CYS799  TRP800  GLU811  SER814 

> <Gold.Protein.RotatedAtoms>
  152.5075  134.3960  159.9400 H   0  0  0  0  0  0  0  0  0  0  0  0  # atno 6907 bound_to 6896
  151.3922  133.3779  159.2730 H   0  0  0  0  0  0  0  0  0  0  0  0  # atno 6908 bound_to 6896
  150.9424  134.8853  159.7679 H   0  0  0  0  0  0  0  0  0  0  0  0  # atno 6909 bound_to 6896
  145.8668  139.3351  143.0786 H   0  0  0  0  0  0  0  0  0  0  0  0  # atno 7974 bound_to 7965
  154.4756  140.2056  155.9887 H   0  0  0  0  0  0  0  0  0  0  0  0  # atno 8008 bound_to 7997
  156.1083  140.3233  155.8007 H   0  0  0  0  0  0  0  0  0  0  0  0  # atno 8009 bound_to 7997
  155.4678  140.0529  157.2974 H   0  0  0  0  0  0  0  0  0  0  0  0  # atno 8010 bound_to 7997
  140.7172  143.3500  151.2176 H   0  0  0  0  0  0  0  0  0  0  0  0  # atno 10167 bound_to 10162
  157.4658  130.8224  149.7934 H   0  0  0  0  0  0  0  0  0  0  0  0  # atno 10718 bound_to 10713
  154.2629  135.2768  155.2770 H   0  0  0  0  0  0  0  0  0  0  0  0  # atno 10763 bound_to 10752
  154.5368  135.5714  153.6809 H   0  0  0  0  0  0  0  0  0  0  0  0  # atno 10764 bound_to 10752
  152.9959  135.6241  154.2780 H   0  0  0  0  0  0  0  0  0  0  0  0  # atno 10765 bound_to 10752
  139.9544  134.7170  156.0787 H   0  0  0  0  0  0  0  0  0  0  0  0  # atno 11005 bound_to 11000
  145.9183  140.9132  143.0418 LP  0  0  0  0  0  0  0  0  0  0  0  0  # atno 17320 bound_to 7965
  144.6726  140.1254  143.7447 LP  0  0  0  0  0  0  0  0  0  0  0  0  # atno 17321 bound_to 7965
  139.7028  143.9505  152.2913 LP  0  0  0  0  0  0  0  0  0  0  0  0  # atno 17342 bound_to 10162
  139.9203  144.6803  150.8468 LP  0  0  0  0  0  0  0  0  0  0  0  0  # atno 17343 bound_to 10162
  156.0050  130.3860  150.2466 LP  0  0  0  0  0  0  0  0  0  0  0  0  # atno 17370 bound_to 10713
  157.0646  131.0099  151.3211 LP  0  0  0  0  0  0  0  0  0  0  0  0  # atno 17371 bound_to 10713
  141.1213  133.6612  156.3222 LP  0  0  0  0  0  0  0  0  0  0  0  0  # atno 17394 bound_to 11000
  140.5644  134.5903  157.5442 LP  0  0  0  0  0  0  0  0  0  0  0  0  # atno 17395 bound_to 11000

$$$$
