AV-unprocessed.smi:703|AV-procd|sdf|3437|dock6
  -GOLD-   22720 0423D 1   1.00000     0.00000
 Structure written by MMmdl.
 37 38  0  0  0  0  0  0  0  0  3 V2000
  146.7333  133.2309  150.8449 C   0  0  0  0  0  0  0  0  0  0  0  0
  146.2896  133.6948  152.2389 C   0  0  0  0  0  0  0  0  0  0  0  0
  147.4199  134.2237  153.0393 N   0  3  2  0  0  0  0  0  0  0  0  0
  148.5558  133.2929  153.2169 C   0  0  0  0  0  0  0  0  0  0  0  0
  149.2465  133.7461  154.5059 C   0  0  2  0  0  0  0  0  0  0  0  0
  150.1675  132.6705  155.1144 C   0  0  0  0  0  0  0  0  0  0  0  0
  148.0616  134.1789  155.3844 C   0  0  1  0  0  0  0  0  0  0  0  0
  148.4622  135.1779  156.3626 N   0  5  0  0  0  0  0  0  0  0  0  0
  149.0130  134.7022  157.8131 S   0  0  0  0  0  0  0  0  0  0  0  0
  149.7324  133.4189  157.7520 O   0  0  0  0  0  0  0  0  0  0  0  0
  149.6647  135.8026  158.5408 O   0  0  0  0  0  0  0  0  0  0  0  0
  147.4259  134.3771  158.6996 C   0  0  0  0  0  0  0  0  0  0  0  0
  147.3226  135.2383  159.9290 C   0  0  0  0  0  0  0  0  0  0  0  0
  147.1697  134.8307  161.2836 C   0  0  0  0  0  0  0  0  0  0  0  0
  147.1339  136.0097  161.9703 C   0  0  0  0  0  0  0  0  0  0  0  0
  147.2459  137.0593  161.1180 O   0  0  0  0  0  0  0  0  0  0  0  0
  147.3616  136.5573  159.8169 N   0  0  0  0  0  0  0  0  0  0  0  0
  147.0375  134.7347  154.3775 C   0  0  0  0  0  0  0  0  0  0  0  0
  145.8758  132.9011  150.2580 H   0  0  0  0  0  0  0  0  0  0  0  0
  147.4307  132.3949  150.9021 H   0  0  0  0  0  0  0  0  0  0  0  0
  147.2192  134.0384  150.2961 H   0  0  0  0  0  0  0  0  0  0  0  0
  145.5455  134.4840  152.1247 H   0  0  0  0  0  0  0  0  0  0  0  0
  145.8030  132.8789  152.7757 H   0  0  0  0  0  0  0  0  0  0  0  0
  148.1937  132.2647  153.3045 H   0  0  0  0  0  0  0  0  0  0  0  0
  149.2297  133.3289  152.3601 H   0  0  0  0  0  0  0  0  0  0  0  0
  149.8500  134.6242  154.2657 H   0  0  0  0  0  0  0  0  0  0  0  0
  149.6297  131.7516  155.3559 H   0  0  0  0  0  0  0  0  0  0  0  0
  150.6533  133.0224  156.0264 H   0  0  0  0  0  0  0  0  0  0  0  0
  150.9586  132.4059  154.4124 H   0  0  0  0  0  0  0  0  0  0  0  0
  147.6392  133.2875  155.8505 H   0  0  0  0  0  0  0  0  0  0  0  0
  146.6125  134.5949  158.0070 H   0  0  0  0  0  0  0  0  0  0  0  0
  147.3697  133.3165  158.9434 H   0  0  0  0  0  0  0  0  0  0  0  0
  147.1041  133.8305  161.6852 H   0  0  0  0  0  0  0  0  0  0  0  0
  147.0367  136.2564  163.0170 H   0  0  0  0  0  0  0  0  0  0  0  0
  147.0517  135.8252  154.3332 H   0  0  0  0  0  0  0  0  0  0  0  0
  146.0270  134.4344  154.6598 H   0  0  0  0  0  0  0  0  0  0  0  0
  147.7860  135.0243  152.5445 H   0  0  0  0  0  0  0  0  0  0  0  0
  1  2  1  0  0  0  0
  1 19  1  0  0  0  0
  1 20  1  0  0  0  0
  1 21  1  0  0  0  0
  2  3  1  0  0  0  0
  2 22  1  0  0  0  0
  2 23  1  0  0  0  0
  3 18  1  0  0  0  0
  3  4  1  0  0  0  0
  3 37  1  0  0  0  0
  4  5  1  0  0  0  0
  4 24  1  0  0  0  0
  4 25  1  0  0  0  0
  5  6  1  0  0  0  0
  5  7  1  0  0  0  0
  5 26  1  0  0  0  0
  6 27  1  0  0  0  0
  6 28  1  0  0  0  0
  6 29  1  0  0  0  0
  7  8  1  0  0  0  0
  7 18  1  0  0  0  0
  7 30  1  0  0  0  0
  8  9  1  0  0  0  0
  9 10  2  0  0  0  0
  9 11  2  0  0  0  0
  9 12  1  0  0  0  0
 12 13  1  0  0  0  0
 12 31  1  0  0  0  0
 12 32  1  0  0  0  0
 13 17  2  0  0  0  0
 13 14  1  0  0  0  0
 14 15  2  0  0  0  0
 14 33  1  0  0  0  0
 15 16  1  0  0  0  0
 15 34  1  0  0  0  0
 16 17  1  0  0  0  0
 18 35  1  0  0  0  0
 18 36  1  0  0  0  0
M  CHG  1   3   1
M  CHG  1   8  -1
M  END
> <s_m_source_file>
AV-unprocessed.smi

> <i_m_source_file_index>
703

> <i_lp_mmshare_version>
43012

> <i_f3d_flags>
0

> <s_epik_input>
W0NIM11bQ0gyXU4xW0NIMl1bQ0BASF0oW0NIM10pW0NASF0oW0NIMl0xKVtOSF1TKD1PKSg9TylbQ0gyXWMyW2NIXVtjSF1vbjI=

> <s_epik_cmdline>
J2VwaWtfcHl0aG9uJywgJy1waCcsICc3LjAnLCAnLXRuJywgJzgnLCAnLW1hJywgJzIwMCcsICctbWV0YWxfYmluZGluZycsICctaW1hZScsICc8aW5maWxlLm1hZT4nLCAnLW9tYWUnLCAnPG91dGZpbGUubWFlPic=

> <r_epik_Ionization_Penalty>
3.62494

> <r_epik_Ionization_Penalty_Charging>
3.62494

> <r_epik_Ionization_Penalty_Neutral>
2.0321e-10

> <r_epik_State_Penalty>
3.62558

> <r_epik_Charging_Adjusted_Penalty>
7.25052

> <i_epik_Tot_Q>
0

> <i_epik_Tot_abs_Q>
2

> <r_epik_Metal_State_Penalty>
0.530836

> <b_epik_Metal_Only>
1

> <s_lp_Force_Field>
OPLS_2005

> <r_lp_Energy>
15.6249

> <b_lp_Chiralities_Consistent>
1

> <s_lp_Variant>
AV-unprocessed.smi:703-12

> <Gold.Version>
5.8.1

> <Gold.Id.Protein>
6NUR|6NUR_protein|mol2

> <Gold.PLP.Fitness>
42.2632

> <Gold.PLP.PLP>
-26.9391

> <Gold.PLP.part.hbond>
-5.0000

> <Gold.PLP.part.metal>
0.0000

> <Gold.PLP.part.buried>
-2.3875

> <Gold.PLP.part.nonpolar>
-18.9567

> <Gold.PLP.part.repulsive>
0.0190

> <Gold.PLP.ligand.clash>
0.0000

> <Gold.PLP.ligand.torsion>
0.8713

> <Gold.PLP.Chemscore.Hbond>
5.3440

> <Gold.PLP.Chemscore.CHOScore>
0.0000

> <Gold.PLP.Chemscore.Metal>
0.0000

> <Gold.Chemscore.Hbonds>
donor molecule, donor type, donor heavy atom, donor atom, acceptor molecule, acceptor atom, score
      L1  H     3    37       P1  7948  2.00
      P1  H  6896  6907       L1    10  0.72
      P1  H  6896  6908       L1    11  0.72
      P1  H  6931  6943       L1    16  0.31
      P1  H  6934  6947       L1    16  1.00

> <Gold.PLP.Chemscore.Internal.Correction>
1.0347

> <Gold.Rescore>
     Score         DG    S(hbond)    S(metal)    S(lipo)     H(rot)  DE(clash)    DE(int)     intcor
     14.72     -18.52       3.22        0.00      55.17       1.63       0.00       3.80       ----

> <Gold.Chemscore.Fitness>
14.7203

> <Gold.Chemscore.DG>
-18.5186

> <Gold.Chemscore.ZeroCoef>
-5.4800

> <Gold.Chemscore.Hbond>
3.2234

> <Gold.Chemscore.Metal>
0.0000

> <Gold.Chemscore.Lipo>
55.1714

> <Gold.Chemscore.Internal_Hbond>
0.0000

> <Gold.Chemscore.DEClash>
0.0000

> <Gold.Chemscore.DEInternal>
3.7982

> <Gold.Chemscore.Rot>
1.6338

> <Gold.Chemscore.Internal.Correction>
   9.000000E+99

> <Gold.Chemscore.Hbonds>
donor molecule, donor type, donor heavy atom, donor atom, acceptor molecule, acceptor atom, score
      L1  H     3    37       P1  7948  0.96
      P1  H  6896  6907       L1    10  0.41
      P1  H  6896  6908       L1    11  0.47
      P1  H  6931  6943       L1    16  0.15
      P1  H  6934  6947       L1    16  0.53

> <Gold.Chemscore.Hbond.Weighted>
-10.7661

> <Gold.Chemscore.Metal.Weighted>
-0.0000

> <Gold.Chemscore.Lipo.Weighted>
-6.4551

> <Gold.Chemscore.Internal_Hbond.Weighted>
0.0000

> <Gold.Chemscore.DEClash.Weighted>
0.0000

> <Gold.Chemscore.DEInternal.Weighted>
3.7982

> <Gold.Chemscore.Rot.Weighted>
4.1825

> <Gold.Chemscore.Internal.Correction.Weighted>
   9.000000E+99

> <Gold.Protein.RotatedTorsions>
[ 6907 6896 6895 6894 ] final -151.70 input  -60.11 | X-H torsion
[ 7974 7965 7964 7962 ] final   -6.81 input  175.53 | X-H torsion
[ 8008 7997 7996 7995 ] final -103.43 input   59.86 | X-H torsion
[ 10167 10162 10161 10158 ] final  147.44 input  -65.29 | X-H torsion
[ 10718 10713 10712 10709 ] final  -56.64 input   66.30 | X-H torsion
[ 10763 10752 10751 10750 ] final   28.80 input  -60.55 | X-H torsion
[ 11005 11000 10999 10996 ] final   17.34 input  -57.11 | X-H torsion

> <Gold.Protein.ActiveResidues>
 VAL166  LYS551  ARG553  GLY616  TRP617  ASP618  TYR619  PRO620  LYS621  CYS622 
 ASP623  PHE694  ASN695  SER759  ASP760  ASP761  ALA762  ILE779  LEU786  VAL792 
 PHE793  MET794  SER795  GLU796  ALA797  LYS798  CYS799  TRP800  GLU811  SER814 

> <Gold.Protein.RotatedAtoms>
  151.2169  133.4524  159.2599 H   0  0  0  0  0  0  0  0  0  0  0  0  # atno 6907 bound_to 6896
  151.0922  134.9923  159.8418 H   0  0  0  0  0  0  0  0  0  0  0  0  # atno 6908 bound_to 6896
  152.5435  134.2102  159.8800 H   0  0  0  0  0  0  0  0  0  0  0  0  # atno 6909 bound_to 6896
  146.2322  140.2226  142.8338 H   0  0  0  0  0  0  0  0  0  0  0  0  # atno 7974 bound_to 7965
  154.8708  140.0423  157.1723 H   0  0  0  0  0  0  0  0  0  0  0  0  # atno 8008 bound_to 7997
  154.8741  140.2963  155.5443 H   0  0  0  0  0  0  0  0  0  0  0  0  # atno 8009 bound_to 7997
  156.2999  140.2423  156.3734 H   0  0  0  0  0  0  0  0  0  0  0  0  # atno 8010 bound_to 7997
  139.4890  144.5755  151.6973 H   0  0  0  0  0  0  0  0  0  0  0  0  # atno 10167 bound_to 10162
  156.1272  130.4162  150.0333 H   0  0  0  0  0  0  0  0  0  0  0  0  # atno 10718 bound_to 10713
  153.0469  135.6504  154.0793 H   0  0  0  0  0  0  0  0  0  0  0  0  # atno 10763 bound_to 10752
  154.0488  135.2897  155.3345 H   0  0  0  0  0  0  0  0  0  0  0  0  # atno 10764 bound_to 10752
  154.6733  135.5348  153.8233 H   0  0  0  0  0  0  0  0  0  0  0  0  # atno 10765 bound_to 10752
  140.4370  134.1361  155.7686 H   0  0  0  0  0  0  0  0  0  0  0  0  # atno 11005 bound_to 11000
  144.9620  140.8284  143.5508 LP  0  0  0  0  0  0  0  0  0  0  0  0  # atno 17320 bound_to 7965
  145.2198  139.2164  143.5099 LP  0  0  0  0  0  0  0  0  0  0  0  0  # atno 17321 bound_to 7965
  140.5350  144.0670  150.6067 LP  0  0  0  0  0  0  0  0  0  0  0  0  # atno 17342 bound_to 10162
  140.3673  143.2874  152.0318 LP  0  0  0  0  0  0  0  0  0  0  0  0  # atno 17343 bound_to 10162
  156.8255  130.9374  151.3639 LP  0  0  0  0  0  0  0  0  0  0  0  0  # atno 17370 bound_to 10713
  157.6453  130.8839  149.9527 LP  0  0  0  0  0  0  0  0  0  0  0  0  # atno 17371 bound_to 10713
  141.1721  133.8587  157.1536 LP  0  0  0  0  0  0  0  0  0  0  0  0  # atno 17394 bound_to 11000
  140.0095  134.9994  157.0365 LP  0  0  0  0  0  0  0  0  0  0  0  0  # atno 17395 bound_to 11000

$$$$
