AV-unprocessed.smi:167|AV-procd|sdf|1394|dock1
  -GOLD-   2262019133D 1   1.00000     0.00000
 Structure written by MMmdl.
 51 55  0  0  0  0  0  0  0  0  1 V2000
  147.6318  138.6779  151.9282 O   0  0  0  0  0  0  0  0  0  0  0  0
  146.9520  138.9442  153.1364 C   0  0  0  0  0  0  0  0  0  0  0  0
  147.9136  139.5769  154.1591 C   0  0  2  0  0  0  0  0  0  0  0  0
  147.2713  139.9441  155.5095 C   0  0  0  0  0  0  0  0  0  0  0  0
  147.7526  141.4002  155.6928 C   0  0  2  0  0  0  0  0  0  0  0  0
  146.9181  142.3135  154.7804 C   0  0  0  0  0  0  0  0  0  0  0  0
  147.5230  141.9920  153.4062 C   0  0  0  0  0  0  0  0  0  0  0  0
  148.5736  140.9261  153.7747 C   0  0  1  0  0  0  0  0  0  0  0  0
  149.0610  141.4303  155.0506 N   0  0  0  0  0  0  0  0  0  0  0  0
  150.1424  140.8675  155.6590 C   0  0  0  0  0  0  0  0  0  0  0  0
  150.8176  139.8826  155.0082 N   0  0  0  0  0  0  0  0  0  0  0  0
  151.8856  139.3065  155.5660 C   0  0  0  0  0  0  0  0  0  0  0  0
  152.4384  139.5502  156.7545 N   0  0  0  0  0  0  0  0  0  0  0  0
  151.7564  140.5216  157.4252 C   0  0  0  0  0  0  0  0  0  0  0  0
  150.6100  141.2273  156.9576 C   0  0  0  0  0  0  0  0  0  0  0  0
  150.2020  142.1393  157.9245 N   0  0  0  0  0  0  0  0  0  0  0  0
  151.0640  141.9957  158.8929 C   0  0  0  0  0  0  0  0  0  0  0  0
  152.0181  141.0260  158.6867 N   0  0  0  0  0  0  0  0  0  0  0  0
  153.1002  140.6744  159.5590 C   0  0  0  0  0  0  0  0  0  0  0  0
  154.2043  141.6849  159.8824 C   0  0  0  0  0  0  0  0  0  0  0  0
  155.2179  140.5220  159.9969 C   0  0  0  0  0  0  0  0  0  0  0  0
  156.6283  140.7524  159.4186 C   0  0  0  0  0  0  0  0  0  0  0  0
  157.2618  139.5490  159.0334 O   0  0  0  0  0  0  0  0  0  0  0  0
  155.3974  139.9376  161.4110 C   0  0  0  0  0  0  0  0  0  0  0  0
  155.9338  140.8931  162.3033 O   0  0  0  0  0  0  0  0  0  0  0  0
  154.2253  139.7354  159.1094 C   0  0  0  0  0  0  0  0  0  0  0  0
  148.1429  137.8906  152.0380 H   0  0  0  0  0  0  0  0  0  0  0  0
  146.0866  139.5760  152.9403 H   0  0  0  0  0  0  0  0  0  0  0  0
  146.5652  138.0025  153.5266 H   0  0  0  0  0  0  0  0  0  0  0  0
  148.7093  138.8541  154.3487 H   0  0  0  0  0  0  0  0  0  0  0  0
  146.1834  139.8649  155.5072 H   0  0  0  0  0  0  0  0  0  0  0  0
  147.6506  139.2977  156.3020 H   0  0  0  0  0  0  0  0  0  0  0  0
  147.7401  141.7328  156.7315 H   0  0  0  0  0  0  0  0  0  0  0  0
  145.8493  142.1038  154.8350 H   0  0  0  0  0  0  0  0  0  0  0  0
  147.0723  143.3639  155.0307 H   0  0  0  0  0  0  0  0  0  0  0  0
  146.7877  141.6595  152.6753 H   0  0  0  0  0  0  0  0  0  0  0  0
  148.0108  142.8773  152.9961 H   0  0  0  0  0  0  0  0  0  0  0  0
  149.3261  140.8247  152.9951 H   0  0  0  0  0  0  0  0  0  0  0  0
  152.3645  138.5387  154.9761 H   0  0  0  0  0  0  0  0  0  0  0  0
  151.0192  142.5940  159.7913 H   0  0  0  0  0  0  0  0  0  0  0  0
  152.6364  140.3078  160.4762 H   0  0  0  0  0  0  0  0  0  0  0  0
  154.4027  142.3581  159.0467 H   0  0  0  0  0  0  0  0  0  0  0  0
  154.0389  142.2497  160.8002 H   0  0  0  0  0  0  0  0  0  0  0  0
  156.5921  141.3978  158.5408 H   0  0  0  0  0  0  0  0  0  0  0  0
  157.2700  141.2489  160.1472 H   0  0  0  0  0  0  0  0  0  0  0  0
  158.0181  139.7628  158.5085 H   0  0  0  0  0  0  0  0  0  0  0  0
  154.4486  139.5934  161.8232 H   0  0  0  0  0  0  0  0  0  0  0  0
  156.0549  139.0676  161.3947 H   0  0  0  0  0  0  0  0  0  0  0  0
  155.2183  141.3546  162.7139 H   0  0  0  0  0  0  0  0  0  0  0  0
  154.0807  138.6933  159.3962 H   0  0  0  0  0  0  0  0  0  0  0  0
  154.4327  139.8165  158.0414 H   0  0  0  0  0  0  0  0  0  0  0  0
  1  2  1  0  0  0  0
  1 27  1  0  0  0  0
  2  3  1  0  0  0  0
  2 28  1  0  0  0  0
  2 29  1  0  0  0  0
  3  8  1  0  0  0  0
  3  4  1  0  0  0  0
  3 30  1  0  0  0  0
  4  5  1  0  0  0  0
  4 31  1  0  0  0  0
  4 32  1  0  0  0  0
  5  9  1  0  0  0  0
  5  6  1  0  0  0  0
  5 33  1  0  0  0  0
  6  7  1  0  0  0  0
  6 34  1  0  0  0  0
  6 35  1  0  0  0  0
  7  8  1  0  0  0  0
  7 36  1  0  0  0  0
  7 37  1  0  0  0  0
  8  9  1  0  0  0  0
  8 38  1  0  0  0  0
  9 10  1  0  0  0  0
 10 15  1  0  0  0  0
 10 11  2  0  0  0  0
 11 12  1  0  0  0  0
 12 13  2  0  0  0  0
 12 39  1  0  0  0  0
 13 14  1  0  0  0  0
 14 18  1  0  0  0  0
 14 15  2  0  0  0  0
 15 16  1  0  0  0  0
 16 17  2  0  0  0  0
 17 18  1  0  0  0  0
 17 40  1  0  0  0  0
 18 19  1  0  0  0  0
 19 26  1  0  0  0  0
 19 20  1  0  0  0  0
 19 41  1  0  0  0  0
 20 21  1  0  0  0  0
 20 42  1  0  0  0  0
 20 43  1  0  0  0  0
 21 22  1  0  0  0  0
 21 24  1  0  0  0  0
 21 26  1  0  0  0  0
 22 23  1  0  0  0  0
 22 44  1  0  0  0  0
 22 45  1  0  0  0  0
 23 46  1  0  0  0  0
 24 25  1  0  0  0  0
 24 47  1  0  0  0  0
 24 48  1  0  0  0  0
 25 49  1  0  0  0  0
 26 50  1  0  0  0  0
 26 51  1  0  0  0  0
M  END
> <s_m_source_file>
AV-unprocessed.smi

> <i_m_source_file_index>
167

> <i_lp_mmshare_version>
43012

> <i_f3d_flags>
0

> <s_epik_input>
W09IXVtDSDJdW0NASF0oW0NIMl1bQ0BASF0xMilbQ0BIXShbQ0gyXVtDSDJdMSlOMmMobltjSF1uMyljKGMzNCluW2NIXW40W0NIXShbQ0gyXTUpW0NIMl1DNShbQ0gyXVtPSF0pW0NIMl1bT0hd

> <s_epik_cmdline>
J2VwaWtfcHl0aG9uJywgJy1waCcsICc3LjAnLCAnLXRuJywgJzgnLCAnLW1hJywgJzIwMCcsICctbWV0YWxfYmluZGluZycsICctaW1hZScsICc8aW5maWxlLm1hZT4nLCAnLW9tYWUnLCAnPG91dGZpbGUubWFlPic=

> <r_lp_tautomer_probability>
1

> <r_epik_Ionization_Penalty>
0.0047903

> <r_epik_Ionization_Penalty_Charging>
0

> <r_epik_Ionization_Penalty_Neutral>
0.0047903

> <r_epik_State_Penalty>
0.00341021

> <r_epik_Charging_Adjusted_Penalty>
0.00341021

> <i_epik_Tot_Q>
0

> <i_epik_Tot_abs_Q>
0

> <r_epik_Metal_State_Penalty>
-0

> <b_epik_Metal_Only>
0

> <s_lp_Force_Field>
OPLS_2005

> <r_lp_Energy>
89.3367

> <b_lp_Chiralities_Consistent>
1

> <s_lp_Variant>
AV-unprocessed.smi:167-3

> <Gold.Version>
5.8.1

> <Gold.Id.Protein>
6NUR|6NUR_protein|mol2

> <Gold.PLP.Fitness>
49.5501

> <Gold.PLP.PLP>
-40.9224

> <Gold.PLP.part.hbond>
-4.9983

> <Gold.PLP.part.metal>
0.0000

> <Gold.PLP.part.buried>
-2.1442

> <Gold.PLP.part.nonpolar>
-33.1410

> <Gold.PLP.part.repulsive>
0.2703

> <Gold.PLP.ligand.clash>
0.0000

> <Gold.PLP.ligand.torsion>
0.4525

> <Gold.PLP.Chemscore.Hbond>
3.0000

> <Gold.PLP.Chemscore.CHOScore>
0.0000

> <Gold.PLP.Chemscore.Metal>
0.0000

> <Gold.Chemscore.Hbonds>
donor molecule, donor type, donor heavy atom, donor atom, acceptor molecule, acceptor atom, score
      L1  H     1    27       P1  7948  1.00
      P1  H  7989  7998       L1    11  1.00
      P1  H  7997  8009       L1    13  1.00

> <Gold.PLP.Chemscore.Internal.Correction>
0.5327

> <Gold.Rescore>
     Score         DG    S(hbond)    S(metal)    S(lipo)     H(rot)  DE(clash)    DE(int)     intcor
      5.44      -9.63       1.48        0.00      85.13       4.20       1.59       2.60       ----

> <Gold.Chemscore.Fitness>
5.4435

> <Gold.Chemscore.DG>
-9.6329

> <Gold.Chemscore.ZeroCoef>
-5.4800

> <Gold.Chemscore.Hbond>
1.4834

> <Gold.Chemscore.Metal>
0.0000

> <Gold.Chemscore.Lipo>
85.1272

> <Gold.Chemscore.Internal_Hbond>
0.0000

> <Gold.Chemscore.DEClash>
1.5885

> <Gold.Chemscore.DEInternal>
2.6009

> <Gold.Chemscore.Rot>
4.2038

> <Gold.Chemscore.Internal.Correction>
   9.000000E+99

> <Gold.Chemscore.Hbonds>
donor molecule, donor type, donor heavy atom, donor atom, acceptor molecule, acceptor atom, score
      L1  H     1    27       P1  7948  1.00
      P1  H  7989  7998       L1    11  0.12
      P1  H  7997  8009       L1    13  0.57

> <Gold.Chemscore.Hbond.Weighted>
-4.9547

> <Gold.Chemscore.Metal.Weighted>
-0.0000

> <Gold.Chemscore.Lipo.Weighted>
-9.9599

> <Gold.Chemscore.Internal_Hbond.Weighted>
0.0000

> <Gold.Chemscore.DEClash.Weighted>
1.5885

> <Gold.Chemscore.DEInternal.Weighted>
2.6009

> <Gold.Chemscore.Rot.Weighted>
10.7617

> <Gold.Chemscore.Internal.Correction.Weighted>
   9.000000E+99

> <Gold.Protein.RotatedTorsions>
[ 6907 6896 6895 6894 ] final -101.84 input  -60.11 | X-H torsion
[ 7974 7965 7964 7962 ] final  -97.06 input  175.53 | X-H torsion
[ 8008 7997 7996 7995 ] final  179.85 input   59.86 | X-H torsion
[ 10167 10162 10161 10158 ] final    4.03 input  -65.29 | X-H torsion
[ 10718 10713 10712 10709 ] final -167.48 input   66.30 | X-H torsion
[ 10763 10752 10751 10750 ] final   47.88 input  -60.55 | X-H torsion
[ 11005 11000 10999 10996 ] final   -6.80 input  -57.11 | X-H torsion

> <Gold.Protein.ActiveResidues>
 VAL166  LYS551  ARG553  GLY616  TRP617  ASP618  TYR619  PRO620  LYS621  CYS622 
 ASP623  PHE694  ASN695  SER759  ASP760  ASP761  ALA762  ILE779  LEU786  VAL792 
 PHE793  MET794  SER795  GLU796  ALA797  LYS798  CYS799  TRP800  GLU811  SER814 

> <Gold.Protein.RotatedAtoms>
  150.7171  134.0673  159.3851 H   0  0  0  0  0  0  0  0  0  0  0  0  # atno 6907 bound_to 6896
  151.8655  135.0506  160.0483 H   0  0  0  0  0  0  0  0  0  0  0  0  # atno 6908 bound_to 6896
  152.2684  133.5324  159.5461 H   0  0  0  0  0  0  0  0  0  0  0  0  # atno 6909 bound_to 6896
  145.3387  140.9455  143.2620 H   0  0  0  0  0  0  0  0  0  0  0  0  # atno 7974 bound_to 7965
  156.0387  140.1298  157.0180 H   0  0  0  0  0  0  0  0  0  0  0  0  # atno 8008 bound_to 7997
  154.4381  140.1035  156.6275 H   0  0  0  0  0  0  0  0  0  0  0  0  # atno 8009 bound_to 7997
  155.5700  140.3466  155.4515 H   0  0  0  0  0  0  0  0  0  0  0  0  # atno 8010 bound_to 7997
  140.6556  143.7436  150.7648 H   0  0  0  0  0  0  0  0  0  0  0  0  # atno 10167 bound_to 10162
  156.6830  130.9129  151.3059 H   0  0  0  0  0  0  0  0  0  0  0  0  # atno 10718 bound_to 10713
  152.9796  135.5962  154.3835 H   0  0  0  0  0  0  0  0  0  0  0  0  # atno 10763 bound_to 10752
  154.3497  135.2767  155.2380 H   0  0  0  0  0  0  0  0  0  0  0  0  # atno 10764 bound_to 10752
  154.4425  135.6009  153.6193 H   0  0  0  0  0  0  0  0  0  0  0  0  # atno 10765 bound_to 10752
  140.7058  133.8950  155.8716 H   0  0  0  0  0  0  0  0  0  0  0  0  # atno 11005 bound_to 11000
  144.8807  139.4908  143.6724 LP  0  0  0  0  0  0  0  0  0  0  0  0  # atno 17320 bound_to 7965
  146.3016  139.7445  142.9087 LP  0  0  0  0  0  0  0  0  0  0  0  0  # atno 17321 bound_to 7965
  140.1095  143.4712  152.2378 LP  0  0  0  0  0  0  0  0  0  0  0  0  # atno 17342 bound_to 10162
  139.5778  144.7496  151.3719 LP  0  0  0  0  0  0  0  0  0  0  0  0  # atno 17343 bound_to 10162
  157.7037  130.9361  150.0863 LP  0  0  0  0  0  0  0  0  0  0  0  0  # atno 17370 bound_to 10713
  156.1854  130.3652  149.8980 LP  0  0  0  0  0  0  0  0  0  0  0  0  # atno 17371 bound_to 10713
  141.0125  134.1000  157.4206 LP  0  0  0  0  0  0  0  0  0  0  0  0  # atno 17394 bound_to 11000
  139.8884  135.0097  156.6620 LP  0  0  0  0  0  0  0  0  0  0  0  0  # atno 17395 bound_to 11000

$$$$
