AV-unprocessed.smi:876|AV-procd|sdf|4021|dock4
  -GOLD-   22720 1513D 1   1.00000     0.00000
 Structure written by MMmdl.
 41 42  0  0  0  0  0  0  0  0  2 V2000
  154.3329  141.2351  161.2697 C   0  0  0  0  0  0  0  0  0  0  0  0
  153.6410  140.3724  160.3207 N   0  0  0  0  0  0  0  0  0  0  0  0
  153.8295  138.9269  160.3686 C   0  0  0  0  0  0  0  0  0  0  0  0
  152.7096  140.9286  159.4172 C   0  0  0  0  0  0  0  0  0  0  0  0
  152.4415  142.3174  159.3358 C   0  0  0  0  0  0  0  0  0  0  0  0
  151.4970  142.7998  158.4063 C   0  0  0  0  0  0  0  0  0  0  0  0
  150.8287  141.8888  157.5522 C   0  0  0  0  0  0  0  0  0  0  0  0
  149.8495  142.2645  156.5931 N   0  0  0  0  0  0  0  0  0  0  0  0
  149.0520  141.4727  155.8554 C   0  0  0  0  0  0  0  0  0  0  0  0
  149.0263  140.2432  155.9056 O   0  0  0  0  0  0  0  0  0  0  0  0
  148.2563  142.1961  155.0554 N   0  0  0  0  0  0  0  0  0  0  0  0
  147.2628  141.6399  154.1439 C   0  0  2  0  0  0  0  0  0  0  0  0
  146.2233  140.8643  154.9055 C   0  0  0  0  0  0  0  0  0  0  0  0
  146.1419  139.5941  154.5165 C   0  0  0  0  0  0  0  0  0  0  0  0
  147.1273  139.2497  153.4289 C   0  0  1  0  0  0  0  0  0  0  0  0
  146.4510  138.6760  152.1717 C   0  0  0  0  0  0  0  0  0  0  0  0
  147.3990  138.0316  151.3463 O   0  0  0  0  0  0  0  0  0  0  0  0
  147.8604  140.5909  153.1692 C   0  0  0  0  0  0  0  0  0  0  0  0
  151.1210  140.5166  157.6832 C   0  0  0  0  0  0  0  0  0  0  0  0
  152.0328  140.0981  158.5869 N   0  3  0  0  0  0  0  0  0  0  0  0
  146.7627  142.4400  153.5951 H   0  0  0  0  0  0  0  0  0  0  0  0
  147.8337  138.5218  153.8308 H   0  0  0  0  0  0  0  0  0  0  0  0
  153.6177  141.7583  161.9053 H   0  0  0  0  0  0  0  0  0  0  0  0
  154.9392  141.9738  160.7443 H   0  0  0  0  0  0  0  0  0  0  0  0
  154.9958  140.6609  161.9173 H   0  0  0  0  0  0  0  0  0  0  0  0
  154.1253  138.5445  159.3910 H   0  0  0  0  0  0  0  0  0  0  0  0
  152.9070  138.4305  160.6716 H   0  0  0  0  0  0  0  0  0  0  0  0
  154.6075  138.6516  161.0809 H   0  0  0  0  0  0  0  0  0  0  0  0
  152.9436  143.0266  159.9769 H   0  0  0  0  0  0  0  0  0  0  0  0
  151.2968  143.8596  158.3787 H   0  0  0  0  0  0  0  0  0  0  0  0
  149.6963  143.2578  156.4968 H   0  0  0  0  0  0  0  0  0  0  0  0
  148.3365  143.2022  155.0810 H   0  0  0  0  0  0  0  0  0  0  0  0
  145.6130  141.3184  155.6724 H   0  0  0  0  0  0  0  0  0  0  0  0
  145.4627  138.8621  154.9284 H   0  0  0  0  0  0  0  0  0  0  0  0
  145.6671  137.9667  152.4405 H   0  0  0  0  0  0  0  0  0  0  0  0
  145.9810  139.4751  151.5976 H   0  0  0  0  0  0  0  0  0  0  0  0
  147.8722  137.4014  151.8680 H   0  0  0  0  0  0  0  0  0  0  0  0
  147.7249  140.9235  152.1390 H   0  0  0  0  0  0  0  0  0  0  0  0
  148.9344  140.4655  153.3150 H   0  0  0  0  0  0  0  0  0  0  0  0
  150.6598  139.7403  157.0897 H   0  0  0  0  0  0  0  0  0  0  0  0
  152.2226  139.0976  158.6479 H   0  0  0  0  0  0  0  0  0  0  0  0
  1  2  1  0  0  0  0
  1 23  1  0  0  0  0
  1 24  1  0  0  0  0
  1 25  1  0  0  0  0
  2  3  1  0  0  0  0
  2  4  1  0  0  0  0
  3 26  1  0  0  0  0
  3 27  1  0  0  0  0
  3 28  1  0  0  0  0
  4 20  1  0  0  0  0
  4  5  2  0  0  0  0
  5  6  1  0  0  0  0
  5 29  1  0  0  0  0
  6  7  2  0  0  0  0
  6 30  1  0  0  0  0
  7  8  1  0  0  0  0
  7 19  1  0  0  0  0
  8  9  1  0  0  0  0
  8 31  1  0  0  0  0
  9 10  2  0  0  0  0
  9 11  1  0  0  0  0
 11 12  1  0  0  0  0
 11 32  1  0  0  0  0
 12 21  1  0  0  0  0
 12 18  1  0  0  0  0
 12 13  1  0  0  0  0
 13 14  2  0  0  0  0
 13 33  1  0  0  0  0
 14 15  1  0  0  0  0
 14 34  1  0  0  0  0
 15 22  1  0  0  0  0
 15 16  1  0  0  0  0
 15 18  1  0  0  0  0
 16 17  1  0  0  0  0
 16 35  1  0  0  0  0
 16 36  1  0  0  0  0
 17 37  1  0  0  0  0
 18 38  1  0  0  0  0
 18 39  1  0  0  0  0
 19 20  2  0  0  0  0
 19 40  1  0  0  0  0
 20 41  1  0  0  0  0
M  CHG  1  20   1
M  END
> <s_m_source_file>
AV-unprocessed.smi

> <i_m_source_file_index>
876

> <i_lp_mmshare_version>
43012

> <i_f3d_flags>
0

> <s_epik_input>
W0NIM11OKFtDSDNdKWMxW2NIXVtjSF1jKFtjSF1uMSlbTkhdQyg9TylbTkhdW0NAQEhdMltDSF09W0NIXVtDQEBIXShbQ0gyXTIpW0NIMl1bT0hd

> <s_epik_cmdline>
J2VwaWtfcHl0aG9uJywgJy1waCcsICc3LjAnLCAnLXRuJywgJzgnLCAnLW1hJywgJzIwMCcsICctbWV0YWxfYmluZGluZycsICctaW1hZScsICc8aW5maWxlLm1hZT4nLCAnLW9tYWUnLCAnPG91dGZpbGUubWFlPic=

> <r_lp_tautomer_probability>
0.999994

> <r_epik_Ionization_Penalty>
0.257994

> <r_epik_Ionization_Penalty_Charging>
0.257974

> <r_epik_Ionization_Penalty_Neutral>
1.95938e-05

> <r_epik_State_Penalty>
0.249586

> <r_epik_Charging_Adjusted_Penalty>
0.50756

> <i_epik_Tot_Q>
1

> <i_epik_Tot_abs_Q>
1

> <r_epik_Metal_State_Penalty>
0.538508

> <b_epik_Metal_Only>
0

> <s_lp_Force_Field>
OPLS_2005

> <r_lp_Energy>
26.2592

> <b_lp_Chiralities_Consistent>
1

> <s_lp_Variant>
AV-unprocessed.smi:876-3

> <Gold.Version>
5.8.1

> <Gold.Id.Protein>
6NUR|6NUR_protein|mol2

> <Gold.PLP.Fitness>
47.7193

> <Gold.PLP.PLP>
-36.3338

> <Gold.PLP.part.hbond>
-4.6473

> <Gold.PLP.part.metal>
0.0000

> <Gold.PLP.part.buried>
-1.3226

> <Gold.PLP.part.nonpolar>
-31.6698

> <Gold.PLP.part.repulsive>
0.3623

> <Gold.PLP.ligand.clash>
0.0000

> <Gold.PLP.ligand.torsion>
0.1836

> <Gold.PLP.Chemscore.Hbond>
3.9100

> <Gold.PLP.Chemscore.CHOScore>
0.0000

> <Gold.PLP.Chemscore.Metal>
0.0000

> <Gold.Chemscore.Hbonds>
donor molecule, donor type, donor heavy atom, donor atom, acceptor molecule, acceptor atom, score
      L1  H     8    31       P1  8028  1.00
      L1  H    11    32       P1  8028  1.00
      L1  H    17    37       P1  7948  0.88
      P1  H  7954  7966       L1    17  1.00

> <Gold.PLP.Chemscore.Internal.Correction>
0.0228

> <Gold.Rescore>
     Score         DG    S(hbond)    S(metal)    S(lipo)     H(rot)  DE(clash)    DE(int)     intcor
     17.38     -21.76       3.35        0.00      83.37       1.82       1.43       2.94       ----

> <Gold.Chemscore.Fitness>
17.3824

> <Gold.Chemscore.DG>
-21.7582

> <Gold.Chemscore.ZeroCoef>
-5.4800

> <Gold.Chemscore.Hbond>
3.3479

> <Gold.Chemscore.Metal>
0.0000

> <Gold.Chemscore.Lipo>
83.3747

> <Gold.Chemscore.Internal_Hbond>
0.0000

> <Gold.Chemscore.DEClash>
1.4322

> <Gold.Chemscore.DEInternal>
2.9436

> <Gold.Chemscore.Rot>
1.8197

> <Gold.Chemscore.Internal.Correction>
   9.000000E+99

> <Gold.Chemscore.Hbonds>
donor molecule, donor type, donor heavy atom, donor atom, acceptor molecule, acceptor atom, score
      L1  H     8    31       P1  8028  0.96
      L1  H    11    32       P1  8028  0.98
      L1  H    17    37       P1  7948  0.84
      P1  H  7954  7966       L1    17  0.25

> <Gold.Chemscore.Hbond.Weighted>
-11.1819

> <Gold.Chemscore.Metal.Weighted>
-0.0000

> <Gold.Chemscore.Lipo.Weighted>
-9.7548

> <Gold.Chemscore.Internal_Hbond.Weighted>
0.0000

> <Gold.Chemscore.DEClash.Weighted>
1.4322

> <Gold.Chemscore.DEInternal.Weighted>
2.9436

> <Gold.Chemscore.Rot.Weighted>
4.6585

> <Gold.Chemscore.Internal.Correction.Weighted>
   9.000000E+99

> <Gold.Protein.RotatedTorsions>
[ 6907 6896 6895 6894 ] final -123.69 input  -60.11 | X-H torsion
[ 7974 7965 7964 7962 ] final  104.76 input  175.53 | X-H torsion
[ 8008 7997 7996 7995 ] final -113.60 input   59.86 | X-H torsion
[ 10167 10162 10161 10158 ] final  126.20 input  -65.29 | X-H torsion
[ 10718 10713 10712 10709 ] final -150.86 input   66.30 | X-H torsion
[ 10763 10752 10751 10750 ] final -152.31 input  -60.55 | X-H torsion
[ 11005 11000 10999 10996 ] final   23.64 input  -57.11 | X-H torsion

> <Gold.Protein.ActiveResidues>
 VAL166  LYS551  ARG553  GLY616  TRP617  ASP618  TYR619  PRO620  LYS621  CYS622 
 ASP623  PHE694  ASN695  SER759  ASP760  ASP761  ALA762  ILE779  LEU786  VAL792 
 PHE793  MET794  SER795  GLU796  ALA797  LYS798  CYS799  TRP800  GLU811  SER814 

> <Gold.Protein.RotatedAtoms>
  150.8696  133.7525  159.2965 H   0  0  0  0  0  0  0  0  0  0  0  0  # atno 6907 bound_to 6896
  151.5142  135.1064  159.9871 H   0  0  0  0  0  0  0  0  0  0  0  0  # atno 6908 bound_to 6896
  152.4685  133.7932  159.6969 H   0  0  0  0  0  0  0  0  0  0  0  0  # atno 6909 bound_to 6896
  145.3286  139.2493  143.3673 H   0  0  0  0  0  0  0  0  0  0  0  0  # atno 7974 bound_to 7965
  155.0232  140.0393  157.2445 H   0  0  0  0  0  0  0  0  0  0  0  0  # atno 8008 bound_to 7997
  154.7360  140.2740  155.6391 H   0  0  0  0  0  0  0  0  0  0  0  0  # atno 8009 bound_to 7997
  156.2853  140.2675  156.2074 H   0  0  0  0  0  0  0  0  0  0  0  0  # atno 8010 bound_to 7997
  139.5644  144.6902  151.3952 H   0  0  0  0  0  0  0  0  0  0  0  0  # atno 10167 bound_to 10162
  156.4517  130.8171  151.2402 H   0  0  0  0  0  0  0  0  0  0  0  0  # atno 10718 bound_to 10713
  154.8002  135.3239  154.7569 H   0  0  0  0  0  0  0  0  0  0  0  0  # atno 10763 bound_to 10752
  153.8238  135.6885  153.4828 H   0  0  0  0  0  0  0  0  0  0  0  0  # atno 10764 bound_to 10752
  153.1715  135.4621  154.9851 H   0  0  0  0  0  0  0  0  0  0  0  0  # atno 10765 bound_to 10752
  140.3674  134.2059  155.7668 H   0  0  0  0  0  0  0  0  0  0  0  0  # atno 11005 bound_to 11000
  146.3054  140.3859  142.8689 LP  0  0  0  0  0  0  0  0  0  0  0  0  # atno 17320 bound_to 7965
  144.8882  140.7489  143.5943 LP  0  0  0  0  0  0  0  0  0  0  0  0  # atno 17321 bound_to 7965
  140.6926  143.7824  150.7279 LP  0  0  0  0  0  0  0  0  0  0  0  0  # atno 17342 bound_to 10162
  140.1311  143.4525  152.2253 LP  0  0  0  0  0  0  0  0  0  0  0  0  # atno 17343 bound_to 10162
  157.7502  131.0136  150.3429 LP  0  0  0  0  0  0  0  0  0  0  0  0  # atno 17370 bound_to 10713
  156.3809  130.3880  149.7102 LP  0  0  0  0  0  0  0  0  0  0  0  0  # atno 17371 bound_to 10713
  141.1965  133.8081  157.0668 LP  0  0  0  0  0  0  0  0  0  0  0  0  # atno 17394 bound_to 11000
  140.0578  134.9771  157.1252 LP  0  0  0  0  0  0  0  0  0  0  0  0  # atno 17395 bound_to 11000

$$$$
