AV-unprocessed.smi:227|AV-procd|sdf|1728|dock10
  -GOLD-   2262020213D 1   1.00000     0.00000
 Structure written by MMmdl.
 54 58  0  0  0  0  0  0  0  0  1 V2000
  149.0396  126.2554  155.0976 O   0  0  0  0  0  0  0  0  0  0  0  0
  149.0772  125.7273  153.7876 C   0  0  0  0  0  0  0  0  0  0  0  0
  148.4026  126.6809  152.7682 C   0  0  1  0  0  0  0  0  0  0  0  0
  148.8929  128.1470  152.9605 C   0  0  0  0  0  0  0  0  0  0  0  0
  147.8636  129.1549  152.7501 N   0  0  0  0  0  0  0  0  0  0  0  0
  146.6360  128.9666  152.1586 C   0  0  0  0  0  0  0  0  0  0  0  0
  145.8836  130.0294  152.0907 N   0  0  0  0  0  0  0  0  0  0  0  0
  146.6508  131.0372  152.6644 C   0  0  0  0  0  0  0  0  0  0  0  0
  146.4532  132.4278  152.9204 C   0  0  0  0  0  0  0  0  0  0  0  0
  145.3188  133.1233  152.6260 N   0  0  0  0  0  0  0  0  0  0  0  0
  145.3514  134.3156  151.7906 C   0  0  2  0  0  0  0  0  0  0  0  0
  143.9063  134.8324  151.8955 C   0  0  0  0  0  0  0  0  0  0  0  0
  143.1211  133.5162  151.9792 C   0  0  0  0  0  0  0  0  0  0  0  0
  144.2549  132.4804  151.8637 C   0  0  1  0  0  0  0  0  0  0  0  0
  144.8343  132.4276  150.4258 C   0  0  1  0  0  0  0  0  0  0  0  0
  143.8246  132.1841  149.2896 C   0  0  0  0  0  0  0  0  0  0  0  0
  142.6926  131.5065  149.7918 O   0  0  0  0  0  0  0  0  0  0  0  0
  145.5829  133.7732  150.3653 C   0  0  0  0  0  0  0  0  0  0  0  0
  147.4870  133.1056  153.4870 N   0  0  0  0  0  0  0  0  0  0  0  0
  148.6209  132.4773  153.8058 C   0  0  0  0  0  0  0  0  0  0  0  0
  148.9329  131.1918  153.6452 N   0  0  0  0  0  0  0  0  0  0  0  0
  147.9097  130.5024  153.0659 C   0  0  0  0  0  0  0  0  0  0  0  0
  148.5760  126.1780  151.2998 C   0  0  2  0  0  0  0  0  0  0  0  0
  148.0302  124.7728  151.0574 C   0  0  0  0  0  0  0  0  0  0  0  0
  149.1956  123.8496  151.4197 C   0  0  0  0  0  0  0  0  0  0  0  0
  150.3609  124.6656  151.4073 O   0  0  0  0  0  0  0  0  0  0  0  0
  150.0265  125.9313  150.8604 C   0  0  0  0  0  0  0  0  0  0  0  0
  148.1850  126.6310  155.2458 H   0  0  0  0  0  0  0  0  0  0  0  0
  150.1095  125.5159  153.5098 H   0  0  0  0  0  0  0  0  0  0  0  0
  148.5647  124.7694  153.8403 H   0  0  0  0  0  0  0  0  0  0  0  0
  147.3352  126.6749  152.9928 H   0  0  0  0  0  0  0  0  0  0  0  0
  149.3162  128.2919  153.9530 H   0  0  0  0  0  0  0  0  0  0  0  0
  149.7172  128.3661  152.2814 H   0  0  0  0  0  0  0  0  0  0  0  0
  146.3097  128.0075  151.7830 H   0  0  0  0  0  0  0  0  0  0  0  0
  146.0656  135.0820  152.0851 H   0  0  0  0  0  0  0  0  0  0  0  0
  143.7661  135.4197  152.8037 H   0  0  0  0  0  0  0  0  0  0  0  0
  143.6149  135.4488  151.0443 H   0  0  0  0  0  0  0  0  0  0  0  0
  142.6294  133.4332  152.9492 H   0  0  0  0  0  0  0  0  0  0  0  0
  142.3514  133.4214  151.2145 H   0  0  0  0  0  0  0  0  0  0  0  0
  143.9531  131.5018  152.2385 H   0  0  0  0  0  0  0  0  0  0  0  0
  145.5682  131.6202  150.3953 H   0  0  0  0  0  0  0  0  0  0  0  0
  143.4995  133.1322  148.8604 H   0  0  0  0  0  0  0  0  0  0  0  0
  144.2565  131.5893  148.4851 H   0  0  0  0  0  0  0  0  0  0  0  0
  141.9254  132.0251  149.6042 H   0  0  0  0  0  0  0  0  0  0  0  0
  145.2029  134.4490  149.5981 H   0  0  0  0  0  0  0  0  0  0  0  0
  146.6443  133.6115  150.1725 H   0  0  0  0  0  0  0  0  0  0  0  0
  149.3863  133.0922  154.2559 H   0  0  0  0  0  0  0  0  0  0  0  0
  148.1087  126.8931  150.6219 H   0  0  0  0  0  0  0  0  0  0  0  0
  147.1231  124.5247  151.6042 H   0  0  0  0  0  0  0  0  0  0  0  0
  147.7992  124.6592  149.9972 H   0  0  0  0  0  0  0  0  0  0  0  0
  149.0707  123.4262  152.4168 H   0  0  0  0  0  0  0  0  0  0  0  0
  149.2889  123.0269  150.7104 H   0  0  0  0  0  0  0  0  0  0  0  0
  150.0756  125.8561  149.7727 H   0  0  0  0  0  0  0  0  0  0  0  0
  150.7420  126.6973  151.1497 H   0  0  0  0  0  0  0  0  0  0  0  0
  1  2  1  0  0  0  0
  1 28  1  0  0  0  0
  2  3  1  0  0  0  0
  2 29  1  0  0  0  0
  2 30  1  0  0  0  0
  3  4  1  0  0  0  0
  3 23  1  0  0  0  0
  3 31  1  0  0  0  0
  4  5  1  0  0  0  0
  4 32  1  0  0  0  0
  4 33  1  0  0  0  0
  5 22  1  0  0  0  0
  5  6  1  0  0  0  0
  6  7  2  0  0  0  0
  6 34  1  0  0  0  0
  7  8  1  0  0  0  0
  8 22  2  0  0  0  0
  8  9  1  0  0  0  0
  9 10  1  0  0  0  0
  9 19  2  0  0  0  0
 10 14  1  0  0  0  0
 10 11  1  0  0  0  0
 11 18  1  0  0  0  0
 11 12  1  0  0  0  0
 11 35  1  0  0  0  0
 12 13  1  0  0  0  0
 12 36  1  0  0  0  0
 12 37  1  0  0  0  0
 13 14  1  0  0  0  0
 13 38  1  0  0  0  0
 13 39  1  0  0  0  0
 14 15  1  0  0  0  0
 14 40  1  0  0  0  0
 15 16  1  0  0  0  0
 15 18  1  0  0  0  0
 15 41  1  0  0  0  0
 16 17  1  0  0  0  0
 16 42  1  0  0  0  0
 16 43  1  0  0  0  0
 17 44  1  0  0  0  0
 18 45  1  0  0  0  0
 18 46  1  0  0  0  0
 19 20  1  0  0  0  0
 20 21  2  0  0  0  0
 20 47  1  0  0  0  0
 21 22  1  0  0  0  0
 23 27  1  0  0  0  0
 23 24  1  0  0  0  0
 23 48  1  0  0  0  0
 24 25  1  0  0  0  0
 24 49  1  0  0  0  0
 24 50  1  0  0  0  0
 25 26  1  0  0  0  0
 25 51  1  0  0  0  0
 25 52  1  0  0  0  0
 26 27  1  0  0  0  0
 27 53  1  0  0  0  0
 27 54  1  0  0  0  0
M  END
> <s_m_source_file>
AV-unprocessed.smi

> <i_m_source_file_index>
227

> <i_lp_mmshare_version>
43012

> <i_f3d_flags>
0

> <s_epik_input>
W0NIMl0xT1tDSDJdW0NIMl1bQ0BIXTFbQ0BIXShbQ0gyXVtPSF0pW0NIMl1uKFtjSF1uMiljKGMyMyluW2NIXW5jM04oW0NASF00NSlbQ0BASF0oW0NIMl1bQ0gyXTQpW0NASF0oW0NIMl01KVtDSDJdW09IXQ==

> <s_epik_cmdline>
J2VwaWtfcHl0aG9uJywgJy1waCcsICc3LjAnLCAnLXRuJywgJzgnLCAnLW1hJywgJzIwMCcsICctbWV0YWxfYmluZGluZycsICctaW1hZScsICc8aW5maWxlLm1hZT4nLCAnLW9tYWUnLCAnPG91dGZpbGUubWFlPic=

> <r_lp_tautomer_probability>
1

> <r_epik_Ionization_Penalty>
0.0055791

> <r_epik_Ionization_Penalty_Charging>
0

> <r_epik_Ionization_Penalty_Neutral>
0.0055791

> <r_epik_State_Penalty>
0.00401299

> <r_epik_Charging_Adjusted_Penalty>
0.00401299

> <i_epik_Tot_Q>
0

> <i_epik_Tot_abs_Q>
0

> <r_epik_Metal_State_Penalty>
-0

> <b_epik_Metal_Only>
0

> <s_lp_Force_Field>
OPLS_2005

> <r_lp_Energy>
90.5153

> <b_lp_Chiralities_Consistent>
1

> <s_lp_Variant>
AV-unprocessed.smi:227-2

> <Gold.Version>
5.8.1

> <Gold.Id.Protein>
6NUR|6NUR_protein|mol2

> <Gold.PLP.Fitness>
49.4484

> <Gold.PLP.PLP>
-46.6606

> <Gold.PLP.part.hbond>
-3.0000

> <Gold.PLP.part.metal>
0.0000

> <Gold.PLP.part.buried>
-3.8465

> <Gold.PLP.part.nonpolar>
-39.2447

> <Gold.PLP.part.repulsive>
0.5033

> <Gold.PLP.ligand.clash>
0.0000

> <Gold.PLP.ligand.torsion>
1.2562

> <Gold.PLP.Chemscore.Hbond>
1.7150

> <Gold.PLP.Chemscore.CHOScore>
0.0000

> <Gold.PLP.Chemscore.Metal>
0.0000

> <Gold.Chemscore.Hbonds>
donor molecule, donor type, donor heavy atom, donor atom, acceptor molecule, acceptor atom, score
      P1  H 10785 10796       L1    17  0.35

> <Gold.PLP.Chemscore.Internal.Correction>
0.1550

> <Gold.Rescore>
     Score         DG    S(hbond)    S(metal)    S(lipo)     H(rot)  DE(clash)    DE(int)     intcor
      4.15     -12.80       1.42        0.00     100.96       3.61       3.24       5.41       ----

> <Gold.Chemscore.Fitness>
4.1472

> <Gold.Chemscore.DG>
-12.7990

> <Gold.Chemscore.ZeroCoef>
-5.4800

> <Gold.Chemscore.Hbond>
1.4194

> <Gold.Chemscore.Metal>
0.0000

> <Gold.Chemscore.Lipo>
100.9601

> <Gold.Chemscore.Internal_Hbond>
0.0000

> <Gold.Chemscore.DEClash>
3.2441

> <Gold.Chemscore.DEInternal>
5.4077

> <Gold.Chemscore.Rot>
3.6071

> <Gold.Chemscore.Internal.Correction>
   9.000000E+99

> <Gold.Chemscore.Hbonds>
donor molecule, donor type, donor heavy atom, donor atom, acceptor molecule, acceptor atom, score
      L1  H    17    44       P1 10952  0.01
      P1  H 10785 10796       L1    17  0.01

> <Gold.Chemscore.Hbond.Weighted>
-4.7408

> <Gold.Chemscore.Metal.Weighted>
-0.0000

> <Gold.Chemscore.Lipo.Weighted>
-11.8123

> <Gold.Chemscore.Internal_Hbond.Weighted>
0.0000

> <Gold.Chemscore.DEClash.Weighted>
3.2441

> <Gold.Chemscore.DEInternal.Weighted>
5.4077

> <Gold.Chemscore.Rot.Weighted>
9.2342

> <Gold.Chemscore.Internal.Correction.Weighted>
   9.000000E+99

> <Gold.Protein.RotatedTorsions>
[ 6907 6896 6895 6894 ] final   42.56 input  -60.11 | X-H torsion
[ 7974 7965 7964 7962 ] final   56.89 input  175.53 | X-H torsion
[ 8008 7997 7996 7995 ] final  -61.02 input   59.86 | X-H torsion
[ 10167 10162 10161 10158 ] final  -86.34 input  -65.29 | X-H torsion
[ 10718 10713 10712 10709 ] final  -57.16 input   66.30 | X-H torsion
[ 10763 10752 10751 10750 ] final -131.16 input  -60.55 | X-H torsion
[ 11005 11000 10999 10996 ] final  -57.12 input  -57.11 | X-H torsion

> <Gold.Protein.ActiveResidues>
 VAL166  LYS551  ARG553  GLY616  TRP617  ASP618  TYR619  PRO620  LYS621  CYS622 
 ASP623  PHE694  ASN695  SER759  ASP760  ASP761  ALA762  ILE779  LEU786  VAL792 
 PHE793  MET794  SER795  GLU796  ALA797  LYS798  CYS799  TRP800  GLU811  SER814 

> <Gold.Protein.RotatedAtoms>
  152.2094  134.8516  160.0498 H   0  0  0  0  0  0  0  0  0  0  0  0  # atno 6907 bound_to 6896
  151.9340  133.3614  159.3949 H   0  0  0  0  0  0  0  0  0  0  0  0  # atno 6908 bound_to 6896
  150.6972  134.4433  159.5346 H   0  0  0  0  0  0  0  0  0  0  0  0  # atno 6909 bound_to 6896
  145.9349  139.3839  143.0398 H   0  0  0  0  0  0  0  0  0  0  0  0  # atno 7974 bound_to 7965
  154.4427  140.1027  156.6366 H   0  0  0  0  0  0  0  0  0  0  0  0  # atno 8008 bound_to 7997
  155.5547  140.3486  155.4458 H   0  0  0  0  0  0  0  0  0  0  0  0  # atno 8009 bound_to 7997
  156.0503  140.1302  157.0046 H   0  0  0  0  0  0  0  0  0  0  0  0  # atno 8010 bound_to 7997
  140.3951  143.2687  151.9215 H   0  0  0  0  0  0  0  0  0  0  0  0  # atno 10167 bound_to 10162
  156.1232  130.4164  150.0402 H   0  0  0  0  0  0  0  0  0  0  0  0  # atno 10718 bound_to 10713
  154.8752  135.3839  154.4201 H   0  0  0  0  0  0  0  0  0  0  0  0  # atno 10763 bound_to 10752
  153.4906  135.7030  153.5891 H   0  0  0  0  0  0  0  0  0  0  0  0  # atno 10764 bound_to 10752
  153.4267  135.3888  155.2112 H   0  0  0  0  0  0  0  0  0  0  0  0  # atno 10765 bound_to 10752
  141.1150  133.6610  156.4721 H   0  0  0  0  0  0  0  0  0  0  0  0  # atno 11005 bound_to 11000
  145.8377  140.9597  143.0816 LP  0  0  0  0  0  0  0  0  0  0  0  0  # atno 17320 bound_to 7965
  144.6770  140.0244  143.7483 LP  0  0  0  0  0  0  0  0  0  0  0  0  # atno 17321 bound_to 7965
  139.4787  144.5689  151.8119 LP  0  0  0  0  0  0  0  0  0  0  0  0  # atno 17342 bound_to 10162
  140.4799  144.1464  150.5931 LP  0  0  0  0  0  0  0  0  0  0  0  0  # atno 17343 bound_to 10162
  156.8335  130.9401  151.3636 LP  0  0  0  0  0  0  0  0  0  0  0  0  # atno 17370 bound_to 10713
  157.6415  130.8809  149.9457 LP  0  0  0  0  0  0  0  0  0  0  0  0  # atno 17371 bound_to 10713
  140.4670  134.6789  157.5111 LP  0  0  0  0  0  0  0  0  0  0  0  0  # atno 17394 bound_to 11000
  140.0067  134.6753  155.9444 LP  0  0  0  0  0  0  0  0  0  0  0  0  # atno 17395 bound_to 11000

$$$$
