AV-unprocessed.smi:2804|AV-procd|sdf|10809|dock4
  -GOLD-   2272015243D 1   1.00000     0.00000
 Structure written by MMmdl.
 35 36  0  0  0  0  0  0  0  0  1 V2000
  149.5344  141.1231  154.6264 C   0  0  0  0  0  0  0  0  0  0  0  0
  150.1288  141.0882  156.0377 C   0  0  0  0  0  0  0  0  0  0  0  0
  151.0146  142.3087  156.3327 C   0  0  0  0  0  0  0  0  0  0  0  0
  151.5834  142.2344  157.6757 N   0  0  0  0  0  0  0  0  0  0  0  0
  152.0608  141.1267  158.2898 C   0  0  0  0  0  0  0  0  0  0  0  0
  152.1095  139.9953  157.8072 O   0  0  0  0  0  0  0  0  0  0  0  0
  152.4590  141.4750  159.5362 N   0  0  0  0  0  0  0  0  0  0  0  0
  153.0182  140.5814  160.5496 C   0  0  0  0  0  0  0  0  0  0  0  0
  154.5430  140.4114  160.3823 C   0  0  2  0  0  0  0  0  0  0  0  0
  154.7846  139.6933  159.1877 O   0  0  0  0  0  0  0  0  0  0  0  0
  155.1852  139.6305  161.5456 C   0  0  0  0  0  0  0  0  0  0  0  0
  154.9213  140.2336  162.7051 F   0  0  0  0  0  0  0  0  0  0  0  0
  154.6715  138.4016  161.5968 F   0  0  0  0  0  0  0  0  0  0  0  0
  156.5053  139.5346  161.3824 F   0  0  0  0  0  0  0  0  0  0  0  0
  152.2129  142.8421  159.7315 C   0  0  0  0  0  0  0  0  0  0  0  0
  152.4259  143.6730  160.8457 C   0  0  0  0  0  0  0  0  0  0  0  0
  152.0502  145.0311  160.7210 C   0  0  0  0  0  0  0  0  0  0  0  0
  151.4810  145.5208  159.5167 C   0  0  0  0  0  0  0  0  0  0  0  0
  151.2763  144.6628  158.4110 C   0  0  0  0  0  0  0  0  0  0  0  0
  151.6605  143.3189  158.5609 C   0  0  0  0  0  0  0  0  0  0  0  0
  148.9082  140.2490  154.4471 H   0  0  0  0  0  0  0  0  0  0  0  0
  150.3190  141.1319  153.8694 H   0  0  0  0  0  0  0  0  0  0  0  0
  148.9172  142.0103  154.4816 H   0  0  0  0  0  0  0  0  0  0  0  0
  149.3183  141.0375  156.7658 H   0  0  0  0  0  0  0  0  0  0  0  0
  150.7101  140.1734  156.1591 H   0  0  0  0  0  0  0  0  0  0  0  0
  151.8161  142.3762  155.5953 H   0  0  0  0  0  0  0  0  0  0  0  0
  150.4363  143.2280  156.2347 H   0  0  0  0  0  0  0  0  0  0  0  0
  152.8021  141.0164  161.5263 H   0  0  0  0  0  0  0  0  0  0  0  0
  152.5119  139.6157  160.5431 H   0  0  0  0  0  0  0  0  0  0  0  0
  155.0281  141.3856  160.3067 H   0  0  0  0  0  0  0  0  0  0  0  0
  155.2517  138.9009  159.4047 H   0  0  0  0  0  0  0  0  0  0  0  0
  152.8538  143.2958  161.7625 H   0  0  0  0  0  0  0  0  0  0  0  0
  152.1956  145.7030  161.5539 H   0  0  0  0  0  0  0  0  0  0  0  0
  151.1986  146.5608  159.4441 H   0  0  0  0  0  0  0  0  0  0  0  0
  150.8398  145.0286  157.4934 H   0  0  0  0  0  0  0  0  0  0  0  0
  1  2  1  0  0  0  0
  1 21  1  0  0  0  0
  1 22  1  0  0  0  0
  1 23  1  0  0  0  0
  2  3  1  0  0  0  0
  2 24  1  0  0  0  0
  2 25  1  0  0  0  0
  3  4  1  0  0  0  0
  3 26  1  0  0  0  0
  3 27  1  0  0  0  0
  4 20  1  0  0  0  0
  4  5  1  0  0  0  0
  5  6  2  0  0  0  0
  5  7  1  0  0  0  0
  7  8  1  0  0  0  0
  7 15  1  0  0  0  0
  8  9  1  0  0  0  0
  8 28  1  0  0  0  0
  8 29  1  0  0  0  0
  9 10  1  0  0  0  0
  9 11  1  0  0  0  0
  9 30  1  0  0  0  0
 10 31  1  0  0  0  0
 11 12  1  0  0  0  0
 11 13  1  0  0  0  0
 11 14  1  0  0  0  0
 15 20  2  0  0  0  0
 15 16  1  0  0  0  0
 16 17  2  0  0  0  0
 16 32  1  0  0  0  0
 17 18  1  0  0  0  0
 17 33  1  0  0  0  0
 18 19  2  0  0  0  0
 18 34  1  0  0  0  0
 19 20  1  0  0  0  0
 19 35  1  0  0  0  0
M  END
> <s_m_source_file>
AV-unprocessed.smi

> <i_m_source_file_index>
2804

> <i_lp_mmshare_version>
43012

> <i_f3d_flags>
0

> <s_epik_input>
W2NIXTFbY0hdW2NIXVtjSF1jKGMxMiluKFtDSDJdW0NIMl1bQ0gzXSljKD1PKW4yW0NIMl1bQ0BIXShbT0hdKUMoRikoRilG

> <s_epik_cmdline>
J2VwaWtfcHl0aG9uJywgJy1waCcsICc3LjAnLCAnLXRuJywgJzgnLCAnLW1hJywgJzIwMCcsICctbWV0YWxfYmluZGluZycsICctaW1hZScsICc8aW5maWxlLm1hZT4nLCAnLW9tYWUnLCAnPG91dGZpbGUubWFlPic=

> <r_epik_Ionization_Penalty>
0.0117937

> <r_epik_Ionization_Penalty_Charging>
3.30828e-09

> <r_epik_Ionization_Penalty_Neutral>
0.0117937

> <r_epik_State_Penalty>
0.00909547

> <r_epik_Charging_Adjusted_Penalty>
0.00909547

> <i_epik_Tot_Q>
0

> <i_epik_Tot_abs_Q>
0

> <r_epik_Metal_State_Penalty>
0.00909547

> <b_epik_Metal_Only>
0

> <s_lp_Force_Field>
OPLS_2005

> <r_lp_Energy>
41.5992

> <b_lp_Chiralities_Consistent>
1

> <s_lp_Variant>
AV-unprocessed.smi:2804-1

> <Gold.Version>
5.8.1

> <Gold.Id.Protein>
6NUR|6NUR_protein|mol2

> <Gold.PLP.Fitness>
46.9119

> <Gold.PLP.PLP>
-45.1333

> <Gold.PLP.part.hbond>
-1.0000

> <Gold.PLP.part.metal>
0.0000

> <Gold.PLP.part.buried>
-3.8610

> <Gold.PLP.part.nonpolar>
-39.5294

> <Gold.PLP.part.repulsive>
0.0000

> <Gold.PLP.ligand.clash>
0.0000

> <Gold.PLP.ligand.torsion>
0.6391

> <Gold.PLP.Chemscore.Hbond>
1.0000

> <Gold.PLP.Chemscore.CHOScore>
0.0000

> <Gold.PLP.Chemscore.Metal>
0.0000

> <Gold.Chemscore.Hbonds>
donor molecule, donor type, donor heavy atom, donor atom, acceptor molecule, acceptor atom, score
      P1  H  7997  8009       L1    10  1.00

> <Gold.PLP.Chemscore.Internal.Correction>
0.0568

> <Gold.Rescore>
     Score         DG    S(hbond)    S(metal)    S(lipo)     H(rot)  DE(clash)    DE(int)     intcor
     13.61     -16.09       0.94        0.00     114.53       2.32       0.25       2.23       ----

> <Gold.Chemscore.Fitness>
13.6150

> <Gold.Chemscore.DG>
-16.0900

> <Gold.Chemscore.ZeroCoef>
-5.4800

> <Gold.Chemscore.Hbond>
0.9393

> <Gold.Chemscore.Metal>
0.0000

> <Gold.Chemscore.Lipo>
114.5269

> <Gold.Chemscore.Internal_Hbond>
0.0000

> <Gold.Chemscore.DEClash>
0.2496

> <Gold.Chemscore.DEInternal>
2.2255

> <Gold.Chemscore.Rot>
2.3152

> <Gold.Chemscore.Internal.Correction>
   9.000000E+99

> <Gold.Chemscore.Hbonds>
donor molecule, donor type, donor heavy atom, donor atom, acceptor molecule, acceptor atom, score
      P1  H  7997  8009       L1    10  0.39

> <Gold.Chemscore.Hbond.Weighted>
-3.1372

> <Gold.Chemscore.Metal.Weighted>
-0.0000

> <Gold.Chemscore.Lipo.Weighted>
-13.3997

> <Gold.Chemscore.Internal_Hbond.Weighted>
0.0000

> <Gold.Chemscore.DEClash.Weighted>
0.2496

> <Gold.Chemscore.DEInternal.Weighted>
2.2255

> <Gold.Chemscore.Rot.Weighted>
5.9268

> <Gold.Chemscore.Internal.Correction.Weighted>
   9.000000E+99

> <Gold.Protein.RotatedTorsions>
[ 6907 6896 6895 6894 ] final   39.43 input  -60.11 | X-H torsion
[ 7974 7965 7964 7962 ] final -176.51 input  175.53 | X-H torsion
[ 8008 7997 7996 7995 ] final  108.34 input   59.86 | X-H torsion
[ 10167 10162 10161 10158 ] final -166.19 input  -65.29 | X-H torsion
[ 10718 10713 10712 10709 ] final  -94.24 input   66.30 | X-H torsion
[ 10763 10752 10751 10750 ] final  -24.01 input  -60.55 | X-H torsion
[ 11005 11000 10999 10996 ] final  -92.04 input  -57.11 | X-H torsion

> <Gold.Protein.ActiveResidues>
 VAL166  LYS551  ARG553  GLY616  TRP617  ASP618  TYR619  PRO620  LYS621  CYS622 
 ASP623  PHE694  ASN695  SER759  ASP760  ASP761  ALA762  ILE779  LEU786  VAL792 
 PHE793  MET794  SER795  GLU796  ALA797  LYS798  CYS799  TRP800  GLU811  SER814 

> <Gold.Protein.RotatedAtoms>
  152.1694  134.8846  160.0535 H   0  0  0  0  0  0  0  0  0  0  0  0  # atno 6907 bound_to 6896
  151.9812  133.3753  159.4116 H   0  0  0  0  0  0  0  0  0  0  0  0  # atno 6908 bound_to 6896
  150.6899  134.3959  159.5141 H   0  0  0  0  0  0  0  0  0  0  0  0  # atno 6909 bound_to 6896
  144.7127  140.1158  143.6408 H   0  0  0  0  0  0  0  0  0  0  0  0  # atno 7974 bound_to 7965
  156.1896  140.3078  155.9305 H   0  0  0  0  0  0  0  0  0  0  0  0  # atno 8008 bound_to 7997
  155.3204  140.0455  157.3056 H   0  0  0  0  0  0  0  0  0  0  0  0  # atno 8009 bound_to 7997
  154.5436  140.2269  155.8610 H   0  0  0  0  0  0  0  0  0  0  0  0  # atno 8010 bound_to 7997
  139.6132  144.0773  152.1862 H   0  0  0  0  0  0  0  0  0  0  0  0  # atno 10167 bound_to 10162
  156.0024  130.5059  150.5897 H   0  0  0  0  0  0  0  0  0  0  0  0  # atno 10718 bound_to 10713
  153.6770  135.6969  153.5129 H   0  0  0  0  0  0  0  0  0  0  0  0  # atno 10763 bound_to 10752
  153.2514  135.4274  155.0801 H   0  0  0  0  0  0  0  0  0  0  0  0  # atno 10764 bound_to 10752
  154.8411  135.3532  154.6313 H   0  0  0  0  0  0  0  0  0  0  0  0  # atno 10765 bound_to 10752
  141.1531  133.7794  156.9964 H   0  0  0  0  0  0  0  0  0  0  0  0  # atno 11005 bound_to 11000
  145.9414  139.2671  143.1266 LP  0  0  0  0  0  0  0  0  0  0  0  0  # atno 17320 bound_to 7965
  145.9419  140.8973  143.0303 LP  0  0  0  0  0  0  0  0  0  0  0  0  # atno 17321 bound_to 7965
  140.0397  144.6017  150.7421 LP  0  0  0  0  0  0  0  0  0  0  0  0  # atno 17342 bound_to 10162
  140.7333  143.2715  151.3872 LP  0  0  0  0  0  0  0  0  0  0  0  0  # atno 17343 bound_to 10162
  157.3764  131.0774  151.1514 LP  0  0  0  0  0  0  0  0  0  0  0  0  # atno 17370 bound_to 10713
  157.2251  130.6499  149.5827 LP  0  0  0  0  0  0  0  0  0  0  0  0  # atno 17371 bound_to 10713
  140.0969  134.9559  157.1863 LP  0  0  0  0  0  0  0  0  0  0  0  0  # atno 17394 bound_to 11000
  140.3370  134.2746  155.7218 LP  0  0  0  0  0  0  0  0  0  0  0  0  # atno 17395 bound_to 11000

$$$$
