AV-unprocessed.smi:2684|AV-procd|sdf|10378|dock5
  -GOLD-   2272014403D 1   1.00000     0.00000
 Structure written by MMmdl.
 45 46  0  0  0  0  0  0  0  0  2 V2000
  152.1187  142.6575  158.1237 C   0  0  0  0  0  0  0  0  0  0  0  0
  151.5118  141.6303  157.2123 C   0  0  0  0  0  0  0  0  0  0  0  0
  151.5999  140.2124  157.3094 C   0  0  0  0  0  0  0  0  0  0  0  0
  150.9343  139.5894  156.3502 N   0  0  0  0  0  0  0  0  0  0  0  0
  150.3981  140.5834  155.6109 N   0  0  0  0  0  0  0  0  0  0  0  0
  149.5670  140.2634  154.4641 C   0  0  0  0  0  0  0  0  0  0  0  0
  149.4759  138.7465  154.1765 C   0  0  2  0  0  0  0  0  0  0  0  0
  150.8772  138.1506  153.9862 C   0  0  0  0  0  0  0  0  0  0  0  0
  148.6605  138.4725  152.9703 N   0  3  0  0  0  0  0  0  0  0  0  0
  147.2224  138.7935  153.0964 C   0  0  0  0  0  0  0  0  0  0  0  0
  146.3604  137.8908  152.2035 C   0  0  0  0  0  0  0  0  0  0  0  0
  146.5108  137.9346  150.9839 O   0  0  0  0  0  0  0  0  0  0  0  0
  145.4685  137.0470  152.7543 N   0  0  0  0  0  0  0  0  0  0  0  0
  144.5629  136.1151  152.0830 C   0  0  0  0  0  0  0  0  0  0  0  0
  143.9772  135.0818  153.0621 C   0  0  0  0  0  0  0  0  0  0  0  0
  143.1443  134.0351  152.3044 C   0  0  0  0  0  0  0  0  0  0  0  0
  143.9428  133.4052  151.3088 O   0  0  0  0  0  0  0  0  0  0  0  0
  144.4127  134.3123  150.3175 C   0  0  0  0  0  0  0  0  0  0  0  0
  145.3136  135.3774  150.9646 C   0  0  0  0  0  0  0  0  0  0  0  0
  150.7403  141.8258  156.1022 C   0  0  0  0  0  0  0  0  0  0  0  0
  152.6922  142.1974  158.9284 H   0  0  0  0  0  0  0  0  0  0  0  0
  151.3555  143.2810  158.5901 H   0  0  0  0  0  0  0  0  0  0  0  0
  152.7946  143.3233  157.5867 H   0  0  0  0  0  0  0  0  0  0  0  0
  152.1197  139.6213  158.0491 H   0  0  0  0  0  0  0  0  0  0  0  0
  148.5720  140.6791  154.6299 H   0  0  0  0  0  0  0  0  0  0  0  0
  149.9779  140.7847  153.5982 H   0  0  0  0  0  0  0  0  0  0  0  0
  149.0257  138.2407  155.0327 H   0  0  0  0  0  0  0  0  0  0  0  0
  151.4934  138.3057  154.8724 H   0  0  0  0  0  0  0  0  0  0  0  0
  151.3927  138.6056  153.1395 H   0  0  0  0  0  0  0  0  0  0  0  0
  150.8268  137.0760  153.8074 H   0  0  0  0  0  0  0  0  0  0  0  0
  149.0487  138.9898  152.1947 H   0  0  0  0  0  0  0  0  0  0  0  0
  146.9181  138.6540  154.1340 H   0  0  0  0  0  0  0  0  0  0  0  0
  147.0672  139.8419  152.8646 H   0  0  0  0  0  0  0  0  0  0  0  0
  145.4313  137.0336  153.7637 H   0  0  0  0  0  0  0  0  0  0  0  0
  143.7532  136.6707  151.6118 H   0  0  0  0  0  0  0  0  0  0  0  0
  144.7835  134.5802  153.5990 H   0  0  0  0  0  0  0  0  0  0  0  0
  143.3561  135.5655  153.8155 H   0  0  0  0  0  0  0  0  0  0  0  0
  142.7794  133.2751  152.9955 H   0  0  0  0  0  0  0  0  0  0  0  0
  142.2674  134.4947  151.8454 H   0  0  0  0  0  0  0  0  0  0  0  0
  144.9726  133.7541  149.5669 H   0  0  0  0  0  0  0  0  0  0  0  0
  143.5683  134.7748  149.8046 H   0  0  0  0  0  0  0  0  0  0  0  0
  145.6548  136.0842  150.2074 H   0  0  0  0  0  0  0  0  0  0  0  0
  146.2055  134.8954  151.3680 H   0  0  0  0  0  0  0  0  0  0  0  0
  150.3995  142.7379  155.6345 H   0  0  0  0  0  0  0  0  0  0  0  0
  148.7265  137.4872  152.7574 H   0  0  0  0  0  0  0  0  0  0  0  0
  1  2  1  0  0  0  0
  1 21  1  0  0  0  0
  1 22  1  0  0  0  0
  1 23  1  0  0  0  0
  2 20  2  0  0  0  0
  2  3  1  0  0  0  0
  3  4  2  0  0  0  0
  3 24  1  0  0  0  0
  4  5  1  0  0  0  0
  5  6  1  0  0  0  0
  5 20  1  0  0  0  0
  6  7  1  0  0  0  0
  6 25  1  0  0  0  0
  6 26  1  0  0  0  0
  7  8  1  0  0  0  0
  7  9  1  0  0  0  0
  7 27  1  0  0  0  0
  8 28  1  0  0  0  0
  8 29  1  0  0  0  0
  8 30  1  0  0  0  0
  9 10  1  0  0  0  0
  9 31  1  0  0  0  0
  9 45  1  0  0  0  0
 10 11  1  0  0  0  0
 10 32  1  0  0  0  0
 10 33  1  0  0  0  0
 11 12  2  0  0  0  0
 11 13  1  0  0  0  0
 13 14  1  0  0  0  0
 13 34  1  0  0  0  0
 14 19  1  0  0  0  0
 14 15  1  0  0  0  0
 14 35  1  0  0  0  0
 15 16  1  0  0  0  0
 15 36  1  0  0  0  0
 15 37  1  0  0  0  0
 16 17  1  0  0  0  0
 16 38  1  0  0  0  0
 16 39  1  0  0  0  0
 17 18  1  0  0  0  0
 18 19  1  0  0  0  0
 18 40  1  0  0  0  0
 18 41  1  0  0  0  0
 19 42  1  0  0  0  0
 19 43  1  0  0  0  0
 20 44  1  0  0  0  0
M  CHG  1   9   1
M  END
> <s_m_source_file>
AV-unprocessed.smi

> <i_m_source_file_index>
2684

> <i_lp_mmshare_version>
43012

> <i_f3d_flags>
0

> <s_epik_input>
W0NIM11jMVtjSF1ubihbY0hdMSlbQ0gyXVtDQEhdKFtDSDNdKVtOSF1bQ0gyXUMoPU8pW05IXVtDSF0yW0NIMl1bQ0gyXU9bQ0gyXVtDSDJdMg==

> <s_epik_cmdline>
J2VwaWtfcHl0aG9uJywgJy1waCcsICc3LjAnLCAnLXRuJywgJzgnLCAnLW1hJywgJzIwMCcsICctbWV0YWxfYmluZGluZycsICctaW1hZScsICc8aW5maWxlLm1hZT4nLCAnLW9tYWUnLCAnPG91dGZpbGUubWFlPic=

> <r_lp_tautomer_probability>
1

> <r_epik_Ionization_Penalty>
0.128576

> <r_epik_Ionization_Penalty_Charging>
0.128567

> <r_epik_Ionization_Penalty_Neutral>
8.60003e-06

> <r_epik_State_Penalty>
0.117991

> <r_epik_Charging_Adjusted_Penalty>
0.246558

> <i_epik_Tot_Q>
1

> <i_epik_Tot_abs_Q>
1

> <r_epik_Metal_State_Penalty>
0.118015

> <b_epik_Metal_Only>
0

> <s_lp_Force_Field>
OPLS_2005

> <r_lp_Energy>
10.3737

> <b_lp_Chiralities_Consistent>
1

> <s_lp_Variant>
AV-unprocessed.smi:2684-1

> <Gold.Version>
5.8.1

> <Gold.Id.Protein>
6NUR|6NUR_protein|mol2

> <Gold.PLP.Fitness>
51.8633

> <Gold.PLP.PLP>
-37.6710

> <Gold.PLP.part.hbond>
-3.0000

> <Gold.PLP.part.metal>
0.0000

> <Gold.PLP.part.buried>
-3.2185

> <Gold.PLP.part.nonpolar>
-33.4948

> <Gold.PLP.part.repulsive>
2.1863

> <Gold.PLP.ligand.clash>
0.0000

> <Gold.PLP.ligand.torsion>
0.4419

> <Gold.PLP.Chemscore.Hbond>
4.0000

> <Gold.PLP.Chemscore.CHOScore>
1.0000

> <Gold.PLP.Chemscore.Metal>
0.0000

> <Gold.Chemscore.Hbonds>
donor molecule, donor type, donor heavy atom, donor atom, acceptor molecule, acceptor atom, score
      L1  H     9    31       P1  7957  1.00
      L1  H     9    45       P1  7948  2.00
      P1  H  7954  7966       L1    12  1.00
      L1  C    20    44       P1  8028  1.00

> <Gold.PLP.Chemscore.Internal.Correction>
0.0761

> <Gold.Rescore>
     Score         DG    S(hbond)    S(metal)    S(lipo)     H(rot)  DE(clash)    DE(int)     intcor
     17.27     -20.03       2.94        0.00      85.02       2.04       1.12       1.64       ----

> <Gold.Chemscore.Fitness>
17.2740

> <Gold.Chemscore.DG>
-20.0307

> <Gold.Chemscore.ZeroCoef>
-5.4800

> <Gold.Chemscore.Hbond>
2.9447

> <Gold.Chemscore.Metal>
0.0000

> <Gold.Chemscore.Lipo>
85.0178

> <Gold.Chemscore.Internal_Hbond>
0.0000

> <Gold.Chemscore.DEClash>
1.1212

> <Gold.Chemscore.DEInternal>
1.6355

> <Gold.Chemscore.Rot>
2.0437

> <Gold.Chemscore.Internal.Correction>
   9.000000E+99

> <Gold.Chemscore.Hbonds>
donor molecule, donor type, donor heavy atom, donor atom, acceptor molecule, acceptor atom, score
      L1  H     9    31       P1  7957  0.91
      L1  H     9    45       P1  7948  0.93
      P1  H  7954  7966       L1    12  0.97

> <Gold.Chemscore.Hbond.Weighted>
-9.8354

> <Gold.Chemscore.Metal.Weighted>
-0.0000

> <Gold.Chemscore.Lipo.Weighted>
-9.9471

> <Gold.Chemscore.Internal_Hbond.Weighted>
0.0000

> <Gold.Chemscore.DEClash.Weighted>
1.1212

> <Gold.Chemscore.DEInternal.Weighted>
1.6355

> <Gold.Chemscore.Rot.Weighted>
5.2318

> <Gold.Chemscore.Internal.Correction.Weighted>
   9.000000E+99

> <Gold.Protein.RotatedTorsions>
[ 6907 6896 6895 6894 ] final    7.93 input  -60.11 | X-H torsion
[ 7974 7965 7964 7962 ] final  -64.06 input  175.53 | X-H torsion
[ 8008 7997 7996 7995 ] final   60.77 input   59.86 | X-H torsion
[ 10167 10162 10161 10158 ] final -159.77 input  -65.29 | X-H torsion
[ 10718 10713 10712 10709 ] final   68.29 input   66.30 | X-H torsion
[ 10763 10752 10751 10750 ] final  -40.19 input  -60.55 | X-H torsion
[ 11005 11000 10999 10996 ] final -115.11 input  -57.11 | X-H torsion

> <Gold.Protein.ActiveResidues>
 VAL166  LYS551  ARG553  GLY616  TRP617  ASP618  TYR619  PRO620  LYS621  CYS622 
 ASP623  PHE694  ASN695  SER759  ASP760  ASP761  ALA762  ILE779  LEU786  VAL792 
 PHE793  MET794  SER795  GLU796  ALA797  LYS798  CYS799  TRP800  GLU811  SER814 

> <Gold.Protein.RotatedAtoms>
  151.6978  135.0935  160.0245 H   0  0  0  0  0  0  0  0  0  0  0  0  # atno 6907 bound_to 6896
  152.3739  133.6451  159.6117 H   0  0  0  0  0  0  0  0  0  0  0  0  # atno 6908 bound_to 6896
  150.7694  133.9142  159.3420 H   0  0  0  0  0  0  0  0  0  0  0  0  # atno 6909 bound_to 6896
  145.7714  140.8810  143.0378 H   0  0  0  0  0  0  0  0  0  0  0  0  # atno 7974 bound_to 7965
  155.5876  140.3492  155.4557 H   0  0  0  0  0  0  0  0  0  0  0  0  # atno 8008 bound_to 7997
  156.0326  140.1278  157.0267 H   0  0  0  0  0  0  0  0  0  0  0  0  # atno 8009 bound_to 7997
  154.4358  140.1040  156.6107 H   0  0  0  0  0  0  0  0  0  0  0  0  # atno 8010 bound_to 7997
  139.6589  143.9948  152.2212 H   0  0  0  0  0  0  0  0  0  0  0  0  # atno 10167 bound_to 10162
  157.6281  130.9366  150.0358 H   0  0  0  0  0  0  0  0  0  0  0  0  # atno 10718 bound_to 10713
  153.9419  135.6760  153.4744 H   0  0  0  0  0  0  0  0  0  0  0  0  # atno 10763 bound_to 10752
  153.0927  135.4866  154.8718 H   0  0  0  0  0  0  0  0  0  0  0  0  # atno 10764 bound_to 10752
  154.7372  135.3152  154.8748 H   0  0  0  0  0  0  0  0  0  0  0  0  # atno 10765 bound_to 10752
  141.0509  133.9689  157.2838 H   0  0  0  0  0  0  0  0  0  0  0  0  # atno 11005 bound_to 11000
  144.6812  139.9861  143.7484 LP  0  0  0  0  0  0  0  0  0  0  0  0  # atno 17320 bound_to 7965
  146.0166  139.3215  143.0838 LP  0  0  0  0  0  0  0  0  0  0  0  0  # atno 17321 bound_to 7965
  139.9682  144.6512  150.8015 LP  0  0  0  0  0  0  0  0  0  0  0  0  # atno 17342 bound_to 10162
  140.7571  143.3080  151.2914 LP  0  0  0  0  0  0  0  0  0  0  0  0  # atno 17343 bound_to 10162
  156.1466  130.3642  149.9502 LP  0  0  0  0  0  0  0  0  0  0  0  0  # atno 17370 bound_to 10713
  156.7531  130.9123  151.3638 LP  0  0  0  0  0  0  0  0  0  0  0  0  # atno 17371 bound_to 10713
  139.9349  135.0197  156.8524 LP  0  0  0  0  0  0  0  0  0  0  0  0  # atno 17394 bound_to 11000
  140.6057  134.0130  155.7555 LP  0  0  0  0  0  0  0  0  0  0  0  0  # atno 17395 bound_to 11000

$$$$
