AV-unprocessed.smi:2025|AV-procd|sdf|8199|dock9
  -GOLD-   2272010453D 1   1.00000     0.00000
 Structure written by MMmdl.
 39 40  0  0  0  0  0  0  0  0  1 V2000
  152.2775  139.1545  157.6651 C   0  0  0  0  0  0  0  0  0  0  0  0
  151.3508  139.5062  158.8379 C   0  0  2  0  0  0  0  0  0  0  0  0
  150.0756  138.8171  158.6500 N   0  0  0  0  0  0  0  0  0  0  0  0
  149.8898  137.4881  158.6556 C   0  0  0  0  0  0  0  0  0  0  0  0
  150.8040  136.6746  158.7930 O   0  0  0  0  0  0  0  0  0  0  0  0
  148.4457  137.0081  158.4651 C   0  0  0  0  0  0  0  0  0  0  0  0
  148.1110  135.8776  159.3404 N   0  0  0  0  0  0  0  0  0  0  0  0
  147.9707  134.6115  158.8019 C   0  0  0  0  0  0  0  0  0  0  0  0
  147.6839  133.5165  159.5389 C   0  0  0  0  0  0  0  0  0  0  0  0
  147.4971  133.6145  160.9810 C   0  0  0  0  0  0  0  0  0  0  0  0
  147.2522  132.6437  161.6985 O   0  0  0  0  0  0  0  0  0  0  0  0
  147.6306  134.9214  161.5046 N   0  0  0  0  0  0  0  0  0  0  0  0
  147.4685  135.0760  162.9355 C   0  0  0  0  0  0  0  0  0  0  0  0
  147.9505  136.0613  160.7314 C   0  0  0  0  0  0  0  0  0  0  0  0
  148.0950  137.1789  161.2334 O   0  0  0  0  0  0  0  0  0  0  0  0
  151.1309  141.0297  158.9579 C   0  0  1  0  0  0  0  0  0  0  0  0
  152.3990  141.8579  159.1717 C   0  0  0  0  0  0  0  0  0  0  0  0
  151.9458  143.2290  158.7253 C   0  0  0  0  0  0  0  0  0  0  0  0
  151.0152  142.9015  157.5589 C   0  0  0  0  0  0  0  0  0  0  0  0
  150.5876  141.5543  157.7504 O   0  0  0  0  0  0  0  0  0  0  0  0
  153.2566  139.6195  157.7831 H   0  0  0  0  0  0  0  0  0  0  0  0
  151.8624  139.4917  156.7147 H   0  0  0  0  0  0  0  0  0  0  0  0
  152.4342  138.0775  157.5976 H   0  0  0  0  0  0  0  0  0  0  0  0
  151.8297  139.1513  159.7522 H   0  0  0  0  0  0  0  0  0  0  0  0
  149.2624  139.4024  158.5251 H   0  0  0  0  0  0  0  0  0  0  0  0
  147.7483  137.8310  158.6345 H   0  0  0  0  0  0  0  0  0  0  0  0
  148.3173  136.7238  157.4201 H   0  0  0  0  0  0  0  0  0  0  0  0
  148.1040  134.4868  157.7371 H   0  0  0  0  0  0  0  0  0  0  0  0
  147.5945  132.5546  159.0558 H   0  0  0  0  0  0  0  0  0  0  0  0
  147.2552  136.1149  163.1877 H   0  0  0  0  0  0  0  0  0  0  0  0
  148.3981  134.7410  163.3975 H   0  0  0  0  0  0  0  0  0  0  0  0
  146.6208  134.4677  163.2553 H   0  0  0  0  0  0  0  0  0  0  0  0
  150.4267  141.2450  159.7638 H   0  0  0  0  0  0  0  0  0  0  0  0
  152.7528  141.8418  160.2030 H   0  0  0  0  0  0  0  0  0  0  0  0
  153.2037  141.5027  158.5263 H   0  0  0  0  0  0  0  0  0  0  0  0
  151.3860  143.7132  159.5264 H   0  0  0  0  0  0  0  0  0  0  0  0
  152.7711  143.8829  158.4424 H   0  0  0  0  0  0  0  0  0  0  0  0
  150.1640  143.5815  157.5160 H   0  0  0  0  0  0  0  0  0  0  0  0
  151.5465  142.9647  156.6086 H   0  0  0  0  0  0  0  0  0  0  0  0
  1  2  1  0  0  0  0
  1 21  1  0  0  0  0
  1 22  1  0  0  0  0
  1 23  1  0  0  0  0
  2  3  1  0  0  0  0
  2 16  1  0  0  0  0
  2 24  1  0  0  0  0
  3  4  1  0  0  0  0
  3 25  1  0  0  0  0
  4  5  2  0  0  0  0
  4  6  1  0  0  0  0
  6  7  1  0  0  0  0
  6 26  1  0  0  0  0
  6 27  1  0  0  0  0
  7 14  1  0  0  0  0
  7  8  1  0  0  0  0
  8  9  2  0  0  0  0
  8 28  1  0  0  0  0
  9 10  1  0  0  0  0
  9 29  1  0  0  0  0
 10 11  2  0  0  0  0
 10 12  1  0  0  0  0
 12 13  1  0  0  0  0
 12 14  1  0  0  0  0
 13 30  1  0  0  0  0
 13 31  1  0  0  0  0
 13 32  1  0  0  0  0
 14 15  2  0  0  0  0
 16 20  1  0  0  0  0
 16 17  1  0  0  0  0
 16 33  1  0  0  0  0
 17 18  1  0  0  0  0
 17 34  1  0  0  0  0
 17 35  1  0  0  0  0
 18 19  1  0  0  0  0
 18 36  1  0  0  0  0
 18 37  1  0  0  0  0
 19 20  1  0  0  0  0
 19 38  1  0  0  0  0
 19 39  1  0  0  0  0
M  END
> <s_m_source_file>
AV-unprocessed.smi

> <i_m_source_file_index>
2025

> <i_lp_mmshare_version>
43012

> <i_f3d_flags>
0

> <s_epik_input>
TzFbQ0gyXVtDSDJdW0NIMl1bQ0BIXTFbQ0BIXShbQ0gzXSlbTkhdQyg9TylbQ0gyXW4yW2NIXVtjSF1jKD1PKW4oW0NIM10pYzI9Tw==

> <s_epik_cmdline>
J2VwaWtfcHl0aG9uJywgJy1waCcsICc3LjAnLCAnLXRuJywgJzgnLCAnLW1hJywgJzIwMCcsICctbWV0YWxfYmluZGluZycsICctaW1hZScsICc8aW5maWxlLm1hZT4nLCAnLW9tYWUnLCAnPG91dGZpbGUubWFlPic=

> <r_lp_tautomer_probability>
1

> <r_epik_Ionization_Penalty>
3.54787e-08

> <r_epik_Ionization_Penalty_Charging>
1.24654e-08

> <r_epik_Ionization_Penalty_Neutral>
2.30132e-08

> <r_epik_State_Penalty>
-0

> <r_epik_Charging_Adjusted_Penalty>
1.24654e-08

> <i_epik_Tot_Q>
0

> <i_epik_Tot_abs_Q>
0

> <r_epik_Metal_State_Penalty>
-0

> <b_epik_Metal_Only>
0

> <s_lp_Force_Field>
OPLS_2005

> <r_lp_Energy>
25.1152

> <b_lp_Chiralities_Consistent>
1

> <s_lp_Variant>
AV-unprocessed.smi:2025-3

> <Gold.Version>
5.8.1

> <Gold.Id.Protein>
6NUR|6NUR_protein|mol2

> <Gold.PLP.Fitness>
41.3480

> <Gold.PLP.PLP>
-34.2363

> <Gold.PLP.part.hbond>
-3.0000

> <Gold.PLP.part.metal>
0.0000

> <Gold.PLP.part.buried>
-4.7221

> <Gold.PLP.part.nonpolar>
-26.5731

> <Gold.PLP.part.repulsive>
0.2078

> <Gold.PLP.ligand.clash>
0.0000

> <Gold.PLP.ligand.torsion>
0.4370

> <Gold.PLP.Chemscore.Hbond>
2.6581

> <Gold.PLP.Chemscore.CHOScore>
0.0000

> <Gold.PLP.Chemscore.Metal>
0.0000

> <Gold.Chemscore.Hbonds>
donor molecule, donor type, donor heavy atom, donor atom, acceptor molecule, acceptor atom, score
      P1  H  6896  6907       L1     5  1.00
      P1  H  6931  6943       L1    15  1.00
      P1  H  6934  6947       L1    15  0.59

> <Gold.PLP.Chemscore.Internal.Correction>
0.0114

> <Gold.Rescore>
     Score         DG    S(hbond)    S(metal)    S(lipo)     H(rot)  DE(clash)    DE(int)     intcor
     16.82     -17.33       2.67        0.00      65.06       1.82       0.00       0.51       ----

> <Gold.Chemscore.Fitness>
16.8211

> <Gold.Chemscore.DG>
-17.3318

> <Gold.Chemscore.ZeroCoef>
-5.4800

> <Gold.Chemscore.Hbond>
2.6664

> <Gold.Chemscore.Metal>
0.0000

> <Gold.Chemscore.Lipo>
65.0625

> <Gold.Chemscore.Internal_Hbond>
0.0000

> <Gold.Chemscore.DEClash>
0.0000

> <Gold.Chemscore.DEInternal>
0.5106

> <Gold.Chemscore.Rot>
1.8228

> <Gold.Chemscore.Internal.Correction>
   9.000000E+99

> <Gold.Chemscore.Hbonds>
donor molecule, donor type, donor heavy atom, donor atom, acceptor molecule, acceptor atom, score
      P1  H  6896  6907       L1     5  0.95
      P1  H  6931  6943       L1    15  0.94
      P1  H  6934  6947       L1    15  0.57

> <Gold.Chemscore.Hbond.Weighted>
-8.9059

> <Gold.Chemscore.Metal.Weighted>
-0.0000

> <Gold.Chemscore.Lipo.Weighted>
-7.6123

> <Gold.Chemscore.Internal_Hbond.Weighted>
0.0000

> <Gold.Chemscore.DEClash.Weighted>
0.0000

> <Gold.Chemscore.DEInternal.Weighted>
0.5106

> <Gold.Chemscore.Rot.Weighted>
4.6665

> <Gold.Chemscore.Internal.Correction.Weighted>
   9.000000E+99

> <Gold.Protein.RotatedTorsions>
[ 6907 6896 6895 6894 ] final  -23.58 input  -60.11 | X-H torsion
[ 7974 7965 7964 7962 ] final  119.51 input  175.53 | X-H torsion
[ 8008 7997 7996 7995 ] final   34.40 input   59.86 | X-H torsion
[ 10167 10162 10161 10158 ] final    0.37 input  -65.29 | X-H torsion
[ 10718 10713 10712 10709 ] final   60.02 input   66.30 | X-H torsion
[ 10763 10752 10751 10750 ] final  115.09 input  -60.55 | X-H torsion
[ 11005 11000 10999 10996 ] final  -92.98 input  -57.11 | X-H torsion

> <Gold.Protein.ActiveResidues>
 VAL166  LYS551  ARG553  GLY616  TRP617  ASP618  TYR619  PRO620  LYS621  CYS622 
 ASP623  PHE694  ASN695  SER759  ASP760  ASP761  ALA762  ILE779  LEU786  VAL792 
 PHE793  MET794  SER795  GLU796  ALA797  LYS798  CYS799  TRP800  GLU811  SER814 

> <Gold.Protein.RotatedAtoms>
  151.2020  135.0446  159.8875 H   0  0  0  0  0  0  0  0  0  0  0  0  # atno 6907 bound_to 6896
  152.5432  134.0840  159.8258 H   0  0  0  0  0  0  0  0  0  0  0  0  # atno 6908 bound_to 6896
  151.0982  133.5216  159.2643 H   0  0  0  0  0  0  0  0  0  0  0  0  # atno 6909 bound_to 6896
  145.1423  139.3260  143.4609 H   0  0  0  0  0  0  0  0  0  0  0  0  # atno 7974 bound_to 7965
  155.1542  140.3277  155.4425 H   0  0  0  0  0  0  0  0  0  0  0  0  # atno 8008 bound_to 7997
  156.2564  140.1971  156.6603 H   0  0  0  0  0  0  0  0  0  0  0  0  # atno 8009 bound_to 7997
  154.6451  140.0565  156.9877 H   0  0  0  0  0  0  0  0  0  0  0  0  # atno 8010 bound_to 7997
  140.6731  143.6992  150.7965 H   0  0  0  0  0  0  0  0  0  0  0  0  # atno 10167 bound_to 10162
  157.5721  130.8915  149.9284 H   0  0  0  0  0  0  0  0  0  0  0  0  # atno 10718 bound_to 10713
  153.5169  135.3606  155.2613 H   0  0  0  0  0  0  0  0  0  0  0  0  # atno 10763 bound_to 10752
  154.8738  135.4036  154.3304 H   0  0  0  0  0  0  0  0  0  0  0  0  # atno 10764 bound_to 10752
  153.3967  135.7073  153.6522 H   0  0  0  0  0  0  0  0  0  0  0  0  # atno 10765 bound_to 10752
  141.1509  133.7857  157.0095 H   0  0  0  0  0  0  0  0  0  0  0  0  # atno 11005 bound_to 11000
  146.3504  140.1465  142.8593 LP  0  0  0  0  0  0  0  0  0  0  0  0  # atno 17320 bound_to 7965
  145.0519  140.9024  143.4990 LP  0  0  0  0  0  0  0  0  0  0  0  0  # atno 17321 bound_to 7965
  140.0680  143.5089  152.2594 LP  0  0  0  0  0  0  0  0  0  0  0  0  # atno 17342 bound_to 10162
  139.6010  144.7582  151.3173 LP  0  0  0  0  0  0  0  0  0  0  0  0  # atno 17343 bound_to 10162
  156.0766  130.3678  150.0665 LP  0  0  0  0  0  0  0  0  0  0  0  0  # atno 17370 bound_to 10713
  156.8816  130.9558  151.3599 LP  0  0  0  0  0  0  0  0  0  0  0  0  # atno 17371 bound_to 10713
  140.0887  134.9605  157.1741 LP  0  0  0  0  0  0  0  0  0  0  0  0  # atno 17394 bound_to 11000
  140.3476  134.2634  155.7203 LP  0  0  0  0  0  0  0  0  0  0  0  0  # atno 17395 bound_to 11000

$$$$
