AV-unprocessed.smi:2642|AV-procd|sdf|10275|dock7
  -GOLD-   2272014283D 1   1.00000     0.00000
 Structure written by MMmdl.
 31 32  0  0  0  0  0  0  0  0  2 V2000
  150.9093  141.0395  157.1842 O   0  0  0  0  0  0  0  0  0  0  0  0
  150.2495  142.0130  156.8212 C   0  0  0  0  0  0  0  0  0  0  0  0
  149.3828  141.9805  155.7994 N   0  0  0  0  0  0  0  0  0  0  0  0
  149.1002  140.8115  154.9761 C   0  0  0  0  0  0  0  0  0  0  0  0
  150.3328  140.3931  154.1547 C   0  0  0  0  0  0  0  0  0  0  0  0
  150.7715  139.0388  154.5039 N   0  0  0  0  0  0  0  0  0  0  0  0
  149.9509  137.9926  154.6379 C   0  0  0  0  0  0  0  0  0  0  0  0
  148.7270  137.9686  154.5066 O   0  0  0  0  0  0  0  0  0  0  0  0
  150.7992  136.7910  154.9843 C   0  0  0  0  0  0  0  0  0  0  0  0
  152.1332  137.3474  154.9984 N   0  5  0  0  0  0  0  0  0  0  0  0
  152.0502  138.6662  154.7047 C   0  0  0  0  0  0  0  0  0  0  0  0
  152.9867  139.4599  154.6153 O   0  0  0  0  0  0  0  0  0  0  0  0
  150.3087  143.2402  157.3664 N   0  0  0  0  0  0  0  0  0  0  0  0
  151.0889  143.6850  158.4680 C   0  0  0  0  0  0  0  0  0  0  0  0
  152.0624  142.8960  159.1277 C   0  0  0  0  0  0  0  0  0  0  0  0
  152.7562  143.4478  160.2222 C   0  0  0  0  0  0  0  0  0  0  0  0
  152.4484  144.7630  160.6204 C   0  0  0  0  0  0  0  0  0  0  0  0
  151.5140  145.5214  160.0095 N   0  0  0  0  0  0  0  0  0  0  0  0
  150.8517  144.9852  158.9623 C   0  0  0  0  0  0  0  0  0  0  0  0
  148.8890  142.8291  155.5652 H   0  0  0  0  0  0  0  0  0  0  0  0
  148.7511  139.9843  155.5968 H   0  0  0  0  0  0  0  0  0  0  0  0
  148.2763  141.0672  154.3092 H   0  0  0  0  0  0  0  0  0  0  0  0
  150.1057  140.4413  153.0884 H   0  0  0  0  0  0  0  0  0  0  0  0
  151.1475  141.1019  154.3131 H   0  0  0  0  0  0  0  0  0  0  0  0
  150.4916  136.3850  155.9486 H   0  0  0  0  0  0  0  0  0  0  0  0
  150.6655  136.0129  154.2323 H   0  0  0  0  0  0  0  0  0  0  0  0
  149.7681  143.9559  156.9030 H   0  0  0  0  0  0  0  0  0  0  0  0
  152.2806  141.8823  158.8299 H   0  0  0  0  0  0  0  0  0  0  0  0
  153.5050  142.8732  160.7472 H   0  0  0  0  0  0  0  0  0  0  0  0
  152.9624  145.2157  161.4556 H   0  0  0  0  0  0  0  0  0  0  0  0
  150.1093  145.6194  158.5001 H   0  0  0  0  0  0  0  0  0  0  0  0
  1  2  2  0  0  0  0
  2  3  1  0  0  0  0
  2 13  1  0  0  0  0
  3  4  1  0  0  0  0
  3 20  1  0  0  0  0
  4  5  1  0  0  0  0
  4 21  1  0  0  0  0
  4 22  1  0  0  0  0
  5  6  1  0  0  0  0
  5 23  1  0  0  0  0
  5 24  1  0  0  0  0
  6 11  1  0  0  0  0
  6  7  1  0  0  0  0
  7  8  2  0  0  0  0
  7  9  1  0  0  0  0
  9 10  1  0  0  0  0
  9 25  1  0  0  0  0
  9 26  1  0  0  0  0
 10 11  1  0  0  0  0
 11 12  2  0  0  0  0
 13 14  1  0  0  0  0
 13 27  1  0  0  0  0
 14 19  1  0  0  0  0
 14 15  2  0  0  0  0
 15 16  1  0  0  0  0
 15 28  1  0  0  0  0
 16 17  2  0  0  0  0
 16 29  1  0  0  0  0
 17 18  1  0  0  0  0
 17 30  1  0  0  0  0
 18 19  2  0  0  0  0
 19 31  1  0  0  0  0
M  CHG  1  10  -1
M  END
> <s_m_source_file>
AV-unprocessed.smi

> <i_m_source_file_index>
2642

> <i_lp_mmshare_version>
43012

> <i_f3d_flags>
0

> <s_epik_input>
W2NIXTFuW2NIXVtjSF1bY0hdYzFbTkhdQyg9TylbTkhdW0NIMl1bQ0gyXU4yQyg9TylbQ0gyXVtOSF1DMj1P

> <s_epik_cmdline>
J2VwaWtfcHl0aG9uJywgJy1waCcsICc3LjAnLCAnLXRuJywgJzgnLCAnLW1hJywgJzIwMCcsICctbWV0YWxfYmluZGluZycsICctaW1hZScsICc8aW5maWxlLm1hZT4nLCAnLW9tYWUnLCAnPG91dGZpbGUubWFlPic=

> <r_lp_tautomer_probability>
1

> <r_epik_Ionization_Penalty>
5.82623

> <r_epik_Ionization_Penalty_Charging>
5.82164

> <r_epik_Ionization_Penalty_Neutral>
0.00459419

> <r_epik_State_Penalty>
5.8249

> <r_epik_Charging_Adjusted_Penalty>
11.6465

> <i_epik_Tot_Q>
-1

> <i_epik_Tot_abs_Q>
1

> <r_epik_Metal_State_Penalty>
1.79397

> <b_epik_Metal_Only>
1

> <s_lp_Force_Field>
OPLS_2005

> <r_lp_Energy>
16.7854

> <b_lp_Chiralities_Consistent>
1

> <s_lp_Variant>
AV-unprocessed.smi:2642-2

> <Gold.Version>
5.8.1

> <Gold.Id.Protein>
6NUR|6NUR_protein|mol2

> <Gold.PLP.Fitness>
50.5264

> <Gold.PLP.PLP>
-34.0586

> <Gold.PLP.part.hbond>
-4.4645

> <Gold.PLP.part.metal>
0.0000

> <Gold.PLP.part.buried>
-2.9565

> <Gold.PLP.part.nonpolar>
-27.9953

> <Gold.PLP.part.repulsive>
0.5947

> <Gold.PLP.ligand.clash>
0.0000

> <Gold.PLP.ligand.torsion>
0.5915

> <Gold.PLP.Chemscore.Hbond>
4.8800

> <Gold.PLP.Chemscore.CHOScore>
1.0000

> <Gold.PLP.Chemscore.Metal>
0.0000

> <Gold.Chemscore.Hbonds>
donor molecule, donor type, donor heavy atom, donor atom, acceptor molecule, acceptor atom, score
      L1  H     3    20       P1  8028  0.94
      L1  H    13    27       P1  8028  1.00
      P1  H  7989  7998       L1    12  0.11
      P1  H  7997  8009       L1    12  0.83
      P1  H 10752 10763       L1    10  1.00
      L1  C    19    31       P1  8029  1.00

> <Gold.PLP.Chemscore.Internal.Correction>
0.0108

> <Gold.Rescore>
     Score         DG    S(hbond)    S(metal)    S(lipo)     H(rot)  DE(clash)    DE(int)     intcor
     15.74     -20.54       3.31        0.00      75.86       1.90       1.94       2.86       ----

> <Gold.Chemscore.Fitness>
15.7397

> <Gold.Chemscore.DG>
-20.5436

> <Gold.Chemscore.ZeroCoef>
-5.4800

> <Gold.Chemscore.Hbond>
3.3067

> <Gold.Chemscore.Metal>
0.0000

> <Gold.Chemscore.Lipo>
75.8577

> <Gold.Chemscore.Internal_Hbond>
0.0000

> <Gold.Chemscore.DEClash>
1.9420

> <Gold.Chemscore.DEInternal>
2.8619

> <Gold.Chemscore.Rot>
1.8969

> <Gold.Chemscore.Internal.Correction>
   9.000000E+99

> <Gold.Chemscore.Hbonds>
donor molecule, donor type, donor heavy atom, donor atom, acceptor molecule, acceptor atom, score
      L1  H     3    20       P1  8028  0.91
      L1  H    13    27       P1  8028  0.92
      P1  H  7997  8009       L1    12  0.80
      P1  H 10752 10763       L1    10  0.04

> <Gold.Chemscore.Hbond.Weighted>
-11.0444

> <Gold.Chemscore.Metal.Weighted>
-0.0000

> <Gold.Chemscore.Lipo.Weighted>
-8.8754

> <Gold.Chemscore.Internal_Hbond.Weighted>
0.0000

> <Gold.Chemscore.DEClash.Weighted>
1.9420

> <Gold.Chemscore.DEInternal.Weighted>
2.8619

> <Gold.Chemscore.Rot.Weighted>
4.8561

> <Gold.Chemscore.Internal.Correction.Weighted>
   9.000000E+99

> <Gold.Protein.RotatedTorsions>
[ 6907 6896 6895 6894 ] final -134.57 input  -60.11 | X-H torsion
[ 7974 7965 7964 7962 ] final   -5.69 input  175.53 | X-H torsion
[ 8008 7997 7996 7995 ] final -143.23 input   59.86 | X-H torsion
[ 10167 10162 10161 10158 ] final -102.28 input  -65.29 | X-H torsion
[ 10718 10713 10712 10709 ] final  164.11 input   66.30 | X-H torsion
[ 10763 10752 10751 10750 ] final   67.94 input  -60.55 | X-H torsion
[ 11005 11000 10999 10996 ] final  -80.67 input  -57.11 | X-H torsion

> <Gold.Protein.ActiveResidues>
 VAL166  LYS551  ARG553  GLY616  TRP617  ASP618  TYR619  PRO620  LYS621  CYS622 
 ASP623  PHE694  ASN695  SER759  ASP760  ASP761  ALA762  ILE779  LEU786  VAL792 
 PHE793  MET794  SER795  GLU796  ALA797  LYS798  CYS799  TRP800  GLU811  SER814 

> <Gold.Protein.RotatedAtoms>
  150.9874  133.6184  159.2713 H   0  0  0  0  0  0  0  0  0  0  0  0  # atno 6907 bound_to 6896
  151.3417  135.0864  159.9383 H   0  0  0  0  0  0  0  0  0  0  0  0  # atno 6908 bound_to 6896
  152.5235  133.9484  159.7714 H   0  0  0  0  0  0  0  0  0  0  0  0  # atno 6909 bound_to 6896
  146.2347  140.2059  142.8334 H   0  0  0  0  0  0  0  0  0  0  0  0  # atno 7974 bound_to 7965
  155.5072  140.0580  157.2929 H   0  0  0  0  0  0  0  0  0  0  0  0  # atno 8008 bound_to 7997
  154.4565  140.1975  156.0314 H   0  0  0  0  0  0  0  0  0  0  0  0  # atno 8009 bound_to 7997
  156.0809  140.3247  155.7696 H   0  0  0  0  0  0  0  0  0  0  0  0  # atno 8010 bound_to 7997
  140.2324  143.3597  152.0875 H   0  0  0  0  0  0  0  0  0  0  0  0  # atno 10167 bound_to 10162
  157.0990  131.0438  151.2506 H   0  0  0  0  0  0  0  0  0  0  0  0  # atno 10718 bound_to 10713
  153.0211  135.5265  154.7057 H   0  0  0  0  0  0  0  0  0  0  0  0  # atno 10763 bound_to 10752
  154.6154  135.2883  155.0388 H   0  0  0  0  0  0  0  0  0  0  0  0  # atno 10764 bound_to 10752
  154.1395  135.6580  153.4991 H   0  0  0  0  0  0  0  0  0  0  0  0  # atno 10765 bound_to 10752
  141.1667  133.7161  156.8308 H   0  0  0  0  0  0  0  0  0  0  0  0  # atno 11005 bound_to 11000
  144.9745  140.8400  143.5435 LP  0  0  0  0  0  0  0  0  0  0  0  0  # atno 17320 bound_to 7965
  145.2045  139.2235  143.5175 LP  0  0  0  0  0  0  0  0  0  0  0  0  # atno 17321 bound_to 7965
  139.5105  144.6886  151.5821 LP  0  0  0  0  0  0  0  0  0  0  0  0  # atno 17342 bound_to 10162
  140.6175  143.9320  150.6500 LP  0  0  0  0  0  0  0  0  0  0  0  0  # atno 17343 bound_to 10162
  157.4657  130.7679  149.7276 LP  0  0  0  0  0  0  0  0  0  0  0  0  # atno 17370 bound_to 10713
  155.9878  130.3964  150.3147 LP  0  0  0  0  0  0  0  0  0  0  0  0  # atno 17371 bound_to 10713
  140.2052  134.8868  157.3214 LP  0  0  0  0  0  0  0  0  0  0  0  0  # atno 17394 bound_to 11000
  140.2145  134.4099  155.7596 LP  0  0  0  0  0  0  0  0  0  0  0  0  # atno 17395 bound_to 11000

$$$$
