AV-unprocessed.smi:3023|AV-procd|sdf|11502|dock1
  -GOLD-   2272016433D 1   1.00000     0.00000
 Structure written by MMmdl.
 43 44  0  0  0  0  0  0  0  0  2 V2000
  149.3099  135.0858  155.0167 C   0  0  0  0  0  0  0  0  0  0  0  0
  149.6066  136.5139  154.7634 N   0  3  1  0  0  0  0  0  0  0  0  0
  148.8268  137.4099  155.6606 C   0  0  0  0  0  0  0  0  0  0  0  0
  148.3560  138.7059  154.9646 C   0  0  0  0  0  0  0  0  0  0  0  0
  149.4227  139.4416  154.1292 C   0  0  0  0  0  0  0  0  0  0  0  0
  150.7725  139.2521  154.6820 N   0  0  0  0  0  0  0  0  0  0  0  0
  151.3083  139.9662  155.7043 C   0  0  0  0  0  0  0  0  0  0  0  0
  152.4652  139.8103  156.0963 O   0  0  0  0  0  0  0  0  0  0  0  0
  150.4759  140.8721  156.2490 N   0  0  0  0  0  0  0  0  0  0  0  0
  150.8210  141.8295  157.2977 C   0  0  0  0  0  0  0  0  0  0  0  0
  151.6045  141.1647  158.4446 C   0  0  0  0  0  0  0  0  0  0  0  0
  151.8231  142.0882  159.6140 C   0  0  0  0  0  0  0  0  0  0  0  0
  151.5168  143.4764  159.7024 C   0  0  0  0  0  0  0  0  0  0  0  0
  151.8058  143.9922  160.8858 N   0  0  0  0  0  0  0  0  0  0  0  0
  152.3108  142.9580  161.5891 N   0  0  0  0  0  0  0  0  0  0  0  0
  152.7344  143.1629  162.9575 C   0  0  0  0  0  0  0  0  0  0  0  0
  152.3363  141.7976  160.8467 C   0  0  0  0  0  0  0  0  0  0  0  0
  151.4750  138.1001  154.1021 C   0  0  0  0  0  0  0  0  0  0  0  0
  151.0739  136.7786  154.7887 C   0  0  0  0  0  0  0  0  0  0  0  0
  149.6129  134.7973  156.0241 H   0  0  0  0  0  0  0  0  0  0  0  0
  149.8341  134.4473  154.3049 H   0  0  0  0  0  0  0  0  0  0  0  0
  148.2432  134.8867  154.9074 H   0  0  0  0  0  0  0  0  0  0  0  0
  147.9359  136.8954  156.0241 H   0  0  0  0  0  0  0  0  0  0  0  0
  149.4094  137.6410  156.5537 H   0  0  0  0  0  0  0  0  0  0  0  0
  147.5027  138.4862  154.3219 H   0  0  0  0  0  0  0  0  0  0  0  0
  147.9779  139.3817  155.7326 H   0  0  0  0  0  0  0  0  0  0  0  0
  149.3828  139.0621  153.1076 H   0  0  0  0  0  0  0  0  0  0  0  0
  149.1701  140.4983  154.0288 H   0  0  0  0  0  0  0  0  0  0  0  0
  149.5415  140.9347  155.8722 H   0  0  0  0  0  0  0  0  0  0  0  0
  151.4231  142.6227  156.8542 H   0  0  0  0  0  0  0  0  0  0  0  0
  149.9268  142.3145  157.6927 H   0  0  0  0  0  0  0  0  0  0  0  0
  151.0675  140.2709  158.7640 H   0  0  0  0  0  0  0  0  0  0  0  0
  152.5592  140.8065  158.0580 H   0  0  0  0  0  0  0  0  0  0  0  0
  151.0832  144.1170  158.9488 H   0  0  0  0  0  0  0  0  0  0  0  0
  153.3570  142.3291  163.2836 H   0  0  0  0  0  0  0  0  0  0  0  0
  151.8602  143.2295  163.6059 H   0  0  0  0  0  0  0  0  0  0  0  0
  153.3110  144.0852  163.0365 H   0  0  0  0  0  0  0  0  0  0  0  0
  152.7038  140.8679  161.2554 H   0  0  0  0  0  0  0  0  0  0  0  0
  151.2752  138.0309  153.0323 H   0  0  0  0  0  0  0  0  0  0  0  0
  152.5569  138.2289  154.1665 H   0  0  0  0  0  0  0  0  0  0  0  0
  151.4339  136.7592  155.8188 H   0  0  0  0  0  0  0  0  0  0  0  0
  151.5931  135.9691  154.2741 H   0  0  0  0  0  0  0  0  0  0  0  0
  149.2896  136.6934  153.8213 H   0  0  0  0  0  0  0  0  0  0  0  0
  1  2  1  0  0  0  0
  1 20  1  0  0  0  0
  1 21  1  0  0  0  0
  1 22  1  0  0  0  0
  2 19  1  0  0  0  0
  2  3  1  0  0  0  0
  2 43  1  0  0  0  0
  3  4  1  0  0  0  0
  3 23  1  0  0  0  0
  3 24  1  0  0  0  0
  4  5  1  0  0  0  0
  4 25  1  0  0  0  0
  4 26  1  0  0  0  0
  5  6  1  0  0  0  0
  5 27  1  0  0  0  0
  5 28  1  0  0  0  0
  6  7  1  0  0  0  0
  6 18  1  0  0  0  0
  7  8  2  0  0  0  0
  7  9  1  0  0  0  0
  9 10  1  0  0  0  0
  9 29  1  0  0  0  0
 10 11  1  0  0  0  0
 10 30  1  0  0  0  0
 10 31  1  0  0  0  0
 11 12  1  0  0  0  0
 11 32  1  0  0  0  0
 11 33  1  0  0  0  0
 12 17  2  0  0  0  0
 12 13  1  0  0  0  0
 13 14  2  0  0  0  0
 13 34  1  0  0  0  0
 14 15  1  0  0  0  0
 15 16  1  0  0  0  0
 15 17  1  0  0  0  0
 16 35  1  0  0  0  0
 16 36  1  0  0  0  0
 16 37  1  0  0  0  0
 17 38  1  0  0  0  0
 18 19  1  0  0  0  0
 18 39  1  0  0  0  0
 18 40  1  0  0  0  0
 19 41  1  0  0  0  0
 19 42  1  0  0  0  0
M  CHG  1   2   1
M  END
> <s_m_source_file>
AV-unprocessed.smi

> <i_m_source_file_index>
3023

> <i_lp_mmshare_version>
43012

> <i_f3d_flags>
0

> <s_epik_input>
W0NIM11OMVtDSDJdW0NIMl1bQ0gyXU4oW0NIMl1bQ0gyXTEpQyg9TylbTkhdW0NIMl1bQ0gyXWMyW2NIXW5uKFtDSDNdKVtjSF0y

> <s_epik_cmdline>
J2VwaWtfcHl0aG9uJywgJy1waCcsICc3LjAnLCAnLXRuJywgJzgnLCAnLW1hJywgJzIwMCcsICctbWV0YWxfYmluZGluZycsICctaW1hZScsICc8aW5maWxlLm1hZT4nLCAnLW9tYWUnLCAnPG91dGZpbGUubWFlPic=

> <r_lp_tautomer_probability>
1

> <r_epik_Ionization_Penalty>
0.00258886

> <r_epik_Ionization_Penalty_Charging>
0.00208099

> <r_epik_Ionization_Penalty_Neutral>
0.00050787

> <r_epik_State_Penalty>
-0

> <r_epik_Charging_Adjusted_Penalty>
0.00208099

> <i_epik_Tot_Q>
1

> <i_epik_Tot_abs_Q>
1

> <r_epik_Metal_State_Penalty>
-0

> <b_epik_Metal_Only>
0

> <s_lp_Force_Field>
OPLS_2005

> <r_lp_Energy>
39.0301

> <b_lp_Chiralities_Consistent>
1

> <s_lp_Variant>
AV-unprocessed.smi:3023-2

> <Gold.Version>
5.8.1

> <Gold.Id.Protein>
6NUR|6NUR_protein|mol2

> <Gold.PLP.Fitness>
47.9296

> <Gold.PLP.PLP>
-39.2402

> <Gold.PLP.part.hbond>
-2.0000

> <Gold.PLP.part.metal>
0.0000

> <Gold.PLP.part.buried>
-2.2914

> <Gold.PLP.part.nonpolar>
-34.4990

> <Gold.PLP.part.repulsive>
0.2104

> <Gold.PLP.ligand.clash>
0.0000

> <Gold.PLP.ligand.torsion>
0.1704

> <Gold.PLP.Chemscore.Hbond>
3.0000

> <Gold.PLP.Chemscore.CHOScore>
0.0000

> <Gold.PLP.Chemscore.Metal>
0.0000

> <Gold.Chemscore.Hbonds>
donor molecule, donor type, donor heavy atom, donor atom, acceptor molecule, acceptor atom, score
      L1  H     2    43       P1  7948  2.00
      P1  H  7997  8010       L1     8  1.00

> <Gold.PLP.Chemscore.Internal.Correction>
0.0302

> <Gold.Rescore>
     Score         DG    S(hbond)    S(metal)    S(lipo)     H(rot)  DE(clash)    DE(int)     intcor
     16.50     -18.20       1.81        0.00      87.55       1.39       0.36       1.34       ----

> <Gold.Chemscore.Fitness>
16.4952

> <Gold.Chemscore.DG>
-18.1989

> <Gold.Chemscore.ZeroCoef>
-5.4800

> <Gold.Chemscore.Hbond>
1.8071

> <Gold.Chemscore.Metal>
0.0000

> <Gold.Chemscore.Lipo>
87.5468

> <Gold.Chemscore.Internal_Hbond>
0.0000

> <Gold.Chemscore.DEClash>
0.3603

> <Gold.Chemscore.DEInternal>
1.3435

> <Gold.Chemscore.Rot>
1.3906

> <Gold.Chemscore.Internal.Correction>
   9.000000E+99

> <Gold.Chemscore.Hbonds>
donor molecule, donor type, donor heavy atom, donor atom, acceptor molecule, acceptor atom, score
      L1  H     2    43       P1  7948  0.88
      P1  H  7997  8010       L1     8  1.00

> <Gold.Chemscore.Hbond.Weighted>
-6.0358

> <Gold.Chemscore.Metal.Weighted>
-0.0000

> <Gold.Chemscore.Lipo.Weighted>
-10.2430

> <Gold.Chemscore.Internal_Hbond.Weighted>
0.0000

> <Gold.Chemscore.DEClash.Weighted>
0.3603

> <Gold.Chemscore.DEInternal.Weighted>
1.3435

> <Gold.Chemscore.Rot.Weighted>
3.5598

> <Gold.Chemscore.Internal.Correction.Weighted>
   9.000000E+99

> <Gold.Protein.RotatedTorsions>
[ 6907 6896 6895 6894 ] final -145.41 input  -60.11 | X-H torsion
[ 7974 7965 7964 7962 ] final -108.11 input  175.53 | X-H torsion
[ 8008 7997 7996 7995 ] final   85.65 input   59.86 | X-H torsion
[ 10167 10162 10161 10158 ] final   40.92 input  -65.29 | X-H torsion
[ 10718 10713 10712 10709 ] final  136.27 input   66.30 | X-H torsion
[ 10763 10752 10751 10750 ] final   48.98 input  -60.55 | X-H torsion
[ 11005 11000 10999 10996 ] final -154.63 input  -57.11 | X-H torsion

> <Gold.Protein.ActiveResidues>
 VAL166  LYS551  ARG553  GLY616  TRP617  ASP618  TYR619  PRO620  LYS621  CYS622 
 ASP623  PHE694  ASN695  SER759  ASP760  ASP761  ALA762  ILE779  LEU786  VAL792 
 PHE793  MET794  SER795  GLU796  ALA797  LYS798  CYS799  TRP800  GLU811  SER814 

> <Gold.Protein.RotatedAtoms>
  151.1273  133.5061  159.2599 H   0  0  0  0  0  0  0  0  0  0  0  0  # atno 6907 bound_to 6896
  151.1795  135.0354  159.8796 H   0  0  0  0  0  0  0  0  0  0  0  0  # atno 6908 bound_to 6896
  152.5458  134.1127  159.8419 H   0  0  0  0  0  0  0  0  0  0  0  0  # atno 6909 bound_to 6896
  145.1969  140.9039  143.3392 H   0  0  0  0  0  0  0  0  0  0  0  0  # atno 7974 bound_to 7965
  155.9527  140.3399  155.6422 H   0  0  0  0  0  0  0  0  0  0  0  0  # atno 8008 bound_to 7997
  155.6899  140.0748  157.2470 H   0  0  0  0  0  0  0  0  0  0  0  0  # atno 8009 bound_to 7997
  154.4125  140.1659  156.2063 H   0  0  0  0  0  0  0  0  0  0  0  0  # atno 8010 bound_to 7997
  140.3695  144.2124  150.6134 H   0  0  0  0  0  0  0  0  0  0  0  0  # atno 10167 bound_to 10162
  157.4484  131.1064  151.0062 H   0  0  0  0  0  0  0  0  0  0  0  0  # atno 10718 bound_to 10713
  152.9789  135.5926  154.4015 H   0  0  0  0  0  0  0  0  0  0  0  0  # atno 10763 bound_to 10752
  154.3660  135.2767  155.2295 H   0  0  0  0  0  0  0  0  0  0  0  0  # atno 10764 bound_to 10752
  154.4272  135.6045  153.6101 H   0  0  0  0  0  0  0  0  0  0  0  0  # atno 10765 bound_to 10752
  140.6952  134.3997  157.5215 H   0  0  0  0  0  0  0  0  0  0  0  0  # atno 11005 bound_to 11000
  144.9986  139.3620  143.6179 LP  0  0  0  0  0  0  0  0  0  0  0  0  # atno 17320 bound_to 7965
  146.3425  139.9199  142.8768 LP  0  0  0  0  0  0  0  0  0  0  0  0  # atno 17321 bound_to 7965
  140.5048  143.2307  151.8625 LP  0  0  0  0  0  0  0  0  0  0  0  0  # atno 17342 bound_to 10162
  139.4805  144.5018  151.9050 LP  0  0  0  0  0  0  0  0  0  0  0  0  # atno 17343 bound_to 10162
  157.0900  130.5938  149.5438 LP  0  0  0  0  0  0  0  0  0  0  0  0  # atno 17370 bound_to 10713
  155.9977  130.5049  150.7544 LP  0  0  0  0  0  0  0  0  0  0  0  0  # atno 17371 bound_to 10713
  139.8912  134.8786  156.2332 LP  0  0  0  0  0  0  0  0  0  0  0  0  # atno 17394 bound_to 11000
  141.0209  133.7042  156.1266 LP  0  0  0  0  0  0  0  0  0  0  0  0  # atno 17395 bound_to 11000

$$$$
