AV-unprocessed.smi:828|AV-procd|sdf|3863|dock9
  -GOLD-   22720 1313D 1   1.00000     0.00000
 Structure written by MMmdl.
 34 35  0  0  0  0  0  0  0  0  3 V2000
  151.2752  141.3193  156.5314 C   0  0  0  0  0  0  0  0  0  0  0  0
  151.2219  140.0500  155.7524 C   0  0  0  0  0  0  0  0  0  0  0  0
  150.6354  139.9618  154.5562 N   0  0  0  0  0  0  0  0  0  0  0  0
  150.7164  138.6818  154.0274 N   0  0  0  0  0  0  0  0  0  0  0  0
  151.3546  137.8199  154.8316 C   0  0  0  0  0  0  0  0  0  0  0  0
  151.5429  136.5315  154.5008 N   0  5  0  0  0  0  0  0  0  0  0  0
  150.7862  135.5695  155.0731 C   0  0  0  0  0  0  0  0  0  0  0  0
  151.0584  134.9323  156.0929 O   0  0  0  0  0  0  0  0  0  0  0  0
  149.6476  135.3206  154.4121 N   0  0  0  0  0  0  0  0  0  0  0  0
  148.6597  134.3009  154.7542 C   0  0  0  0  0  0  0  0  0  0  0  0
  148.1602  133.5218  153.5150 C   0  0  1  0  0  0  0  0  0  0  0  0
  147.4694  132.1938  153.8211 C   0  0  0  0  0  0  0  0  0  0  0  0
  146.6995  131.8763  152.5354 C   0  0  0  0  0  0  0  0  0  0  0  0
  146.6396  133.1971  151.7485 C   0  0  0  0  0  0  0  0  0  0  0  0
  147.2247  134.2437  152.6168 N   0  3  1  0  0  0  0  0  0  0  0  0
  146.1800  135.0534  153.2922 C   0  0  0  0  0  0  0  0  0  0  0  0
  151.9318  138.5512  156.3291 S   0  0  0  0  0  0  0  0  0  0  0  0
  150.2933  141.7928  156.5476 H   0  0  0  0  0  0  0  0  0  0  0  0
  151.9901  142.0053  156.0769 H   0  0  0  0  0  0  0  0  0  0  0  0
  151.5832  141.1212  157.5580 H   0  0  0  0  0  0  0  0  0  0  0  0
  149.4594  135.8823  153.5945 H   0  0  0  0  0  0  0  0  0  0  0  0
  149.0862  133.6104  155.4835 H   0  0  0  0  0  0  0  0  0  0  0  0
  147.8272  134.7922  155.2584 H   0  0  0  0  0  0  0  0  0  0  0  0
  149.0293  133.2859  152.8985 H   0  0  0  0  0  0  0  0  0  0  0  0
  148.1757  131.4085  154.0923 H   0  0  0  0  0  0  0  0  0  0  0  0
  146.7710  132.3138  154.6504 H   0  0  0  0  0  0  0  0  0  0  0  0
  147.2145  131.1126  151.9515 H   0  0  0  0  0  0  0  0  0  0  0  0
  145.7023  131.4984  152.7633 H   0  0  0  0  0  0  0  0  0  0  0  0
  147.2597  133.1158  150.8547 H   0  0  0  0  0  0  0  0  0  0  0  0
  145.6286  133.4369  151.4158 H   0  0  0  0  0  0  0  0  0  0  0  0
  145.5771  134.4431  153.9652 H   0  0  0  0  0  0  0  0  0  0  0  0
  145.5139  135.5015  152.5542 H   0  0  0  0  0  0  0  0  0  0  0  0
  146.6107  135.8741  153.8644 H   0  0  0  0  0  0  0  0  0  0  0  0
  147.7620  134.8806  152.0453 H   0  0  0  0  0  0  0  0  0  0  0  0
  1  2  1  0  0  0  0
  1 18  1  0  0  0  0
  1 19  1  0  0  0  0
  1 20  1  0  0  0  0
  2 17  1  0  0  0  0
  2  3  2  0  0  0  0
  3  4  1  0  0  0  0
  4  5  2  0  0  0  0
  5  6  1  0  0  0  0
  5 17  1  0  0  0  0
  6  7  1  0  0  0  0
  7  8  2  0  0  0  0
  7  9  1  0  0  0  0
  9 10  1  0  0  0  0
  9 21  1  0  0  0  0
 10 11  1  0  0  0  0
 10 22  1  0  0  0  0
 10 23  1  0  0  0  0
 11 15  1  0  0  0  0
 11 12  1  0  0  0  0
 11 24  1  0  0  0  0
 12 13  1  0  0  0  0
 12 25  1  0  0  0  0
 12 26  1  0  0  0  0
 13 14  1  0  0  0  0
 13 27  1  0  0  0  0
 13 28  1  0  0  0  0
 14 15  1  0  0  0  0
 14 29  1  0  0  0  0
 14 30  1  0  0  0  0
 15 16  1  0  0  0  0
 15 34  1  0  0  0  0
 16 31  1  0  0  0  0
 16 32  1  0  0  0  0
 16 33  1  0  0  0  0
M  CHG  1   6  -1
M  CHG  1  15   1
M  END
> <s_m_source_file>
AV-unprocessed.smi

> <i_m_source_file_index>
828

> <i_lp_mmshare_version>
43012

> <i_f3d_flags>
0

> <s_epik_input>
W0NIM11jMW5uYyhzMSlbTkhdQyg9TylbTkhdW0NIMl1bQ0BASF0yW0NIMl1bQ0gyXVtDSDJdTjJbQ0gzXQ==

> <s_epik_cmdline>
J2VwaWtfcHl0aG9uJywgJy1waCcsICc3LjAnLCAnLXRuJywgJzgnLCAnLW1hJywgJzIwMCcsICctbWV0YWxfYmluZGluZycsICctaW1hZScsICc8aW5maWxlLm1hZT4nLCAnLW9tYWUnLCAnPG91dGZpbGUubWFlPic=

> <r_lp_tautomer_probability>
1

> <r_epik_Ionization_Penalty>
3.94379

> <r_epik_Ionization_Penalty_Charging>
3.83377

> <r_epik_Ionization_Penalty_Neutral>
0.110023

> <r_epik_State_Penalty>
3.83036

> <r_epik_Charging_Adjusted_Penalty>
7.66413

> <i_epik_Tot_Q>
0

> <i_epik_Tot_abs_Q>
2

> <r_epik_Metal_State_Penalty>
0.575095

> <b_epik_Metal_Only>
1

> <s_lp_Force_Field>
OPLS_2005

> <r_lp_Energy>
27.8836

> <b_lp_Chiralities_Consistent>
1

> <s_lp_Variant>
AV-unprocessed.smi:828-6

> <Gold.Version>
5.8.1

> <Gold.Id.Protein>
6NUR|6NUR_protein|mol2

> <Gold.PLP.Fitness>
41.2217

> <Gold.PLP.PLP>
-26.5930

> <Gold.PLP.part.hbond>
-4.0000

> <Gold.PLP.part.metal>
0.0000

> <Gold.PLP.part.buried>
-2.9864

> <Gold.PLP.part.nonpolar>
-19.8499

> <Gold.PLP.part.repulsive>
0.5800

> <Gold.PLP.ligand.clash>
0.0000

> <Gold.PLP.ligand.torsion>
1.6884

> <Gold.PLP.Chemscore.Hbond>
6.0000

> <Gold.PLP.Chemscore.CHOScore>
0.0000

> <Gold.PLP.Chemscore.Metal>
0.0000

> <Gold.Chemscore.Hbonds>
donor molecule, donor type, donor heavy atom, donor atom, acceptor molecule, acceptor atom, score
      L1  H     9    21       P1  7948  1.00
      L1  H    15    34       P1  7948  2.00
      P1  H  7989  7998       L1     3  1.00
      P1  H 10752 10764       L1     6  1.80

> <Gold.PLP.Chemscore.Internal.Correction>
0.0056

> <Gold.Rescore>
     Score         DG    S(hbond)    S(metal)    S(lipo)     H(rot)  DE(clash)    DE(int)     intcor
     16.62     -18.47       3.49        0.00      40.29       1.31       0.23       1.62       ----

> <Gold.Chemscore.Fitness>
16.6202

> <Gold.Chemscore.DG>
-18.4689

> <Gold.Chemscore.ZeroCoef>
-5.4800

> <Gold.Chemscore.Hbond>
3.4855

> <Gold.Chemscore.Metal>
0.0000

> <Gold.Chemscore.Lipo>
40.2865

> <Gold.Chemscore.Internal_Hbond>
0.0000

> <Gold.Chemscore.DEClash>
0.2319

> <Gold.Chemscore.DEInternal>
1.6168

> <Gold.Chemscore.Rot>
1.3149

> <Gold.Chemscore.Internal.Correction>
   9.000000E+99

> <Gold.Chemscore.Hbonds>
donor molecule, donor type, donor heavy atom, donor atom, acceptor molecule, acceptor atom, score
      L1  H     9    21       P1  7948  0.44
      L1  H    15    34       P1  7948  0.68
      P1  H  7989  7998       L1     3  0.22
      P1  H 10752 10764       L1     6  0.18

> <Gold.Chemscore.Hbond.Weighted>
-11.6416

> <Gold.Chemscore.Metal.Weighted>
-0.0000

> <Gold.Chemscore.Lipo.Weighted>
-4.7135

> <Gold.Chemscore.Internal_Hbond.Weighted>
0.0000

> <Gold.Chemscore.DEClash.Weighted>
0.2319

> <Gold.Chemscore.DEInternal.Weighted>
1.6168

> <Gold.Chemscore.Rot.Weighted>
3.3662

> <Gold.Chemscore.Internal.Correction.Weighted>
   9.000000E+99

> <Gold.Protein.RotatedTorsions>
[ 6907 6896 6895 6894 ] final   52.30 input  -60.11 | X-H torsion
[ 7974 7965 7964 7962 ] final  -12.56 input  175.53 | X-H torsion
[ 8008 7997 7996 7995 ] final   65.60 input   59.86 | X-H torsion
[ 10167 10162 10161 10158 ] final  -70.33 input  -65.29 | X-H torsion
[ 10718 10713 10712 10709 ] final   38.34 input   66.30 | X-H torsion
[ 10763 10752 10751 10750 ] final  -75.33 input  -60.55 | X-H torsion
[ 11005 11000 10999 10996 ] final  156.19 input  -57.11 | X-H torsion

> <Gold.Protein.ActiveResidues>
 VAL166  LYS551  ARG553  GLY616  TRP617  ASP618  TYR619  PRO620  LYS621  CYS622 
 ASP623  PHE694  ASN695  SER759  ASP760  ASP761  ALA762  ILE779  LEU786  VAL792 
 PHE793  MET794  SER795  GLU796  ALA797  LYS798  CYS799  TRP800  GLU811  SER814 

> <Gold.Protein.RotatedAtoms>
  152.3218  134.7371  160.0311 H   0  0  0  0  0  0  0  0  0  0  0  0  # atno 6907 bound_to 6896
  151.7817  133.3345  159.3481 H   0  0  0  0  0  0  0  0  0  0  0  0  # atno 6908 bound_to 6896
  150.7374  134.5856  159.6005 H   0  0  0  0  0  0  0  0  0  0  0  0  # atno 6909 bound_to 6896
  146.2147  140.3075  142.8380 H   0  0  0  0  0  0  0  0  0  0  0  0  # atno 7974 bound_to 7965
  155.6642  140.3497  155.4794 H   0  0  0  0  0  0  0  0  0  0  0  0  # atno 8008 bound_to 7997
  155.9743  140.1162  157.0807 H   0  0  0  0  0  0  0  0  0  0  0  0  # atno 8009 bound_to 7997
  154.4174  140.1151  156.5335 H   0  0  0  0  0  0  0  0  0  0  0  0  # atno 8010 bound_to 7997
  140.5360  143.2318  151.7175 H   0  0  0  0  0  0  0  0  0  0  0  0  # atno 10167 bound_to 10162
  157.3577  130.7632  149.7024 H   0  0  0  0  0  0  0  0  0  0  0  0  # atno 10718 bound_to 10713
  154.4851  135.5835  153.6418 H   0  0  0  0  0  0  0  0  0  0  0  0  # atno 10763 bound_to 10752
  152.9853  135.6099  154.3196 H   0  0  0  0  0  0  0  0  0  0  0  0  # atno 10764 bound_to 10752
  154.3091  135.2845  155.2554 H   0  0  0  0  0  0  0  0  0  0  0  0  # atno 10765 bound_to 10752
  140.1652  134.8582  157.2623 H   0  0  0  0  0  0  0  0  0  0  0  0  # atno 11005 bound_to 11000
  144.9013  140.7645  143.5865 LP  0  0  0  0  0  0  0  0  0  0  0  0  # atno 17320 bound_to 7965
  145.3001  139.1853  143.4694 LP  0  0  0  0  0  0  0  0  0  0  0  0  # atno 17321 bound_to 7965
  139.4971  144.4041  152.0150 LP  0  0  0  0  0  0  0  0  0  0  0  0  # atno 17342 bound_to 10162
  140.3147  144.3498  150.6025 LP  0  0  0  0  0  0  0  0  0  0  0  0  # atno 17343 bound_to 10162
  155.9732  130.4122  150.4023 LP  0  0  0  0  0  0  0  0  0  0  0  0  # atno 17370 bound_to 10713
  157.2095  131.0457  151.2607 LP  0  0  0  0  0  0  0  0  0  0  0  0  # atno 17371 bound_to 10713
  140.2443  134.3759  155.7468 LP  0  0  0  0  0  0  0  0  0  0  0  0  # atno 17394 bound_to 11000
  141.2213  133.7282  156.8837 LP  0  0  0  0  0  0  0  0  0  0  0  0  # atno 17395 bound_to 11000

$$$$
