AV-unprocessed.smi:2424|AV-procd|sdf|9573|dock4
  -GOLD-   2272013203D 1   1.00000     0.00000
 Structure written by MMmdl.
 49 50  0  0  0  0  0  0  0  0  2 V2000
  151.8549  138.4748  154.6162 C   0  0  0  0  0  0  0  0  0  0  0  0
  150.7709  137.3964  154.4520 C   0  0  0  0  0  0  0  0  0  0  0  0
  150.2605  136.7624  155.7733 C   0  0  0  0  0  0  0  0  0  0  0  0
  149.5437  137.8495  156.6070 C   0  0  0  0  0  0  0  0  0  0  0  0
  148.3066  138.4751  155.9433 C   0  0  0  0  0  0  0  0  0  0  0  0
  149.4779  135.4278  155.6467 C   0  0  1  0  0  0  0  0  0  0  0  0
  148.8512  135.2152  154.3446 N   0  0  0  0  0  0  0  0  0  0  0  0
  147.9479  134.2659  154.0668 C   0  0  0  0  0  0  0  0  0  0  0  0
  147.5496  133.4485  154.8959 O   0  0  0  0  0  0  0  0  0  0  0  0
  147.5544  134.3445  152.7835 N   0  0  0  0  0  0  0  0  0  0  0  0
  146.6262  133.5474  152.1012 C   0  0  0  0  0  0  0  0  0  0  0  0
  145.7108  134.1238  151.2442 C   0  0  0  0  0  0  0  0  0  0  0  0
  144.7487  133.5287  150.5064 N   0  5  0  0  0  0  0  0  0  0  0  0
  144.6250  132.1728  150.5849 C   0  0  0  0  0  0  0  0  0  0  0  0
  143.7725  131.5619  149.9411 O   0  0  0  0  0  0  0  0  0  0  0  0
  145.5418  131.4243  151.4682 C   0  0  0  0  0  0  0  0  0  0  0  0
  145.4006  129.9141  151.5559 C   0  0  0  0  0  0  0  0  0  0  0  0
  146.4840  132.0934  152.1787 C   0  0  0  0  0  0  0  0  0  0  0  0
  150.7917  134.6557  155.7933 C   0  0  2  0  0  0  0  0  0  0  0  0
  150.8016  133.2990  156.4869 C   0  0  0  0  0  0  0  0  0  0  0  0
  151.3237  135.9014  156.5200 C   0  0  2  0  0  0  0  0  0  0  0  0
  151.1062  135.7888  157.9220 O   0  0  0  0  0  0  0  0  0  0  0  0
  151.5465  136.9262  158.6446 C   0  0  0  0  0  0  0  0  0  0  0  0
  152.2447  138.7732  153.6431 H   0  0  0  0  0  0  0  0  0  0  0  0
  152.6961  138.1162  155.2089 H   0  0  0  0  0  0  0  0  0  0  0  0
  151.4651  139.3741  155.0917 H   0  0  0  0  0  0  0  0  0  0  0  0
  149.9450  137.8109  153.8745 H   0  0  0  0  0  0  0  0  0  0  0  0
  151.1889  136.6234  153.8074 H   0  0  0  0  0  0  0  0  0  0  0  0
  149.2053  137.4211  157.5506 H   0  0  0  0  0  0  0  0  0  0  0  0
  150.2337  138.6407  156.8964 H   0  0  0  0  0  0  0  0  0  0  0  0
  147.8148  139.1642  156.6300 H   0  0  0  0  0  0  0  0  0  0  0  0
  147.5757  137.7159  155.6666 H   0  0  0  0  0  0  0  0  0  0  0  0
  148.5625  139.0425  155.0494 H   0  0  0  0  0  0  0  0  0  0  0  0
  148.8208  135.2534  156.5023 H   0  0  0  0  0  0  0  0  0  0  0  0
  149.1209  135.8431  153.6018 H   0  0  0  0  0  0  0  0  0  0  0  0
  147.9765  135.0729  152.2264 H   0  0  0  0  0  0  0  0  0  0  0  0
  145.7587  135.2289  151.1343 H   0  0  0  0  0  0  0  0  0  0  0  0
  146.1357  129.4848  152.2370 H   0  0  0  0  0  0  0  0  0  0  0  0
  145.5450  129.4602  150.5751 H   0  0  0  0  0  0  0  0  0  0  0  0
  144.4081  129.6447  151.9184 H   0  0  0  0  0  0  0  0  0  0  0  0
  147.1340  131.5126  152.8123 H   0  0  0  0  0  0  0  0  0  0  0  0
  151.2915  134.5795  154.8258 H   0  0  0  0  0  0  0  0  0  0  0  0
  150.2440  133.3221  157.4235 H   0  0  0  0  0  0  0  0  0  0  0  0
  151.8186  132.9809  156.7155 H   0  0  0  0  0  0  0  0  0  0  0  0
  150.3484  132.5339  155.8566 H   0  0  0  0  0  0  0  0  0  0  0  0
  152.3625  136.1109  156.2597 H   0  0  0  0  0  0  0  0  0  0  0  0
  151.3140  136.7991  159.7016 H   0  0  0  0  0  0  0  0  0  0  0  0
  151.0584  137.8374  158.2995 H   0  0  0  0  0  0  0  0  0  0  0  0
  152.6256  137.0537  158.5511 H   0  0  0  0  0  0  0  0  0  0  0  0
  1  2  1  0  0  0  0
  1 24  1  0  0  0  0
  1 25  1  0  0  0  0
  1 26  1  0  0  0  0
  2  3  1  0  0  0  0
  2 27  1  0  0  0  0
  2 28  1  0  0  0  0
  3 21  1  0  0  0  0
  3  4  1  0  0  0  0
  3  6  1  0  0  0  0
  4  5  1  0  0  0  0
  4 29  1  0  0  0  0
  4 30  1  0  0  0  0
  5 31  1  0  0  0  0
  5 32  1  0  0  0  0
  5 33  1  0  0  0  0
  6  7  1  0  0  0  0
  6 19  1  0  0  0  0
  6 34  1  0  0  0  0
  7  8  1  0  0  0  0
  7 35  1  0  0  0  0
  8  9  2  0  0  0  0
  8 10  1  0  0  0  0
 10 11  1  0  0  0  0
 10 36  1  0  0  0  0
 11 18  1  0  0  0  0
 11 12  2  0  0  0  0
 12 13  1  0  0  0  0
 12 37  1  0  0  0  0
 13 14  1  0  0  0  0
 14 15  2  0  0  0  0
 14 16  1  0  0  0  0
 16 17  1  0  0  0  0
 16 18  2  0  0  0  0
 17 38  1  0  0  0  0
 17 39  1  0  0  0  0
 17 40  1  0  0  0  0
 18 41  1  0  0  0  0
 19 20  1  0  0  0  0
 19 21  1  0  0  0  0
 19 42  1  0  0  0  0
 20 43  1  0  0  0  0
 20 44  1  0  0  0  0
 20 45  1  0  0  0  0
 21 22  1  0  0  0  0
 21 46  1  0  0  0  0
 22 23  1  0  0  0  0
 23 47  1  0  0  0  0
 23 48  1  0  0  0  0
 23 49  1  0  0  0  0
M  CHG  1  13  -1
M  END
> <s_m_source_file>
AV-unprocessed.smi

> <i_m_source_file_index>
2424

> <i_lp_mmshare_version>
43012

> <i_f3d_flags>
0

> <s_epik_input>
W0NIM11PW0NAQEhdMVtDQEhdKFtDSDNdKVtDQEBIXShDMShbQ0gyXVtDSDNdKVtDSDJdW0NIM10pW05IXUMoPU8pW05IXWMyW2NIXVtuSF1jKD1PKWMoW0NIM10pW2NIXTI=

> <s_epik_cmdline>
J2VwaWtfcHl0aG9uJywgJy1waCcsICc3LjAnLCAnLXRuJywgJzgnLCAnLW1hJywgJzIwMCcsICctbWV0YWxfYmluZGluZycsICctaW1hZScsICc8aW5maWxlLm1hZT4nLCAnLW9tYWUnLCAnPG91dGZpbGUubWFlPic=

> <r_lp_tautomer_probability>
1

> <r_epik_Ionization_Penalty>
7.6122

> <r_epik_Ionization_Penalty_Charging>
1.53843

> <r_epik_Ionization_Penalty_Neutral>
6.07377

> <r_epik_State_Penalty>
6.07371

> <r_epik_Charging_Adjusted_Penalty>
7.61214

> <i_epik_Tot_Q>
-1

> <i_epik_Tot_abs_Q>
1

> <r_epik_Metal_State_Penalty>
2.02136

> <b_epik_Metal_Only>
1

> <s_lp_Force_Field>
OPLS_2005

> <r_lp_Energy>
41.9258

> <b_lp_Chiralities_Consistent>
1

> <s_lp_Variant>
AV-unprocessed.smi:2424-15

> <Gold.Version>
5.8.1

> <Gold.Id.Protein>
6NUR|6NUR_protein|mol2

> <Gold.PLP.Fitness>
40.0338

> <Gold.PLP.PLP>
-31.1823

> <Gold.PLP.part.hbond>
-3.9164

> <Gold.PLP.part.metal>
0.0000

> <Gold.PLP.part.buried>
-5.1290

> <Gold.PLP.part.nonpolar>
-24.0566

> <Gold.PLP.part.repulsive>
0.3352

> <Gold.PLP.ligand.clash>
0.0000

> <Gold.PLP.ligand.torsion>
0.8409

> <Gold.PLP.Chemscore.Hbond>
3.2744

> <Gold.PLP.Chemscore.CHOScore>
0.0000

> <Gold.PLP.Chemscore.Metal>
0.0000

> <Gold.Chemscore.Hbonds>
donor molecule, donor type, donor heavy atom, donor atom, acceptor molecule, acceptor atom, score
      L1  H     7    35       P1  7948  0.91
      L1  H    10    36       P1  7948  0.98
      P1  H  6896  6908       L1    22  0.24
      P1  H 10785 10796       L1    15  0.83

> <Gold.PLP.Chemscore.Internal.Correction>
0.7101

> <Gold.Rescore>
     Score         DG    S(hbond)    S(metal)    S(lipo)     H(rot)  DE(clash)    DE(int)     intcor
     18.70     -19.75       2.79        0.00      75.58       1.52       0.09       0.96       ----

> <Gold.Chemscore.Fitness>
18.7038

> <Gold.Chemscore.DG>
-19.7550

> <Gold.Chemscore.ZeroCoef>
-5.4800

> <Gold.Chemscore.Hbond>
2.7916

> <Gold.Chemscore.Metal>
0.0000

> <Gold.Chemscore.Lipo>
75.5842

> <Gold.Chemscore.Internal_Hbond>
0.0000

> <Gold.Chemscore.DEClash>
0.0947

> <Gold.Chemscore.DEInternal>
0.9564

> <Gold.Chemscore.Rot>
1.5204

> <Gold.Chemscore.Internal.Correction>
   9.000000E+99

> <Gold.Chemscore.Hbonds>
donor molecule, donor type, donor heavy atom, donor atom, acceptor molecule, acceptor atom, score
      L1  H     7    35       P1  7948  0.74
      L1  H    10    36       P1  7948  0.74
      P1  H  6896  6908       L1    22  0.03
      P1  H 10785 10796       L1    15  0.81

> <Gold.Chemscore.Hbond.Weighted>
-9.3239

> <Gold.Chemscore.Metal.Weighted>
-0.0000

> <Gold.Chemscore.Lipo.Weighted>
-8.8433

> <Gold.Chemscore.Internal_Hbond.Weighted>
0.0000

> <Gold.Chemscore.DEClash.Weighted>
0.0947

> <Gold.Chemscore.DEInternal.Weighted>
0.9564

> <Gold.Chemscore.Rot.Weighted>
3.8922

> <Gold.Chemscore.Internal.Correction.Weighted>
   9.000000E+99

> <Gold.Protein.RotatedTorsions>
[ 6907 6896 6895 6894 ] final  174.28 input  -60.11 | X-H torsion
[ 7974 7965 7964 7962 ] final -154.57 input  175.53 | X-H torsion
[ 8008 7997 7996 7995 ] final   23.58 input   59.86 | X-H torsion
[ 10167 10162 10161 10158 ] final  146.05 input  -65.29 | X-H torsion
[ 10718 10713 10712 10709 ] final  144.67 input   66.30 | X-H torsion
[ 10763 10752 10751 10750 ] final   36.56 input  -60.55 | X-H torsion
[ 11005 11000 10999 10996 ] final  -34.86 input  -57.11 | X-H torsion

> <Gold.Protein.ActiveResidues>
 VAL166  LYS551  ARG553  GLY616  TRP617  ASP618  TYR619  PRO620  LYS621  CYS622 
 ASP623  PHE694  ASN695  SER759  ASP760  ASP761  ALA762  ILE779  LEU786  VAL792 
 PHE793  MET794  SER795  GLU796  ALA797  LYS798  CYS799  TRP800  GLU811  SER814 

> <Gold.Protein.RotatedAtoms>
  151.7547  133.3329  159.3401 H   0  0  0  0  0  0  0  0  0  0  0  0  # atno 6907 bound_to 6896
  150.7521  134.6160  159.6120 H   0  0  0  0  0  0  0  0  0  0  0  0  # atno 6908 bound_to 6896
  152.3445  134.7092  160.0306 H   0  0  0  0  0  0  0  0  0  0  0  0  # atno 6909 bound_to 6896
  144.7683  140.4370  143.5926 H   0  0  0  0  0  0  0  0  0  0  0  0  # atno 7974 bound_to 7965
  154.9831  140.3104  155.4938 H   0  0  0  0  0  0  0  0  0  0  0  0  # atno 8008 bound_to 7997
  156.2950  140.2263  156.4871 H   0  0  0  0  0  0  0  0  0  0  0  0  # atno 8009 bound_to 7997
  154.7771  140.0448  157.1086 H   0  0  0  0  0  0  0  0  0  0  0  0  # atno 8010 bound_to 7997
  139.4914  144.5857  151.6782 H   0  0  0  0  0  0  0  0  0  0  0  0  # atno 10167 bound_to 10162
  157.3545  131.0956  151.0971 H   0  0  0  0  0  0  0  0  0  0  0  0  # atno 10718 bound_to 10713
  153.0072  135.6302  154.2005 H   0  0  0  0  0  0  0  0  0  0  0  0  # atno 10763 bound_to 10752
  154.1749  135.2816  155.3071 H   0  0  0  0  0  0  0  0  0  0  0  0  # atno 10764 bound_to 10752
  154.5880  135.5626  153.7310 H   0  0  0  0  0  0  0  0  0  0  0  0  # atno 10765 bound_to 10752
  140.9750  133.7088  156.1588 H   0  0  0  0  0  0  0  0  0  0  0  0  # atno 11005 bound_to 11000
  145.6403  139.1549  143.2919 LP  0  0  0  0  0  0  0  0  0  0  0  0  # atno 17320 bound_to 7965
  146.1808  140.6500  142.9190 LP  0  0  0  0  0  0  0  0  0  0  0  0  # atno 17321 bound_to 7965
  140.5473  144.0482  150.6112 LP  0  0  0  0  0  0  0  0  0  0  0  0  # atno 17342 bound_to 10162
  140.3525  143.2955  152.0472 LP  0  0  0  0  0  0  0  0  0  0  0  0  # atno 17343 bound_to 10162
  157.2134  130.6448  149.5783 LP  0  0  0  0  0  0  0  0  0  0  0  0  # atno 17370 bound_to 10713
  155.9727  130.4652  150.6247 LP  0  0  0  0  0  0  0  0  0  0  0  0  # atno 17371 bound_to 10713
  140.7272  134.4294  157.5569 LP  0  0  0  0  0  0  0  0  0  0  0  0  # atno 17394 bound_to 11000
  139.8927  134.8748  156.2258 LP  0  0  0  0  0  0  0  0  0  0  0  0  # atno 17395 bound_to 11000

$$$$
