AV-unprocessed.smi:196|AV-procd|sdf|1538|dock6
  -GOLD-   2262019393D 1   1.00000     0.00000
 Structure written by MMmdl.
 47 50  0  0  0  0  0  0  0  0  1 V2000
  143.8863  135.6074  162.0095 C   0  0  0  0  0  0  0  0  0  0  0  0
  145.3215  135.0957  161.8052 C   0  0  2  0  0  0  0  0  0  0  0  0
  145.8994  134.7145  163.0452 O   0  0  0  0  0  0  0  0  0  0  0  0
  147.2980  134.6314  162.8406 C   0  0  0  0  0  0  0  0  0  0  0  0
  147.5930  135.8905  162.0341 C   0  0  0  0  0  0  0  0  0  0  0  0
  146.3411  136.0797  161.1716 C   0  0  2  0  0  0  0  0  0  0  0  0
  145.9195  137.4282  161.2967 O   0  0  0  0  0  0  0  0  0  0  0  0
  146.6172  135.7953  159.6746 C   0  0  0  0  0  0  0  0  0  0  0  0
  147.3930  136.8376  159.0190 N   0  0  0  0  0  0  0  0  0  0  0  0
  148.6817  137.2198  159.3198 C   0  0  0  0  0  0  0  0  0  0  0  0
  149.1609  138.1905  158.5910 N   0  0  0  0  0  0  0  0  0  0  0  0
  148.1277  138.4923  157.7140 C   0  0  0  0  0  0  0  0  0  0  0  0
  147.9747  139.4327  156.6616 C   0  0  0  0  0  0  0  0  0  0  0  0
  148.9711  140.3022  156.3472 N   0  0  0  0  0  0  0  0  0  0  0  0
  148.5153  141.6858  156.4286 C   0  0  0  0  0  0  0  0  0  0  0  0
  148.2422  142.1415  154.9858 C   0  0  2  0  0  0  0  0  0  0  0  0
  146.9336  142.2501  154.7545 F   0  0  0  0  0  0  0  0  0  0  0  0
  148.8527  141.0521  154.0952 C   0  0  0  0  0  0  0  0  0  0  0  0
  149.6946  140.2131  155.0707 C   0  0  2  0  0  0  0  0  0  0  0  0
  150.0874  138.8052  154.5734 C   0  0  0  0  0  0  0  0  0  0  0  0
  149.7481  138.4871  153.3215 N   0  0  0  0  0  0  0  0  0  0  0  0
  150.7257  138.0296  155.2833 O   0  0  0  0  0  0  0  0  0  0  0  0
  146.7830  139.4567  156.0064 N   0  0  0  0  0  0  0  0  0  0  0  0
  145.8143  138.6006  156.3439 C   0  0  0  0  0  0  0  0  0  0  0  0
  145.8222  137.6638  157.2944 N   0  0  0  0  0  0  0  0  0  0  0  0
  147.0101  137.6485  157.9645 C   0  0  0  0  0  0  0  0  0  0  0  0
  148.6849  143.1195  154.7946 H   0  0  0  0  0  0  0  0  0  0  0  0
  150.6405  140.7338  155.2320 H   0  0  0  0  0  0  0  0  0  0  0  0
  143.4372  135.9079  161.0625 H   0  0  0  0  0  0  0  0  0  0  0  0
  143.8565  136.4621  162.6856 H   0  0  0  0  0  0  0  0  0  0  0  0
  143.2577  134.8279  162.4399 H   0  0  0  0  0  0  0  0  0  0  0  0
  145.2799  134.1852  161.2070 H   0  0  0  0  0  0  0  0  0  0  0  0
  147.8435  134.5960  163.7838 H   0  0  0  0  0  0  0  0  0  0  0  0
  147.5358  133.7331  162.2681 H   0  0  0  0  0  0  0  0  0  0  0  0
  147.7234  136.7251  162.7254 H   0  0  0  0  0  0  0  0  0  0  0  0
  148.5129  135.8032  161.4547 H   0  0  0  0  0  0  0  0  0  0  0  0
  145.5999  137.5623  162.1757 H   0  0  0  0  0  0  0  0  0  0  0  0
  147.1495  134.8500  159.5586 H   0  0  0  0  0  0  0  0  0  0  0  0
  145.6755  135.6802  159.1364 H   0  0  0  0  0  0  0  0  0  0  0  0
  149.2577  136.7577  160.1082 H   0  0  0  0  0  0  0  0  0  0  0  0
  147.6414  141.8212  157.0696 H   0  0  0  0  0  0  0  0  0  0  0  0
  149.3191  142.2799  156.8653 H   0  0  0  0  0  0  0  0  0  0  0  0
  148.0686  140.4492  153.6348 H   0  0  0  0  0  0  0  0  0  0  0  0
  149.4549  141.4761  153.2910 H   0  0  0  0  0  0  0  0  0  0  0  0
  149.9872  137.5799  152.9487 H   0  0  0  0  0  0  0  0  0  0  0  0
  149.2567  139.1595  152.7506 H   0  0  0  0  0  0  0  0  0  0  0  0
  144.9019  138.6790  155.7715 H   0  0  0  0  0  0  0  0  0  0  0  0
  1  2  1  0  0  0  0
  1 29  1  0  0  0  0
  1 30  1  0  0  0  0
  1 31  1  0  0  0  0
  2  6  1  0  0  0  0
  2  3  1  0  0  0  0
  2 32  1  0  0  0  0
  3  4  1  0  0  0  0
  4  5  1  0  0  0  0
  4 33  1  0  0  0  0
  4 34  1  0  0  0  0
  5  6  1  0  0  0  0
  5 35  1  0  0  0  0
  5 36  1  0  0  0  0
  6  7  1  0  0  0  0
  6  8  1  0  0  0  0
  7 37  1  0  0  0  0
  8  9  1  0  0  0  0
  8 38  1  0  0  0  0
  8 39  1  0  0  0  0
  9 26  1  0  0  0  0
  9 10  1  0  0  0  0
 10 11  2  0  0  0  0
 10 40  1  0  0  0  0
 11 12  1  0  0  0  0
 12 26  2  0  0  0  0
 12 13  1  0  0  0  0
 13 14  1  0  0  0  0
 13 23  2  0  0  0  0
 14 19  1  0  0  0  0
 14 15  1  0  0  0  0
 15 16  1  0  0  0  0
 15 41  1  0  0  0  0
 15 42  1  0  0  0  0
 16 27  1  0  0  0  0
 16 17  1  0  0  0  0
 16 18  1  0  0  0  0
 18 19  1  0  0  0  0
 18 43  1  0  0  0  0
 18 44  1  0  0  0  0
 19 28  1  0  0  0  0
 19 20  1  0  0  0  0
 20 21  1  0  0  0  0
 20 22  2  0  0  0  0
 21 45  1  0  0  0  0
 21 46  1  0  0  0  0
 23 24  1  0  0  0  0
 24 25  2  0  0  0  0
 24 47  1  0  0  0  0
 25 26  1  0  0  0  0
M  END
> <s_m_source_file>
AV-unprocessed.smi

> <i_m_source_file_index>
196

> <i_lp_mmshare_version>
43012

> <i_f3d_flags>
0

> <s_epik_input>
W0NIMl0xW0NIMl1PW0NAQEhdKFtDSDNdKVtDQEBdMShbT0hdKVtDSDJdbihbY0hdbjIpYyhjMjMpbltjSF1uYzNONFtDSDJdW0NASF0oRilbQ0gyXVtDQEhdNEMoPU8pW05IMl0=

> <s_epik_cmdline>
J2VwaWtfcHl0aG9uJywgJy1waCcsICc3LjAnLCAnLXRuJywgJzgnLCAnLW1hJywgJzIwMCcsICctbWV0YWxfYmluZGluZycsICctaW1hZScsICc8aW5maWxlLm1hZT4nLCAnLW9tYWUnLCAnPG91dGZpbGUubWFlPic=

> <r_lp_tautomer_probability>
1

> <r_epik_Ionization_Penalty>
0.000857933

> <r_epik_Ionization_Penalty_Charging>
0

> <r_epik_Ionization_Penalty_Neutral>
0.000857933

> <r_epik_State_Penalty>
0.000462053

> <r_epik_Charging_Adjusted_Penalty>
0.000462053

> <i_epik_Tot_Q>
0

> <i_epik_Tot_abs_Q>
0

> <r_epik_Metal_State_Penalty>
-0

> <b_epik_Metal_Only>
0

> <s_lp_Force_Field>
OPLS_2005

> <r_lp_Energy>
50.5725

> <b_lp_Chiralities_Consistent>
1

> <s_lp_Variant>
AV-unprocessed.smi:196-11

> <Gold.Version>
5.8.1

> <Gold.Id.Protein>
6NUR|6NUR_protein|mol2

> <Gold.PLP.Fitness>
39.3024

> <Gold.PLP.PLP>
-32.4614

> <Gold.PLP.part.hbond>
-3.8307

> <Gold.PLP.part.metal>
0.0000

> <Gold.PLP.part.buried>
-1.1093

> <Gold.PLP.part.nonpolar>
-27.2732

> <Gold.PLP.part.repulsive>
0.2282

> <Gold.PLP.ligand.clash>
0.0000

> <Gold.PLP.ligand.torsion>
0.2746

> <Gold.PLP.Chemscore.Hbond>
2.4400

> <Gold.PLP.Chemscore.CHOScore>
0.0000

> <Gold.PLP.Chemscore.Metal>
0.0000

> <Gold.Chemscore.Hbonds>
donor molecule, donor type, donor heavy atom, donor atom, acceptor molecule, acceptor atom, score
      L1  H    21    45       P1  7948  0.64
      L1  H    21    46       P1  7957  0.69
      P1  H  6934  6947       L1     7  0.96

> <Gold.PLP.Chemscore.Internal.Correction>
0.0703

> <Gold.Rescore>
     Score         DG    S(hbond)    S(metal)    S(lipo)     H(rot)  DE(clash)    DE(int)     intcor
      9.14     -11.88       1.91        0.00      66.72       3.04       2.52       0.23       ----

> <Gold.Chemscore.Fitness>
9.1351

> <Gold.Chemscore.DG>
-11.8834

> <Gold.Chemscore.ZeroCoef>
-5.4800

> <Gold.Chemscore.Hbond>
1.9110

> <Gold.Chemscore.Metal>
0.0000

> <Gold.Chemscore.Lipo>
66.7196

> <Gold.Chemscore.Internal_Hbond>
0.0000

> <Gold.Chemscore.DEClash>
2.5207

> <Gold.Chemscore.DEInternal>
0.2275

> <Gold.Chemscore.Rot>
3.0413

> <Gold.Chemscore.Internal.Correction>
   9.000000E+99

> <Gold.Chemscore.Hbonds>
donor molecule, donor type, donor heavy atom, donor atom, acceptor molecule, acceptor atom, score
      L1  H    21    45       P1  7948  0.14
      L1  H    21    46       P1  7957  0.70
      P1  H  6934  6947       L1     7  0.39

> <Gold.Chemscore.Hbond.Weighted>
-6.3829

> <Gold.Chemscore.Metal.Weighted>
-0.0000

> <Gold.Chemscore.Lipo.Weighted>
-7.8062

> <Gold.Chemscore.Internal_Hbond.Weighted>
0.0000

> <Gold.Chemscore.DEClash.Weighted>
2.5207

> <Gold.Chemscore.DEInternal.Weighted>
0.2275

> <Gold.Chemscore.Rot.Weighted>
7.7856

> <Gold.Chemscore.Internal.Correction.Weighted>
   9.000000E+99

> <Gold.Protein.RotatedTorsions>
[ 6907 6896 6895 6894 ] final   22.13 input  -60.11 | X-H torsion
[ 7974 7965 7964 7962 ] final  -30.62 input  175.53 | X-H torsion
[ 8008 7997 7996 7995 ] final   57.22 input   59.86 | X-H torsion
[ 10167 10162 10161 10158 ] final   30.83 input  -65.29 | X-H torsion
[ 10718 10713 10712 10709 ] final -172.45 input   66.30 | X-H torsion
[ 10763 10752 10751 10750 ] final  -35.39 input  -60.55 | X-H torsion
[ 11005 11000 10999 10996 ] final  -60.58 input  -57.11 | X-H torsion

> <Gold.Protein.ActiveResidues>
 VAL166  LYS551  ARG553  GLY616  TRP617  ASP618  TYR619  PRO620  LYS621  CYS622 
 ASP623  PHE694  ASN695  SER759  ASP760  ASP761  ALA762  ILE779  LEU786  VAL792 
 PHE793  MET794  SER795  GLU796  ALA797  LYS798  CYS799  TRP800  GLU811  SER814 

> <Gold.Protein.RotatedAtoms>
  151.9223  135.0293  160.0522 H   0  0  0  0  0  0  0  0  0  0  0  0  # atno 6907 bound_to 6896
  152.2189  133.4963  159.5159 H   0  0  0  0  0  0  0  0  0  0  0  0  # atno 6908 bound_to 6896
  150.6994  134.1286  159.4104 H   0  0  0  0  0  0  0  0  0  0  0  0  # atno 6909 bound_to 6896
  146.1129  140.5563  142.8769 H   0  0  0  0  0  0  0  0  0  0  0  0  # atno 7974 bound_to 7965
  155.5302  140.3482  155.4425 H   0  0  0  0  0  0  0  0  0  0  0  0  # atno 8008 bound_to 7997
  156.0723  140.1366  156.9840 H   0  0  0  0  0  0  0  0  0  0  0  0  # atno 8009 bound_to 7997
  154.4535  140.0963  156.6663 H   0  0  0  0  0  0  0  0  0  0  0  0  # atno 8010 bound_to 7997
  140.4643  144.0860  150.6220 H   0  0  0  0  0  0  0  0  0  0  0  0  # atno 10167 bound_to 10162
  156.7558  130.9395  151.3116 H   0  0  0  0  0  0  0  0  0  0  0  0  # atno 10718 bound_to 10713
  153.8624  135.6839  153.4781 H   0  0  0  0  0  0  0  0  0  0  0  0  # atno 10763 bound_to 10752
  153.1334  135.4688  154.9382 H   0  0  0  0  0  0  0  0  0  0  0  0  # atno 10764 bound_to 10752
  154.7752  135.3251  154.8056 H   0  0  0  0  0  0  0  0  0  0  0  0  # atno 10765 bound_to 10752
  141.1292  133.6623  156.5245 H   0  0  0  0  0  0  0  0  0  0  0  0  # atno 11005 bound_to 11000
  144.7527  140.5232  143.6790 LP  0  0  0  0  0  0  0  0  0  0  0  0  # atno 17320 bound_to 7965
  145.5626  139.1480  143.3333 LP  0  0  0  0  0  0  0  0  0  0  0  0  # atno 17321 bound_to 7965
  140.4056  143.2682  151.9895 LP  0  0  0  0  0  0  0  0  0  0  0  0  # atno 17342 bound_to 10162
  139.4810  144.5960  151.7689 LP  0  0  0  0  0  0  0  0  0  0  0  0  # atno 17343 bound_to 10162
  157.6757  130.9092  150.0144 LP  0  0  0  0  0  0  0  0  0  0  0  0  # atno 17370 bound_to 10713
  156.1371  130.3642  149.9639 LP  0  0  0  0  0  0  0  0  0  0  0  0  # atno 17371 bound_to 10713
  140.4265  134.7140  157.4919 LP  0  0  0  0  0  0  0  0  0  0  0  0  # atno 17394 bound_to 11000
  140.0323  134.6388  155.9090 LP  0  0  0  0  0  0  0  0  0  0  0  0  # atno 17395 bound_to 11000

$$$$
