AV-unprocessed.smi:1301|AV-procd|sdf|5423|dock8
  -GOLD-   22720 4583D 1   1.00000     0.00000
 Structure written by MMmdl.
 44 45  0  0  0  0  0  0  0  0  3 V2000
  151.5681  139.9609  158.9632 C   0  0  0  0  0  0  0  0  0  0  0  0
  150.7537  138.7564  158.6345 C   0  0  0  0  0  0  0  0  0  0  0  0
  150.7936  137.4632  159.0727 C   0  0  0  0  0  0  0  0  0  0  0  0
  149.7326  136.8447  158.3569 C   0  0  0  0  0  0  0  0  0  0  0  0
  149.3769  135.5532  158.4373 N   0  5  0  0  0  0  0  0  0  0  0  0
  148.4580  135.0459  157.5847 C   0  0  0  0  0  0  0  0  0  0  0  0
  147.2334  135.0700  157.7279 O   0  0  0  0  0  0  0  0  0  0  0  0
  148.9931  134.4747  156.4961 N   0  0  0  0  0  0  0  0  0  0  0  0
  148.2535  133.8456  155.4064 C   0  0  2  0  0  0  0  0  0  0  0  0
  149.2345  133.3478  154.3339 C   0  0  0  0  0  0  0  0  0  0  0  0
  148.4865  132.7648  153.1243 C   0  0  0  0  0  0  0  0  0  0  0  0
  147.5449  133.7574  152.5449 N   0  3  1  0  0  0  0  0  0  0  0  0
  146.9186  133.2697  151.2888 C   0  0  0  0  0  0  0  0  0  0  0  0
  145.7616  132.2754  151.5308 C   0  0  0  0  0  0  0  0  0  0  0  0
  146.2935  130.9675  152.1351 C   0  0  0  0  0  0  0  0  0  0  0  0
  144.9716  131.9879  150.2428 C   0  0  0  0  0  0  0  0  0  0  0  0
  146.5579  134.2223  153.5553 C   0  0  0  0  0  0  0  0  0  0  0  0
  147.2615  134.8388  154.7749 C   0  0  0  0  0  0  0  0  0  0  0  0
  149.1136  137.6845  157.5438 N   0  0  0  0  0  0  0  0  0  0  0  0
  149.7579  138.9148  157.7212 O   0  0  0  0  0  0  0  0  0  0  0  0
  152.6289  139.7618  158.8115 H   0  0  0  0  0  0  0  0  0  0  0  0
  151.4240  140.2503  160.0041 H   0  0  0  0  0  0  0  0  0  0  0  0
  151.2906  140.8081  158.3355 H   0  0  0  0  0  0  0  0  0  0  0  0
  151.4710  137.0282  159.7923 H   0  0  0  0  0  0  0  0  0  0  0  0
  150.0000  134.4789  156.4234 H   0  0  0  0  0  0  0  0  0  0  0  0
  147.7033  132.9854  155.7929 H   0  0  0  0  0  0  0  0  0  0  0  0
  149.8721  134.1693  154.0029 H   0  0  0  0  0  0  0  0  0  0  0  0
  149.8981  132.5922  154.7562 H   0  0  0  0  0  0  0  0  0  0  0  0
  149.2143  132.4621  152.3707 H   0  0  0  0  0  0  0  0  0  0  0  0
  147.9382  131.8675  153.4159 H   0  0  0  0  0  0  0  0  0  0  0  0
  146.5235  134.1168  150.7261 H   0  0  0  0  0  0  0  0  0  0  0  0
  147.6873  132.8205  150.6578 H   0  0  0  0  0  0  0  0  0  0  0  0
  145.0711  132.6972  152.2600 H   0  0  0  0  0  0  0  0  0  0  0  0
  146.9864  130.4685  151.4567 H   0  0  0  0  0  0  0  0  0  0  0  0
  145.4800  130.2733  152.3487 H   0  0  0  0  0  0  0  0  0  0  0  0
  146.8199  131.1520  153.0721 H   0  0  0  0  0  0  0  0  0  0  0  0
  145.6130  131.5646  149.4690 H   0  0  0  0  0  0  0  0  0  0  0  0
  144.5178  132.8941  149.8410 H   0  0  0  0  0  0  0  0  0  0  0  0
  144.1653  131.2776  150.4288 H   0  0  0  0  0  0  0  0  0  0  0  0
  145.8909  134.9672  153.1238 H   0  0  0  0  0  0  0  0  0  0  0  0
  145.9329  133.3848  153.8694 H   0  0  0  0  0  0  0  0  0  0  0  0
  146.5165  135.1468  155.5095 H   0  0  0  0  0  0  0  0  0  0  0  0
  147.7874  135.7454  154.4708 H   0  0  0  0  0  0  0  0  0  0  0  0
  148.1058  134.5581  152.2909 H   0  0  0  0  0  0  0  0  0  0  0  0
  1  2  1  0  0  0  0
  1 21  1  0  0  0  0
  1 22  1  0  0  0  0
  1 23  1  0  0  0  0
  2 20  1  0  0  0  0
  2  3  2  0  0  0  0
  3  4  1  0  0  0  0
  3 24  1  0  0  0  0
  4  5  1  0  0  0  0
  4 19  2  0  0  0  0
  5  6  1  0  0  0  0
  6  7  2  0  0  0  0
  6  8  1  0  0  0  0
  8  9  1  0  0  0  0
  8 25  1  0  0  0  0
  9 18  1  0  0  0  0
  9 10  1  0  0  0  0
  9 26  1  0  0  0  0
 10 11  1  0  0  0  0
 10 27  1  0  0  0  0
 10 28  1  0  0  0  0
 11 12  1  0  0  0  0
 11 29  1  0  0  0  0
 11 30  1  0  0  0  0
 12 13  1  0  0  0  0
 12 17  1  0  0  0  0
 12 44  1  0  0  0  0
 13 14  1  0  0  0  0
 13 31  1  0  0  0  0
 13 32  1  0  0  0  0
 14 15  1  0  0  0  0
 14 16  1  0  0  0  0
 14 33  1  0  0  0  0
 15 34  1  0  0  0  0
 15 35  1  0  0  0  0
 15 36  1  0  0  0  0
 16 37  1  0  0  0  0
 16 38  1  0  0  0  0
 16 39  1  0  0  0  0
 17 18  1  0  0  0  0
 17 40  1  0  0  0  0
 17 41  1  0  0  0  0
 18 42  1  0  0  0  0
 18 43  1  0  0  0  0
 19 20  1  0  0  0  0
M  CHG  1   5  -1
M  CHG  1  12   1
M  END
> <s_m_source_file>
AV-unprocessed.smi

> <i_m_source_file_index>
1301

> <i_lp_mmshare_version>
43012

> <i_f3d_flags>
0

> <s_epik_input>
W0NIM11jMVtjSF1jKG5vMSlbTkhdQyg9TylbTkhdW0NIXTJbQ0gyXVtDSDJdTihbQ0gyXVtDSDJdMilbQ0gyXVtDSF0oW0NIM10pW0NIM10=

> <s_epik_cmdline>
J2VwaWtfcHl0aG9uJywgJy1waCcsICc3LjAnLCAnLXRuJywgJzgnLCAnLW1hJywgJzIwMCcsICctbWV0YWxfYmluZGluZycsICctaW1hZScsICc8aW5maWxlLm1hZT4nLCAnLW9tYWUnLCAnPG91dGZpbGUubWFlPic=

> <r_epik_Ionization_Penalty>
6.28597

> <r_epik_Ionization_Penalty_Charging>
6.28587

> <r_epik_Ionization_Penalty_Neutral>
9.69304e-05

> <r_epik_State_Penalty>
6.28524

> <r_epik_Charging_Adjusted_Penalty>
12.5711

> <i_epik_Tot_Q>
0

> <i_epik_Tot_abs_Q>
2

> <r_epik_Metal_State_Penalty>
2.21973

> <b_epik_Metal_Only>
1

> <s_lp_Force_Field>
OPLS_2005

> <r_lp_Energy>
7.73982

> <b_lp_Chiralities_Consistent>
1

> <s_lp_Variant>
AV-unprocessed.smi:1301-3

> <Gold.Version>
5.8.1

> <Gold.Id.Protein>
6NUR|6NUR_protein|mol2

> <Gold.PLP.Fitness>
37.7246

> <Gold.PLP.PLP>
-27.5109

> <Gold.PLP.part.hbond>
-2.0000

> <Gold.PLP.part.metal>
0.0000

> <Gold.PLP.part.buried>
-3.8100

> <Gold.PLP.part.nonpolar>
-21.0787

> <Gold.PLP.part.repulsive>
0.0556

> <Gold.PLP.ligand.clash>
0.0000

> <Gold.PLP.ligand.torsion>
0.9189

> <Gold.PLP.Chemscore.Hbond>
4.0000

> <Gold.PLP.Chemscore.CHOScore>
0.0000

> <Gold.PLP.Chemscore.Metal>
0.0000

> <Gold.Chemscore.Hbonds>
donor molecule, donor type, donor heavy atom, donor atom, acceptor molecule, acceptor atom, score
      L1  H    12    44       P1  7948  2.00
      P1  H  6896  6908       L1     5  1.87

> <Gold.PLP.Chemscore.Internal.Correction>
0.0515

> <Gold.Rescore>
     Score         DG    S(hbond)    S(metal)    S(lipo)     H(rot)  DE(clash)    DE(int)     intcor
     12.58     -14.92       1.86        0.00      58.28       1.41       0.03       2.31       ----

> <Gold.Chemscore.Fitness>
12.5833

> <Gold.Chemscore.DG>
-14.9199

> <Gold.Chemscore.ZeroCoef>
-5.4800

> <Gold.Chemscore.Hbond>
1.8626

> <Gold.Chemscore.Metal>
0.0000

> <Gold.Chemscore.Lipo>
58.2814

> <Gold.Chemscore.Internal_Hbond>
0.0000

> <Gold.Chemscore.DEClash>
0.0276

> <Gold.Chemscore.DEInternal>
2.3090

> <Gold.Chemscore.Rot>
1.4063

> <Gold.Chemscore.Internal.Correction>
   9.000000E+99

> <Gold.Chemscore.Hbonds>
donor molecule, donor type, donor heavy atom, donor atom, acceptor molecule, acceptor atom, score
      L1  H    12    44       P1  7948  0.26
      P1  H  6896  6908       L1     5  0.22

> <Gold.Chemscore.Hbond.Weighted>
-6.2212

> <Gold.Chemscore.Metal.Weighted>
-0.0000

> <Gold.Chemscore.Lipo.Weighted>
-6.8189

> <Gold.Chemscore.Internal_Hbond.Weighted>
0.0000

> <Gold.Chemscore.DEClash.Weighted>
0.0276

> <Gold.Chemscore.DEInternal.Weighted>
2.3090

> <Gold.Chemscore.Rot.Weighted>
3.6002

> <Gold.Chemscore.Internal.Correction.Weighted>
   9.000000E+99

> <Gold.Protein.RotatedTorsions>
[ 6907 6896 6895 6894 ] final -168.76 input  -60.11 | X-H torsion
[ 7974 7965 7964 7962 ] final  -37.22 input  175.53 | X-H torsion
[ 8008 7997 7996 7995 ] final    5.82 input   59.86 | X-H torsion
[ 10167 10162 10161 10158 ] final  -22.58 input  -65.29 | X-H torsion
[ 10718 10713 10712 10709 ] final   40.21 input   66.30 | X-H torsion
[ 10763 10752 10751 10750 ] final -146.42 input  -60.55 | X-H torsion
[ 11005 11000 10999 10996 ] final   66.03 input  -57.11 | X-H torsion

> <Gold.Protein.ActiveResidues>
 VAL166  LYS551  ARG553  GLY616  TRP617  ASP618  TYR619  PRO620  LYS621  CYS622 
 ASP623  PHE694  ASN695  SER759  ASP760  ASP761  ALA762  ILE779  LEU786  VAL792 
 PHE793  MET794  SER795  GLU796  ALA797  LYS798  CYS799  TRP800  GLU811  SER814 

> <Gold.Protein.RotatedAtoms>
  151.4808  133.3547  159.2837 H   0  0  0  0  0  0  0  0  0  0  0  0  # atno 6907 bound_to 6896
  150.8899  134.8303  159.7296 H   0  0  0  0  0  0  0  0  0  0  0  0  # atno 6908 bound_to 6896
  152.4816  134.4716  159.9689 H   0  0  0  0  0  0  0  0  0  0  0  0  # atno 6909 bound_to 6896
  146.0594  140.6370  142.9004 H   0  0  0  0  0  0  0  0  0  0  0  0  # atno 7974 bound_to 7965
  154.7331  140.2734  155.6438 H   0  0  0  0  0  0  0  0  0  0  0  0  # atno 8008 bound_to 7997
  156.2855  140.2712  156.1963 H   0  0  0  0  0  0  0  0  0  0  0  0  # atno 8009 bound_to 7997
  155.0355  140.0371  157.2480 H   0  0  0  0  0  0  0  0  0  0  0  0  # atno 8010 bound_to 7997
  140.7286  143.4521  151.0500 H   0  0  0  0  0  0  0  0  0  0  0  0  # atno 10167 bound_to 10162
  157.3795  130.7745  149.7181 H   0  0  0  0  0  0  0  0  0  0  0  0  # atno 10718 bound_to 10713
  154.8337  135.3387  154.6659 H   0  0  0  0  0  0  0  0  0  0  0  0  # atno 10763 bound_to 10752
  153.7276  135.6954  153.5002 H   0  0  0  0  0  0  0  0  0  0  0  0  # atno 10764 bound_to 10752
  153.2336  135.4408  155.0574 H   0  0  0  0  0  0  0  0  0  0  0  0  # atno 10765 bound_to 10752
  139.9857  134.6672  156.0181 H   0  0  0  0  0  0  0  0  0  0  0  0  # atno 11005 bound_to 11000
  144.7166  140.4231  143.7040 LP  0  0  0  0  0  0  0  0  0  0  0  0  # atno 17320 bound_to 7965
  145.6587  139.1577  143.2821 LP  0  0  0  0  0  0  0  0  0  0  0  0  # atno 17321 bound_to 7965
  139.8199  143.7835  152.3176 LP  0  0  0  0  0  0  0  0  0  0  0  0  # atno 17342 bound_to 10162
  139.7914  144.7409  150.9950 LP  0  0  0  0  0  0  0  0  0  0  0  0  # atno 17343 bound_to 10162
  155.9772  130.4065  150.3725 LP  0  0  0  0  0  0  0  0  0  0  0  0  # atno 17370 bound_to 10713
  157.1827  131.0396  151.2740 LP  0  0  0  0  0  0  0  0  0  0  0  0  # atno 17371 bound_to 10713
  141.1522  133.6547  156.4049 LP  0  0  0  0  0  0  0  0  0  0  0  0  # atno 17394 bound_to 11000
  140.5007  134.6488  157.5247 LP  0  0  0  0  0  0  0  0  0  0  0  0  # atno 17395 bound_to 11000

$$$$
