AV-unprocessed.smi:2889|AV-procd|sdf|11108|dock1
  -GOLD-   2272015573D 1   1.00000     0.00000
 Structure written by MMmdl.
 36 37  0  0  0  0  0  0  0  0  1 V2000
  150.1730  141.2650  155.7959 C   0  0  0  0  0  0  0  0  0  0  0  0
  151.5663  140.6216  156.7621 S   0  0  0  0  0  0  0  0  0  0  0  0
  151.5356  141.7276  158.2094 C   0  0  2  0  0  0  0  0  0  0  0  0
  151.4375  143.1901  157.7350 C   0  0  0  0  0  0  0  0  0  0  0  0
  151.4539  144.1774  158.9111 C   0  0  0  0  0  0  0  0  0  0  0  0
  152.7086  143.9824  159.7733 C   0  0  0  0  0  0  0  0  0  0  0  0
  152.8111  142.5347  160.2745 C   0  0  0  0  0  0  0  0  0  0  0  0
  152.7769  141.5246  159.1109 C   0  0  1  0  0  0  0  0  0  0  0  0
  152.7905  140.1652  159.6577 N   0  0  0  0  0  0  0  0  0  0  0  0
  154.3054  139.4057  159.9749 S   0  0  0  0  0  0  0  0  0  0  0  0
  155.0016  139.2395  158.6896 O   0  0  0  0  0  0  0  0  0  0  0  0
  154.9515  140.1440  161.0706 O   0  0  0  0  0  0  0  0  0  0  0  0
  153.7934  137.7439  160.5815 C   0  0  0  0  0  0  0  0  0  0  0  0
  154.3731  137.5067  161.9461 C   0  0  0  0  0  0  0  0  0  0  0  0
  153.8080  136.7827  163.0324 C   0  0  0  0  0  0  0  0  0  0  0  0
  154.7533  136.8887  164.0116 C   0  0  0  0  0  0  0  0  0  0  0  0
  155.8110  137.6178  163.5742 O   0  0  0  0  0  0  0  0  0  0  0  0
  155.5584  138.0094  162.2545 N   0  0  0  0  0  0  0  0  0  0  0  0
  150.0746  140.7044  154.8664 H   0  0  0  0  0  0  0  0  0  0  0  0
  150.3331  142.3145  155.5488 H   0  0  0  0  0  0  0  0  0  0  0  0
  149.2383  141.1752  156.3480 H   0  0  0  0  0  0  0  0  0  0  0  0
  150.6353  141.5047  158.7839 H   0  0  0  0  0  0  0  0  0  0  0  0
  152.2689  143.4150  157.0654 H   0  0  0  0  0  0  0  0  0  0  0  0
  150.5267  143.3312  157.1521 H   0  0  0  0  0  0  0  0  0  0  0  0
  151.4156  145.2010  158.5370 H   0  0  0  0  0  0  0  0  0  0  0  0
  150.5611  144.0372  159.5220 H   0  0  0  0  0  0  0  0  0  0  0  0
  153.5968  144.2327  159.1916 H   0  0  0  0  0  0  0  0  0  0  0  0
  152.6891  144.6688  160.6202 H   0  0  0  0  0  0  0  0  0  0  0  0
  153.7290  142.4124  160.8508 H   0  0  0  0  0  0  0  0  0  0  0  0
  151.9873  142.3343  160.9612 H   0  0  0  0  0  0  0  0  0  0  0  0
  153.6683  141.6695  158.4991 H   0  0  0  0  0  0  0  0  0  0  0  0
  152.1610  140.0829  160.4556 H   0  0  0  0  0  0  0  0  0  0  0  0
  152.7039  137.7012  160.5956 H   0  0  0  0  0  0  0  0  0  0  0  0
  154.1475  136.9961  159.8720 H   0  0  0  0  0  0  0  0  0  0  0  0
  152.8619  136.2645  163.0827 H   0  0  0  0  0  0  0  0  0  0  0  0
  154.8173  136.5194  165.0244 H   0  0  0  0  0  0  0  0  0  0  0  0
  1  2  1  0  0  0  0
  1 19  1  0  0  0  0
  1 20  1  0  0  0  0
  1 21  1  0  0  0  0
  2  3  1  0  0  0  0
  3  8  1  0  0  0  0
  3  4  1  0  0  0  0
  3 22  1  0  0  0  0
  4  5  1  0  0  0  0
  4 23  1  0  0  0  0
  4 24  1  0  0  0  0
  5  6  1  0  0  0  0
  5 25  1  0  0  0  0
  5 26  1  0  0  0  0
  6  7  1  0  0  0  0
  6 27  1  0  0  0  0
  6 28  1  0  0  0  0
  7  8  1  0  0  0  0
  7 29  1  0  0  0  0
  7 30  1  0  0  0  0
  8  9  1  0  0  0  0
  8 31  1  0  0  0  0
  9 10  1  0  0  0  0
  9 32  1  0  0  0  0
 10 11  2  0  0  0  0
 10 12  2  0  0  0  0
 10 13  1  0  0  0  0
 13 14  1  0  0  0  0
 13 33  1  0  0  0  0
 13 34  1  0  0  0  0
 14 18  2  0  0  0  0
 14 15  1  0  0  0  0
 15 16  2  0  0  0  0
 15 35  1  0  0  0  0
 16 17  1  0  0  0  0
 16 36  1  0  0  0  0
 17 18  1  0  0  0  0
M  END
> <s_m_source_file>
AV-unprocessed.smi

> <i_m_source_file_index>
2889

> <i_lp_mmshare_version>
43012

> <i_f3d_flags>
0

> <s_epik_input>
W0NIM11TW0NAQEhdMVtDSDJdW0NIMl1bQ0gyXVtDSDJdW0NASF0xW05IXVMoPU8pKD1PKVtDSDJdYzJbY0hdW2NIXW9uMg==

> <s_epik_cmdline>
J2VwaWtfcHl0aG9uJywgJy1waCcsICc3LjAnLCAnLXRuJywgJzgnLCAnLW1hJywgJzIwMCcsICctbWV0YWxfYmluZGluZycsICctaW1hZScsICc8aW5maWxlLm1hZT4nLCAnLW9tYWUnLCAnPG91dGZpbGUubWFlPic=

> <r_lp_tautomer_probability>
1

> <r_epik_Ionization_Penalty>
0.000229547

> <r_epik_Ionization_Penalty_Charging>
0

> <r_epik_Ionization_Penalty_Neutral>
0.000229547

> <r_epik_State_Penalty>
-0

> <r_epik_Charging_Adjusted_Penalty>
0

> <i_epik_Tot_Q>
0

> <i_epik_Tot_abs_Q>
0

> <r_epik_Metal_State_Penalty>
0.145979

> <b_epik_Metal_Only>
0

> <s_lp_Force_Field>
OPLS_2005

> <r_lp_Energy>
3.33114

> <b_lp_Chiralities_Consistent>
1

> <s_lp_Variant>
AV-unprocessed.smi:2889-1

> <Gold.Version>
5.8.1

> <Gold.Id.Protein>
6NUR|6NUR_protein|mol2

> <Gold.PLP.Fitness>
40.2413

> <Gold.PLP.PLP>
-38.7819

> <Gold.PLP.part.hbond>
-1.0000

> <Gold.PLP.part.metal>
0.0000

> <Gold.PLP.part.buried>
-5.5193

> <Gold.PLP.part.nonpolar>
-32.5264

> <Gold.PLP.part.repulsive>
0.0264

> <Gold.PLP.ligand.clash>
0.0000

> <Gold.PLP.ligand.torsion>
0.8653

> <Gold.PLP.Chemscore.Hbond>
1.0000

> <Gold.PLP.Chemscore.CHOScore>
0.0000

> <Gold.PLP.Chemscore.Metal>
0.0000

> <Gold.Chemscore.Hbonds>
donor molecule, donor type, donor heavy atom, donor atom, acceptor molecule, acceptor atom, score
      P1  H  7997  8009       L1    11  1.00

> <Gold.PLP.Chemscore.Internal.Correction>
0.1900

> <Gold.Rescore>
     Score         DG    S(hbond)    S(metal)    S(lipo)     H(rot)  DE(clash)    DE(int)     intcor
     14.55     -17.42       1.00        0.00     113.06       1.81       0.28       2.59       ----

> <Gold.Chemscore.Fitness>
14.5454

> <Gold.Chemscore.DG>
-17.4168

> <Gold.Chemscore.ZeroCoef>
-5.4800

> <Gold.Chemscore.Hbond>
0.9976

> <Gold.Chemscore.Metal>
0.0000

> <Gold.Chemscore.Lipo>
113.0580

> <Gold.Chemscore.Internal_Hbond>
0.0000

> <Gold.Chemscore.DEClash>
0.2841

> <Gold.Chemscore.DEInternal>
2.5873

> <Gold.Chemscore.Rot>
1.8058

> <Gold.Chemscore.Internal.Correction>
   9.000000E+99

> <Gold.Chemscore.Hbonds>
donor molecule, donor type, donor heavy atom, donor atom, acceptor molecule, acceptor atom, score
      P1  H  7997  8009       L1    11  0.97

> <Gold.Chemscore.Hbond.Weighted>
-3.3318

> <Gold.Chemscore.Metal.Weighted>
-0.0000

> <Gold.Chemscore.Lipo.Weighted>
-13.2278

> <Gold.Chemscore.Internal_Hbond.Weighted>
0.0000

> <Gold.Chemscore.DEClash.Weighted>
0.2841

> <Gold.Chemscore.DEInternal.Weighted>
2.5873

> <Gold.Chemscore.Rot.Weighted>
4.6228

> <Gold.Chemscore.Internal.Correction.Weighted>
   9.000000E+99

> <Gold.Protein.RotatedTorsions>
[ 6907 6896 6895 6894 ] final  -47.43 input  -60.11 | X-H torsion
[ 7974 7965 7964 7962 ] final  156.29 input  175.53 | X-H torsion
[ 8008 7997 7996 7995 ] final  104.28 input   59.86 | X-H torsion
[ 10167 10162 10161 10158 ] final   96.73 input  -65.29 | X-H torsion
[ 10718 10713 10712 10709 ] final  -67.75 input   66.30 | X-H torsion
[ 10763 10752 10751 10750 ] final  141.52 input  -60.55 | X-H torsion
[ 11005 11000 10999 10996 ] final  101.28 input  -57.11 | X-H torsion

> <Gold.Protein.ActiveResidues>
 VAL166  LYS551  ARG553  GLY616  TRP617  ASP618  TYR619  PRO620  LYS621  CYS622 
 ASP623  PHE694  ASN695  SER759  ASP760  ASP761  ALA762  ILE779  LEU786  VAL792 
 PHE793  MET794  SER795  GLU796  ALA797  LYS798  CYS799  TRP800  GLU811  SER814 

> <Gold.Protein.RotatedAtoms>
  150.9009  134.8421  159.7358 H   0  0  0  0  0  0  0  0  0  0  0  0  # atno 6907 bound_to 6896
  152.4891  134.4505  159.9582 H   0  0  0  0  0  0  0  0  0  0  0  0  # atno 6908 bound_to 6896
  151.4557  133.3567  159.2837 H   0  0  0  0  0  0  0  0  0  0  0  0  # atno 6909 bound_to 6896
  144.7972  139.7183  143.6197 H   0  0  0  0  0  0  0  0  0  0  0  0  # atno 7974 bound_to 7965
  156.1559  140.3150  155.8725 H   0  0  0  0  0  0  0  0  0  0  0  0  # atno 8008 bound_to 7997
  155.3879  140.0492  157.3058 H   0  0  0  0  0  0  0  0  0  0  0  0  # atno 8009 bound_to 7997
  154.5101  140.2161  155.9185 H   0  0  0  0  0  0  0  0  0  0  0  0  # atno 8010 bound_to 7997
  139.7867  144.6868  150.9948 H   0  0  0  0  0  0  0  0  0  0  0  0  # atno 10167 bound_to 10162
  156.0541  130.4283  150.1899 H   0  0  0  0  0  0  0  0  0  0  0  0  # atno 10718 bound_to 10713
  153.9405  135.2980  155.3443 H   0  0  0  0  0  0  0  0  0  0  0  0  # atno 10763 bound_to 10752
  154.7479  135.4994  153.9240 H   0  0  0  0  0  0  0  0  0  0  0  0  # atno 10764 bound_to 10752
  153.1044  135.6743  153.9719 H   0  0  0  0  0  0  0  0  0  0  0  0  # atno 10765 bound_to 10752
  139.8773  134.9176  156.4884 H   0  0  0  0  0  0  0  0  0  0  0  0  # atno 11005 bound_to 11000
  146.2244  139.5695  142.9597 LP  0  0  0  0  0  0  0  0  0  0  0  0  # atno 17320 bound_to 7965
  145.5643  141.0401  143.2209 LP  0  0  0  0  0  0  0  0  0  0  0  0  # atno 17321 bound_to 7965
  140.7820  143.4425  151.0531 LP  0  0  0  0  0  0  0  0  0  0  0  0  # atno 17342 bound_to 10162
  139.8103  143.7960  152.3170 LP  0  0  0  0  0  0  0  0  0  0  0  0  # atno 17343 bound_to 10162
  156.9978  130.9913  151.3398 LP  0  0  0  0  0  0  0  0  0  0  0  0  # atno 17370 bound_to 10713
  157.5495  130.8173  149.8128 LP  0  0  0  0  0  0  0  0  0  0  0  0  # atno 17371 bound_to 10713
  140.8677  133.8012  155.9331 LP  0  0  0  0  0  0  0  0  0  0  0  0  # atno 17394 bound_to 11000
  140.8985  134.2408  157.5055 LP  0  0  0  0  0  0  0  0  0  0  0  0  # atno 17395 bound_to 11000

$$$$
