AV-unprocessed.smi:1181|AV-procd|sdf|4966|dock1
  -GOLD-   22720 3563D 1   1.00000     0.00000
 Structure written by MMmdl.
 44 45  0  0  0  0  0  0  0  0  1 V2000
  145.2479  135.3737  150.7396 C   0  0  0  0  0  0  0  0  0  0  0  0
  145.9238  135.8751  151.8792 O   0  0  0  0  0  0  0  0  0  0  0  0
  145.6190  137.2359  152.1361 C   0  0  0  0  0  0  0  0  0  0  0  0
  146.7092  137.8363  153.0288 C   0  0  0  0  0  0  0  0  0  0  0  0
  146.4659  139.2322  153.1743 O   0  0  0  0  0  0  0  0  0  0  0  0
  147.3736  139.9889  153.8860 C   0  0  0  0  0  0  0  0  0  0  0  0
  148.4961  139.3448  154.4426 C   0  0  0  0  0  0  0  0  0  0  0  0
  149.4250  140.1106  155.1716 C   0  0  0  0  0  0  0  0  0  0  0  0
  149.2118  141.4961  155.3144 C   0  0  0  0  0  0  0  0  0  0  0  0
  150.1526  142.2409  156.0743 N   0  0  0  0  0  0  0  0  0  0  0  0
  151.0055  141.8046  157.0222 C   0  0  0  0  0  0  0  0  0  0  0  0
  151.0561  140.6321  157.3951 O   0  0  0  0  0  0  0  0  0  0  0  0
  151.7876  142.7775  157.5576 N   0  0  0  0  0  0  0  0  0  0  0  0
  151.6245  144.2312  157.3795 C   0  0  0  0  0  0  0  0  0  0  0  0
  151.1037  144.8340  158.6963 C   0  0  0  0  0  0  0  0  0  0  0  0
  152.0561  144.5141  159.8687 C   0  0  0  0  0  0  0  0  0  0  0  0
  151.4993  145.0208  161.2059 C   0  0  0  0  0  0  0  0  0  0  0  0
  152.3825  143.0055  159.9200 C   0  0  0  0  0  0  0  0  0  0  0  0
  152.8356  142.4833  158.5439 C   0  0  0  0  0  0  0  0  0  0  0  0
  148.0469  142.0487  154.7288 C   0  0  0  0  0  0  0  0  0  0  0  0
  147.1511  141.3189  154.0304 N   0  0  0  0  0  0  0  0  0  0  0  0
  145.5154  134.3284  150.5856 H   0  0  0  0  0  0  0  0  0  0  0  0
  145.5239  135.9277  149.8416 H   0  0  0  0  0  0  0  0  0  0  0  0
  144.1660  135.4289  150.8668 H   0  0  0  0  0  0  0  0  0  0  0  0
  145.5840  137.7791  151.1906 H   0  0  0  0  0  0  0  0  0  0  0  0
  144.6408  137.3364  152.6090 H   0  0  0  0  0  0  0  0  0  0  0  0
  146.7250  137.3321  153.9967 H   0  0  0  0  0  0  0  0  0  0  0  0
  147.6806  137.6853  152.5548 H   0  0  0  0  0  0  0  0  0  0  0  0
  148.6407  138.2823  154.3140 H   0  0  0  0  0  0  0  0  0  0  0  0
  150.2915  139.6379  155.6107 H   0  0  0  0  0  0  0  0  0  0  0  0
  150.1367  143.2394  155.9256 H   0  0  0  0  0  0  0  0  0  0  0  0
  152.5908  144.6707  157.1277 H   0  0  0  0  0  0  0  0  0  0  0  0
  150.9647  144.5086  156.5575 H   0  0  0  0  0  0  0  0  0  0  0  0
  150.9909  145.9134  158.5907 H   0  0  0  0  0  0  0  0  0  0  0  0
  150.1093  144.4375  158.9069 H   0  0  0  0  0  0  0  0  0  0  0  0
  152.9917  145.0435  159.6823 H   0  0  0  0  0  0  0  0  0  0  0  0
  150.5557  144.5331  161.4528 H   0  0  0  0  0  0  0  0  0  0  0  0
  151.3202  146.0959  161.1742 H   0  0  0  0  0  0  0  0  0  0  0  0
  152.1977  144.8268  162.0204 H   0  0  0  0  0  0  0  0  0  0  0  0
  153.1593  142.8163  160.6616 H   0  0  0  0  0  0  0  0  0  0  0  0
  151.5032  142.4475  160.2451 H   0  0  0  0  0  0  0  0  0  0  0  0
  153.0699  141.4202  158.6113 H   0  0  0  0  0  0  0  0  0  0  0  0
  153.7646  142.9702  158.2439 H   0  0  0  0  0  0  0  0  0  0  0  0
  147.7969  143.0932  154.8315 H   0  0  0  0  0  0  0  0  0  0  0  0
  1  2  1  0  0  0  0
  1 22  1  0  0  0  0
  1 23  1  0  0  0  0
  1 24  1  0  0  0  0
  2  3  1  0  0  0  0
  3  4  1  0  0  0  0
  3 25  1  0  0  0  0
  3 26  1  0  0  0  0
  4  5  1  0  0  0  0
  4 27  1  0  0  0  0
  4 28  1  0  0  0  0
  5  6  1  0  0  0  0
  6 21  1  0  0  0  0
  6  7  2  0  0  0  0
  7  8  1  0  0  0  0
  7 29  1  0  0  0  0
  8  9  2  0  0  0  0
  8 30  1  0  0  0  0
  9 10  1  0  0  0  0
  9 20  1  0  0  0  0
 10 11  1  0  0  0  0
 10 31  1  0  0  0  0
 11 12  2  0  0  0  0
 11 13  1  0  0  0  0
 13 19  1  0  0  0  0
 13 14  1  0  0  0  0
 14 15  1  0  0  0  0
 14 32  1  0  0  0  0
 14 33  1  0  0  0  0
 15 16  1  0  0  0  0
 15 34  1  0  0  0  0
 15 35  1  0  0  0  0
 16 17  1  0  0  0  0
 16 18  1  0  0  0  0
 16 36  1  0  0  0  0
 17 37  1  0  0  0  0
 17 38  1  0  0  0  0
 17 39  1  0  0  0  0
 18 19  1  0  0  0  0
 18 40  1  0  0  0  0
 18 41  1  0  0  0  0
 19 42  1  0  0  0  0
 19 43  1  0  0  0  0
 20 21  2  0  0  0  0
 20 44  1  0  0  0  0
M  END
> <s_m_source_file>
AV-unprocessed.smi

> <i_m_source_file_index>
1181

> <i_lp_mmshare_version>
43012

> <i_f3d_flags>
0

> <s_epik_input>
W0NIM11PW0NIMl1bQ0gyXU9jMVtjSF1bY0hdYyhbY0hdbjEpW05IXUMoPU8pTjJbQ0gyXVtDSDJdW0NIXShbQ0gzXSlbQ0gyXVtDSDJdMg==

> <s_epik_cmdline>
J2VwaWtfcHl0aG9uJywgJy1waCcsICc3LjAnLCAnLXRuJywgJzgnLCAnLW1hJywgJzIwMCcsICctbWV0YWxfYmluZGluZycsICctaW1hZScsICc8aW5maWxlLm1hZT4nLCAnLW9tYWUnLCAnPG91dGZpbGUubWFlPic=

> <r_lp_tautomer_probability>
1

> <r_epik_Ionization_Penalty>
8.49399e-05

> <r_epik_Ionization_Penalty_Charging>
0

> <r_epik_Ionization_Penalty_Neutral>
8.49399e-05

> <r_epik_State_Penalty>
-0

> <r_epik_Charging_Adjusted_Penalty>
0

> <i_epik_Tot_Q>
0

> <i_epik_Tot_abs_Q>
0

> <r_epik_Metal_State_Penalty>
-0

> <b_epik_Metal_Only>
0

> <s_lp_Force_Field>
OPLS_2005

> <r_lp_Energy>
36.0421

> <b_lp_Chiralities_Consistent>
1

> <s_lp_Variant>
AV-unprocessed.smi:1181-1

> <Gold.Version>
5.8.1

> <Gold.Id.Protein>
6NUR|6NUR_protein|mol2

> <Gold.PLP.Fitness>
39.7674

> <Gold.PLP.PLP>
-35.6626

> <Gold.PLP.part.hbond>
-1.0000

> <Gold.PLP.part.metal>
0.0000

> <Gold.PLP.part.buried>
0.8709

> <Gold.PLP.part.nonpolar>
-37.5229

> <Gold.PLP.part.repulsive>
0.7749

> <Gold.PLP.ligand.clash>
0.6276

> <Gold.PLP.ligand.torsion>
0.2617

> <Gold.PLP.Chemscore.Hbond>
0.6661

> <Gold.PLP.Chemscore.CHOScore>
1.0000

> <Gold.PLP.Chemscore.Metal>
0.0000

> <Gold.Chemscore.Hbonds>
donor molecule, donor type, donor heavy atom, donor atom, acceptor molecule, acceptor atom, score
      L1  H    10    31       P1  8028  0.83
      L1  C    20    44       P1  8028  1.00

> <Gold.PLP.Chemscore.Internal.Correction>
0.2575

> <Gold.Rescore>
     Score         DG    S(hbond)    S(metal)    S(lipo)     H(rot)  DE(clash)    DE(int)     intcor
     12.83     -16.66       0.60        0.00     112.54       1.55       2.10       1.73       ----

> <Gold.Chemscore.Fitness>
12.8334

> <Gold.Chemscore.DG>
-16.6641

> <Gold.Chemscore.ZeroCoef>
-5.4800

> <Gold.Chemscore.Hbond>
0.5956

> <Gold.Chemscore.Metal>
0.0000

> <Gold.Chemscore.Lipo>
112.5379

> <Gold.Chemscore.Internal_Hbond>
0.0000

> <Gold.Chemscore.DEClash>
2.1044

> <Gold.Chemscore.DEInternal>
1.7263

> <Gold.Chemscore.Rot>
1.5517

> <Gold.Chemscore.Internal.Correction>
   9.000000E+99

> <Gold.Chemscore.Hbonds>
donor molecule, donor type, donor heavy atom, donor atom, acceptor molecule, acceptor atom, score
      L1  H    10    31       P1  8028  0.82

> <Gold.Chemscore.Hbond.Weighted>
-1.9895

> <Gold.Chemscore.Metal.Weighted>
-0.0000

> <Gold.Chemscore.Lipo.Weighted>
-13.1669

> <Gold.Chemscore.Internal_Hbond.Weighted>
0.0000

> <Gold.Chemscore.DEClash.Weighted>
2.1044

> <Gold.Chemscore.DEInternal.Weighted>
1.7263

> <Gold.Chemscore.Rot.Weighted>
3.9723

> <Gold.Chemscore.Internal.Correction.Weighted>
   9.000000E+99

> <Gold.Protein.RotatedTorsions>
[ 6907 6896 6895 6894 ] final   72.30 input  -60.11 | X-H torsion
[ 7974 7965 7964 7962 ] final -121.91 input  175.53 | X-H torsion
[ 8008 7997 7996 7995 ] final  135.41 input   59.86 | X-H torsion
[ 10167 10162 10161 10158 ] final   31.64 input  -65.29 | X-H torsion
[ 10718 10713 10712 10709 ] final  -86.96 input   66.30 | X-H torsion
[ 10763 10752 10751 10750 ] final  -13.08 input  -60.55 | X-H torsion
[ 11005 11000 10999 10996 ] final  103.50 input  -57.11 | X-H torsion

> <Gold.Protein.ActiveResidues>
 VAL166  LYS551  ARG553  GLY616  TRP617  ASP618  TYR619  PRO620  LYS621  CYS622 
 ASP623  PHE694  ASN695  SER759  ASP760  ASP761  ALA762  ILE779  LEU786  VAL792 
 PHE793  MET794  SER795  GLU796  ALA797  LYS798  CYS799  TRP800  GLU811  SER814 

> <Gold.Protein.RotatedAtoms>
  152.4860  134.4592  159.9599 H   0  0  0  0  0  0  0  0  0  0  0  0  # atno 6907 bound_to 6896
  151.4588  133.3592  159.2814 H   0  0  0  0  0  0  0  0  0  0  0  0  # atno 6908 bound_to 6896
  150.8971  134.8405  159.7394 H   0  0  0  0  0  0  0  0  0  0  0  0  # atno 6909 bound_to 6896
  145.0352  140.8100  143.4299 H   0  0  0  0  0  0  0  0  0  0  0  0  # atno 7974 bound_to 7965
  156.3003  140.2471  156.3577 H   0  0  0  0  0  0  0  0  0  0  0  0  # atno 8008 bound_to 7997
  154.8906  140.0409  157.1856 H   0  0  0  0  0  0  0  0  0  0  0  0  # atno 8009 bound_to 7997
  154.8601  140.2919  155.5548 H   0  0  0  0  0  0  0  0  0  0  0  0  # atno 8010 bound_to 7997
  140.4571  144.0962  150.6204 H   0  0  0  0  0  0  0  0  0  0  0  0  # atno 10167 bound_to 10162
  155.9987  130.4783  150.4795 H   0  0  0  0  0  0  0  0  0  0  0  0  # atno 10718 bound_to 10713
  153.5080  135.7016  153.5796 H   0  0  0  0  0  0  0  0  0  0  0  0  # atno 10763 bound_to 10752
  153.3899  135.3898  155.1915 H   0  0  0  0  0  0  0  0  0  0  0  0  # atno 10764 bound_to 10752
  154.8705  135.3855  154.4557 H   0  0  0  0  0  0  0  0  0  0  0  0  # atno 10765 bound_to 10752
  139.8784  134.9265  156.5220 H   0  0  0  0  0  0  0  0  0  0  0  0  # atno 11005 bound_to 11000
  145.1718  139.2400  143.5338 LP  0  0  0  0  0  0  0  0  0  0  0  0  # atno 17320 bound_to 7965
  146.3503  140.1471  142.8593 LP  0  0  0  0  0  0  0  0  0  0  0  0  # atno 17321 bound_to 7965
  140.4138  143.2644  151.9800 LP  0  0  0  0  0  0  0  0  0  0  0  0  # atno 17342 bound_to 10162
  139.4802  144.5892  151.7802 LP  0  0  0  0  0  0  0  0  0  0  0  0  # atno 17343 bound_to 10162
  157.2802  131.0605  151.2203 LP  0  0  0  0  0  0  0  0  0  0  0  0  # atno 17370 bound_to 10713
  157.3252  130.6957  149.6292 LP  0  0  0  0  0  0  0  0  0  0  0  0  # atno 17371 bound_to 10713
  140.8444  133.8180  155.9106 LP  0  0  0  0  0  0  0  0  0  0  0  0  # atno 17394 bound_to 11000
  140.9206  134.2146  157.4929 LP  0  0  0  0  0  0  0  0  0  0  0  0  # atno 17395 bound_to 11000

$$$$
