AV-unprocessed.smi:1905|AV-procd|sdf|7726|dock7
  -GOLD-   22720 9463D 1   1.00000     0.00000
 Structure written by MMmdl.
 38 39  0  0  0  0  0  0  0  0  1 V2000
  152.4170  144.4919  159.0882 C   0  0  0  0  0  0  0  0  0  0  0  0
  151.5189  143.7463  160.0779 C   0  0  0  0  0  0  0  0  0  0  0  0
  151.7098  142.3463  159.8995 O   0  0  0  0  0  0  0  0  0  0  0  0
  151.5052  141.8012  158.6460 C   0  0  0  0  0  0  0  0  0  0  0  0
  150.9198  142.5716  157.6951 N   0  0  0  0  0  0  0  0  0  0  0  0
  150.7232  142.0423  156.4706 C   0  0  0  0  0  0  0  0  0  0  0  0
  151.1015  140.7313  156.1290 C   0  0  0  0  0  0  0  0  0  0  0  0
  151.7091  139.9298  157.1134 C   0  0  0  0  0  0  0  0  0  0  0  0
  151.9117  140.4671  158.4086 C   0  0  0  0  0  0  0  0  0  0  0  0
  152.5260  139.7613  159.4815 N   0  0  0  0  0  0  0  0  0  0  0  0
  153.5772  138.9242  159.4626 C   0  0  0  0  0  0  0  0  0  0  0  0
  154.2178  138.5988  158.4639 O   0  0  0  0  0  0  0  0  0  0  0  0
  153.8438  138.4626  160.6924 N   0  0  0  0  0  0  0  0  0  0  0  0
  154.9192  137.5356  161.0288 C   0  0  0  0  0  0  0  0  0  0  0  0
  155.0379  137.2988  162.5472 C   0  0  1  0  0  0  0  0  0  0  0  0
  153.7003  137.0774  163.2446 C   0  0  0  0  0  0  0  0  0  0  0  0
  153.9878  135.9895  164.2852 C   0  0  0  0  0  0  0  0  0  0  0  0
  155.3967  135.8107  164.2663 O   0  0  0  0  0  0  0  0  0  0  0  0
  155.8338  136.0556  162.9410 C   0  0  0  0  0  0  0  0  0  0  0  0
  152.2973  145.5709  159.1890 H   0  0  0  0  0  0  0  0  0  0  0  0
  152.1739  144.2229  158.0601 H   0  0  0  0  0  0  0  0  0  0  0  0
  153.4675  144.2542  159.2580 H   0  0  0  0  0  0  0  0  0  0  0  0
  151.7743  144.0416  161.0969 H   0  0  0  0  0  0  0  0  0  0  0  0
  150.4761  144.0129  159.8985 H   0  0  0  0  0  0  0  0  0  0  0  0
  150.2539  142.6847  155.7403 H   0  0  0  0  0  0  0  0  0  0  0  0
  150.9321  140.3498  155.1331 H   0  0  0  0  0  0  0  0  0  0  0  0
  152.0130  138.9305  156.8464 H   0  0  0  0  0  0  0  0  0  0  0  0
  152.0762  139.8787  160.3776 H   0  0  0  0  0  0  0  0  0  0  0  0
  153.2636  138.7810  161.4548 H   0  0  0  0  0  0  0  0  0  0  0  0
  154.7656  136.5881  160.5100 H   0  0  0  0  0  0  0  0  0  0  0  0
  155.8498  137.9517  160.6419 H   0  0  0  0  0  0  0  0  0  0  0  0
  155.5154  138.1627  163.0129 H   0  0  0  0  0  0  0  0  0  0  0  0
  153.3464  137.9986  163.7089 H   0  0  0  0  0  0  0  0  0  0  0  0
  152.9288  136.7388  162.5520 H   0  0  0  0  0  0  0  0  0  0  0  0
  153.6424  136.2624  165.2825 H   0  0  0  0  0  0  0  0  0  0  0  0
  153.5047  135.0532  164.0027 H   0  0  0  0  0  0  0  0  0  0  0  0
  155.5823  135.2029  162.3078 H   0  0  0  0  0  0  0  0  0  0  0  0
  156.9117  136.2135  162.8974 H   0  0  0  0  0  0  0  0  0  0  0  0
  1  2  1  0  0  0  0
  1 20  1  0  0  0  0
  1 21  1  0  0  0  0
  1 22  1  0  0  0  0
  2  3  1  0  0  0  0
  2 23  1  0  0  0  0
  2 24  1  0  0  0  0
  3  4  1  0  0  0  0
  4  9  1  0  0  0  0
  4  5  2  0  0  0  0
  5  6  1  0  0  0  0
  6  7  2  0  0  0  0
  6 25  1  0  0  0  0
  7  8  1  0  0  0  0
  7 26  1  0  0  0  0
  8  9  2  0  0  0  0
  8 27  1  0  0  0  0
  9 10  1  0  0  0  0
 10 11  1  0  0  0  0
 10 28  1  0  0  0  0
 11 12  2  0  0  0  0
 11 13  1  0  0  0  0
 13 14  1  0  0  0  0
 13 29  1  0  0  0  0
 14 15  1  0  0  0  0
 14 30  1  0  0  0  0
 14 31  1  0  0  0  0
 15 19  1  0  0  0  0
 15 16  1  0  0  0  0
 15 32  1  0  0  0  0
 16 17  1  0  0  0  0
 16 33  1  0  0  0  0
 16 34  1  0  0  0  0
 17 18  1  0  0  0  0
 17 35  1  0  0  0  0
 17 36  1  0  0  0  0
 18 19  1  0  0  0  0
 19 37  1  0  0  0  0
 19 38  1  0  0  0  0
M  END
> <s_m_source_file>
AV-unprocessed.smi

> <i_m_source_file_index>
1905

> <i_lp_mmshare_version>
43012

> <i_f3d_flags>
0

> <s_epik_input>
W0NIM11bQ0gyXU9jMW5bY0hdW2NIXVtjSF1jMVtOSF1DKD1PKVtOSF1bQ0gyXVtDQEBIXTJbQ0gyXVtDSDJdT1tDSDJdMg==

> <s_epik_cmdline>
J2VwaWtfcHl0aG9uJywgJy1waCcsICc3LjAnLCAnLXRuJywgJzgnLCAnLW1hJywgJzIwMCcsICctbWV0YWxfYmluZGluZycsICctaW1hZScsICc8aW5maWxlLm1hZT4nLCAnLW9tYWUnLCAnPG91dGZpbGUubWFlPic=

> <r_lp_tautomer_probability>
1

> <r_epik_Ionization_Penalty>
0.000115153

> <r_epik_Ionization_Penalty_Charging>
0

> <r_epik_Ionization_Penalty_Neutral>
0.000115153

> <r_epik_State_Penalty>
-0

> <r_epik_Charging_Adjusted_Penalty>
0

> <i_epik_Tot_Q>
0

> <i_epik_Tot_abs_Q>
0

> <r_epik_Metal_State_Penalty>
-0

> <b_epik_Metal_Only>
0

> <s_lp_Force_Field>
OPLS_2005

> <r_lp_Energy>
21.5364

> <b_lp_Chiralities_Consistent>
1

> <s_lp_Variant>
AV-unprocessed.smi:1905-2

> <Gold.Version>
5.8.1

> <Gold.Id.Protein>
6NUR|6NUR_protein|mol2

> <Gold.PLP.Fitness>
37.7569

> <Gold.PLP.PLP>
-32.8839

> <Gold.PLP.part.hbond>
-1.1553

> <Gold.PLP.part.metal>
0.0000

> <Gold.PLP.part.buried>
-5.4175

> <Gold.PLP.part.nonpolar>
-27.3597

> <Gold.PLP.part.repulsive>
0.3182

> <Gold.PLP.ligand.clash>
0.0000

> <Gold.PLP.ligand.torsion>
0.5662

> <Gold.PLP.Chemscore.Hbond>
1.0000

> <Gold.PLP.Chemscore.CHOScore>
1.0000

> <Gold.PLP.Chemscore.Metal>
0.0000

> <Gold.Chemscore.Hbonds>
donor molecule, donor type, donor heavy atom, donor atom, acceptor molecule, acceptor atom, score
      P1  H  7997  8008       L1    12  0.97
      L1  C     6    25       P1  8028  1.00

> <Gold.PLP.Chemscore.Internal.Correction>
0.0055

> <Gold.Rescore>
     Score         DG    S(hbond)    S(metal)    S(lipo)     H(rot)  DE(clash)    DE(int)     intcor
     13.68     -14.59       0.98        0.00      85.10       1.61       0.03       0.89       ----

> <Gold.Chemscore.Fitness>
13.6750

> <Gold.Chemscore.DG>
-14.5928

> <Gold.Chemscore.ZeroCoef>
-5.4800

> <Gold.Chemscore.Hbond>
0.9836

> <Gold.Chemscore.Metal>
0.0000

> <Gold.Chemscore.Lipo>
85.1039

> <Gold.Chemscore.Internal_Hbond>
0.0000

> <Gold.Chemscore.DEClash>
0.0259

> <Gold.Chemscore.DEInternal>
0.8919

> <Gold.Chemscore.Rot>
1.6131

> <Gold.Chemscore.Internal.Correction>
   9.000000E+99

> <Gold.Chemscore.Hbonds>
donor molecule, donor type, donor heavy atom, donor atom, acceptor molecule, acceptor atom, score
      P1  H  7997  8008       L1    12  0.83

> <Gold.Chemscore.Hbond.Weighted>
-3.2853

> <Gold.Chemscore.Metal.Weighted>
-0.0000

> <Gold.Chemscore.Lipo.Weighted>
-9.9572

> <Gold.Chemscore.Internal_Hbond.Weighted>
0.0000

> <Gold.Chemscore.DEClash.Weighted>
0.0259

> <Gold.Chemscore.DEInternal.Weighted>
0.8919

> <Gold.Chemscore.Rot.Weighted>
4.1296

> <Gold.Chemscore.Internal.Correction.Weighted>
   9.000000E+99

> <Gold.Protein.RotatedTorsions>
[ 6907 6896 6895 6894 ] final  -97.65 input  -60.11 | X-H torsion
[ 7974 7965 7964 7962 ] final  -28.94 input  175.53 | X-H torsion
[ 8008 7997 7996 7995 ] final  -86.97 input   59.86 | X-H torsion
[ 10167 10162 10161 10158 ] final  147.61 input  -65.29 | X-H torsion
[ 10718 10713 10712 10709 ] final  170.15 input   66.30 | X-H torsion
[ 10763 10752 10751 10750 ] final  -56.32 input  -60.55 | X-H torsion
[ 11005 11000 10999 10996 ] final   -6.22 input  -57.11 | X-H torsion

> <Gold.Protein.ActiveResidues>
 VAL166  LYS551  ARG553  GLY616  TRP617  ASP618  TYR619  PRO620  LYS621  CYS622 
 ASP623  PHE694  ASN695  SER759  ASP760  ASP761  ALA762  ILE779  LEU786  VAL792 
 PHE793  MET794  SER795  GLU796  ALA797  LYS798  CYS799  TRP800  GLU811  SER814 

> <Gold.Protein.RotatedAtoms>
  150.7022  134.1316  159.4071 H   0  0  0  0  0  0  0  0  0  0  0  0  # atno 6907 bound_to 6896
  151.9302  135.0257  160.0538 H   0  0  0  0  0  0  0  0  0  0  0  0  # atno 6908 bound_to 6896
  152.2182  133.4928  159.5184 H   0  0  0  0  0  0  0  0  0  0  0  0  # atno 6909 bound_to 6896
  146.1252  140.5348  142.8717 H   0  0  0  0  0  0  0  0  0  0  0  0  # atno 7974 bound_to 7965
  154.6579  140.0571  157.0029 H   0  0  0  0  0  0  0  0  0  0  0  0  # atno 8008 bound_to 7997
  155.1273  140.3253  155.4464 H   0  0  0  0  0  0  0  0  0  0  0  0  # atno 8009 bound_to 7997
  156.2605  140.1987  156.6393 H   0  0  0  0  0  0  0  0  0  0  0  0  # atno 8010 bound_to 7997
  139.4887  144.5742  151.6997 H   0  0  0  0  0  0  0  0  0  0  0  0  # atno 10167 bound_to 10162
  157.0123  131.0208  151.2799 H   0  0  0  0  0  0  0  0  0  0  0  0  # atno 10718 bound_to 10713
  154.2047  135.6405  153.5097 H   0  0  0  0  0  0  0  0  0  0  0  0  # atno 10763 bound_to 10752
  153.0003  135.5460  154.6278 H   0  0  0  0  0  0  0  0  0  0  0  0  # atno 10764 bound_to 10752
  154.5700  135.2916  155.0810 H   0  0  0  0  0  0  0  0  0  0  0  0  # atno 10765 bound_to 10752
  140.6996  133.9001  155.8674 H   0  0  0  0  0  0  0  0  0  0  0  0  # atno 11005 bound_to 11000
  144.7635  140.5478  143.6719 LP  0  0  0  0  0  0  0  0  0  0  0  0  # atno 17320 bound_to 7965
  145.5380  139.1475  143.3462 LP  0  0  0  0  0  0  0  0  0  0  0  0  # atno 17321 bound_to 7965
  140.5335  144.0693  150.6062 LP  0  0  0  0  0  0  0  0  0  0  0  0  # atno 17342 bound_to 10162
  140.3691  143.2865  152.0299 LP  0  0  0  0  0  0  0  0  0  0  0  0  # atno 17343 bound_to 10162
  157.5311  130.8059  149.7918 LP  0  0  0  0  0  0  0  0  0  0  0  0  # atno 17370 bound_to 10713
  156.0131  130.3824  150.2197 LP  0  0  0  0  0  0  0  0  0  0  0  0  # atno 17371 bound_to 10713
  141.0175  134.0936  157.4157 LP  0  0  0  0  0  0  0  0  0  0  0  0  # atno 17394 bound_to 11000
  139.8900  135.0109  156.6714 LP  0  0  0  0  0  0  0  0  0  0  0  0  # atno 17395 bound_to 11000

$$$$
