AV-unprocessed.smi:41|AV-procd|sdf|385|dock2
  -GOLD-   2262016243D 1   1.00000     0.00000
 Structure written by MMmdl.
 26 27  0  0  0  0  0  0  0  0  1 V2000
  152.1728  138.4932  156.0708 N   0  0  0  0  0  0  0  0  0  0  0  0
  151.8672  139.6724  156.6316 C   0  0  0  0  0  0  0  0  0  0  0  0
  152.5590  140.0837  157.6759 N   0  0  0  0  0  0  0  0  0  0  0  0
  152.3206  141.2717  158.3165 C   0  0  0  0  0  0  0  0  0  0  0  0
  153.0189  141.6130  159.2702 O   0  0  0  0  0  0  0  0  0  0  0  0
  151.2498  142.0719  157.8414 N   0  0  0  0  0  0  0  0  0  0  0  0
  150.9786  143.3774  158.4415 C   0  0  2  0  0  0  0  0  0  0  0  0
  152.1691  144.3541  158.4260 C   0  0  0  0  0  0  0  0  0  0  0  0
  151.8309  145.5601  159.7162 S   0  0  0  0  0  0  0  0  0  0  0  0
  150.5547  144.4805  160.4105 C   0  0  1  0  0  0  0  0  0  0  0  0
  149.1571  145.1170  160.2838 C   0  0  0  0  0  0  0  0  0  0  0  0
  148.1957  144.3105  160.9303 O   0  0  0  0  0  0  0  0  0  0  0  0
  150.5831  143.2114  159.7665 O   0  0  0  0  0  0  0  0  0  0  0  0
  150.5435  141.6616  156.7165 C   0  0  0  0  0  0  0  0  0  0  0  0
  150.8030  140.4900  156.0973 C   0  0  0  0  0  0  0  0  0  0  0  0
  150.0992  140.1056  155.0184 F   0  0  0  0  0  0  0  0  0  0  0  0
  150.1500  143.8530  157.9162 H   0  0  0  0  0  0  0  0  0  0  0  0
  150.7932  144.3397  161.4653 H   0  0  0  0  0  0  0  0  0  0  0  0
  151.6557  138.1695  155.2660 H   0  0  0  0  0  0  0  0  0  0  0  0
  152.9174  137.9303  156.4558 H   0  0  0  0  0  0  0  0  0  0  0  0
  153.1079  143.8646  158.6729 H   0  0  0  0  0  0  0  0  0  0  0  0
  152.2680  144.8210  157.4459 H   0  0  0  0  0  0  0  0  0  0  0  0
  149.1421  146.0879  160.7800 H   0  0  0  0  0  0  0  0  0  0  0  0
  148.8702  145.2862  159.2463 H   0  0  0  0  0  0  0  0  0  0  0  0
  147.3808  144.7872  160.9702 H   0  0  0  0  0  0  0  0  0  0  0  0
  149.7683  142.2823  156.2946 H   0  0  0  0  0  0  0  0  0  0  0  0
  1  2  1  0  0  0  0
  1 19  1  0  0  0  0
  1 20  1  0  0  0  0
  2 15  1  0  0  0  0
  2  3  2  0  0  0  0
  3  4  1  0  0  0  0
  4  5  2  0  0  0  0
  4  6  1  0  0  0  0
  6  7  1  0  0  0  0
  6 14  1  0  0  0  0
  7 17  1  0  0  0  0
  7 13  1  0  0  0  0
  7  8  1  0  0  0  0
  8  9  1  0  0  0  0
  8 21  1  0  0  0  0
  8 22  1  0  0  0  0
  9 10  1  0  0  0  0
 10 18  1  0  0  0  0
 10 11  1  0  0  0  0
 10 13  1  0  0  0  0
 11 12  1  0  0  0  0
 11 23  1  0  0  0  0
 11 24  1  0  0  0  0
 12 25  1  0  0  0  0
 14 15  2  0  0  0  0
 14 26  1  0  0  0  0
 15 16  1  0  0  0  0
M  END
> <s_m_source_file>
AV-unprocessed.smi

> <i_m_source_file_index>
41

> <i_lp_mmshare_version>
43012

> <i_f3d_flags>
0

> <s_epik_input>
W05IMl1jMW5jKD1PKW4oW2NIXWMxRilbQ0BASF0yW0NIMl1TW0NAQEhdKE8yKVtDSDJdW09IXQ==

> <s_epik_cmdline>
J2VwaWtfcHl0aG9uJywgJy1waCcsICc3LjAnLCAnLXRuJywgJzgnLCAnLW1hJywgJzIwMCcsICctbWV0YWxfYmluZGluZycsICctaW1hZScsICc8aW5maWxlLm1hZT4nLCAnLW9tYWUnLCAnPG91dGZpbGUubWFlPic=

> <r_lp_tautomer_probability>
1

> <r_epik_Ionization_Penalty>
0.000101883

> <r_epik_Ionization_Penalty_Charging>
1.48607e-08

> <r_epik_Ionization_Penalty_Neutral>
0.000101868

> <r_epik_State_Penalty>
-0

> <r_epik_Charging_Adjusted_Penalty>
1.48607e-08

> <i_epik_Tot_Q>
0

> <i_epik_Tot_abs_Q>
0

> <r_epik_Metal_State_Penalty>
-0

> <b_epik_Metal_Only>
0

> <s_epik_Chemistry_Notes>
This compound contains an acetal/aminal-like group ( X-CH(R)-Y where X, Y are N, S, or O) that may be acid/base labile, releasing an aldehyde.

> <s_lp_Force_Field>
OPLS_2005

> <r_lp_Energy>
16.0015

> <b_lp_Chiralities_Consistent>
1

> <s_lp_Variant>
AV-unprocessed.smi:41-3

> <Gold.Version>
5.8.1

> <Gold.Id.Protein>
6NUR|6NUR_protein|mol2

> <Gold.PLP.Fitness>
42.7348

> <Gold.PLP.PLP>
-33.7775

> <Gold.PLP.part.hbond>
-3.0000

> <Gold.PLP.part.metal>
0.0000

> <Gold.PLP.part.buried>
-3.3805

> <Gold.PLP.part.nonpolar>
-27.0980

> <Gold.PLP.part.repulsive>
0.2164

> <Gold.PLP.ligand.clash>
0.0000

> <Gold.PLP.ligand.torsion>
0.0311

> <Gold.PLP.Chemscore.Hbond>
1.9920

> <Gold.PLP.Chemscore.CHOScore>
1.0000

> <Gold.PLP.Chemscore.Metal>
0.0000

> <Gold.Chemscore.Hbonds>
donor molecule, donor type, donor heavy atom, donor atom, acceptor molecule, acceptor atom, score
      P1  H  6933  6944       L1    12  1.00
      P1  H  7997  8008       L1     3  0.38
      L1  C    14    26       P1  8028  0.65

> <Gold.PLP.Chemscore.Internal.Correction>
0.0436

> <Gold.Rescore>
     Score         DG    S(hbond)    S(metal)    S(lipo)     H(rot)  DE(clash)    DE(int)     intcor
      8.39     -10.90       1.49        0.00      51.83       2.19       0.26       2.25       ----

> <Gold.Chemscore.Fitness>
8.3912

> <Gold.Chemscore.DG>
-10.9020

> <Gold.Chemscore.ZeroCoef>
-5.4800

> <Gold.Chemscore.Hbond>
1.4886

> <Gold.Chemscore.Metal>
0.0000

> <Gold.Chemscore.Lipo>
51.8278

> <Gold.Chemscore.Internal_Hbond>
0.0000

> <Gold.Chemscore.DEClash>
0.2602

> <Gold.Chemscore.DEInternal>
2.2506

> <Gold.Chemscore.Rot>
2.1929

> <Gold.Chemscore.Internal.Correction>
   9.000000E+99

> <Gold.Chemscore.Hbonds>
donor molecule, donor type, donor heavy atom, donor atom, acceptor molecule, acceptor atom, score
      P1  H  6933  6944       L1    12  0.90
      P1  H  7997  8008       L1     3  0.02

> <Gold.Chemscore.Hbond.Weighted>
-4.9719

> <Gold.Chemscore.Metal.Weighted>
-0.0000

> <Gold.Chemscore.Lipo.Weighted>
-6.0639

> <Gold.Chemscore.Internal_Hbond.Weighted>
0.0000

> <Gold.Chemscore.DEClash.Weighted>
0.2602

> <Gold.Chemscore.DEInternal.Weighted>
2.2506

> <Gold.Chemscore.Rot.Weighted>
5.6137

> <Gold.Chemscore.Internal.Correction.Weighted>
   9.000000E+99

> <Gold.Protein.RotatedTorsions>
[ 6907 6896 6895 6894 ] final   53.24 input  -60.11 | X-H torsion
[ 7974 7965 7964 7962 ] final -171.02 input  175.53 | X-H torsion
[ 8008 7997 7996 7995 ] final  -52.34 input   59.86 | X-H torsion
[ 10167 10162 10161 10158 ] final  173.06 input  -65.29 | X-H torsion
[ 10718 10713 10712 10709 ] final  147.57 input   66.30 | X-H torsion
[ 10763 10752 10751 10750 ] final  153.28 input  -60.55 | X-H torsion
[ 11005 11000 10999 10996 ] final   -1.74 input  -57.11 | X-H torsion

> <Gold.Protein.ActiveResidues>
 VAL166  LYS551  ARG553  GLY616  TRP617  ASP618  TYR619  PRO620  LYS621  CYS622 
 ASP623  PHE694  ASN695  SER759  ASP760  ASP761  ALA762  ILE779  LEU786  VAL792 
 PHE793  MET794  SER795  GLU796  ALA797  LYS798  CYS799  TRP800  GLU811  SER814 

> <Gold.Protein.RotatedAtoms>
  152.3317  134.7251  160.0287 H   0  0  0  0  0  0  0  0  0  0  0  0  # atno 6907 bound_to 6896
  151.7665  133.3332  159.3440 H   0  0  0  0  0  0  0  0  0  0  0  0  # atno 6908 bound_to 6896
  150.7427  134.5989  159.6071 H   0  0  0  0  0  0  0  0  0  0  0  0  # atno 6909 bound_to 6896
  144.7162  140.1985  143.6341 H   0  0  0  0  0  0  0  0  0  0  0  0  # atno 7974 bound_to 7965
  154.4104  140.1226  156.4975 H   0  0  0  0  0  0  0  0  0  0  0  0  # atno 8008 bound_to 7997
  155.6928  140.3495  155.4881 H   0  0  0  0  0  0  0  0  0  0  0  0  # atno 8009 bound_to 7997
  155.9454  140.1095  157.1011 H   0  0  0  0  0  0  0  0  0  0  0  0  # atno 8010 bound_to 7997
  139.5096  144.3304  152.0117 H   0  0  0  0  0  0  0  0  0  0  0  0  # atno 10167 bound_to 10162
  157.3193  131.0901  151.1253 H   0  0  0  0  0  0  0  0  0  0  0  0  # atno 10718 bound_to 10713
  154.1336  135.2825  155.3179 H   0  0  0  0  0  0  0  0  0  0  0  0  # atno 10763 bound_to 10752
  154.6337  135.5426  153.7713 H   0  0  0  0  0  0  0  0  0  0  0  0  # atno 10764 bound_to 10752
  153.0273  135.6469  154.1486 H   0  0  0  0  0  0  0  0  0  0  0  0  # atno 10765 bound_to 10752
  140.6507  133.9407  155.8378 H   0  0  0  0  0  0  0  0  0  0  0  0  # atno 11005 bound_to 11000
  145.8702  139.2268  143.1665 LP  0  0  0  0  0  0  0  0  0  0  0  0  # atno 17320 bound_to 7965
  146.0092  140.8451  142.9979 LP  0  0  0  0  0  0  0  0  0  0  0  0  # atno 17321 bound_to 7965
  140.2744  144.3929  150.6140 LP  0  0  0  0  0  0  0  0  0  0  0  0  # atno 17342 bound_to 10162
  140.6065  143.2168  151.6971 LP  0  0  0  0  0  0  0  0  0  0  0  0  # atno 17343 bound_to 10162
  157.2545  130.6629  149.5946 LP  0  0  0  0  0  0  0  0  0  0  0  0  # atno 17370 bound_to 10713
  155.9684  130.4528  150.5787 LP  0  0  0  0  0  0  0  0  0  0  0  0  # atno 17371 bound_to 10713
  141.0539  134.0445  157.3748 LP  0  0  0  0  0  0  0  0  0  0  0  0  # atno 17394 bound_to 11000
  139.9047  135.0176  156.7430 LP  0  0  0  0  0  0  0  0  0  0  0  0  # atno 17395 bound_to 11000

$$$$
