AV-unprocessed.smi:610|AV-procd|sdf|3053|dock6
  -GOLD-   2262023573D 1   1.00000     0.00000
 Structure written by MMmdl.
 39 40  0  0  0  0  0  0  0  0  3 V2000
  149.9282  134.8323  156.5539 C   0  0  0  0  0  0  0  0  0  0  0  0
  148.8924  135.0826  155.4500 C   0  0  2  0  0  0  0  0  0  0  0  0
  148.8319  133.8976  154.4624 C   0  0  0  0  0  0  0  0  0  0  0  0
  147.4682  133.5910  154.0159 N   0  0  0  0  0  0  0  0  0  0  0  0
  146.9598  133.7219  152.7487 C   0  0  0  0  0  0  0  0  0  0  0  0
  145.6511  133.3173  152.8086 C   0  0  0  0  0  0  0  0  0  0  0  0
  145.4131  132.9663  154.1105 N   0  3  0  0  0  0  0  0  0  0  0  0
  146.5172  133.1399  154.8444 C   0  0  0  0  0  0  0  0  0  0  0  0
  149.2326  136.3249  154.7573 N   0  0  0  0  0  0  0  0  0  0  0  0
  149.1456  137.5655  155.2681 C   0  0  0  0  0  0  0  0  0  0  0  0
  148.7661  137.7779  156.4201 O   0  0  0  0  0  0  0  0  0  0  0  0
  149.5587  138.7566  154.3708 C   0  0  0  0  0  0  0  0  0  0  0  0
  148.6245  138.7890  153.2304 N   0  3  0  0  0  0  0  0  0  0  0  0
  149.6095  140.1172  155.0966 C   0  0  0  0  0  0  0  0  0  0  0  0
  150.9587  140.1345  155.8273 C   0  0  0  0  0  0  0  0  0  0  0  0
  151.8770  139.1935  155.0315 C   0  0  0  0  0  0  0  0  0  0  0  0
  151.0178  138.6192  153.8953 C   0  0  0  0  0  0  0  0  0  0  0  0
  149.6918  133.9286  157.1164 H   0  0  0  0  0  0  0  0  0  0  0  0
  149.9563  135.6604  157.2630 H   0  0  0  0  0  0  0  0  0  0  0  0
  150.9304  134.7127  156.1405 H   0  0  0  0  0  0  0  0  0  0  0  0
  147.9220  135.1843  155.9392 H   0  0  0  0  0  0  0  0  0  0  0  0
  149.4545  134.0890  153.5866 H   0  0  0  0  0  0  0  0  0  0  0  0
  149.2210  132.9941  154.9339 H   0  0  0  0  0  0  0  0  0  0  0  0
  147.5536  134.0780  151.9191 H   0  0  0  0  0  0  0  0  0  0  0  0
  144.8911  133.2572  152.0430 H   0  0  0  0  0  0  0  0  0  0  0  0
  146.6199  132.9469  155.8976 H   0  0  0  0  0  0  0  0  0  0  0  0
  149.5591  136.2318  153.8059 H   0  0  0  0  0  0  0  0  0  0  0  0
  147.7341  139.1587  153.5313 H   0  0  0  0  0  0  0  0  0  0  0  0
  148.4982  137.8540  152.8695 H   0  0  0  0  0  0  0  0  0  0  0  0
  149.6017  140.9217  154.3589 H   0  0  0  0  0  0  0  0  0  0  0  0
  148.7691  140.3102  155.7645 H   0  0  0  0  0  0  0  0  0  0  0  0
  151.3651  141.1441  155.8951 H   0  0  0  0  0  0  0  0  0  0  0  0
  150.8407  139.7614  156.8453 H   0  0  0  0  0  0  0  0  0  0  0  0
  152.7514  139.7145  154.6400 H   0  0  0  0  0  0  0  0  0  0  0  0
  152.2383  138.3920  155.6765 H   0  0  0  0  0  0  0  0  0  0  0  0
  151.3098  137.5997  153.6400 H   0  0  0  0  0  0  0  0  0  0  0  0
  151.1706  139.2206  152.9973 H   0  0  0  0  0  0  0  0  0  0  0  0
  149.0064  139.3783  152.5041 H   0  0  0  0  0  0  0  0  0  0  0  0
  144.5278  132.6309  154.4695 H   0  0  0  0  0  0  0  0  0  0  0  0
  1  2  1  0  0  0  0
  1 18  1  0  0  0  0
  1 19  1  0  0  0  0
  1 20  1  0  0  0  0
  2  3  1  0  0  0  0
  2  9  1  0  0  0  0
  2 21  1  0  0  0  0
  3  4  1  0  0  0  0
  3 22  1  0  0  0  0
  3 23  1  0  0  0  0
  4  8  1  0  0  0  0
  4  5  1  0  0  0  0
  5  6  2  0  0  0  0
  5 24  1  0  0  0  0
  6  7  1  0  0  0  0
  6 25  1  0  0  0  0
  7  8  2  0  0  0  0
  7 39  1  0  0  0  0
  8 26  1  0  0  0  0
  9 10  1  0  0  0  0
  9 27  1  0  0  0  0
 10 11  2  0  0  0  0
 10 12  1  0  0  0  0
 12 17  1  0  0  0  0
 12 13  1  0  0  0  0
 12 14  1  0  0  0  0
 13 28  1  0  0  0  0
 13 29  1  0  0  0  0
 13 38  1  0  0  0  0
 14 15  1  0  0  0  0
 14 30  1  0  0  0  0
 14 31  1  0  0  0  0
 15 16  1  0  0  0  0
 15 32  1  0  0  0  0
 15 33  1  0  0  0  0
 16 17  1  0  0  0  0
 16 34  1  0  0  0  0
 16 35  1  0  0  0  0
 17 36  1  0  0  0  0
 17 37  1  0  0  0  0
M  CHG  1   7   1
M  CHG  1  13   1
M  END
> <s_m_source_file>
AV-unprocessed.smi

> <i_m_source_file_index>
610

> <i_lp_mmshare_version>
43012

> <i_f3d_flags>
0

> <s_epik_input>
W2NIXTFuW2NIXVtjSF1uMVtDSDJdW0NAQEhdKFtDSDNdKVtOSF1DKD1PKUMyKFtOSDJdKVtDSDJdW0NIMl1bQ0gyXVtDSDJdMg==

> <s_epik_cmdline>
J2VwaWtfcHl0aG9uJywgJy1waCcsICc3LjAnLCAnLXRuJywgJzgnLCAnLW1hJywgJzIwMCcsICctbWV0YWxfYmluZGluZycsICctaW1hZScsICc8aW5maWxlLm1hZT4nLCAnLW9tYWUnLCAnPG91dGZpbGUubWFlPic=

> <r_lp_tautomer_probability>
1

> <r_epik_Ionization_Penalty>
0.349719

> <r_epik_Ionization_Penalty_Charging>
0.0753376

> <r_epik_Ionization_Penalty_Neutral>
0.274381

> <r_epik_State_Penalty>
0.326418

> <r_epik_Charging_Adjusted_Penalty>
0.401755

> <i_epik_Tot_Q>
2

> <i_epik_Tot_abs_Q>
2

> <r_epik_Metal_State_Penalty>
0.608513

> <b_epik_Metal_Only>
0

> <s_lp_Force_Field>
OPLS_2005

> <r_lp_Energy>
30.886

> <b_lp_Chiralities_Consistent>
1

> <s_lp_Variant>
AV-unprocessed.smi:610-1

> <Gold.Version>
5.8.1

> <Gold.Id.Protein>
6NUR|6NUR_protein|mol2

> <Gold.PLP.Fitness>
44.7699

> <Gold.PLP.PLP>
-25.6801

> <Gold.PLP.part.hbond>
-4.0000

> <Gold.PLP.part.metal>
0.0000

> <Gold.PLP.part.buried>
-3.5248

> <Gold.PLP.part.nonpolar>
-18.2798

> <Gold.PLP.part.repulsive>
0.0998

> <Gold.PLP.ligand.clash>
0.0000

> <Gold.PLP.ligand.torsion>
0.7367

> <Gold.PLP.Chemscore.Hbond>
5.9440

> <Gold.PLP.Chemscore.CHOScore>
0.8903

> <Gold.PLP.Chemscore.Metal>
0.0000

> <Gold.Chemscore.Hbonds>
donor molecule, donor type, donor heavy atom, donor atom, acceptor molecule, acceptor atom, score
      L1  H     7    39       P1 10957  1.82
      L1  H     9    27       P1  7948  0.90
      L1  H    13    29       P1  7948  2.00
      L1  H    13    38       P1  7957  1.00
      L1  C     5    24       P1  7948  0.90

> <Gold.PLP.Chemscore.Internal.Correction>
0.0603

> <Gold.Rescore>
     Score         DG    S(hbond)    S(metal)    S(lipo)     H(rot)  DE(clash)    DE(int)     intcor
     18.03     -18.91       3.76        0.00      52.77       2.06       0.00       0.88       ----

> <Gold.Chemscore.Fitness>
18.0271

> <Gold.Chemscore.DG>
-18.9119

> <Gold.Chemscore.ZeroCoef>
-5.4800

> <Gold.Chemscore.Hbond>
3.7551

> <Gold.Chemscore.Metal>
0.0000

> <Gold.Chemscore.Lipo>
52.7746

> <Gold.Chemscore.Internal_Hbond>
0.0000

> <Gold.Chemscore.DEClash>
0.0036

> <Gold.Chemscore.DEInternal>
0.8812

> <Gold.Chemscore.Rot>
2.0644

> <Gold.Chemscore.Internal.Correction>
   9.000000E+99

> <Gold.Chemscore.Hbonds>
donor molecule, donor type, donor heavy atom, donor atom, acceptor molecule, acceptor atom, score
      L1  H     7    39       P1 10957  0.78
      L1  H     9    27       P1  7948  0.51
      L1  H    13    29       P1  7948  0.98
      L1  H    13    38       P1  7957  0.99

> <Gold.Chemscore.Hbond.Weighted>
-12.5420

> <Gold.Chemscore.Metal.Weighted>
-0.0000

> <Gold.Chemscore.Lipo.Weighted>
-6.1746

> <Gold.Chemscore.Internal_Hbond.Weighted>
0.0000

> <Gold.Chemscore.DEClash.Weighted>
0.0036

> <Gold.Chemscore.DEInternal.Weighted>
0.8812

> <Gold.Chemscore.Rot.Weighted>
5.2848

> <Gold.Chemscore.Internal.Correction.Weighted>
   9.000000E+99

> <Gold.Protein.RotatedTorsions>
[ 6907 6896 6895 6894 ] final  -89.43 input  -60.11 | X-H torsion
[ 7974 7965 7964 7962 ] final  117.54 input  175.53 | X-H torsion
[ 8008 7997 7996 7995 ] final  108.90 input   59.86 | X-H torsion
[ 10167 10162 10161 10158 ] final   85.51 input  -65.29 | X-H torsion
[ 10718 10713 10712 10709 ] final -100.54 input   66.30 | X-H torsion
[ 10763 10752 10751 10750 ] final -136.51 input  -60.55 | X-H torsion
[ 11005 11000 10999 10996 ] final -110.95 input  -57.11 | X-H torsion

> <Gold.Protein.ActiveResidues>
 VAL166  LYS551  ARG553  GLY616  TRP617  ASP618  TYR619  PRO620  LYS621  CYS622 
 ASP623  PHE694  ASN695  SER759  ASP760  ASP761  ALA762  ILE779  LEU786  VAL792 
 PHE793  MET794  SER795  GLU796  ALA797  LYS798  CYS799  TRP800  GLU811  SER814 

> <Gold.Protein.RotatedAtoms>
  150.6874  134.2588  159.4540 H   0  0  0  0  0  0  0  0  0  0  0  0  # atno 6907 bound_to 6896
  152.0520  134.9645  160.0584 H   0  0  0  0  0  0  0  0  0  0  0  0  # atno 6908 bound_to 6896
  152.1106  133.4264  159.4666 H   0  0  0  0  0  0  0  0  0  0  0  0  # atno 6909 bound_to 6896
  145.1661  139.3127  143.4492 H   0  0  0  0  0  0  0  0  0  0  0  0  # atno 7974 bound_to 7965
  156.1938  140.3068  155.9386 H   0  0  0  0  0  0  0  0  0  0  0  0  # atno 8008 bound_to 7997
  155.3113  140.0451  157.3052 H   0  0  0  0  0  0  0  0  0  0  0  0  # atno 8009 bound_to 7997
  154.5484  140.2284  155.8534 H   0  0  0  0  0  0  0  0  0  0  0  0  # atno 8010 bound_to 7997
  139.8970  144.6352  150.8677 H   0  0  0  0  0  0  0  0  0  0  0  0  # atno 10167 bound_to 10162
  156.0166  130.5332  150.6831 H   0  0  0  0  0  0  0  0  0  0  0  0  # atno 10718 bound_to 10713
  154.8682  135.3670  154.5072 H   0  0  0  0  0  0  0  0  0  0  0  0  # atno 10763 bound_to 10752
  153.5710  135.7020  153.5510 H   0  0  0  0  0  0  0  0  0  0  0  0  # atno 10764 bound_to 10752
  153.3542  135.4064  155.1632 H   0  0  0  0  0  0  0  0  0  0  0  0  # atno 10765 bound_to 10752
  141.0763  133.9296  157.2383 H   0  0  0  0  0  0  0  0  0  0  0  0  # atno 11005 bound_to 11000
  146.3475  140.1790  142.8589 LP  0  0  0  0  0  0  0  0  0  0  0  0  # atno 17320 bound_to 7965
  145.0280  140.8848  143.5126 LP  0  0  0  0  0  0  0  0  0  0  0  0  # atno 17321 bound_to 7965
  140.7715  143.3466  151.2099 LP  0  0  0  0  0  0  0  0  0  0  0  0  # atno 17342 bound_to 10162
  139.7059  143.9456  152.2926 LP  0  0  0  0  0  0  0  0  0  0  0  0  # atno 17343 bound_to 10162
  157.4529  131.0874  151.0827 LP  0  0  0  0  0  0  0  0  0  0  0  0  # atno 17370 bound_to 10713
  157.1337  130.6113  149.5536 LP  0  0  0  0  0  0  0  0  0  0  0  0  # atno 17371 bound_to 10713
  139.9575  135.0162  156.9169 LP  0  0  0  0  0  0  0  0  0  0  0  0  # atno 17394 bound_to 11000
  140.5567  134.0575  155.7386 LP  0  0  0  0  0  0  0  0  0  0  0  0  # atno 17395 bound_to 11000

$$$$
