AV-unprocessed.smi:1394|AV-procd|sdf|5666|dock7
  -GOLD-   22720 5293D 1   1.00000     0.00000
 Structure written by MMmdl.
 41 42  0  0  0  0  0  0  0  0  1 V2000
  145.9238  143.2185  156.0320 C   0  0  0  0  0  0  0  0  0  0  0  0
  146.3533  141.9021  155.3621 C   0  0  1  0  0  0  0  0  0  0  0  0
  146.6803  142.1076  153.8686 C   0  0  0  0  0  0  0  0  0  0  0  0
  147.0435  140.7814  153.1818 C   0  0  0  0  0  0  0  0  0  0  0  0
  148.2055  140.0804  153.9009 C   0  0  0  0  0  0  0  0  0  0  0  0
  147.8924  139.8704  155.3925 C   0  0  0  0  0  0  0  0  0  0  0  0
  147.5134  141.1865  156.1021 C   0  0  1  0  0  0  0  0  0  0  0  0
  148.6977  142.0393  156.2261 N   0  0  0  0  0  0  0  0  0  0  0  0
  149.8770  141.6843  156.7592 C   0  0  0  0  0  0  0  0  0  0  0  0
  150.0938  140.5730  157.2447 O   0  0  0  0  0  0  0  0  0  0  0  0
  150.9642  142.7691  156.7523 C   0  0  0  0  0  0  0  0  0  0  0  0
  151.6648  142.9075  158.0411 N   0  0  0  0  0  0  0  0  0  0  0  0
  151.5073  144.1278  158.7221 C   0  0  0  0  0  0  0  0  0  0  0  0
  152.0930  144.3564  159.9052 C   0  0  0  0  0  0  0  0  0  0  0  0
  152.8992  143.3080  160.4809 C   0  0  0  0  0  0  0  0  0  0  0  0
  153.0680  142.1225  159.8505 C   0  0  0  0  0  0  0  0  0  0  0  0
  153.9092  140.9986  160.4510 C   0  0  0  0  0  0  0  0  0  0  0  0
  153.9622  141.1091  161.7791 F   0  0  0  0  0  0  0  0  0  0  0  0
  153.3834  139.8099  160.1523 F   0  0  0  0  0  0  0  0  0  0  0  0
  155.1613  141.0179  159.9911 F   0  0  0  0  0  0  0  0  0  0  0  0
  152.4223  141.8833  158.5434 C   0  0  0  0  0  0  0  0  0  0  0  0
  152.5499  140.8228  157.9290 O   0  0  0  0  0  0  0  0  0  0  0  0
  146.7026  143.9785  155.9666 H   0  0  0  0  0  0  0  0  0  0  0  0
  145.6937  143.0649  157.0866 H   0  0  0  0  0  0  0  0  0  0  0  0
  145.0302  143.6236  155.5566 H   0  0  0  0  0  0  0  0  0  0  0  0
  145.4903  141.2361  155.4108 H   0  0  0  0  0  0  0  0  0  0  0  0
  145.8265  142.5566  153.3600 H   0  0  0  0  0  0  0  0  0  0  0  0
  147.5057  142.8125  153.7616 H   0  0  0  0  0  0  0  0  0  0  0  0
  146.1721  140.1255  153.1708 H   0  0  0  0  0  0  0  0  0  0  0  0
  147.3066  140.9624  152.1392 H   0  0  0  0  0  0  0  0  0  0  0  0
  148.4092  139.1199  153.4271 H   0  0  0  0  0  0  0  0  0  0  0  0
  149.1142  140.6739  153.7932 H   0  0  0  0  0  0  0  0  0  0  0  0
  147.0660  139.1646  155.4852 H   0  0  0  0  0  0  0  0  0  0  0  0
  148.7437  139.4045  155.8905 H   0  0  0  0  0  0  0  0  0  0  0  0
  147.1626  140.9190  157.1004 H   0  0  0  0  0  0  0  0  0  0  0  0
  148.6126  142.9776  155.8631 H   0  0  0  0  0  0  0  0  0  0  0  0
  151.6796  142.5535  155.9565 H   0  0  0  0  0  0  0  0  0  0  0  0
  150.4986  143.7134  156.4660 H   0  0  0  0  0  0  0  0  0  0  0  0
  150.8812  144.8562  158.2275 H   0  0  0  0  0  0  0  0  0  0  0  0
  151.9603  145.2986  160.4167 H   0  0  0  0  0  0  0  0  0  0  0  0
  153.3670  143.4880  161.4372 H   0  0  0  0  0  0  0  0  0  0  0  0
  1  2  1  0  0  0  0
  1 23  1  0  0  0  0
  1 24  1  0  0  0  0
  1 25  1  0  0  0  0
  2  7  1  0  0  0  0
  2  3  1  0  0  0  0
  2 26  1  0  0  0  0
  3  4  1  0  0  0  0
  3 27  1  0  0  0  0
  3 28  1  0  0  0  0
  4  5  1  0  0  0  0
  4 29  1  0  0  0  0
  4 30  1  0  0  0  0
  5  6  1  0  0  0  0
  5 31  1  0  0  0  0
  5 32  1  0  0  0  0
  6  7  1  0  0  0  0
  6 33  1  0  0  0  0
  6 34  1  0  0  0  0
  7  8  1  0  0  0  0
  7 35  1  0  0  0  0
  8  9  1  0  0  0  0
  8 36  1  0  0  0  0
  9 10  2  0  0  0  0
  9 11  1  0  0  0  0
 11 12  1  0  0  0  0
 11 37  1  0  0  0  0
 11 38  1  0  0  0  0
 12 21  1  0  0  0  0
 12 13  1  0  0  0  0
 13 14  2  0  0  0  0
 13 39  1  0  0  0  0
 14 15  1  0  0  0  0
 14 40  1  0  0  0  0
 15 16  2  0  0  0  0
 15 41  1  0  0  0  0
 16 17  1  0  0  0  0
 16 21  1  0  0  0  0
 17 18  1  0  0  0  0
 17 19  1  0  0  0  0
 17 20  1  0  0  0  0
 21 22  2  0  0  0  0
M  END
> <s_m_source_file>
AV-unprocessed.smi

> <i_m_source_file_index>
1394

> <i_lp_mmshare_version>
43012

> <i_f3d_flags>
0

> <s_epik_input>
W0NIM11bQ0BASF0xW0NIMl1bQ0gyXVtDSDJdW0NIMl1bQ0BIXTFbTkhdQyg9TylbQ0gyXW4yW2NIXVtjSF1bY0hdYyhDKEYpKEYpRiljMj1P

> <s_epik_cmdline>
J2VwaWtfcHl0aG9uJywgJy1waCcsICc3LjAnLCAnLXRuJywgJzgnLCAnLW1hJywgJzIwMCcsICctbWV0YWxfYmluZGluZycsICctaW1hZScsICc8aW5maWxlLm1hZT4nLCAnLW9tYWUnLCAnPG91dGZpbGUubWFlPic=

> <r_lp_tautomer_probability>
1

> <r_epik_Ionization_Penalty>
2.11487e-08

> <r_epik_Ionization_Penalty_Charging>
2.10183e-09

> <r_epik_Ionization_Penalty_Neutral>
1.90469e-08

> <r_epik_State_Penalty>
-0

> <r_epik_Charging_Adjusted_Penalty>
2.10183e-09

> <i_epik_Tot_Q>
0

> <i_epik_Tot_abs_Q>
0

> <r_epik_Metal_State_Penalty>
-0

> <b_epik_Metal_Only>
0

> <s_lp_Force_Field>
OPLS_2005

> <r_lp_Energy>
19.806

> <b_lp_Chiralities_Consistent>
1

> <s_lp_Variant>
AV-unprocessed.smi:1394-2

> <Gold.Version>
5.8.1

> <Gold.Id.Protein>
6NUR|6NUR_protein|mol2

> <Gold.PLP.Fitness>
46.6108

> <Gold.PLP.PLP>
-44.9712

> <Gold.PLP.part.hbond>
-1.8518

> <Gold.PLP.part.metal>
0.0000

> <Gold.PLP.part.buried>
-1.4760

> <Gold.PLP.part.nonpolar>
-40.3843

> <Gold.PLP.part.repulsive>
0.0525

> <Gold.PLP.ligand.clash>
0.0000

> <Gold.PLP.ligand.torsion>
1.2679

> <Gold.PLP.Chemscore.Hbond>
1.2746

> <Gold.PLP.Chemscore.CHOScore>
0.0000

> <Gold.PLP.Chemscore.Metal>
0.0000

> <Gold.Chemscore.Hbonds>
donor molecule, donor type, donor heavy atom, donor atom, acceptor molecule, acceptor atom, score
      L1  H     8    36       P1  8028  1.00
      P1  H  7997  8010       L1    22  0.21

> <Gold.PLP.Chemscore.Internal.Correction>
0.3518

> <Gold.Rescore>
     Score         DG    S(hbond)    S(metal)    S(lipo)     H(rot)  DE(clash)    DE(int)     intcor
     11.73     -18.46       1.56        0.00      99.71       1.52       1.19       5.53       ----

> <Gold.Chemscore.Fitness>
11.7308

> <Gold.Chemscore.DG>
-18.4556

> <Gold.Chemscore.ZeroCoef>
-5.4800

> <Gold.Chemscore.Hbond>
1.5603

> <Gold.Chemscore.Metal>
0.0000

> <Gold.Chemscore.Lipo>
99.7116

> <Gold.Chemscore.Internal_Hbond>
0.0000

> <Gold.Chemscore.DEClash>
1.1917

> <Gold.Chemscore.DEInternal>
5.5331

> <Gold.Chemscore.Rot>
1.5242

> <Gold.Chemscore.Internal.Correction>
   9.000000E+99

> <Gold.Chemscore.Hbonds>
donor molecule, donor type, donor heavy atom, donor atom, acceptor molecule, acceptor atom, score
      L1  H     8    36       P1  8028  0.99
      P1  H  7997  8010       L1    22  0.20

> <Gold.Chemscore.Hbond.Weighted>
-5.2113

> <Gold.Chemscore.Metal.Weighted>
-0.0000

> <Gold.Chemscore.Lipo.Weighted>
-11.6663

> <Gold.Chemscore.Internal_Hbond.Weighted>
0.0000

> <Gold.Chemscore.DEClash.Weighted>
1.1917

> <Gold.Chemscore.DEInternal.Weighted>
5.5331

> <Gold.Chemscore.Rot.Weighted>
3.9019

> <Gold.Chemscore.Internal.Correction.Weighted>
   9.000000E+99

> <Gold.Protein.RotatedTorsions>
[ 6907 6896 6895 6894 ] final   55.53 input  -60.11 | X-H torsion
[ 7974 7965 7964 7962 ] final  -36.85 input  175.53 | X-H torsion
[ 8008 7997 7996 7995 ] final   47.32 input   59.86 | X-H torsion
[ 10167 10162 10161 10158 ] final   14.17 input  -65.29 | X-H torsion
[ 10718 10713 10712 10709 ] final  -39.49 input   66.30 | X-H torsion
[ 10763 10752 10751 10750 ] final   -6.73 input  -60.55 | X-H torsion
[ 11005 11000 10999 10996 ] final   52.73 input  -57.11 | X-H torsion

> <Gold.Protein.ActiveResidues>
 VAL166  LYS551  ARG553  GLY616  TRP617  ASP618  TYR619  PRO620  LYS621  CYS622 
 ASP623  PHE694  ASN695  SER759  ASP760  ASP761  ALA762  ILE779  LEU786  VAL792 
 PHE793  MET794  SER795  GLU796  ALA797  LYS798  CYS799  TRP800  GLU811  SER814 

> <Gold.Protein.RotatedAtoms>
  152.3548  134.6955  160.0225 H   0  0  0  0  0  0  0  0  0  0  0  0  # atno 6907 bound_to 6896
  151.7298  133.3312  159.3345 H   0  0  0  0  0  0  0  0  0  0  0  0  # atno 6908 bound_to 6896
  150.7564  134.6307  159.6229 H   0  0  0  0  0  0  0  0  0  0  0  0  # atno 6909 bound_to 6896
  146.0626  140.6326  142.8990 H   0  0  0  0  0  0  0  0  0  0  0  0  # atno 7974 bound_to 7965
  155.3672  140.3422  155.4242 H   0  0  0  0  0  0  0  0  0  0  0  0  # atno 8008 bound_to 7997
  156.1682  140.1623  156.8528 H   0  0  0  0  0  0  0  0  0  0  0  0  # atno 8009 bound_to 7997
  154.5206  140.0768  156.8147 H   0  0  0  0  0  0  0  0  0  0  0  0  # atno 8010 bound_to 7997
  140.5953  143.8713  150.6912 H   0  0  0  0  0  0  0  0  0  0  0  0  # atno 10167 bound_to 10162
  156.2919  130.4229  149.8230 H   0  0  0  0  0  0  0  0  0  0  0  0  # atno 10718 bound_to 10713
  153.4164  135.7009  153.6324 H   0  0  0  0  0  0  0  0  0  0  0  0  # atno 10763 bound_to 10752
  153.4796  135.3696  155.2435 H   0  0  0  0  0  0  0  0  0  0  0  0  # atno 10764 bound_to 10752
  154.8720  135.4063  154.3525 H   0  0  0  0  0  0  0  0  0  0  0  0  # atno 10765 bound_to 10752
  140.0825  134.5319  155.8932 H   0  0  0  0  0  0  0  0  0  0  0  0  # atno 11005 bound_to 11000
  144.7184  140.4289  143.7027 LP  0  0  0  0  0  0  0  0  0  0  0  0  # atno 17320 bound_to 7965
  145.6533  139.1568  143.2850 LP  0  0  0  0  0  0  0  0  0  0  0  0  # atno 17321 bound_to 7965
  140.2246  143.3782  152.1615 LP  0  0  0  0  0  0  0  0  0  0  0  0  # atno 17342 bound_to 10162
  139.5254  144.7095  151.5249 LP  0  0  0  0  0  0  0  0  0  0  0  0  # atno 17343 bound_to 10162
  156.5640  130.8396  151.3337 LP  0  0  0  0  0  0  0  0  0  0  0  0  # atno 17370 bound_to 10713
  157.7344  130.9746  150.2030 LP  0  0  0  0  0  0  0  0  0  0  0  0  # atno 17371 bound_to 10713
  141.2051  133.6644  156.6163 LP  0  0  0  0  0  0  0  0  0  0  0  0  # atno 17394 bound_to 11000
  140.3467  134.7803  157.4437 LP  0  0  0  0  0  0  0  0  0  0  0  0  # atno 17395 bound_to 11000

$$$$
