AV-unprocessed.smi:1209|AV-procd|sdf|5074|dock3
  -GOLD-   22720 4123D 1   1.00000     0.00000
 Structure written by MMmdl.
 49 51  0  0  0  0  0  0  0  0  2 V2000
  144.8480  134.6323  150.4390 C   0  0  0  0  0  0  0  0  0  0  0  0
  145.1761  135.7879  151.3210 C   0  0  0  0  0  0  0  0  0  0  0  0
  146.2153  136.6739  151.3493 C   0  0  0  0  0  0  0  0  0  0  0  0
  145.9051  137.5202  152.4492 C   0  0  0  0  0  0  0  0  0  0  0  0
  146.6889  138.6927  152.9714 C   0  0  0  0  0  0  0  0  0  0  0  0
  147.9397  138.2551  153.6438 N   0  3  2  0  0  0  0  0  0  0  0  0
  147.6892  137.6362  154.9671 C   0  0  0  0  0  0  0  0  0  0  0  0
  148.9674  139.3252  153.7173 C   0  0  0  0  0  0  0  0  0  0  0  0
  148.7744  140.2382  154.9441 C   0  0  2  0  0  0  0  0  0  0  0  0
  147.5250  140.8920  154.8328 O   0  0  0  0  0  0  0  0  0  0  0  0
  149.8913  141.2933  155.0560 C   0  0  0  0  0  0  0  0  0  0  0  0
  150.8534  140.9676  156.0932 N   0  0  0  0  0  0  0  0  0  0  0  0
  151.6827  139.9068  156.1350 C   0  0  0  0  0  0  0  0  0  0  0  0
  152.4919  139.8088  157.1858 N   0  0  0  0  0  0  0  0  0  0  0  0
  152.1416  140.9322  157.9151 C   0  0  0  0  0  0  0  0  0  0  0  0
  152.6330  141.4175  159.1465 C   0  0  0  0  0  0  0  0  0  0  0  0
  152.1214  142.6070  159.7128 C   0  0  0  0  0  0  0  0  0  0  0  0
  152.6814  143.0946  161.0372 C   0  0  0  0  0  0  0  0  0  0  0  0
  151.0986  143.3291  159.0465 C   0  0  0  0  0  0  0  0  0  0  0  0
  150.5328  144.6086  159.6363 C   0  0  0  0  0  0  0  0  0  0  0  0
  150.5956  142.8576  157.8161 C   0  0  0  0  0  0  0  0  0  0  0  0
  151.1162  141.6754  157.2608 C   0  0  0  0  0  0  0  0  0  0  0  0
  144.7685  137.1734  153.0302 N   0  0  0  0  0  0  0  0  0  0  0  0
  144.2964  136.0659  152.3172 O   0  0  0  0  0  0  0  0  0  0  0  0
  145.7105  134.3434  149.8380 H   0  0  0  0  0  0  0  0  0  0  0  0
  144.0320  134.8840  149.7615 H   0  0  0  0  0  0  0  0  0  0  0  0
  144.5435  133.7678  151.0293 H   0  0  0  0  0  0  0  0  0  0  0  0
  147.0663  136.7098  150.6854 H   0  0  0  0  0  0  0  0  0  0  0  0
  146.9190  139.3518  152.1355 H   0  0  0  0  0  0  0  0  0  0  0  0
  146.0921  139.2899  153.6633 H   0  0  0  0  0  0  0  0  0  0  0  0
  147.2657  138.3618  155.6629 H   0  0  0  0  0  0  0  0  0  0  0  0
  148.6160  137.2532  155.3954 H   0  0  0  0  0  0  0  0  0  0  0  0
  147.0007  136.7946  154.8903 H   0  0  0  0  0  0  0  0  0  0  0  0
  149.9585  138.8686  153.7270 H   0  0  0  0  0  0  0  0  0  0  0  0
  148.9298  139.9439  152.8188 H   0  0  0  0  0  0  0  0  0  0  0  0
  148.7623  139.6471  155.8591 H   0  0  0  0  0  0  0  0  0  0  0  0
  147.0933  140.8604  155.6736 H   0  0  0  0  0  0  0  0  0  0  0  0
  150.4301  141.3735  154.1111 H   0  0  0  0  0  0  0  0  0  0  0  0
  149.4706  142.2789  155.2609 H   0  0  0  0  0  0  0  0  0  0  0  0
  151.6978  139.1675  155.3473 H   0  0  0  0  0  0  0  0  0  0  0  0
  153.4106  140.8665  159.6549 H   0  0  0  0  0  0  0  0  0  0  0  0
  151.8952  143.1401  161.7911 H   0  0  0  0  0  0  0  0  0  0  0  0
  153.1140  144.0892  160.9263 H   0  0  0  0  0  0  0  0  0  0  0  0
  153.4626  142.4303  161.4080 H   0  0  0  0  0  0  0  0  0  0  0  0
  149.7517  145.0282  159.0016 H   0  0  0  0  0  0  0  0  0  0  0  0
  151.3168  145.3586  159.7423 H   0  0  0  0  0  0  0  0  0  0  0  0
  150.0992  144.4187  160.6184 H   0  0  0  0  0  0  0  0  0  0  0  0
  149.8164  143.3974  157.2989 H   0  0  0  0  0  0  0  0  0  0  0  0
  148.3423  137.5299  153.0666 H   0  0  0  0  0  0  0  0  0  0  0  0
  1  2  1  0  0  0  0
  1 25  1  0  0  0  0
  1 26  1  0  0  0  0
  1 27  1  0  0  0  0
  2 24  1  0  0  0  0
  2  3  2  0  0  0  0
  3  4  1  0  0  0  0
  3 28  1  0  0  0  0
  4  5  1  0  0  0  0
  4 23  2  0  0  0  0
  5  6  1  0  0  0  0
  5 29  1  0  0  0  0
  5 30  1  0  0  0  0
  6  7  1  0  0  0  0
  6  8  1  0  0  0  0
  6 49  1  0  0  0  0
  7 31  1  0  0  0  0
  7 32  1  0  0  0  0
  7 33  1  0  0  0  0
  8  9  1  0  0  0  0
  8 34  1  0  0  0  0
  8 35  1  0  0  0  0
  9 10  1  0  0  0  0
  9 11  1  0  0  0  0
  9 36  1  0  0  0  0
 10 37  1  0  0  0  0
 11 12  1  0  0  0  0
 11 38  1  0  0  0  0
 11 39  1  0  0  0  0
 12 22  1  0  0  0  0
 12 13  1  0  0  0  0
 13 14  2  0  0  0  0
 13 40  1  0  0  0  0
 14 15  1  0  0  0  0
 15 22  2  0  0  0  0
 15 16  1  0  0  0  0
 16 17  2  0  0  0  0
 16 41  1  0  0  0  0
 17 18  1  0  0  0  0
 17 19  1  0  0  0  0
 18 42  1  0  0  0  0
 18 43  1  0  0  0  0
 18 44  1  0  0  0  0
 19 20  1  0  0  0  0
 19 21  2  0  0  0  0
 20 45  1  0  0  0  0
 20 46  1  0  0  0  0
 20 47  1  0  0  0  0
 21 22  1  0  0  0  0
 21 48  1  0  0  0  0
 23 24  1  0  0  0  0
M  CHG  1   6   1
M  END
> <s_m_source_file>
AV-unprocessed.smi

> <i_m_source_file_index>
1209

> <i_lp_mmshare_version>
43012

> <i_f3d_flags>
0

> <s_epik_input>
W0NIM11jMVtjSF1jKG5vMSlbQ0gyXU4oW0NIM10pW0NIMl1bQ0BIXShbT0hdKVtDSDJdbihbY0hdbjIpYyhjMjMpW2NIXWMoW0NIM10pYyhbY0hdMylbQ0gzXQ==

> <s_epik_cmdline>
J2VwaWtfcHl0aG9uJywgJy1waCcsICc3LjAnLCAnLXRuJywgJzgnLCAnLW1hJywgJzIwMCcsICctbWV0YWxfYmluZGluZycsICctaW1hZScsICc8aW5maWxlLm1hZT4nLCAnLW9tYWUnLCAnPG91dGZpbGUubWFlPic=

> <r_epik_Ionization_Penalty>
2.05249

> <r_epik_Ionization_Penalty_Charging>
1.96618

> <r_epik_Ionization_Penalty_Neutral>
0.0863156

> <r_epik_State_Penalty>
2.19215

> <r_epik_Charging_Adjusted_Penalty>
4.15833

> <i_epik_Tot_Q>
1

> <i_epik_Tot_abs_Q>
1

> <r_epik_Metal_State_Penalty>
2.17654

> <b_epik_Metal_Only>
0

> <s_lp_Force_Field>
OPLS_2005

> <r_lp_Energy>
8.61119

> <b_lp_Chiralities_Consistent>
1

> <s_lp_Variant>
AV-unprocessed.smi:1209-6

> <Gold.Version>
5.8.1

> <Gold.Id.Protein>
6NUR|6NUR_protein|mol2

> <Gold.PLP.Fitness>
50.0182

> <Gold.PLP.PLP>
-42.8036

> <Gold.PLP.part.hbond>
-2.0000

> <Gold.PLP.part.metal>
0.0000

> <Gold.PLP.part.buried>
0.7464

> <Gold.PLP.part.nonpolar>
-42.1680

> <Gold.PLP.part.repulsive>
0.3593

> <Gold.PLP.ligand.clash>
0.0000

> <Gold.PLP.ligand.torsion>
1.1313

> <Gold.PLP.Chemscore.Hbond>
3.0000

> <Gold.PLP.Chemscore.CHOScore>
0.0000

> <Gold.PLP.Chemscore.Metal>
0.0000

> <Gold.Chemscore.Hbonds>
donor molecule, donor type, donor heavy atom, donor atom, acceptor molecule, acceptor atom, score
      L1  H     6    49       P1  7948  2.00
      P1  H  7997  8008       L1    14  1.00

> <Gold.PLP.Chemscore.Internal.Correction>
0.4772

> <Gold.Rescore>
     Score         DG    S(hbond)    S(metal)    S(lipo)     H(rot)  DE(clash)    DE(int)     intcor
     15.08     -19.44       1.78        0.00     123.86       2.53       1.87       2.49       ----

> <Gold.Chemscore.Fitness>
15.0801

> <Gold.Chemscore.DG>
-19.4383

> <Gold.Chemscore.ZeroCoef>
-5.4800

> <Gold.Chemscore.Hbond>
1.7820

> <Gold.Chemscore.Metal>
0.0000

> <Gold.Chemscore.Lipo>
123.8590

> <Gold.Chemscore.Internal_Hbond>
0.0000

> <Gold.Chemscore.DEClash>
1.8652

> <Gold.Chemscore.DEInternal>
2.4930

> <Gold.Chemscore.Rot>
2.5332

> <Gold.Chemscore.Internal.Correction>
   9.000000E+99

> <Gold.Chemscore.Hbonds>
donor molecule, donor type, donor heavy atom, donor atom, acceptor molecule, acceptor atom, score
      L1  H     6    49       P1  7948  1.00
      P1  H  7997  8008       L1    14  0.43

> <Gold.Chemscore.Hbond.Weighted>
-5.9519

> <Gold.Chemscore.Metal.Weighted>
-0.0000

> <Gold.Chemscore.Lipo.Weighted>
-14.4915

> <Gold.Chemscore.Internal_Hbond.Weighted>
0.0000

> <Gold.Chemscore.DEClash.Weighted>
1.8652

> <Gold.Chemscore.DEInternal.Weighted>
2.4930

> <Gold.Chemscore.Rot.Weighted>
6.4851

> <Gold.Chemscore.Internal.Correction.Weighted>
   9.000000E+99

> <Gold.Protein.RotatedTorsions>
[ 6907 6896 6895 6894 ] final  -60.38 input  -60.11 | X-H torsion
[ 7974 7965 7964 7962 ] final  -10.89 input  175.53 | X-H torsion
[ 8008 7997 7996 7995 ] final  -66.83 input   59.86 | X-H torsion
[ 10167 10162 10161 10158 ] final  -93.94 input  -65.29 | X-H torsion
[ 10718 10713 10712 10709 ] final  -10.41 input   66.30 | X-H torsion
[ 10763 10752 10751 10750 ] final  175.63 input  -60.55 | X-H torsion
[ 11005 11000 10999 10996 ] final  -82.46 input  -57.11 | X-H torsion

> <Gold.Protein.ActiveResidues>
 VAL166  LYS551  ARG553  GLY616  TRP617  ASP618  TYR619  PRO620  LYS621  CYS622 
 ASP623  PHE694  ASN695  SER759  ASP760  ASP761  ALA762  ILE779  LEU786  VAL792 
 PHE793  MET794  SER795  GLU796  ALA797  LYS798  CYS799  TRP800  GLU811  SER814 

> <Gold.Protein.RotatedAtoms>
  150.7860  134.6845  159.6461 H   0  0  0  0  0  0  0  0  0  0  0  0  # atno 6907 bound_to 6896
  152.3956  134.6367  160.0099 H   0  0  0  0  0  0  0  0  0  0  0  0  # atno 6908 bound_to 6896
  151.6654  133.3279  159.3220 H   0  0  0  0  0  0  0  0  0  0  0  0  # atno 6909 bound_to 6896
  146.2206  140.2831  142.8363 H   0  0  0  0  0  0  0  0  0  0  0  0  # atno 7974 bound_to 7965
  154.4760  140.0905  156.7263 H   0  0  0  0  0  0  0  0  0  0  0  0  # atno 8008 bound_to 7997
  155.4596  140.3460  155.4293 H   0  0  0  0  0  0  0  0  0  0  0  0  # atno 8009 bound_to 7997
  156.1117  140.1449  156.9318 H   0  0  0  0  0  0  0  0  0  0  0  0  # atno 8010 bound_to 7997
  140.3195  143.3057  152.0061 H   0  0  0  0  0  0  0  0  0  0  0  0  # atno 10167 bound_to 10162
  156.6739  130.5017  149.5992 H   0  0  0  0  0  0  0  0  0  0  0  0  # atno 10718 bound_to 10713
  154.4702  135.2771  155.1648 H   0  0  0  0  0  0  0  0  0  0  0  0  # atno 10763 bound_to 10752
  154.3400  135.6172  153.5595 H   0  0  0  0  0  0  0  0  0  0  0  0  # atno 10764 bound_to 10752
  152.9863  135.5786  154.5082 H   0  0  0  0  0  0  0  0  0  0  0  0  # atno 10765 bound_to 10752
  141.1663  133.7245  156.8574 H   0  0  0  0  0  0  0  0  0  0  0  0  # atno 11005 bound_to 11000
  144.9182  140.7837  143.5765 LP  0  0  0  0  0  0  0  0  0  0  0  0  # atno 17320 bound_to 7965
  145.2766  139.1934  143.4813 LP  0  0  0  0  0  0  0  0  0  0  0  0  # atno 17321 bound_to 7965
  139.4877  144.6322  151.7047 LP  0  0  0  0  0  0  0  0  0  0  0  0  # atno 17342 bound_to 10162
  140.5496  144.0447  150.6121 LP  0  0  0  0  0  0  0  0  0  0  0  0  # atno 17343 bound_to 10162
  156.1918  130.6564  151.1070 LP  0  0  0  0  0  0  0  0  0  0  0  0  # atno 17370 bound_to 10713
  157.7067  131.0753  150.6641 LP  0  0  0  0  0  0  0  0  0  0  0  0  # atno 17371 bound_to 10713
  140.1872  134.8991  157.3018 LP  0  0  0  0  0  0  0  0  0  0  0  0  # atno 17394 bound_to 11000
  140.2329  134.3887  155.7514 LP  0  0  0  0  0  0  0  0  0  0  0  0  # atno 17395 bound_to 11000

$$$$
