AV-unprocessed.smi:557|AV-procd|sdf|2920|dock6
  -GOLD-   2262023413D 1   1.00000     0.00000
 Structure written by MMmdl.
 47 49  0  0  0  0  0  0  0  0  2 V2000
  148.0352  141.1871  153.3455 C   0  0  0  0  0  0  0  0  0  0  0  0
  149.0048  140.3799  154.0545 N   0  0  0  0  0  0  0  0  0  0  0  0
  149.4331  139.1012  153.7697 C   0  0  0  0  0  0  0  0  0  0  0  0
  150.3558  138.7568  154.7171 C   0  0  0  0  0  0  0  0  0  0  0  0
  151.1213  137.4713  154.8618 C   0  0  0  0  0  0  0  0  0  0  0  0
  150.2578  136.3697  155.4907 C   0  0  0  0  0  0  0  0  0  0  0  0
  149.4209  135.7319  154.4778 N   0  0  0  0  0  0  0  0  0  0  0  0
  148.5604  134.7153  154.6559 C   0  0  0  0  0  0  0  0  0  0  0  0
  148.3837  134.1971  155.7567 O   0  0  0  0  0  0  0  0  0  0  0  0
  147.9179  134.3251  153.5419 N   0  0  0  0  0  0  0  0  0  0  0  0
  146.9408  133.2431  153.4686 C   0  0  2  0  0  0  0  0  0  0  0  0
  147.5548  131.8624  153.7611 C   0  0  0  0  0  0  0  0  0  0  0  0
  146.8553  130.8896  152.7918 C   0  0  0  0  0  0  0  0  0  0  0  0
  145.8354  131.6971  152.0965 N   0  3  2  0  0  0  0  0  0  0  0  0
  145.3847  131.2185  150.7715 C   0  0  0  0  0  0  0  0  0  0  0  0
  144.2622  132.1396  150.2541 C   0  0  0  0  0  0  0  0  0  0  0  0
  144.6910  133.6212  150.2603 C   0  0  0  0  0  0  0  0  0  0  0  0
  145.2413  134.0365  151.6387 C   0  0  0  0  0  0  0  0  0  0  0  0
  146.3615  133.0703  152.0617 C   0  0  1  0  0  0  0  0  0  0  0  0
  150.4237  139.9123  155.5469 C   0  0  0  0  0  0  0  0  0  0  0  0
  149.6152  140.8807  155.1483 N   0  0  0  0  0  0  0  0  0  0  0  0
  147.4970  140.5742  152.6217 H   0  0  0  0  0  0  0  0  0  0  0  0
  148.5443  141.9944  152.8186 H   0  0  0  0  0  0  0  0  0  0  0  0
  147.3193  141.6136  154.0488 H   0  0  0  0  0  0  0  0  0  0  0  0
  149.0497  138.5467  152.9257 H   0  0  0  0  0  0  0  0  0  0  0  0
  151.4847  137.1344  153.8902 H   0  0  0  0  0  0  0  0  0  0  0  0
  152.0110  137.6257  155.4737 H   0  0  0  0  0  0  0  0  0  0  0  0
  150.8962  135.6187  155.9590 H   0  0  0  0  0  0  0  0  0  0  0  0
  149.6259  136.7958  156.2718 H   0  0  0  0  0  0  0  0  0  0  0  0
  149.4987  136.1032  153.5417 H   0  0  0  0  0  0  0  0  0  0  0  0
  148.1284  134.8109  152.6820 H   0  0  0  0  0  0  0  0  0  0  0  0
  146.1282  133.4129  154.1784 H   0  0  0  0  0  0  0  0  0  0  0  0
  148.6302  131.8560  153.5770 H   0  0  0  0  0  0  0  0  0  0  0  0
  147.4001  131.5784  154.8025 H   0  0  0  0  0  0  0  0  0  0  0  0
  147.5761  130.4958  152.0735 H   0  0  0  0  0  0  0  0  0  0  0  0
  146.3958  130.0462  153.3077 H   0  0  0  0  0  0  0  0  0  0  0  0
  146.2234  131.2093  150.0737 H   0  0  0  0  0  0  0  0  0  0  0  0
  145.0222  130.1935  150.8560 H   0  0  0  0  0  0  0  0  0  0  0  0
  143.9660  131.8399  149.2484 H   0  0  0  0  0  0  0  0  0  0  0  0
  143.3789  132.0193  150.8828 H   0  0  0  0  0  0  0  0  0  0  0  0
  145.4586  133.7782  149.5014 H   0  0  0  0  0  0  0  0  0  0  0  0
  143.8493  134.2574  149.9845 H   0  0  0  0  0  0  0  0  0  0  0  0
  145.6168  135.0588  151.5933 H   0  0  0  0  0  0  0  0  0  0  0  0
  144.4387  134.0293  152.3775 H   0  0  0  0  0  0  0  0  0  0  0  0
  147.1735  133.1134  151.3318 H   0  0  0  0  0  0  0  0  0  0  0  0
  151.0332  140.0738  156.4238 H   0  0  0  0  0  0  0  0  0  0  0  0
  145.0255  131.7181  152.7000 H   0  0  0  0  0  0  0  0  0  0  0  0
  1  2  1  0  0  0  0
  1 22  1  0  0  0  0
  1 23  1  0  0  0  0
  1 24  1  0  0  0  0
  2 21  1  0  0  0  0
  2  3  1  0  0  0  0
  3  4  2  0  0  0  0
  3 25  1  0  0  0  0
  4  5  1  0  0  0  0
  4 20  1  0  0  0  0
  5  6  1  0  0  0  0
  5 26  1  0  0  0  0
  5 27  1  0  0  0  0
  6  7  1  0  0  0  0
  6 28  1  0  0  0  0
  6 29  1  0  0  0  0
  7  8  1  0  0  0  0
  7 30  1  0  0  0  0
  8  9  2  0  0  0  0
  8 10  1  0  0  0  0
 10 11  1  0  0  0  0
 10 31  1  0  0  0  0
 11 19  1  0  0  0  0
 11 12  1  0  0  0  0
 11 32  1  0  0  0  0
 12 13  1  0  0  0  0
 12 33  1  0  0  0  0
 12 34  1  0  0  0  0
 13 14  1  0  0  0  0
 13 35  1  0  0  0  0
 13 36  1  0  0  0  0
 14 19  1  0  0  0  0
 14 15  1  0  0  0  0
 14 47  1  0  0  0  0
 15 16  1  0  0  0  0
 15 37  1  0  0  0  0
 15 38  1  0  0  0  0
 16 17  1  0  0  0  0
 16 39  1  0  0  0  0
 16 40  1  0  0  0  0
 17 18  1  0  0  0  0
 17 41  1  0  0  0  0
 17 42  1  0  0  0  0
 18 19  1  0  0  0  0
 18 43  1  0  0  0  0
 18 44  1  0  0  0  0
 19 45  1  0  0  0  0
 20 21  2  0  0  0  0
 20 46  1  0  0  0  0
M  CHG  1  14   1
M  END
> <s_m_source_file>
AV-unprocessed.smi

> <i_m_source_file_index>
557

> <i_lp_mmshare_version>
43012

> <i_f3d_flags>
0

> <s_epik_input>
W0NIM11uMVtjSF1jKFtjSF1uMSlbQ0gyXVtDSDJdW05IXUMoPU8pW05IXVtDQEhdKFtDSDJdW0NIMl0yKVtDQEhdKE4yMylbQ0gyXVtDSDJdW0NIMl1bQ0gyXTM=

> <s_epik_cmdline>
J2VwaWtfcHl0aG9uJywgJy1waCcsICc3LjAnLCAnLXRuJywgJzgnLCAnLW1hJywgJzIwMCcsICctbWV0YWxfYmluZGluZycsICctaW1hZScsICc8aW5maWxlLm1hZT4nLCAnLW9tYWUnLCAnPG91dGZpbGUubWFlPic=

> <r_lp_tautomer_probability>
1

> <r_epik_Ionization_Penalty>
0.000956547

> <r_epik_Ionization_Penalty_Charging>
0.000435796

> <r_epik_Ionization_Penalty_Neutral>
0.000520752

> <r_epik_State_Penalty>
-0

> <r_epik_Charging_Adjusted_Penalty>
0.000435796

> <i_epik_Tot_Q>
1

> <i_epik_Tot_abs_Q>
1

> <r_epik_Metal_State_Penalty>
-0

> <b_epik_Metal_Only>
0

> <s_lp_Force_Field>
OPLS_2005

> <r_lp_Energy>
39.998

> <b_lp_Chiralities_Consistent>
1

> <s_lp_Variant>
AV-unprocessed.smi:557-7

> <Gold.Version>
5.8.1

> <Gold.Id.Protein>
6NUR|6NUR_protein|mol2

> <Gold.PLP.Fitness>
45.7117

> <Gold.PLP.PLP>
-36.0892

> <Gold.PLP.part.hbond>
-2.0000

> <Gold.PLP.part.metal>
0.0000

> <Gold.PLP.part.buried>
-1.2687

> <Gold.PLP.part.nonpolar>
-32.1649

> <Gold.PLP.part.repulsive>
0.1376

> <Gold.PLP.ligand.clash>
0.0000

> <Gold.PLP.ligand.torsion>
0.3886

> <Gold.PLP.Chemscore.Hbond>
1.9920

> <Gold.PLP.Chemscore.CHOScore>
1.4677

> <Gold.PLP.Chemscore.Metal>
0.0000

> <Gold.Chemscore.Hbonds>
donor molecule, donor type, donor heavy atom, donor atom, acceptor molecule, acceptor atom, score
      L1  H     7    30       P1  7948  1.00
      L1  H    10    31       P1  7948  0.98
      L1  C     3    25       P1  7948  1.00
      L1  C     3    25       P1  7957  0.42

> <Gold.PLP.Chemscore.Internal.Correction>
0.0205

> <Gold.Rescore>
     Score         DG    S(hbond)    S(metal)    S(lipo)     H(rot)  DE(clash)    DE(int)     intcor
     16.41     -16.89       1.64        0.00      85.77       1.60       0.06       0.42       ----

> <Gold.Chemscore.Fitness>
16.4087

> <Gold.Chemscore.DG>
-16.8888

> <Gold.Chemscore.ZeroCoef>
-5.4800

> <Gold.Chemscore.Hbond>
1.6391

> <Gold.Chemscore.Metal>
0.0000

> <Gold.Chemscore.Lipo>
85.7679

> <Gold.Chemscore.Internal_Hbond>
0.0000

> <Gold.Chemscore.DEClash>
0.0626

> <Gold.Chemscore.DEInternal>
0.4176

> <Gold.Chemscore.Rot>
1.6018

> <Gold.Chemscore.Internal.Correction>
   9.000000E+99

> <Gold.Chemscore.Hbonds>
donor molecule, donor type, donor heavy atom, donor atom, acceptor molecule, acceptor atom, score
      L1  H     7    30       P1  7948  0.48
      L1  H    10    31       P1  7948  0.65

> <Gold.Chemscore.Hbond.Weighted>
-5.4746

> <Gold.Chemscore.Metal.Weighted>
-0.0000

> <Gold.Chemscore.Lipo.Weighted>
-10.0348

> <Gold.Chemscore.Internal_Hbond.Weighted>
0.0000

> <Gold.Chemscore.DEClash.Weighted>
0.0626

> <Gold.Chemscore.DEInternal.Weighted>
0.4176

> <Gold.Chemscore.Rot.Weighted>
4.1006

> <Gold.Chemscore.Internal.Correction.Weighted>
   9.000000E+99

> <Gold.Protein.RotatedTorsions>
[ 6907 6896 6895 6894 ] final -171.45 input  -60.11 | X-H torsion
[ 7974 7965 7964 7962 ] final  117.23 input  175.53 | X-H torsion
[ 8008 7997 7996 7995 ] final   70.10 input   59.86 | X-H torsion
[ 10167 10162 10161 10158 ] final -145.15 input  -65.29 | X-H torsion
[ 10718 10713 10712 10709 ] final  -53.10 input   66.30 | X-H torsion
[ 10763 10752 10751 10750 ] final   78.72 input  -60.55 | X-H torsion
[ 11005 11000 10999 10996 ] final  101.94 input  -57.11 | X-H torsion

> <Gold.Protein.ActiveResidues>
 VAL166  LYS551  ARG553  GLY616  TRP617  ASP618  TYR619  PRO620  LYS621  CYS622 
 ASP623  PHE694  ASN695  SER759  ASP760  ASP761  ALA762  ILE779  LEU786  VAL792 
 PHE793  MET794  SER795  GLU796  ALA797  LYS798  CYS799  TRP800  GLU811  SER814 

> <Gold.Protein.RotatedAtoms>
  151.5240  133.3461  159.2906 H   0  0  0  0  0  0  0  0  0  0  0  0  # atno 6907 bound_to 6896
  150.8635  134.7995  159.7112 H   0  0  0  0  0  0  0  0  0  0  0  0  # atno 6908 bound_to 6896
  152.4647  134.5112  159.9806 H   0  0  0  0  0  0  0  0  0  0  0  0  # atno 6909 bound_to 6896
  145.1699  139.3107  143.4473 H   0  0  0  0  0  0  0  0  0  0  0  0  # atno 7974 bound_to 7965
  155.7336  140.3491  155.5071 H   0  0  0  0  0  0  0  0  0  0  0  0  # atno 8008 bound_to 7997
  155.9159  140.1058  157.1265 H   0  0  0  0  0  0  0  0  0  0  0  0  # atno 8009 bound_to 7997
  154.4062  140.1259  156.4604 H   0  0  0  0  0  0  0  0  0  0  0  0  # atno 8010 bound_to 7997
  139.7832  143.8071  152.2641 H   0  0  0  0  0  0  0  0  0  0  0  0  # atno 10167 bound_to 10162
  156.1564  130.4150  149.9862 H   0  0  0  0  0  0  0  0  0  0  0  0  # atno 10718 bound_to 10713
  153.0896  135.4866  154.8664 H   0  0  0  0  0  0  0  0  0  0  0  0  # atno 10763 bound_to 10752
  154.7253  135.3048  154.8983 H   0  0  0  0  0  0  0  0  0  0  0  0  # atno 10764 bound_to 10752
  153.9635  135.6809  153.4798 H   0  0  0  0  0  0  0  0  0  0  0  0  # atno 10765 bound_to 10752
  139.8775  134.9204  156.4983 H   0  0  0  0  0  0  0  0  0  0  0  0  # atno 11005 bound_to 11000
  146.3470  140.1841  142.8589 LP  0  0  0  0  0  0  0  0  0  0  0  0  # atno 17320 bound_to 7965
  145.0243  140.8819  143.5148 LP  0  0  0  0  0  0  0  0  0  0  0  0  # atno 17321 bound_to 7965
  139.8140  144.7324  150.9660 LP  0  0  0  0  0  0  0  0  0  0  0  0  # atno 17342 bound_to 10162
  140.7819  143.4223  151.0822 LP  0  0  0  0  0  0  0  0  0  0  0  0  # atno 17343 bound_to 10162
  156.7704  130.9184  151.3644 LP  0  0  0  0  0  0  0  0  0  0  0  0  # atno 17370 bound_to 10713
  157.6698  130.9041  150.0015 LP  0  0  0  0  0  0  0  0  0  0  0  0  # atno 17371 bound_to 10713
  140.8608  133.8061  155.9263 LP  0  0  0  0  0  0  0  0  0  0  0  0  # atno 17394 bound_to 11000
  140.9051  134.2330  157.5019 LP  0  0  0  0  0  0  0  0  0  0  0  0  # atno 17395 bound_to 11000

$$$$
