AV-unprocessed.smi:148|AV-procd|sdf|1214|dock9
  -GOLD-   2262018393D 1   1.00000     0.00000
 Structure written by MMmdl.
 63 67  0  0  0  0  0  0  0  0  1 V2000
  150.9497  132.1172  158.2027 O   0  0  0  0  0  0  0  0  0  0  0  0
  150.1017  132.0841  157.0738 C   0  0  0  0  0  0  0  0  0  0  0  0
  149.6878  133.5107  156.6411 C   0  0  2  0  0  0  0  0  0  0  0  0
  148.9633  134.2666  157.7860 C   0  0  0  0  0  0  0  0  0  0  0  0
  149.3689  135.6581  157.8788 N   0  0  0  0  0  0  0  0  0  0  0  0
  149.2744  136.4671  158.9880 C   0  0  0  0  0  0  0  0  0  0  0  0
  149.6931  137.6914  158.8197 N   0  0  0  0  0  0  0  0  0  0  0  0
  150.1090  137.7290  157.4939 C   0  0  0  0  0  0  0  0  0  0  0  0
  150.6504  138.7375  156.6463 C   0  0  0  0  0  0  0  0  0  0  0  0
  150.8805  140.0199  157.0124 N   0  0  0  0  0  0  0  0  0  0  0  0
  151.8394  140.0437  158.1181 C   0  0  0  0  0  0  0  0  0  0  0  0
  152.3198  141.4693  158.4209 C   0  0  0  0  0  0  0  0  0  0  0  0
  151.1244  142.3931  158.6755 C   0  0  0  0  0  0  0  0  0  0  0  0
  150.1719  142.3440  157.4744 C   0  0  0  0  0  0  0  0  0  0  0  0
  149.7040  140.8957  157.1755 C   0  0  1  0  0  0  0  0  0  0  0  0
  148.6846  140.8140  155.9924 C   0  0  1  0  0  0  0  0  0  0  0  0
  147.3978  141.6363  156.2072 C   0  0  0  0  0  0  0  0  0  0  0  0
  146.9574  142.1380  154.8228 C   0  0  0  0  0  0  0  0  0  0  0  0
  147.8923  141.4695  153.8134 C   0  0  0  0  0  0  0  0  0  0  0  0
  149.1825  141.2346  154.5970 C   0  0  2  0  0  0  0  0  0  0  0  0
  149.9719  140.2429  153.9752 O   0  0  0  0  0  0  0  0  0  0  0  0
  150.9741  138.3931  155.3755 N   0  0  0  0  0  0  0  0  0  0  0  0
  150.7526  137.1484  154.9430 C   0  0  0  0  0  0  0  0  0  0  0  0
  150.2329  136.1136  155.6071 N   0  0  0  0  0  0  0  0  0  0  0  0
  149.9272  136.4521  156.8926 C   0  0  0  0  0  0  0  0  0  0  0  0
  148.8918  133.4997  155.3062 C   0  0  2  0  0  0  0  0  0  0  0  0
  147.5702  132.7287  155.3260 C   0  0  0  0  0  0  0  0  0  0  0  0
  147.6412  131.8339  154.0884 C   0  0  0  0  0  0  0  0  0  0  0  0
  148.5755  132.4866  153.2443 O   0  0  0  0  0  0  0  0  0  0  0  0
  149.6269  132.9371  154.0818 C   0  0  0  0  0  0  0  0  0  0  0  0
  151.7443  131.6495  157.9953 H   0  0  0  0  0  0  0  0  0  0  0  0
  150.6022  131.5600  156.2592 H   0  0  0  0  0  0  0  0  0  0  0  0
  149.2328  131.4861  157.3471 H   0  0  0  0  0  0  0  0  0  0  0  0
  150.6109  134.0579  156.4423 H   0  0  0  0  0  0  0  0  0  0  0  0
  147.8826  134.2518  157.6509 H   0  0  0  0  0  0  0  0  0  0  0  0
  149.1573  133.7920  158.7473 H   0  0  0  0  0  0  0  0  0  0  0  0
  148.8739  136.1196  159.9293 H   0  0  0  0  0  0  0  0  0  0  0  0
  151.3714  139.6182  159.0072 H   0  0  0  0  0  0  0  0  0  0  0  0
  152.7000  139.4156  157.8820 H   0  0  0  0  0  0  0  0  0  0  0  0
  152.9831  141.4644  159.2860 H   0  0  0  0  0  0  0  0  0  0  0  0
  152.9047  141.8457  157.5805 H   0  0  0  0  0  0  0  0  0  0  0  0
  150.5992  142.0844  159.5802 H   0  0  0  0  0  0  0  0  0  0  0  0
  151.4673  143.4145  158.8437 H   0  0  0  0  0  0  0  0  0  0  0  0
  149.3249  143.0007  157.6674 H   0  0  0  0  0  0  0  0  0  0  0  0
  150.6955  142.7596  156.6141 H   0  0  0  0  0  0  0  0  0  0  0  0
  149.1815  140.5496  158.0674 H   0  0  0  0  0  0  0  0  0  0  0  0
  148.3266  139.7885  155.8975 H   0  0  0  0  0  0  0  0  0  0  0  0
  146.6254  141.0168  156.6649 H   0  0  0  0  0  0  0  0  0  0  0  0
  147.5486  142.4850  156.8726 H   0  0  0  0  0  0  0  0  0  0  0  0
  145.9099  141.9168  154.6159 H   0  0  0  0  0  0  0  0  0  0  0  0
  147.0786  143.2209  154.7730 H   0  0  0  0  0  0  0  0  0  0  0  0
  147.4635  140.5156  153.5020 H   0  0  0  0  0  0  0  0  0  0  0  0
  148.0459  142.0727  152.9180 H   0  0  0  0  0  0  0  0  0  0  0  0
  149.7404  142.1689  154.6341 H   0  0  0  0  0  0  0  0  0  0  0  0
  149.5913  140.0396  153.1339 H   0  0  0  0  0  0  0  0  0  0  0  0
  151.0272  136.9556  153.9165 H   0  0  0  0  0  0  0  0  0  0  0  0
  148.6245  134.5291  155.0632 H   0  0  0  0  0  0  0  0  0  0  0  0
  147.4047  132.1473  156.2323 H   0  0  0  0  0  0  0  0  0  0  0  0
  146.7362  133.4263  155.2382 H   0  0  0  0  0  0  0  0  0  0  0  0
  148.0216  130.8452  154.3501 H   0  0  0  0  0  0  0  0  0  0  0  0
  146.6743  131.7104  153.6004 H   0  0  0  0  0  0  0  0  0  0  0  0
  150.2419  133.6860  153.5825 H   0  0  0  0  0  0  0  0  0  0  0  0
  150.2623  132.0870  154.3269 H   0  0  0  0  0  0  0  0  0  0  0  0
  1  2  1  0  0  0  0
  1 31  1  0  0  0  0
  2  3  1  0  0  0  0
  2 32  1  0  0  0  0
  2 33  1  0  0  0  0
  3  4  1  0  0  0  0
  3 26  1  0  0  0  0
  3 34  1  0  0  0  0
  4  5  1  0  0  0  0
  4 35  1  0  0  0  0
  4 36  1  0  0  0  0
  5 25  1  0  0  0  0
  5  6  1  0  0  0  0
  6  7  2  0  0  0  0
  6 37  1  0  0  0  0
  7  8  1  0  0  0  0
  8 25  2  0  0  0  0
  8  9  1  0  0  0  0
  9 10  1  0  0  0  0
  9 22  2  0  0  0  0
 10 15  1  0  0  0  0
 10 11  1  0  0  0  0
 11 12  1  0  0  0  0
 11 38  1  0  0  0  0
 11 39  1  0  0  0  0
 12 13  1  0  0  0  0
 12 40  1  0  0  0  0
 12 41  1  0  0  0  0
 13 14  1  0  0  0  0
 13 42  1  0  0  0  0
 13 43  1  0  0  0  0
 14 15  1  0  0  0  0
 14 44  1  0  0  0  0
 14 45  1  0  0  0  0
 15 16  1  0  0  0  0
 15 46  1  0  0  0  0
 16 20  1  0  0  0  0
 16 17  1  0  0  0  0
 16 47  1  0  0  0  0
 17 18  1  0  0  0  0
 17 48  1  0  0  0  0
 17 49  1  0  0  0  0
 18 19  1  0  0  0  0
 18 50  1  0  0  0  0
 18 51  1  0  0  0  0
 19 20  1  0  0  0  0
 19 52  1  0  0  0  0
 19 53  1  0  0  0  0
 20 21  1  0  0  0  0
 20 54  1  0  0  0  0
 21 55  1  0  0  0  0
 22 23  1  0  0  0  0
 23 24  2  0  0  0  0
 23 56  1  0  0  0  0
 24 25  1  0  0  0  0
 26 30  1  0  0  0  0
 26 27  1  0  0  0  0
 26 57  1  0  0  0  0
 27 28  1  0  0  0  0
 27 58  1  0  0  0  0
 27 59  1  0  0  0  0
 28 29  1  0  0  0  0
 28 60  1  0  0  0  0
 28 61  1  0  0  0  0
 29 30  1  0  0  0  0
 30 62  1  0  0  0  0
 30 63  1  0  0  0  0
M  END
> <s_m_source_file>
AV-unprocessed.smi

> <i_m_source_file_index>
148

> <i_lp_mmshare_version>
43012

> <i_f3d_flags>
0

> <s_epik_input>
W0NIMl0xT1tDSDJdW0NIMl1bQ0BIXTFbQ0BIXShbQ0gyXVtPSF0pW0NIMl1uKFtjSF1uMiljKGMyMyluW2NIXW5jM040W0NIMl1bQ0gyXVtDSDJdW0NIMl1bQ0BIXTRbQ0BASF01W0NIMl1bQ0gyXVtDSDJdW0NASF01W09IXQ==

> <s_epik_cmdline>
J2VwaWtfcHl0aG9uJywgJy1waCcsICc3LjAnLCAnLXRuJywgJzgnLCAnLW1hJywgJzIwMCcsICctbWV0YWxfYmluZGluZycsICctaW1hZScsICc8aW5maWxlLm1hZT4nLCAnLW9tYWUnLCAnPG91dGZpbGUubWFlPic=

> <r_lp_tautomer_probability>
1

> <r_epik_Ionization_Penalty>
0.00556303

> <r_epik_Ionization_Penalty_Charging>
0

> <r_epik_Ionization_Penalty_Neutral>
0.00556303

> <r_epik_State_Penalty>
0.00401767

> <r_epik_Charging_Adjusted_Penalty>
0.00401767

> <i_epik_Tot_Q>
0

> <i_epik_Tot_abs_Q>
0

> <r_epik_Metal_State_Penalty>
-0

> <b_epik_Metal_Only>
0

> <s_lp_Force_Field>
OPLS_2005

> <r_lp_Energy>
68.8384

> <b_lp_Chiralities_Consistent>
1

> <s_lp_Variant>
AV-unprocessed.smi:148-13

> <Gold.Version>
5.8.1

> <Gold.Id.Protein>
6NUR|6NUR_protein|mol2

> <Gold.PLP.Fitness>
47.0079

> <Gold.PLP.PLP>
-37.2451

> <Gold.PLP.part.hbond>
-3.0000

> <Gold.PLP.part.metal>
0.0000

> <Gold.PLP.part.buried>
-7.3674

> <Gold.PLP.part.nonpolar>
-27.3554

> <Gold.PLP.part.repulsive>
0.3841

> <Gold.PLP.ligand.clash>
0.0000

> <Gold.PLP.ligand.torsion>
1.0274

> <Gold.PLP.Chemscore.Hbond>
2.7200

> <Gold.PLP.Chemscore.CHOScore>
1.0850

> <Gold.PLP.Chemscore.Metal>
0.0000

> <Gold.Chemscore.Hbonds>
donor molecule, donor type, donor heavy atom, donor atom, acceptor molecule, acceptor atom, score
      L1  H    21    55       P1  7957  1.00
      P1  H  6896  6909       L1     1  0.94
      P1  H  7989  7998       L1    21  0.82
      L1  C    23    56       P1  7949  0.79

> <Gold.PLP.Chemscore.Internal.Correction>
0.4027

> <Gold.Rescore>
     Score         DG    S(hbond)    S(metal)    S(lipo)     H(rot)  DE(clash)    DE(int)     intcor
     10.31     -14.13       2.22        0.00      83.27       3.32       0.01       3.81       ----

> <Gold.Chemscore.Fitness>
10.3099

> <Gold.Chemscore.DG>
-14.1263

> <Gold.Chemscore.ZeroCoef>
-5.4800

> <Gold.Chemscore.Hbond>
2.2168

> <Gold.Chemscore.Metal>
0.0000

> <Gold.Chemscore.Lipo>
83.2671

> <Gold.Chemscore.Internal_Hbond>
0.0000

> <Gold.Chemscore.DEClash>
0.0081

> <Gold.Chemscore.DEInternal>
3.8084

> <Gold.Chemscore.Rot>
3.3203

> <Gold.Chemscore.Internal.Correction>
   9.000000E+99

> <Gold.Chemscore.Hbonds>
donor molecule, donor type, donor heavy atom, donor atom, acceptor molecule, acceptor atom, score
      L1  H    21    55       P1  7957  0.94
      P1  H  6896  6909       L1     1  0.87
      P1  H  7989  7998       L1    21  0.20

> <Gold.Chemscore.Hbond.Weighted>
-7.4041

> <Gold.Chemscore.Metal.Weighted>
-0.0000

> <Gold.Chemscore.Lipo.Weighted>
-9.7422

> <Gold.Chemscore.Internal_Hbond.Weighted>
0.0000

> <Gold.Chemscore.DEClash.Weighted>
0.0081

> <Gold.Chemscore.DEInternal.Weighted>
3.8084

> <Gold.Chemscore.Rot.Weighted>
8.5000

> <Gold.Chemscore.Internal.Correction.Weighted>
   9.000000E+99

> <Gold.Protein.RotatedTorsions>
[ 6907 6896 6895 6894 ] final  -17.89 input  -60.11 | X-H torsion
[ 7974 7965 7964 7962 ] final   11.89 input  175.53 | X-H torsion
[ 8008 7997 7996 7995 ] final   18.60 input   59.86 | X-H torsion
[ 10167 10162 10161 10158 ] final -147.75 input  -65.29 | X-H torsion
[ 10718 10713 10712 10709 ] final -152.50 input   66.30 | X-H torsion
[ 10763 10752 10751 10750 ] final  -37.43 input  -60.55 | X-H torsion
[ 11005 11000 10999 10996 ] final  -74.47 input  -57.11 | X-H torsion

> <Gold.Protein.ActiveResidues>
 VAL166  LYS551  ARG553  GLY616  TRP617  ASP618  TYR619  PRO620  LYS621  CYS622 
 ASP623  PHE694  ASN695  SER759  ASP760  ASP761  ALA762  ILE779  LEU786  VAL792 
 PHE793  MET794  SER795  GLU796  ALA797  LYS798  CYS799  TRP800  GLU811  SER814 

> <Gold.Protein.RotatedAtoms>
  151.2865  135.0729  159.9188 H   0  0  0  0  0  0  0  0  0  0  0  0  # atno 6907 bound_to 6896
  152.5324  133.9976  159.7890 H   0  0  0  0  0  0  0  0  0  0  0  0  # atno 6908 bound_to 6896
  151.0239  133.5801  159.2699 H   0  0  0  0  0  0  0  0  0  0  0  0  # atno 6909 bound_to 6896
  146.2362  139.9418  142.8482 H   0  0  0  0  0  0  0  0  0  0  0  0  # atno 7974 bound_to 7965
  154.9084  140.3010  155.5279 H   0  0  0  0  0  0  0  0  0  0  0  0  # atno 8008 bound_to 7997
  156.3016  140.2394  156.4056 H   0  0  0  0  0  0  0  0  0  0  0  0  # atno 8009 bound_to 7997
  154.8450  140.0412  157.1555 H   0  0  0  0  0  0  0  0  0  0  0  0  # atno 8010 bound_to 7997
  139.7593  143.8400  152.2604 H   0  0  0  0  0  0  0  0  0  0  0  0  # atno 10167 bound_to 10162
  156.4733  130.8268  151.2497 H   0  0  0  0  0  0  0  0  0  0  0  0  # atno 10718 bound_to 10713
  153.8961  135.6807  153.4758 H   0  0  0  0  0  0  0  0  0  0  0  0  # atno 10763 bound_to 10752
  153.1154  135.4764  154.9104 H   0  0  0  0  0  0  0  0  0  0  0  0  # atno 10764 bound_to 10752
  154.7598  135.3207  154.8354 H   0  0  0  0  0  0  0  0  0  0  0  0  # atno 10765 bound_to 10752
  141.1635  133.6912  156.7369 H   0  0  0  0  0  0  0  0  0  0  0  0  # atno 11005 bound_to 11000
  145.1945  140.9827  143.4191 LP  0  0  0  0  0  0  0  0  0  0  0  0  # atno 17320 bound_to 7965
  144.9828  139.3766  143.6253 LP  0  0  0  0  0  0  0  0  0  0  0  0  # atno 17321 bound_to 7965
  139.8402  144.7213  150.9341 LP  0  0  0  0  0  0  0  0  0  0  0  0  # atno 17342 bound_to 10162
  140.7806  143.3990  151.1180 LP  0  0  0  0  0  0  0  0  0  0  0  0  # atno 17343 bound_to 10162
  157.7489  131.0069  150.3170 LP  0  0  0  0  0  0  0  0  0  0  0  0  # atno 17370 bound_to 10713
  156.3596  130.3845  149.7262 LP  0  0  0  0  0  0  0  0  0  0  0  0  # atno 17371 bound_to 10713
  140.2703  134.8397  157.3841 LP  0  0  0  0  0  0  0  0  0  0  0  0  # atno 17394 bound_to 11000
  140.1527  134.4828  155.7949 LP  0  0  0  0  0  0  0  0  0  0  0  0  # atno 17395 bound_to 11000

$$$$
