AV-unprocessed.smi:47|AV-procd|sdf|446|dock8
  -GOLD-   2262016313D 1   1.00000     0.00000
 Structure written by MMmdl.
 30 32  0  0  0  0  0  0  0  0  2 V2000
  147.6904  136.8477  154.3528 O   0  0  0  0  0  0  0  0  0  0  0  0
  148.4500  137.9771  154.7283 C   0  0  2  0  0  0  0  0  0  0  0  0
  148.3725  139.0992  153.7016 C   0  0  0  0  0  0  0  0  0  0  0  0
  149.5334  139.9309  153.9858 N   0  0  0  0  0  0  0  0  0  0  0  0
  150.6002  139.0549  154.4840 C   0  0  1  0  0  0  0  0  0  0  0  0
  151.3046  139.6247  155.7021 C   0  0  0  0  0  0  0  0  0  0  0  0
  152.3279  139.0357  156.3544 N   0  0  0  0  0  0  0  0  0  0  0  0
  152.6761  139.8663  157.3192 N   0  5  0  0  0  0  0  0  0  0  0  0
  151.8792  140.9426  157.2373 C   0  0  0  0  0  0  0  0  0  0  0  0
  151.9961  142.0838  158.1687 C   0  0  0  0  0  0  0  0  0  0  0  0
  151.4891  143.3546  157.8110 C   0  0  0  0  0  0  0  0  0  0  0  0
  151.5934  144.4522  158.6878 C   0  0  0  0  0  0  0  0  0  0  0  0
  152.2092  144.2948  159.9424 C   0  0  0  0  0  0  0  0  0  0  0  0
  152.7194  143.0382  160.3154 C   0  0  0  0  0  0  0  0  0  0  0  0
  152.6126  141.9438  159.4350 C   0  0  0  0  0  0  0  0  0  0  0  0
  151.0199  140.8233  156.2349 N   0  0  0  0  0  0  0  0  0  0  0  0
  149.9477  137.6935  154.7866 C   0  0  0  0  0  0  0  0  0  0  0  0
  148.1051  138.3405  155.6976 H   0  0  0  0  0  0  0  0  0  0  0  0
  151.3495  138.9173  153.7035 H   0  0  0  0  0  0  0  0  0  0  0  0
  148.1370  136.4113  153.6435 H   0  0  0  0  0  0  0  0  0  0  0  0
  148.4534  138.6891  152.6940 H   0  0  0  0  0  0  0  0  0  0  0  0
  147.4412  139.6627  153.7615 H   0  0  0  0  0  0  0  0  0  0  0  0
  149.8327  140.3863  153.1300 H   0  0  0  0  0  0  0  0  0  0  0  0
  151.0123  143.4955  156.8520 H   0  0  0  0  0  0  0  0  0  0  0  0
  151.2002  145.4146  158.3956 H   0  0  0  0  0  0  0  0  0  0  0  0
  152.2901  145.1348  160.6164 H   0  0  0  0  0  0  0  0  0  0  0  0
  153.1936  142.9117  161.2774 H   0  0  0  0  0  0  0  0  0  0  0  0
  153.0113  140.9884  159.7430 H   0  0  0  0  0  0  0  0  0  0  0  0
  150.2586  137.2610  155.7386 H   0  0  0  0  0  0  0  0  0  0  0  0
  150.2236  136.9879  154.0014 H   0  0  0  0  0  0  0  0  0  0  0  0
  1  2  1  0  0  0  0
  1 20  1  0  0  0  0
  2 18  1  0  0  0  0
  2 17  1  0  0  0  0
  2  3  1  0  0  0  0
  3  4  1  0  0  0  0
  3 21  1  0  0  0  0
  3 22  1  0  0  0  0
  4  5  1  0  0  0  0
  4 23  1  0  0  0  0
  5 19  1  0  0  0  0
  5  6  1  0  0  0  0
  5 17  1  0  0  0  0
  6 16  1  0  0  0  0
  6  7  2  0  0  0  0
  7  8  1  0  0  0  0
  8  9  1  0  0  0  0
  9 10  1  0  0  0  0
  9 16  2  0  0  0  0
 10 15  1  0  0  0  0
 10 11  2  0  0  0  0
 11 12  1  0  0  0  0
 11 24  1  0  0  0  0
 12 13  2  0  0  0  0
 12 25  1  0  0  0  0
 13 14  1  0  0  0  0
 13 26  1  0  0  0  0
 14 15  2  0  0  0  0
 14 27  1  0  0  0  0
 15 28  1  0  0  0  0
 17 29  1  0  0  0  0
 17 30  1  0  0  0  0
M  CHG  1   8  -1
M  END
> <s_m_source_file>
AV-unprocessed.smi

> <i_m_source_file_index>
47

> <i_lp_mmshare_version>
43012

> <i_f3d_flags>
0

> <s_epik_input>
W09IXVtDQEhdMVtDSDJdW05IXVtDQEBIXShbQ0gyXTEpYzJuW25IXWMobjIpLWMzW2NIXVtjSF1bY0hdW2NIXVtjSF0z

> <s_epik_cmdline>
J2VwaWtfcHl0aG9uJywgJy1waCcsICc3LjAnLCAnLXRuJywgJzgnLCAnLW1hJywgJzIwMCcsICctbWV0YWxfYmluZGluZycsICctaW1hZScsICc8aW5maWxlLm1hZT4nLCAnLW9tYWUnLCAnPG91dGZpbGUubWFlPic=

> <r_epik_Ionization_Penalty>
16.1968

> <r_epik_Ionization_Penalty_Charging>
13.1522

> <r_epik_Ionization_Penalty_Neutral>
3.04463

> <r_epik_State_Penalty>
6.32428

> <r_epik_Charging_Adjusted_Penalty>
19.4764

> <i_epik_Tot_Q>
-1

> <i_epik_Tot_abs_Q>
1

> <r_epik_Metal_State_Penalty>
2.82187

> <b_epik_Metal_Only>
1

> <s_lp_Force_Field>
OPLS_2005

> <r_lp_Energy>
30.4729

> <b_lp_Chiralities_Consistent>
1

> <s_lp_Variant>
AV-unprocessed.smi:47-24

> <Gold.Version>
5.8.1

> <Gold.Id.Protein>
6NUR|6NUR_protein|mol2

> <Gold.PLP.Fitness>
45.6720

> <Gold.PLP.PLP>
-34.7662

> <Gold.PLP.part.hbond>
-3.7146

> <Gold.PLP.part.metal>
0.0000

> <Gold.PLP.part.buried>
-3.9346

> <Gold.PLP.part.nonpolar>
-27.2682

> <Gold.PLP.part.repulsive>
0.0244

> <Gold.PLP.ligand.clash>
0.0000

> <Gold.PLP.ligand.torsion>
0.2043

> <Gold.PLP.Chemscore.Hbond>
3.7680

> <Gold.PLP.Chemscore.CHOScore>
0.0000

> <Gold.PLP.Chemscore.Metal>
0.0000

> <Gold.Chemscore.Hbonds>
donor molecule, donor type, donor heavy atom, donor atom, acceptor molecule, acceptor atom, score
      L1  H     1    20       P1  7948  1.00
      L1  H     4    23       P1  7957  0.72
      P1  H  7997  8008       L1     8  2.00

> <Gold.PLP.Chemscore.Internal.Correction>
0.0103

> <Gold.Rescore>
     Score         DG    S(hbond)    S(metal)    S(lipo)     H(rot)  DE(clash)    DE(int)     intcor
     19.91     -20.11       2.41        0.00      88.36       1.46       0.09       0.11       ----

> <Gold.Chemscore.Fitness>
19.9118

> <Gold.Chemscore.DG>
-20.1117

> <Gold.Chemscore.ZeroCoef>
-5.4800

> <Gold.Chemscore.Hbond>
2.4061

> <Gold.Chemscore.Metal>
0.0000

> <Gold.Chemscore.Lipo>
88.3610

> <Gold.Chemscore.Internal_Hbond>
0.0000

> <Gold.Chemscore.DEClash>
0.0893

> <Gold.Chemscore.DEInternal>
0.1106

> <Gold.Chemscore.Rot>
1.4621

> <Gold.Chemscore.Internal.Correction>
   9.000000E+99

> <Gold.Chemscore.Hbonds>
donor molecule, donor type, donor heavy atom, donor atom, acceptor molecule, acceptor atom, score
      L1  H     1    20       P1  7948  0.97
      L1  H     4    23       P1  7957  0.69
      P1  H  7997  8008       L1     8  0.24

> <Gold.Chemscore.Hbond.Weighted>
-8.0363

> <Gold.Chemscore.Metal.Weighted>
-0.0000

> <Gold.Chemscore.Lipo.Weighted>
-10.3382

> <Gold.Chemscore.Internal_Hbond.Weighted>
0.0000

> <Gold.Chemscore.DEClash.Weighted>
0.0893

> <Gold.Chemscore.DEInternal.Weighted>
0.1106

> <Gold.Chemscore.Rot.Weighted>
3.7429

> <Gold.Chemscore.Internal.Correction.Weighted>
   9.000000E+99

> <Gold.Protein.RotatedTorsions>
[ 6907 6896 6895 6894 ] final   24.45 input  -60.11 | X-H torsion
[ 7974 7965 7964 7962 ] final   49.97 input  175.53 | X-H torsion
[ 8008 7997 7996 7995 ] final  -79.04 input   59.86 | X-H torsion
[ 10167 10162 10161 10158 ] final  121.77 input  -65.29 | X-H torsion
[ 10718 10713 10712 10709 ] final  144.52 input   66.30 | X-H torsion
[ 10763 10752 10751 10750 ] final    2.31 input  -60.55 | X-H torsion
[ 11005 11000 10999 10996 ] final   55.33 input  -57.11 | X-H torsion

> <Gold.Protein.ActiveResidues>
 VAL166  LYS551  ARG553  GLY616  TRP617  ASP618  TYR619  PRO620  LYS621  CYS622 
 ASP623  PHE694  ASN695  SER759  ASP760  ASP761  ALA762  ILE779  LEU786  VAL792 
 PHE793  MET794  SER795  GLU796  ALA797  LYS798  CYS799  TRP800  GLU811  SER814 

> <Gold.Protein.RotatedAtoms>
  151.9577  135.0139  160.0545 H   0  0  0  0  0  0  0  0  0  0  0  0  # atno 6907 bound_to 6896
  152.1897  133.4759  159.5009 H   0  0  0  0  0  0  0  0  0  0  0  0  # atno 6908 bound_to 6896
  150.6932  134.1646  159.4232 H   0  0  0  0  0  0  0  0  0  0  0  0  # atno 6909 bound_to 6896
  146.0057  139.4488  142.9987 H   0  0  0  0  0  0  0  0  0  0  0  0  # atno 7974 bound_to 7965
  154.5747  140.0684  156.9016 H   0  0  0  0  0  0  0  0  0  0  0  0  # atno 8008 bound_to 7997
  155.2571  140.3356  155.4258 H   0  0  0  0  0  0  0  0  0  0  0  0  # atno 8009 bound_to 7997
  156.2145  140.1772  156.7606 H   0  0  0  0  0  0  0  0  0  0  0  0  # atno 8010 bound_to 7997
  139.5899  144.7021  151.3315 H   0  0  0  0  0  0  0  0  0  0  0  0  # atno 10167 bound_to 10162
  157.3561  131.0958  151.0957 H   0  0  0  0  0  0  0  0  0  0  0  0  # atno 10718 bound_to 10713
  153.2972  135.6953  153.7237 H   0  0  0  0  0  0  0  0  0  0  0  0  # atno 10763 bound_to 10752
  153.6165  135.3435  155.2997 H   0  0  0  0  0  0  0  0  0  0  0  0  # atno 10764 bound_to 10752
  154.8541  135.4376  154.2072 H   0  0  0  0  0  0  0  0  0  0  0  0  # atno 10765 bound_to 10752
  140.0616  134.5595  155.9146 H   0  0  0  0  0  0  0  0  0  0  0  0  # atno 11005 bound_to 11000
  145.7419  141.0005  143.1296 LP  0  0  0  0  0  0  0  0  0  0  0  0  # atno 17320 bound_to 7965
  144.6935  139.9109  143.7463 LP  0  0  0  0  0  0  0  0  0  0  0  0  # atno 17321 bound_to 7965
  140.7164  143.7254  150.7664 LP  0  0  0  0  0  0  0  0  0  0  0  0  # atno 17342 bound_to 10162
  140.0807  143.4971  152.2531 LP  0  0  0  0  0  0  0  0  0  0  0  0  # atno 17343 bound_to 10162
  157.2114  130.6439  149.5775 LP  0  0  0  0  0  0  0  0  0  0  0  0  # atno 17370 bound_to 10713
  155.9729  130.4659  150.6269 LP  0  0  0  0  0  0  0  0  0  0  0  0  # atno 17371 bound_to 10713
  141.1975  133.6597  156.5746 LP  0  0  0  0  0  0  0  0  0  0  0  0  # atno 17394 bound_to 11000
  140.3762  134.7563  157.4631 LP  0  0  0  0  0  0  0  0  0  0  0  0  # atno 17395 bound_to 11000

$$$$
