AV-unprocessed.smi:1770|AV-procd|sdf|7155|dock5
  -GOLD-   22720 8393D 1   1.00000     0.00000
 Structure written by MMmdl.
 37 38  0  0  0  0  0  0  0  0  1 V2000
  154.0739  140.2517  160.0818 C   0  0  0  0  0  0  0  0  0  0  0  0
  154.5667  139.5017  158.9860 O   0  0  0  0  0  0  0  0  0  0  0  0
  153.8755  138.2715  158.8126 C   0  0  0  0  0  0  0  0  0  0  0  0
  152.6849  138.4603  157.8670 C   0  0  0  0  0  0  0  0  0  0  0  0
  151.9780  137.4897  157.6008 O   0  0  0  0  0  0  0  0  0  0  0  0
  152.4788  139.7093  157.4093 N   0  0  0  0  0  0  0  0  0  0  0  0
  151.4675  140.2150  156.5413 C   0  0  0  0  0  0  0  0  0  0  0  0
  150.8664  139.4473  155.5134 C   0  0  0  0  0  0  0  0  0  0  0  0
  149.8699  140.0332  154.7122 C   0  0  0  0  0  0  0  0  0  0  0  0
  149.5103  141.3690  154.9617 C   0  0  0  0  0  0  0  0  0  0  0  0
  150.0823  142.1189  155.9249 N   0  0  0  0  0  0  0  0  0  0  0  0
  151.0464  141.5638  156.6989 C   0  0  0  0  0  0  0  0  0  0  0  0
  151.6407  142.3857  157.6773 N   0  0  0  0  0  0  0  0  0  0  0  0
  151.4901  143.8159  157.4159 C   0  0  0  0  0  0  0  0  0  0  0  0
  152.4616  144.6321  158.2851 C   0  0  0  0  0  0  0  0  0  0  0  0
  152.2945  144.2830  159.7731 C   0  0  0  0  0  0  0  0  0  0  0  0
  152.4292  142.7657  159.9841 C   0  0  0  0  0  0  0  0  0  0  0  0
  151.4576  141.9940  159.0743 C   0  0  0  0  0  0  0  0  0  0  0  0
  154.6360  141.1813  160.1715 H   0  0  0  0  0  0  0  0  0  0  0  0
  154.1814  139.7008  161.0169 H   0  0  0  0  0  0  0  0  0  0  0  0
  153.0222  140.5060  159.9440 H   0  0  0  0  0  0  0  0  0  0  0  0
  154.5468  137.5173  158.3991 H   0  0  0  0  0  0  0  0  0  0  0  0
  153.5084  137.9039  159.7720 H   0  0  0  0  0  0  0  0  0  0  0  0
  153.1094  140.4081  157.7758 H   0  0  0  0  0  0  0  0  0  0  0  0
  151.1518  138.4272  155.3126 H   0  0  0  0  0  0  0  0  0  0  0  0
  149.3935  139.4706  153.9232 H   0  0  0  0  0  0  0  0  0  0  0  0
  148.7484  141.8512  154.3672 H   0  0  0  0  0  0  0  0  0  0  0  0
  151.6626  144.0399  156.3629 H   0  0  0  0  0  0  0  0  0  0  0  0
  150.4616  144.1064  157.6335 H   0  0  0  0  0  0  0  0  0  0  0  0
  153.4871  144.4279  157.9736 H   0  0  0  0  0  0  0  0  0  0  0  0
  152.2967  145.6985  158.1293 H   0  0  0  0  0  0  0  0  0  0  0  0
  153.0357  144.8145  160.3706 H   0  0  0  0  0  0  0  0  0  0  0  0
  151.3157  144.6161  160.1202 H   0  0  0  0  0  0  0  0  0  0  0  0
  153.4528  142.4573  159.7673 H   0  0  0  0  0  0  0  0  0  0  0  0
  152.2441  142.5133  161.0284 H   0  0  0  0  0  0  0  0  0  0  0  0
  150.4290  142.1953  159.3763 H   0  0  0  0  0  0  0  0  0  0  0  0
  151.6223  140.9211  159.1826 H   0  0  0  0  0  0  0  0  0  0  0  0
  1  2  1  0  0  0  0
  1 19  1  0  0  0  0
  1 20  1  0  0  0  0
  1 21  1  0  0  0  0
  2  3  1  0  0  0  0
  3  4  1  0  0  0  0
  3 22  1  0  0  0  0
  3 23  1  0  0  0  0
  4  5  2  0  0  0  0
  4  6  1  0  0  0  0
  6  7  1  0  0  0  0
  6 24  1  0  0  0  0
  7 12  1  0  0  0  0
  7  8  2  0  0  0  0
  8  9  1  0  0  0  0
  8 25  1  0  0  0  0
  9 10  2  0  0  0  0
  9 26  1  0  0  0  0
 10 11  1  0  0  0  0
 10 27  1  0  0  0  0
 11 12  2  0  0  0  0
 12 13  1  0  0  0  0
 13 18  1  0  0  0  0
 13 14  1  0  0  0  0
 14 15  1  0  0  0  0
 14 28  1  0  0  0  0
 14 29  1  0  0  0  0
 15 16  1  0  0  0  0
 15 30  1  0  0  0  0
 15 31  1  0  0  0  0
 16 17  1  0  0  0  0
 16 32  1  0  0  0  0
 16 33  1  0  0  0  0
 17 18  1  0  0  0  0
 17 34  1  0  0  0  0
 17 35  1  0  0  0  0
 18 36  1  0  0  0  0
 18 37  1  0  0  0  0
M  END
> <s_m_source_file>
AV-unprocessed.smi

> <i_m_source_file_index>
1770

> <i_lp_mmshare_version>
43012

> <i_f3d_flags>
0

> <s_epik_input>
W0NIM11PW0NIMl1DKD1PKVtOSF1jMVtjSF1bY0hdW2NIXW5jMU4yW0NIMl1bQ0gyXVtDSDJdW0NIMl1bQ0gyXTI=

> <s_epik_cmdline>
J2VwaWtfcHl0aG9uJywgJy1waCcsICc3LjAnLCAnLXRuJywgJzgnLCAnLW1hJywgJzIwMCcsICctbWV0YWxfYmluZGluZycsICctaW1hZScsICc8aW5maWxlLm1hZT4nLCAnLW9tYWUnLCAnPG91dGZpbGUubWFlPic=

> <r_lp_tautomer_probability>
1

> <r_epik_Ionization_Penalty>
0.0272113

> <r_epik_Ionization_Penalty_Charging>
0

> <r_epik_Ionization_Penalty_Neutral>
0.0272113

> <r_epik_State_Penalty>
0.0213264

> <r_epik_Charging_Adjusted_Penalty>
0.0213264

> <i_epik_Tot_Q>
0

> <i_epik_Tot_abs_Q>
0

> <r_epik_Metal_State_Penalty>
0.0203232

> <b_epik_Metal_Only>
0

> <s_lp_Force_Field>
OPLS_2005

> <r_lp_Energy>
23.4593

> <b_lp_Chiralities_Consistent>
1

> <s_lp_Variant>
AV-unprocessed.smi:1770-1

> <Gold.Version>
5.8.1

> <Gold.Id.Protein>
6NUR|6NUR_protein|mol2

> <Gold.PLP.Fitness>
36.7517

> <Gold.PLP.PLP>
-34.8759

> <Gold.PLP.part.hbond>
-1.0000

> <Gold.PLP.part.metal>
0.0000

> <Gold.PLP.part.buried>
-2.7319

> <Gold.PLP.part.nonpolar>
-33.2737

> <Gold.PLP.part.repulsive>
2.5048

> <Gold.PLP.ligand.clash>
0.0000

> <Gold.PLP.ligand.torsion>
0.7038

> <Gold.PLP.Chemscore.Hbond>
0.9920

> <Gold.PLP.Chemscore.CHOScore>
0.0000

> <Gold.PLP.Chemscore.Metal>
0.0000

> <Gold.Chemscore.Hbonds>
donor molecule, donor type, donor heavy atom, donor atom, acceptor molecule, acceptor atom, score
      P1  H  7997  8010       L1     2  0.96

> <Gold.PLP.Chemscore.Internal.Correction>
0.3075

> <Gold.Rescore>
     Score         DG    S(hbond)    S(metal)    S(lipo)     H(rot)  DE(clash)    DE(int)     intcor
     14.61     -15.59       0.85        0.00      92.69       1.39       0.02       0.96       ----

> <Gold.Chemscore.Fitness>
14.6089

> <Gold.Chemscore.DG>
-15.5869

> <Gold.Chemscore.ZeroCoef>
-5.4800

> <Gold.Chemscore.Hbond>
0.8474

> <Gold.Chemscore.Metal>
0.0000

> <Gold.Chemscore.Lipo>
92.6869

> <Gold.Chemscore.Internal_Hbond>
0.0000

> <Gold.Chemscore.DEClash>
0.0211

> <Gold.Chemscore.DEInternal>
0.9569

> <Gold.Chemscore.Rot>
1.3937

> <Gold.Chemscore.Internal.Correction>
   9.000000E+99

> <Gold.Chemscore.Hbonds>
donor molecule, donor type, donor heavy atom, donor atom, acceptor molecule, acceptor atom, score
      P1  H  7997  8010       L1     2  0.68

> <Gold.Chemscore.Hbond.Weighted>
-2.8303

> <Gold.Chemscore.Metal.Weighted>
-0.0000

> <Gold.Chemscore.Lipo.Weighted>
-10.8444

> <Gold.Chemscore.Internal_Hbond.Weighted>
0.0000

> <Gold.Chemscore.DEClash.Weighted>
0.0211

> <Gold.Chemscore.DEInternal.Weighted>
0.9569

> <Gold.Chemscore.Rot.Weighted>
3.5678

> <Gold.Chemscore.Internal.Correction.Weighted>
   9.000000E+99

> <Gold.Protein.RotatedTorsions>
[ 6907 6896 6895 6894 ] final  -29.68 input  -60.11 | X-H torsion
[ 7974 7965 7964 7962 ] final -174.15 input  175.53 | X-H torsion
[ 8008 7997 7996 7995 ] final  -17.73 input   59.86 | X-H torsion
[ 10167 10162 10161 10158 ] final    9.42 input  -65.29 | X-H torsion
[ 10718 10713 10712 10709 ] final -140.52 input   66.30 | X-H torsion
[ 10763 10752 10751 10750 ] final   92.32 input  -60.55 | X-H torsion
[ 11005 11000 10999 10996 ] final -112.40 input  -57.11 | X-H torsion

> <Gold.Protein.ActiveResidues>
 VAL166  LYS551  ARG553  GLY616  TRP617  ASP618  TYR619  PRO620  LYS621  CYS622 
 ASP623  PHE694  ASN695  SER759  ASP760  ASP761  ALA762  ILE779  LEU786  VAL792 
 PHE793  MET794  SER795  GLU796  ALA797  LYS798  CYS799  TRP800  GLU811  SER814 

> <Gold.Protein.RotatedAtoms>
  151.1159  135.0052  159.8515 H   0  0  0  0  0  0  0  0  0  0  0  0  # atno 6907 bound_to 6896
  152.5445  134.1781  159.8634 H   0  0  0  0  0  0  0  0  0  0  0  0  # atno 6908 bound_to 6896
  151.1835  133.4666  159.2627 H   0  0  0  0  0  0  0  0  0  0  0  0  # atno 6909 bound_to 6896
  144.7133  140.1515  143.6384 H   0  0  0  0  0  0  0  0  0  0  0  0  # atno 7974 bound_to 7965
  154.4957  140.2135  155.9452 H   0  0  0  0  0  0  0  0  0  0  0  0  # atno 8008 bound_to 7997
  156.1367  140.3187  155.8400 H   0  0  0  0  0  0  0  0  0  0  0  0  # atno 8009 bound_to 7997
  155.4196  140.0496  157.3017 H   0  0  0  0  0  0  0  0  0  0  0  0  # atno 8010 bound_to 7997
  140.6256  143.8109  150.7229 H   0  0  0  0  0  0  0  0  0  0  0  0  # atno 10167 bound_to 10162
  156.3233  130.7546  151.1648 H   0  0  0  0  0  0  0  0  0  0  0  0  # atno 10718 bound_to 10713
  153.2179  135.4365  155.0455 H   0  0  0  0  0  0  0  0  0  0  0  0  # atno 10763 bound_to 10752
  154.8234  135.3349  154.6971 H   0  0  0  0  0  0  0  0  0  0  0  0  # atno 10764 bound_to 10752
  153.7405  135.7005  153.5024 H   0  0  0  0  0  0  0  0  0  0  0  0  # atno 10765 bound_to 10752
  141.0677  133.9431  157.2546 H   0  0  0  0  0  0  0  0  0  0  0  0  # atno 11005 bound_to 11000
  145.9112  139.2488  143.1436 LP  0  0  0  0  0  0  0  0  0  0  0  0  # atno 17320 bound_to 7965
  145.9714  140.8757  143.0160 LP  0  0  0  0  0  0  0  0  0  0  0  0  # atno 17321 bound_to 7965
  140.1709  143.4195  152.2001 LP  0  0  0  0  0  0  0  0  0  0  0  0  # atno 17342 bound_to 10162
  139.5477  144.7312  151.4533 LP  0  0  0  0  0  0  0  0  0  0  0  0  # atno 17343 bound_to 10162
  157.7416  131.0501  150.5084 LP  0  0  0  0  0  0  0  0  0  0  0  0  # atno 17370 bound_to 10713
  156.5240  130.4168  149.6236 LP  0  0  0  0  0  0  0  0  0  0  0  0  # atno 17371 bound_to 10713
  139.9493  135.0178  156.8946 LP  0  0  0  0  0  0  0  0  0  0  0  0  # atno 17394 bound_to 11000
  140.5738  134.0418  155.7440 LP  0  0  0  0  0  0  0  0  0  0  0  0  # atno 17395 bound_to 11000

$$$$
