AV-unprocessed.smi:3330|AV-procd|sdf|12807|dock3
  -GOLD-   2272019173D 1   1.00000     0.00000
 Structure written by MMmdl.
 38 39  0  0  0  0  0  0  0  0  1 V2000
  147.3962  137.1571  154.7613 C   0  0  0  0  0  0  0  0  0  0  0  0
  146.5514  137.6285  153.5569 C   0  0  2  0  0  0  0  0  0  0  0  0
  146.4018  136.5279  152.6091 N   0  0  0  0  0  0  0  0  0  0  0  0
  146.0978  135.2583  153.2521 C   0  0  0  0  0  0  0  0  0  0  0  0
  146.5033  134.1092  152.3162 C   0  0  0  0  0  0  0  0  0  0  0  0
  145.3530  133.6086  151.5595 N   0  0  0  0  0  0  0  0  0  0  0  0
  145.0685  132.3109  151.3890 C   0  0  0  0  0  0  0  0  0  0  0  0
  145.6979  131.3426  151.8140 O   0  0  0  0  0  0  0  0  0  0  0  0
  143.8026  132.2021  150.5672 C   0  0  0  0  0  0  0  0  0  0  0  0
  143.5206  133.6094  150.3836 N   0  0  0  0  0  0  0  0  0  0  0  0
  144.4333  134.3944  150.9707 C   0  0  0  0  0  0  0  0  0  0  0  0
  144.4171  135.6244  150.9672 O   0  0  0  0  0  0  0  0  0  0  0  0
  147.1795  138.8331  152.8043 C   0  0  1  0  0  0  0  0  0  0  0  0
  146.4638  139.1402  151.4755 C   0  0  0  0  0  0  0  0  0  0  0  0
  147.2108  140.0347  153.6294 N   0  0  0  0  0  0  0  0  0  0  0  0
  146.1636  140.6713  154.2659 C   0  0  0  0  0  0  0  0  0  0  0  0
  146.6802  141.7498  154.9246 C   0  0  0  0  0  0  0  0  0  0  0  0
  148.0704  141.6920  154.6282 C   0  0  0  0  0  0  0  0  0  0  0  0
  148.3842  140.6675  153.8526 N   0  0  0  0  0  0  0  0  0  0  0  0
  147.5069  137.9432  155.5081 H   0  0  0  0  0  0  0  0  0  0  0  0
  148.3972  136.8581  154.4483 H   0  0  0  0  0  0  0  0  0  0  0  0
  146.9423  136.3110  155.2756 H   0  0  0  0  0  0  0  0  0  0  0  0
  145.5650  137.9286  153.9136 H   0  0  0  0  0  0  0  0  0  0  0  0
  147.2277  136.4466  152.0332 H   0  0  0  0  0  0  0  0  0  0  0  0
  146.6344  135.1712  154.1964 H   0  0  0  0  0  0  0  0  0  0  0  0
  145.0308  135.2037  153.4729 H   0  0  0  0  0  0  0  0  0  0  0  0
  147.2797  134.4444  151.6256 H   0  0  0  0  0  0  0  0  0  0  0  0
  146.9512  133.2978  152.8931 H   0  0  0  0  0  0  0  0  0  0  0  0
  143.9816  131.6997  149.6160 H   0  0  0  0  0  0  0  0  0  0  0  0
  143.0063  131.6993  151.1168 H   0  0  0  0  0  0  0  0  0  0  0  0
  142.7193  133.9483  149.8710 H   0  0  0  0  0  0  0  0  0  0  0  0
  148.2149  138.5791  152.5669 H   0  0  0  0  0  0  0  0  0  0  0  0
  146.5257  138.3001  150.7839 H   0  0  0  0  0  0  0  0  0  0  0  0
  146.9142  140.0003  150.9791 H   0  0  0  0  0  0  0  0  0  0  0  0
  145.4076  139.3616  151.6321 H   0  0  0  0  0  0  0  0  0  0  0  0
  145.1495  140.3060  154.1990 H   0  0  0  0  0  0  0  0  0  0  0  0
  146.1464  142.4694  155.5271 H   0  0  0  0  0  0  0  0  0  0  0  0
  148.8558  142.3591  154.9514 H   0  0  0  0  0  0  0  0  0  0  0  0
  1  2  1  0  0  0  0
  1 20  1  0  0  0  0
  1 21  1  0  0  0  0
  1 22  1  0  0  0  0
  2  3  1  0  0  0  0
  2 13  1  0  0  0  0
  2 23  1  0  0  0  0
  3  4  1  0  0  0  0
  3 24  1  0  0  0  0
  4  5  1  0  0  0  0
  4 25  1  0  0  0  0
  4 26  1  0  0  0  0
  5  6  1  0  0  0  0
  5 27  1  0  0  0  0
  5 28  1  0  0  0  0
  6 11  1  0  0  0  0
  6  7  1  0  0  0  0
  7  8  2  0  0  0  0
  7  9  1  0  0  0  0
  9 10  1  0  0  0  0
  9 29  1  0  0  0  0
  9 30  1  0  0  0  0
 10 11  1  0  0  0  0
 10 31  1  0  0  0  0
 11 12  2  0  0  0  0
 13 14  1  0  0  0  0
 13 15  1  0  0  0  0
 13 32  1  0  0  0  0
 14 33  1  0  0  0  0
 14 34  1  0  0  0  0
 14 35  1  0  0  0  0
 15 19  1  0  0  0  0
 15 16  1  0  0  0  0
 16 17  2  0  0  0  0
 16 36  1  0  0  0  0
 17 18  1  0  0  0  0
 17 37  1  0  0  0  0
 18 19  2  0  0  0  0
 18 38  1  0  0  0  0
M  END
> <s_m_source_file>
AV-unprocessed.smi

> <i_m_source_file_index>
3330

> <i_lp_mmshare_version>
43012

> <i_f3d_flags>
0

> <s_epik_input>
bjFbY0hdW2NIXVtjSF1uMVtDQEBIXShbQ0gzXSlbQ0BIXShbQ0gzXSlbTkhdW0NIMl1bQ0gyXU4yQyg9TylbQ0gyXVtOSF1DMj1P

> <s_epik_cmdline>
J2VwaWtfcHl0aG9uJywgJy1waCcsICc3LjAnLCAnLXRuJywgJzgnLCAnLW1hJywgJzIwMCcsICctbWV0YWxfYmluZGluZycsICctaW1hZScsICc8aW5maWxlLm1hZT4nLCAnLW9tYWUnLCAnPG91dGZpbGUubWFlPic=

> <r_lp_tautomer_probability>
1

> <r_epik_Ionization_Penalty>
2.2997

> <r_epik_Ionization_Penalty_Charging>
0

> <r_epik_Ionization_Penalty_Neutral>
2.2997

> <r_epik_State_Penalty>
2.44917

> <r_epik_Charging_Adjusted_Penalty>
2.44917

> <i_epik_Tot_Q>
0

> <i_epik_Tot_abs_Q>
0

> <r_epik_Metal_State_Penalty>
2.52438

> <b_epik_Metal_Only>
0

> <s_lp_Force_Field>
OPLS_2005

> <r_lp_Energy>
27.6633

> <b_lp_Chiralities_Consistent>
1

> <s_lp_Variant>
AV-unprocessed.smi:3330-7

> <Gold.Version>
5.8.1

> <Gold.Id.Protein>
6NUR|6NUR_protein|mol2

> <Gold.PLP.Fitness>
38.6857

> <Gold.PLP.PLP>
-28.2533

> <Gold.PLP.part.hbond>
-2.0000

> <Gold.PLP.part.metal>
0.0000

> <Gold.PLP.part.buried>
-0.7544

> <Gold.PLP.part.nonpolar>
-26.9245

> <Gold.PLP.part.repulsive>
1.2807

> <Gold.PLP.ligand.clash>
0.0000

> <Gold.PLP.ligand.torsion>
0.8525

> <Gold.PLP.Chemscore.Hbond>
2.0000

> <Gold.PLP.Chemscore.CHOScore>
2.0000

> <Gold.PLP.Chemscore.Metal>
0.0000

> <Gold.Chemscore.Hbonds>
donor molecule, donor type, donor heavy atom, donor atom, acceptor molecule, acceptor atom, score
      L1  H     3    24       P1  7948  1.00
      L1  H    10    31       P1 10186  1.00
      L1  C    16    36       P1 10175  0.98
      L1  C    18    38       P1  8028  1.00

> <Gold.PLP.Chemscore.Internal.Correction>
0.1375

> <Gold.Rescore>
     Score         DG    S(hbond)    S(metal)    S(lipo)     H(rot)  DE(clash)    DE(int)     intcor
      9.00     -11.82       1.98        0.00      54.56       2.60       0.10       2.72       ----

> <Gold.Chemscore.Fitness>
9.0026

> <Gold.Chemscore.DG>
-11.8213

> <Gold.Chemscore.ZeroCoef>
-5.4800

> <Gold.Chemscore.Hbond>
1.9766

> <Gold.Chemscore.Metal>
0.0000

> <Gold.Chemscore.Lipo>
54.5583

> <Gold.Chemscore.Internal_Hbond>
0.0000

> <Gold.Chemscore.DEClash>
0.1024

> <Gold.Chemscore.DEInternal>
2.7162

> <Gold.Chemscore.Rot>
2.5952

> <Gold.Chemscore.Internal.Correction>
   9.000000E+99

> <Gold.Chemscore.Hbonds>
donor molecule, donor type, donor heavy atom, donor atom, acceptor molecule, acceptor atom, score
      L1  H     3    24       P1  7948  0.96
      L1  H    10    31       P1 10186  0.99

> <Gold.Chemscore.Hbond.Weighted>
-6.6017

> <Gold.Chemscore.Metal.Weighted>
-0.0000

> <Gold.Chemscore.Lipo.Weighted>
-6.3833

> <Gold.Chemscore.Internal_Hbond.Weighted>
0.0000

> <Gold.Chemscore.DEClash.Weighted>
0.1024

> <Gold.Chemscore.DEInternal.Weighted>
2.7162

> <Gold.Chemscore.Rot.Weighted>
6.6437

> <Gold.Chemscore.Internal.Correction.Weighted>
   9.000000E+99

> <Gold.Protein.RotatedTorsions>
[ 6907 6896 6895 6894 ] final  151.98 input  -60.11 | X-H torsion
[ 7974 7965 7964 7962 ] final  150.11 input  175.53 | X-H torsion
[ 8008 7997 7996 7995 ] final -123.85 input   59.86 | X-H torsion
[ 10167 10162 10161 10158 ] final  118.80 input  -65.29 | X-H torsion
[ 10718 10713 10712 10709 ] final  -22.04 input   66.30 | X-H torsion
[ 10763 10752 10751 10750 ] final  -75.52 input  -60.55 | X-H torsion
[ 11005 11000 10999 10996 ] final  128.67 input  -57.11 | X-H torsion

> <Gold.Protein.ActiveResidues>
 VAL166  LYS551  ARG553  GLY616  TRP617  ASP618  TYR619  PRO620  LYS621  CYS622 
 ASP623  PHE694  ASN695  SER759  ASP760  ASP761  ALA762  ILE779  LEU786  VAL792 
 PHE793  MET794  SER795  GLU796  ALA797  LYS798  CYS799  TRP800  GLU811  SER814 

> <Gold.Protein.RotatedAtoms>
  152.0931  133.4211  159.4552 H   0  0  0  0  0  0  0  0  0  0  0  0  # atno 6907 bound_to 6896
  150.6863  134.2848  159.4651 H   0  0  0  0  0  0  0  0  0  0  0  0  # atno 6908 bound_to 6896
  152.0701  134.9538  160.0625 H   0  0  0  0  0  0  0  0  0  0  0  0  # atno 6909 bound_to 6896
  144.8388  139.6366  143.6026 H   0  0  0  0  0  0  0  0  0  0  0  0  # atno 7974 bound_to 7965
  155.1872  140.0412  157.2893 H   0  0  0  0  0  0  0  0  0  0  0  0  # atno 8008 bound_to 7997
  154.6163  140.2489  155.7577 H   0  0  0  0  0  0  0  0  0  0  0  0  # atno 8009 bound_to 7997
  156.2408  140.2904  156.0450 H   0  0  0  0  0  0  0  0  0  0  0  0  # atno 8010 bound_to 7997
  139.6088  144.7076  151.2892 H   0  0  0  0  0  0  0  0  0  0  0  0  # atno 10167 bound_to 10162
  156.5100  130.4608  149.6653 H   0  0  0  0  0  0  0  0  0  0  0  0  # atno 10718 bound_to 10713
  154.4876  135.5828  153.6435 H   0  0  0  0  0  0  0  0  0  0  0  0  # atno 10763 bound_to 10752
  152.9857  135.6105  154.3166 H   0  0  0  0  0  0  0  0  0  0  0  0  # atno 10764 bound_to 10752
  154.3063  135.2846  155.2567 H   0  0  0  0  0  0  0  0  0  0  0  0  # atno 10765 bound_to 10752
  139.9573  134.9610  156.9035 H   0  0  0  0  0  0  0  0  0  0  0  0  # atno 11005 bound_to 11000
  146.2683  139.6574  142.9314 LP  0  0  0  0  0  0  0  0  0  0  0  0  # atno 17320 bound_to 7965
  145.4738  141.0436  143.2684 LP  0  0  0  0  0  0  0  0  0  0  0  0  # atno 17321 bound_to 7965
  140.7304  143.6881  150.7945 LP  0  0  0  0  0  0  0  0  0  0  0  0  # atno 17342 bound_to 10162
  140.0471  143.5287  152.2691 LP  0  0  0  0  0  0  0  0  0  0  0  0  # atno 17343 bound_to 10162
  156.3250  130.7301  151.2220 LP  0  0  0  0  0  0  0  0  0  0  0  0  # atno 17370 bound_to 10713
  157.7452  131.0445  150.4798 LP  0  0  0  0  0  0  0  0  0  0  0  0  # atno 17371 bound_to 10713
  140.5580  134.0562  155.7390 LP  0  0  0  0  0  0  0  0  0  0  0  0  # atno 17394 bound_to 11000
  141.1246  133.9404  157.2661 LP  0  0  0  0  0  0  0  0  0  0  0  0  # atno 17395 bound_to 11000

$$$$
