AV-unprocessed.smi:2061|AV-procd|sdf|8387|dock6
  -GOLD-   2272011 63D 1   1.00000     0.00000
 Structure written by MMmdl.
 45 46  0  0  0  0  0  0  0  0  3 V2000
  147.4583  136.5365  163.2723 C   0  0  0  0  0  0  0  0  0  0  0  0
  147.2877  136.2180  161.8260 C   0  0  0  0  0  0  0  0  0  0  0  0
  146.8298  135.1119  161.1676 C   0  0  0  0  0  0  0  0  0  0  0  0
  146.9400  135.4798  159.7987 C   0  0  0  0  0  0  0  0  0  0  0  0
  146.5927  134.7232  158.7460 N   0  5  0  0  0  0  0  0  0  0  0  0
  146.5993  135.2450  157.4983 C   0  0  0  0  0  0  0  0  0  0  0  0
  145.6560  135.2622  156.7044 O   0  0  0  0  0  0  0  0  0  0  0  0
  147.7755  135.7812  157.1485 N   0  0  0  0  0  0  0  0  0  0  0  0
  148.0734  136.4008  155.8621 C   0  0  0  0  0  0  0  0  0  0  0  0
  149.5831  136.7173  155.6997 C   0  0  1  0  0  0  0  0  0  0  0  0
  150.4121  135.4124  155.7881 C   0  0  0  0  0  0  0  0  0  0  0  0
  149.8804  137.4575  154.4244 N   0  3  1  0  0  0  0  0  0  0  0  0
  149.2841  138.8152  154.2962 C   0  0  0  0  0  0  0  0  0  0  0  0
  150.0213  139.8318  155.1928 C   0  0  2  0  0  0  0  0  0  0  0  0
  149.4559  141.2481  155.0441 C   0  0  0  0  0  0  0  0  0  0  0  0
  151.3939  139.8631  154.8120 O   0  0  0  0  0  0  0  0  0  0  0  0
  152.0459  138.6039  154.9516 C   0  0  2  0  0  0  0  0  0  0  0  0
  153.5122  138.7820  154.5425 C   0  0  0  0  0  0  0  0  0  0  0  0
  151.3240  137.5580  154.0733 C   0  0  0  0  0  0  0  0  0  0  0  0
  147.4077  136.7066  159.6410 N   0  0  0  0  0  0  0  0  0  0  0  0
  147.6399  137.1846  160.9361 O   0  0  0  0  0  0  0  0  0  0  0  0
  146.5227  136.3904  163.8123 H   0  0  0  0  0  0  0  0  0  0  0  0
  147.7706  137.5714  163.4136 H   0  0  0  0  0  0  0  0  0  0  0  0
  148.2131  135.8913  163.7220 H   0  0  0  0  0  0  0  0  0  0  0  0
  146.4755  134.1863  161.5958 H   0  0  0  0  0  0  0  0  0  0  0  0
  148.5211  135.7463  157.8283 H   0  0  0  0  0  0  0  0  0  0  0  0
  147.7394  135.7534  155.0493 H   0  0  0  0  0  0  0  0  0  0  0  0
  147.4701  137.3071  155.8306 H   0  0  0  0  0  0  0  0  0  0  0  0
  149.8680  137.3457  156.5431 H   0  0  0  0  0  0  0  0  0  0  0  0
  150.1591  134.8213  156.6678 H   0  0  0  0  0  0  0  0  0  0  0  0
  151.4807  135.6009  155.8733 H   0  0  0  0  0  0  0  0  0  0  0  0
  150.2473  134.7805  154.9149 H   0  0  0  0  0  0  0  0  0  0  0  0
  149.3852  139.1269  153.2555 H   0  0  0  0  0  0  0  0  0  0  0  0
  148.2112  138.8216  154.4756 H   0  0  0  0  0  0  0  0  0  0  0  0
  149.9426  139.5407  156.2412 H   0  0  0  0  0  0  0  0  0  0  0  0
  148.4048  141.2828  155.3321 H   0  0  0  0  0  0  0  0  0  0  0  0
  149.5334  141.5995  154.0147 H   0  0  0  0  0  0  0  0  0  0  0  0
  149.9966  141.9516  155.6776 H   0  0  0  0  0  0  0  0  0  0  0  0
  152.0219  138.3029  155.9995 H   0  0  0  0  0  0  0  0  0  0  0  0
  154.0644  137.8477  154.6455 H   0  0  0  0  0  0  0  0  0  0  0  0
  154.0036  139.5277  155.1680 H   0  0  0  0  0  0  0  0  0  0  0  0
  153.5973  139.1088  153.5056 H   0  0  0  0  0  0  0  0  0  0  0  0
  151.8308  136.5968  154.1140 H   0  0  0  0  0  0  0  0  0  0  0  0
  151.3926  137.8651  153.0286 H   0  0  0  0  0  0  0  0  0  0  0  0
  149.4511  136.9009  153.6988 H   0  0  0  0  0  0  0  0  0  0  0  0
  1  2  1  0  0  0  0
  1 22  1  0  0  0  0
  1 23  1  0  0  0  0
  1 24  1  0  0  0  0
  2 21  1  0  0  0  0
  2  3  2  0  0  0  0
  3  4  1  0  0  0  0
  3 25  1  0  0  0  0
  4  5  1  0  0  0  0
  4 20  2  0  0  0  0
  5  6  1  0  0  0  0
  6  7  2  0  0  0  0
  6  8  1  0  0  0  0
  8  9  1  0  0  0  0
  8 26  1  0  0  0  0
  9 10  1  0  0  0  0
  9 27  1  0  0  0  0
  9 28  1  0  0  0  0
 10 11  1  0  0  0  0
 10 12  1  0  0  0  0
 10 29  1  0  0  0  0
 11 30  1  0  0  0  0
 11 31  1  0  0  0  0
 11 32  1  0  0  0  0
 12 19  1  0  0  0  0
 12 13  1  0  0  0  0
 12 45  1  0  0  0  0
 13 14  1  0  0  0  0
 13 33  1  0  0  0  0
 13 34  1  0  0  0  0
 14 15  1  0  0  0  0
 14 16  1  0  0  0  0
 14 35  1  0  0  0  0
 15 36  1  0  0  0  0
 15 37  1  0  0  0  0
 15 38  1  0  0  0  0
 16 17  1  0  0  0  0
 17 18  1  0  0  0  0
 17 19  1  0  0  0  0
 17 39  1  0  0  0  0
 18 40  1  0  0  0  0
 18 41  1  0  0  0  0
 18 42  1  0  0  0  0
 19 43  1  0  0  0  0
 19 44  1  0  0  0  0
 20 21  1  0  0  0  0
M  CHG  1   5  -1
M  CHG  1  12   1
M  END
> <s_m_source_file>
AV-unprocessed.smi

> <i_m_source_file_index>
2061

> <i_lp_mmshare_version>
43012

> <i_f3d_flags>
0

> <s_epik_input>
W0NIM11jMVtjSF1jKG5vMSlbTkhdQyg9TylbTkhdW0NIMl1bQ0BIXShbQ0gzXSlOMltDSDJdW0NAQEhdKFtDSDNdKU9bQ0BASF0oW0NIM10pW0NIMl0y

> <s_epik_cmdline>
J2VwaWtfcHl0aG9uJywgJy1waCcsICc3LjAnLCAnLXRuJywgJzgnLCAnLW1hJywgJzIwMCcsICctbWV0YWxfYmluZGluZycsICctaW1hZScsICc8aW5maWxlLm1hZT4nLCAnLW9tYWUnLCAnPG91dGZpbGUubWFlPic=

> <r_epik_Ionization_Penalty>
6.73511

> <r_epik_Ionization_Penalty_Charging>
6.73502

> <r_epik_Ionization_Penalty_Neutral>
9.50841e-05

> <r_epik_State_Penalty>
6.93549

> <r_epik_Charging_Adjusted_Penalty>
13.6705

> <i_epik_Tot_Q>
0

> <i_epik_Tot_abs_Q>
2

> <r_epik_Metal_State_Penalty>
2.87211

> <b_epik_Metal_Only>
1

> <s_lp_Force_Field>
OPLS_2005

> <r_lp_Energy>
11.5912

> <b_lp_Chiralities_Consistent>
1

> <s_lp_Variant>
AV-unprocessed.smi:2061-28

> <Gold.Version>
5.8.1

> <Gold.Id.Protein>
6NUR|6NUR_protein|mol2

> <Gold.PLP.Fitness>
44.9592

> <Gold.PLP.PLP>
-31.9975

> <Gold.PLP.part.hbond>
-4.0000

> <Gold.PLP.part.metal>
0.0000

> <Gold.PLP.part.buried>
-2.4421

> <Gold.PLP.part.nonpolar>
-26.5671

> <Gold.PLP.part.repulsive>
0.0990

> <Gold.PLP.ligand.clash>
0.0000

> <Gold.PLP.ligand.torsion>
0.6717

> <Gold.PLP.Chemscore.Hbond>
4.7440

> <Gold.PLP.Chemscore.CHOScore>
0.0000

> <Gold.PLP.Chemscore.Metal>
0.0000

> <Gold.Chemscore.Hbonds>
donor molecule, donor type, donor heavy atom, donor atom, acceptor molecule, acceptor atom, score
      L1  H    12    45       P1  7948  2.00
      P1  H  6931  6943       L1    21  0.86
      P1  H  6934  6947       L1    21  0.93
      P1  H  7989  7998       L1    16  1.00

> <Gold.PLP.Chemscore.Internal.Correction>
0.0731

> <Gold.Rescore>
     Score         DG    S(hbond)    S(metal)    S(lipo)     H(rot)  DE(clash)    DE(int)     intcor
     17.72     -20.26       2.77        0.00      81.37       1.56       0.25       2.30       ----

> <Gold.Chemscore.Fitness>
17.7187

> <Gold.Chemscore.DG>
-20.2648

> <Gold.Chemscore.ZeroCoef>
-5.4800

> <Gold.Chemscore.Hbond>
2.7680

> <Gold.Chemscore.Metal>
0.0000

> <Gold.Chemscore.Lipo>
81.3712

> <Gold.Chemscore.Internal_Hbond>
0.0000

> <Gold.Chemscore.DEClash>
0.2490

> <Gold.Chemscore.DEInternal>
2.2971

> <Gold.Chemscore.Rot>
1.5550

> <Gold.Chemscore.Internal.Correction>
   9.000000E+99

> <Gold.Chemscore.Hbonds>
donor molecule, donor type, donor heavy atom, donor atom, acceptor molecule, acceptor atom, score
      L1  H    12    45       P1  7948  0.87
      P1  H  6931  6943       L1    21  0.37
      P1  H  6934  6947       L1    21  0.55
      P1  H  7989  7998       L1    16  0.81

> <Gold.Chemscore.Hbond.Weighted>
-9.2452

> <Gold.Chemscore.Metal.Weighted>
-0.0000

> <Gold.Chemscore.Lipo.Weighted>
-9.5204

> <Gold.Chemscore.Internal_Hbond.Weighted>
0.0000

> <Gold.Chemscore.DEClash.Weighted>
0.2490

> <Gold.Chemscore.DEInternal.Weighted>
2.2971

> <Gold.Chemscore.Rot.Weighted>
3.9809

> <Gold.Chemscore.Internal.Correction.Weighted>
   9.000000E+99

> <Gold.Protein.RotatedTorsions>
[ 6907 6896 6895 6894 ] final  143.72 input  -60.11 | X-H torsion
[ 7974 7965 7964 7962 ] final  -26.78 input  175.53 | X-H torsion
[ 8008 7997 7996 7995 ] final  176.75 input   59.86 | X-H torsion
[ 10167 10162 10161 10158 ] final  -90.50 input  -65.29 | X-H torsion
[ 10718 10713 10712 10709 ] final  -82.40 input   66.30 | X-H torsion
[ 10763 10752 10751 10750 ] final  -83.11 input  -60.55 | X-H torsion
[ 11005 11000 10999 10996 ] final  133.79 input  -57.11 | X-H torsion

> <Gold.Protein.ActiveResidues>
 VAL166  LYS551  ARG553  GLY616  TRP617  ASP618  TYR619  PRO620  LYS621  CYS622 
 ASP623  PHE694  ASN695  SER759  ASP760  ASP761  ALA762  ILE779  LEU786  VAL792 
 PHE793  MET794  SER795  GLU796  ALA797  LYS798  CYS799  TRP800  GLU811  SER814 

> <Gold.Protein.RotatedAtoms>
  152.2028  133.4853  159.5067 H   0  0  0  0  0  0  0  0  0  0  0  0  # atno 6907 bound_to 6896
  150.6973  134.1568  159.4170 H   0  0  0  0  0  0  0  0  0  0  0  0  # atno 6908 bound_to 6896
  151.9486  135.0179  160.0591 H   0  0  0  0  0  0  0  0  0  0  0  0  # atno 6909 bound_to 6896
  146.1402  140.5065  142.8655 H   0  0  0  0  0  0  0  0  0  0  0  0  # atno 7974 bound_to 7965
  156.0731  140.1375  156.9805 H   0  0  0  0  0  0  0  0  0  0  0  0  # atno 8008 bound_to 7997
  154.4542  140.0968  156.6760 H   0  0  0  0  0  0  0  0  0  0  0  0  # atno 8009 bound_to 7997
  155.5197  140.3456  155.4406 H   0  0  0  0  0  0  0  0  0  0  0  0  # atno 8010 bound_to 7997
  140.3543  143.2875  151.9690 H   0  0  0  0  0  0  0  0  0  0  0  0  # atno 10167 bound_to 10162
  156.0034  130.4633  150.4099 H   0  0  0  0  0  0  0  0  0  0  0  0  # atno 10718 bound_to 10713
  154.5838  135.5567  153.7211 H   0  0  0  0  0  0  0  0  0  0  0  0  # atno 10763 bound_to 10752
  153.0091  135.6326  154.1945 H   0  0  0  0  0  0  0  0  0  0  0  0  # atno 10764 bound_to 10752
  154.1886  135.2883  155.3009 H   0  0  0  0  0  0  0  0  0  0  0  0  # atno 10765 bound_to 10752
  139.9874  134.9527  156.9775 H   0  0  0  0  0  0  0  0  0  0  0  0  # atno 11005 bound_to 11000
  144.7784  140.5788  143.6622 LP  0  0  0  0  0  0  0  0  0  0  0  0  # atno 17320 bound_to 7965
  145.5064  139.1481  143.3629 LP  0  0  0  0  0  0  0  0  0  0  0  0  # atno 17321 bound_to 7965
  139.4822  144.6049  151.7539 LP  0  0  0  0  0  0  0  0  0  0  0  0  # atno 17342 bound_to 10162
  140.5189  144.0910  150.6016 LP  0  0  0  0  0  0  0  0  0  0  0  0  # atno 17343 bound_to 10162
  157.2162  131.0472  151.2572 LP  0  0  0  0  0  0  0  0  0  0  0  0  # atno 17370 bound_to 10713
  157.3843  130.7248  149.6652 LP  0  0  0  0  0  0  0  0  0  0  0  0  # atno 17371 bound_to 10713
  140.4975  134.1130  155.7244 LP  0  0  0  0  0  0  0  0  0  0  0  0  # atno 17394 bound_to 11000
  141.1536  133.8923  157.2034 LP  0  0  0  0  0  0  0  0  0  0  0  0  # atno 17395 bound_to 11000

$$$$
