AV-unprocessed.smi:3214|AV-procd|sdf|12283|dock3
  -GOLD-   2272018123D 1   1.00000     0.00000
 Structure written by MMmdl.
 37 37  0  0  0  0  0  0  0  0  2 V2000
  143.7452  132.8020  148.2836 C   0  0  0  0  0  0  0  0  0  0  0  0
  144.2661  132.7625  149.7261 C   0  0  0  0  0  0  0  0  0  0  0  0
  144.8678  134.0338  150.1120 N   0  0  0  0  0  0  0  0  0  0  0  0
  144.9136  134.5183  151.3627 C   0  0  0  0  0  0  0  0  0  0  0  0
  144.4453  133.9249  152.3344 O   0  0  0  0  0  0  0  0  0  0  0  0
  145.5867  135.8843  151.5332 C   0  0  0  0  0  0  0  0  0  0  0  0
  144.6738  136.9311  152.1957 C   0  0  0  0  0  0  0  0  0  0  0  0
  145.1208  138.3011  151.8660 N   0  3  0  0  0  0  0  0  0  0  0  0
  146.5396  138.5984  152.1662 C   0  0  2  0  0  0  0  0  0  0  0  0
  146.8744  138.0894  153.5787 C   0  0  0  0  0  0  0  0  0  0  0  0
  146.8440  140.1055  151.9924 C   0  0  0  0  0  0  0  0  0  0  0  0
  147.1684  140.7704  153.2420 N   0  0  0  0  0  0  0  0  0  0  0  0
  146.3666  140.9586  154.3484 C   0  0  0  0  0  0  0  0  0  0  0  0
  147.1021  141.6469  155.2702 C   0  0  0  0  0  0  0  0  0  0  0  0
  148.3549  141.8439  154.6248 C   0  0  0  0  0  0  0  0  0  0  0  0
  148.3897  141.3217  153.4093 N   0  0  0  0  0  0  0  0  0  0  0  0
  143.3228  131.8382  147.9988 H   0  0  0  0  0  0  0  0  0  0  0  0
  144.5467  133.0328  147.5810 H   0  0  0  0  0  0  0  0  0  0  0  0
  142.9647  133.5542  148.1621 H   0  0  0  0  0  0  0  0  0  0  0  0
  143.4610  132.4971  150.4134 H   0  0  0  0  0  0  0  0  0  0  0  0
  145.0236  131.9842  149.8219 H   0  0  0  0  0  0  0  0  0  0  0  0
  145.2732  134.5874  149.3711 H   0  0  0  0  0  0  0  0  0  0  0  0
  146.4914  135.7594  152.1302 H   0  0  0  0  0  0  0  0  0  0  0  0
  145.9042  136.2343  150.5503 H   0  0  0  0  0  0  0  0  0  0  0  0
  143.6451  136.8025  151.8552 H   0  0  0  0  0  0  0  0  0  0  0  0
  144.6775  136.7924  153.2770 H   0  0  0  0  0  0  0  0  0  0  0  0
  144.9483  138.4823  150.8875 H   0  0  0  0  0  0  0  0  0  0  0  0
  147.1533  138.0305  151.4652 H   0  0  0  0  0  0  0  0  0  0  0  0
  147.9355  138.1971  153.8052 H   0  0  0  0  0  0  0  0  0  0  0  0
  146.6318  137.0313  153.6816 H   0  0  0  0  0  0  0  0  0  0  0  0
  146.3150  138.6345  154.3397 H   0  0  0  0  0  0  0  0  0  0  0  0
  147.6808  140.2593  151.3110 H   0  0  0  0  0  0  0  0  0  0  0  0
  145.9851  140.6120  151.5497 H   0  0  0  0  0  0  0  0  0  0  0  0
  145.3519  140.5907  154.3892 H   0  0  0  0  0  0  0  0  0  0  0  0
  146.7918  141.9639  156.2549 H   0  0  0  0  0  0  0  0  0  0  0  0
  149.2329  142.3484  155.0002 H   0  0  0  0  0  0  0  0  0  0  0  0
  144.5571  138.9366  152.4124 H   0  0  0  0  0  0  0  0  0  0  0  0
  1  2  1  0  0  0  0
  1 17  1  0  0  0  0
  1 18  1  0  0  0  0
  1 19  1  0  0  0  0
  2  3  1  0  0  0  0
  2 20  1  0  0  0  0
  2 21  1  0  0  0  0
  3  4  1  0  0  0  0
  3 22  1  0  0  0  0
  4  5  2  0  0  0  0
  4  6  1  0  0  0  0
  6  7  1  0  0  0  0
  6 23  1  0  0  0  0
  6 24  1  0  0  0  0
  7  8  1  0  0  0  0
  7 25  1  0  0  0  0
  7 26  1  0  0  0  0
  8  9  1  0  0  0  0
  8 27  1  0  0  0  0
  8 37  1  0  0  0  0
  9 10  1  0  0  0  0
  9 11  1  0  0  0  0
  9 28  1  0  0  0  0
 10 29  1  0  0  0  0
 10 30  1  0  0  0  0
 10 31  1  0  0  0  0
 11 12  1  0  0  0  0
 11 32  1  0  0  0  0
 11 33  1  0  0  0  0
 12 16  1  0  0  0  0
 12 13  1  0  0  0  0
 13 14  2  0  0  0  0
 13 34  1  0  0  0  0
 14 15  1  0  0  0  0
 14 35  1  0  0  0  0
 15 16  2  0  0  0  0
 15 36  1  0  0  0  0
M  CHG  1   8   1
M  END
> <s_m_source_file>
AV-unprocessed.smi

> <i_m_source_file_index>
3214

> <i_lp_mmshare_version>
43012

> <i_f3d_flags>
0

> <s_epik_input>
W0NIM11bQ0gyXVtOSF1DKD1PKVtDSDJdW0NIMl1bTkhdW0NASF0oW0NIM10pW0NIMl1uMVtjSF1bY0hdW2NIXW4x

> <s_epik_cmdline>
J2VwaWtfcHl0aG9uJywgJy1waCcsICc3LjAnLCAnLXRuJywgJzgnLCAnLW1hJywgJzIwMCcsICctbWV0YWxfYmluZGluZycsICctaW1hZScsICc8aW5maWxlLm1hZT4nLCAnLW9tYWUnLCAnPG91dGZpbGUubWFlPic=

> <r_lp_tautomer_probability>
1

> <r_epik_Ionization_Penalty>
0.00598156

> <r_epik_Ionization_Penalty_Charging>
0.00597743

> <r_epik_Ionization_Penalty_Neutral>
4.12922e-06

> <r_epik_State_Penalty>
0.00439883

> <r_epik_Charging_Adjusted_Penalty>
0.0103763

> <i_epik_Tot_Q>
1

> <i_epik_Tot_abs_Q>
1

> <r_epik_Metal_State_Penalty>
-0

> <b_epik_Metal_Only>
0

> <s_lp_Force_Field>
OPLS_2005

> <r_lp_Energy>
5.54296

> <b_lp_Chiralities_Consistent>
1

> <s_lp_Variant>
AV-unprocessed.smi:3214-1

> <Gold.Version>
5.8.1

> <Gold.Id.Protein>
6NUR|6NUR_protein|mol2

> <Gold.PLP.Fitness>
45.8762

> <Gold.PLP.PLP>
-28.9047

> <Gold.PLP.part.hbond>
-3.6571

> <Gold.PLP.part.metal>
0.0000

> <Gold.PLP.part.buried>
2.5972

> <Gold.PLP.part.nonpolar>
-30.0395

> <Gold.PLP.part.repulsive>
2.5443

> <Gold.PLP.ligand.clash>
0.0000

> <Gold.PLP.ligand.torsion>
1.1150

> <Gold.PLP.Chemscore.Hbond>
4.6886

> <Gold.PLP.Chemscore.CHOScore>
1.6618

> <Gold.PLP.Chemscore.Metal>
0.0000

> <Gold.Chemscore.Hbonds>
donor molecule, donor type, donor heavy atom, donor atom, acceptor molecule, acceptor atom, score
      L1  H     3    22       P1  7921  1.00
      L1  H     8    27       P1 10171  0.89
      L1  H     8    37       P1 10175  1.86
      P1  H  8011  8017       L1    16  0.72
      L1  C    13    34       P1 10175  0.94
      L1  C    15    36       P1  8028  0.69

> <Gold.PLP.Chemscore.Internal.Correction>
0.1505

> <Gold.Rescore>
     Score         DG    S(hbond)    S(metal)    S(lipo)     H(rot)  DE(clash)    DE(int)     intcor
     14.73     -17.82       2.96        0.00      73.46       2.39       1.92       1.18       ----

> <Gold.Chemscore.Fitness>
14.7252

> <Gold.Chemscore.DG>
-17.8248

> <Gold.Chemscore.ZeroCoef>
-5.4800

> <Gold.Chemscore.Hbond>
2.9582

> <Gold.Chemscore.Metal>
0.0000

> <Gold.Chemscore.Lipo>
73.4613

> <Gold.Chemscore.Internal_Hbond>
0.0000

> <Gold.Chemscore.DEClash>
1.9194

> <Gold.Chemscore.DEInternal>
1.1802

> <Gold.Chemscore.Rot>
2.3948

> <Gold.Chemscore.Internal.Correction>
   9.000000E+99

> <Gold.Chemscore.Hbonds>
donor molecule, donor type, donor heavy atom, donor atom, acceptor molecule, acceptor atom, score
      L1  H     3    22       P1  7921  0.96
      L1  H     8    27       P1 10171  0.80
      L1  H     8    37       P1 10175  0.91
      P1  H  8011  8017       L1    16  0.41

> <Gold.Chemscore.Hbond.Weighted>
-9.8804

> <Gold.Chemscore.Metal.Weighted>
-0.0000

> <Gold.Chemscore.Lipo.Weighted>
-8.5950

> <Gold.Chemscore.Internal_Hbond.Weighted>
0.0000

> <Gold.Chemscore.DEClash.Weighted>
1.9194

> <Gold.Chemscore.DEInternal.Weighted>
1.1802

> <Gold.Chemscore.Rot.Weighted>
6.1306

> <Gold.Chemscore.Internal.Correction.Weighted>
   9.000000E+99

> <Gold.Protein.RotatedTorsions>
[ 6907 6896 6895 6894 ] final   81.70 input  -60.11 | X-H torsion
[ 7974 7965 7964 7962 ] final   43.37 input  175.53 | X-H torsion
[ 8008 7997 7996 7995 ] final -174.53 input   59.86 | X-H torsion
[ 10167 10162 10161 10158 ] final   21.71 input  -65.29 | X-H torsion
[ 10718 10713 10712 10709 ] final  -18.29 input   66.30 | X-H torsion
[ 10763 10752 10751 10750 ] final -174.19 input  -60.55 | X-H torsion
[ 11005 11000 10999 10996 ] final -111.10 input  -57.11 | X-H torsion

> <Gold.Protein.ActiveResidues>
 VAL166  LYS551  ARG553  GLY616  TRP617  ASP618  TYR619  PRO620  LYS621  CYS622 
 ASP623  PHE694  ASN695  SER759  ASP760  ASP761  ALA762  ILE779  LEU786  VAL792 
 PHE793  MET794  SER795  GLU796  ALA797  LYS798  CYS799  TRP800  GLU811  SER814 

> <Gold.Protein.RotatedAtoms>
  152.5276  134.3164  159.9132 H   0  0  0  0  0  0  0  0  0  0  0  0  # atno 6907 bound_to 6896
  151.3113  133.4073  159.2655 H   0  0  0  0  0  0  0  0  0  0  0  0  # atno 6908 bound_to 6896
  151.0036  134.9358  159.8025 H   0  0  0  0  0  0  0  0  0  0  0  0  # atno 6909 bound_to 6896
  146.0661  139.5194  142.9627 H   0  0  0  0  0  0  0  0  0  0  0  0  # atno 7974 bound_to 7965
  155.9712  140.1163  157.0810 H   0  0  0  0  0  0  0  0  0  0  0  0  # atno 8008 bound_to 7997
  154.4157  140.1163  156.5377 H   0  0  0  0  0  0  0  0  0  0  0  0  # atno 8009 bound_to 7997
  155.6593  140.3473  155.4779 H   0  0  0  0  0  0  0  0  0  0  0  0  # atno 8010 bound_to 7997
  140.5405  143.9685  150.6517 H   0  0  0  0  0  0  0  0  0  0  0  0  # atno 10167 bound_to 10162
  156.5616  130.4727  149.6404 H   0  0  0  0  0  0  0  0  0  0  0  0  # atno 10718 bound_to 10713
  154.5991  135.2853  155.0554 H   0  0  0  0  0  0  0  0  0  0  0  0  # atno 10763 bound_to 10752
  154.1825  135.6454  153.5042 H   0  0  0  0  0  0  0  0  0  0  0  0  # atno 10764 bound_to 10752
  153.0150  135.5427  154.6704 H   0  0  0  0  0  0  0  0  0  0  0  0  # atno 10765 bound_to 10752
  141.0754  133.9310  157.2401 H   0  0  0  0  0  0  0  0  0  0  0  0  # atno 11005 bound_to 11000
  145.6474  141.0271  143.1778 LP  0  0  0  0  0  0  0  0  0  0  0  0  # atno 17320 bound_to 7965
  144.7203  139.8052  143.7384 LP  0  0  0  0  0  0  0  0  0  0  0  0  # atno 17321 bound_to 7965
  140.3084  143.3214  152.0903 LP  0  0  0  0  0  0  0  0  0  0  0  0  # atno 17342 bound_to 10162
  139.4987  144.6652  151.6373 LP  0  0  0  0  0  0  0  0  0  0  0  0  # atno 17343 bound_to 10162
  156.2794  130.7062  151.1882 LP  0  0  0  0  0  0  0  0  0  0  0  0  # atno 17370 bound_to 10713
  157.7367  131.0559  150.5397 LP  0  0  0  0  0  0  0  0  0  0  0  0  # atno 17371 bound_to 10713
  139.9566  135.0164  156.9145 LP  0  0  0  0  0  0  0  0  0  0  0  0  # atno 17394 bound_to 11000
  140.5585  134.0558  155.7391 LP  0  0  0  0  0  0  0  0  0  0  0  0  # atno 17395 bound_to 11000

$$$$
