AV-unprocessed.smi:3208|AV-procd|sdf|12266|dock3
  -GOLD-   2272018103D 1   1.00000     0.00000
 Structure written by MMmdl.
 29 29  0  0  0  0  0  0  0  0  2 V2000
  147.8498  141.9999  153.8017 C   0  0  0  0  0  0  0  0  0  0  0  0
  149.0982  141.7269  154.2098 C   0  0  0  0  0  0  0  0  0  0  0  0
  149.6686  140.3330  154.3507 C   0  0  0  0  0  0  0  0  0  0  0  0
  150.1027  140.1122  155.6875 O   0  0  0  0  0  0  0  0  0  0  0  0
  151.5023  140.2676  155.9115 C   0  0  2  0  0  0  0  0  0  0  0  0
  152.2170  139.1044  155.2075 C   0  0  0  0  0  0  0  0  0  0  0  0
  151.8085  140.2847  157.4180 C   0  0  0  0  0  0  0  0  0  0  0  0
  151.6403  139.2642  158.0872 O   0  0  0  0  0  0  0  0  0  0  0  0
  152.2379  141.4618  157.9087 N   0  0  0  0  0  0  0  0  0  0  0  0
  152.5990  141.7937  159.2435 C   0  0  0  0  0  0  0  0  0  0  0  0
  152.0900  142.8666  159.9000 N   0  0  0  0  0  0  0  0  0  0  0  0
  152.4819  143.1133  161.1670 C   0  0  0  0  0  0  0  0  0  0  0  0
  153.4026  142.3078  161.8598 C   0  0  0  0  0  0  0  0  0  0  0  0
  153.9384  141.1924  161.1930 C   0  0  0  0  0  0  0  0  0  0  0  0
  153.5353  140.9281  159.8687 C   0  0  0  0  0  0  0  0  0  0  0  0
  154.0585  139.8424  159.2198 O   0  5  0  0  0  0  0  0  0  0  0  0
  147.1592  141.2109  153.5417 H   0  0  0  0  0  0  0  0  0  0  0  0
  147.5026  143.0195  153.7221 H   0  0  0  0  0  0  0  0  0  0  0  0
  149.7619  142.5413  154.4614 H   0  0  0  0  0  0  0  0  0  0  0  0
  148.8903  139.6164  154.0850 H   0  0  0  0  0  0  0  0  0  0  0  0
  150.4899  140.2039  153.6446 H   0  0  0  0  0  0  0  0  0  0  0  0
  151.8400  141.2000  155.4545 H   0  0  0  0  0  0  0  0  0  0  0  0
  153.2965  139.1561  155.3541 H   0  0  0  0  0  0  0  0  0  0  0  0
  152.0292  139.1300  154.1340 H   0  0  0  0  0  0  0  0  0  0  0  0
  151.8735  138.1377  155.5778 H   0  0  0  0  0  0  0  0  0  0  0  0
  152.3187  142.2228  157.2497 H   0  0  0  0  0  0  0  0  0  0  0  0
  152.0470  143.9796  161.6429 H   0  0  0  0  0  0  0  0  0  0  0  0
  153.6902  142.5389  162.8745 H   0  0  0  0  0  0  0  0  0  0  0  0
  154.6488  140.5496  161.6925 H   0  0  0  0  0  0  0  0  0  0  0  0
  1  2  2  0  0  0  0
  1 17  1  0  0  0  0
  1 18  1  0  0  0  0
  2  3  1  0  0  0  0
  2 19  1  0  0  0  0
  3  4  1  0  0  0  0
  3 20  1  0  0  0  0
  3 21  1  0  0  0  0
  4  5  1  0  0  0  0
  5  6  1  0  0  0  0
  5  7  1  0  0  0  0
  5 22  1  0  0  0  0
  6 23  1  0  0  0  0
  6 24  1  0  0  0  0
  6 25  1  0  0  0  0
  7  8  2  0  0  0  0
  7  9  1  0  0  0  0
  9 26  1  0  0  0  0
  9 10  1  0  0  0  0
 10 15  2  0  0  0  0
 10 11  1  0  0  0  0
 11 12  2  0  0  0  0
 12 27  1  0  0  0  0
 12 13  1  0  0  0  0
 13 28  1  0  0  0  0
 13 14  2  0  0  0  0
 14 15  1  0  0  0  0
 14 29  1  0  0  0  0
 15 16  1  0  0  0  0
M  CHG  1  16  -1
M  END
> <s_m_source_file>
AV-unprocessed.smi

> <i_m_source_file_index>
3208

> <i_lp_mmshare_version>
43012

> <i_f3d_flags>
0

> <s_epik_input>
W0NIMl09W0NIXVtDSDJdT1tDQEhdKFtDSDNdKUMoPU8pW05IXWMxbltjSF1bY0hdW2NIXWMxW09IXQ==

> <s_epik_cmdline>
J2VwaWtfcHl0aG9uJywgJy1waCcsICc3LjAnLCAnLXRuJywgJzgnLCAnLW1hJywgJzIwMCcsICctbWV0YWxfYmluZGluZycsICctaW1hZScsICc8aW5maWxlLm1hZT4nLCAnLW9tYWUnLCAnPG91dGZpbGUubWFlPic=

> <r_epik_Ionization_Penalty>
4.05889

> <r_epik_Ionization_Penalty_Charging>
2.07983

> <r_epik_Ionization_Penalty_Neutral>
1.97905

> <r_epik_State_Penalty>
2.65143

> <r_epik_Charging_Adjusted_Penalty>
4.73126

> <i_epik_Tot_Q>
-1

> <i_epik_Tot_abs_Q>
1

> <r_epik_Metal_State_Penalty>
0.650759

> <b_epik_Metal_Only>
0

> <s_lp_Force_Field>
OPLS_2005

> <r_lp_Energy>
4.23541

> <b_lp_Chiralities_Consistent>
1

> <s_lp_Variant>
AV-unprocessed.smi:3208-7

> <Gold.Version>
5.8.1

> <Gold.Id.Protein>
6NUR|6NUR_protein|mol2

> <Gold.PLP.Fitness>
40.3620

> <Gold.PLP.PLP>
-36.1426

> <Gold.PLP.part.hbond>
-1.0000

> <Gold.PLP.part.metal>
0.0000

> <Gold.PLP.part.buried>
-2.7462

> <Gold.PLP.part.nonpolar>
-32.2116

> <Gold.PLP.part.repulsive>
0.1134

> <Gold.PLP.ligand.clash>
0.0000

> <Gold.PLP.ligand.torsion>
0.9083

> <Gold.PLP.Chemscore.Hbond>
2.0000

> <Gold.PLP.Chemscore.CHOScore>
0.0000

> <Gold.PLP.Chemscore.Metal>
0.0000

> <Gold.Chemscore.Hbonds>
donor molecule, donor type, donor heavy atom, donor atom, acceptor molecule, acceptor atom, score
      P1  H  7997  8010       L1    16  1.46

> <Gold.PLP.Chemscore.Internal.Correction>
0.0359

> <Gold.Rescore>
     Score         DG    S(hbond)    S(metal)    S(lipo)     H(rot)  DE(clash)    DE(int)     intcor
     12.61     -13.65       0.99        0.00      77.85       1.65       0.01       1.03       ----

> <Gold.Chemscore.Fitness>
12.6132

> <Gold.Chemscore.DG>
-13.6536

> <Gold.Chemscore.ZeroCoef>
-5.4800

> <Gold.Chemscore.Hbond>
0.9873

> <Gold.Chemscore.Metal>
0.0000

> <Gold.Chemscore.Lipo>
77.8481

> <Gold.Chemscore.Internal_Hbond>
0.0000

> <Gold.Chemscore.DEClash>
0.0115

> <Gold.Chemscore.DEInternal>
1.0288

> <Gold.Chemscore.Rot>
1.6533

> <Gold.Chemscore.Internal.Correction>
   9.000000E+99

> <Gold.Chemscore.Hbonds>
donor molecule, donor type, donor heavy atom, donor atom, acceptor molecule, acceptor atom, score
      P1  H  7997  8010       L1    16  0.71

> <Gold.Chemscore.Hbond.Weighted>
-3.2977

> <Gold.Chemscore.Metal.Weighted>
-0.0000

> <Gold.Chemscore.Lipo.Weighted>
-9.1082

> <Gold.Chemscore.Internal_Hbond.Weighted>
0.0000

> <Gold.Chemscore.DEClash.Weighted>
0.0115

> <Gold.Chemscore.DEInternal.Weighted>
1.0288

> <Gold.Chemscore.Rot.Weighted>
4.2324

> <Gold.Chemscore.Internal.Correction.Weighted>
   9.000000E+99

> <Gold.Protein.RotatedTorsions>
[ 6907 6896 6895 6894 ] final -126.07 input  -60.11 | X-H torsion
[ 7974 7965 7964 7962 ] final  -13.80 input  175.53 | X-H torsion
[ 8008 7997 7996 7995 ] final    7.50 input   59.86 | X-H torsion
[ 10167 10162 10161 10158 ] final   39.51 input  -65.29 | X-H torsion
[ 10718 10713 10712 10709 ] final   67.27 input   66.30 | X-H torsion
[ 10763 10752 10751 10750 ] final  -89.74 input  -60.55 | X-H torsion
[ 11005 11000 10999 10996 ] final  -97.78 input  -57.11 | X-H torsion

> <Gold.Protein.ActiveResidues>
 VAL166  LYS551  ARG553  GLY616  TRP617  ASP618  TYR619  PRO620  LYS621  CYS622 
 ASP623  PHE694  ASN695  SER759  ASP760  ASP761  ALA762  ILE779  LEU786  VAL792 
 PHE793  MET794  SER795  GLU796  ALA797  LYS798  CYS799  TRP800  GLU811  SER814 

> <Gold.Protein.RotatedAtoms>
  150.8931  133.7216  159.2898 H   0  0  0  0  0  0  0  0  0  0  0  0  # atno 6907 bound_to 6896
  151.4760  135.1047  159.9774 H   0  0  0  0  0  0  0  0  0  0  0  0  # atno 6908 bound_to 6896
  152.4832  133.8260  159.7134 H   0  0  0  0  0  0  0  0  0  0  0  0  # atno 6909 bound_to 6896
  146.2100  140.3256  142.8394 H   0  0  0  0  0  0  0  0  0  0  0  0  # atno 7974 bound_to 7965
  154.7546  140.2773  155.6264 H   0  0  0  0  0  0  0  0  0  0  0  0  # atno 8008 bound_to 7997
  156.2903  140.2672  156.2235 H   0  0  0  0  0  0  0  0  0  0  0  0  # atno 8009 bound_to 7997
  155.0094  140.0372  157.2382 H   0  0  0  0  0  0  0  0  0  0  0  0  # atno 8010 bound_to 7997
  140.3833  144.1951  150.6130 H   0  0  0  0  0  0  0  0  0  0  0  0  # atno 10167 bound_to 10162
  157.6220  130.9312  150.0220 H   0  0  0  0  0  0  0  0  0  0  0  0  # atno 10718 bound_to 10713
  154.6584  135.5330  153.7988 H   0  0  0  0  0  0  0  0  0  0  0  0  # atno 10763 bound_to 10752
  153.0427  135.6500  154.0909 H   0  0  0  0  0  0  0  0  0  0  0  0  # atno 10764 bound_to 10752
  154.0820  135.2946  155.3268 H   0  0  0  0  0  0  0  0  0  0  0  0  # atno 10765 bound_to 10752
  141.1367  133.8196  157.0751 H   0  0  0  0  0  0  0  0  0  0  0  0  # atno 11005 bound_to 11000
  144.8888  140.7497  143.5939 LP  0  0  0  0  0  0  0  0  0  0  0  0  # atno 17320 bound_to 7965
  145.3178  139.1798  143.4604 LP  0  0  0  0  0  0  0  0  0  0  0  0  # atno 17321 bound_to 7965
  140.4915  143.2346  151.8811 LP  0  0  0  0  0  0  0  0  0  0  0  0  # atno 17342 bound_to 10162
  139.4794  144.5160  151.8867 LP  0  0  0  0  0  0  0  0  0  0  0  0  # atno 17343 bound_to 10162
  156.1370  130.3642  149.9641 LP  0  0  0  0  0  0  0  0  0  0  0  0  # atno 17370 bound_to 10713
  156.7690  130.9179  151.3644 LP  0  0  0  0  0  0  0  0  0  0  0  0  # atno 17371 bound_to 10713
  140.0486  134.9817  157.1095 LP  0  0  0  0  0  0  0  0  0  0  0  0  # atno 17394 bound_to 11000
  140.4024  134.2068  155.7163 LP  0  0  0  0  0  0  0  0  0  0  0  0  # atno 17395 bound_to 11000

$$$$
