AV-unprocessed.smi:2061|AV-procd|sdf|8369|dock2
  -GOLD-   2272011 43D 1   1.00000     0.00000
 Structure written by MMmdl.
 46 47  0  0  0  0  0  0  0  0  2 V2000
  143.6025  132.1577  150.2015 C   0  0  0  0  0  0  0  0  0  0  0  0
  144.5127  133.0765  150.9418 C   0  0  0  0  0  0  0  0  0  0  0  0
  144.9591  134.3439  150.6932 C   0  0  0  0  0  0  0  0  0  0  0  0
  145.8014  134.6098  151.8053 C   0  0  0  0  0  0  0  0  0  0  0  0
  146.4804  135.8492  151.9253 N   0  0  0  0  0  0  0  0  0  0  0  0
  145.9352  137.0690  152.0718 C   0  0  0  0  0  0  0  0  0  0  0  0
  144.7279  137.3091  152.1053 O   0  0  0  0  0  0  0  0  0  0  0  0
  146.8770  138.0167  152.1854 N   0  0  0  0  0  0  0  0  0  0  0  0
  146.6052  139.4394  152.3688 C   0  0  0  0  0  0  0  0  0  0  0  0
  146.9422  139.9446  153.7968 C   0  0  1  0  0  0  0  0  0  0  0  0
  148.4078  140.4395  153.8558 C   0  0  0  0  0  0  0  0  0  0  0  0
  145.9388  140.9727  154.2260 N   0  3  1  0  0  0  0  0  0  0  0  0
  145.7643  141.0066  155.7032 C   0  0  0  0  0  0  0  0  0  0  0  0
  144.6433  141.9754  156.1237 C   0  0  2  0  0  0  0  0  0  0  0  0
  143.2289  141.4565  155.8090 C   0  0  0  0  0  0  0  0  0  0  0  0
  144.8852  143.2684  155.5744 O   0  0  0  0  0  0  0  0  0  0  0  0
  145.0219  143.2932  154.1580 C   0  0  1  0  0  0  0  0  0  0  0  0
  145.2800  144.7444  153.7370 C   0  0  0  0  0  0  0  0  0  0  0  0
  146.1649  142.3557  153.7258 C   0  0  0  0  0  0  0  0  0  0  0  0
  145.8619  133.5976  152.6569 N   0  0  0  0  0  0  0  0  0  0  0  0
  145.0359  132.6098  152.1078 O   0  0  0  0  0  0  0  0  0  0  0  0
  143.2217  132.6318  149.2966 H   0  0  0  0  0  0  0  0  0  0  0  0
  142.7505  131.8759  150.8201 H   0  0  0  0  0  0  0  0  0  0  0  0
  144.1264  131.2470  149.9108 H   0  0  0  0  0  0  0  0  0  0  0  0
  144.7211  134.9743  149.8495 H   0  0  0  0  0  0  0  0  0  0  0  0
  147.4883  135.7989  151.9096 H   0  0  0  0  0  0  0  0  0  0  0  0
  147.8460  137.7360  152.1459 H   0  0  0  0  0  0  0  0  0  0  0  0
  147.1975  139.9888  151.6365 H   0  0  0  0  0  0  0  0  0  0  0  0
  145.5634  139.6220  152.1069 H   0  0  0  0  0  0  0  0  0  0  0  0
  146.8703  139.1081  154.4940 H   0  0  0  0  0  0  0  0  0  0  0  0
  149.1055  139.6740  153.5170 H   0  0  0  0  0  0  0  0  0  0  0  0
  148.7146  140.6873  154.8721 H   0  0  0  0  0  0  0  0  0  0  0  0
  148.5585  141.3179  153.2276 H   0  0  0  0  0  0  0  0  0  0  0  0
  145.5481  140.0172  156.1027 H   0  0  0  0  0  0  0  0  0  0  0  0
  146.7030  141.3232  156.1609 H   0  0  0  0  0  0  0  0  0  0  0  0
  144.6992  142.0956  157.2061 H   0  0  0  0  0  0  0  0  0  0  0  0
  143.0253  140.5356  156.3558 H   0  0  0  0  0  0  0  0  0  0  0  0
  143.0917  141.2391  154.7501 H   0  0  0  0  0  0  0  0  0  0  0  0
  142.4734  142.1860  156.1020 H   0  0  0  0  0  0  0  0  0  0  0  0
  144.0901  142.9705  153.6931 H   0  0  0  0  0  0  0  0  0  0  0  0
  145.3841  144.8279  152.6550 H   0  0  0  0  0  0  0  0  0  0  0  0
  146.1921  145.1321  154.1917 H   0  0  0  0  0  0  0  0  0  0  0  0
  144.4565  145.3909  154.0411 H   0  0  0  0  0  0  0  0  0  0  0  0
  147.1232  142.7253  154.0946 H   0  0  0  0  0  0  0  0  0  0  0  0
  146.2027  142.3734  152.6371 H   0  0  0  0  0  0  0  0  0  0  0  0
  145.0558  140.6815  153.8316 H   0  0  0  0  0  0  0  0  0  0  0  0
  1  2  1  0  0  0  0
  1 22  1  0  0  0  0
  1 23  1  0  0  0  0
  1 24  1  0  0  0  0
  2 21  1  0  0  0  0
  2  3  2  0  0  0  0
  3  4  1  0  0  0  0
  3 25  1  0  0  0  0
  4  5  1  0  0  0  0
  4 20  2  0  0  0  0
  5  6  1  0  0  0  0
  5 26  1  0  0  0  0
  6  7  2  0  0  0  0
  6  8  1  0  0  0  0
  8  9  1  0  0  0  0
  8 27  1  0  0  0  0
  9 10  1  0  0  0  0
  9 28  1  0  0  0  0
  9 29  1  0  0  0  0
 10 11  1  0  0  0  0
 10 12  1  0  0  0  0
 10 30  1  0  0  0  0
 11 31  1  0  0  0  0
 11 32  1  0  0  0  0
 11 33  1  0  0  0  0
 12 19  1  0  0  0  0
 12 13  1  0  0  0  0
 12 46  1  0  0  0  0
 13 14  1  0  0  0  0
 13 34  1  0  0  0  0
 13 35  1  0  0  0  0
 14 15  1  0  0  0  0
 14 16  1  0  0  0  0
 14 36  1  0  0  0  0
 15 37  1  0  0  0  0
 15 38  1  0  0  0  0
 15 39  1  0  0  0  0
 16 17  1  0  0  0  0
 17 18  1  0  0  0  0
 17 19  1  0  0  0  0
 17 40  1  0  0  0  0
 18 41  1  0  0  0  0
 18 42  1  0  0  0  0
 18 43  1  0  0  0  0
 19 44  1  0  0  0  0
 19 45  1  0  0  0  0
 20 21  1  0  0  0  0
M  CHG  1  12   1
M  END
> <s_m_source_file>
AV-unprocessed.smi

> <i_m_source_file_index>
2061

> <i_lp_mmshare_version>
43012

> <i_f3d_flags>
0

> <s_epik_input>
W0NIM11jMVtjSF1jKG5vMSlbTkhdQyg9TylbTkhdW0NIMl1bQ0BIXShbQ0gzXSlOMltDSDJdW0NAQEhdKFtDSDNdKU9bQ0BASF0oW0NIM10pW0NIMl0y

> <s_epik_cmdline>
J2VwaWtfcHl0aG9uJywgJy1waCcsICc3LjAnLCAnLXRuJywgJzgnLCAnLW1hJywgJzIwMCcsICctbWV0YWxfYmluZGluZycsICctaW1hZScsICc8aW5maWxlLm1hZT4nLCAnLW9tYWUnLCAnPG91dGZpbGUubWFlPic=

> <r_epik_Ionization_Penalty>
0.707076

> <r_epik_Ionization_Penalty_Charging>
0.707039

> <r_epik_Ionization_Penalty_Neutral>
3.6548e-05

> <r_epik_State_Penalty>
0.730276

> <r_epik_Charging_Adjusted_Penalty>
1.43732

> <i_epik_Tot_Q>
1

> <i_epik_Tot_abs_Q>
1

> <r_epik_Metal_State_Penalty>
0.743132

> <b_epik_Metal_Only>
0

> <s_lp_Force_Field>
OPLS_2005

> <r_lp_Energy>
19.7872

> <b_lp_Chiralities_Consistent>
1

> <s_lp_Variant>
AV-unprocessed.smi:2061-10

> <Gold.Version>
5.8.1

> <Gold.Id.Protein>
6NUR|6NUR_protein|mol2

> <Gold.PLP.Fitness>
35.8382

> <Gold.PLP.PLP>
-27.3588

> <Gold.PLP.part.hbond>
-2.9136

> <Gold.PLP.part.metal>
0.0000

> <Gold.PLP.part.buried>
-2.6014

> <Gold.PLP.part.nonpolar>
-25.0302

> <Gold.PLP.part.repulsive>
2.3289

> <Gold.PLP.ligand.clash>
0.0000

> <Gold.PLP.ligand.torsion>
1.5919

> <Gold.PLP.Chemscore.Hbond>
3.8713

> <Gold.PLP.Chemscore.CHOScore>
0.0000

> <Gold.PLP.Chemscore.Metal>
0.0000

> <Gold.Chemscore.Hbonds>
donor molecule, donor type, donor heavy atom, donor atom, acceptor molecule, acceptor atom, score
      L1  H     5    26       P1  7948  0.93
      L1  H     8    27       P1  7948  0.85
      L1  H    12    46       P1 10175  2.00

> <Gold.PLP.Chemscore.Internal.Correction>
0.0494

> <Gold.Rescore>
     Score         DG    S(hbond)    S(metal)    S(lipo)     H(rot)  DE(clash)    DE(int)     intcor
     15.33     -19.51       2.84        0.00      73.41       1.58       2.61       1.56       ----

> <Gold.Chemscore.Fitness>
15.3310

> <Gold.Chemscore.DG>
-19.5064

> <Gold.Chemscore.ZeroCoef>
-5.4800

> <Gold.Chemscore.Hbond>
2.8417

> <Gold.Chemscore.Metal>
0.0000

> <Gold.Chemscore.Lipo>
73.4053

> <Gold.Chemscore.Internal_Hbond>
0.0000

> <Gold.Chemscore.DEClash>
2.6143

> <Gold.Chemscore.DEInternal>
1.5611

> <Gold.Chemscore.Rot>
1.5834

> <Gold.Chemscore.Internal.Correction>
   9.000000E+99

> <Gold.Chemscore.Hbonds>
donor molecule, donor type, donor heavy atom, donor atom, acceptor molecule, acceptor atom, score
      L1  H     5    26       P1  7948  0.88
      L1  H     8    27       P1  7948  0.85
      L1  H    12    46       P1 10175  0.96

> <Gold.Chemscore.Hbond.Weighted>
-9.4914

> <Gold.Chemscore.Metal.Weighted>
-0.0000

> <Gold.Chemscore.Lipo.Weighted>
-8.5884

> <Gold.Chemscore.Internal_Hbond.Weighted>
0.0000

> <Gold.Chemscore.DEClash.Weighted>
2.6143

> <Gold.Chemscore.DEInternal.Weighted>
1.5611

> <Gold.Chemscore.Rot.Weighted>
4.0535

> <Gold.Chemscore.Internal.Correction.Weighted>
   9.000000E+99

> <Gold.Protein.RotatedTorsions>
[ 6907 6896 6895 6894 ] final   51.64 input  -60.11 | X-H torsion
[ 7974 7965 7964 7962 ] final    4.59 input  175.53 | X-H torsion
[ 8008 7997 7996 7995 ] final  -67.78 input   59.86 | X-H torsion
[ 10167 10162 10161 10158 ] final  -72.08 input  -65.29 | X-H torsion
[ 10718 10713 10712 10709 ] final  -78.21 input   66.30 | X-H torsion
[ 10763 10752 10751 10750 ] final   98.67 input  -60.55 | X-H torsion
[ 11005 11000 10999 10996 ] final -168.23 input  -57.11 | X-H torsion

> <Gold.Protein.ActiveResidues>
 VAL166  LYS551  ARG553  GLY616  TRP617  ASP618  TYR619  PRO620  LYS621  CYS622 
 ASP623  PHE694  ASN695  SER759  ASP760  ASP761  ALA762  ILE779  LEU786  VAL792 
 PHE793  MET794  SER795  GLU796  ALA797  LYS798  CYS799  TRP800  GLU811  SER814 

> <Gold.Protein.RotatedAtoms>
  152.3148  134.7453  160.0327 H   0  0  0  0  0  0  0  0  0  0  0  0  # atno 6907 bound_to 6896
  151.7922  133.3355  159.3510 H   0  0  0  0  0  0  0  0  0  0  0  0  # atno 6908 bound_to 6896
  150.7338  134.5762  159.5960 H   0  0  0  0  0  0  0  0  0  0  0  0  # atno 6909 bound_to 6896
  146.2443  140.0511  142.8375 H   0  0  0  0  0  0  0  0  0  0  0  0  # atno 7974 bound_to 7965
  154.4823  140.0886  156.7405 H   0  0  0  0  0  0  0  0  0  0  0  0  # atno 8008 bound_to 7997
  155.4440  140.3455  155.4275 H   0  0  0  0  0  0  0  0  0  0  0  0  # atno 8009 bound_to 7997
  156.1209  140.1474  156.9194 H   0  0  0  0  0  0  0  0  0  0  0  0  # atno 8010 bound_to 7997
  140.5221  143.2330  151.7411 H   0  0  0  0  0  0  0  0  0  0  0  0  # atno 10167 bound_to 10162
  156.0123  130.4512  150.3462 H   0  0  0  0  0  0  0  0  0  0  0  0  # atno 10718 bound_to 10713
  153.2919  135.4140  155.1174 H   0  0  0  0  0  0  0  0  0  0  0  0  # atno 10763 bound_to 10752
  154.8523  135.3520  154.5969 H   0  0  0  0  0  0  0  0  0  0  0  0  # atno 10764 bound_to 10752
  153.6392  135.7057  153.5305 H   0  0  0  0  0  0  0  0  0  0  0  0  # atno 10765 bound_to 10752
  140.5443  134.5491  157.5107 H   0  0  0  0  0  0  0  0  0  0  0  0  # atno 11005 bound_to 11000
  145.0983  140.9329  143.4727 LP  0  0  0  0  0  0  0  0  0  0  0  0  # atno 17320 bound_to 7965
  145.0698  139.3040  143.5837 LP  0  0  0  0  0  0  0  0  0  0  0  0  # atno 17321 bound_to 7965
  139.4926  144.4239  151.9947 LP  0  0  0  0  0  0  0  0  0  0  0  0  # atno 17342 bound_to 10162
  140.3336  144.3286  150.5982 LP  0  0  0  0  0  0  0  0  0  0  0  0  # atno 17343 bound_to 10162
  157.1556  131.0332  151.2865 LP  0  0  0  0  0  0  0  0  0  0  0  0  # atno 17370 bound_to 10713
  157.4355  130.7514  149.7025 LP  0  0  0  0  0  0  0  0  0  0  0  0  # atno 17371 bound_to 10713
  139.9487  134.7655  156.0499 LP  0  0  0  0  0  0  0  0  0  0  0  0  # atno 17394 bound_to 11000
  141.1209  133.6613  156.3211 LP  0  0  0  0  0  0  0  0  0  0  0  0  # atno 17395 bound_to 11000

$$$$
