AV-unprocessed.smi:1554|AV-procd|sdf|6258|dock7
  -GOLD-   22720 6443D 1   1.00000     0.00000
 Structure written by MMmdl.
 49 51  0  0  0  0  0  0  0  0  3 V2000
  152.4571  142.6192  160.8698 C   0  0  0  0  0  0  0  0  0  0  0  0
  152.1337  141.9623  159.5385 C   0  0  0  0  0  0  0  0  0  0  0  0
  151.2424  142.6200  158.6607 C   0  0  0  0  0  0  0  0  0  0  0  0
  150.9703  141.9966  157.4487 C   0  0  0  0  0  0  0  0  0  0  0  0
  150.1519  142.3804  156.3840 N   0  3  0  0  0  0  0  0  0  0  0  0
  150.2093  141.4376  155.4030 C   0  0  0  0  0  0  0  0  0  0  0  0
  151.0550  140.4580  155.8250 N   0  0  0  0  0  0  0  0  0  0  0  0
  151.4806  139.2201  155.1580 C   0  0  0  0  0  0  0  0  0  0  0  0
  150.3275  138.2119  154.9847 C   0  0  2  0  0  0  0  0  0  0  0  0
  150.7610  137.1511  154.1550 O   0  0  0  0  0  0  0  0  0  0  0  0
  149.0785  138.8625  154.3571 C   0  0  0  0  0  0  0  0  0  0  0  0
  148.0706  137.8566  153.9238 N   0  3  2  0  0  0  0  0  0  0  0  0
  146.8749  138.4502  153.2772 C   0  0  0  0  0  0  0  0  0  0  0  0
  145.9092  139.0348  154.3233 C   0  0  0  0  0  0  0  0  0  0  0  0
  145.5404  138.0172  155.2464 O   0  0  0  0  0  0  0  0  0  0  0  0
  146.6557  137.5031  155.9664 C   0  0  1  0  0  0  0  0  0  0  0  0
  146.1384  136.4712  156.9744 C   0  0  0  0  0  0  0  0  0  0  0  0
  147.6642  136.8853  154.9729 C   0  0  0  0  0  0  0  0  0  0  0  0
  151.5498  140.7621  157.0975 C   0  0  0  0  0  0  0  0  0  0  0  0
  152.4267  140.0985  157.9520 C   0  0  0  0  0  0  0  0  0  0  0  0
  152.7173  140.7169  159.1889 C   0  0  0  0  0  0  0  0  0  0  0  0
  153.6725  140.0176  160.1413 C   0  0  0  0  0  0  0  0  0  0  0  0
  151.9202  143.5603  160.9915 H   0  0  0  0  0  0  0  0  0  0  0  0
  153.5238  142.8328  160.9413 H   0  0  0  0  0  0  0  0  0  0  0  0
  152.1779  141.9668  161.6973 H   0  0  0  0  0  0  0  0  0  0  0  0
  150.7938  143.5678  158.9207 H   0  0  0  0  0  0  0  0  0  0  0  0
  149.6833  141.4661  154.4595 H   0  0  0  0  0  0  0  0  0  0  0  0
  151.9177  139.4850  154.1944 H   0  0  0  0  0  0  0  0  0  0  0  0
  152.2843  138.7840  155.7534 H   0  0  0  0  0  0  0  0  0  0  0  0
  150.0834  137.7943  155.9603 H   0  0  0  0  0  0  0  0  0  0  0  0
  150.0708  136.9413  153.5441 H   0  0  0  0  0  0  0  0  0  0  0  0
  148.6260  139.5640  155.0579 H   0  0  0  0  0  0  0  0  0  0  0  0
  149.3957  139.4593  153.5006 H   0  0  0  0  0  0  0  0  0  0  0  0
  147.1644  139.2073  152.5476 H   0  0  0  0  0  0  0  0  0  0  0  0
  146.3642  137.6664  152.7160 H   0  0  0  0  0  0  0  0  0  0  0  0
  146.3567  139.8799  154.8486 H   0  0  0  0  0  0  0  0  0  0  0  0
  145.0091  139.4069  153.8340 H   0  0  0  0  0  0  0  0  0  0  0  0
  147.1237  138.3148  156.5248 H   0  0  0  0  0  0  0  0  0  0  0  0
  146.9551  136.0570  157.5663 H   0  0  0  0  0  0  0  0  0  0  0  0
  145.6357  135.6441  156.4721 H   0  0  0  0  0  0  0  0  0  0  0  0
  145.4257  136.9240  157.6640 H   0  0  0  0  0  0  0  0  0  0  0  0
  147.2016  136.0322  154.4744 H   0  0  0  0  0  0  0  0  0  0  0  0
  148.5299  136.4904  155.5027 H   0  0  0  0  0  0  0  0  0  0  0  0
  152.8711  139.1511  157.6857 H   0  0  0  0  0  0  0  0  0  0  0  0
  154.0414  139.0815  159.7210 H   0  0  0  0  0  0  0  0  0  0  0  0
  153.1729  139.7859  161.0823 H   0  0  0  0  0  0  0  0  0  0  0  0
  154.5351  140.6500  160.3529 H   0  0  0  0  0  0  0  0  0  0  0  0
  148.5347  137.3230  153.2019 H   0  0  0  0  0  0  0  0  0  0  0  0
  149.5958  143.2243  156.3277 H   0  0  0  0  0  0  0  0  0  0  0  0
  1  2  1  0  0  0  0
  1 23  1  0  0  0  0
  1 24  1  0  0  0  0
  1 25  1  0  0  0  0
  2 21  1  0  0  0  0
  2  3  2  0  0  0  0
  3  4  1  0  0  0  0
  3 26  1  0  0  0  0
  4 19  2  0  0  0  0
  4  5  1  0  0  0  0
  5  6  2  0  0  0  0
  5 49  1  0  0  0  0
  6  7  1  0  0  0  0
  6 27  1  0  0  0  0
  7  8  1  0  0  0  0
  7 19  1  0  0  0  0
  8  9  1  0  0  0  0
  8 28  1  0  0  0  0
  8 29  1  0  0  0  0
  9 10  1  0  0  0  0
  9 11  1  0  0  0  0
  9 30  1  0  0  0  0
 10 31  1  0  0  0  0
 11 12  1  0  0  0  0
 11 32  1  0  0  0  0
 11 33  1  0  0  0  0
 12 18  1  0  0  0  0
 12 13  1  0  0  0  0
 12 48  1  0  0  0  0
 13 14  1  0  0  0  0
 13 34  1  0  0  0  0
 13 35  1  0  0  0  0
 14 15  1  0  0  0  0
 14 36  1  0  0  0  0
 14 37  1  0  0  0  0
 15 16  1  0  0  0  0
 16 17  1  0  0  0  0
 16 18  1  0  0  0  0
 16 38  1  0  0  0  0
 17 39  1  0  0  0  0
 17 40  1  0  0  0  0
 17 41  1  0  0  0  0
 18 42  1  0  0  0  0
 18 43  1  0  0  0  0
 19 20  1  0  0  0  0
 20 21  2  0  0  0  0
 20 44  1  0  0  0  0
 21 22  1  0  0  0  0
 22 45  1  0  0  0  0
 22 46  1  0  0  0  0
 22 47  1  0  0  0  0
M  CHG  1   5   1
M  CHG  1  12   1
M  END
> <s_m_source_file>
AV-unprocessed.smi

> <i_m_source_file_index>
1554

> <i_lp_mmshare_version>
43012

> <i_f3d_flags>
0

> <s_epik_input>
W0NIM11jKFtjSF0xKWMoW0NIM10pW2NIXWMoYzEyKW4oW2NIXW4yKVtDSDJdW0NASF0oW09IXSlbQ0gyXU4zW0NIMl1bQ0gyXU9bQ0BASF0oW0NIM10pW0NIMl0z

> <s_epik_cmdline>
J2VwaWtfcHl0aG9uJywgJy1waCcsICc3LjAnLCAnLXRuJywgJzgnLCAnLW1hJywgJzIwMCcsICctbWV0YWxfYmluZGluZycsICctaW1hZScsICc8aW5maWxlLm1hZT4nLCAnLW9tYWUnLCAnPG91dGZpbGUubWFlPic=

> <r_epik_Ionization_Penalty>
1.8848

> <r_epik_Ionization_Penalty_Charging>
1.88479

> <r_epik_Ionization_Penalty_Neutral>
1.42224e-05

> <r_epik_State_Penalty>
1.94551

> <r_epik_Charging_Adjusted_Penalty>
3.8303

> <i_epik_Tot_Q>
2

> <i_epik_Tot_abs_Q>
2

> <r_epik_Metal_State_Penalty>
5.95849

> <b_epik_Metal_Only>
0

> <s_lp_Force_Field>
OPLS_2005

> <r_lp_Energy>
31.481

> <b_lp_Chiralities_Consistent>
1

> <s_lp_Variant>
AV-unprocessed.smi:1554-19

> <Gold.Version>
5.8.1

> <Gold.Id.Protein>
6NUR|6NUR_protein|mol2

> <Gold.PLP.Fitness>
51.4481

> <Gold.PLP.PLP>
-37.0069

> <Gold.PLP.part.hbond>
-4.0000

> <Gold.PLP.part.metal>
0.0000

> <Gold.PLP.part.buried>
-3.4567

> <Gold.PLP.part.nonpolar>
-29.5400

> <Gold.PLP.part.repulsive>
0.1141

> <Gold.PLP.ligand.clash>
0.0000

> <Gold.PLP.ligand.torsion>
0.1804

> <Gold.PLP.Chemscore.Hbond>
4.9262

> <Gold.PLP.Chemscore.CHOScore>
0.0000

> <Gold.PLP.Chemscore.Metal>
0.0000

> <Gold.Chemscore.Hbonds>
donor molecule, donor type, donor heavy atom, donor atom, acceptor molecule, acceptor atom, score
      L1  H     5    49       P1  8028  2.00
      L1  H    10    31       P1  7948  0.79
      L1  H    12    48       P1  7948  2.00

> <Gold.PLP.Chemscore.Internal.Correction>
0.0233

> <Gold.Rescore>
     Score         DG    S(hbond)    S(metal)    S(lipo)     H(rot)  DE(clash)    DE(int)     intcor
     17.72     -19.24       2.61        0.00      89.31       2.11       0.14       1.38       ----

> <Gold.Chemscore.Fitness>
17.7189

> <Gold.Chemscore.DG>
-19.2388

> <Gold.Chemscore.ZeroCoef>
-5.4800

> <Gold.Chemscore.Hbond>
2.6100

> <Gold.Chemscore.Metal>
0.0000

> <Gold.Chemscore.Lipo>
89.3058

> <Gold.Chemscore.Internal_Hbond>
0.0000

> <Gold.Chemscore.DEClash>
0.1370

> <Gold.Chemscore.DEInternal>
1.3829

> <Gold.Chemscore.Rot>
2.1122

> <Gold.Chemscore.Internal.Correction>
   9.000000E+99

> <Gold.Chemscore.Hbonds>
donor molecule, donor type, donor heavy atom, donor atom, acceptor molecule, acceptor atom, score
      L1  H     5    49       P1  8028  1.00
      L1  H    10    31       P1  7948  0.18
      L1  H    12    48       P1  7948  1.00

> <Gold.Chemscore.Hbond.Weighted>
-8.7173

> <Gold.Chemscore.Metal.Weighted>
-0.0000

> <Gold.Chemscore.Lipo.Weighted>
-10.4488

> <Gold.Chemscore.Internal_Hbond.Weighted>
0.0000

> <Gold.Chemscore.DEClash.Weighted>
0.1370

> <Gold.Chemscore.DEInternal.Weighted>
1.3829

> <Gold.Chemscore.Rot.Weighted>
5.4073

> <Gold.Chemscore.Internal.Correction.Weighted>
   9.000000E+99

> <Gold.Protein.RotatedTorsions>
[ 6907 6896 6895 6894 ] final  109.55 input  -60.11 | X-H torsion
[ 7974 7965 7964 7962 ] final  -95.23 input  175.53 | X-H torsion
[ 8008 7997 7996 7995 ] final -143.62 input   59.86 | X-H torsion
[ 10167 10162 10161 10158 ] final   60.12 input  -65.29 | X-H torsion
[ 10718 10713 10712 10709 ] final  -59.12 input   66.30 | X-H torsion
[ 10763 10752 10751 10750 ] final -155.40 input  -60.55 | X-H torsion
[ 11005 11000 10999 10996 ] final  -21.44 input  -57.11 | X-H torsion

> <Gold.Protein.ActiveResidues>
 VAL166  LYS551  ARG553  GLY616  TRP617  ASP618  TYR619  PRO620  LYS621  CYS622 
 ASP623  PHE694  ASN695  SER759  ASP760  ASP761  ALA762  ILE779  LEU786  VAL792 
 PHE793  MET794  SER795  GLU796  ALA797  LYS798  CYS799  TRP800  GLU811  SER814 

> <Gold.Protein.RotatedAtoms>
  152.5062  133.8928  159.7402 H   0  0  0  0  0  0  0  0  0  0  0  0  # atno 6907 bound_to 6896
  150.9363  133.6700  159.2807 H   0  0  0  0  0  0  0  0  0  0  0  0  # atno 6908 bound_to 6896
  151.4027  135.0978  159.9613 H   0  0  0  0  0  0  0  0  0  0  0  0  # atno 6909 bound_to 6896
  145.3628  140.9494  143.2491 H   0  0  0  0  0  0  0  0  0  0  0  0  # atno 7974 bound_to 7965
  155.5135  140.0585  157.2919 H   0  0  0  0  0  0  0  0  0  0  0  0  # atno 8008 bound_to 7997
  154.4543  140.1965  156.0373 H   0  0  0  0  0  0  0  0  0  0  0  0  # atno 8009 bound_to 7997
  156.0768  140.3252  155.7647 H   0  0  0  0  0  0  0  0  0  0  0  0  # atno 8010 bound_to 7997
  140.1690  144.4295  150.6671 H   0  0  0  0  0  0  0  0  0  0  0  0  # atno 10167 bound_to 10162
  156.1084  130.4178  150.0672 H   0  0  0  0  0  0  0  0  0  0  0  0  # atno 10718 bound_to 10713
  154.7789  135.3168  154.8031 H   0  0  0  0  0  0  0  0  0  0  0  0  # atno 10763 bound_to 10752
  153.8748  135.6841  153.4776 H   0  0  0  0  0  0  0  0  0  0  0  0  # atno 10764 bound_to 10752
  153.1421  135.4735  154.9447 H   0  0  0  0  0  0  0  0  0  0  0  0  # atno 10765 bound_to 10752
  140.8561  133.7822  156.0021 H   0  0  0  0  0  0  0  0  0  0  0  0  # atno 11005 bound_to 11000
  144.8634  139.5144  143.6802 LP  0  0  0  0  0  0  0  0  0  0  0  0  # atno 17320 bound_to 7965
  146.2920  139.7166  142.9154 LP  0  0  0  0  0  0  0  0  0  0  0  0  # atno 17321 bound_to 7965
  140.6594  143.2247  151.5892 LP  0  0  0  0  0  0  0  0  0  0  0  0  # atno 17342 bound_to 10162
  139.5346  144.2817  152.1224 LP  0  0  0  0  0  0  0  0  0  0  0  0  # atno 17343 bound_to 10162
  156.8641  130.9502  151.3615 LP  0  0  0  0  0  0  0  0  0  0  0  0  # atno 17370 bound_to 10713
  157.6263  130.8694  149.9196 LP  0  0  0  0  0  0  0  0  0  0  0  0  # atno 17371 bound_to 10713
  140.8736  134.2697  157.5179 LP  0  0  0  0  0  0  0  0  0  0  0  0  # atno 17394 bound_to 11000
  139.8705  134.9579  156.4285 LP  0  0  0  0  0  0  0  0  0  0  0  0  # atno 17395 bound_to 11000

$$$$
