AV-unprocessed.smi:2283|AV-procd|sdf|9200|dock2
  -GOLD-   2272012413D 1   1.00000     0.00000
 Structure written by MMmdl.
 37 38  0  0  0  0  0  0  0  0  1 V2000
  150.0930  145.0189  159.7407 C   0  0  0  0  0  0  0  0  0  0  0  0
  151.2681  144.1010  160.0327 C   0  0  0  0  0  0  0  0  0  0  0  0
  151.8676  144.1585  161.3097 C   0  0  0  0  0  0  0  0  0  0  0  0
  152.9483  143.3179  161.6322 C   0  0  0  0  0  0  0  0  0  0  0  0
  153.4362  142.4082  160.6783 C   0  0  0  0  0  0  0  0  0  0  0  0
  152.8464  142.3453  159.4025 C   0  0  0  0  0  0  0  0  0  0  0  0
  151.7663  143.1924  159.0610 C   0  0  0  0  0  0  0  0  0  0  0  0
  151.1485  143.0888  157.6665 C   0  0  1  0  0  0  0  0  0  0  0  0
  151.1390  144.3410  157.0089 O   0  0  0  0  0  0  0  0  0  0  0  0
  151.9263  142.0735  156.7984 C   0  0  0  0  0  0  0  0  0  0  0  0
  151.0344  141.2205  155.9928 N   0  0  0  0  0  0  0  0  0  0  0  0
  149.7590  141.7400  155.7138 C   0  0  0  0  0  0  0  0  0  0  0  0
  148.8957  141.0833  155.0106 N   0  0  0  0  0  0  0  0  0  0  0  0
  149.2235  139.8219  154.5057 C   0  0  0  0  0  0  0  0  0  0  0  0
  148.1385  139.1392  153.6918 C   0  0  0  0  0  0  0  0  0  0  0  0
  150.4413  139.2613  154.7401 C   0  0  0  0  0  0  0  0  0  0  0  0
  150.8541  137.8917  154.2154 C   0  0  0  0  0  0  0  0  0  0  0  0
  151.4339  139.9967  155.5408 C   0  0  0  0  0  0  0  0  0  0  0  0
  152.5532  139.5458  155.7911 O   0  0  0  0  0  0  0  0  0  0  0  0
  149.7766  145.5562  160.6352 H   0  0  0  0  0  0  0  0  0  0  0  0
  149.2383  144.4468  159.3804 H   0  0  0  0  0  0  0  0  0  0  0  0
  150.3639  145.7577  158.9861 H   0  0  0  0  0  0  0  0  0  0  0  0
  151.4978  144.8492  162.0534 H   0  0  0  0  0  0  0  0  0  0  0  0
  153.3995  143.3681  162.6123 H   0  0  0  0  0  0  0  0  0  0  0  0
  154.2619  141.7569  160.9248 H   0  0  0  0  0  0  0  0  0  0  0  0
  153.2298  141.6353  158.6843 H   0  0  0  0  0  0  0  0  0  0  0  0
  150.1059  142.7860  157.7506 H   0  0  0  0  0  0  0  0  0  0  0  0
  150.2856  144.4710  156.6241 H   0  0  0  0  0  0  0  0  0  0  0  0
  152.6699  142.5853  156.1846 H   0  0  0  0  0  0  0  0  0  0  0  0
  152.5193  141.4294  157.4514 H   0  0  0  0  0  0  0  0  0  0  0  0
  149.5547  142.7290  156.1273 H   0  0  0  0  0  0  0  0  0  0  0  0
  148.4873  138.9444  152.6773 H   0  0  0  0  0  0  0  0  0  0  0  0
  147.2432  139.7583  153.6236 H   0  0  0  0  0  0  0  0  0  0  0  0
  147.8552  138.1921  154.1518 H   0  0  0  0  0  0  0  0  0  0  0  0
  151.1020  137.2296  155.0457 H   0  0  0  0  0  0  0  0  0  0  0  0
  151.7360  137.9834  153.5804 H   0  0  0  0  0  0  0  0  0  0  0  0
  150.0779  137.4043  153.6281 H   0  0  0  0  0  0  0  0  0  0  0  0
  1  2  1  0  0  0  0
  1 20  1  0  0  0  0
  1 21  1  0  0  0  0
  1 22  1  0  0  0  0
  2  7  1  0  0  0  0
  2  3  2  0  0  0  0
  3  4  1  0  0  0  0
  3 23  1  0  0  0  0
  4  5  2  0  0  0  0
  4 24  1  0  0  0  0
  5  6  1  0  0  0  0
  5 25  1  0  0  0  0
  6  7  2  0  0  0  0
  6 26  1  0  0  0  0
  7  8  1  0  0  0  0
  8  9  1  0  0  0  0
  8 10  1  0  0  0  0
  8 27  1  0  0  0  0
  9 28  1  0  0  0  0
 10 11  1  0  0  0  0
 10 29  1  0  0  0  0
 10 30  1  0  0  0  0
 11 18  1  0  0  0  0
 11 12  1  0  0  0  0
 12 13  2  0  0  0  0
 12 31  1  0  0  0  0
 13 14  1  0  0  0  0
 14 15  1  0  0  0  0
 14 16  2  0  0  0  0
 15 32  1  0  0  0  0
 15 33  1  0  0  0  0
 15 34  1  0  0  0  0
 16 17  1  0  0  0  0
 16 18  1  0  0  0  0
 17 35  1  0  0  0  0
 17 36  1  0  0  0  0
 17 37  1  0  0  0  0
 18 19  2  0  0  0  0
M  END
> <s_m_source_file>
AV-unprocessed.smi

> <i_m_source_file_index>
2283

> <i_lp_mmshare_version>
43012

> <i_f3d_flags>
0

> <s_epik_input>
W0NIM11jMVtjSF1bY0hdW2NIXVtjSF1jMVtDQEhdKFtPSF0pW0NIMl1uMltjSF1uYyhbQ0gzXSljKFtDSDNdKWMyPU8=

> <s_epik_cmdline>
J2VwaWtfcHl0aG9uJywgJy1waCcsICc3LjAnLCAnLXRuJywgJzgnLCAnLW1hJywgJzIwMCcsICctbWV0YWxfYmluZGluZycsICctaW1hZScsICc8aW5maWxlLm1hZT4nLCAnLW9tYWUnLCAnPG91dGZpbGUubWFlPic=

> <r_lp_tautomer_probability>
1

> <r_epik_Ionization_Penalty>
5.07259e-05

> <r_epik_Ionization_Penalty_Charging>
7.56727e-08

> <r_epik_Ionization_Penalty_Neutral>
5.06502e-05

> <r_epik_State_Penalty>
-0

> <r_epik_Charging_Adjusted_Penalty>
7.56727e-08

> <i_epik_Tot_Q>
0

> <i_epik_Tot_abs_Q>
0

> <r_epik_Metal_State_Penalty>
-0

> <b_epik_Metal_Only>
0

> <s_lp_Force_Field>
OPLS_2005

> <r_lp_Energy>
21.1785

> <b_lp_Chiralities_Consistent>
1

> <s_lp_Variant>
AV-unprocessed.smi:2283-2

> <Gold.Version>
5.8.1

> <Gold.Id.Protein>
6NUR|6NUR_protein|mol2

> <Gold.PLP.Fitness>
50.3954

> <Gold.PLP.PLP>
-43.2392

> <Gold.PLP.part.hbond>
-2.0000

> <Gold.PLP.part.metal>
0.0000

> <Gold.PLP.part.buried>
-4.7444

> <Gold.PLP.part.nonpolar>
-37.1730

> <Gold.PLP.part.repulsive>
0.1186

> <Gold.PLP.ligand.clash>
0.0000

> <Gold.PLP.ligand.torsion>
0.9270

> <Gold.PLP.Chemscore.Hbond>
2.0000

> <Gold.PLP.Chemscore.CHOScore>
1.0000

> <Gold.PLP.Chemscore.Metal>
0.0000

> <Gold.Chemscore.Hbonds>
donor molecule, donor type, donor heavy atom, donor atom, acceptor molecule, acceptor atom, score
      L1  H     9    28       P1  8028  1.00
      P1  H  7997  8009       L1    19  1.00
      L1  C    12    31       P1  8028  1.00

> <Gold.PLP.Chemscore.Internal.Correction>
0.0102

> <Gold.Rescore>
     Score         DG    S(hbond)    S(metal)    S(lipo)     H(rot)  DE(clash)    DE(int)     intcor
     18.82     -21.02       1.98        0.00     117.94       1.91       1.42       0.79       ----

> <Gold.Chemscore.Fitness>
18.8205

> <Gold.Chemscore.DG>
-21.0245

> <Gold.Chemscore.ZeroCoef>
-5.4800

> <Gold.Chemscore.Hbond>
1.9836

> <Gold.Chemscore.Metal>
0.0000

> <Gold.Chemscore.Lipo>
117.9402

> <Gold.Chemscore.Internal_Hbond>
0.0000

> <Gold.Chemscore.DEClash>
1.4187

> <Gold.Chemscore.DEInternal>
0.7853

> <Gold.Chemscore.Rot>
1.9061

> <Gold.Chemscore.Internal.Correction>
   9.000000E+99

> <Gold.Chemscore.Hbonds>
donor molecule, donor type, donor heavy atom, donor atom, acceptor molecule, acceptor atom, score
      L1  H     9    28       P1  8028  0.96
      P1  H  7997  8009       L1    19  0.99

> <Gold.Chemscore.Hbond.Weighted>
-6.6252

> <Gold.Chemscore.Metal.Weighted>
-0.0000

> <Gold.Chemscore.Lipo.Weighted>
-13.7990

> <Gold.Chemscore.Internal_Hbond.Weighted>
0.0000

> <Gold.Chemscore.DEClash.Weighted>
1.4187

> <Gold.Chemscore.DEInternal.Weighted>
0.7853

> <Gold.Chemscore.Rot.Weighted>
4.8797

> <Gold.Chemscore.Internal.Correction.Weighted>
   9.000000E+99

> <Gold.Protein.RotatedTorsions>
[ 6907 6896 6895 6894 ] final   77.50 input  -60.11 | X-H torsion
[ 7974 7965 7964 7962 ] final -147.34 input  175.53 | X-H torsion
[ 8008 7997 7996 7995 ] final -159.74 input   59.86 | X-H torsion
[ 10167 10162 10161 10158 ] final  134.33 input  -65.29 | X-H torsion
[ 10718 10713 10712 10709 ] final  -94.62 input   66.30 | X-H torsion
[ 10763 10752 10751 10750 ] final  -20.73 input  -60.55 | X-H torsion
[ 11005 11000 10999 10996 ] final  158.64 input  -57.11 | X-H torsion

> <Gold.Protein.ActiveResidues>
 VAL166  LYS551  ARG553  GLY616  TRP617  ASP618  TYR619  PRO620  LYS621  CYS622 
 ASP623  PHE694  ASN695  SER759  ASP760  ASP761  ALA762  ILE779  LEU786  VAL792 
 PHE793  MET794  SER795  GLU796  ALA797  LYS798  CYS799  TRP800  GLU811  SER814 

> <Gold.Protein.RotatedAtoms>
  152.5120  134.3806  159.9349 H   0  0  0  0  0  0  0  0  0  0  0  0  # atno 6907 bound_to 6896
  151.3763  133.3830  159.2713 H   0  0  0  0  0  0  0  0  0  0  0  0  # atno 6908 bound_to 6896
  150.9539  134.8955  159.7747 H   0  0  0  0  0  0  0  0  0  0  0  0  # atno 6909 bound_to 6896
  144.8100  140.5339  143.5649 H   0  0  0  0  0  0  0  0  0  0  0  0  # atno 7974 bound_to 7965
  155.7670  140.0847  157.2127 H   0  0  0  0  0  0  0  0  0  0  0  0  # atno 8008 bound_to 7997
  154.3999  140.1532  156.2955 H   0  0  0  0  0  0  0  0  0  0  0  0  # atno 8009 bound_to 7997
  155.8784  140.3422  155.5873 H   0  0  0  0  0  0  0  0  0  0  0  0  # atno 8010 bound_to 7997
  139.5260  144.6572  151.5124 H   0  0  0  0  0  0  0  0  0  0  0  0  # atno 10167 bound_to 10162
  156.0030  130.5075  150.5953 H   0  0  0  0  0  0  0  0  0  0  0  0  # atno 10718 bound_to 10713
  153.6250  135.6991  153.5296 H   0  0  0  0  0  0  0  0  0  0  0  0  # atno 10763 bound_to 10752
  153.2906  135.4158  155.1163 H   0  0  0  0  0  0  0  0  0  0  0  0  # atno 10764 bound_to 10752
  154.8535  135.3624  154.5791 H   0  0  0  0  0  0  0  0  0  0  0  0  # atno 10765 bound_to 10752
  140.1884  134.8425  157.2884 H   0  0  0  0  0  0  0  0  0  0  0  0  # atno 11005 bound_to 11000
  145.5347  139.1475  143.3480 LP  0  0  0  0  0  0  0  0  0  0  0  0  # atno 17320 bound_to 7965
  146.2397  140.5488  142.8939 LP  0  0  0  0  0  0  0  0  0  0  0  0  # atno 17321 bound_to 7965
  140.6404  143.8901  150.6686 LP  0  0  0  0  0  0  0  0  0  0  0  0  # atno 17342 bound_to 10162
  140.2233  143.3792  152.1625 LP  0  0  0  0  0  0  0  0  0  0  0  0  # atno 17343 bound_to 10162
  157.3811  131.0781  151.1476 LP  0  0  0  0  0  0  0  0  0  0  0  0  # atno 17370 bound_to 10713
  157.2198  130.6476  149.5806 LP  0  0  0  0  0  0  0  0  0  0  0  0  # atno 17371 bound_to 10713
  140.2187  134.4050  155.7576 LP  0  0  0  0  0  0  0  0  0  0  0  0  # atno 17394 bound_to 11000
  141.2225  133.7155  156.8455 LP  0  0  0  0  0  0  0  0  0  0  0  0  # atno 17395 bound_to 11000

$$$$
