AV-unprocessed.smi:283|AV-procd|sdf|2143|dock1
  -GOLD-   2262021473D 1   1.00000     0.00000
 Structure written by MMmdl.
 48 51  0  0  0  0  0  0  0  0  1 V2000
  155.4573  140.2273  160.5763 C   0  0  0  0  0  0  0  0  0  0  0  0
  153.9720  140.6024  160.6631 C   0  0  2  0  0  0  0  0  0  0  0  0
  153.4748  140.9777  159.3401 N   0  0  0  0  0  0  0  0  0  0  0  0
  152.5460  140.2263  158.7073 C   0  0  0  0  0  0  0  0  0  0  0  0
  152.3520  138.9224  159.0366 N   0  0  0  0  0  0  0  0  0  0  0  0
  151.4261  138.2022  158.3973 C   0  0  0  0  0  0  0  0  0  0  0  0
  150.6042  138.5828  157.4166 N   0  0  0  0  0  0  0  0  0  0  0  0
  150.7980  139.8904  157.0782 C   0  0  0  0  0  0  0  0  0  0  0  0
  151.7449  140.7714  157.6710 C   0  0  0  0  0  0  0  0  0  0  0  0
  151.6623  142.0225  157.0742 N   0  0  0  0  0  0  0  0  0  0  0  0
  150.7208  141.8839  156.1798 C   0  0  0  0  0  0  0  0  0  0  0  0
  150.1427  140.6351  156.1185 N   0  0  0  0  0  0  0  0  0  0  0  0
  149.0490  140.1817  155.2079 C   0  0  1  0  0  0  0  0  0  0  0  0
  147.9760  139.7665  155.9931 O   0  0  0  0  0  0  0  0  0  0  0  0
  146.7451  140.1214  155.3724 C   0  0  2  0  0  0  0  0  0  0  0  0
  146.3150  138.9899  154.4181 C   0  0  0  0  0  0  0  0  0  0  0  0
  144.9213  139.0456  154.2035 O   0  0  0  0  0  0  0  0  0  0  0  0
  147.0760  141.4277  154.6368 C   0  0  1  0  0  0  0  0  0  0  0  0
  146.8201  142.5216  155.4949 O   0  0  0  0  0  0  0  0  0  0  0  0
  148.5643  141.3298  154.3072 C   0  0  2  0  0  0  0  0  0  0  0  0
  148.7219  141.0019  152.9410 O   0  0  0  0  0  0  0  0  0  0  0  0
  153.7511  141.6621  161.7452 C   0  0  0  0  0  0  0  0  0  0  0  0
  154.3395  141.4965  163.0209 C   0  0  0  0  0  0  0  0  0  0  0  0
  154.1472  142.4579  164.0307 C   0  0  0  0  0  0  0  0  0  0  0  0
  153.3576  143.5939  163.7780 C   0  0  0  0  0  0  0  0  0  0  0  0
  152.7578  143.7636  162.5164 C   0  0  0  0  0  0  0  0  0  0  0  0
  152.9475  142.8045  161.5011 C   0  0  0  0  0  0  0  0  0  0  0  0
  152.1760  143.0593  159.9747 Cl  0  0  0  0  0  0  0  0  0  0  0  0
  149.4692  139.3378  154.6582 H   0  0  0  0  0  0  0  0  0  0  0  0
  145.9676  140.2801  156.1220 H   0  0  0  0  0  0  0  0  0  0  0  0
  146.4565  141.5689  153.7497 H   0  0  0  0  0  0  0  0  0  0  0  0
  149.1003  142.2572  154.5180 H   0  0  0  0  0  0  0  0  0  0  0  0
  155.8252  139.8631  161.5363 H   0  0  0  0  0  0  0  0  0  0  0  0
  156.0680  141.0841  160.2892 H   0  0  0  0  0  0  0  0  0  0  0  0
  155.6222  139.4385  159.8416 H   0  0  0  0  0  0  0  0  0  0  0  0
  153.4293  139.6991  160.9395 H   0  0  0  0  0  0  0  0  0  0  0  0
  153.7475  141.8942  159.0151 H   0  0  0  0  0  0  0  0  0  0  0  0
  151.3302  137.1750  158.7173 H   0  0  0  0  0  0  0  0  0  0  0  0
  150.4174  142.6978  155.5374 H   0  0  0  0  0  0  0  0  0  0  0  0
  146.7948  139.1137  153.4468 H   0  0  0  0  0  0  0  0  0  0  0  0
  146.5994  138.0063  154.7929 H   0  0  0  0  0  0  0  0  0  0  0  0
  144.7581  139.5604  153.4277 H   0  0  0  0  0  0  0  0  0  0  0  0
  147.5527  143.1181  155.4447 H   0  0  0  0  0  0  0  0  0  0  0  0
  147.8821  141.0807  152.5148 H   0  0  0  0  0  0  0  0  0  0  0  0
  154.9449  140.6275  163.2333 H   0  0  0  0  0  0  0  0  0  0  0  0
  154.6050  142.3228  164.9996 H   0  0  0  0  0  0  0  0  0  0  0  0
  153.2087  144.3328  164.5518 H   0  0  0  0  0  0  0  0  0  0  0  0
  152.1473  144.6346  162.3280 H   0  0  0  0  0  0  0  0  0  0  0  0
  1  2  1  0  0  0  0
  1 33  1  0  0  0  0
  1 34  1  0  0  0  0
  1 35  1  0  0  0  0
  2  3  1  0  0  0  0
  2 22  1  0  0  0  0
  2 36  1  0  0  0  0
  3  4  1  0  0  0  0
  3 37  1  0  0  0  0
  4  9  1  0  0  0  0
  4  5  2  0  0  0  0
  5  6  1  0  0  0  0
  6  7  2  0  0  0  0
  6 38  1  0  0  0  0
  7  8  1  0  0  0  0
  8 12  1  0  0  0  0
  8  9  2  0  0  0  0
  9 10  1  0  0  0  0
 10 11  2  0  0  0  0
 11 12  1  0  0  0  0
 11 39  1  0  0  0  0
 12 13  1  0  0  0  0
 13 29  1  0  0  0  0
 13 20  1  0  0  0  0
 13 14  1  0  0  0  0
 14 15  1  0  0  0  0
 15 30  1  0  0  0  0
 15 16  1  0  0  0  0
 15 18  1  0  0  0  0
 16 17  1  0  0  0  0
 16 40  1  0  0  0  0
 16 41  1  0  0  0  0
 17 42  1  0  0  0  0
 18 31  1  0  0  0  0
 18 19  1  0  0  0  0
 18 20  1  0  0  0  0
 19 43  1  0  0  0  0
 20 32  1  0  0  0  0
 20 21  1  0  0  0  0
 21 44  1  0  0  0  0
 22 27  1  0  0  0  0
 22 23  2  0  0  0  0
 23 24  1  0  0  0  0
 23 45  1  0  0  0  0
 24 25  2  0  0  0  0
 24 46  1  0  0  0  0
 25 26  1  0  0  0  0
 25 47  1  0  0  0  0
 26 27  2  0  0  0  0
 26 48  1  0  0  0  0
 27 28  1  0  0  0  0
M  END
> <s_m_source_file>
AV-unprocessed.smi

> <i_m_source_file_index>
283

> <i_lp_mmshare_version>
43012

> <i_f3d_flags>
0

> <s_epik_input>
Q2xjMVtjSF1bY0hdW2NIXVtjSF1jMVtDQEhdKFtDSDNdKVtOSF1jKG5bY0hdbjIpYyhjMjMpbltjSF1uM1tDQEBIXTRPW0NASF0oW0NIMl1bT0hdKVtDQEBIXShbT0hdKVtDQEhdNFtPSF0=

> <s_epik_cmdline>
J2VwaWtfcHl0aG9uJywgJy1waCcsICc3LjAnLCAnLXRuJywgJzgnLCAnLW1hJywgJzIwMCcsICctbWV0YWxfYmluZGluZycsICctaW1hZScsICc8aW5maWxlLm1hZT4nLCAnLW9tYWUnLCAnPG91dGZpbGUubWFlPic=

> <r_lp_tautomer_probability>
1

> <r_epik_Ionization_Penalty>
0.000266407

> <r_epik_Ionization_Penalty_Charging>
0

> <r_epik_Ionization_Penalty_Neutral>
0.000266407

> <r_epik_State_Penalty>
-0

> <r_epik_Charging_Adjusted_Penalty>
0

> <i_epik_Tot_Q>
0

> <i_epik_Tot_abs_Q>
0

> <r_epik_Metal_State_Penalty>
-0

> <b_epik_Metal_Only>
0

> <s_epik_Chemistry_Notes>
This compound contains an acetal/aminal-like group ( X-CH(R)-Y where X, Y are N, S, or O) that may be acid/base labile, releasing an aldehyde.

> <s_lp_Force_Field>
OPLS_2005

> <r_lp_Energy>
39.2487

> <b_lp_Chiralities_Consistent>
1

> <s_lp_Variant>
AV-unprocessed.smi:283-19

> <Gold.Version>
5.8.1

> <Gold.Id.Protein>
6NUR|6NUR_protein|mol2

> <Gold.PLP.Fitness>
57.2504

> <Gold.PLP.PLP>
-46.4304

> <Gold.PLP.part.hbond>
-2.9310

> <Gold.PLP.part.metal>
0.0000

> <Gold.PLP.part.buried>
-2.1694

> <Gold.PLP.part.nonpolar>
-40.5271

> <Gold.PLP.part.repulsive>
0.1291

> <Gold.PLP.ligand.clash>
0.0000

> <Gold.PLP.ligand.torsion>
0.6362

> <Gold.PLP.Chemscore.Hbond>
3.0000

> <Gold.PLP.Chemscore.CHOScore>
0.9963

> <Gold.PLP.Chemscore.Metal>
0.0000

> <Gold.Chemscore.Hbonds>
donor molecule, donor type, donor heavy atom, donor atom, acceptor molecule, acceptor atom, score
      L1  H    17    42       P1 10175  0.98
      L1  H    19    43       P1  8028  0.93
      P1  H  8011  8017       L1    21  1.00
      L1  C    11    39       P1  8028  0.99

> <Gold.PLP.Chemscore.Internal.Correction>
0.1033

> <Gold.Rescore>
     Score         DG    S(hbond)    S(metal)    S(lipo)     H(rot)  DE(clash)    DE(int)     intcor
     10.70     -14.72       1.63        0.00     122.04       4.10       1.60       2.42       ----

> <Gold.Chemscore.Fitness>
10.7010

> <Gold.Chemscore.DG>
-14.7168

> <Gold.Chemscore.ZeroCoef>
-5.4800

> <Gold.Chemscore.Hbond>
1.6307

> <Gold.Chemscore.Metal>
0.0000

> <Gold.Chemscore.Lipo>
122.0357

> <Gold.Chemscore.Internal_Hbond>
0.0000

> <Gold.Chemscore.DEClash>
1.6000

> <Gold.Chemscore.DEInternal>
2.4158

> <Gold.Chemscore.Rot>
4.0968

> <Gold.Chemscore.Internal.Correction>
   9.000000E+99

> <Gold.Chemscore.Hbonds>
donor molecule, donor type, donor heavy atom, donor atom, acceptor molecule, acceptor atom, score
      L1  H    17    42       P1 10175  0.93
      L1  H    19    43       P1  8028  0.23
      P1  H  8011  8017       L1    21  0.21

> <Gold.Chemscore.Hbond.Weighted>
-5.4465

> <Gold.Chemscore.Metal.Weighted>
-0.0000

> <Gold.Chemscore.Lipo.Weighted>
-14.2782

> <Gold.Chemscore.Internal_Hbond.Weighted>
0.0000

> <Gold.Chemscore.DEClash.Weighted>
1.6000

> <Gold.Chemscore.DEInternal.Weighted>
2.4158

> <Gold.Chemscore.Rot.Weighted>
10.4879

> <Gold.Chemscore.Internal.Correction.Weighted>
   9.000000E+99

> <Gold.Protein.RotatedTorsions>
[ 6907 6896 6895 6894 ] final -172.58 input  -60.11 | X-H torsion
[ 7974 7965 7964 7962 ] final  -61.30 input  175.53 | X-H torsion
[ 8008 7997 7996 7995 ] final  -31.63 input   59.86 | X-H torsion
[ 10167 10162 10161 10158 ] final  -94.55 input  -65.29 | X-H torsion
[ 10718 10713 10712 10709 ] final  156.84 input   66.30 | X-H torsion
[ 10763 10752 10751 10750 ] final -148.48 input  -60.55 | X-H torsion
[ 11005 11000 10999 10996 ] final   29.52 input  -57.11 | X-H torsion

> <Gold.Protein.ActiveResidues>
 VAL166  LYS551  ARG553  GLY616  TRP617  ASP618  TYR619  PRO620  LYS621  CYS622 
 ASP623  PHE694  ASN695  SER759  ASP760  ASP761  ALA762  ILE779  LEU786  VAL792 
 PHE793  MET794  SER795  GLU796  ALA797  LYS798  CYS799  TRP800  GLU811  SER814 

> <Gold.Protein.RotatedAtoms>
  151.5422  133.3431  159.2937 H   0  0  0  0  0  0  0  0  0  0  0  0  # atno 6907 bound_to 6896
  150.8528  134.7861  159.7033 H   0  0  0  0  0  0  0  0  0  0  0  0  # atno 6908 bound_to 6896
  152.4570  134.5278  159.9853 H   0  0  0  0  0  0  0  0  0  0  0  0  # atno 6909 bound_to 6896
  145.8051  140.8632  143.0211 H   0  0  0  0  0  0  0  0  0  0  0  0  # atno 7974 bound_to 7965
  154.4207  140.1759  156.1597 H   0  0  0  0  0  0  0  0  0  0  0  0  # atno 8008 bound_to 7997
  155.9848  140.3374  155.6673 H   0  0  0  0  0  0  0  0  0  0  0  0  # atno 8009 bound_to 7997
  155.6451  140.0684  157.2596 H   0  0  0  0  0  0  0  0  0  0  0  0  # atno 8010 bound_to 7997
  140.3133  143.3092  152.0125 H   0  0  0  0  0  0  0  0  0  0  0  0  # atno 10167 bound_to 10162
  157.1995  131.0673  151.2033 H   0  0  0  0  0  0  0  0  0  0  0  0  # atno 10718 bound_to 10713
  154.8231  135.3333  154.6980 H   0  0  0  0  0  0  0  0  0  0  0  0  # atno 10763 bound_to 10752
  153.7610  135.6932  153.4930 H   0  0  0  0  0  0  0  0  0  0  0  0  # atno 10764 bound_to 10752
  153.2110  135.4482  155.0329 H   0  0  0  0  0  0  0  0  0  0  0  0  # atno 10765 bound_to 10752
  140.3041  134.2723  155.7747 H   0  0  0  0  0  0  0  0  0  0  0  0  # atno 11005 bound_to 11000
  144.6764  140.0315  143.7482 LP  0  0  0  0  0  0  0  0  0  0  0  0  # atno 17320 bound_to 7965
  145.9837  139.2961  143.1027 LP  0  0  0  0  0  0  0  0  0  0  0  0  # atno 17321 bound_to 7965
  139.4889  144.6367  151.6960 LP  0  0  0  0  0  0  0  0  0  0  0  0  # atno 17342 bound_to 10162
  140.5548  144.0365  150.6143 LP  0  0  0  0  0  0  0  0  0  0  0  0  # atno 17343 bound_to 10162
  157.3781  130.7217  149.6611 LP  0  0  0  0  0  0  0  0  0  0  0  0  # atno 17370 bound_to 10713
  155.9702  130.4180  150.4306 LP  0  0  0  0  0  0  0  0  0  0  0  0  # atno 17371 bound_to 10713
  141.2122  133.7665  156.9811 LP  0  0  0  0  0  0  0  0  0  0  0  0  # atno 17394 bound_to 11000
  140.1083  134.9493  157.2027 LP  0  0  0  0  0  0  0  0  0  0  0  0  # atno 17395 bound_to 11000

$$$$
