AV-unprocessed.smi:148|AV-procd|sdf|1220|dock3
  -GOLD-   2262018413D 1   1.00000     0.00000
 Structure written by MMmdl.
 63 67  0  0  0  0  0  0  0  0  1 V2000
  149.6227  141.0142  153.2378 O   0  0  0  0  0  0  0  0  0  0  0  0
  148.4006  141.1026  153.9406 C   0  0  0  0  0  0  0  0  0  0  0  0
  148.4075  140.2040  155.2010 C   0  0  2  0  0  0  0  0  0  0  0  0
  147.0197  139.5583  155.4542 C   0  0  0  0  0  0  0  0  0  0  0  0
  146.6714  138.5567  154.4620 N   0  0  0  0  0  0  0  0  0  0  0  0
  146.5811  138.7481  153.1016 C   0  0  0  0  0  0  0  0  0  0  0  0
  146.2578  137.6890  152.4106 N   0  0  0  0  0  0  0  0  0  0  0  0
  146.1140  136.6940  153.3690 C   0  0  0  0  0  0  0  0  0  0  0  0
  145.7708  135.3174  153.3165 C   0  0  0  0  0  0  0  0  0  0  0  0
  145.5211  134.6879  152.1432 N   0  0  0  0  0  0  0  0  0  0  0  0
  146.6063  133.7395  151.8826 C   0  0  0  0  0  0  0  0  0  0  0  0
  146.5145  133.1376  150.4756 C   0  0  0  0  0  0  0  0  0  0  0  0
  145.1391  132.5007  150.2636 C   0  0  0  0  0  0  0  0  0  0  0  0
  144.0484  133.5507  150.5041 C   0  0  0  0  0  0  0  0  0  0  0  0
  144.1517  134.1822  151.9186 C   0  0  2  0  0  0  0  0  0  0  0  0
  143.0422  135.2538  152.1845 C   0  0  2  0  0  0  0  0  0  0  0  0
  143.4709  136.7076  151.9065 C   0  0  0  0  0  0  0  0  0  0  0  0
  142.6313  137.5978  152.8377 C   0  0  0  0  0  0  0  0  0  0  0  0
  141.7097  136.6556  153.6172 C   0  0  0  0  0  0  0  0  0  0  0  0
  142.4314  135.3088  153.5961 C   0  0  1  0  0  0  0  0  0  0  0  0
  141.5297  134.2517  153.8488 O   0  0  0  0  0  0  0  0  0  0  0  0
  145.7405  134.6263  154.4876 N   0  0  0  0  0  0  0  0  0  0  0  0
  146.0056  135.2508  155.6391 C   0  0  0  0  0  0  0  0  0  0  0  0
  146.3281  136.5306  155.8405 N   0  0  0  0  0  0  0  0  0  0  0  0
  146.3745  137.2203  154.6644 C   0  0  0  0  0  0  0  0  0  0  0  0
  148.9757  140.9572  156.4369 C   0  0  1  0  0  0  0  0  0  0  0  0
  149.0375  140.1798  157.7519 C   0  0  0  0  0  0  0  0  0  0  0  0
  150.3628  140.6169  158.3829 C   0  0  0  0  0  0  0  0  0  0  0  0
  150.7667  141.7579  157.6400 O   0  0  0  0  0  0  0  0  0  0  0  0
  150.3899  141.5268  156.2936 C   0  0  0  0  0  0  0  0  0  0  0  0
  150.1488  140.3364  153.6340 H   0  0  0  0  0  0  0  0  0  0  0  0
  148.2100  142.1428  154.2055 H   0  0  0  0  0  0  0  0  0  0  0  0
  147.6164  140.8041  153.2459 H   0  0  0  0  0  0  0  0  0  0  0  0
  149.0975  139.3834  154.9974 H   0  0  0  0  0  0  0  0  0  0  0  0
  146.9840  139.0663  156.4244 H   0  0  0  0  0  0  0  0  0  0  0  0
  146.2341  140.3131  155.4652 H   0  0  0  0  0  0  0  0  0  0  0  0
  146.7646  139.7053  152.6351 H   0  0  0  0  0  0  0  0  0  0  0  0
  147.5729  134.2329  151.9964 H   0  0  0  0  0  0  0  0  0  0  0  0
  146.5700  132.9411  152.6256 H   0  0  0  0  0  0  0  0  0  0  0  0
  146.6819  133.9162  149.7301 H   0  0  0  0  0  0  0  0  0  0  0  0
  147.3000  132.3949  150.3341 H   0  0  0  0  0  0  0  0  0  0  0  0
  145.0617  132.1015  149.2520 H   0  0  0  0  0  0  0  0  0  0  0  0
  145.0055  131.6603  150.9460 H   0  0  0  0  0  0  0  0  0  0  0  0
  144.1505  134.3175  149.7369 H   0  0  0  0  0  0  0  0  0  0  0  0
  143.0759  133.0868  150.3490 H   0  0  0  0  0  0  0  0  0  0  0  0
  143.9988  133.3768  152.6388 H   0  0  0  0  0  0  0  0  0  0  0  0
  142.2129  135.0869  151.4973 H   0  0  0  0  0  0  0  0  0  0  0  0
  144.5272  136.8734  152.1114 H   0  0  0  0  0  0  0  0  0  0  0  0
  143.3123  136.9643  150.8585 H   0  0  0  0  0  0  0  0  0  0  0  0
  143.2885  138.1292  153.5272 H   0  0  0  0  0  0  0  0  0  0  0  0
  142.0631  138.3476  152.2865 H   0  0  0  0  0  0  0  0  0  0  0  0
  141.5059  137.0083  154.6287 H   0  0  0  0  0  0  0  0  0  0  0  0
  140.7542  136.5762  153.0957 H   0  0  0  0  0  0  0  0  0  0  0  0
  143.2020  135.3175  154.3656 H   0  0  0  0  0  0  0  0  0  0  0  0
  142.0153  133.4415  153.8738 H   0  0  0  0  0  0  0  0  0  0  0  0
  145.9532  134.6363  156.5258 H   0  0  0  0  0  0  0  0  0  0  0  0
  148.3409  141.8250  156.6215 H   0  0  0  0  0  0  0  0  0  0  0  0
  148.1919  140.4460  158.3870 H   0  0  0  0  0  0  0  0  0  0  0  0
  149.0172  139.0989  157.6221 H   0  0  0  0  0  0  0  0  0  0  0  0
  150.2673  140.8477  159.4441 H   0  0  0  0  0  0  0  0  0  0  0  0
  151.1148  139.8345  158.2710 H   0  0  0  0  0  0  0  0  0  0  0  0
  151.0923  140.8213  155.8516 H   0  0  0  0  0  0  0  0  0  0  0  0
  150.4141  142.4458  155.7077 H   0  0  0  0  0  0  0  0  0  0  0  0
  1  2  1  0  0  0  0
  1 31  1  0  0  0  0
  2  3  1  0  0  0  0
  2 32  1  0  0  0  0
  2 33  1  0  0  0  0
  3  4  1  0  0  0  0
  3 26  1  0  0  0  0
  3 34  1  0  0  0  0
  4  5  1  0  0  0  0
  4 35  1  0  0  0  0
  4 36  1  0  0  0  0
  5 25  1  0  0  0  0
  5  6  1  0  0  0  0
  6  7  2  0  0  0  0
  6 37  1  0  0  0  0
  7  8  1  0  0  0  0
  8 25  2  0  0  0  0
  8  9  1  0  0  0  0
  9 10  1  0  0  0  0
  9 22  2  0  0  0  0
 10 15  1  0  0  0  0
 10 11  1  0  0  0  0
 11 12  1  0  0  0  0
 11 38  1  0  0  0  0
 11 39  1  0  0  0  0
 12 13  1  0  0  0  0
 12 40  1  0  0  0  0
 12 41  1  0  0  0  0
 13 14  1  0  0  0  0
 13 42  1  0  0  0  0
 13 43  1  0  0  0  0
 14 15  1  0  0  0  0
 14 44  1  0  0  0  0
 14 45  1  0  0  0  0
 15 16  1  0  0  0  0
 15 46  1  0  0  0  0
 16 20  1  0  0  0  0
 16 17  1  0  0  0  0
 16 47  1  0  0  0  0
 17 18  1  0  0  0  0
 17 48  1  0  0  0  0
 17 49  1  0  0  0  0
 18 19  1  0  0  0  0
 18 50  1  0  0  0  0
 18 51  1  0  0  0  0
 19 20  1  0  0  0  0
 19 52  1  0  0  0  0
 19 53  1  0  0  0  0
 20 21  1  0  0  0  0
 20 54  1  0  0  0  0
 21 55  1  0  0  0  0
 22 23  1  0  0  0  0
 23 24  2  0  0  0  0
 23 56  1  0  0  0  0
 24 25  1  0  0  0  0
 26 30  1  0  0  0  0
 26 27  1  0  0  0  0
 26 57  1  0  0  0  0
 27 28  1  0  0  0  0
 27 58  1  0  0  0  0
 27 59  1  0  0  0  0
 28 29  1  0  0  0  0
 28 60  1  0  0  0  0
 28 61  1  0  0  0  0
 29 30  1  0  0  0  0
 30 62  1  0  0  0  0
 30 63  1  0  0  0  0
M  END
> <s_m_source_file>
AV-unprocessed.smi

> <i_m_source_file_index>
148

> <i_lp_mmshare_version>
43012

> <i_f3d_flags>
0

> <s_epik_input>
W0NIMl0xT1tDSDJdW0NIMl1bQ0BIXTFbQ0BIXShbQ0gyXVtPSF0pW0NIMl1uKFtjSF1uMiljKGMyMyluW2NIXW5jM040W0NIMl1bQ0gyXVtDSDJdW0NIMl1bQ0BIXTRbQ0BASF01W0NIMl1bQ0gyXVtDSDJdW0NASF01W09IXQ==

> <s_epik_cmdline>
J2VwaWtfcHl0aG9uJywgJy1waCcsICc3LjAnLCAnLXRuJywgJzgnLCAnLW1hJywgJzIwMCcsICctbWV0YWxfYmluZGluZycsICctaW1hZScsICc8aW5maWxlLm1hZT4nLCAnLW9tYWUnLCAnPG91dGZpbGUubWFlPic=

> <r_lp_tautomer_probability>
1

> <r_epik_Ionization_Penalty>
0.00556303

> <r_epik_Ionization_Penalty_Charging>
0

> <r_epik_Ionization_Penalty_Neutral>
0.00556303

> <r_epik_State_Penalty>
0.00401767

> <r_epik_Charging_Adjusted_Penalty>
0.00401767

> <i_epik_Tot_Q>
0

> <i_epik_Tot_abs_Q>
0

> <r_epik_Metal_State_Penalty>
-0

> <b_epik_Metal_Only>
0

> <s_lp_Force_Field>
OPLS_2005

> <r_lp_Energy>
68.7494

> <b_lp_Chiralities_Consistent>
1

> <s_lp_Variant>
AV-unprocessed.smi:148-19

> <Gold.Version>
5.8.1

> <Gold.Id.Protein>
6NUR|6NUR_protein|mol2

> <Gold.PLP.Fitness>
46.5589

> <Gold.PLP.PLP>
-39.9741

> <Gold.PLP.part.hbond>
-4.2288

> <Gold.PLP.part.metal>
0.0000

> <Gold.PLP.part.buried>
-7.0223

> <Gold.PLP.part.nonpolar>
-29.5012

> <Gold.PLP.part.repulsive>
0.4754

> <Gold.PLP.ligand.clash>
0.0000

> <Gold.PLP.ligand.torsion>
1.5363

> <Gold.PLP.Chemscore.Hbond>
3.0000

> <Gold.PLP.Chemscore.CHOScore>
0.0000

> <Gold.PLP.Chemscore.Metal>
0.0000

> <Gold.Chemscore.Hbonds>
donor molecule, donor type, donor heavy atom, donor atom, acceptor molecule, acceptor atom, score
      L1  H    21    55       P1 10957  1.00
      P1  H  8011  8017       L1     1  1.00
      P1  H 11000 11005       L1    21  0.66

> <Gold.PLP.Chemscore.Internal.Correction>
0.6573

> <Gold.Rescore>
     Score         DG    S(hbond)    S(metal)    S(lipo)     H(rot)  DE(clash)    DE(int)     intcor
     14.94     -16.26       2.74        0.00      86.47       3.32       0.04       1.28       ----

> <Gold.Chemscore.Fitness>
14.9444

> <Gold.Chemscore.DG>
-16.2605

> <Gold.Chemscore.ZeroCoef>
-5.4800

> <Gold.Chemscore.Hbond>
2.7437

> <Gold.Chemscore.Metal>
0.0000

> <Gold.Chemscore.Lipo>
86.4652

> <Gold.Chemscore.Internal_Hbond>
0.0000

> <Gold.Chemscore.DEClash>
0.0367

> <Gold.Chemscore.DEInternal>
1.2794

> <Gold.Chemscore.Rot>
3.3203

> <Gold.Chemscore.Internal.Correction>
   9.000000E+99

> <Gold.Chemscore.Hbonds>
donor molecule, donor type, donor heavy atom, donor atom, acceptor molecule, acceptor atom, score
      L1  H    21    55       P1 10957  0.94
      P1  H  8011  8017       L1     1  0.65
      P1  H 11000 11005       L1    21  0.11

> <Gold.Chemscore.Hbond.Weighted>
-9.1640

> <Gold.Chemscore.Metal.Weighted>
-0.0000

> <Gold.Chemscore.Lipo.Weighted>
-10.1164

> <Gold.Chemscore.Internal_Hbond.Weighted>
0.0000

> <Gold.Chemscore.DEClash.Weighted>
0.0367

> <Gold.Chemscore.DEInternal.Weighted>
1.2794

> <Gold.Chemscore.Rot.Weighted>
8.5000

> <Gold.Chemscore.Internal.Correction.Weighted>
   9.000000E+99

> <Gold.Protein.RotatedTorsions>
[ 6907 6896 6895 6894 ] final -155.59 input  -60.11 | X-H torsion
[ 7974 7965 7964 7962 ] final -129.85 input  175.53 | X-H torsion
[ 8008 7997 7996 7995 ] final  170.47 input   59.86 | X-H torsion
[ 10167 10162 10161 10158 ] final  -78.22 input  -65.29 | X-H torsion
[ 10718 10713 10712 10709 ] final  162.80 input   66.30 | X-H torsion
[ 10763 10752 10751 10750 ] final    5.20 input  -60.55 | X-H torsion
[ 11005 11000 10999 10996 ] final    6.42 input  -57.11 | X-H torsion

> <Gold.Protein.ActiveResidues>
 VAL166  LYS551  ARG553  GLY616  TRP617  ASP618  TYR619  PRO620  LYS621  CYS622 
 ASP623  PHE694  ASN695  SER759  ASP760  ASP761  ALA762  ILE779  LEU786  VAL792 
 PHE793  MET794  SER795  GLU796  ALA797  LYS798  CYS799  TRP800  GLU811  SER814 

> <Gold.Protein.RotatedAtoms>
  151.2748  133.4238  159.2623 H   0  0  0  0  0  0  0  0  0  0  0  0  # atno 6907 bound_to 6896
  151.0413  134.9609  159.8173 H   0  0  0  0  0  0  0  0  0  0  0  0  # atno 6908 bound_to 6896
  152.5365  134.2706  159.9022 H   0  0  0  0  0  0  0  0  0  0  0  0  # atno 6909 bound_to 6896
  144.9531  140.7366  143.4775 H   0  0  0  0  0  0  0  0  0  0  0  0  # atno 7974 bound_to 7965
  156.1362  140.1537  156.8990 H   0  0  0  0  0  0  0  0  0  0  0  0  # atno 8008 bound_to 7997
  154.4949  140.0841  156.7715 H   0  0  0  0  0  0  0  0  0  0  0  0  # atno 8009 bound_to 7997
  155.4164  140.3421  155.4270 H   0  0  0  0  0  0  0  0  0  0  0  0  # atno 8010 bound_to 7997
  140.4702  143.2429  151.8217 H   0  0  0  0  0  0  0  0  0  0  0  0  # atno 10167 bound_to 10162
  157.1174  131.0483  151.2430 H   0  0  0  0  0  0  0  0  0  0  0  0  # atno 10718 bound_to 10713
  153.2622  135.6924  153.7566 H   0  0  0  0  0  0  0  0  0  0  0  0  # atno 10763 bound_to 10752
  153.6621  135.3358  155.3131 H   0  0  0  0  0  0  0  0  0  0  0  0  # atno 10764 bound_to 10752
  154.8434  135.4479  154.1617 H   0  0  0  0  0  0  0  0  0  0  0  0  # atno 10765 bound_to 10752
  140.5596  134.0205  155.7967 H   0  0  0  0  0  0  0  0  0  0  0  0  # atno 11005 bound_to 11000
  145.2813  139.1917  143.4789 LP  0  0  0  0  0  0  0  0  0  0  0  0  # atno 17320 bound_to 7965
  146.3328  140.2775  142.8608 LP  0  0  0  0  0  0  0  0  0  0  0  0  # atno 17321 bound_to 7965
  139.4817  144.4902  151.9195 LP  0  0  0  0  0  0  0  0  0  0  0  0  # atno 17342 bound_to 10162
  140.3987  144.2522  150.5894 LP  0  0  0  0  0  0  0  0  0  0  0  0  # atno 17343 bound_to 10162
  157.4506  130.7596  149.7148 LP  0  0  0  0  0  0  0  0  0  0  0  0  # atno 17370 bound_to 10713
  155.9836  130.3999  150.3354 LP  0  0  0  0  0  0  0  0  0  0  0  0  # atno 17371 bound_to 10713
  141.1122  133.9598  157.2889 LP  0  0  0  0  0  0  0  0  0  0  0  0  # atno 17394 bound_to 11000
  139.9414  135.0190  156.8720 LP  0  0  0  0  0  0  0  0  0  0  0  0  # atno 17395 bound_to 11000

$$$$
