AV-unprocessed.smi:189|AV-procd|sdf|1487|dock3
  -GOLD-   2262019303D 1   1.00000     0.00000
 Structure written by MMmdl.
 53 57  0  0  0  0  0  0  0  0  1 V2000
  152.6005  138.3752  159.6101 C   0  0  0  0  0  0  0  0  0  0  0  0
  153.0161  139.8122  159.2636 C   0  0  2  0  0  0  0  0  0  0  0  0
  153.4644  140.6456  160.4886 C   0  0  0  0  0  0  0  0  0  0  0  0
  152.5474  141.8681  160.4481 C   0  0  1  0  0  0  0  0  0  0  0  0
  153.0840  143.2174  160.9400 C   0  0  0  0  0  0  0  0  0  0  0  0
  152.0048  144.2990  160.7169 C   0  0  0  0  0  0  0  0  0  0  0  0
  151.4921  144.3334  159.2577 C   0  0  0  0  0  0  0  0  0  0  0  0
  151.0435  142.9450  158.7540 C   0  0  0  0  0  0  0  0  0  0  0  0
  152.1885  141.9443  158.9743 C   0  0  2  0  0  0  0  0  0  0  0  0
  151.9222  140.5587  158.6347 N   0  0  0  0  0  0  0  0  0  0  0  0
  151.7040  140.3172  157.3223 C   0  0  0  0  0  0  0  0  0  0  0  0
  152.6212  139.6415  156.5807 N   0  0  0  0  0  0  0  0  0  0  0  0
  152.3942  139.4180  155.2827 C   0  0  0  0  0  0  0  0  0  0  0  0
  151.3419  139.7792  154.5443 N   0  0  0  0  0  0  0  0  0  0  0  0
  150.4260  140.4656  155.2872 C   0  0  0  0  0  0  0  0  0  0  0  0
  150.5287  140.7731  156.6721 C   0  0  0  0  0  0  0  0  0  0  0  0
  149.4090  141.4791  157.0911 N   0  0  0  0  0  0  0  0  0  0  0  0
  148.6819  141.5827  156.0122 C   0  0  0  0  0  0  0  0  0  0  0  0
  149.2202  141.0106  154.8806 N   0  0  0  0  0  0  0  0  0  0  0  0
  148.6241  140.9801  153.5534 C   0  0  0  0  0  0  0  0  0  0  0  0
  147.2472  140.2742  153.5058 C   0  0  2  0  0  0  0  0  0  0  0  0
  146.8178  140.1964  152.1583 O   0  0  0  0  0  0  0  0  0  0  0  0
  146.1846  141.0115  154.3238 C   0  0  0  0  0  0  0  0  0  0  0  0
  145.9546  140.0974  155.5213 C   0  0  0  0  0  0  0  0  0  0  0  0
  146.1145  138.8066  154.9610 O   0  0  0  0  0  0  0  0  0  0  0  0
  147.2553  138.8585  154.1166 C   0  0  0  0  0  0  0  0  0  0  0  0
  153.4170  137.8389  160.0939 H   0  0  0  0  0  0  0  0  0  0  0  0
  152.3242  137.8178  158.7148 H   0  0  0  0  0  0  0  0  0  0  0  0
  151.7455  138.3647  160.2869 H   0  0  0  0  0  0  0  0  0  0  0  0
  153.8616  139.7593  158.5760 H   0  0  0  0  0  0  0  0  0  0  0  0
  153.3681  140.1057  161.4312 H   0  0  0  0  0  0  0  0  0  0  0  0
  154.5093  140.9383  160.3771 H   0  0  0  0  0  0  0  0  0  0  0  0
  151.6474  141.6239  161.0169 H   0  0  0  0  0  0  0  0  0  0  0  0
  153.3487  143.1595  161.9961 H   0  0  0  0  0  0  0  0  0  0  0  0
  153.9939  143.4805  160.3990 H   0  0  0  0  0  0  0  0  0  0  0  0
  151.1639  144.1075  161.3846 H   0  0  0  0  0  0  0  0  0  0  0  0
  152.3982  145.2773  160.9948 H   0  0  0  0  0  0  0  0  0  0  0  0
  150.6692  145.0432  159.1702 H   0  0  0  0  0  0  0  0  0  0  0  0
  152.2870  144.7068  158.6108 H   0  0  0  0  0  0  0  0  0  0  0  0
  150.1500  142.6218  159.2901 H   0  0  0  0  0  0  0  0  0  0  0  0
  150.7765  142.9991  157.6981 H   0  0  0  0  0  0  0  0  0  0  0  0
  153.0606  142.2790  158.4080 H   0  0  0  0  0  0  0  0  0  0  0  0
  153.1672  138.8737  154.7606 H   0  0  0  0  0  0  0  0  0  0  0  0
  147.7266  142.0874  156.0105 H   0  0  0  0  0  0  0  0  0  0  0  0
  148.5294  142.0067  153.1968 H   0  0  0  0  0  0  0  0  0  0  0  0
  149.3252  140.4878  152.8779 H   0  0  0  0  0  0  0  0  0  0  0  0
  147.5795  140.2371  151.6000 H   0  0  0  0  0  0  0  0  0  0  0  0
  146.4851  142.0166  154.6224 H   0  0  0  0  0  0  0  0  0  0  0  0
  145.2519  141.1032  153.7642 H   0  0  0  0  0  0  0  0  0  0  0  0
  146.7092  140.2622  156.2923 H   0  0  0  0  0  0  0  0  0  0  0  0
  144.9681  140.2259  155.9671 H   0  0  0  0  0  0  0  0  0  0  0  0
  147.2395  138.0602  153.3735 H   0  0  0  0  0  0  0  0  0  0  0  0
  148.1327  138.7049  154.7448 H   0  0  0  0  0  0  0  0  0  0  0  0
  1  2  1  0  0  0  0
  1 27  1  0  0  0  0
  1 28  1  0  0  0  0
  1 29  1  0  0  0  0
  2 10  1  0  0  0  0
  2  3  1  0  0  0  0
  2 30  1  0  0  0  0
  3  4  1  0  0  0  0
  3 31  1  0  0  0  0
  3 32  1  0  0  0  0
  4  9  1  0  0  0  0
  4  5  1  0  0  0  0
  4 33  1  0  0  0  0
  5  6  1  0  0  0  0
  5 34  1  0  0  0  0
  5 35  1  0  0  0  0
  6  7  1  0  0  0  0
  6 36  1  0  0  0  0
  6 37  1  0  0  0  0
  7  8  1  0  0  0  0
  7 38  1  0  0  0  0
  7 39  1  0  0  0  0
  8  9  1  0  0  0  0
  8 40  1  0  0  0  0
  8 41  1  0  0  0  0
  9 10  1  0  0  0  0
  9 42  1  0  0  0  0
 10 11  1  0  0  0  0
 11 16  1  0  0  0  0
 11 12  2  0  0  0  0
 12 13  1  0  0  0  0
 13 14  2  0  0  0  0
 13 43  1  0  0  0  0
 14 15  1  0  0  0  0
 15 19  1  0  0  0  0
 15 16  2  0  0  0  0
 16 17  1  0  0  0  0
 17 18  2  0  0  0  0
 18 19  1  0  0  0  0
 18 44  1  0  0  0  0
 19 20  1  0  0  0  0
 20 21  1  0  0  0  0
 20 45  1  0  0  0  0
 20 46  1  0  0  0  0
 21 26  1  0  0  0  0
 21 22  1  0  0  0  0
 21 23  1  0  0  0  0
 22 47  1  0  0  0  0
 23 24  1  0  0  0  0
 23 48  1  0  0  0  0
 23 49  1  0  0  0  0
 24 25  1  0  0  0  0
 24 50  1  0  0  0  0
 24 51  1  0  0  0  0
 25 26  1  0  0  0  0
 26 52  1  0  0  0  0
 26 53  1  0  0  0  0
M  END
> <s_m_source_file>
AV-unprocessed.smi

> <i_m_source_file_index>
189

> <i_lp_mmshare_version>
43012

> <i_f3d_flags>
0

> <s_epik_input>
W0NIMl0xW0NIMl1bQ0gyXVtDSDJdW0NASF0oW0NASF0xMilOKFtDQEhdKFtDSDNdKVtDSDJdMiljKG5bY0hdbjMpYyhjMzQpbltjSF1uNFtDSDJdW0NAQF01KFtPSF0pW0NIMl1bQ0gyXU9bQ0gyXTU=

> <s_epik_cmdline>
J2VwaWtfcHl0aG9uJywgJy1waCcsICc3LjAnLCAnLXRuJywgJzgnLCAnLW1hJywgJzIwMCcsICctbWV0YWxfYmluZGluZycsICctaW1hZScsICc8aW5maWxlLm1hZT4nLCAnLW9tYWUnLCAnPG91dGZpbGUubWFlPic=

> <r_lp_tautomer_probability>
1

> <r_epik_Ionization_Penalty>
0.00594261

> <r_epik_Ionization_Penalty_Charging>
0

> <r_epik_Ionization_Penalty_Neutral>
0.00594261

> <r_epik_State_Penalty>
0.00429776

> <r_epik_Charging_Adjusted_Penalty>
0.00429776

> <i_epik_Tot_Q>
0

> <i_epik_Tot_abs_Q>
0

> <r_epik_Metal_State_Penalty>
-0

> <b_epik_Metal_Only>
0

> <s_lp_Force_Field>
OPLS_2005

> <r_lp_Energy>
58.4812

> <b_lp_Chiralities_Consistent>
1

> <s_lp_Variant>
AV-unprocessed.smi:189-13

> <Gold.Version>
5.8.1

> <Gold.Id.Protein>
6NUR|6NUR_protein|mol2

> <Gold.PLP.Fitness>
53.6122

> <Gold.PLP.PLP>
-45.1781

> <Gold.PLP.part.hbond>
-3.5940

> <Gold.PLP.part.metal>
0.0000

> <Gold.PLP.part.buried>
-0.3629

> <Gold.PLP.part.nonpolar>
-40.6872

> <Gold.PLP.part.repulsive>
0.2354

> <Gold.PLP.ligand.clash>
0.0000

> <Gold.PLP.ligand.torsion>
0.2605

> <Gold.PLP.Chemscore.Hbond>
2.9250

> <Gold.PLP.Chemscore.CHOScore>
0.0539

> <Gold.PLP.Chemscore.Metal>
0.0000

> <Gold.Chemscore.Hbonds>
donor molecule, donor type, donor heavy atom, donor atom, acceptor molecule, acceptor atom, score
      L1  H    22    47       P1  7957  0.96
      P1  H  7989  7998       L1    14  0.95
      P1  H  7997  8010       L1    12  1.00
      L1  C    18    44       P1  8028  0.04

> <Gold.PLP.Chemscore.Internal.Correction>
0.0185

> <Gold.Rescore>
     Score         DG    S(hbond)    S(metal)    S(lipo)     H(rot)  DE(clash)    DE(int)     intcor
     16.36     -19.68       1.74        0.00     116.08       2.03       1.58       1.75       ----

> <Gold.Chemscore.Fitness>
16.3584

> <Gold.Chemscore.DG>
-19.6850

> <Gold.Chemscore.ZeroCoef>
-5.4800

> <Gold.Chemscore.Hbond>
1.7425

> <Gold.Chemscore.Metal>
0.0000

> <Gold.Chemscore.Lipo>
116.0764

> <Gold.Chemscore.Internal_Hbond>
0.0000

> <Gold.Chemscore.DEClash>
1.5762

> <Gold.Chemscore.DEInternal>
1.7503

> <Gold.Chemscore.Rot>
2.0297

> <Gold.Chemscore.Internal.Correction>
   9.000000E+99

> <Gold.Chemscore.Hbonds>
donor molecule, donor type, donor heavy atom, donor atom, acceptor molecule, acceptor atom, score
      L1  H    22    47       P1  7957  0.90
      P1  H  7989  7998       L1    14  0.18
      P1  H  7997  8010       L1    12  0.55

> <Gold.Chemscore.Hbond.Weighted>
-5.8200

> <Gold.Chemscore.Metal.Weighted>
-0.0000

> <Gold.Chemscore.Lipo.Weighted>
-13.5809

> <Gold.Chemscore.Internal_Hbond.Weighted>
0.0000

> <Gold.Chemscore.DEClash.Weighted>
1.5762

> <Gold.Chemscore.DEInternal.Weighted>
1.7503

> <Gold.Chemscore.Rot.Weighted>
5.1960

> <Gold.Chemscore.Internal.Correction.Weighted>
   9.000000E+99

> <Gold.Protein.RotatedTorsions>
[ 6907 6896 6895 6894 ] final   59.73 input  -60.11 | X-H torsion
[ 7974 7965 7964 7962 ] final   20.86 input  175.53 | X-H torsion
[ 8008 7997 7996 7995 ] final   50.65 input   59.86 | X-H torsion
[ 10167 10162 10161 10158 ] final -154.76 input  -65.29 | X-H torsion
[ 10718 10713 10712 10709 ] final   54.50 input   66.30 | X-H torsion
[ 10763 10752 10751 10750 ] final -114.56 input  -60.55 | X-H torsion
[ 11005 11000 10999 10996 ] final   80.18 input  -57.11 | X-H torsion

> <Gold.Protein.ActiveResidues>
 VAL166  LYS551  ARG553  GLY616  TRP617  ASP618  TYR619  PRO620  LYS621  CYS622 
 ASP623  PHE694  ASN695  SER759  ASP760  ASP761  ALA762  ILE779  LEU786  VAL792 
 PHE793  MET794  SER795  GLU796  ALA797  LYS798  CYS799  TRP800  GLU811  SER814 

> <Gold.Protein.RotatedAtoms>
  152.3940  134.6395  160.0096 H   0  0  0  0  0  0  0  0  0  0  0  0  # atno 6907 bound_to 6896
  151.6620  133.3311  159.3184 H   0  0  0  0  0  0  0  0  0  0  0  0  # atno 6908 bound_to 6896
  150.7851  134.6873  159.6522 H   0  0  0  0  0  0  0  0  0  0  0  0  # atno 6909 bound_to 6896
  146.2095  139.8110  142.8700 H   0  0  0  0  0  0  0  0  0  0  0  0  # atno 7974 bound_to 7965
  155.4223  140.3447  155.4272 H   0  0  0  0  0  0  0  0  0  0  0  0  # atno 8008 bound_to 7997
  156.1385  140.1535  156.8988 H   0  0  0  0  0  0  0  0  0  0  0  0  # atno 8009 bound_to 7997
  154.4952  140.0830  156.7661 H   0  0  0  0  0  0  0  0  0  0  0  0  # atno 8010 bound_to 7997
  139.6987  143.9299  152.2419 H   0  0  0  0  0  0  0  0  0  0  0  0  # atno 10167 bound_to 10162
  157.5262  130.8599  149.8625 H   0  0  0  0  0  0  0  0  0  0  0  0  # atno 10718 bound_to 10713
  154.8445  135.4413  154.1525 H   0  0  0  0  0  0  0  0  0  0  0  0  # atno 10763 bound_to 10752
  153.2682  135.6942  153.7513 H   0  0  0  0  0  0  0  0  0  0  0  0  # atno 10764 bound_to 10752
  153.6764  135.3410  155.3142 H   0  0  0  0  0  0  0  0  0  0  0  0  # atno 10765 bound_to 10752
  139.9144  134.7900  156.1876 H   0  0  0  0  0  0  0  0  0  0  0  0  # atno 11005 bound_to 11000
  145.3196  141.0240  143.3508 LP  0  0  0  0  0  0  0  0  0  0  0  0  # atno 17320 bound_to 7965
  144.8876  139.4818  143.6693 LP  0  0  0  0  0  0  0  0  0  0  0  0  # atno 17321 bound_to 7965
  139.9135  144.6842  150.8537 LP  0  0  0  0  0  0  0  0  0  0  0  0  # atno 17342 bound_to 10162
  140.7703  143.3426  151.2177 LP  0  0  0  0  0  0  0  0  0  0  0  0  # atno 17343 bound_to 10162
  156.0389  130.3744  150.1487 LP  0  0  0  0  0  0  0  0  0  0  0  0  # atno 17370 bound_to 10713
  156.9674  130.9824  151.3466 LP  0  0  0  0  0  0  0  0  0  0  0  0  # atno 17371 bound_to 10713
  141.0604  133.6844  156.1941 LP  0  0  0  0  0  0  0  0  0  0  0  0  # atno 17394 bound_to 11000
  140.6670  134.4907  157.5586 LP  0  0  0  0  0  0  0  0  0  0  0  0  # atno 17395 bound_to 11000

$$$$
