AV-unprocessed.smi:740|AV-procd|sdf|3550|dock5
  -GOLD-   22720 0543D 1   1.00000     0.00000
 Structure written by MMmdl.
 45 47  0  0  0  0  0  0  0  0  2 V2000
  153.9391  142.6126  163.6402 C   0  0  0  0  0  0  0  0  0  0  0  0
  153.3051  142.8598  162.2820 C   0  0  0  0  0  0  0  0  0  0  0  0
  152.4233  143.9546  162.1389 C   0  0  0  0  0  0  0  0  0  0  0  0
  151.8586  144.1546  160.8849 C   0  0  0  0  0  0  0  0  0  0  0  0
  150.9636  145.1255  160.4304 N   0  3  0  0  0  0  0  0  0  0  0  0
  150.6920  144.9119  159.1134 C   0  0  0  0  0  0  0  0  0  0  0  0
  151.4030  143.8210  158.7189 N   0  0  0  0  0  0  0  0  0  0  0  0
  151.4651  143.1738  157.4008 C   0  0  0  0  0  0  0  0  0  0  0  0
  150.8104  141.7787  157.3920 C   0  0  2  0  0  0  0  0  0  0  0  0
  151.8276  140.7957  157.3898 O   0  0  0  0  0  0  0  0  0  0  0  0
  149.9226  141.5766  156.1472 C   0  0  0  0  0  0  0  0  0  0  0  0
  149.6386  140.1587  155.8972 N   0  0  0  0  0  0  0  0  0  0  0  0
  150.4207  139.3545  155.1645 C   0  0  0  0  0  0  0  0  0  0  0  0
  151.4705  139.6716  154.6056 O   0  0  0  0  0  0  0  0  0  0  0  0
  149.8396  137.9497  155.0870 C   0  0  0  0  0  0  0  0  0  0  0  0
  148.5484  138.0559  155.9128 C   0  0  1  0  0  0  0  0  0  0  0  0
  148.4950  137.0879  157.1062 C   0  0  0  0  0  0  0  0  0  0  0  0
  148.5591  139.5153  156.3637 C   0  0  0  0  0  0  0  0  0  0  0  0
  147.6706  140.0020  157.0635 O   0  0  0  0  0  0  0  0  0  0  0  0
  152.1449  143.3129  159.7923 C   0  0  0  0  0  0  0  0  0  0  0  0
  153.0109  142.2288  159.9172 C   0  0  0  0  0  0  0  0  0  0  0  0
  153.5931  142.0064  161.1856 C   0  0  0  0  0  0  0  0  0  0  0  0
  154.5364  140.8271  161.3524 C   0  0  0  0  0  0  0  0  0  0  0  0
  153.6415  143.3721  164.3635 H   0  0  0  0  0  0  0  0  0  0  0  0
  155.0266  142.6330  163.5655 H   0  0  0  0  0  0  0  0  0  0  0  0
  153.6361  141.6415  164.0324 H   0  0  0  0  0  0  0  0  0  0  0  0
  152.1963  144.6064  162.9698 H   0  0  0  0  0  0  0  0  0  0  0  0
  150.0307  145.5003  158.4937 H   0  0  0  0  0  0  0  0  0  0  0  0
  150.9427  143.8302  156.7037 H   0  0  0  0  0  0  0  0  0  0  0  0
  152.5004  143.1328  157.0616 H   0  0  0  0  0  0  0  0  0  0  0  0
  150.2181  141.6653  158.3011 H   0  0  0  0  0  0  0  0  0  0  0  0
  151.7509  140.2813  158.1787 H   0  0  0  0  0  0  0  0  0  0  0  0
  148.9702  142.0895  156.2934 H   0  0  0  0  0  0  0  0  0  0  0  0
  150.3698  142.0542  155.2733 H   0  0  0  0  0  0  0  0  0  0  0  0
  149.6361  137.6785  154.0506 H   0  0  0  0  0  0  0  0  0  0  0  0
  150.5446  137.2286  155.5027 H   0  0  0  0  0  0  0  0  0  0  0  0
  147.6811  137.8972  155.2706 H   0  0  0  0  0  0  0  0  0  0  0  0
  147.5627  137.1961  157.6616 H   0  0  0  0  0  0  0  0  0  0  0  0
  149.3189  137.2602  157.7999 H   0  0  0  0  0  0  0  0  0  0  0  0
  148.5569  136.0531  156.7687 H   0  0  0  0  0  0  0  0  0  0  0  0
  153.2291  141.5759  159.0855 H   0  0  0  0  0  0  0  0  0  0  0  0
  154.6264  140.2541  160.4289 H   0  0  0  0  0  0  0  0  0  0  0  0
  154.1736  140.1520  162.1276 H   0  0  0  0  0  0  0  0  0  0  0  0
  155.5332  141.1705  161.6298 H   0  0  0  0  0  0  0  0  0  0  0  0
  150.5644  145.8781  160.9769 H   0  0  0  0  0  0  0  0  0  0  0  0
  1  2  1  0  0  0  0
  1 24  1  0  0  0  0
  1 25  1  0  0  0  0
  1 26  1  0  0  0  0
  2 22  1  0  0  0  0
  2  3  2  0  0  0  0
  3  4  1  0  0  0  0
  3 27  1  0  0  0  0
  4 20  2  0  0  0  0
  4  5  1  0  0  0  0
  5  6  2  0  0  0  0
  5 45  1  0  0  0  0
  6  7  1  0  0  0  0
  6 28  1  0  0  0  0
  7  8  1  0  0  0  0
  7 20  1  0  0  0  0
  8  9  1  0  0  0  0
  8 29  1  0  0  0  0
  8 30  1  0  0  0  0
  9 10  1  0  0  0  0
  9 11  1  0  0  0  0
  9 31  1  0  0  0  0
 10 32  1  0  0  0  0
 11 12  1  0  0  0  0
 11 33  1  0  0  0  0
 11 34  1  0  0  0  0
 12 18  1  0  0  0  0
 12 13  1  0  0  0  0
 13 14  2  0  0  0  0
 13 15  1  0  0  0  0
 15 16  1  0  0  0  0
 15 35  1  0  0  0  0
 15 36  1  0  0  0  0
 16 17  1  0  0  0  0
 16 18  1  0  0  0  0
 16 37  1  0  0  0  0
 17 38  1  0  0  0  0
 17 39  1  0  0  0  0
 17 40  1  0  0  0  0
 18 19  2  0  0  0  0
 20 21  1  0  0  0  0
 21 22  2  0  0  0  0
 21 41  1  0  0  0  0
 22 23  1  0  0  0  0
 23 42  1  0  0  0  0
 23 43  1  0  0  0  0
 23 44  1  0  0  0  0
M  CHG  1   5   1
M  END
> <s_m_source_file>
AV-unprocessed.smi

> <i_m_source_file_index>
740

> <i_lp_mmshare_version>
43012

> <i_f3d_flags>
0

> <s_epik_input>
W0NIM11jKFtjSF0xKWMoW0NIM10pW2NIXWMoYzEyKW4oW2NIXW4yKVtDSDJdW0NASF0oW09IXSlbQ0gyXU4zQyg9TylbQ0gyXVtDQEBIXShbQ0gzXSlDMz1P

> <s_epik_cmdline>
J2VwaWtfcHl0aG9uJywgJy1waCcsICc3LjAnLCAnLXRuJywgJzgnLCAnLW1hJywgJzIwMCcsICctbWV0YWxfYmluZGluZycsICctaW1hZScsICc8aW5maWxlLm1hZT4nLCAnLW9tYWUnLCAnPG91dGZpbGUubWFlPic=

> <r_lp_tautomer_probability>
1

> <r_epik_Ionization_Penalty>
1.08202

> <r_epik_Ionization_Penalty_Charging>
1.08202

> <r_epik_Ionization_Penalty_Neutral>
1.16605e-06

> <r_epik_State_Penalty>
1.13754

> <r_epik_Charging_Adjusted_Penalty>
2.21956

> <i_epik_Tot_Q>
1

> <i_epik_Tot_abs_Q>
1

> <r_epik_Metal_State_Penalty>
5.13645

> <b_epik_Metal_Only>
0

> <s_lp_Force_Field>
OPLS_2005

> <r_lp_Energy>
22.4261

> <b_lp_Chiralities_Consistent>
1

> <s_lp_Variant>
AV-unprocessed.smi:740-5

> <Gold.Version>
5.8.1

> <Gold.Id.Protein>
6NUR|6NUR_protein|mol2

> <Gold.PLP.Fitness>
52.3661

> <Gold.PLP.PLP>
-48.8937

> <Gold.PLP.part.hbond>
-1.3917

> <Gold.PLP.part.metal>
0.0000

> <Gold.PLP.part.buried>
-5.3089

> <Gold.PLP.part.nonpolar>
-41.7235

> <Gold.PLP.part.repulsive>
0.2545

> <Gold.PLP.ligand.clash>
0.0000

> <Gold.PLP.ligand.torsion>
1.2230

> <Gold.PLP.Chemscore.Hbond>
1.0000

> <Gold.PLP.Chemscore.CHOScore>
0.9723

> <Gold.PLP.Chemscore.Metal>
0.0000

> <Gold.Chemscore.Hbonds>
donor molecule, donor type, donor heavy atom, donor atom, acceptor molecule, acceptor atom, score
      P1  H  7989  7998       L1    14  1.00
      L1  C     6    28       P1  8029  1.00

> <Gold.PLP.Chemscore.Internal.Correction>
0.0015

> <Gold.Rescore>
     Score         DG    S(hbond)    S(metal)    S(lipo)     H(rot)  DE(clash)    DE(int)     intcor
     15.52     -16.68       1.00        0.00     119.10       2.37       0.06       1.09       ----

> <Gold.Chemscore.Fitness>
15.5226

> <Gold.Chemscore.DG>
-16.6782

> <Gold.Chemscore.ZeroCoef>
-5.4800

> <Gold.Chemscore.Hbond>
0.9992

> <Gold.Chemscore.Metal>
0.0000

> <Gold.Chemscore.Lipo>
119.0960

> <Gold.Chemscore.Internal_Hbond>
0.0000

> <Gold.Chemscore.DEClash>
0.0627

> <Gold.Chemscore.DEInternal>
1.0929

> <Gold.Chemscore.Rot>
2.3724

> <Gold.Chemscore.Internal.Correction>
   9.000000E+99

> <Gold.Chemscore.Hbonds>
donor molecule, donor type, donor heavy atom, donor atom, acceptor molecule, acceptor atom, score
      P1  H  7989  7998       L1    14  0.99

> <Gold.Chemscore.Hbond.Weighted>
-3.3374

> <Gold.Chemscore.Metal.Weighted>
-0.0000

> <Gold.Chemscore.Lipo.Weighted>
-13.9342

> <Gold.Chemscore.Internal_Hbond.Weighted>
0.0000

> <Gold.Chemscore.DEClash.Weighted>
0.0627

> <Gold.Chemscore.DEInternal.Weighted>
1.0929

> <Gold.Chemscore.Rot.Weighted>
6.0734

> <Gold.Chemscore.Internal.Correction.Weighted>
   9.000000E+99

> <Gold.Protein.RotatedTorsions>
[ 6907 6896 6895 6894 ] final   90.68 input  -60.11 | X-H torsion
[ 7974 7965 7964 7962 ] final -175.29 input  175.53 | X-H torsion
[ 8008 7997 7996 7995 ] final   58.16 input   59.86 | X-H torsion
[ 10167 10162 10161 10158 ] final  148.61 input  -65.29 | X-H torsion
[ 10718 10713 10712 10709 ] final  131.92 input   66.30 | X-H torsion
[ 10763 10752 10751 10750 ] final   36.33 input  -60.55 | X-H torsion
[ 11005 11000 10999 10996 ] final    5.64 input  -57.11 | X-H torsion

> <Gold.Protein.ActiveResidues>
 VAL166  LYS551  ARG553  GLY616  TRP617  ASP618  TYR619  PRO620  LYS621  CYS622 
 ASP623  PHE694  ASN695  SER759  ASP760  ASP761  ALA762  ILE779  LEU786  VAL792 
 PHE793  MET794  SER795  GLU796  ALA797  LYS798  CYS799  TRP800  GLU811  SER814 

> <Gold.Protein.RotatedAtoms>
  152.5446  134.1774  159.8621 H   0  0  0  0  0  0  0  0  0  0  0  0  # atno 6907 bound_to 6896
  151.1780  133.4736  159.2601 H   0  0  0  0  0  0  0  0  0  0  0  0  # atno 6908 bound_to 6896
  151.1208  135.0089  159.8592 H   0  0  0  0  0  0  0  0  0  0  0  0  # atno 6909 bound_to 6896
  144.7128  140.1342  143.6396 H   0  0  0  0  0  0  0  0  0  0  0  0  # atno 7974 bound_to 7965
  155.5455  140.3485  155.4456 H   0  0  0  0  0  0  0  0  0  0  0  0  # atno 8008 bound_to 7997
  156.0621  140.1342  156.9955 H   0  0  0  0  0  0  0  0  0  0  0  0  # atno 8009 bound_to 7997
  154.4485  140.0983  156.6517 H   0  0  0  0  0  0  0  0  0  0  0  0  # atno 8010 bound_to 7997
  139.4872  144.5666  151.7133 H   0  0  0  0  0  0  0  0  0  0  0  0  # atno 10167 bound_to 10162
  157.4921  131.1091  150.9542 H   0  0  0  0  0  0  0  0  0  0  0  0  # atno 10718 bound_to 10713
  153.0081  135.6308  154.1968 H   0  0  0  0  0  0  0  0  0  0  0  0  # atno 10763 bound_to 10752
  154.1711  135.2818  155.3082 H   0  0  0  0  0  0  0  0  0  0  0  0  # atno 10764 bound_to 10752
  154.5907  135.5618  153.7336 H   0  0  0  0  0  0  0  0  0  0  0  0  # atno 10765 bound_to 10752
  140.5684  134.0126  155.7999 H   0  0  0  0  0  0  0  0  0  0  0  0  # atno 11005 bound_to 11000
  145.9259  139.2575  143.1354 LP  0  0  0  0  0  0  0  0  0  0  0  0  # atno 17320 bound_to 7965
  145.9572  140.8863  143.0229 LP  0  0  0  0  0  0  0  0  0  0  0  0  # atno 17321 bound_to 7965
  140.5245  144.0827  150.6033 LP  0  0  0  0  0  0  0  0  0  0  0  0  # atno 17342 bound_to 10162
  140.3796  143.2810  152.0186 LP  0  0  0  0  0  0  0  0  0  0  0  0  # atno 17343 bound_to 10162
  157.0240  130.5685  149.5335 LP  0  0  0  0  0  0  0  0  0  0  0  0  # atno 17370 bound_to 10713
  156.0179  130.5274  150.8191 LP  0  0  0  0  0  0  0  0  0  0  0  0  # atno 17371 bound_to 10713
  141.1071  133.9675  157.2976 LP  0  0  0  0  0  0  0  0  0  0  0  0  # atno 17394 bound_to 11000
  139.9374  135.0195  156.8599 LP  0  0  0  0  0  0  0  0  0  0  0  0  # atno 17395 bound_to 11000

$$$$
