AV-unprocessed.smi:153|AV-procd|sdf|1252|dock8
  -GOLD-   2262018483D 1   1.00000     0.00000
 Structure written by MMmdl.
 60 63  0  0  0  0  0  0  0  0  2 V2000
  152.2569  142.5237  158.6043 C   0  0  0  0  0  0  0  0  0  0  0  0
  151.9180  141.2493  159.3973 C   0  0  2  0  0  0  0  0  0  0  0  0
  152.8706  141.0542  160.4408 O   0  0  0  0  0  0  0  0  0  0  0  0
  153.5710  139.8376  160.2325 C   0  0  0  0  0  0  0  0  0  0  0  0
  152.5567  138.9487  159.5257 C   0  0  0  0  0  0  0  0  0  0  0  0
  151.8549  139.9247  158.5924 C   0  0  2  0  0  0  0  0  0  0  0  0
  152.6222  140.0213  157.4025 O   0  0  0  0  0  0  0  0  0  0  0  0
  150.4228  139.4657  158.2218 C   0  0  0  0  0  0  0  0  0  0  0  0
  150.3379  138.0506  157.8979 N   0  0  0  0  0  0  0  0  0  0  0  0
  149.8631  137.0468  158.7103 C   0  0  0  0  0  0  0  0  0  0  0  0
  149.8492  135.8585  158.1729 N   0  0  0  0  0  0  0  0  0  0  0  0
  150.3807  136.0485  156.9019 C   0  0  0  0  0  0  0  0  0  0  0  0
  150.6179  135.2009  155.7790 C   0  0  0  0  0  0  0  0  0  0  0  0
  150.3118  133.8798  155.7284 N   0  0  0  0  0  0  0  0  0  0  0  0
  149.7445  133.2421  156.9097 C   0  0  0  0  0  0  0  0  0  0  0  0
  150.0591  133.2853  154.4144 C   0  0  0  0  0  0  0  0  0  0  0  0
  148.5941  133.4336  153.9458 C   0  0  2  0  0  0  0  0  0  0  0  0
  147.8207  132.5333  154.7135 O   0  0  0  0  0  0  0  0  0  0  0  0
  148.3868  133.0928  152.4508 C   0  0  0  0  0  0  0  0  0  0  0  0
  146.9827  133.2499  151.9929 N   0  3  0  0  0  0  0  0  0  0  0  0
  146.5776  134.6666  151.7991 C   0  0  0  0  0  0  0  0  0  0  0  0
  145.1248  134.7571  151.3023 C   0  0  0  0  0  0  0  0  0  0  0  0
  144.9784  134.0045  150.1058 O   0  0  0  0  0  0  0  0  0  0  0  0
  145.2561  132.6262  150.3138 C   0  0  0  0  0  0  0  0  0  0  0  0
  146.7162  132.4609  150.7655 C   0  0  0  0  0  0  0  0  0  0  0  0
  151.1364  135.7742  154.6623 N   0  0  0  0  0  0  0  0  0  0  0  0
  151.4150  137.0802  154.6382 C   0  0  0  0  0  0  0  0  0  0  0  0
  151.2356  137.9879  155.5985 N   0  0  0  0  0  0  0  0  0  0  0  0
  150.7034  137.4238  156.7197 C   0  0  0  0  0  0  0  0  0  0  0  0
  151.5685  142.6624  157.7714 H   0  0  0  0  0  0  0  0  0  0  0  0
  153.2689  142.4866  158.1999 H   0  0  0  0  0  0  0  0  0  0  0  0
  152.1915  143.4064  159.2407 H   0  0  0  0  0  0  0  0  0  0  0  0
  150.9650  141.4045  159.9038 H   0  0  0  0  0  0  0  0  0  0  0  0
  154.4351  140.0245  159.5935 H   0  0  0  0  0  0  0  0  0  0  0  0
  153.9247  139.4121  161.1716 H   0  0  0  0  0  0  0  0  0  0  0  0
  153.0131  138.1003  159.0139 H   0  0  0  0  0  0  0  0  0  0  0  0
  151.8546  138.5547  160.2619 H   0  0  0  0  0  0  0  0  0  0  0  0
  152.0404  140.2190  156.6844 H   0  0  0  0  0  0  0  0  0  0  0  0
  149.7311  139.6765  159.0386 H   0  0  0  0  0  0  0  0  0  0  0  0
  150.0585  140.0287  157.3614 H   0  0  0  0  0  0  0  0  0  0  0  0
  149.5050  137.2275  159.7133 H   0  0  0  0  0  0  0  0  0  0  0  0
  150.2283  133.6012  157.8188 H   0  0  0  0  0  0  0  0  0  0  0  0
  149.8882  132.1624  156.8623 H   0  0  0  0  0  0  0  0  0  0  0  0
  148.6746  133.4373  156.9835 H   0  0  0  0  0  0  0  0  0  0  0  0
  150.7399  133.6808  153.6598 H   0  0  0  0  0  0  0  0  0  0  0  0
  150.3019  132.2249  154.4962 H   0  0  0  0  0  0  0  0  0  0  0  0
  148.2539  134.4412  154.1785 H   0  0  0  0  0  0  0  0  0  0  0  0
  146.9591  132.8988  154.8402 H   0  0  0  0  0  0  0  0  0  0  0  0
  149.0035  133.7194  151.8102 H   0  0  0  0  0  0  0  0  0  0  0  0
  148.7220  132.0687  152.2766 H   0  0  0  0  0  0  0  0  0  0  0  0
  146.6664  135.2240  152.7302 H   0  0  0  0  0  0  0  0  0  0  0  0
  147.2435  135.1461  151.0812 H   0  0  0  0  0  0  0  0  0  0  0  0
  144.4296  134.3958  152.0621 H   0  0  0  0  0  0  0  0  0  0  0  0
  144.8620  135.7956  151.0996 H   0  0  0  0  0  0  0  0  0  0  0  0
  144.5682  132.2088  151.0509 H   0  0  0  0  0  0  0  0  0  0  0  0
  145.0886  132.0874  149.3810 H   0  0  0  0  0  0  0  0  0  0  0  0
  147.3893  132.7831  149.9695 H   0  0  0  0  0  0  0  0  0  0  0  0
  146.9243  131.4065  150.9517 H   0  0  0  0  0  0  0  0  0  0  0  0
  151.8320  137.4527  153.7141 H   0  0  0  0  0  0  0  0  0  0  0  0
  146.3911  132.8636  152.7148 H   0  0  0  0  0  0  0  0  0  0  0  0
  1  2  1  0  0  0  0
  1 30  1  0  0  0  0
  1 31  1  0  0  0  0
  1 32  1  0  0  0  0
  2  6  1  0  0  0  0
  2  3  1  0  0  0  0
  2 33  1  0  0  0  0
  3  4  1  0  0  0  0
  4  5  1  0  0  0  0
  4 34  1  0  0  0  0
  4 35  1  0  0  0  0
  5  6  1  0  0  0  0
  5 36  1  0  0  0  0
  5 37  1  0  0  0  0
  6  7  1  0  0  0  0
  6  8  1  0  0  0  0
  7 38  1  0  0  0  0
  8  9  1  0  0  0  0
  8 39  1  0  0  0  0
  8 40  1  0  0  0  0
  9 29  1  0  0  0  0
  9 10  1  0  0  0  0
 10 11  2  0  0  0  0
 10 41  1  0  0  0  0
 11 12  1  0  0  0  0
 12 29  2  0  0  0  0
 12 13  1  0  0  0  0
 13 14  1  0  0  0  0
 13 26  2  0  0  0  0
 14 15  1  0  0  0  0
 14 16  1  0  0  0  0
 15 42  1  0  0  0  0
 15 43  1  0  0  0  0
 15 44  1  0  0  0  0
 16 17  1  0  0  0  0
 16 45  1  0  0  0  0
 16 46  1  0  0  0  0
 17 18  1  0  0  0  0
 17 19  1  0  0  0  0
 17 47  1  0  0  0  0
 18 48  1  0  0  0  0
 19 20  1  0  0  0  0
 19 49  1  0  0  0  0
 19 50  1  0  0  0  0
 20 25  1  0  0  0  0
 20 21  1  0  0  0  0
 20 60  1  0  0  0  0
 21 22  1  0  0  0  0
 21 51  1  0  0  0  0
 21 52  1  0  0  0  0
 22 23  1  0  0  0  0
 22 53  1  0  0  0  0
 22 54  1  0  0  0  0
 23 24  1  0  0  0  0
 24 25  1  0  0  0  0
 24 55  1  0  0  0  0
 24 56  1  0  0  0  0
 25 57  1  0  0  0  0
 25 58  1  0  0  0  0
 26 27  1  0  0  0  0
 27 28  2  0  0  0  0
 27 59  1  0  0  0  0
 28 29  1  0  0  0  0
M  CHG  1  20   1
M  END
> <s_m_source_file>
AV-unprocessed.smi

> <i_m_source_file_index>
153

> <i_lp_mmshare_version>
43012

> <i_f3d_flags>
0

> <s_epik_input>
W0NIMl0xW0NIMl1PW0NAQEhdKFtDSDNdKVtDQEBdMShbT0hdKVtDSDJdbihbY0hdbjIpYyhjMjMpbltjSF1uYzNOKFtDSDNdKVtDSDJdW0NASF0oW09IXSlbQ0gyXU40W0NIMl1bQ0gyXU9bQ0gyXVtDSDJdNA==

> <s_epik_cmdline>
J2VwaWtfcHl0aG9uJywgJy1waCcsICc3LjAnLCAnLXRuJywgJzgnLCAnLW1hJywgJzIwMCcsICctbWV0YWxfYmluZGluZycsICctaW1hZScsICc8aW5maWxlLm1hZT4nLCAnLW9tYWUnLCAnPG91dGZpbGUubWFlPic=

> <r_lp_tautomer_probability>
1

> <r_epik_Ionization_Penalty>
0.403509

> <r_epik_Ionization_Penalty_Charging>
0.40072

> <r_epik_Ionization_Penalty_Neutral>
0.00278876

> <r_epik_State_Penalty>
0.400058

> <r_epik_Charging_Adjusted_Penalty>
0.800778

> <i_epik_Tot_Q>
1

> <i_epik_Tot_abs_Q>
1

> <r_epik_Metal_State_Penalty>
0.400321

> <b_epik_Metal_Only>
0

> <s_lp_Force_Field>
OPLS_2005

> <r_lp_Energy>
42.6993

> <b_lp_Chiralities_Consistent>
1

> <s_lp_Variant>
AV-unprocessed.smi:153-3

> <Gold.Version>
5.8.1

> <Gold.Id.Protein>
6NUR|6NUR_protein|mol2

> <Gold.PLP.Fitness>
47.8088

> <Gold.PLP.PLP>
-40.5752

> <Gold.PLP.part.hbond>
-2.9898

> <Gold.PLP.part.metal>
0.0000

> <Gold.PLP.part.buried>
-7.1972

> <Gold.PLP.part.nonpolar>
-31.2919

> <Gold.PLP.part.repulsive>
0.3844

> <Gold.PLP.ligand.clash>
0.0000

> <Gold.PLP.ligand.torsion>
1.0718

> <Gold.PLP.Chemscore.Hbond>
2.3981

> <Gold.PLP.Chemscore.CHOScore>
0.5353

> <Gold.PLP.Chemscore.Metal>
0.0000

> <Gold.Chemscore.Hbonds>
donor molecule, donor type, donor heavy atom, donor atom, acceptor molecule, acceptor atom, score
      P1  H  6896  6908       L1    11  0.99
      P1  H  7997  8008       L1     7  1.00
      P1  H 10752 10763       L1    26  0.30
      L1  C    27    59       P1  7949  0.33

> <Gold.PLP.Chemscore.Internal.Correction>
0.5770

> <Gold.Rescore>
     Score         DG    S(hbond)    S(metal)    S(lipo)     H(rot)  DE(clash)    DE(int)     intcor
      9.85     -12.45       1.84        0.00      86.26       3.62       0.04       2.55       ----

> <Gold.Chemscore.Fitness>
9.8539

> <Gold.Chemscore.DG>
-12.4463

> <Gold.Chemscore.ZeroCoef>
-5.4800

> <Gold.Chemscore.Hbond>
1.8372

> <Gold.Chemscore.Metal>
0.0000

> <Gold.Chemscore.Lipo>
86.2618

> <Gold.Chemscore.Internal_Hbond>
0.0000

> <Gold.Chemscore.DEClash>
0.0415

> <Gold.Chemscore.DEInternal>
2.5508

> <Gold.Chemscore.Rot>
3.6182

> <Gold.Chemscore.Internal.Correction>
   9.000000E+99

> <Gold.Chemscore.Hbonds>
donor molecule, donor type, donor heavy atom, donor atom, acceptor molecule, acceptor atom, score
      P1  H  6896  6908       L1    11  0.40
      P1  H  7997  8008       L1     7  0.39

> <Gold.Chemscore.Hbond.Weighted>
-6.1361

> <Gold.Chemscore.Metal.Weighted>
-0.0000

> <Gold.Chemscore.Lipo.Weighted>
-10.0926

> <Gold.Chemscore.Internal_Hbond.Weighted>
0.0000

> <Gold.Chemscore.DEClash.Weighted>
0.0415

> <Gold.Chemscore.DEInternal.Weighted>
2.5508

> <Gold.Chemscore.Rot.Weighted>
9.2625

> <Gold.Chemscore.Internal.Correction.Weighted>
   9.000000E+99

> <Gold.Protein.RotatedTorsions>
[ 6907 6896 6895 6894 ] final  175.38 input  -60.11 | X-H torsion
[ 7974 7965 7964 7962 ] final -135.01 input  175.53 | X-H torsion
[ 8008 7997 7996 7995 ] final  -56.73 input   59.86 | X-H torsion
[ 10167 10162 10161 10158 ] final  149.06 input  -65.29 | X-H torsion
[ 10718 10713 10712 10709 ] final  154.16 input   66.30 | X-H torsion
[ 10763 10752 10751 10750 ] final   70.79 input  -60.55 | X-H torsion
[ 11005 11000 10999 10996 ] final   52.65 input  -57.11 | X-H torsion

> <Gold.Protein.ActiveResidues>
 VAL166  LYS551  ARG553  GLY616  TRP617  ASP618  TYR619  PRO620  LYS621  CYS622 
 ASP623  PHE694  ASN695  SER759  ASP760  ASP761  ALA762  ILE779  LEU786  VAL792 
 PHE793  MET794  SER795  GLU796  ALA797  LYS798  CYS799  TRP800  GLU811  SER814 

> <Gold.Protein.RotatedAtoms>
  151.7372  133.3320  159.3355 H   0  0  0  0  0  0  0  0  0  0  0  0  # atno 6907 bound_to 6896
  150.7588  134.6310  159.6196 H   0  0  0  0  0  0  0  0  0  0  0  0  # atno 6908 bound_to 6896
  152.3554  134.6950  160.0275 H   0  0  0  0  0  0  0  0  0  0  0  0  # atno 6909 bound_to 6896
  144.9052  140.6823  143.5060 H   0  0  0  0  0  0  0  0  0  0  0  0  # atno 7974 bound_to 7965
  154.4241  140.1123  156.5685 H   0  0  0  0  0  0  0  0  0  0  0  0  # atno 8008 bound_to 7997
  155.6237  140.3495  155.4641 H   0  0  0  0  0  0  0  0  0  0  0  0  # atno 8009 bound_to 7997
  156.0004  140.1198  157.0543 H   0  0  0  0  0  0  0  0  0  0  0  0  # atno 8010 bound_to 7997
  139.4866  144.5631  151.7195 H   0  0  0  0  0  0  0  0  0  0  0  0  # atno 10167 bound_to 10162
  157.2353  131.0747  151.1827 H   0  0  0  0  0  0  0  0  0  0  0  0  # atno 10718 bound_to 10713
  153.0362  135.5161  154.7495 H   0  0  0  0  0  0  0  0  0  0  0  0  # atno 10763 bound_to 10752
  154.6470  135.2920  155.0036 H   0  0  0  0  0  0  0  0  0  0  0  0  # atno 10764 bound_to 10752
  154.0934  135.6647  153.4909 H   0  0  0  0  0  0  0  0  0  0  0  0  # atno 10765 bound_to 10752
  140.0832  134.5311  155.8926 H   0  0  0  0  0  0  0  0  0  0  0  0  # atno 11005 bound_to 11000
  145.3548  139.1697  143.4415 LP  0  0  0  0  0  0  0  0  0  0  0  0  # atno 17320 bound_to 7965
  146.3129  140.3604  142.8664 LP  0  0  0  0  0  0  0  0  0  0  0  0  # atno 17321 bound_to 7965
  140.5204  144.0888  150.6021 LP  0  0  0  0  0  0  0  0  0  0  0  0  # atno 17342 bound_to 10162
  140.3844  143.2785  152.0133 LP  0  0  0  0  0  0  0  0  0  0  0  0  # atno 17343 bound_to 10162
  157.3436  130.7046  149.6396 LP  0  0  0  0  0  0  0  0  0  0  0  0  # atno 17370 bound_to 10713
  155.9673  130.4273  150.4736 LP  0  0  0  0  0  0  0  0  0  0  0  0  # atno 17371 bound_to 10713
  141.2053  133.6646  156.6176 LP  0  0  0  0  0  0  0  0  0  0  0  0  # atno 17394 bound_to 11000
  140.3458  134.7810  157.4431 LP  0  0  0  0  0  0  0  0  0  0  0  0  # atno 17395 bound_to 11000

$$$$
