AV-unprocessed.smi:2001|AV-procd|sdf|8109|dock1
  -GOLD-   2272010333D 1   1.00000     0.00000
 Structure written by MMmdl.
 50 51  0  0  0  0  0  0  0  0  3 V2000
  146.1526  137.8295  162.2155 C   0  0  0  0  0  0  0  0  0  0  0  0
  145.3791  137.1792  161.2227 O   0  0  0  0  0  0  0  0  0  0  0  0
  144.3262  136.4068  161.7747 C   0  0  0  0  0  0  0  0  0  0  0  0
  144.9294  135.2378  162.5680 C   0  0  0  0  0  0  0  0  0  0  0  0
  145.9270  134.5093  161.7781 N   0  0  0  0  0  0  0  0  0  0  0  0
  145.4437  134.0105  160.5803 N   0  0  0  0  0  0  0  0  0  0  0  0
  146.2208  133.3509  159.7830 C   0  0  0  0  0  0  0  0  0  0  0  0
  145.6987  132.8106  158.4865 C   0  0  0  0  0  0  0  0  0  0  0  0
  144.4732  132.9045  158.3321 O   0  0  0  0  0  0  0  0  0  0  0  0
  146.5770  132.2670  157.5904 N   0  5  0  0  0  0  0  0  0  0  0  0
  146.3589  132.1624  156.1489 C   0  0  0  0  0  0  0  0  0  0  0  0
  146.6505  130.7224  155.6843 C   0  0  0  0  0  0  0  0  0  0  0  0
  146.1670  130.4722  154.3002 N   0  3  1  0  0  0  0  0  0  0  0  0
  146.2429  131.6750  153.4362 C   0  0  0  0  0  0  0  0  0  0  0  0
  145.6423  131.3808  152.0486 C   0  0  1  0  0  0  0  0  0  0  0  0
  145.7715  132.5767  151.0989 C   0  0  0  0  0  0  0  0  0  0  0  0
  146.3267  130.2755  151.4678 O   0  0  0  0  0  0  0  0  0  0  0  0
  146.1993  129.0856  152.2392 C   0  0  1  0  0  0  0  0  0  0  0  0
  146.8877  127.9457  151.4808 C   0  0  0  0  0  0  0  0  0  0  0  0
  146.8226  129.3200  153.6276 C   0  0  0  0  0  0  0  0  0  0  0  0
  147.6178  133.1258  160.1347 C   0  0  0  0  0  0  0  0  0  0  0  0
  148.0759  133.6240  161.3039 C   0  0  0  0  0  0  0  0  0  0  0  0
  147.2140  134.3745  162.2169 C   0  0  0  0  0  0  0  0  0  0  0  0
  147.6111  134.8460  163.2823 O   0  0  0  0  0  0  0  0  0  0  0  0
  146.9447  138.4091  161.7415 H   0  0  0  0  0  0  0  0  0  0  0  0
  146.6194  137.1077  162.8870 H   0  0  0  0  0  0  0  0  0  0  0  0
  145.5422  138.5139  162.8060 H   0  0  0  0  0  0  0  0  0  0  0  0
  143.7122  137.0268  162.4300 H   0  0  0  0  0  0  0  0  0  0  0  0
  143.6832  136.0332  160.9762 H   0  0  0  0  0  0  0  0  0  0  0  0
  145.3716  135.6041  163.4963 H   0  0  0  0  0  0  0  0  0  0  0  0
  144.1315  134.5594  162.8761 H   0  0  0  0  0  0  0  0  0  0  0  0
  145.3392  132.4219  155.8622 H   0  0  0  0  0  0  0  0  0  0  0  0
  147.0043  132.8487  155.5998 H   0  0  0  0  0  0  0  0  0  0  0  0
  147.7305  130.5697  155.7247 H   0  0  0  0  0  0  0  0  0  0  0  0
  146.2177  129.9924  156.3705 H   0  0  0  0  0  0  0  0  0  0  0  0
  145.6983  132.4971  153.9027 H   0  0  0  0  0  0  0  0  0  0  0  0
  147.2839  131.9895  153.3424 H   0  0  0  0  0  0  0  0  0  0  0  0
  144.5844  131.1328  152.1514 H   0  0  0  0  0  0  0  0  0  0  0  0
  145.2487  133.4488  151.4927 H   0  0  0  0  0  0  0  0  0  0  0  0
  145.3448  132.3469  150.1223 H   0  0  0  0  0  0  0  0  0  0  0  0
  146.8161  132.8519  150.9495 H   0  0  0  0  0  0  0  0  0  0  0  0
  145.1415  128.8396  152.3483 H   0  0  0  0  0  0  0  0  0  0  0  0
  146.8039  127.0052  152.0260 H   0  0  0  0  0  0  0  0  0  0  0  0
  147.9477  128.1529  151.3314 H   0  0  0  0  0  0  0  0  0  0  0  0
  146.4345  127.8013  150.4998 H   0  0  0  0  0  0  0  0  0  0  0  0
  147.8924  129.5143  153.5328 H   0  0  0  0  0  0  0  0  0  0  0  0
  146.7162  128.4185  154.2321 H   0  0  0  0  0  0  0  0  0  0  0  0
  148.2866  132.5785  159.4872 H   0  0  0  0  0  0  0  0  0  0  0  0
  149.1096  133.4652  161.5738 H   0  0  0  0  0  0  0  0  0  0  0  0
  145.1856  130.2489  154.3861 H   0  0  0  0  0  0  0  0  0  0  0  0
  1  2  1  0  0  0  0
  1 25  1  0  0  0  0
  1 26  1  0  0  0  0
  1 27  1  0  0  0  0
  2  3  1  0  0  0  0
  3  4  1  0  0  0  0
  3 28  1  0  0  0  0
  3 29  1  0  0  0  0
  4  5  1  0  0  0  0
  4 30  1  0  0  0  0
  4 31  1  0  0  0  0
  5 23  1  0  0  0  0
  5  6  1  0  0  0  0
  6  7  2  0  0  0  0
  7  8  1  0  0  0  0
  7 21  1  0  0  0  0
  8  9  2  0  0  0  0
  8 10  1  0  0  0  0
 10 11  1  0  0  0  0
 11 12  1  0  0  0  0
 11 32  1  0  0  0  0
 11 33  1  0  0  0  0
 12 13  1  0  0  0  0
 12 34  1  0  0  0  0
 12 35  1  0  0  0  0
 13 20  1  0  0  0  0
 13 14  1  0  0  0  0
 13 50  1  0  0  0  0
 14 15  1  0  0  0  0
 14 36  1  0  0  0  0
 14 37  1  0  0  0  0
 15 16  1  0  0  0  0
 15 17  1  0  0  0  0
 15 38  1  0  0  0  0
 16 39  1  0  0  0  0
 16 40  1  0  0  0  0
 16 41  1  0  0  0  0
 17 18  1  0  0  0  0
 18 19  1  0  0  0  0
 18 20  1  0  0  0  0
 18 42  1  0  0  0  0
 19 43  1  0  0  0  0
 19 44  1  0  0  0  0
 19 45  1  0  0  0  0
 20 46  1  0  0  0  0
 20 47  1  0  0  0  0
 21 22  2  0  0  0  0
 21 48  1  0  0  0  0
 22 23  1  0  0  0  0
 22 49  1  0  0  0  0
 23 24  2  0  0  0  0
M  CHG  1  10  -1
M  CHG  1  13   1
M  END
> <s_m_source_file>
AV-unprocessed.smi

> <i_m_source_file_index>
2001

> <i_lp_mmshare_version>
43012

> <i_f3d_flags>
0

> <s_epik_input>
W0NIM11PW0NIMl1bQ0gyXW4xbmMoW2NIXVtjSF1jMT1PKUMoPU8pW05IXVtDSDJdW0NIMl1OMltDSDJdW0NAQEhdKFtDSDNdKU9bQ0BASF0oW0NIM10pW0NIMl0y

> <s_epik_cmdline>
J2VwaWtfcHl0aG9uJywgJy1waCcsICc3LjAnLCAnLXRuJywgJzgnLCAnLW1hJywgJzIwMCcsICctbWV0YWxfYmluZGluZycsICctaW1hZScsICc8aW5maWxlLm1hZT4nLCAnLW9tYWUnLCAnPG91dGZpbGUubWFlPic=

> <r_lp_tautomer_probability>
1

> <r_epik_Ionization_Penalty>
6.90846

> <r_epik_Ionization_Penalty_Charging>
6.90846

> <r_epik_Ionization_Penalty_Neutral>
1.08445e-11

> <r_epik_State_Penalty>
7.54671

> <r_epik_Charging_Adjusted_Penalty>
14.4552

> <i_epik_Tot_Q>
0

> <i_epik_Tot_abs_Q>
2

> <r_epik_Metal_State_Penalty>
3.46181

> <b_epik_Metal_Only>
1

> <s_lp_Force_Field>
OPLS_2005

> <r_lp_Energy>
40.5373

> <b_lp_Chiralities_Consistent>
1

> <s_lp_Variant>
AV-unprocessed.smi:2001-8

> <Gold.Version>
5.8.1

> <Gold.Id.Protein>
6NUR|6NUR_protein|mol2

> <Gold.PLP.Fitness>
41.0955

> <Gold.PLP.PLP>
-35.8896

> <Gold.PLP.part.hbond>
-2.6367

> <Gold.PLP.part.metal>
0.0000

> <Gold.PLP.part.buried>
-6.9390

> <Gold.PLP.part.nonpolar>
-26.1621

> <Gold.PLP.part.repulsive>
0.8549

> <Gold.PLP.ligand.clash>
0.0000

> <Gold.PLP.ligand.torsion>
0.5495

> <Gold.PLP.Chemscore.Hbond>
2.0000

> <Gold.PLP.Chemscore.CHOScore>
0.0000

> <Gold.PLP.Chemscore.Metal>
0.0000

> <Gold.Chemscore.Hbonds>
donor molecule, donor type, donor heavy atom, donor atom, acceptor molecule, acceptor atom, score
      L1  H    13    50       P1 10956  1.85

> <Gold.PLP.Chemscore.Internal.Correction>
0.3050

> <Gold.Rescore>
     Score         DG    S(hbond)    S(metal)    S(lipo)     H(rot)  DE(clash)    DE(int)     intcor
     11.31     -11.79       0.94        0.00      71.31       2.02       0.02       0.46       ----

> <Gold.Chemscore.Fitness>
11.3124

> <Gold.Chemscore.DG>
-11.7853

> <Gold.Chemscore.ZeroCoef>
-5.4800

> <Gold.Chemscore.Hbond>
0.9363

> <Gold.Chemscore.Metal>
0.0000

> <Gold.Chemscore.Lipo>
71.3143

> <Gold.Chemscore.Internal_Hbond>
0.0000

> <Gold.Chemscore.DEClash>
0.0163

> <Gold.Chemscore.DEInternal>
0.4566

> <Gold.Chemscore.Rot>
2.0179

> <Gold.Chemscore.Internal.Correction>
   9.000000E+99

> <Gold.Chemscore.Hbonds>
donor molecule, donor type, donor heavy atom, donor atom, acceptor molecule, acceptor atom, score
      L1  H    13    50       P1 10956  0.23

> <Gold.Chemscore.Hbond.Weighted>
-3.1274

> <Gold.Chemscore.Metal.Weighted>
-0.0000

> <Gold.Chemscore.Lipo.Weighted>
-8.3438

> <Gold.Chemscore.Internal_Hbond.Weighted>
0.0000

> <Gold.Chemscore.DEClash.Weighted>
0.0163

> <Gold.Chemscore.DEInternal.Weighted>
0.4566

> <Gold.Chemscore.Rot.Weighted>
5.1659

> <Gold.Chemscore.Internal.Correction.Weighted>
   9.000000E+99

> <Gold.Protein.RotatedTorsions>
[ 6907 6896 6895 6894 ] final -159.18 input  -60.11 | X-H torsion
[ 7974 7965 7964 7962 ] final   29.54 input  175.53 | X-H torsion
[ 8008 7997 7996 7995 ] final  176.95 input   59.86 | X-H torsion
[ 10167 10162 10161 10158 ] final   93.73 input  -65.29 | X-H torsion
[ 10718 10713 10712 10709 ] final  -76.40 input   66.30 | X-H torsion
[ 10763 10752 10751 10750 ] final  -67.05 input  -60.55 | X-H torsion
[ 11005 11000 10999 10996 ] final   33.46 input  -57.11 | X-H torsion

> <Gold.Protein.ActiveResidues>
 VAL166  LYS551  ARG553  GLY616  TRP617  ASP618  TYR619  PRO620  LYS621  CYS622 
 ASP623  PHE694  ASN695  SER759  ASP760  ASP761  ALA762  ILE779  LEU786  VAL792 
 PHE793  MET794  SER795  GLU796  ALA797  LYS798  CYS799  TRP800  GLU811  SER814 

> <Gold.Protein.RotatedAtoms>
  151.3296  133.4006  159.2661 H   0  0  0  0  0  0  0  0  0  0  0  0  # atno 6907 bound_to 6896
  150.9966  134.9289  159.7941 H   0  0  0  0  0  0  0  0  0  0  0  0  # atno 6908 bound_to 6896
  152.5263  134.3261  159.9218 H   0  0  0  0  0  0  0  0  0  0  0  0  # atno 6909 bound_to 6896
  146.1665  139.6907  142.8997 H   0  0  0  0  0  0  0  0  0  0  0  0  # atno 7974 bound_to 7965
  156.0709  140.1370  156.9830 H   0  0  0  0  0  0  0  0  0  0  0  0  # atno 8008 bound_to 7997
  154.4531  140.0972  156.6729 H   0  0  0  0  0  0  0  0  0  0  0  0  # atno 8009 bound_to 7997
  155.5229  140.3456  155.4413 H   0  0  0  0  0  0  0  0  0  0  0  0  # atno 8010 bound_to 7997
  139.8151  144.6756  150.9590 H   0  0  0  0  0  0  0  0  0  0  0  0  # atno 10167 bound_to 10162
  156.0176  130.4465  150.3188 H   0  0  0  0  0  0  0  0  0  0  0  0  # atno 10718 bound_to 10713
  154.3688  135.6100  153.5729 H   0  0  0  0  0  0  0  0  0  0  0  0  # atno 10763 bound_to 10752
  152.9791  135.5833  154.4546 H   0  0  0  0  0  0  0  0  0  0  0  0  # atno 10764 bound_to 10752
  154.4297  135.2847  155.1898 H   0  0  0  0  0  0  0  0  0  0  0  0  # atno 10765 bound_to 10752
  140.2629  134.3171  155.7852 H   0  0  0  0  0  0  0  0  0  0  0  0  # atno 11005 bound_to 11000
  145.4454  141.0425  143.2834 LP  0  0  0  0  0  0  0  0  0  0  0  0  # atno 17320 bound_to 7965
  144.8100  139.5980  143.7034 LP  0  0  0  0  0  0  0  0  0  0  0  0  # atno 17321 bound_to 7965
  140.7816  143.4146  151.0937 LP  0  0  0  0  0  0  0  0  0  0  0  0  # atno 17342 bound_to 10162
  139.7810  143.8355  152.3137 LP  0  0  0  0  0  0  0  0  0  0  0  0  # atno 17343 bound_to 10162
  157.1289  131.0266  151.2978 LP  0  0  0  0  0  0  0  0  0  0  0  0  # atno 17370 bound_to 10713
  157.4567  130.7629  149.7199 LP  0  0  0  0  0  0  0  0  0  0  0  0  # atno 17371 bound_to 10713
  141.2188  133.7420  156.9215 LP  0  0  0  0  0  0  0  0  0  0  0  0  # atno 17394 bound_to 11000
  140.1447  134.9270  157.2514 LP  0  0  0  0  0  0  0  0  0  0  0  0  # atno 17395 bound_to 11000

$$$$
