AV-unprocessed.smi:2243|AV-procd|sdf|9064|dock9
  -GOLD-   2272012273D 1   1.00000     0.00000
 Structure written by MMmdl.
 35 36  0  0  0  0  0  0  0  0  2 V2000
  144.6200  135.6692  151.1401 C   0  0  0  0  0  0  0  0  0  0  0  0
  145.5212  135.3829  152.3537 C   0  0  2  0  0  0  0  0  0  0  0  0
  146.4837  136.4796  152.4698 N   0  0  0  0  0  0  0  0  0  0  0  0
  146.2245  137.7085  152.9437 C   0  0  0  0  0  0  0  0  0  0  0  0
  145.1214  138.0682  153.3562 O   0  0  0  0  0  0  0  0  0  0  0  0
  147.3158  138.4886  152.9131 N   0  0  0  0  0  0  0  0  0  0  0  0
  147.3795  139.8344  153.3422 C   0  0  0  0  0  0  0  0  0  0  0  0
  146.4466  140.7471  153.0749 N   0  3  0  0  0  0  0  0  0  0  0  0
  146.8235  141.9408  153.6388 C   0  0  0  0  0  0  0  0  0  0  0  0
  148.0270  141.6987  154.2565 C   0  0  0  0  0  0  0  0  0  0  0  0
  148.3897  140.3785  154.0789 O   0  0  0  0  0  0  0  0  0  0  0  0
  146.2561  134.0185  152.2652 C   0  0  0  0  0  0  0  0  0  0  0  0
  145.2810  132.8258  152.1848 C   0  0  0  0  0  0  0  0  0  0  0  0
  146.0327  131.4848  152.1799 C   0  0  0  0  0  0  0  0  0  0  0  0
  146.8548  131.3820  153.3354 O   0  0  0  0  0  0  0  0  0  0  0  0
  147.8589  132.3874  153.3836 C   0  0  0  0  0  0  0  0  0  0  0  0
  147.2079  133.7779  153.4569 C   0  0  0  0  0  0  0  0  0  0  0  0
  143.7950  134.9607  151.0728 H   0  0  0  0  0  0  0  0  0  0  0  0
  145.1811  135.6208  150.2064 H   0  0  0  0  0  0  0  0  0  0  0  0
  144.1756  136.6629  151.2088 H   0  0  0  0  0  0  0  0  0  0  0  0
  144.8790  135.3606  153.2360 H   0  0  0  0  0  0  0  0  0  0  0  0
  147.4227  136.2816  152.1559 H   0  0  0  0  0  0  0  0  0  0  0  0
  145.5901  140.6235  152.5493 H   0  0  0  0  0  0  0  0  0  0  0  0
  146.2104  142.8258  153.5465 H   0  0  0  0  0  0  0  0  0  0  0  0
  148.7104  142.3115  154.8262 H   0  0  0  0  0  0  0  0  0  0  0  0
  146.8590  134.0178  151.3557 H   0  0  0  0  0  0  0  0  0  0  0  0
  144.5953  132.8510  153.0327 H   0  0  0  0  0  0  0  0  0  0  0  0
  144.6690  132.8850  151.2853 H   0  0  0  0  0  0  0  0  0  0  0  0
  145.3214  130.6587  152.1818 H   0  0  0  0  0  0  0  0  0  0  0  0
  146.6380  131.3808  151.2779 H   0  0  0  0  0  0  0  0  0  0  0  0
  148.4815  132.2193  154.2626 H   0  0  0  0  0  0  0  0  0  0  0  0
  148.5113  132.3085  152.5123 H   0  0  0  0  0  0  0  0  0  0  0  0
  147.9939  134.5324  153.4852 H   0  0  0  0  0  0  0  0  0  0  0  0
  146.6553  133.8693  154.3930 H   0  0  0  0  0  0  0  0  0  0  0  0
  148.1694  138.0880  152.5534 H   0  0  0  0  0  0  0  0  0  0  0  0
  1  2  1  0  0  0  0
  1 18  1  0  0  0  0
  1 19  1  0  0  0  0
  1 20  1  0  0  0  0
  2  3  1  0  0  0  0
  2 12  1  0  0  0  0
  2 21  1  0  0  0  0
  3 22  1  0  0  0  0
  3  4  1  0  0  0  0
  4  6  1  0  0  0  0
  4  5  2  0  0  0  0
  6  7  1  0  0  0  0
  6 35  1  0  0  0  0
  7 11  1  0  0  0  0
  7  8  2  0  0  0  0
  8 23  1  0  0  0  0
  8  9  1  0  0  0  0
  9 24  1  0  0  0  0
  9 10  2  0  0  0  0
 10 25  1  0  0  0  0
 10 11  1  0  0  0  0
 12 17  1  0  0  0  0
 12 13  1  0  0  0  0
 12 26  1  0  0  0  0
 13 14  1  0  0  0  0
 13 27  1  0  0  0  0
 13 28  1  0  0  0  0
 14 15  1  0  0  0  0
 14 29  1  0  0  0  0
 14 30  1  0  0  0  0
 15 16  1  0  0  0  0
 16 17  1  0  0  0  0
 16 31  1  0  0  0  0
 16 32  1  0  0  0  0
 17 33  1  0  0  0  0
 17 34  1  0  0  0  0
M  CHG  1   8   1
M  END
> <s_m_source_file>
AV-unprocessed.smi

> <i_m_source_file_index>
2243

> <i_lp_mmshare_version>
43012

> <i_f3d_flags>
0

> <s_epik_input>
W0NIMl0xW0NIMl1PW0NIMl1bQ0gyXVtDSF0xW0NASF0oW0NIM10pW05IXUMoPU8pW05IXWMybltjSF1bY0hdbzI=

> <s_epik_cmdline>
J2VwaWtfcHl0aG9uJywgJy1waCcsICc3LjAnLCAnLXRuJywgJzgnLCAnLW1hJywgJzIwMCcsICctbWV0YWxfYmluZGluZycsICctaW1hZScsICc8aW5maWxlLm1hZT4nLCAnLW9tYWUnLCAnPG91dGZpbGUubWFlPic=

> <r_epik_Ionization_Penalty>
6.61405

> <r_epik_Ionization_Penalty_Charging>
6.55981

> <r_epik_Ionization_Penalty_Neutral>
0.0542461

> <r_epik_State_Penalty>
1.79186

> <r_epik_Charging_Adjusted_Penalty>
8.35167

> <i_epik_Tot_Q>
1

> <i_epik_Tot_abs_Q>
1

> <r_epik_Metal_State_Penalty>
1.80655

> <b_epik_Metal_Only>
0

> <s_lp_Force_Field>
OPLS_2005

> <r_lp_Energy>
19.6033

> <b_lp_Chiralities_Consistent>
1

> <s_lp_Variant>
AV-unprocessed.smi:2243-3

> <Gold.Version>
5.8.1

> <Gold.Id.Protein>
6NUR|6NUR_protein|mol2

> <Gold.PLP.Fitness>
38.9069

> <Gold.PLP.PLP>
-26.4388

> <Gold.PLP.part.hbond>
-3.1675

> <Gold.PLP.part.metal>
0.0000

> <Gold.PLP.part.buried>
-4.7751

> <Gold.PLP.part.nonpolar>
-20.1995

> <Gold.PLP.part.repulsive>
1.2692

> <Gold.PLP.ligand.clash>
0.0000

> <Gold.PLP.ligand.torsion>
0.6049

> <Gold.PLP.Chemscore.Hbond>
3.6808

> <Gold.PLP.Chemscore.CHOScore>
0.8732

> <Gold.PLP.Chemscore.Metal>
0.0000

> <Gold.Chemscore.Hbonds>
donor molecule, donor type, donor heavy atom, donor atom, acceptor molecule, acceptor atom, score
      L1  H     3    22       P1  7948  1.00
      L1  H     6    35       P1  7948  0.68
      L1  H     8    23       P1 10175  2.00
      L1  C    10    25       P1  8028  0.98

> <Gold.PLP.Chemscore.Internal.Correction>
0.0157

> <Gold.Rescore>
     Score         DG    S(hbond)    S(metal)    S(lipo)     H(rot)  DE(clash)    DE(int)     intcor
     17.30     -17.86       2.90        0.00      52.23       1.33       0.01       0.54       ----

> <Gold.Chemscore.Fitness>
17.3034

> <Gold.Chemscore.DG>
-17.8560

> <Gold.Chemscore.ZeroCoef>
-5.4800

> <Gold.Chemscore.Hbond>
2.8969

> <Gold.Chemscore.Metal>
0.0000

> <Gold.Chemscore.Lipo>
52.2269

> <Gold.Chemscore.Internal_Hbond>
0.0000

> <Gold.Chemscore.DEClash>
0.0106

> <Gold.Chemscore.DEInternal>
0.5419

> <Gold.Chemscore.Rot>
1.3321

> <Gold.Chemscore.Internal.Correction>
   9.000000E+99

> <Gold.Chemscore.Hbonds>
donor molecule, donor type, donor heavy atom, donor atom, acceptor molecule, acceptor atom, score
      L1  H     3    22       P1  7948  0.94
      L1  H     6    35       P1  7948  0.65
      L1  H     8    23       P1 10175  0.38

> <Gold.Chemscore.Hbond.Weighted>
-9.6758

> <Gold.Chemscore.Metal.Weighted>
-0.0000

> <Gold.Chemscore.Lipo.Weighted>
-6.1105

> <Gold.Chemscore.Internal_Hbond.Weighted>
0.0000

> <Gold.Chemscore.DEClash.Weighted>
0.0106

> <Gold.Chemscore.DEInternal.Weighted>
0.5419

> <Gold.Chemscore.Rot.Weighted>
3.4103

> <Gold.Chemscore.Internal.Correction.Weighted>
   9.000000E+99

> <Gold.Protein.RotatedTorsions>
[ 6907 6896 6895 6894 ] final  -46.55 input  -60.11 | X-H torsion
[ 7974 7965 7964 7962 ] final -132.24 input  175.53 | X-H torsion
[ 8008 7997 7996 7995 ] final  145.80 input   59.86 | X-H torsion
[ 10167 10162 10161 10158 ] final  -59.17 input  -65.29 | X-H torsion
[ 10718 10713 10712 10709 ] final  178.72 input   66.30 | X-H torsion
[ 10763 10752 10751 10750 ] final -143.88 input  -60.55 | X-H torsion
[ 11005 11000 10999 10996 ] final   93.72 input  -57.11 | X-H torsion

> <Gold.Protein.ActiveResidues>
 VAL166  LYS551  ARG553  GLY616  TRP617  ASP618  TYR619  PRO620  LYS621  CYS622 
 ASP623  PHE694  ASN695  SER759  ASP760  ASP761  ALA762  ILE779  LEU786  VAL792 
 PHE793  MET794  SER795  GLU796  ALA797  LYS798  CYS799  TRP800  GLU811  SER814 

> <Gold.Protein.RotatedAtoms>
  150.9101  134.8517  159.7418 H   0  0  0  0  0  0  0  0  0  0  0  0  # atno 6907 bound_to 6896
  152.4939  134.4372  159.9541 H   0  0  0  0  0  0  0  0  0  0  0  0  # atno 6908 bound_to 6896
  151.4416  133.3602  159.2817 H   0  0  0  0  0  0  0  0  0  0  0  0  # atno 6909 bound_to 6896
  144.9304  140.7122  143.4909 H   0  0  0  0  0  0  0  0  0  0  0  0  # atno 7974 bound_to 7965
  156.2873  140.2199  156.5273 H   0  0  0  0  0  0  0  0  0  0  0  0  # atno 8008 bound_to 7997
  154.7478  140.0482  157.0889 H   0  0  0  0  0  0  0  0  0  0  0  0  # atno 8009 bound_to 7997
  155.0148  140.3117  155.4819 H   0  0  0  0  0  0  0  0  0  0  0  0  # atno 8010 bound_to 7997
  140.6152  143.2400  151.5614 H   0  0  0  0  0  0  0  0  0  0  0  0  # atno 10167 bound_to 10162
  156.8863  130.9832  151.3055 H   0  0  0  0  0  0  0  0  0  0  0  0  # atno 10718 bound_to 10713
  154.8451  135.3455  154.6258 H   0  0  0  0  0  0  0  0  0  0  0  0  # atno 10763 bound_to 10752
  153.6867  135.6977  153.5106 H   0  0  0  0  0  0  0  0  0  0  0  0  # atno 10764 bound_to 10752
  153.2626  135.4318  155.0865 H   0  0  0  0  0  0  0  0  0  0  0  0  # atno 10765 bound_to 10752
  139.8806  134.8806  156.3759 H   0  0  0  0  0  0  0  0  0  0  0  0  # atno 11005 bound_to 11000
  145.3151  139.1806  143.4618 LP  0  0  0  0  0  0  0  0  0  0  0  0  # atno 17320 bound_to 7965
  146.3244  140.3161  142.8630 LP  0  0  0  0  0  0  0  0  0  0  0  0  # atno 17321 bound_to 7965
  139.5393  144.2693  152.1317 LP  0  0  0  0  0  0  0  0  0  0  0  0  # atno 17342 bound_to 10162
  140.1901  144.4760  150.6483 LP  0  0  0  0  0  0  0  0  0  0  0  0  # atno 17343 bound_to 10162
  157.6110  130.8583  149.8952 LP  0  0  0  0  0  0  0  0  0  0  0  0  # atno 17370 bound_to 10713
  156.0651  130.3693  150.0896 LP  0  0  0  0  0  0  0  0  0  0  0  0  # atno 17371 bound_to 10713
  140.9432  133.7501  156.0173 LP  0  0  0  0  0  0  0  0  0  0  0  0  # atno 17394 bound_to 11000
  140.8195  134.3306  157.5386 LP  0  0  0  0  0  0  0  0  0  0  0  0  # atno 17395 bound_to 11000

$$$$
