AV-unprocessed.smi:2807|AV-procd|sdf|10822|dock10
  -GOLD-   2272015263D 1   1.00000     0.00000
 Structure written by MMmdl.
 31 32  0  0  0  0  0  0  0  0  2 V2000
  151.7178  140.0522  155.1380 O   0  0  0  0  0  0  0  0  0  0  0  0
  151.6179  140.0091  156.3696 C   0  0  0  0  0  0  0  0  0  0  0  0
  152.2465  139.1978  157.2674 N   0  5  0  0  0  0  0  0  0  0  0  0
  152.0543  137.7453  157.3522 C   0  0  2  0  0  0  0  0  0  0  0  0
  150.5513  137.4317  157.4036 C   0  0  0  0  0  0  0  0  0  0  0  0
  150.1394  137.4668  158.8873 C   0  0  0  0  0  0  0  0  0  0  0  0
  151.4387  137.4708  159.7074 C   0  0  0  0  0  0  0  0  0  0  0  0
  152.5559  137.1838  158.6963 C   0  0  2  0  0  0  0  0  0  0  0  0
  153.8110  137.6872  159.1127 O   0  0  0  0  0  0  0  0  0  0  0  0
  150.6449  140.9866  157.0625 C   0  0  0  0  0  0  0  0  0  0  0  0
  150.1013  141.8036  156.1537 F   0  0  0  0  0  0  0  0  0  0  0  0
  149.6499  140.2861  157.6131 F   0  0  0  0  0  0  0  0  0  0  0  0
  151.3570  141.7761  158.1603 C   0  0  0  0  0  0  0  0  0  0  0  0
  151.5599  143.1688  158.0273 C   0  0  0  0  0  0  0  0  0  0  0  0
  152.2070  143.8608  159.0686 C   0  0  0  0  0  0  0  0  0  0  0  0
  152.6290  143.1407  160.2021 C   0  0  0  0  0  0  0  0  0  0  0  0
  152.3825  141.7543  160.2434 C   0  0  0  0  0  0  0  0  0  0  0  0
  151.7642  141.0814  159.2502 N   0  0  0  0  0  0  0  0  0  0  0  0
  152.5212  137.2123  156.5224 H   0  0  0  0  0  0  0  0  0  0  0  0
  149.9515  138.1047  156.7887 H   0  0  0  0  0  0  0  0  0  0  0  0
  150.3882  136.4248  157.0173 H   0  0  0  0  0  0  0  0  0  0  0  0
  149.5516  138.3590  159.1087 H   0  0  0  0  0  0  0  0  0  0  0  0
  149.5194  136.6036  159.1324 H   0  0  0  0  0  0  0  0  0  0  0  0
  151.5755  138.4525  160.1667 H   0  0  0  0  0  0  0  0  0  0  0  0
  151.4209  136.7383  160.5149 H   0  0  0  0  0  0  0  0  0  0  0  0
  152.6552  136.1025  158.5909 H   0  0  0  0  0  0  0  0  0  0  0  0
  154.0227  137.2900  159.9436 H   0  0  0  0  0  0  0  0  0  0  0  0
  151.2180  143.6958  157.1487 H   0  0  0  0  0  0  0  0  0  0  0  0
  152.3749  144.9254  158.9999 H   0  0  0  0  0  0  0  0  0  0  0  0
  153.1275  143.6379  161.0207 H   0  0  0  0  0  0  0  0  0  0  0  0
  152.6918  141.1695  161.0970 H   0  0  0  0  0  0  0  0  0  0  0  0
  1  2  2  0  0  0  0
  2  3  1  0  0  0  0
  2 10  1  0  0  0  0
  3  4  1  0  0  0  0
  4  8  1  0  0  0  0
  4  5  1  0  0  0  0
  4 19  1  0  0  0  0
  5  6  1  0  0  0  0
  5 20  1  0  0  0  0
  5 21  1  0  0  0  0
  6  7  1  0  0  0  0
  6 22  1  0  0  0  0
  6 23  1  0  0  0  0
  7  8  1  0  0  0  0
  7 24  1  0  0  0  0
  7 25  1  0  0  0  0
  8  9  1  0  0  0  0
  8 26  1  0  0  0  0
  9 27  1  0  0  0  0
 10 11  1  0  0  0  0
 10 12  1  0  0  0  0
 10 13  1  0  0  0  0
 13 18  1  0  0  0  0
 13 14  2  0  0  0  0
 14 15  1  0  0  0  0
 14 28  1  0  0  0  0
 15 16  2  0  0  0  0
 15 29  1  0  0  0  0
 16 17  1  0  0  0  0
 16 30  1  0  0  0  0
 17 18  2  0  0  0  0
 17 31  1  0  0  0  0
M  CHG  1   3  -1
M  END
> <s_m_source_file>
AV-unprocessed.smi

> <i_m_source_file_index>
2807

> <i_lp_mmshare_version>
43012

> <i_f3d_flags>
0

> <s_epik_input>
bjFbY0hdW2NIXVtjSF1bY0hdYzFDKEYpKEYpQyg9TylbTkhdW0NAQEhdMltDSDJdW0NIMl1bQ0gyXVtDQEhdMltPSF0=

> <s_epik_cmdline>
J2VwaWtfcHl0aG9uJywgJy1waCcsICc3LjAnLCAnLXRuJywgJzgnLCAnLW1hJywgJzIwMCcsICctbWV0YWxfYmluZGluZycsICctaW1hZScsICc8aW5maWxlLm1hZT4nLCAnLW9tYWUnLCAnPG91dGZpbGUubWFlPic=

> <r_lp_tautomer_probability>
1

> <r_epik_Ionization_Penalty>
5.72231

> <r_epik_Ionization_Penalty_Charging>
5.72231

> <r_epik_Ionization_Penalty_Neutral>
5.49816e-06

> <r_epik_State_Penalty>
5.72227

> <r_epik_Charging_Adjusted_Penalty>
11.4446

> <i_epik_Tot_Q>
-1

> <i_epik_Tot_abs_Q>
1

> <r_epik_Metal_State_Penalty>
1.70075

> <b_epik_Metal_Only>
1

> <s_lp_Force_Field>
OPLS_2005

> <r_lp_Energy>
37.6883

> <b_lp_Chiralities_Consistent>
1

> <s_lp_Variant>
AV-unprocessed.smi:2807-7

> <Gold.Version>
5.8.1

> <Gold.Id.Protein>
6NUR|6NUR_protein|mol2

> <Gold.PLP.Fitness>
43.6049

> <Gold.PLP.PLP>
-35.1867

> <Gold.PLP.part.hbond>
-3.0000

> <Gold.PLP.part.metal>
0.0000

> <Gold.PLP.part.buried>
-4.9663

> <Gold.PLP.part.nonpolar>
-27.6953

> <Gold.PLP.part.repulsive>
0.0472

> <Gold.PLP.ligand.clash>
0.4012

> <Gold.PLP.ligand.torsion>
1.0825

> <Gold.PLP.Chemscore.Hbond>
3.6400

> <Gold.PLP.Chemscore.CHOScore>
0.0000

> <Gold.PLP.Chemscore.Metal>
0.0000

> <Gold.Chemscore.Hbonds>
donor molecule, donor type, donor heavy atom, donor atom, acceptor molecule, acceptor atom, score
      P1  H  7989  7998       L1     1  0.96

> <Gold.PLP.Chemscore.Internal.Correction>
0.0643

> <Gold.Rescore>
     Score         DG    S(hbond)    S(metal)    S(lipo)     H(rot)  DE(clash)    DE(int)     intcor
     14.86     -17.95       2.19        0.00      87.62       2.00       0.06       3.03       ----

> <Gold.Chemscore.Fitness>
14.8583

> <Gold.Chemscore.DG>
-17.9464

> <Gold.Chemscore.ZeroCoef>
-5.4800

> <Gold.Chemscore.Hbond>
2.1934

> <Gold.Chemscore.Metal>
0.0000

> <Gold.Chemscore.Lipo>
87.6188

> <Gold.Chemscore.Internal_Hbond>
0.0000

> <Gold.Chemscore.DEClash>
0.0620

> <Gold.Chemscore.DEInternal>
3.0260

> <Gold.Chemscore.Rot>
1.9964

> <Gold.Chemscore.Internal.Correction>
   9.000000E+99

> <Gold.Chemscore.Hbonds>
donor molecule, donor type, donor heavy atom, donor atom, acceptor molecule, acceptor atom, score
      P1  H  7989  7998       L1     1  0.92

> <Gold.Chemscore.Hbond.Weighted>
-7.3258

> <Gold.Chemscore.Metal.Weighted>
-0.0000

> <Gold.Chemscore.Lipo.Weighted>
-10.2514

> <Gold.Chemscore.Internal_Hbond.Weighted>
0.0000

> <Gold.Chemscore.DEClash.Weighted>
0.0620

> <Gold.Chemscore.DEInternal.Weighted>
3.0260

> <Gold.Chemscore.Rot.Weighted>
5.1108

> <Gold.Chemscore.Internal.Correction.Weighted>
   9.000000E+99

> <Gold.Protein.RotatedTorsions>
[ 6907 6896 6895 6894 ] final  165.78 input  -60.11 | X-H torsion
[ 7974 7965 7964 7962 ] final   33.68 input  175.53 | X-H torsion
[ 8008 7997 7996 7995 ] final   80.55 input   59.86 | X-H torsion
[ 10167 10162 10161 10158 ] final  -21.76 input  -65.29 | X-H torsion
[ 10718 10713 10712 10709 ] final -156.04 input   66.30 | X-H torsion
[ 10763 10752 10751 10750 ] final -161.17 input  -60.55 | X-H torsion
[ 11005 11000 10999 10996 ] final  140.30 input  -57.11 | X-H torsion

> <Gold.Protein.ActiveResidues>
 VAL166  LYS551  ARG553  GLY616  TRP617  ASP618  TYR619  PRO620  LYS621  CYS622 
 ASP623  PHE694  ASN695  SER759  ASP760  ASP761  ALA762  ILE779  LEU786  VAL792 
 PHE793  MET794  SER795  GLU796  ALA797  LYS798  CYS799  TRP800  GLU811  SER814 

> <Gold.Protein.RotatedAtoms>
  151.8892  133.3512  159.3792 H   0  0  0  0  0  0  0  0  0  0  0  0  # atno 6907 bound_to 6896
  150.7107  134.4941  159.5539 H   0  0  0  0  0  0  0  0  0  0  0  0  # atno 6908 bound_to 6896
  152.2508  134.8135  160.0497 H   0  0  0  0  0  0  0  0  0  0  0  0  # atno 6909 bound_to 6896
  146.1404  139.6366  142.9166 H   0  0  0  0  0  0  0  0  0  0  0  0  # atno 7974 bound_to 7965
  155.8851  140.3442  155.5915 H   0  0  0  0  0  0  0  0  0  0  0  0  # atno 8008 bound_to 7997
  155.7675  140.0841  157.2143 H   0  0  0  0  0  0  0  0  0  0  0  0  # atno 8009 bound_to 7997
  154.4028  140.1524  156.2891 H   0  0  0  0  0  0  0  0  0  0  0  0  # atno 8010 bound_to 7997
  140.7283  143.4597  151.0397 H   0  0  0  0  0  0  0  0  0  0  0  0  # atno 10167 bound_to 10162
  156.5210  130.8478  151.2682 H   0  0  0  0  0  0  0  0  0  0  0  0  # atno 10718 bound_to 10713
  154.7327  135.3050  154.8864 H   0  0  0  0  0  0  0  0  0  0  0  0  # atno 10763 bound_to 10752
  153.9702  135.6742  153.4751 H   0  0  0  0  0  0  0  0  0  0  0  0  # atno 10764 bound_to 10752
  153.0933  135.4948  154.8653 H   0  0  0  0  0  0  0  0  0  0  0  0  # atno 10765 bound_to 10752
  140.0317  134.9349  157.0675 H   0  0  0  0  0  0  0  0  0  0  0  0  # atno 11005 bound_to 11000
  145.5059  141.0436  143.2515 LP  0  0  0  0  0  0  0  0  0  0  0  0  # atno 17320 bound_to 7965
  144.7786  139.6574  143.7164 LP  0  0  0  0  0  0  0  0  0  0  0  0  # atno 17321 bound_to 7965
  139.8281  143.7729  152.3179 LP  0  0  0  0  0  0  0  0  0  0  0  0  # atno 17342 bound_to 10162
  139.7834  144.7436  151.0055 LP  0  0  0  0  0  0  0  0  0  0  0  0  # atno 17343 bound_to 10162
  157.7437  130.9917  150.2611 LP  0  0  0  0  0  0  0  0  0  0  0  0  # atno 17370 bound_to 10713
  156.3149  130.3777  149.7627 LP  0  0  0  0  0  0  0  0  0  0  0  0  # atno 17371 bound_to 10713
  140.4215  134.1876  155.7164 LP  0  0  0  0  0  0  0  0  0  0  0  0  # atno 17394 bound_to 11000
  141.1834  133.8364  157.1174 LP  0  0  0  0  0  0  0  0  0  0  0  0  # atno 17395 bound_to 11000

$$$$
