AV-unprocessed.smi:1914|AV-procd|sdf|7758|dock5
  -GOLD-   22720 9503D 1   1.00000     0.00000
 Structure written by MMmdl.
 44 45  0  0  0  0  0  0  0  0  2 V2000
  143.6108  134.8517  151.9033 C   0  0  0  0  0  0  0  0  0  0  0  0
  144.8055  134.7193  150.9425 C   0  0  2  0  0  0  0  0  0  0  0  0
  144.4017  134.1783  149.5585 C   0  0  0  0  0  0  0  0  0  0  0  0
  144.0924  132.6756  149.6165 C   0  0  0  0  0  0  0  0  0  0  0  0
  145.2578  131.8970  150.2471 C   0  0  0  0  0  0  0  0  0  0  0  0
  145.5877  132.4256  151.5958 N   0  3  1  0  0  0  0  0  0  0  0  0
  146.6047  131.5962  152.2899 C   0  0  0  0  0  0  0  0  0  0  0  0
  146.2539  130.0997  152.2695 C   0  0  0  0  0  0  0  0  0  0  0  0
  147.4019  129.3147  151.8383 N   0  0  0  0  0  0  0  0  0  0  0  0
  147.4576  127.9759  151.8695 C   0  0  0  0  0  0  0  0  0  0  0  0
  146.5245  127.2746  152.2626 O   0  0  0  0  0  0  0  0  0  0  0  0
  148.7589  127.3419  151.3571 C   0  0  0  0  0  0  0  0  0  0  0  0
  148.6913  125.8743  151.2581 N   0  0  0  0  0  0  0  0  0  0  0  0
  149.0341  125.2965  150.0194 C   0  0  0  0  0  0  0  0  0  0  0  0
  149.0069  123.9687  149.8238 C   0  0  0  0  0  0  0  0  0  0  0  0
  148.6118  123.1243  150.9260 C   0  0  0  0  0  0  0  0  0  0  0  0
  148.2793  123.6665  152.1144 C   0  0  0  0  0  0  0  0  0  0  0  0
  148.3075  125.1174  152.3325 C   0  0  0  0  0  0  0  0  0  0  0  0
  148.0053  125.6227  153.4142 O   0  0  0  0  0  0  0  0  0  0  0  0
  145.9441  133.8699  151.5444 C   0  0  0  0  0  0  0  0  0  0  0  0
  143.1684  133.8840  152.1405 H   0  0  0  0  0  0  0  0  0  0  0  0
  142.8284  135.4769  151.4721 H   0  0  0  0  0  0  0  0  0  0  0  0
  143.9154  135.3123  152.8434 H   0  0  0  0  0  0  0  0  0  0  0  0
  145.1930  135.7282  150.7947 H   0  0  0  0  0  0  0  0  0  0  0  0
  143.5450  134.7276  149.1666 H   0  0  0  0  0  0  0  0  0  0  0  0
  145.2188  134.3461  148.8554 H   0  0  0  0  0  0  0  0  0  0  0  0
  143.1810  132.5032  150.1901 H   0  0  0  0  0  0  0  0  0  0  0  0
  143.8955  132.2992  148.6121 H   0  0  0  0  0  0  0  0  0  0  0  0
  144.9820  130.8443  150.3182 H   0  0  0  0  0  0  0  0  0  0  0  0
  146.1400  131.9513  149.6069 H   0  0  0  0  0  0  0  0  0  0  0  0
  147.5683  131.7200  151.7933 H   0  0  0  0  0  0  0  0  0  0  0  0
  146.7370  131.9526  153.3127 H   0  0  0  0  0  0  0  0  0  0  0  0
  145.9491  129.7531  153.2571 H   0  0  0  0  0  0  0  0  0  0  0  0
  145.4175  129.9211  151.5916 H   0  0  0  0  0  0  0  0  0  0  0  0
  148.2090  129.8189  151.4999 H   0  0  0  0  0  0  0  0  0  0  0  0
  148.9889  127.7824  150.3861 H   0  0  0  0  0  0  0  0  0  0  0  0
  149.5884  127.6322  152.0050 H   0  0  0  0  0  0  0  0  0  0  0  0
  149.3114  125.9965  149.2448 H   0  0  0  0  0  0  0  0  0  0  0  0
  149.2697  123.5441  148.8661 H   0  0  0  0  0  0  0  0  0  0  0  0
  148.5808  122.0525  150.7963 H   0  0  0  0  0  0  0  0  0  0  0  0
  147.9848  123.0191  152.9274 H   0  0  0  0  0  0  0  0  0  0  0  0
  146.8482  133.9912  150.9455 H   0  0  0  0  0  0  0  0  0  0  0  0
  146.1823  134.2437  152.5394 H   0  0  0  0  0  0  0  0  0  0  0  0
  144.7398  132.3510  152.1398 H   0  0  0  0  0  0  0  0  0  0  0  0
  1  2  1  0  0  0  0
  1 21  1  0  0  0  0
  1 22  1  0  0  0  0
  1 23  1  0  0  0  0
  2 20  1  0  0  0  0
  2  3  1  0  0  0  0
  2 24  1  0  0  0  0
  3  4  1  0  0  0  0
  3 25  1  0  0  0  0
  3 26  1  0  0  0  0
  4  5  1  0  0  0  0
  4 27  1  0  0  0  0
  4 28  1  0  0  0  0
  5  6  1  0  0  0  0
  5 29  1  0  0  0  0
  5 30  1  0  0  0  0
  6  7  1  0  0  0  0
  6 20  1  0  0  0  0
  6 44  1  0  0  0  0
  7  8  1  0  0  0  0
  7 31  1  0  0  0  0
  7 32  1  0  0  0  0
  8  9  1  0  0  0  0
  8 33  1  0  0  0  0
  8 34  1  0  0  0  0
  9 10  1  0  0  0  0
  9 35  1  0  0  0  0
 10 11  2  0  0  0  0
 10 12  1  0  0  0  0
 12 13  1  0  0  0  0
 12 36  1  0  0  0  0
 12 37  1  0  0  0  0
 13 18  1  0  0  0  0
 13 14  1  0  0  0  0
 14 15  2  0  0  0  0
 14 38  1  0  0  0  0
 15 16  1  0  0  0  0
 15 39  1  0  0  0  0
 16 17  2  0  0  0  0
 16 40  1  0  0  0  0
 17 18  1  0  0  0  0
 17 41  1  0  0  0  0
 18 19  2  0  0  0  0
 20 42  1  0  0  0  0
 20 43  1  0  0  0  0
M  CHG  1   6   1
M  END
> <s_m_source_file>
AV-unprocessed.smi

> <i_m_source_file_index>
1914

> <i_lp_mmshare_version>
43012

> <i_f3d_flags>
0

> <s_epik_input>
W0NIM11bQ0BASF0xW0NIMl1bQ0gyXVtDSDJdTihbQ0gyXTEpW0NIMl1bQ0gyXVtOSF1DKD1PKVtDSDJdbjJbY0hdW2NIXVtjSF1bY0hdYzI9Tw==

> <s_epik_cmdline>
J2VwaWtfcHl0aG9uJywgJy1waCcsICc3LjAnLCAnLXRuJywgJzgnLCAnLW1hJywgJzIwMCcsICctbWV0YWxfYmluZGluZycsICctaW1hZScsICc8aW5maWxlLm1hZT4nLCAnLW9tYWUnLCAnPG91dGZpbGUubWFlPic=

> <r_lp_tautomer_probability>
1

> <r_epik_Ionization_Penalty>
0.00192477

> <r_epik_Ionization_Penalty_Charging>
0.00192469

> <r_epik_Ionization_Penalty_Neutral>
8.16761e-08

> <r_epik_State_Penalty>
0.00131115

> <r_epik_Charging_Adjusted_Penalty>
0.00323584

> <i_epik_Tot_Q>
1

> <i_epik_Tot_abs_Q>
1

> <r_epik_Metal_State_Penalty>
-0

> <b_epik_Metal_Only>
0

> <s_lp_Force_Field>
OPLS_2005

> <r_lp_Energy>
28.3213

> <b_lp_Chiralities_Consistent>
1

> <s_lp_Variant>
AV-unprocessed.smi:1914-3

> <Gold.Version>
5.8.1

> <Gold.Id.Protein>
6NUR|6NUR_protein|mol2

> <Gold.PLP.Fitness>
42.0348

> <Gold.PLP.PLP>
-37.0368

> <Gold.PLP.part.hbond>
-2.8219

> <Gold.PLP.part.metal>
0.0000

> <Gold.PLP.part.buried>
0.9036

> <Gold.PLP.part.nonpolar>
-35.1297

> <Gold.PLP.part.repulsive>
0.0973

> <Gold.PLP.ligand.clash>
0.0191

> <Gold.PLP.ligand.torsion>
0.4944

> <Gold.PLP.Chemscore.Hbond>
0.9920

> <Gold.PLP.Chemscore.CHOScore>
1.0000

> <Gold.PLP.Chemscore.Metal>
0.0000

> <Gold.Chemscore.Hbonds>
donor molecule, donor type, donor heavy atom, donor atom, acceptor molecule, acceptor atom, score
      L1  H     9    35       P1 10747  1.00
      L1  C    14    38       P1 10769  0.94

> <Gold.PLP.Chemscore.Internal.Correction>
0.0299

> <Gold.Rescore>
     Score         DG    S(hbond)    S(metal)    S(lipo)     H(rot)  DE(clash)    DE(int)     intcor
     12.30     -14.15       0.84        0.00      90.67       1.86       1.19       0.66       ----

> <Gold.Chemscore.Fitness>
12.2980

> <Gold.Chemscore.DG>
-14.1492

> <Gold.Chemscore.ZeroCoef>
-5.4800

> <Gold.Chemscore.Hbond>
0.8440

> <Gold.Chemscore.Metal>
0.0000

> <Gold.Chemscore.Lipo>
90.6711

> <Gold.Chemscore.Internal_Hbond>
0.0000

> <Gold.Chemscore.DEClash>
1.1863

> <Gold.Chemscore.DEInternal>
0.6650

> <Gold.Chemscore.Rot>
1.8586

> <Gold.Chemscore.Internal.Correction>
   9.000000E+99

> <Gold.Chemscore.Hbonds>
donor molecule, donor type, donor heavy atom, donor atom, acceptor molecule, acceptor atom, score
      L1  H     9    35       P1 10747  0.71

> <Gold.Chemscore.Hbond.Weighted>
-2.8188

> <Gold.Chemscore.Metal.Weighted>
-0.0000

> <Gold.Chemscore.Lipo.Weighted>
-10.6085

> <Gold.Chemscore.Internal_Hbond.Weighted>
0.0000

> <Gold.Chemscore.DEClash.Weighted>
1.1863

> <Gold.Chemscore.DEInternal.Weighted>
0.6650

> <Gold.Chemscore.Rot.Weighted>
4.7581

> <Gold.Chemscore.Internal.Correction.Weighted>
   9.000000E+99

> <Gold.Protein.RotatedTorsions>
[ 6907 6896 6895 6894 ] final -158.67 input  -60.11 | X-H torsion
[ 7974 7965 7964 7962 ] final   51.27 input  175.53 | X-H torsion
[ 8008 7997 7996 7995 ] final -140.19 input   59.86 | X-H torsion
[ 10167 10162 10161 10158 ] final  -61.31 input  -65.29 | X-H torsion
[ 10718 10713 10712 10709 ] final   72.07 input   66.30 | X-H torsion
[ 10763 10752 10751 10750 ] final    8.29 input  -60.55 | X-H torsion
[ 11005 11000 10999 10996 ] final  126.40 input  -57.11 | X-H torsion

> <Gold.Protein.ActiveResidues>
 VAL166  LYS551  ARG553  GLY616  TRP617  ASP618  TYR619  PRO620  LYS621  CYS622 
 ASP623  PHE694  ASN695  SER759  ASP760  ASP761  ALA762  ILE779  LEU786  VAL792 
 PHE793  MET794  SER795  GLU796  ALA797  LYS798  CYS799  TRP800  GLU811  SER814 

> <Gold.Protein.RotatedAtoms>
  151.3218  133.4037  159.2654 H   0  0  0  0  0  0  0  0  0  0  0  0  # atno 6907 bound_to 6896
  151.0028  134.9336  159.7974 H   0  0  0  0  0  0  0  0  0  0  0  0  # atno 6908 bound_to 6896
  152.5280  134.3183  159.9191 H   0  0  0  0  0  0  0  0  0  0  0  0  # atno 6909 bound_to 6896
  145.9930  139.4358  143.0062 H   0  0  0  0  0  0  0  0  0  0  0  0  # atno 7974 bound_to 7965
  155.4573  140.0543  157.2995 H   0  0  0  0  0  0  0  0  0  0  0  0  # atno 8008 bound_to 7997
  154.4752  140.2058  155.9851 H   0  0  0  0  0  0  0  0  0  0  0  0  # atno 8009 bound_to 7997
  156.1120  140.3202  155.8091 H   0  0  0  0  0  0  0  0  0  0  0  0  # atno 8010 bound_to 7997
  140.6014  143.2362  151.5919 H   0  0  0  0  0  0  0  0  0  0  0  0  # atno 10167 bound_to 10162
  157.6483  130.9560  150.0877 H   0  0  0  0  0  0  0  0  0  0  0  0  # atno 10718 bound_to 10713
  153.2266  135.6887  153.7937 H   0  0  0  0  0  0  0  0  0  0  0  0  # atno 10763 bound_to 10752
  153.7117  135.3281  155.3248 H   0  0  0  0  0  0  0  0  0  0  0  0  # atno 10764 bound_to 10752
  154.8295  135.4592  154.1135 H   0  0  0  0  0  0  0  0  0  0  0  0  # atno 10765 bound_to 10752
  139.9454  134.9630  156.8701 H   0  0  0  0  0  0  0  0  0  0  0  0  # atno 11005 bound_to 11000
  145.7602  140.9938  143.1204 LP  0  0  0  0  0  0  0  0  0  0  0  0  # atno 17320 bound_to 7965
  144.6895  139.9321  143.7472 LP  0  0  0  0  0  0  0  0  0  0  0  0  # atno 17321 bound_to 7965
  139.5294  144.2961  152.1112 LP  0  0  0  0  0  0  0  0  0  0  0  0  # atno 17342 bound_to 10162
  140.2143  144.4531  150.6371 LP  0  0  0  0  0  0  0  0  0  0  0  0  # atno 17343 bound_to 10162
  156.1835  130.3651  149.9004 LP  0  0  0  0  0  0  0  0  0  0  0  0  # atno 17370 bound_to 10713
  156.6950  130.8910  151.3593 LP  0  0  0  0  0  0  0  0  0  0  0  0  # atno 17371 bound_to 10713
  140.5847  134.0318  155.7477 LP  0  0  0  0  0  0  0  0  0  0  0  0  # atno 17394 bound_to 11000
  141.1103  133.9627  157.2922 LP  0  0  0  0  0  0  0  0  0  0  0  0  # atno 17395 bound_to 11000

$$$$
