AV-unprocessed.smi:38|AV-procd|sdf|343|dock10
  -GOLD-   2262016183D 1   1.00000     0.00000
 Structure written by MMmdl.
 27 28  0  0  0  0  0  0  0  0  2 V2000
  152.7937  141.0290  159.1789 O   0  0  0  0  0  0  0  0  0  0  0  0
  152.2276  140.8689  158.0986 C   0  0  0  0  0  0  0  0  0  0  0  0
  152.5451  139.8563  157.2409 N   0  5  0  0  0  0  0  0  0  0  0  0
  151.9158  139.6809  156.0418 C   0  0  0  0  0  0  0  0  0  0  0  0
  152.1837  138.7589  155.2711 O   0  0  0  0  0  0  0  0  0  0  0  0
  150.8955  140.5948  155.6597 N   0  0  0  0  0  0  0  0  0  0  0  0
  150.1908  140.4035  154.3328 C   0  0  1  0  0  0  0  0  0  0  0  0
  149.4282  139.0761  154.3219 C   0  0  0  0  0  0  0  0  0  0  0  0
  148.0337  139.5202  154.7099 C   0  0  2  0  0  0  0  0  0  0  0  0
  147.0643  138.6045  154.2430 O   0  0  0  0  0  0  0  0  0  0  0  0
  147.9366  140.8826  154.0192 C   0  0  1  0  0  0  0  0  0  0  0  0
  146.9018  141.8237  154.6562 C   0  0  0  0  0  0  0  0  0  0  0  0
  147.1663  143.1608  154.2884 O   0  0  0  0  0  0  0  0  0  0  0  0
  149.2509  141.4253  154.1520 O   0  0  0  0  0  0  0  0  0  0  0  0
  150.5453  141.6251  156.5165 C   0  0  0  0  0  0  0  0  0  0  0  0
  151.1657  141.7914  157.7023 C   0  0  0  0  0  0  0  0  0  0  0  0
  150.8014  142.8003  158.5123 F   0  0  0  0  0  0  0  0  0  0  0  0
  150.9634  140.4780  153.5659 H   0  0  0  0  0  0  0  0  0  0  0  0
  147.9605  139.6271  155.7932 H   0  0  0  0  0  0  0  0  0  0  0  0
  147.7299  140.7335  152.9573 H   0  0  0  0  0  0  0  0  0  0  0  0
  149.4463  138.6827  153.3042 H   0  0  0  0  0  0  0  0  0  0  0  0
  149.8637  138.3353  154.9938 H   0  0  0  0  0  0  0  0  0  0  0  0
  146.5969  138.2592  154.9879 H   0  0  0  0  0  0  0  0  0  0  0  0
  145.9027  141.5791  154.2949 H   0  0  0  0  0  0  0  0  0  0  0  0
  146.8845  141.7256  155.7413 H   0  0  0  0  0  0  0  0  0  0  0  0
  147.7969  143.5192  154.8938 H   0  0  0  0  0  0  0  0  0  0  0  0
  149.7603  142.3134  156.2465 H   0  0  0  0  0  0  0  0  0  0  0  0
  1  2  2  0  0  0  0
  2 16  1  0  0  0  0
  2  3  1  0  0  0  0
  3  4  1  0  0  0  0
  4  5  2  0  0  0  0
  4  6  1  0  0  0  0
  6  7  1  0  0  0  0
  6 15  1  0  0  0  0
  7 18  1  0  0  0  0
  7 14  1  0  0  0  0
  7  8  1  0  0  0  0
  8  9  1  0  0  0  0
  8 21  1  0  0  0  0
  8 22  1  0  0  0  0
  9 19  1  0  0  0  0
  9 10  1  0  0  0  0
  9 11  1  0  0  0  0
 10 23  1  0  0  0  0
 11 20  1  0  0  0  0
 11 12  1  0  0  0  0
 11 14  1  0  0  0  0
 12 13  1  0  0  0  0
 12 24  1  0  0  0  0
 12 25  1  0  0  0  0
 13 26  1  0  0  0  0
 15 16  2  0  0  0  0
 15 27  1  0  0  0  0
 16 17  1  0  0  0  0
M  CHG  1   3  -1
M  END
> <s_m_source_file>
AV-unprocessed.smi

> <i_m_source_file_index>
38

> <i_lp_mmshare_version>
43012

> <i_f3d_flags>
0

> <s_epik_input>
Tz1jMVtuSF1jKD1PKW4oW2NIXWMxRilbQ0BIXTJbQ0gyXVtDQEhdKFtPSF0pW0NASF0oTzIpW0NIMl1bT0hd

> <s_epik_cmdline>
J2VwaWtfcHl0aG9uJywgJy1waCcsICc3LjAnLCAnLXRuJywgJzgnLCAnLW1hJywgJzIwMCcsICctbWV0YWxfYmluZGluZycsICctaW1hZScsICc8aW5maWxlLm1hZT4nLCAnLW9tYWUnLCAnPG91dGZpbGUubWFlPic=

> <r_epik_Ionization_Penalty>
1.68146

> <r_epik_Ionization_Penalty_Charging>
3.4211e-08

> <r_epik_Ionization_Penalty_Neutral>
1.68146

> <r_epik_State_Penalty>
1.78593

> <r_epik_Charging_Adjusted_Penalty>
1.78593

> <i_epik_Tot_Q>
-1

> <i_epik_Tot_abs_Q>
1

> <r_epik_Metal_State_Penalty>
0.0113696

> <b_epik_Metal_Only>
0

> <s_epik_Chemistry_Notes>
This compound contains an acetal/aminal-like group ( X-CH(R)-Y where X, Y are N, S, or O) that may be acid/base labile, releasing an aldehyde.

> <s_lp_Force_Field>
OPLS_2005

> <r_lp_Energy>
36.3434

> <b_lp_Chiralities_Consistent>
1

> <s_lp_Variant>
AV-unprocessed.smi:38-9

> <Gold.Version>
5.8.1

> <Gold.Id.Protein>
6NUR|6NUR_protein|mol2

> <Gold.PLP.Fitness>
41.3558

> <Gold.PLP.PLP>
-27.5010

> <Gold.PLP.part.hbond>
-5.0000

> <Gold.PLP.part.metal>
0.0000

> <Gold.PLP.part.buried>
2.0592

> <Gold.PLP.part.nonpolar>
-24.0918

> <Gold.PLP.part.repulsive>
0.1881

> <Gold.PLP.ligand.clash>
0.0000

> <Gold.PLP.ligand.torsion>
0.1721

> <Gold.PLP.Chemscore.Hbond>
3.7296

> <Gold.PLP.Chemscore.CHOScore>
1.0000

> <Gold.PLP.Chemscore.Metal>
0.0000

> <Gold.Chemscore.Hbonds>
donor molecule, donor type, donor heavy atom, donor atom, acceptor molecule, acceptor atom, score
      L1  H    13    26       P1  8028  1.00
      P1  H  7997  8009       L1     3  2.00
      P1  H  8011  8017       L1    14  0.50
      L1  C    15    27       P1  8028  0.76

> <Gold.PLP.Chemscore.Internal.Correction>
0.0104

> <Gold.Rescore>
     Score         DG    S(hbond)    S(metal)    S(lipo)     H(rot)  DE(clash)    DE(int)     intcor
      6.36      -9.21       2.02        0.00      37.34       2.88       2.24       0.61       ----

> <Gold.Chemscore.Fitness>
6.3644

> <Gold.Chemscore.DG>
-9.2098

> <Gold.Chemscore.ZeroCoef>
-5.4800

> <Gold.Chemscore.Hbond>
2.0171

> <Gold.Chemscore.Metal>
0.0000

> <Gold.Chemscore.Lipo>
37.3427

> <Gold.Chemscore.Internal_Hbond>
0.0000

> <Gold.Chemscore.DEClash>
2.2368

> <Gold.Chemscore.DEInternal>
0.6085

> <Gold.Chemscore.Rot>
2.8815

> <Gold.Chemscore.Internal.Correction>
   9.000000E+99

> <Gold.Chemscore.Hbonds>
donor molecule, donor type, donor heavy atom, donor atom, acceptor molecule, acceptor atom, score
      L1  H    13    26       P1  8028  0.44
      P1  H  7997  8009       L1     3  0.24
      P1  H  8011  8017       L1    14  0.20

> <Gold.Chemscore.Hbond.Weighted>
-6.7372

> <Gold.Chemscore.Metal.Weighted>
-0.0000

> <Gold.Chemscore.Lipo.Weighted>
-4.3691

> <Gold.Chemscore.Internal_Hbond.Weighted>
0.0000

> <Gold.Chemscore.DEClash.Weighted>
2.2368

> <Gold.Chemscore.DEInternal.Weighted>
0.6085

> <Gold.Chemscore.Rot.Weighted>
7.3765

> <Gold.Chemscore.Internal.Correction.Weighted>
   9.000000E+99

> <Gold.Protein.RotatedTorsions>
[ 6907 6896 6895 6894 ] final  -54.48 input  -60.11 | X-H torsion
[ 7974 7965 7964 7962 ] final  -21.95 input  175.53 | X-H torsion
[ 8008 7997 7996 7995 ] final  173.94 input   59.86 | X-H torsion
[ 10167 10162 10161 10158 ] final   12.40 input  -65.29 | X-H torsion
[ 10718 10713 10712 10709 ] final   -8.53 input   66.30 | X-H torsion
[ 10763 10752 10751 10750 ] final  172.96 input  -60.55 | X-H torsion
[ 11005 11000 10999 10996 ] final   50.45 input  -57.11 | X-H torsion

> <Gold.Protein.ActiveResidues>
 VAL166  LYS551  ARG553  GLY616  TRP617  ASP618  TYR619  PRO620  LYS621  CYS622 
 ASP623  PHE694  ASN695  SER759  ASP760  ASP761  ALA762  ILE779  LEU786  VAL792 
 PHE793  MET794  SER795  GLU796  ALA797  LYS798  CYS799  TRP800  GLU811  SER814 

> <Gold.Protein.RotatedAtoms>
  150.8334  134.7597  159.6872 H   0  0  0  0  0  0  0  0  0  0  0  0  # atno 6907 bound_to 6896
  152.4435  134.5539  159.9884 H   0  0  0  0  0  0  0  0  0  0  0  0  # atno 6908 bound_to 6896
  151.5695  133.3354  159.3022 H   0  0  0  0  0  0  0  0  0  0  0  0  # atno 6909 bound_to 6896
  146.1704  140.4411  142.8535 H   0  0  0  0  0  0  0  0  0  0  0  0  # atno 7974 bound_to 7965
  156.1025  140.1447  156.9449 H   0  0  0  0  0  0  0  0  0  0  0  0  # atno 8008 bound_to 7997
  154.4712  140.0909  156.7193 H   0  0  0  0  0  0  0  0  0  0  0  0  # atno 8009 bound_to 7997
  155.4736  140.3442  155.4331 H   0  0  0  0  0  0  0  0  0  0  0  0  # atno 8010 bound_to 7997
  140.6070  143.8487  150.7024 H   0  0  0  0  0  0  0  0  0  0  0  0  # atno 10167 bound_to 10162
  156.7012  130.5094  149.5916 H   0  0  0  0  0  0  0  0  0  0  0  0  # atno 10718 bound_to 10713
  154.4334  135.2760  155.1897 H   0  0  0  0  0  0  0  0  0  0  0  0  # atno 10763 bound_to 10752
  154.3794  135.6091  153.5786 H   0  0  0  0  0  0  0  0  0  0  0  0  # atno 10764 bound_to 10752
  152.9837  135.5876  154.4649 H   0  0  0  0  0  0  0  0  0  0  0  0  # atno 10765 bound_to 10752
  140.1016  134.5073  155.8757 H   0  0  0  0  0  0  0  0  0  0  0  0  # atno 11005 bound_to 11000
  144.8154  140.6459  143.6387 LP  0  0  0  0  0  0  0  0  0  0  0  0  # atno 17320 bound_to 7965
  145.4355  139.1543  143.3999 LP  0  0  0  0  0  0  0  0  0  0  0  0  # atno 17321 bound_to 7965
  140.2047  143.3931  152.1765 LP  0  0  0  0  0  0  0  0  0  0  0  0  # atno 17342 bound_to 10162
  139.5332  144.7182  151.4982 LP  0  0  0  0  0  0  0  0  0  0  0  0  # atno 17343 bound_to 10162
  156.1727  130.6448  151.0857 LP  0  0  0  0  0  0  0  0  0  0  0  0  # atno 17370 bound_to 10713
  157.6972  131.0789  150.6932 LP  0  0  0  0  0  0  0  0  0  0  0  0  # atno 17371 bound_to 10713
  141.2107  133.6698  156.6530 LP  0  0  0  0  0  0  0  0  0  0  0  0  # atno 17394 bound_to 11000
  140.3212  134.8006  157.4254 LP  0  0  0  0  0  0  0  0  0  0  0  0  # atno 17395 bound_to 11000

$$$$
