AV-unprocessed.smi:37|AV-procd|sdf|309|dock7
  -GOLD-   2262016123D 1   1.00000     0.00000
 Structure written by MMmdl.
 44 45  0  0  0  0  0  0  0  0  1 V2000
  147.9556  136.1387  162.0273 C   0  0  0  0  0  0  0  0  0  0  0  0
  147.5047  135.8937  160.5812 C   0  0  0  0  0  0  0  0  0  0  0  0
  148.6490  136.0562  159.5834 C   0  0  0  0  0  0  0  0  0  0  0  0
  149.0355  135.1125  158.8935 O   0  0  0  0  0  0  0  0  0  0  0  0
  149.1540  137.3020  159.5748 O   0  0  0  0  0  0  0  0  0  0  0  0
  150.3430  137.5876  158.8540 C   0  0  0  0  0  0  0  0  0  0  0  0
  150.3691  139.0795  158.4966 C   0  0  2  0  0  0  0  0  0  0  0  0
  149.2401  139.3558  157.6693 O   0  0  0  0  0  0  0  0  0  0  0  0
  149.6605  139.9372  156.4763 C   0  0  2  0  0  0  0  0  0  0  0  0
  148.7204  139.5766  155.3447 N   0  0  0  0  0  0  0  0  0  0  0  0
  147.7453  138.6124  155.5572 C   0  0  0  0  0  0  0  0  0  0  0  0
  146.8748  138.2150  154.5994 C   0  0  0  0  0  0  0  0  0  0  0  0
  145.9523  137.2814  154.8874 F   0  0  0  0  0  0  0  0  0  0  0  0
  146.9294  138.7908  153.2595 C   0  0  0  0  0  0  0  0  0  0  0  0
  146.1842  138.4983  152.3267 O   0  0  0  0  0  0  0  0  0  0  0  0
  147.9343  139.7457  153.0835 N   0  0  0  0  0  0  0  0  0  0  0  0
  148.8391  140.1636  154.0611 C   0  0  0  0  0  0  0  0  0  0  0  0
  149.6903  141.0051  153.7781 O   0  0  0  0  0  0  0  0  0  0  0  0
  151.1337  139.5635  156.2578 C   0  0  2  0  0  0  0  0  0  0  0  0
  151.4500  137.7998  155.3769 Br  0  0  0  0  0  0  0  0  0  0  0  0
  151.6213  139.4841  157.6960 C   0  0  1  0  0  0  0  0  0  0  0  0
  152.0597  140.7594  158.1532 O   0  0  0  0  0  0  0  0  0  0  0  0
  152.8668  140.8571  159.2251 C   0  0  0  0  0  0  0  0  0  0  0  0
  153.2684  139.9144  159.9094 O   0  0  0  0  0  0  0  0  0  0  0  0
  153.2584  142.3073  159.5156 C   0  0  0  0  0  0  0  0  0  0  0  0
  152.0586  143.2220  159.8035 C   0  0  0  0  0  0  0  0  0  0  0  0
  148.0159  140.1664  152.1693 H   0  0  0  0  0  0  0  0  0  0  0  0
  147.1154  136.0316  162.7134 H   0  0  0  0  0  0  0  0  0  0  0  0
  148.3571  137.1450  162.1519 H   0  0  0  0  0  0  0  0  0  0  0  0
  148.7236  135.4277  162.3342 H   0  0  0  0  0  0  0  0  0  0  0  0
  147.0941  134.8886  160.4834 H   0  0  0  0  0  0  0  0  0  0  0  0
  146.7060  136.5883  160.3192 H   0  0  0  0  0  0  0  0  0  0  0  0
  151.2354  137.3291  159.4246 H   0  0  0  0  0  0  0  0  0  0  0  0
  150.3554  136.9822  157.9475 H   0  0  0  0  0  0  0  0  0  0  0  0
  150.2833  139.6660  159.4126 H   0  0  0  0  0  0  0  0  0  0  0  0
  149.5472  141.0143  156.6140 H   0  0  0  0  0  0  0  0  0  0  0  0
  147.6612  138.1584  156.5344 H   0  0  0  0  0  0  0  0  0  0  0  0
  151.6394  140.3230  155.6607 H   0  0  0  0  0  0  0  0  0  0  0  0
  152.4244  138.7549  157.8139 H   0  0  0  0  0  0  0  0  0  0  0  0
  153.9401  142.3180  160.3665 H   0  0  0  0  0  0  0  0  0  0  0  0
  153.8151  142.6920  158.6607 H   0  0  0  0  0  0  0  0  0  0  0  0
  152.3911  144.2426  159.9930 H   0  0  0  0  0  0  0  0  0  0  0  0
  151.5047  142.8877  160.6815 H   0  0  0  0  0  0  0  0  0  0  0  0
  151.3690  143.2521  158.9590 H   0  0  0  0  0  0  0  0  0  0  0  0
  1  2  1  0  0  0  0
  1 28  1  0  0  0  0
  1 29  1  0  0  0  0
  1 30  1  0  0  0  0
  2  3  1  0  0  0  0
  2 31  1  0  0  0  0
  2 32  1  0  0  0  0
  3  4  2  0  0  0  0
  3  5  1  0  0  0  0
  5  6  1  0  0  0  0
  6  7  1  0  0  0  0
  6 33  1  0  0  0  0
  6 34  1  0  0  0  0
  7 21  1  0  0  0  0
  7  8  1  0  0  0  0
  7 35  1  0  0  0  0
  8  9  1  0  0  0  0
  9 10  1  0  0  0  0
  9 19  1  0  0  0  0
  9 36  1  0  0  0  0
 10 17  1  0  0  0  0
 10 11  1  0  0  0  0
 11 12  2  0  0  0  0
 11 37  1  0  0  0  0
 12 13  1  0  0  0  0
 12 14  1  0  0  0  0
 14 15  2  0  0  0  0
 14 16  1  0  0  0  0
 16 27  1  0  0  0  0
 16 17  1  0  0  0  0
 17 18  2  0  0  0  0
 19 20  1  0  0  0  0
 19 21  1  0  0  0  0
 19 38  1  0  0  0  0
 21 22  1  0  0  0  0
 21 39  1  0  0  0  0
 22 23  1  0  0  0  0
 23 24  2  0  0  0  0
 23 25  1  0  0  0  0
 25 26  1  0  0  0  0
 25 40  1  0  0  0  0
 25 41  1  0  0  0  0
 26 42  1  0  0  0  0
 26 43  1  0  0  0  0
 26 44  1  0  0  0  0
M  END
> <s_m_source_file>
AV-unprocessed.smi

> <i_m_source_file_index>
37

> <i_lp_mmshare_version>
43012

> <i_f3d_flags>
0

> <s_epik_input>
W0NIM11bQ0gyXUMoPU8pT1tDSDJdW0NAQEhdMU9bQ0BASF0objJbY0hdYyhGKWMoPU8pW25IXWMyPU8pW0NAQEhdKEJyKVtDQEhdMU9DKD1PKVtDSDJdW0NIM10=

> <s_epik_cmdline>
J2VwaWtfcHl0aG9uJywgJy1waCcsICc3LjAnLCAnLXRuJywgJzgnLCAnLW1hJywgJzIwMCcsICctbWV0YWxfYmluZGluZycsICctaW1hZScsICc8aW5maWxlLm1hZT4nLCAnLW9tYWUnLCAnPG91dGZpbGUubWFlPic=

> <r_lp_tautomer_probability>
0.999537

> <r_epik_Ionization_Penalty>
0.104106

> <r_epik_Ionization_Penalty_Charging>
0.104106

> <r_epik_Ionization_Penalty_Neutral>
3.94675e-16

> <r_epik_State_Penalty>
0.0940182

> <r_epik_Charging_Adjusted_Penalty>
0.198124

> <i_epik_Tot_Q>
0

> <i_epik_Tot_abs_Q>
0

> <r_epik_Metal_State_Penalty>
3.05314

> <b_epik_Metal_Only>
0

> <s_epik_Chemistry_Notes>
This compound has an ester and may undergo hydrolysis at high or low pH. This compound contains an acetal/aminal-like group ( X-CH(R)-Y where X, Y are N, S, or O) that may be acid/base labile, releasing an aldehyde.

> <s_lp_Force_Field>
OPLS_2005

> <r_lp_Energy>
23.3394

> <b_lp_Chiralities_Consistent>
1

> <s_lp_Variant>
AV-unprocessed.smi:37-7

> <Gold.Version>
5.8.1

> <Gold.Id.Protein>
6NUR|6NUR_protein|mol2

> <Gold.PLP.Fitness>
42.5966

> <Gold.PLP.PLP>
-35.3917

> <Gold.PLP.part.hbond>
-4.8652

> <Gold.PLP.part.metal>
0.0000

> <Gold.PLP.part.buried>
-4.9564

> <Gold.PLP.part.nonpolar>
-27.1564

> <Gold.PLP.part.repulsive>
1.9166

> <Gold.PLP.ligand.clash>
0.0000

> <Gold.PLP.ligand.torsion>
0.5385

> <Gold.PLP.Chemscore.Hbond>
2.7120

> <Gold.PLP.Chemscore.CHOScore>
0.0000

> <Gold.PLP.Chemscore.Metal>
0.0000

> <Gold.Chemscore.Hbonds>
donor molecule, donor type, donor heavy atom, donor atom, acceptor molecule, acceptor atom, score
      L1  H    16    27       P1  7957  0.46
      P1  H  6896  6909       L1     4  1.00
      P1  H  7989  7998       L1    18  0.37
      P1  H  8011  8017       L1    18  0.94

> <Gold.PLP.Chemscore.Internal.Correction>
0.1459

> <Gold.Rescore>
     Score         DG    S(hbond)    S(metal)    S(lipo)     H(rot)  DE(clash)    DE(int)     intcor
     11.09     -13.53       2.70        0.00      64.56       3.33       1.96       0.48       ----

> <Gold.Chemscore.Fitness>
11.0909

> <Gold.Chemscore.DG>
-13.5281

> <Gold.Chemscore.ZeroCoef>
-5.4800

> <Gold.Chemscore.Hbond>
2.7005

> <Gold.Chemscore.Metal>
0.0000

> <Gold.Chemscore.Lipo>
64.5632

> <Gold.Chemscore.Internal_Hbond>
0.0000

> <Gold.Chemscore.DEClash>
1.9588

> <Gold.Chemscore.DEInternal>
0.4784

> <Gold.Chemscore.Rot>
3.3303

> <Gold.Chemscore.Internal.Correction>
   9.000000E+99

> <Gold.Chemscore.Hbonds>
donor molecule, donor type, donor heavy atom, donor atom, acceptor molecule, acceptor atom, score
      L1  H    16    27       P1  7957  0.46
      P1  H  6896  6909       L1     4  0.50
      P1  H  7989  7998       L1    18  0.36
      P1  H  8011  8017       L1    18  0.86

> <Gold.Chemscore.Hbond.Weighted>
-9.0198

> <Gold.Chemscore.Metal.Weighted>
-0.0000

> <Gold.Chemscore.Lipo.Weighted>
-7.5539

> <Gold.Chemscore.Internal_Hbond.Weighted>
0.0000

> <Gold.Chemscore.DEClash.Weighted>
1.9588

> <Gold.Chemscore.DEInternal.Weighted>
0.4784

> <Gold.Chemscore.Rot.Weighted>
8.5256

> <Gold.Chemscore.Internal.Correction.Weighted>
   9.000000E+99

> <Gold.Protein.RotatedTorsions>
[ 6907 6896 6895 6894 ] final   56.61 input  -60.11 | X-H torsion
[ 7974 7965 7964 7962 ] final   -9.53 input  175.53 | X-H torsion
[ 8008 7997 7996 7995 ] final  -46.97 input   59.86 | X-H torsion
[ 10167 10162 10161 10158 ] final  154.53 input  -65.29 | X-H torsion
[ 10718 10713 10712 10709 ] final -143.48 input   66.30 | X-H torsion
[ 10763 10752 10751 10750 ] final   92.09 input  -60.55 | X-H torsion
[ 11005 11000 10999 10996 ] final  -33.60 input  -57.11 | X-H torsion

> <Gold.Protein.ActiveResidues>
 VAL166  LYS551  ARG553  GLY616  TRP617  ASP618  TYR619  PRO620  LYS621  CYS622 
 ASP623  PHE694  ASN695  SER759  ASP760  ASP761  ALA762  ILE779  LEU786  VAL792 
 PHE793  MET794  SER795  GLU796  ALA797  LYS798  CYS799  TRP800  GLU811  SER814 

> <Gold.Protein.RotatedAtoms>
  152.3652  134.6814  160.0193 H   0  0  0  0  0  0  0  0  0  0  0  0  # atno 6907 bound_to 6896
  151.7125  133.3307  159.3302 H   0  0  0  0  0  0  0  0  0  0  0  0  # atno 6908 bound_to 6896
  150.7633  134.6454  159.6304 H   0  0  0  0  0  0  0  0  0  0  0  0  # atno 6909 bound_to 6896
  146.2249  140.2630  142.8352 H   0  0  0  0  0  0  0  0  0  0  0  0  # atno 7974 bound_to 7965
  154.4012  140.1358  156.4099 H   0  0  0  0  0  0  0  0  0  0  0  0  # atno 8008 bound_to 7997
  155.7744  140.3483  155.5243 H   0  0  0  0  0  0  0  0  0  0  0  0  # atno 8009 bound_to 7997
  155.8735  140.0975  157.1524 H   0  0  0  0  0  0  0  0  0  0  0  0  # atno 8010 bound_to 7997
  139.4823  144.5178  151.7924 H   0  0  0  0  0  0  0  0  0  0  0  0  # atno 10167 bound_to 10162
  156.3584  130.7725  151.1889 H   0  0  0  0  0  0  0  0  0  0  0  0  # atno 10718 bound_to 10713
  153.2153  135.4374  155.0427 H   0  0  0  0  0  0  0  0  0  0  0  0  # atno 10763 bound_to 10752
  154.8222  135.3343  154.7007 H   0  0  0  0  0  0  0  0  0  0  0  0  # atno 10764 bound_to 10752
  153.7442  135.7002  153.5016 H   0  0  0  0  0  0  0  0  0  0  0  0  # atno 10765 bound_to 10752
  140.9648  133.7143  156.1427 H   0  0  0  0  0  0  0  0  0  0  0  0  # atno 11005 bound_to 11000
  144.9325  140.7990  143.5680 LP  0  0  0  0  0  0  0  0  0  0  0  0  # atno 17320 bound_to 7965
  145.2575  139.2006  143.4910 LP  0  0  0  0  0  0  0  0  0  0  0  0  # atno 17321 bound_to 7965
  140.4689  144.1616  150.5915 LP  0  0  0  0  0  0  0  0  0  0  0  0  # atno 17342 bound_to 10162
  140.4404  143.2529  151.9480 LP  0  0  0  0  0  0  0  0  0  0  0  0  # atno 17343 bound_to 10162
  157.7470  131.0407  150.4611 LP  0  0  0  0  0  0  0  0  0  0  0  0  # atno 17370 bound_to 10713
  156.4818  130.4075  149.6457 LP  0  0  0  0  0  0  0  0  0  0  0  0  # atno 17371 bound_to 10713
  140.7415  134.4144  157.5554 LP  0  0  0  0  0  0  0  0  0  0  0  0  # atno 17394 bound_to 11000
  139.8890  134.8840  156.2441 LP  0  0  0  0  0  0  0  0  0  0  0  0  # atno 17395 bound_to 11000

$$$$
