AV-unprocessed.smi:644|AV-procd|sdf|3155|dock8
  -GOLD-   22720 0 83D 1   1.00000     0.00000
 Structure written by MMmdl.
 37 39  0  0  0  0  0  0  0  0  1 V2000
  151.5640  144.9606  160.0331 C   0  0  0  0  0  0  0  0  0  0  0  0
  152.2037  143.5992  160.2406 C   0  0  0  0  0  0  0  0  0  0  0  0
  152.9619  143.3676  161.4103 C   0  0  0  0  0  0  0  0  0  0  0  0
  153.5709  142.1150  161.6425 C   0  0  0  0  0  0  0  0  0  0  0  0
  154.3430  141.6734  162.7034 N   0  0  0  0  0  0  0  0  0  0  0  0
  154.6102  140.4228  162.3385 C   0  0  0  0  0  0  0  0  0  0  0  0
  154.0986  139.9999  161.1665 N   0  0  0  0  0  0  0  0  0  0  0  0
  154.2517  138.6867  160.5655 C   0  0  0  0  0  0  0  0  0  0  0  0
  152.9098  137.9423  160.4290 C   0  0  2  0  0  0  0  0  0  0  0  0
  153.1300  136.5483  160.5348 O   0  0  0  0  0  0  0  0  0  0  0  0
  152.2168  138.2418  159.0904 C   0  0  0  0  0  0  0  0  0  0  0  0
  153.1997  137.6769  157.6715 S   0  0  0  0  0  0  0  0  0  0  0  0
  152.1586  138.3051  156.4059 C   0  0  0  0  0  0  0  0  0  0  0  0
  152.4003  139.4404  155.7393 N   0  0  0  0  0  0  0  0  0  0  0  0
  151.4214  139.7081  154.7906 N   0  0  0  0  0  0  0  0  0  0  0  0
  150.4769  138.7635  154.7815 C   0  0  0  0  0  0  0  0  0  0  0  0
  150.6942  137.4545  155.9288 S   0  0  0  0  0  0  0  0  0  0  0  0
  153.4005  141.0925  160.6639 C   0  0  0  0  0  0  0  0  0  0  0  0
  152.6500  141.3111  159.4952 C   0  0  0  0  0  0  0  0  0  0  0  0
  152.0464  142.5678  159.2798 C   0  0  0  0  0  0  0  0  0  0  0  0
  151.2347  142.7932  158.0163 C   0  0  0  0  0  0  0  0  0  0  0  0
  151.8017  145.6407  160.8515 H   0  0  0  0  0  0  0  0  0  0  0  0
  150.4789  144.8684  159.9794 H   0  0  0  0  0  0  0  0  0  0  0  0
  151.9202  145.4142  159.1080 H   0  0  0  0  0  0  0  0  0  0  0  0
  153.0814  144.1525  162.1427 H   0  0  0  0  0  0  0  0  0  0  0  0
  155.2090  139.7741  162.9611 H   0  0  0  0  0  0  0  0  0  0  0  0
  154.7149  138.8137  159.5862 H   0  0  0  0  0  0  0  0  0  0  0  0
  154.9511  138.1050  161.1681 H   0  0  0  0  0  0  0  0  0  0  0  0
  152.2514  138.2430  161.2449 H   0  0  0  0  0  0  0  0  0  0  0  0
  153.5717  136.3761  161.3524 H   0  0  0  0  0  0  0  0  0  0  0  0
  151.2507  137.7372  159.0499 H   0  0  0  0  0  0  0  0  0  0  0  0
  152.0206  139.3105  158.9944 H   0  0  0  0  0  0  0  0  0  0  0  0
  149.6468  138.8385  154.0948 H   0  0  0  0  0  0  0  0  0  0  0  0
  152.5389  140.5166  158.7721 H   0  0  0  0  0  0  0  0  0  0  0  0
  151.1936  141.8926  157.4030 H   0  0  0  0  0  0  0  0  0  0  0  0
  151.6773  143.5877  157.4152 H   0  0  0  0  0  0  0  0  0  0  0  0
  150.2110  143.0750  158.2640 H   0  0  0  0  0  0  0  0  0  0  0  0
  1  2  1  0  0  0  0
  1 22  1  0  0  0  0
  1 23  1  0  0  0  0
  1 24  1  0  0  0  0
  2 20  1  0  0  0  0
  2  3  2  0  0  0  0
  3  4  1  0  0  0  0
  3 25  1  0  0  0  0
  4 18  2  0  0  0  0
  4  5  1  0  0  0  0
  5  6  2  0  0  0  0
  6  7  1  0  0  0  0
  6 26  1  0  0  0  0
  7  8  1  0  0  0  0
  7 18  1  0  0  0  0
  8  9  1  0  0  0  0
  8 27  1  0  0  0  0
  8 28  1  0  0  0  0
  9 10  1  0  0  0  0
  9 11  1  0  0  0  0
  9 29  1  0  0  0  0
 10 30  1  0  0  0  0
 11 12  1  0  0  0  0
 11 31  1  0  0  0  0
 11 32  1  0  0  0  0
 12 13  1  0  0  0  0
 13 17  1  0  0  0  0
 13 14  2  0  0  0  0
 14 15  1  0  0  0  0
 15 16  2  0  0  0  0
 16 17  1  0  0  0  0
 16 33  1  0  0  0  0
 18 19  1  0  0  0  0
 19 20  2  0  0  0  0
 19 34  1  0  0  0  0
 20 21  1  0  0  0  0
 21 35  1  0  0  0  0
 21 36  1  0  0  0  0
 21 37  1  0  0  0  0
M  END
> <s_m_source_file>
AV-unprocessed.smi

> <i_m_source_file_index>
644

> <i_lp_mmshare_version>
43012

> <i_f3d_flags>
0

> <s_epik_input>
W0NIM11jKFtjSF0xKWMoW0NIM10pW2NIXWMoYzEyKW4oW2NIXW4yKVtDSDJdW0NASF0oW09IXSlbQ0gyXVNjM25uW2NIXXMz

> <s_epik_cmdline>
J2VwaWtfcHl0aG9uJywgJy1waCcsICc3LjAnLCAnLXRuJywgJzgnLCAnLW1hJywgJzIwMCcsICctbWV0YWxfYmluZGluZycsICctaW1hZScsICc8aW5maWxlLm1hZT4nLCAnLW9tYWUnLCAnPG91dGZpbGUubWFlPic=

> <r_lp_tautomer_probability>
1

> <r_epik_Ionization_Penalty>
0.105397

> <r_epik_Ionization_Penalty_Charging>
0

> <r_epik_Ionization_Penalty_Neutral>
0.105397

> <r_epik_State_Penalty>
0.0952713

> <r_epik_Charging_Adjusted_Penalty>
0.0952713

> <i_epik_Tot_Q>
0

> <i_epik_Tot_abs_Q>
0

> <r_epik_Metal_State_Penalty>
0.0807681

> <b_epik_Metal_Only>
0

> <s_lp_Force_Field>
OPLS_2005

> <r_lp_Energy>
9.27729

> <b_lp_Chiralities_Consistent>
1

> <s_lp_Variant>
AV-unprocessed.smi:644-1

> <Gold.Version>
5.8.1

> <Gold.Id.Protein>
6NUR|6NUR_protein|mol2

> <Gold.PLP.Fitness>
52.1965

> <Gold.PLP.PLP>
-44.7621

> <Gold.PLP.part.hbond>
-3.6770

> <Gold.PLP.part.metal>
0.0000

> <Gold.PLP.part.buried>
-7.3075

> <Gold.PLP.part.nonpolar>
-34.9433

> <Gold.PLP.part.repulsive>
0.0755

> <Gold.PLP.ligand.clash>
0.0000

> <Gold.PLP.ligand.torsion>
0.6693

> <Gold.PLP.Chemscore.Hbond>
2.9100

> <Gold.PLP.Chemscore.CHOScore>
0.0000

> <Gold.PLP.Chemscore.Metal>
0.0000

> <Gold.Chemscore.Hbonds>
donor molecule, donor type, donor heavy atom, donor atom, acceptor molecule, acceptor atom, score
      P1  H  6896  6909       L1    10  1.00
      P1  H  7989  7998       L1    15  1.00
      P1  H  7997  8008       L1    14  0.76

> <Gold.PLP.Chemscore.Internal.Correction>
0.0431

> <Gold.Rescore>
     Score         DG    S(hbond)    S(metal)    S(lipo)     H(rot)  DE(clash)    DE(int)     intcor
     21.83     -22.64       2.76        0.00     121.54       2.46       0.12       0.69       ----

> <Gold.Chemscore.Fitness>
21.8301

> <Gold.Chemscore.DG>
-22.6367

> <Gold.Chemscore.ZeroCoef>
-5.4800

> <Gold.Chemscore.Hbond>
2.7637

> <Gold.Chemscore.Metal>
0.0000

> <Gold.Chemscore.Lipo>
121.5415

> <Gold.Chemscore.Internal_Hbond>
0.0000

> <Gold.Chemscore.DEClash>
0.1210

> <Gold.Chemscore.DEInternal>
0.6856

> <Gold.Chemscore.Rot>
2.4588

> <Gold.Chemscore.Internal.Correction>
   9.000000E+99

> <Gold.Chemscore.Hbonds>
donor molecule, donor type, donor heavy atom, donor atom, acceptor molecule, acceptor atom, score
      P1  H  6896  6909       L1    10  0.60
      P1  H  7989  7998       L1    15  0.99
      P1  H  7997  8008       L1    14  0.60

> <Gold.Chemscore.Hbond.Weighted>
-9.2309

> <Gold.Chemscore.Metal.Weighted>
-0.0000

> <Gold.Chemscore.Lipo.Weighted>
-14.2204

> <Gold.Chemscore.Internal_Hbond.Weighted>
0.0000

> <Gold.Chemscore.DEClash.Weighted>
0.1210

> <Gold.Chemscore.DEInternal.Weighted>
0.6856

> <Gold.Chemscore.Rot.Weighted>
6.2946

> <Gold.Chemscore.Internal.Correction.Weighted>
   9.000000E+99

> <Gold.Protein.RotatedTorsions>
[ 6907 6896 6895 6894 ] final  157.82 input  -60.11 | X-H torsion
[ 7974 7965 7964 7962 ] final  135.77 input  175.53 | X-H torsion
[ 8008 7997 7996 7995 ] final  -30.85 input   59.86 | X-H torsion
[ 10167 10162 10161 10158 ] final    3.51 input  -65.29 | X-H torsion
[ 10718 10713 10712 10709 ] final  -25.87 input   66.30 | X-H torsion
[ 10763 10752 10751 10750 ] final  -47.61 input  -60.55 | X-H torsion
[ 11005 11000 10999 10996 ] final  -50.90 input  -57.11 | X-H torsion

> <Gold.Protein.ActiveResidues>
 VAL166  LYS551  ARG553  GLY616  TRP617  ASP618  TYR619  PRO620  LYS621  CYS622 
 ASP623  PHE694  ASN695  SER759  ASP760  ASP761  ALA762  ILE779  LEU786  VAL792 
 PHE793  MET794  SER795  GLU796  ALA797  LYS798  CYS799  TRP800  GLU811  SER814 

> <Gold.Protein.RotatedAtoms>
  152.0094  133.3855  159.4213 H   0  0  0  0  0  0  0  0  0  0  0  0  # atno 6907 bound_to 6896
  150.6901  134.3747  159.5017 H   0  0  0  0  0  0  0  0  0  0  0  0  # atno 6908 bound_to 6896
  152.1505  134.8991  160.0599 H   0  0  0  0  0  0  0  0  0  0  0  0  # atno 6909 bound_to 6896
  144.9630  139.4689  143.5470 H   0  0  0  0  0  0  0  0  0  0  0  0  # atno 7974 bound_to 7965
  154.4235  140.1780  156.1472 H   0  0  0  0  0  0  0  0  0  0  0  0  # atno 8008 bound_to 7997
  155.9944  140.3366  155.6759 H   0  0  0  0  0  0  0  0  0  0  0  0  # atno 8009 bound_to 7997
  155.6329  140.0671  157.2634 H   0  0  0  0  0  0  0  0  0  0  0  0  # atno 8010 bound_to 7997
  140.6582  143.7372  150.7691 H   0  0  0  0  0  0  0  0  0  0  0  0  # atno 10167 bound_to 10162
  156.4587  130.4499  149.6942 H   0  0  0  0  0  0  0  0  0  0  0  0  # atno 10718 bound_to 10713
  154.0643  135.6613  153.4816 H   0  0  0  0  0  0  0  0  0  0  0  0  # atno 10763 bound_to 10752
  153.0415  135.5142  154.7629 H   0  0  0  0  0  0  0  0  0  0  0  0  # atno 10764 bound_to 10752
  154.6675  135.3024  154.9753 H   0  0  0  0  0  0  0  0  0  0  0  0  # atno 10765 bound_to 10752
  141.0842  133.6646  156.3799 H   0  0  0  0  0  0  0  0  0  0  0  0  # atno 11005 bound_to 11000
  146.3359  139.8793  142.8827 LP  0  0  0  0  0  0  0  0  0  0  0  0  # atno 17320 bound_to 7965
  145.2671  141.0096  143.3793 LP  0  0  0  0  0  0  0  0  0  0  0  0  # atno 17321 bound_to 7965
  140.1036  143.4765  152.2411 LP  0  0  0  0  0  0  0  0  0  0  0  0  # atno 17342 bound_to 10162
  139.5809  144.7510  151.3641 LP  0  0  0  0  0  0  0  0  0  0  0  0  # atno 17343 bound_to 10162
  156.3739  130.7544  151.2531 LP  0  0  0  0  0  0  0  0  0  0  0  0  # atno 17370 bound_to 10713
  157.7499  131.0315  150.4184 LP  0  0  0  0  0  0  0  0  0  0  0  0  # atno 17371 bound_to 10713
  140.5401  134.6129  157.5377 LP  0  0  0  0  0  0  0  0  0  0  0  0  # atno 17394 bound_to 11000
  139.9658  134.7375  156.0141 LP  0  0  0  0  0  0  0  0  0  0  0  0  # atno 17395 bound_to 11000

$$$$
