AV-unprocessed.smi:3285|AV-procd|sdf|12583|dock7
  -GOLD-   2272018503D 1   1.00000     0.00000
 Structure written by MMmdl.
 45 46  0  0  0  0  0  0  0  0  2 V2000
  151.7095  137.9631  154.9603 C   0  0  0  0  0  0  0  0  0  0  0  0
  150.5144  138.8506  154.7638 C   0  0  0  0  0  0  0  0  0  0  0  0
  149.4642  138.3778  154.1151 N   0  0  0  0  0  0  0  0  0  0  0  0
  148.5306  139.4175  154.0860 O   0  0  0  0  0  0  0  0  0  0  0  0
  149.0615  140.4898  154.7257 C   0  0  0  0  0  0  0  0  0  0  0  0
  148.2070  141.7104  154.7921 C   0  0  0  0  0  0  0  0  0  0  0  0
  150.3184  140.1991  155.1824 C   0  0  0  0  0  0  0  0  0  0  0  0
  151.2703  141.0880  155.9374 C   0  0  0  0  0  0  0  0  0  0  0  0
  150.5249  141.9965  156.9233 C   0  0  0  0  0  0  0  0  0  0  0  0
  151.1289  143.3427  156.9651 N   0  3  0  0  0  0  0  0  0  0  0  0
  151.8122  143.6766  158.2332 C   0  0  1  0  0  0  0  0  0  0  0  0
  150.8025  144.2318  159.2480 C   0  0  0  0  0  0  0  0  0  0  0  0
  151.4890  144.5551  160.5815 C   0  0  0  0  0  0  0  0  0  0  0  0
  152.2040  143.3251  161.1772 C   0  0  2  0  0  0  0  0  0  0  0  0
  152.8627  143.7049  162.5156 C   0  0  0  0  0  0  0  0  0  0  0  0
  153.2078  142.7245  160.1562 C   0  0  1  0  0  0  0  0  0  0  0  0
  153.8941  141.4476  160.6741 C   0  0  0  0  0  0  0  0  0  0  0  0
  152.5125  142.4339  158.8085 C   0  0  0  0  0  0  0  0  0  0  0  0
  152.5199  138.4863  155.4673 H   0  0  0  0  0  0  0  0  0  0  0  0
  152.0951  137.6087  154.0039 H   0  0  0  0  0  0  0  0  0  0  0  0
  151.4537  137.0895  155.5604 H   0  0  0  0  0  0  0  0  0  0  0  0
  148.7158  142.5208  155.3138 H   0  0  0  0  0  0  0  0  0  0  0  0
  147.2763  141.5016  155.3198 H   0  0  0  0  0  0  0  0  0  0  0  0
  147.9561  142.0600  153.7905 H   0  0  0  0  0  0  0  0  0  0  0  0
  152.0025  140.4901  156.4813 H   0  0  0  0  0  0  0  0  0  0  0  0
  151.8517  141.7013  155.2484 H   0  0  0  0  0  0  0  0  0  0  0  0
  149.4760  142.0817  156.6357 H   0  0  0  0  0  0  0  0  0  0  0  0
  150.5545  141.5623  157.9240 H   0  0  0  0  0  0  0  0  0  0  0  0
  151.8051  143.4061  156.2177 H   0  0  0  0  0  0  0  0  0  0  0  0
  152.5667  144.4436  158.0484 H   0  0  0  0  0  0  0  0  0  0  0  0
  150.3293  145.1314  158.8523 H   0  0  0  0  0  0  0  0  0  0  0  0
  150.0031  143.5085  159.4157 H   0  0  0  0  0  0  0  0  0  0  0  0
  152.2073  145.3626  160.4324 H   0  0  0  0  0  0  0  0  0  0  0  0
  150.7470  144.9322  161.2864 H   0  0  0  0  0  0  0  0  0  0  0  0
  151.4439  142.5716  161.3890 H   0  0  0  0  0  0  0  0  0  0  0  0
  153.6796  144.4124  162.3698 H   0  0  0  0  0  0  0  0  0  0  0  0
  153.2610  142.8337  163.0345 H   0  0  0  0  0  0  0  0  0  0  0  0
  152.1403  144.1686  163.1881 H   0  0  0  0  0  0  0  0  0  0  0  0
  153.9883  143.4646  159.9725 H   0  0  0  0  0  0  0  0  0  0  0  0
  153.1629  140.6865  160.9482 H   0  0  0  0  0  0  0  0  0  0  0  0
  154.5143  141.6463  161.5474 H   0  0  0  0  0  0  0  0  0  0  0  0
  154.5482  141.0190  159.9145 H   0  0  0  0  0  0  0  0  0  0  0  0
  151.7843  141.6321  158.9413 H   0  0  0  0  0  0  0  0  0  0  0  0
  153.2460  142.0658  158.0893 H   0  0  0  0  0  0  0  0  0  0  0  0
  150.4055  144.0281  156.8008 H   0  0  0  0  0  0  0  0  0  0  0  0
  1  2  1  0  0  0  0
  1 19  1  0  0  0  0
  1 20  1  0  0  0  0
  1 21  1  0  0  0  0
  2  7  1  0  0  0  0
  2  3  2  0  0  0  0
  3  4  1  0  0  0  0
  4  5  1  0  0  0  0
  5  6  1  0  0  0  0
  5  7  2  0  0  0  0
  6 22  1  0  0  0  0
  6 23  1  0  0  0  0
  6 24  1  0  0  0  0
  7  8  1  0  0  0  0
  8  9  1  0  0  0  0
  8 25  1  0  0  0  0
  8 26  1  0  0  0  0
  9 10  1  0  0  0  0
  9 27  1  0  0  0  0
  9 28  1  0  0  0  0
 10 11  1  0  0  0  0
 10 29  1  0  0  0  0
 10 45  1  0  0  0  0
 11 18  1  0  0  0  0
 11 12  1  0  0  0  0
 11 30  1  0  0  0  0
 12 13  1  0  0  0  0
 12 31  1  0  0  0  0
 12 32  1  0  0  0  0
 13 14  1  0  0  0  0
 13 33  1  0  0  0  0
 13 34  1  0  0  0  0
 14 15  1  0  0  0  0
 14 16  1  0  0  0  0
 14 35  1  0  0  0  0
 15 36  1  0  0  0  0
 15 37  1  0  0  0  0
 15 38  1  0  0  0  0
 16 17  1  0  0  0  0
 16 18  1  0  0  0  0
 16 39  1  0  0  0  0
 17 40  1  0  0  0  0
 17 41  1  0  0  0  0
 17 42  1  0  0  0  0
 18 43  1  0  0  0  0
 18 44  1  0  0  0  0
M  CHG  1  10   1
M  END
> <s_m_source_file>
AV-unprocessed.smi

> <i_m_source_file_index>
3285

> <i_lp_mmshare_version>
43012

> <i_f3d_flags>
0

> <s_epik_input>
W0NIM11jMW5vYyhbQ0gzXSljMVtDSDJdW0NIMl1bTkhdW0NAQEhdMltDSDJdW0NIMl1bQ0BASF0oW0NIM10pW0NAQEhdKFtDSDNdKVtDSDJdMg==

> <s_epik_cmdline>
J2VwaWtfcHl0aG9uJywgJy1waCcsICc3LjAnLCAnLXRuJywgJzgnLCAnLW1hJywgJzIwMCcsICctbWV0YWxfYmluZGluZycsICctaW1hZScsICc8aW5maWxlLm1hZT4nLCAnLW9tYWUnLCAnPG91dGZpbGUubWFlPic=

> <r_lp_tautomer_probability>
1

> <r_epik_Ionization_Penalty>
0.000204615

> <r_epik_Ionization_Penalty_Charging>
0.000204615

> <r_epik_Ionization_Penalty_Neutral>
9.28663e-11

> <r_epik_State_Penalty>
-0

> <r_epik_Charging_Adjusted_Penalty>
0.000204615

> <i_epik_Tot_Q>
1

> <i_epik_Tot_abs_Q>
1

> <r_epik_Metal_State_Penalty>
-0

> <b_epik_Metal_Only>
0

> <s_lp_Force_Field>
OPLS_2005

> <r_lp_Energy>
11.6607

> <b_lp_Chiralities_Consistent>
1

> <s_lp_Variant>
AV-unprocessed.smi:3285-4

> <Gold.Version>
5.8.1

> <Gold.Id.Protein>
6NUR|6NUR_protein|mol2

> <Gold.PLP.Fitness>
49.6169

> <Gold.PLP.PLP>
-46.0697

> <Gold.PLP.part.hbond>
-1.0000

> <Gold.PLP.part.metal>
0.0000

> <Gold.PLP.part.buried>
-4.8003

> <Gold.PLP.part.nonpolar>
-40.7009

> <Gold.PLP.part.repulsive>
0.5333

> <Gold.PLP.ligand.clash>
0.0000

> <Gold.PLP.ligand.torsion>
1.2307

> <Gold.PLP.Chemscore.Hbond>
2.0000

> <Gold.PLP.Chemscore.CHOScore>
0.0000

> <Gold.PLP.Chemscore.Metal>
0.0000

> <Gold.Chemscore.Hbonds>
donor molecule, donor type, donor heavy atom, donor atom, acceptor molecule, acceptor atom, score
      L1  H    10    45       P1  8028  2.00

> <Gold.PLP.Chemscore.Internal.Correction>
0.0087

> <Gold.Rescore>
     Score         DG    S(hbond)    S(metal)    S(lipo)     H(rot)  DE(clash)    DE(int)     intcor
     20.21     -21.69       1.00        0.00     139.57       1.35       0.35       1.12       ----

> <Gold.Chemscore.Fitness>
20.2145

> <Gold.Chemscore.DG>
-21.6866

> <Gold.Chemscore.ZeroCoef>
-5.4800

> <Gold.Chemscore.Hbond>
0.9953

> <Gold.Chemscore.Metal>
0.0000

> <Gold.Chemscore.Lipo>
139.5677

> <Gold.Chemscore.Internal_Hbond>
0.0000

> <Gold.Chemscore.DEClash>
0.3497

> <Gold.Chemscore.DEInternal>
1.1223

> <Gold.Chemscore.Rot>
1.3465

> <Gold.Chemscore.Internal.Correction>
   9.000000E+99

> <Gold.Chemscore.Hbonds>
donor molecule, donor type, donor heavy atom, donor atom, acceptor molecule, acceptor atom, score
      L1  H    10    45       P1  8028  0.91

> <Gold.Chemscore.Hbond.Weighted>
-3.3242

> <Gold.Chemscore.Metal.Weighted>
-0.0000

> <Gold.Chemscore.Lipo.Weighted>
-16.3294

> <Gold.Chemscore.Internal_Hbond.Weighted>
0.0000

> <Gold.Chemscore.DEClash.Weighted>
0.3497

> <Gold.Chemscore.DEInternal.Weighted>
1.1223

> <Gold.Chemscore.Rot.Weighted>
3.4470

> <Gold.Chemscore.Internal.Correction.Weighted>
   9.000000E+99

> <Gold.Protein.RotatedTorsions>
[ 6907 6896 6895 6894 ] final  -79.25 input  -60.11 | X-H torsion
[ 7974 7965 7964 7962 ] final  147.23 input  175.53 | X-H torsion
[ 8008 7997 7996 7995 ] final   92.02 input   59.86 | X-H torsion
[ 10167 10162 10161 10158 ] final  -37.87 input  -65.29 | X-H torsion
[ 10718 10713 10712 10709 ] final  -30.56 input   66.30 | X-H torsion
[ 10763 10752 10751 10750 ] final -107.61 input  -60.55 | X-H torsion
[ 11005 11000 10999 10996 ] final  140.41 input  -57.11 | X-H torsion

> <Gold.Protein.ActiveResidues>
 VAL166  LYS551  ARG553  GLY616  TRP617  ASP618  TYR619  PRO620  LYS621  CYS622 
 ASP623  PHE694  ASN695  SER759  ASP760  ASP761  ALA762  ILE779  LEU786  VAL792 
 PHE793  MET794  SER795  GLU796  ALA797  LYS798  CYS799  TRP800  GLU811  SER814 

> <Gold.Protein.RotatedAtoms>
  150.6954  134.4149  159.5178 H   0  0  0  0  0  0  0  0  0  0  0  0  # atno 6907 bound_to 6896
  152.1901  134.8676  160.0527 H   0  0  0  0  0  0  0  0  0  0  0  0  # atno 6908 bound_to 6896
  151.9634  133.3668  159.4081 H   0  0  0  0  0  0  0  0  0  0  0  0  # atno 6909 bound_to 6896
  144.8608  139.6003  143.5931 H   0  0  0  0  0  0  0  0  0  0  0  0  # atno 7974 bound_to 7965
  156.0306  140.3330  155.7135 H   0  0  0  0  0  0  0  0  0  0  0  0  # atno 8008 bound_to 7997
  155.5890  140.0644  157.2781 H   0  0  0  0  0  0  0  0  0  0  0  0  # atno 8009 bound_to 7997
  154.4351  140.1830  156.1043 H   0  0  0  0  0  0  0  0  0  0  0  0  # atno 8010 bound_to 7997
  140.7107  143.3314  151.2561 H   0  0  0  0  0  0  0  0  0  0  0  0  # atno 10167 bound_to 10162
  156.3983  130.4385  149.7342 H   0  0  0  0  0  0  0  0  0  0  0  0  # atno 10718 bound_to 10713
  154.8086  135.4668  154.0456 H   0  0  0  0  0  0  0  0  0  0  0  0  # atno 10763 bound_to 10752
  153.1905  135.6854  153.8365 H   0  0  0  0  0  0  0  0  0  0  0  0  # atno 10764 bound_to 10752
  153.7885  135.3246  155.3352 H   0  0  0  0  0  0  0  0  0  0  0  0  # atno 10765 bound_to 10752
  140.0325  134.9345  157.0690 H   0  0  0  0  0  0  0  0  0  0  0  0  # atno 11005 bound_to 11000
  146.2859  139.7003  142.9196 LP  0  0  0  0  0  0  0  0  0  0  0  0  # atno 17320 bound_to 7965
  145.4316  141.0415  143.2907 LP  0  0  0  0  0  0  0  0  0  0  0  0  # atno 17321 bound_to 7965
  139.6797  143.9876  152.2801 LP  0  0  0  0  0  0  0  0  0  0  0  0  # atno 17342 bound_to 10162
  139.9502  144.6625  150.8179 LP  0  0  0  0  0  0  0  0  0  0  0  0  # atno 17343 bound_to 10162
  156.4368  130.7842  151.2862 LP  0  0  0  0  0  0  0  0  0  0  0  0  # atno 17370 bound_to 10713
  157.7502  131.0137  150.3435 LP  0  0  0  0  0  0  0  0  0  0  0  0  # atno 17371 bound_to 10713
  140.4202  134.1889  155.7164 LP  0  0  0  0  0  0  0  0  0  0  0  0  # atno 17394 bound_to 11000
  141.1839  133.8355  157.1159 LP  0  0  0  0  0  0  0  0  0  0  0  0  # atno 17395 bound_to 11000

$$$$
