AV-unprocessed.smi:1165|AV-procd|sdf|4933|dock7
  -GOLD-   22720 3513D 1   1.00000     0.00000
 Structure written by MMmdl.
 40 41  0  0  0  0  0  0  0  0  2 V2000
  151.1220  138.8857  154.9983 C   0  0  0  0  0  0  0  0  0  0  0  0
  152.2713  137.8645  154.9150 C   0  0  1  0  0  0  0  0  0  0  0  0
  153.2052  137.9047  156.1395 C   0  0  0  0  0  0  0  0  0  0  0  0
  152.5778  137.2697  157.3080 N   0  0  0  0  0  0  0  0  0  0  0  0
  153.2921  137.5594  158.8703 S   0  0  0  0  0  0  0  0  0  0  0  0
  152.3913  136.9076  159.8332 O   0  0  0  0  0  0  0  0  0  0  0  0
  154.6794  137.0685  158.8014 O   0  0  0  0  0  0  0  0  0  0  0  0
  153.1704  139.1834  158.9041 N   0  5  0  0  0  0  0  0  0  0  0  0
  151.9491  139.8455  159.3521 C   0  0  0  0  0  0  0  0  0  0  0  0
  151.4040  140.7735  158.2455 C   0  0  0  0  0  0  0  0  0  0  0  0
  151.6664  142.2584  158.4757 C   0  0  0  0  0  0  0  0  0  0  0  0
  152.3109  142.7093  159.6483 C   0  0  0  0  0  0  0  0  0  0  0  0
  152.5258  144.0903  159.8193 C   0  0  0  0  0  0  0  0  0  0  0  0
  152.0821  144.9672  158.8100 C   0  0  0  0  0  0  0  0  0  0  0  0
  151.4566  144.5521  157.6876 N   0  0  0  0  0  0  0  0  0  0  0  0
  151.2572  143.2256  157.5305 C   0  0  0  0  0  0  0  0  0  0  0  0
  152.0658  135.9199  157.0155 C   0  0  0  0  0  0  0  0  0  0  0  0
  151.1320  135.9461  155.7939 C   0  0  2  0  0  0  0  0  0  0  0  0
  150.6916  134.5370  155.3812 C   0  0  0  0  0  0  0  0  0  0  0  0
  151.7993  136.5389  154.6847 O   0  0  0  0  0  0  0  0  0  0  0  0
  151.5125  139.9033  155.0259 H   0  0  0  0  0  0  0  0  0  0  0  0
  150.5144  138.7517  155.8931 H   0  0  0  0  0  0  0  0  0  0  0  0
  150.4665  138.8076  154.1309 H   0  0  0  0  0  0  0  0  0  0  0  0
  152.8633  138.1291  154.0385 H   0  0  0  0  0  0  0  0  0  0  0  0
  154.1357  137.3804  155.9192 H   0  0  0  0  0  0  0  0  0  0  0  0
  153.4702  138.9368  156.3668 H   0  0  0  0  0  0  0  0  0  0  0  0
  151.1736  139.1307  159.6286 H   0  0  0  0  0  0  0  0  0  0  0  0
  152.1344  140.4426  160.2455 H   0  0  0  0  0  0  0  0  0  0  0  0
  151.8574  140.4945  157.2937 H   0  0  0  0  0  0  0  0  0  0  0  0
  150.3320  140.6144  158.1201 H   0  0  0  0  0  0  0  0  0  0  0  0
  152.6405  142.0078  160.4007 H   0  0  0  0  0  0  0  0  0  0  0  0
  153.0215  144.4672  160.7014 H   0  0  0  0  0  0  0  0  0  0  0  0
  152.2316  146.0322  158.9081 H   0  0  0  0  0  0  0  0  0  0  0  0
  150.7561  142.9262  156.6216 H   0  0  0  0  0  0  0  0  0  0  0  0
  152.9124  135.2559  156.8365 H   0  0  0  0  0  0  0  0  0  0  0  0
  151.5301  135.5219  157.8767 H   0  0  0  0  0  0  0  0  0  0  0  0
  150.2366  136.5196  156.0347 H   0  0  0  0  0  0  0  0  0  0  0  0
  150.1633  134.0376  156.1937 H   0  0  0  0  0  0  0  0  0  0  0  0
  151.5481  133.9194  155.1096 H   0  0  0  0  0  0  0  0  0  0  0  0
  150.0214  134.5740  154.5224 H   0  0  0  0  0  0  0  0  0  0  0  0
  1  2  1  0  0  0  0
  1 21  1  0  0  0  0
  1 22  1  0  0  0  0
  1 23  1  0  0  0  0
  2 20  1  0  0  0  0
  2  3  1  0  0  0  0
  2 24  1  0  0  0  0
  3  4  1  0  0  0  0
  3 25  1  0  0  0  0
  3 26  1  0  0  0  0
  4  5  1  0  0  0  0
  4 17  1  0  0  0  0
  5  6  2  0  0  0  0
  5  7  2  0  0  0  0
  5  8  1  0  0  0  0
  8  9  1  0  0  0  0
  9 10  1  0  0  0  0
  9 27  1  0  0  0  0
  9 28  1  0  0  0  0
 10 11  1  0  0  0  0
 10 29  1  0  0  0  0
 10 30  1  0  0  0  0
 11 16  1  0  0  0  0
 11 12  2  0  0  0  0
 12 13  1  0  0  0  0
 12 31  1  0  0  0  0
 13 14  2  0  0  0  0
 13 32  1  0  0  0  0
 14 15  1  0  0  0  0
 14 33  1  0  0  0  0
 15 16  2  0  0  0  0
 16 34  1  0  0  0  0
 17 18  1  0  0  0  0
 17 35  1  0  0  0  0
 17 36  1  0  0  0  0
 18 19  1  0  0  0  0
 18 20  1  0  0  0  0
 18 37  1  0  0  0  0
 19 38  1  0  0  0  0
 19 39  1  0  0  0  0
 19 40  1  0  0  0  0
M  CHG  1   8  -1
M  END
> <s_m_source_file>
AV-unprocessed.smi

> <i_m_source_file_index>
1165

> <i_lp_mmshare_version>
43012

> <i_f3d_flags>
0

> <s_epik_input>
W0NIM11bQ0BASF0xW0NIMl1OKFtDSDJdW0NASF0oTzEpW0NIM10pUyg9TykoPU8pW05IXVtDSDJdW0NIMl1jMltjSF1bY0hdW2NIXW5bY0hdMg==

> <s_epik_cmdline>
J2VwaWtfcHl0aG9uJywgJy1waCcsICc3LjAnLCAnLXRuJywgJzgnLCAnLW1hJywgJzIwMCcsICctbWV0YWxfYmluZGluZycsICctaW1hZScsICc8aW5maWxlLm1hZT4nLCAnLW9tYWUnLCAnPG91dGZpbGUubWFlPic=

> <r_epik_Ionization_Penalty>
1.23471

> <r_epik_Ionization_Penalty_Charging>
1.20871

> <r_epik_Ionization_Penalty_Neutral>
0.025996

> <r_epik_State_Penalty>
1.46261

> <r_epik_Charging_Adjusted_Penalty>
2.67132

> <i_epik_Tot_Q>
-1

> <i_epik_Tot_abs_Q>
1

> <r_epik_Metal_State_Penalty>
0.521406

> <b_epik_Metal_Only>
0

> <s_lp_Force_Field>
OPLS_2005

> <r_lp_Energy>
6.37225

> <b_lp_Chiralities_Consistent>
1

> <s_lp_Variant>
AV-unprocessed.smi:1165-6

> <Gold.Version>
5.8.1

> <Gold.Id.Protein>
6NUR|6NUR_protein|mol2

> <Gold.PLP.Fitness>
47.6369

> <Gold.PLP.PLP>
-35.2000

> <Gold.PLP.part.hbond>
-2.8745

> <Gold.PLP.part.metal>
0.0000

> <Gold.PLP.part.buried>
-3.7185

> <Gold.PLP.part.nonpolar>
-29.9150

> <Gold.PLP.part.repulsive>
1.0586

> <Gold.PLP.ligand.clash>
0.0000

> <Gold.PLP.ligand.torsion>
1.2043

> <Gold.PLP.Chemscore.Hbond>
3.6950

> <Gold.PLP.Chemscore.CHOScore>
0.7205

> <Gold.PLP.Chemscore.Metal>
0.0000

> <Gold.Chemscore.Hbonds>
donor molecule, donor type, donor heavy atom, donor atom, acceptor molecule, acceptor atom, score
      P1  H  6896  6907       L1     6  1.00
      P1  H 10752 10764       L1    20  0.99
      L1  C    16    34       P1  8028  0.30

> <Gold.PLP.Chemscore.Internal.Correction>
1.5992

> <Gold.Rescore>
     Score         DG    S(hbond)    S(metal)    S(lipo)     H(rot)  DE(clash)    DE(int)     intcor
     18.83     -20.14       1.87        0.00     104.12       1.47       0.11       1.20       ----

> <Gold.Chemscore.Fitness>
18.8345

> <Gold.Chemscore.DG>
-20.1394

> <Gold.Chemscore.ZeroCoef>
-5.4800

> <Gold.Chemscore.Hbond>
1.8707

> <Gold.Chemscore.Metal>
0.0000

> <Gold.Chemscore.Lipo>
104.1241

> <Gold.Chemscore.Internal_Hbond>
0.0000

> <Gold.Chemscore.DEClash>
0.1074

> <Gold.Chemscore.DEInternal>
1.1975

> <Gold.Chemscore.Rot>
1.4731

> <Gold.Chemscore.Internal.Correction>
   9.000000E+99

> <Gold.Chemscore.Hbonds>
donor molecule, donor type, donor heavy atom, donor atom, acceptor molecule, acceptor atom, score
      P1  H  6896  6907       L1     6  1.00
      P1  H  7997  8009       L1     8  0.01
      P1  H 10752 10764       L1    20  0.51

> <Gold.Chemscore.Hbond.Weighted>
-6.2480

> <Gold.Chemscore.Metal.Weighted>
-0.0000

> <Gold.Chemscore.Lipo.Weighted>
-12.1825

> <Gold.Chemscore.Internal_Hbond.Weighted>
0.0000

> <Gold.Chemscore.DEClash.Weighted>
0.1074

> <Gold.Chemscore.DEInternal.Weighted>
1.1975

> <Gold.Chemscore.Rot.Weighted>
3.7712

> <Gold.Chemscore.Internal.Correction.Weighted>
   9.000000E+99

> <Gold.Protein.RotatedTorsions>
[ 6907 6896 6895 6894 ] final   25.11 input  -60.11 | X-H torsion
[ 7974 7965 7964 7962 ] final  135.80 input  175.53 | X-H torsion
[ 8008 7997 7996 7995 ] final  151.68 input   59.86 | X-H torsion
[ 10167 10162 10161 10158 ] final  -53.77 input  -65.29 | X-H torsion
[ 10718 10713 10712 10709 ] final  -41.27 input   66.30 | X-H torsion
[ 10763 10752 10751 10750 ] final  -84.68 input  -60.55 | X-H torsion
[ 11005 11000 10999 10996 ] final   -4.34 input  -57.11 | X-H torsion

> <Gold.Protein.ActiveResidues>
 VAL166  LYS551  ARG553  GLY616  TRP617  ASP618  TYR619  PRO620  LYS621  CYS622 
 ASP623  PHE694  ASN695  SER759  ASP760  ASP761  ALA762  ILE779  LEU786  VAL792 
 PHE793  MET794  SER795  GLU796  ALA797  LYS798  CYS799  TRP800  GLU811  SER814 

> <Gold.Protein.RotatedAtoms>
  151.9676  135.0092  160.0550 H   0  0  0  0  0  0  0  0  0  0  0  0  # atno 6907 bound_to 6896
  152.1812  133.4704  159.4967 H   0  0  0  0  0  0  0  0  0  0  0  0  # atno 6908 bound_to 6896
  150.6918  134.1748  159.4269 H   0  0  0  0  0  0  0  0  0  0  0  0  # atno 6909 bound_to 6896
  144.9627  139.4692  143.5471 H   0  0  0  0  0  0  0  0  0  0  0  0  # atno 7974 bound_to 7965
  156.2663  140.2041  156.6214 H   0  0  0  0  0  0  0  0  0  0  0  0  # atno 8008 bound_to 7997
  154.6754  140.0545  157.0234 H   0  0  0  0  0  0  0  0  0  0  0  0  # atno 8009 bound_to 7997
  155.1077  140.3212  155.4533 H   0  0  0  0  0  0  0  0  0  0  0  0  # atno 8010 bound_to 7997
  140.6467  143.2540  151.4840 H   0  0  0  0  0  0  0  0  0  0  0  0  # atno 10167 bound_to 10162
  156.2723  130.4208  149.8425 H   0  0  0  0  0  0  0  0  0  0  0  0  # atno 10718 bound_to 10713
  154.6023  135.5512  153.7387 H   0  0  0  0  0  0  0  0  0  0  0  0  # atno 10763 bound_to 10752
  153.0160  135.6369  154.1696 H   0  0  0  0  0  0  0  0  0  0  0  0  # atno 10764 bound_to 10752
  154.1636  135.2896  155.3081 H   0  0  0  0  0  0  0  0  0  0  0  0  # atno 10765 bound_to 10752
  140.6792  133.9168  155.8544 H   0  0  0  0  0  0  0  0  0  0  0  0  # atno 11005 bound_to 11000
  146.3358  139.8788  142.8828 LP  0  0  0  0  0  0  0  0  0  0  0  0  # atno 17320 bound_to 7965
  145.2675  141.0098  143.3791 LP  0  0  0  0  0  0  0  0  0  0  0  0  # atno 17321 bound_to 7965
  139.5678  144.2000  152.1791 LP  0  0  0  0  0  0  0  0  0  0  0  0  # atno 17342 bound_to 10162
  140.1287  144.5308  150.6816 LP  0  0  0  0  0  0  0  0  0  0  0  0  # atno 17343 bound_to 10162
  156.5902  130.8503  151.3406 LP  0  0  0  0  0  0  0  0  0  0  0  0  # atno 17370 bound_to 10713
  157.7288  130.9661  150.1757 LP  0  0  0  0  0  0  0  0  0  0  0  0  # atno 17371 bound_to 10713
  141.0331  134.0728  157.3991 LP  0  0  0  0  0  0  0  0  0  0  0  0  # atno 17394 bound_to 11000
  139.8957  135.0142  156.7015 LP  0  0  0  0  0  0  0  0  0  0  0  0  # atno 17395 bound_to 11000

$$$$
