AV-unprocessed.smi:2253|AV-procd|sdf|9121|dock3
  -GOLD-   2272012323D 1   1.00000     0.00000
 Structure written by MMmdl.
 51 53  0  0  0  0  0  0  0  0  2 V2000
  152.2263  144.0968  159.9369 C   0  0  0  0  0  0  0  0  0  0  0  0
  151.7198  142.9588  159.1824 N   0  0  0  0  0  0  0  0  0  0  0  0
  152.7580  141.9351  159.0962 C   0  0  0  0  0  0  0  0  0  0  0  0
  152.2199  140.6955  158.3610 C   0  0  0  0  0  0  0  0  0  0  0  0
  151.7312  141.0343  156.9311 C   0  0  0  0  0  0  0  0  0  0  0  0
  151.0985  139.8800  156.2117 N   0  3  2  0  0  0  0  0  0  0  0  0
  150.3831  138.9035  157.0848 C   0  0  0  0  0  0  0  0  0  0  0  0
  149.6646  137.8190  156.2634 C   0  0  0  0  0  0  0  0  0  0  0  0
  150.6340  137.0794  155.3331 C   0  0  1  0  0  0  0  0  0  0  0  0
  149.9003  136.1202  154.5127 N   0  0  0  0  0  0  0  0  0  0  0  0
  149.7392  134.8207  154.8020 C   0  0  0  0  0  0  0  0  0  0  0  0
  150.2043  134.2911  155.8109 O   0  0  0  0  0  0  0  0  0  0  0  0
  149.0047  134.2028  153.8612 N   0  0  0  0  0  0  0  0  0  0  0  0
  148.6073  132.8393  153.7851 C   0  0  0  0  0  0  0  0  0  0  0  0
  149.3559  131.7574  154.3095 C   0  0  0  0  0  0  0  0  0  0  0  0
  148.8536  130.4499  154.1513 C   0  0  0  0  0  0  0  0  0  0  0  0
  147.6957  130.1685  153.5169 N   0  0  0  0  0  0  0  0  0  0  0  0
  146.9914  131.2010  153.0070 C   0  0  0  0  0  0  0  0  0  0  0  0
  147.4035  132.5448  153.1105 C   0  0  0  0  0  0  0  0  0  0  0  0
  146.6503  133.5340  152.5715 F   0  0  0  0  0  0  0  0  0  0  0  0
  151.3667  138.1068  154.4566 C   0  0  0  0  0  0  0  0  0  0  0  0
  152.0616  139.1722  155.3190 C   0  0  0  0  0  0  0  0  0  0  0  0
  150.7467  142.2214  157.0494 C   0  0  0  0  0  0  0  0  0  0  0  0
  151.3500  143.3958  157.8388 C   0  0  0  0  0  0  0  0  0  0  0  0
  152.4998  143.7939  160.9481 H   0  0  0  0  0  0  0  0  0  0  0  0
  151.4633  144.8717  160.0191 H   0  0  0  0  0  0  0  0  0  0  0  0
  153.1059  144.5324  159.4606 H   0  0  0  0  0  0  0  0  0  0  0  0
  153.6378  142.3289  158.5847 H   0  0  0  0  0  0  0  0  0  0  0  0
  153.0721  141.6514  160.1015 H   0  0  0  0  0  0  0  0  0  0  0  0
  153.0250  139.9611  158.3302 H   0  0  0  0  0  0  0  0  0  0  0  0
  151.4080  140.2550  158.9421 H   0  0  0  0  0  0  0  0  0  0  0  0
  152.6023  141.3536  156.3560 H   0  0  0  0  0  0  0  0  0  0  0  0
  151.0901  138.4476  157.7799 H   0  0  0  0  0  0  0  0  0  0  0  0
  149.6174  139.3988  157.6799 H   0  0  0  0  0  0  0  0  0  0  0  0
  149.1802  137.1106  156.9367 H   0  0  0  0  0  0  0  0  0  0  0  0
  148.8681  138.2809  155.6776 H   0  0  0  0  0  0  0  0  0  0  0  0
  151.3617  136.5443  155.9469 H   0  0  0  0  0  0  0  0  0  0  0  0
  149.4790  136.4729  153.6654 H   0  0  0  0  0  0  0  0  0  0  0  0
  148.6379  134.7929  153.1287 H   0  0  0  0  0  0  0  0  0  0  0  0
  150.2993  131.8959  154.8136 H   0  0  0  0  0  0  0  0  0  0  0  0
  149.4019  129.6048  154.5404 H   0  0  0  0  0  0  0  0  0  0  0  0
  146.0724  130.9485  152.4991 H   0  0  0  0  0  0  0  0  0  0  0  0
  152.1064  137.6078  153.8292 H   0  0  0  0  0  0  0  0  0  0  0  0
  150.6623  138.5902  153.7779 H   0  0  0  0  0  0  0  0  0  0  0  0
  152.5615  139.8681  154.6487 H   0  0  0  0  0  0  0  0  0  0  0  0
  152.8428  138.7083  155.9235 H   0  0  0  0  0  0  0  0  0  0  0  0
  150.4561  142.5972  156.0702 H   0  0  0  0  0  0  0  0  0  0  0  0
  149.8273  141.8924  157.5364 H   0  0  0  0  0  0  0  0  0  0  0  0
  150.6161  144.1998  157.9082 H   0  0  0  0  0  0  0  0  0  0  0  0
  152.2193  143.7995  157.3169 H   0  0  0  0  0  0  0  0  0  0  0  0
  150.3895  140.2819  155.6150 H   0  0  0  0  0  0  0  0  0  0  0  0
  1  2  1  0  0  0  0
  1 25  1  0  0  0  0
  1 26  1  0  0  0  0
  1 27  1  0  0  0  0
  2 24  1  0  0  0  0
  2  3  1  0  0  0  0
  3  4  1  0  0  0  0
  3 28  1  0  0  0  0
  3 29  1  0  0  0  0
  4  5  1  0  0  0  0
  4 30  1  0  0  0  0
  4 31  1  0  0  0  0
  5  6  1  0  0  0  0
  5 23  1  0  0  0  0
  5 32  1  0  0  0  0
  6 22  1  0  0  0  0
  6  7  1  0  0  0  0
  6 51  1  0  0  0  0
  7  8  1  0  0  0  0
  7 33  1  0  0  0  0
  7 34  1  0  0  0  0
  8  9  1  0  0  0  0
  8 35  1  0  0  0  0
  8 36  1  0  0  0  0
  9 10  1  0  0  0  0
  9 21  1  0  0  0  0
  9 37  1  0  0  0  0
 10 11  1  0  0  0  0
 10 38  1  0  0  0  0
 11 12  2  0  0  0  0
 11 13  1  0  0  0  0
 13 14  1  0  0  0  0
 13 39  1  0  0  0  0
 14 19  1  0  0  0  0
 14 15  2  0  0  0  0
 15 16  1  0  0  0  0
 15 40  1  0  0  0  0
 16 17  2  0  0  0  0
 16 41  1  0  0  0  0
 17 18  1  0  0  0  0
 18 19  2  0  0  0  0
 18 42  1  0  0  0  0
 19 20  1  0  0  0  0
 21 22  1  0  0  0  0
 21 43  1  0  0  0  0
 21 44  1  0  0  0  0
 22 45  1  0  0  0  0
 22 46  1  0  0  0  0
 23 24  1  0  0  0  0
 23 47  1  0  0  0  0
 23 48  1  0  0  0  0
 24 49  1  0  0  0  0
 24 50  1  0  0  0  0
M  CHG  1   6   1
M  END
> <s_m_source_file>
AV-unprocessed.smi

> <i_m_source_file_index>
2253

> <i_lp_mmshare_version>
43012

> <i_f3d_flags>
0

> <s_epik_input>
W0NIM11OMVtDSDJdW0NIMl1bQ0hdKFtDSDJdW0NIMl0xKU4yW0NIMl1bQ0gyXVtDSF0oW0NIMl1bQ0gyXTIpW05IXUMoPU8pW05IXWMzW2NIXVtjSF1uW2NIXWMzRg==

> <s_epik_cmdline>
J2VwaWtfcHl0aG9uJywgJy1waCcsICc3LjAnLCAnLXRuJywgJzgnLCAnLW1hJywgJzIwMCcsICctbWV0YWxfYmluZGluZycsICctaW1hZScsICc8aW5maWxlLm1hZT4nLCAnLW9tYWUnLCAnPG91dGZpbGUubWFlPic=

> <r_epik_Ionization_Penalty>
1.37522

> <r_epik_Ionization_Penalty_Charging>
0.00081195

> <r_epik_Ionization_Penalty_Neutral>
1.3744

> <r_epik_State_Penalty>
1.55149

> <r_epik_Charging_Adjusted_Penalty>
1.5523

> <i_epik_Tot_Q>
1

> <i_epik_Tot_abs_Q>
1

> <r_epik_Metal_State_Penalty>
1.55158

> <b_epik_Metal_Only>
0

> <s_lp_Force_Field>
OPLS_2005

> <r_lp_Energy>
37.061

> <b_lp_Chiralities_Consistent>
1

> <s_lp_Variant>
AV-unprocessed.smi:2253-7

> <Gold.Version>
5.8.1

> <Gold.Id.Protein>
6NUR|6NUR_protein|mol2

> <Gold.PLP.Fitness>
45.9640

> <Gold.PLP.PLP>
-42.7457

> <Gold.PLP.part.hbond>
-2.4622

> <Gold.PLP.part.metal>
0.0000

> <Gold.PLP.part.buried>
-5.1695

> <Gold.PLP.part.nonpolar>
-34.9861

> <Gold.PLP.part.repulsive>
0.2987

> <Gold.PLP.ligand.clash>
0.0000

> <Gold.PLP.ligand.torsion>
1.3948

> <Gold.PLP.Chemscore.Hbond>
1.9920

> <Gold.PLP.Chemscore.CHOScore>
0.0000

> <Gold.PLP.Chemscore.Metal>
0.0000

> <Gold.Chemscore.Hbonds>
donor molecule, donor type, donor heavy atom, donor atom, acceptor molecule, acceptor atom, score
      L1  H    10    38       P1  7948  0.99
      L1  H    13    39       P1  7948  0.94

> <Gold.PLP.Chemscore.Internal.Correction>
0.0319

> <Gold.Rescore>
     Score         DG    S(hbond)    S(metal)    S(lipo)     H(rot)  DE(clash)    DE(int)     intcor
     18.21     -19.70       1.58        0.00     103.48       1.24       0.03       1.46       ----

> <Gold.Chemscore.Fitness>
18.2062

> <Gold.Chemscore.DG>
-19.6988

> <Gold.Chemscore.ZeroCoef>
-5.4800

> <Gold.Chemscore.Hbond>
1.5809

> <Gold.Chemscore.Metal>
0.0000

> <Gold.Chemscore.Lipo>
103.4784

> <Gold.Chemscore.Internal_Hbond>
0.0000

> <Gold.Chemscore.DEClash>
0.0300

> <Gold.Chemscore.DEInternal>
1.4626

> <Gold.Chemscore.Rot>
1.2377

> <Gold.Chemscore.Internal.Correction>
   9.000000E+99

> <Gold.Chemscore.Hbonds>
donor molecule, donor type, donor heavy atom, donor atom, acceptor molecule, acceptor atom, score
      L1  H    10    38       P1  7948  0.74
      L1  H    13    39       P1  7948  0.36

> <Gold.Chemscore.Hbond.Weighted>
-5.2803

> <Gold.Chemscore.Metal.Weighted>
-0.0000

> <Gold.Chemscore.Lipo.Weighted>
-12.1070

> <Gold.Chemscore.Internal_Hbond.Weighted>
0.0000

> <Gold.Chemscore.DEClash.Weighted>
0.0300

> <Gold.Chemscore.DEInternal.Weighted>
1.4626

> <Gold.Chemscore.Rot.Weighted>
3.1685

> <Gold.Chemscore.Internal.Correction.Weighted>
   9.000000E+99

> <Gold.Protein.RotatedTorsions>
[ 6907 6896 6895 6894 ] final  -82.56 input  -60.11 | X-H torsion
[ 7974 7965 7964 7962 ] final  133.11 input  175.53 | X-H torsion
[ 8008 7997 7996 7995 ] final -157.77 input   59.86 | X-H torsion
[ 10167 10162 10161 10158 ] final  -53.77 input  -65.29 | X-H torsion
[ 10718 10713 10712 10709 ] final  -45.50 input   66.30 | X-H torsion
[ 10763 10752 10751 10750 ] final   -1.51 input  -60.55 | X-H torsion
[ 11005 11000 10999 10996 ] final   11.39 input  -57.11 | X-H torsion

> <Gold.Protein.ActiveResidues>
 VAL166  LYS551  ARG553  GLY616  TRP617  ASP618  TYR619  PRO620  LYS621  CYS622 
 ASP623  PHE694  ASN695  SER759  ASP760  ASP761  ALA762  ILE779  LEU786  VAL792 
 PHE793  MET794  SER795  GLU796  ALA797  LYS798  CYS799  TRP800  GLU811  SER814 

> <Gold.Protein.RotatedAtoms>
  150.6896  134.3646  159.4965 H   0  0  0  0  0  0  0  0  0  0  0  0  # atno 6907 bound_to 6896
  152.1470  134.9015  160.0559 H   0  0  0  0  0  0  0  0  0  0  0  0  # atno 6908 bound_to 6896
  152.0127  133.3833  159.4263 H   0  0  0  0  0  0  0  0  0  0  0  0  # atno 6909 bound_to 6896
  144.9899  139.4417  143.5344 H   0  0  0  0  0  0  0  0  0  0  0  0  # atno 7974 bound_to 7965
  155.7374  140.0810  157.2261 H   0  0  0  0  0  0  0  0  0  0  0  0  # atno 8008 bound_to 7997
  154.4026  140.1584  156.2632 H   0  0  0  0  0  0  0  0  0  0  0  0  # atno 8009 bound_to 7997
  155.9052  140.3407  155.6059 H   0  0  0  0  0  0  0  0  0  0  0  0  # atno 8010 bound_to 7997
  140.6467  143.2539  151.4840 H   0  0  0  0  0  0  0  0  0  0  0  0  # atno 10167 bound_to 10162
  156.2277  130.4170  149.8913 H   0  0  0  0  0  0  0  0  0  0  0  0  # atno 10718 bound_to 10713
  153.3458  135.6983  153.6829 H   0  0  0  0  0  0  0  0  0  0  0  0  # atno 10763 bound_to 10752
  153.5576  135.3541  155.2786 H   0  0  0  0  0  0  0  0  0  0  0  0  # atno 10764 bound_to 10752
  154.8645  135.4241  154.2681 H   0  0  0  0  0  0  0  0  0  0  0  0  # atno 10765 bound_to 10752
  140.5038  134.0720  155.7800 H   0  0  0  0  0  0  0  0  0  0  0  0  # atno 11005 bound_to 11000
  146.3429  139.9224  142.8765 LP  0  0  0  0  0  0  0  0  0  0  0  0  # atno 17320 bound_to 7965
  145.2301  140.9969  143.3996 LP  0  0  0  0  0  0  0  0  0  0  0  0  # atno 17321 bound_to 7965
  139.5678  144.2001  152.1791 LP  0  0  0  0  0  0  0  0  0  0  0  0  # atno 17342 bound_to 10162
  140.1288  144.5307  150.6816 LP  0  0  0  0  0  0  0  0  0  0  0  0  # atno 17343 bound_to 10162
  156.6538  130.8754  151.3536 LP  0  0  0  0  0  0  0  0  0  0  0  0  # atno 17370 bound_to 10713
  157.7118  130.9450  150.1116 LP  0  0  0  0  0  0  0  0  0  0  0  0  # atno 17371 bound_to 10713
  141.1422  133.9119  157.2300 LP  0  0  0  0  0  0  0  0  0  0  0  0  # atno 17394 bound_to 11000
  139.9698  135.0131  156.9482 LP  0  0  0  0  0  0  0  0  0  0  0  0  # atno 17395 bound_to 11000

$$$$
