AV-unprocessed.smi:249|AV-procd|sdf|1924|dock3
  -GOLD-   2262021 33D 1   1.00000     0.00000
 Structure written by MMmdl.
 64 67  0  0  0  0  0  0  0  0  2 V2000
  143.6979  133.0612  151.6611 C   0  0  0  0  0  0  0  0  0  0  0  0
  143.8277  134.3764  152.4445 C   0  0  0  0  0  0  0  0  0  0  0  0
  144.2660  134.1786  153.8579 N   0  3  2  0  0  0  0  0  0  0  0  0
  143.8232  135.2545  154.7898 C   0  0  0  0  0  0  0  0  0  0  0  0
  144.6123  136.5610  154.5786 C   0  0  0  0  0  0  0  0  0  0  0  0
  146.1275  136.3125  154.7138 C   0  0  2  0  0  0  0  0  0  0  0  0
  146.9167  137.5348  154.5216 N   0  0  0  0  0  0  0  0  0  0  0  0
  146.5688  138.4646  153.4473 C   0  0  0  0  0  0  0  0  0  0  0  0
  147.4318  138.0792  155.6548 C   0  0  0  0  0  0  0  0  0  0  0  0
  147.3463  137.3968  156.8282 N   0  0  0  0  0  0  0  0  0  0  0  0
  147.8659  137.9093  157.9474 C   0  0  0  0  0  0  0  0  0  0  0  0
  148.5075  139.0670  158.1148 N   0  0  0  0  0  0  0  0  0  0  0  0
  148.5931  139.7593  156.9436 C   0  0  0  0  0  0  0  0  0  0  0  0
  148.0809  139.3465  155.6812 C   0  0  0  0  0  0  0  0  0  0  0  0
  148.3371  140.3232  154.7254 N   0  0  0  0  0  0  0  0  0  0  0  0
  148.9756  141.2529  155.3817 C   0  0  0  0  0  0  0  0  0  0  0  0
  149.1959  140.9841  156.7139 N   0  0  0  0  0  0  0  0  0  0  0  0
  149.8763  141.8405  157.6699 C   0  0  0  0  0  0  0  0  0  0  0  0
  151.4237  141.8883  157.5225 C   0  0  2  0  0  0  0  0  0  0  0  0
  152.0137  140.5174  157.9333 C   0  0  0  0  0  0  0  0  0  0  0  0
  152.5705  139.8421  156.8241 O   0  0  0  0  0  0  0  0  0  0  0  0
  152.0835  143.0512  158.3234 C   0  0  1  0  0  0  0  0  0  0  0  0
  151.5723  144.4418  157.9759 C   0  0  0  0  0  0  0  0  0  0  0  0
  152.0222  145.2659  159.1735 C   0  0  0  0  0  0  0  0  0  0  0  0
  151.8574  144.3999  160.2850 O   0  0  0  0  0  0  0  0  0  0  0  0
  151.8368  143.0463  159.8420 C   0  0  0  0  0  0  0  0  0  0  0  0
  146.5715  135.1657  153.7844 C   0  0  0  0  0  0  0  0  0  0  0  0
  145.7247  133.9009  154.0379 C   0  0  2  0  0  0  0  0  0  0  0  0
  146.2254  132.6859  153.2363 C   0  0  0  0  0  0  0  0  0  0  0  0
  143.5327  133.2646  150.6029 H   0  0  0  0  0  0  0  0  0  0  0  0
  142.8558  132.4596  152.0014 H   0  0  0  0  0  0  0  0  0  0  0  0
  144.6035  132.4595  151.7426 H   0  0  0  0  0  0  0  0  0  0  0  0
  144.5633  134.9772  151.9134 H   0  0  0  0  0  0  0  0  0  0  0  0
  142.8914  134.9321  152.3988 H   0  0  0  0  0  0  0  0  0  0  0  0
  142.7531  135.4370  154.7088 H   0  0  0  0  0  0  0  0  0  0  0  0
  143.9776  134.9061  155.8122 H   0  0  0  0  0  0  0  0  0  0  0  0
  144.3761  136.9827  153.6018 H   0  0  0  0  0  0  0  0  0  0  0  0
  144.2912  137.3004  155.3135 H   0  0  0  0  0  0  0  0  0  0  0  0
  146.2860  135.9535  155.7297 H   0  0  0  0  0  0  0  0  0  0  0  0
  147.3473  139.2183  153.3213 H   0  0  0  0  0  0  0  0  0  0  0  0
  145.6307  138.9768  153.6622 H   0  0  0  0  0  0  0  0  0  0  0  0
  146.4657  137.9494  152.4934 H   0  0  0  0  0  0  0  0  0  0  0  0
  147.7559  137.3034  158.8347 H   0  0  0  0  0  0  0  0  0  0  0  0
  149.3177  142.1601  154.9048 H   0  0  0  0  0  0  0  0  0  0  0  0
  149.4664  142.8478  157.5858 H   0  0  0  0  0  0  0  0  0  0  0  0
  149.5966  141.4827  158.6609 H   0  0  0  0  0  0  0  0  0  0  0  0
  151.6695  142.0348  156.4701 H   0  0  0  0  0  0  0  0  0  0  0  0
  152.8183  140.6292  158.6584 H   0  0  0  0  0  0  0  0  0  0  0  0
  151.2512  139.8890  158.3944 H   0  0  0  0  0  0  0  0  0  0  0  0
  152.4320  138.9140  156.9361 H   0  0  0  0  0  0  0  0  0  0  0  0
  153.1604  143.0386  158.1469 H   0  0  0  0  0  0  0  0  0  0  0  0
  151.9752  144.8310  157.0405 H   0  0  0  0  0  0  0  0  0  0  0  0
  150.4829  144.4440  157.9101 H   0  0  0  0  0  0  0  0  0  0  0  0
  153.0770  145.5281  159.0824 H   0  0  0  0  0  0  0  0  0  0  0  0
  151.4496  146.1859  159.2918 H   0  0  0  0  0  0  0  0  0  0  0  0
  150.8569  142.6321  160.0817 H   0  0  0  0  0  0  0  0  0  0  0  0
  152.5891  142.4715  160.3805 H   0  0  0  0  0  0  0  0  0  0  0  0
  146.4910  135.4545  152.7370 H   0  0  0  0  0  0  0  0  0  0  0  0
  147.6249  134.9449  153.9620 H   0  0  0  0  0  0  0  0  0  0  0  0
  145.8502  133.6309  155.0880 H   0  0  0  0  0  0  0  0  0  0  0  0
  147.2266  132.4011  153.5609 H   0  0  0  0  0  0  0  0  0  0  0  0
  146.2876  132.8928  152.1680 H   0  0  0  0  0  0  0  0  0  0  0  0
  145.5776  131.8208  153.3804 H   0  0  0  0  0  0  0  0  0  0  0  0
  143.7936  133.3395  154.1627 H   0  0  0  0  0  0  0  0  0  0  0  0
  1  2  1  0  0  0  0
  1 30  1  0  0  0  0
  1 31  1  0  0  0  0
  1 32  1  0  0  0  0
  2  3  1  0  0  0  0
  2 33  1  0  0  0  0
  2 34  1  0  0  0  0
  3 28  1  0  0  0  0
  3  4  1  0  0  0  0
  3 64  1  0  0  0  0
  4  5  1  0  0  0  0
  4 35  1  0  0  0  0
  4 36  1  0  0  0  0
  5  6  1  0  0  0  0
  5 37  1  0  0  0  0
  5 38  1  0  0  0  0
  6  7  1  0  0  0  0
  6 27  1  0  0  0  0
  6 39  1  0  0  0  0
  7  8  1  0  0  0  0
  7  9  1  0  0  0  0
  8 40  1  0  0  0  0
  8 41  1  0  0  0  0
  8 42  1  0  0  0  0
  9 14  1  0  0  0  0
  9 10  2  0  0  0  0
 10 11  1  0  0  0  0
 11 12  2  0  0  0  0
 11 43  1  0  0  0  0
 12 13  1  0  0  0  0
 13 17  1  0  0  0  0
 13 14  2  0  0  0  0
 14 15  1  0  0  0  0
 15 16  2  0  0  0  0
 16 17  1  0  0  0  0
 16 44  1  0  0  0  0
 17 18  1  0  0  0  0
 18 19  1  0  0  0  0
 18 45  1  0  0  0  0
 18 46  1  0  0  0  0
 19 20  1  0  0  0  0
 19 22  1  0  0  0  0
 19 47  1  0  0  0  0
 20 21  1  0  0  0  0
 20 48  1  0  0  0  0
 20 49  1  0  0  0  0
 21 50  1  0  0  0  0
 22 26  1  0  0  0  0
 22 23  1  0  0  0  0
 22 51  1  0  0  0  0
 23 24  1  0  0  0  0
 23 52  1  0  0  0  0
 23 53  1  0  0  0  0
 24 25  1  0  0  0  0
 24 54  1  0  0  0  0
 24 55  1  0  0  0  0
 25 26  1  0  0  0  0
 26 56  1  0  0  0  0
 26 57  1  0  0  0  0
 27 28  1  0  0  0  0
 27 58  1  0  0  0  0
 27 59  1  0  0  0  0
 28 29  1  0  0  0  0
 28 60  1  0  0  0  0
 29 61  1  0  0  0  0
 29 62  1  0  0  0  0
 29 63  1  0  0  0  0
M  CHG  1   3   1
M  END
> <s_m_source_file>
AV-unprocessed.smi

> <i_m_source_file_index>
249

> <i_lp_mmshare_version>
43012

> <i_f3d_flags>
0

> <s_epik_input>
W0NIM11bQ0gyXU4xW0NIMl1bQ0gyXVtDQEhdKFtDSDJdW0NASF0xW0NIM10pTihbQ0gzXSljKG5bY0hdbjIpYyhjMjMpbltjSF1uM1tDSDJdW0NASF0oW0NIMl1bT0hdKVtDQEBIXTRbQ0gyXVtDSDJdT1tDSDJdNA==

> <s_epik_cmdline>
J2VwaWtfcHl0aG9uJywgJy1waCcsICc3LjAnLCAnLXRuJywgJzgnLCAnLW1hJywgJzIwMCcsICctbWV0YWxfYmluZGluZycsICctaW1hZScsICc8aW5maWxlLm1hZT4nLCAnLW9tYWUnLCAnPG91dGZpbGUubWFlPic=

> <r_lp_tautomer_probability>
1

> <r_epik_Ionization_Penalty>
0.00294688

> <r_epik_Ionization_Penalty_Charging>
0.00169971

> <r_epik_Ionization_Penalty_Neutral>
0.00124717

> <r_epik_State_Penalty>
-0

> <r_epik_Charging_Adjusted_Penalty>
0.00169971

> <i_epik_Tot_Q>
1

> <i_epik_Tot_abs_Q>
1

> <r_epik_Metal_State_Penalty>
-0

> <b_epik_Metal_Only>
0

> <s_lp_Force_Field>
OPLS_2005

> <r_lp_Energy>
54.5526

> <b_lp_Chiralities_Consistent>
1

> <s_lp_Variant>
AV-unprocessed.smi:249-27

> <Gold.Version>
5.8.1

> <Gold.Id.Protein>
6NUR|6NUR_protein|mol2

> <Gold.PLP.Fitness>
46.8427

> <Gold.PLP.PLP>
-37.3342

> <Gold.PLP.part.hbond>
-2.3755

> <Gold.PLP.part.metal>
0.0000

> <Gold.PLP.part.buried>
-7.7910

> <Gold.PLP.part.nonpolar>
-28.3109

> <Gold.PLP.part.repulsive>
0.1587

> <Gold.PLP.ligand.clash>
0.0000

> <Gold.PLP.ligand.torsion>
1.7432

> <Gold.PLP.Chemscore.Hbond>
2.9825

> <Gold.PLP.Chemscore.CHOScore>
0.9769

> <Gold.PLP.Chemscore.Metal>
0.0000

> <Gold.Chemscore.Hbonds>
donor molecule, donor type, donor heavy atom, donor atom, acceptor molecule, acceptor atom, score
      L1  H     3    64       P1 10957  1.98
      P1  H  7997  8010       L1    21  1.00
      L1  C    16    44       P1  8028  0.58

> <Gold.PLP.Chemscore.Internal.Correction>
1.1166

> <Gold.Rescore>
     Score         DG    S(hbond)    S(metal)    S(lipo)     H(rot)  DE(clash)    DE(int)     intcor
     13.02     -16.41       1.96        0.00      95.34       2.65       0.12       3.27       ----

> <Gold.Chemscore.Fitness>
13.0166

> <Gold.Chemscore.DG>
-16.4067

> <Gold.Chemscore.ZeroCoef>
-5.4800

> <Gold.Chemscore.Hbond>
1.9642

> <Gold.Chemscore.Metal>
0.0000

> <Gold.Chemscore.Lipo>
95.3369

> <Gold.Chemscore.Internal_Hbond>
0.0000

> <Gold.Chemscore.DEClash>
0.1214

> <Gold.Chemscore.DEInternal>
3.2687

> <Gold.Chemscore.Rot>
2.6515

> <Gold.Chemscore.Internal.Correction>
   9.000000E+99

> <Gold.Chemscore.Hbonds>
donor molecule, donor type, donor heavy atom, donor atom, acceptor molecule, acceptor atom, score
      L1  H     3    64       P1 10957  0.92
      P1  H  7997  8010       L1    21  0.62

> <Gold.Chemscore.Hbond.Weighted>
-6.5603

> <Gold.Chemscore.Metal.Weighted>
-0.0000

> <Gold.Chemscore.Lipo.Weighted>
-11.1544

> <Gold.Chemscore.Internal_Hbond.Weighted>
0.0000

> <Gold.Chemscore.DEClash.Weighted>
0.1214

> <Gold.Chemscore.DEInternal.Weighted>
3.2687

> <Gold.Chemscore.Rot.Weighted>
6.7880

> <Gold.Chemscore.Internal.Correction.Weighted>
   9.000000E+99

> <Gold.Protein.RotatedTorsions>
[ 6907 6896 6895 6894 ] final -149.41 input  -60.11 | X-H torsion
[ 7974 7965 7964 7962 ] final   68.07 input  175.53 | X-H torsion
[ 8008 7997 7996 7995 ] final   71.86 input   59.86 | X-H torsion
[ 10167 10162 10161 10158 ] final   27.84 input  -65.29 | X-H torsion
[ 10718 10713 10712 10709 ] final  -34.59 input   66.30 | X-H torsion
[ 10763 10752 10751 10750 ] final  -78.43 input  -60.55 | X-H torsion
[ 11005 11000 10999 10996 ] final  -22.09 input  -57.11 | X-H torsion

> <Gold.Protein.ActiveResidues>
 VAL166  LYS551  ARG553  GLY616  TRP617  ASP618  TYR619  PRO620  LYS621  CYS622 
 ASP623  PHE694  ASN695  SER759  ASP760  ASP761  ALA762  ILE779  LEU786  VAL792 
 PHE793  MET794  SER795  GLU796  ALA797  LYS798  CYS799  TRP800  GLU811  SER814 

> <Gold.Protein.RotatedAtoms>
  151.1838  133.4709  159.2594 H   0  0  0  0  0  0  0  0  0  0  0  0  # atno 6907 bound_to 6896
  151.1232  135.0091  159.8558 H   0  0  0  0  0  0  0  0  0  0  0  0  # atno 6908 bound_to 6896
  152.5457  134.1747  159.8664 H   0  0  0  0  0  0  0  0  0  0  0  0  # atno 6909 bound_to 6896
  145.8070  139.3012  143.1121 H   0  0  0  0  0  0  0  0  0  0  0  0  # atno 7974 bound_to 7965
  155.7602  140.3486  155.5194 H   0  0  0  0  0  0  0  0  0  0  0  0  # atno 8008 bound_to 7997
  155.8921  140.1019  157.1432 H   0  0  0  0  0  0  0  0  0  0  0  0  # atno 8009 bound_to 7997
  154.4034  140.1302  156.4316 H   0  0  0  0  0  0  0  0  0  0  0  0  # atno 8010 bound_to 7997
  140.4904  144.0476  150.6295 H   0  0  0  0  0  0  0  0  0  0  0  0  # atno 10167 bound_to 10162
  156.3488  130.4305  149.7722 H   0  0  0  0  0  0  0  0  0  0  0  0  # atno 10718 bound_to 10713
  154.5257  135.5730  153.6717 H   0  0  0  0  0  0  0  0  0  0  0  0  # atno 10763 bound_to 10752
  152.9927  135.6192  154.2695 H   0  0  0  0  0  0  0  0  0  0  0  0  # atno 10764 bound_to 10752
  154.2619  135.2856  155.2754 H   0  0  0  0  0  0  0  0  0  0  0  0  # atno 10765 bound_to 10752
  140.8623  133.7779  156.0089 H   0  0  0  0  0  0  0  0  0  0  0  0  # atno 11005 bound_to 11000
  145.9817  140.8677  143.0111 LP  0  0  0  0  0  0  0  0  0  0  0  0  # atno 17320 bound_to 7965
  144.6762  140.2090  143.7379 LP  0  0  0  0  0  0  0  0  0  0  0  0  # atno 17321 bound_to 7965
  140.3744  143.2837  152.0242 LP  0  0  0  0  0  0  0  0  0  0  0  0  # atno 17342 bound_to 10162
  139.4850  144.6205  151.7265 LP  0  0  0  0  0  0  0  0  0  0  0  0  # atno 17343 bound_to 10162
  156.4931  130.8094  151.3102 LP  0  0  0  0  0  0  0  0  0  0  0  0  # atno 17370 bound_to 10713
  157.7458  130.9969  150.2796 LP  0  0  0  0  0  0  0  0  0  0  0  0  # atno 17371 bound_to 10713
  140.8668  134.2774  157.5209 LP  0  0  0  0  0  0  0  0  0  0  0  0  # atno 17394 bound_to 11000
  139.8707  134.9547  156.4183 LP  0  0  0  0  0  0  0  0  0  0  0  0  # atno 17395 bound_to 11000

$$$$
