AV-unprocessed.smi:699|AV-procd|sdf|3401|dock4
  -GOLD-   22720 0383D 1   1.00000     0.00000
 Structure written by MMmdl.
 34 35  0  0  0  0  0  0  0  0  1 V2000
  149.0135  137.7288  154.1080 N   0  0  0  0  0  0  0  0  0  0  0  0
  149.1563  139.0534  154.0186 C   0  0  0  0  0  0  0  0  0  0  0  0
  150.2416  139.6033  154.1998 O   0  0  0  0  0  0  0  0  0  0  0  0
  147.8897  139.8718  153.6856 C   0  0  2  0  0  0  0  0  0  0  0  0
  147.4813  140.7594  154.8709 C   0  0  0  0  0  0  0  0  0  0  0  0
  146.5608  139.8981  155.7399 C   0  0  0  0  0  0  0  0  0  0  0  0
  145.8917  138.9021  154.7844 C   0  0  0  0  0  0  0  0  0  0  0  0
  146.6100  139.0315  153.4274 C   0  0  2  0  0  0  0  0  0  0  0  0
  146.8471  137.7176  152.8264 N   0  0  0  0  0  0  0  0  0  0  0  0
  145.8898  136.8392  152.4956 C   0  0  0  0  0  0  0  0  0  0  0  0
  144.6905  137.0484  152.6764 O   0  0  0  0  0  0  0  0  0  0  0  0
  146.4195  135.7264  151.9583 N   0  0  0  0  0  0  0  0  0  0  0  0
  145.7621  134.5644  151.4682 C   0  0  0  0  0  0  0  0  0  0  0  0
  146.5674  133.4629  151.1113 C   0  0  0  0  0  0  0  0  0  0  0  0
  145.9479  132.3006  150.6100 C   0  0  0  0  0  0  0  0  0  0  0  0
  144.6138  132.1842  150.4445 N   0  0  0  0  0  0  0  0  0  0  0  0
  143.8448  133.2428  150.7750 C   0  0  0  0  0  0  0  0  0  0  0  0
  144.3626  134.4511  151.2839 C   0  0  0  0  0  0  0  0  0  0  0  0
  149.8131  137.1519  154.3257 H   0  0  0  0  0  0  0  0  0  0  0  0
  148.1075  137.3079  153.9600 H   0  0  0  0  0  0  0  0  0  0  0  0
  148.1039  140.4930  152.8141 H   0  0  0  0  0  0  0  0  0  0  0  0
  148.3313  141.1461  155.4353 H   0  0  0  0  0  0  0  0  0  0  0  0
  146.9278  141.6221  154.4977 H   0  0  0  0  0  0  0  0  0  0  0  0
  147.1505  139.3566  156.4804 H   0  0  0  0  0  0  0  0  0  0  0  0
  145.8331  140.5007  156.2840 H   0  0  0  0  0  0  0  0  0  0  0  0
  145.9709  137.8930  155.1918 H   0  0  0  0  0  0  0  0  0  0  0  0
  144.8287  139.1188  154.6732 H   0  0  0  0  0  0  0  0  0  0  0  0
  145.9592  139.6049  152.7642 H   0  0  0  0  0  0  0  0  0  0  0  0
  147.8082  137.4697  152.6418 H   0  0  0  0  0  0  0  0  0  0  0  0
  147.4279  135.6898  151.9327 H   0  0  0  0  0  0  0  0  0  0  0  0
  147.6414  133.5014  151.2209 H   0  0  0  0  0  0  0  0  0  0  0  0
  146.5414  131.4419  150.3332 H   0  0  0  0  0  0  0  0  0  0  0  0
  142.7818  133.1265  150.6240 H   0  0  0  0  0  0  0  0  0  0  0  0
  143.6804  135.2558  151.5077 H   0  0  0  0  0  0  0  0  0  0  0  0
  1  2  1  0  0  0  0
  1 19  1  0  0  0  0
  1 20  1  0  0  0  0
  2  3  2  0  0  0  0
  2  4  1  0  0  0  0
  4  8  1  0  0  0  0
  4  5  1  0  0  0  0
  4 21  1  0  0  0  0
  5  6  1  0  0  0  0
  5 22  1  0  0  0  0
  5 23  1  0  0  0  0
  6  7  1  0  0  0  0
  6 24  1  0  0  0  0
  6 25  1  0  0  0  0
  7  8  1  0  0  0  0
  7 26  1  0  0  0  0
  7 27  1  0  0  0  0
  8  9  1  0  0  0  0
  8 28  1  0  0  0  0
  9 10  1  0  0  0  0
  9 29  1  0  0  0  0
 10 11  2  0  0  0  0
 10 12  1  0  0  0  0
 12 13  1  0  0  0  0
 12 30  1  0  0  0  0
 13 18  1  0  0  0  0
 13 14  2  0  0  0  0
 14 15  1  0  0  0  0
 14 31  1  0  0  0  0
 15 16  2  0  0  0  0
 15 32  1  0  0  0  0
 16 17  1  0  0  0  0
 17 18  2  0  0  0  0
 17 33  1  0  0  0  0
 18 34  1  0  0  0  0
M  END
> <s_m_source_file>
AV-unprocessed.smi

> <i_m_source_file_index>
699

> <i_lp_mmshare_version>
43012

> <i_f3d_flags>
0

> <s_epik_input>
W05IMl1DKD1PKVtDQEBIXTFbQ0gyXVtDSDJdW0NIMl1bQ0BIXTFbTkhdQyg9TylbTkhdYzJbY0hdW2NIXW5bY0hdW2NIXTI=

> <s_epik_cmdline>
J2VwaWtfcHl0aG9uJywgJy1waCcsICc3LjAnLCAnLXRuJywgJzgnLCAnLW1hJywgJzIwMCcsICctbWV0YWxfYmluZGluZycsICctaW1hZScsICc8aW5maWxlLm1hZT4nLCAnLW9tYWUnLCAnPG91dGZpbGUubWFlPic=

> <r_epik_Ionization_Penalty>
0.113907

> <r_epik_Ionization_Penalty_Charging>
0

> <r_epik_Ionization_Penalty_Neutral>
0.113907

> <r_epik_State_Penalty>
0.103543

> <r_epik_Charging_Adjusted_Penalty>
0.103543

> <i_epik_Tot_Q>
0

> <i_epik_Tot_abs_Q>
0

> <r_epik_Metal_State_Penalty>
0.0867106

> <b_epik_Metal_Only>
0

> <s_lp_Force_Field>
OPLS_2005

> <r_lp_Energy>
19.4055

> <b_lp_Chiralities_Consistent>
1

> <s_lp_Variant>
AV-unprocessed.smi:699-3

> <Gold.Version>
5.8.1

> <Gold.Id.Protein>
6NUR|6NUR_protein|mol2

> <Gold.PLP.Fitness>
39.3281

> <Gold.PLP.PLP>
-24.6557

> <Gold.PLP.part.hbond>
-4.0000

> <Gold.PLP.part.metal>
0.0000

> <Gold.PLP.part.buried>
-3.0667

> <Gold.PLP.part.nonpolar>
-19.0492

> <Gold.PLP.part.repulsive>
0.5951

> <Gold.PLP.ligand.clash>
0.0000

> <Gold.PLP.ligand.torsion>
0.0653

> <Gold.PLP.Chemscore.Hbond>
2.9280

> <Gold.PLP.Chemscore.CHOScore>
2.0000

> <Gold.PLP.Chemscore.Metal>
0.0000

> <Gold.Chemscore.Hbonds>
donor molecule, donor type, donor heavy atom, donor atom, acceptor molecule, acceptor atom, score
      L1  H     9    29       P1  7948  0.93
      L1  H    12    30       P1  7948  1.00
      P1  H  7989  7998       L1     3  1.00
      L1  C    15    32       P1 10747  1.00
      L1  C    17    33       P1 10186  1.00

> <Gold.PLP.Chemscore.Internal.Correction>
0.0189

> <Gold.Rescore>
     Score         DG    S(hbond)    S(metal)    S(lipo)     H(rot)  DE(clash)    DE(int)     intcor
     13.94     -17.44       2.89        0.00      52.39       1.49       0.53       2.97       ----

> <Gold.Chemscore.Fitness>
13.9416

> <Gold.Chemscore.DG>
-17.4384

> <Gold.Chemscore.ZeroCoef>
-5.4800

> <Gold.Chemscore.Hbond>
2.8865

> <Gold.Chemscore.Metal>
0.0000

> <Gold.Chemscore.Lipo>
52.3917

> <Gold.Chemscore.Internal_Hbond>
0.0000

> <Gold.Chemscore.DEClash>
0.5294

> <Gold.Chemscore.DEInternal>
2.9674

> <Gold.Chemscore.Rot>
1.4892

> <Gold.Chemscore.Internal.Correction>
   9.000000E+99

> <Gold.Chemscore.Hbonds>
donor molecule, donor type, donor heavy atom, donor atom, acceptor molecule, acceptor atom, score
      L1  H     9    29       P1  7948  0.90
      L1  H    12    30       P1  7948  0.97
      P1  H  7989  7998       L1     3  0.95

> <Gold.Chemscore.Hbond.Weighted>
-9.6408

> <Gold.Chemscore.Metal.Weighted>
-0.0000

> <Gold.Chemscore.Lipo.Weighted>
-6.1298

> <Gold.Chemscore.Internal_Hbond.Weighted>
0.0000

> <Gold.Chemscore.DEClash.Weighted>
0.5294

> <Gold.Chemscore.DEInternal.Weighted>
2.9674

> <Gold.Chemscore.Rot.Weighted>
3.8123

> <Gold.Chemscore.Internal.Correction.Weighted>
   9.000000E+99

> <Gold.Protein.RotatedTorsions>
[ 6907 6896 6895 6894 ] final  -75.88 input  -60.11 | X-H torsion
[ 7974 7965 7964 7962 ] final    5.76 input  175.53 | X-H torsion
[ 8008 7997 7996 7995 ] final   19.01 input   59.86 | X-H torsion
[ 10167 10162 10161 10158 ] final  135.85 input  -65.29 | X-H torsion
[ 10718 10713 10712 10709 ] final   13.31 input   66.30 | X-H torsion
[ 10763 10752 10751 10750 ] final   44.41 input  -60.55 | X-H torsion
[ 11005 11000 10999 10996 ] final   88.48 input  -57.11 | X-H torsion

> <Gold.Protein.ActiveResidues>
 VAL166  LYS551  ARG553  GLY616  TRP617  ASP618  TYR619  PRO620  LYS621  CYS622 
 ASP623  PHE694  ASN695  SER759  ASP760  ASP761  ALA762  ILE779  LEU786  VAL792 
 PHE793  MET794  SER795  GLU796  ALA797  LYS798  CYS799  TRP800  GLU811  SER814 

> <Gold.Protein.RotatedAtoms>
  150.7045  134.4655  159.5400 H   0  0  0  0  0  0  0  0  0  0  0  0  # atno 6907 bound_to 6896
  152.2322  134.8308  160.0481 H   0  0  0  0  0  0  0  0  0  0  0  0  # atno 6908 bound_to 6896
  151.9120  133.3528  159.3904 H   0  0  0  0  0  0  0  0  0  0  0  0  # atno 6909 bound_to 6896
  146.2439  140.0336  142.8388 H   0  0  0  0  0  0  0  0  0  0  0  0  # atno 7974 bound_to 7965
  154.9144  140.3018  155.5249 H   0  0  0  0  0  0  0  0  0  0  0  0  # atno 8008 bound_to 7997
  156.3013  140.2383  156.4123 H   0  0  0  0  0  0  0  0  0  0  0  0  # atno 8009 bound_to 7997
  154.8393  140.0414  157.1519 H   0  0  0  0  0  0  0  0  0  0  0  0  # atno 8010 bound_to 7997
  139.5201  144.6495  151.5342 H   0  0  0  0  0  0  0  0  0  0  0  0  # atno 10167 bound_to 10162
  157.0227  130.6161  149.5723 H   0  0  0  0  0  0  0  0  0  0  0  0  # atno 10718 bound_to 10713
  152.9842  135.6071  154.3269 H   0  0  0  0  0  0  0  0  0  0  0  0  # atno 10763 bound_to 10752
  154.2975  135.2773  155.2628 H   0  0  0  0  0  0  0  0  0  0  0  0  # atno 10764 bound_to 10752
  154.4895  135.5896  153.6505 H   0  0  0  0  0  0  0  0  0  0  0  0  # atno 10765 bound_to 10752
  139.8896  134.8490  156.3006 H   0  0  0  0  0  0  0  0  0  0  0  0  # atno 11005 bound_to 11000
  145.1133  140.9418  143.4644 LP  0  0  0  0  0  0  0  0  0  0  0  0  # atno 17320 bound_to 7965
  145.0554  139.3147  143.5907 LP  0  0  0  0  0  0  0  0  0  0  0  0  # atno 17321 bound_to 7965
  140.6294  143.9105  150.6593 LP  0  0  0  0  0  0  0  0  0  0  0  0  # atno 17342 bound_to 10162
  140.2404  143.3668  152.1491 LP  0  0  0  0  0  0  0  0  0  0  0  0  # atno 17343 bound_to 10162
  156.0096  130.5187  150.7946 LP  0  0  0  0  0  0  0  0  0  0  0  0  # atno 17370 bound_to 10713
  157.5237  131.0933  151.0045 LP  0  0  0  0  0  0  0  0  0  0  0  0  # atno 17371 bound_to 10713
  140.9916  133.7205  156.0822 LP  0  0  0  0  0  0  0  0  0  0  0  0  # atno 17394 bound_to 11000
  140.7617  134.3931  157.5524 LP  0  0  0  0  0  0  0  0  0  0  0  0  # atno 17395 bound_to 11000

$$$$
