AV-unprocessed.smi:45|AV-procd|sdf|418|dock8
  -GOLD-   2262016293D 1   1.00000     0.00000
 Structure written by MMmdl.
 60 63  0  0  0  0  0  0  0  0  3 V2000
  141.9411  129.7676  160.1531 C   0  0  0  0  0  0  0  0  0  0  0  0
  143.2447  129.6486  159.6028 O   0  0  0  0  0  0  0  0  0  0  0  0
  143.7540  130.7156  158.8916 C   0  0  0  0  0  0  0  0  0  0  0  0
  143.0676  131.9435  158.7105 C   0  0  0  0  0  0  0  0  0  0  0  0
  143.6538  132.9891  157.9712 C   0  0  0  0  0  0  0  0  0  0  0  0
  144.9328  132.8275  157.4031 C   0  0  0  0  0  0  0  0  0  0  0  0
  145.5630  133.9533  156.6085 C   0  0  0  0  0  0  0  0  0  0  0  0
  146.9848  133.7557  156.3705 N   0  0  0  0  0  0  0  0  0  0  0  0
  147.4828  133.4992  155.0823 C   0  0  0  0  0  0  0  0  0  0  0  0
  146.5985  133.4581  154.0491 N   0  3  0  0  0  0  0  0  0  0  0  0
  147.0148  133.2313  152.7923 C   0  0  0  0  0  0  0  0  0  0  0  0
  146.0664  133.2108  151.7706 N   0  0  0  0  0  0  0  0  0  0  0  0
  146.3937  132.7130  150.4389 C   0  0  0  0  0  0  0  0  0  0  0  0
  145.1090  132.0899  149.8956 C   0  0  0  0  0  0  0  0  0  0  0  0
  144.0198  132.8955  150.5915 C   0  0  0  0  0  0  0  0  0  0  0  0
  144.6172  133.1841  151.9767 C   0  0  2  0  0  0  0  0  0  0  0  0
  144.0657  134.4840  152.5998 C   0  0  0  0  0  0  0  0  0  0  0  0
  143.7040  134.2581  153.9454 O   0  0  0  0  0  0  0  0  0  0  0  0
  148.3056  133.0389  152.4957 N   0  0  0  0  0  0  0  0  0  0  0  0
  149.2212  133.0695  153.4823 C   0  0  0  0  0  0  0  0  0  0  0  0
  148.8644  133.3032  154.8254 C   0  0  0  0  0  0  0  0  0  0  0  0
  149.9106  133.2961  155.9099 C   0  0  0  0  0  0  0  0  0  0  0  0
  149.9758  134.2671  156.6717 O   0  0  0  0  0  0  0  0  0  0  0  0
  150.6719  132.1676  155.8671 N   0  5  0  0  0  0  0  0  0  0  0  0
  151.9821  132.0382  156.5063 C   0  0  0  0  0  0  0  0  0  0  0  0
  152.8253  130.9447  155.8612 C   0  0  0  0  0  0  0  0  0  0  0  0
  152.1749  130.0186  155.1460 N   0  0  0  0  0  0  0  0  0  0  0  0
  152.9238  129.0646  154.5517 C   0  0  0  0  0  0  0  0  0  0  0  0
  154.3275  129.0380  154.6761 C   0  0  0  0  0  0  0  0  0  0  0  0
  154.9030  130.0626  155.4542 C   0  0  0  0  0  0  0  0  0  0  0  0
  154.1497  131.0152  156.0454 N   0  0  0  0  0  0  0  0  0  0  0  0
  145.6198  131.6103  157.5767 C   0  0  0  0  0  0  0  0  0  0  0  0
  145.0347  130.5628  158.3147 C   0  0  0  0  0  0  0  0  0  0  0  0
  145.9047  129.0832  158.5096 Cl  0  0  0  0  0  0  0  0  0  0  0  0
  144.3993  132.3427  152.6366 H   0  0  0  0  0  0  0  0  0  0  0  0
  141.6928  128.8504  160.6871 H   0  0  0  0  0  0  0  0  0  0  0  0
  141.1902  129.9089  159.3748 H   0  0  0  0  0  0  0  0  0  0  0  0
  141.8830  130.5903  160.8671 H   0  0  0  0  0  0  0  0  0  0  0  0
  142.0867  132.1093  159.1293 H   0  0  0  0  0  0  0  0  0  0  0  0
  143.1176  133.9178  157.8408 H   0  0  0  0  0  0  0  0  0  0  0  0
  145.0465  134.0338  155.6511 H   0  0  0  0  0  0  0  0  0  0  0  0
  145.4127  134.8970  157.1344 H   0  0  0  0  0  0  0  0  0  0  0  0
  147.6294  133.8659  157.1413 H   0  0  0  0  0  0  0  0  0  0  0  0
  146.7062  133.5545  149.8196 H   0  0  0  0  0  0  0  0  0  0  0  0
  147.2045  131.9835  150.4549 H   0  0  0  0  0  0  0  0  0  0  0  0
  145.0431  132.1295  148.8080 H   0  0  0  0  0  0  0  0  0  0  0  0
  145.0456  131.0445  150.2012 H   0  0  0  0  0  0  0  0  0  0  0  0
  143.8547  133.8252  150.0447 H   0  0  0  0  0  0  0  0  0  0  0  0
  143.0682  132.3655  150.6442 H   0  0  0  0  0  0  0  0  0  0  0  0
  144.8039  135.2846  152.5850 H   0  0  0  0  0  0  0  0  0  0  0  0
  143.1961  134.8428  152.0478 H   0  0  0  0  0  0  0  0  0  0  0  0
  143.5892  133.3289  154.0747 H   0  0  0  0  0  0  0  0  0  0  0  0
  150.2465  132.8942  153.1895 H   0  0  0  0  0  0  0  0  0  0  0  0
  152.5381  132.9745  156.4425 H   0  0  0  0  0  0  0  0  0  0  0  0
  151.9013  131.8386  157.5765 H   0  0  0  0  0  0  0  0  0  0  0  0
  152.4001  128.3184  153.9730 H   0  0  0  0  0  0  0  0  0  0  0  0
  154.9282  128.2763  154.2020 H   0  0  0  0  0  0  0  0  0  0  0  0
  155.9712  130.1180  155.6031 H   0  0  0  0  0  0  0  0  0  0  0  0
  146.5994  131.4750  157.1419 H   0  0  0  0  0  0  0  0  0  0  0  0
  145.6089  133.6053  154.2430 H   0  0  0  0  0  0  0  0  0  0  0  0
  1  2  1  0  0  0  0
  1 36  1  0  0  0  0
  1 37  1  0  0  0  0
  1 38  1  0  0  0  0
  2  3  1  0  0  0  0
  3 33  1  0  0  0  0
  3  4  2  0  0  0  0
  4  5  1  0  0  0  0
  4 39  1  0  0  0  0
  5  6  2  0  0  0  0
  5 40  1  0  0  0  0
  6  7  1  0  0  0  0
  6 32  1  0  0  0  0
  7  8  1  0  0  0  0
  7 41  1  0  0  0  0
  7 42  1  0  0  0  0
  8  9  1  0  0  0  0
  8 43  1  0  0  0  0
  9 21  1  0  0  0  0
  9 10  2  0  0  0  0
 10 11  1  0  0  0  0
 10 60  1  0  0  0  0
 11 12  1  0  0  0  0
 11 19  2  0  0  0  0
 12 16  1  0  0  0  0
 12 13  1  0  0  0  0
 13 14  1  0  0  0  0
 13 44  1  0  0  0  0
 13 45  1  0  0  0  0
 14 15  1  0  0  0  0
 14 46  1  0  0  0  0
 14 47  1  0  0  0  0
 15 16  1  0  0  0  0
 15 48  1  0  0  0  0
 15 49  1  0  0  0  0
 16 35  1  0  0  0  0
 16 17  1  0  0  0  0
 17 18  1  0  0  0  0
 17 50  1  0  0  0  0
 17 51  1  0  0  0  0
 18 52  1  0  0  0  0
 19 20  1  0  0  0  0
 20 21  2  0  0  0  0
 20 53  1  0  0  0  0
 21 22  1  0  0  0  0
 22 23  2  0  0  0  0
 22 24  1  0  0  0  0
 24 25  1  0  0  0  0
 25 26  1  0  0  0  0
 25 54  1  0  0  0  0
 25 55  1  0  0  0  0
 26 31  1  0  0  0  0
 26 27  2  0  0  0  0
 27 28  1  0  0  0  0
 28 29  2  0  0  0  0
 28 56  1  0  0  0  0
 29 30  1  0  0  0  0
 29 57  1  0  0  0  0
 30 31  2  0  0  0  0
 30 58  1  0  0  0  0
 32 33  2  0  0  0  0
 32 59  1  0  0  0  0
 33 34  1  0  0  0  0
M  CHG  1  10   1
M  CHG  1  24  -1
M  END
> <s_m_source_file>
AV-unprocessed.smi

> <i_m_source_file_index>
45

> <i_lp_mmshare_version>
43012

> <i_f3d_flags>
0

> <s_epik_input>
W0NIM11PYzFbY0hdW2NIXWMoW2NIXWMxQ2wpW0NIMl1bTkhdYzJuYyhOM1tDSDJdW0NIMl1bQ0gyXVtDQEhdM1tDSDJdW09IXSluW2NIXWMyQyg9TylbTkhdW0NIMl1jNG5bY0hdW2NIXVtjSF1uNA==

> <s_epik_cmdline>
J2VwaWtfcHl0aG9uJywgJy1waCcsICc3LjAnLCAnLXRuJywgJzgnLCAnLW1hJywgJzIwMCcsICctbWV0YWxfYmluZGluZycsICctaW1hZScsICc8aW5maWxlLm1hZT4nLCAnLW9tYWUnLCAnPG91dGZpbGUubWFlPic=

> <r_lp_tautomer_probability>
0.424989

> <r_epik_Ionization_Penalty>
7.51351

> <r_epik_Ionization_Penalty_Charging>
7.51312

> <r_epik_Ionization_Penalty_Neutral>
0.00038389

> <r_epik_State_Penalty>
8.64696

> <r_epik_Charging_Adjusted_Penalty>
16.1601

> <i_epik_Tot_Q>
0

> <i_epik_Tot_abs_Q>
2

> <r_epik_Metal_State_Penalty>
4.61083

> <b_epik_Metal_Only>
1

> <s_epik_Chemistry_Notes>
This compound contains an electron-poor aromatic ring that is susceptible to covalent hydrolysis at low pH, typically resulting in measured values for nitrogen ring protonation that are around two units higher than predicted values.

> <s_lp_Force_Field>
OPLS_2005

> <r_lp_Energy>
41.8384

> <b_lp_Chiralities_Consistent>
1

> <s_lp_Variant>
AV-unprocessed.smi:45-12

> <Gold.Version>
5.8.1

> <Gold.Id.Protein>
6NUR|6NUR_protein|mol2

> <Gold.PLP.Fitness>
47.7298

> <Gold.PLP.PLP>
-44.4291

> <Gold.PLP.part.hbond>
-1.0000

> <Gold.PLP.part.metal>
0.0000

> <Gold.PLP.part.buried>
-8.1620

> <Gold.PLP.part.nonpolar>
-36.1490

> <Gold.PLP.part.repulsive>
0.3326

> <Gold.PLP.ligand.clash>
0.0000

> <Gold.PLP.ligand.torsion>
2.4156

> <Gold.PLP.Chemscore.Hbond>
1.0000

> <Gold.PLP.Chemscore.CHOScore>
1.0000

> <Gold.PLP.Chemscore.Metal>
0.0000

> <Gold.Chemscore.Hbonds>
donor molecule, donor type, donor heavy atom, donor atom, acceptor molecule, acceptor atom, score
      L1  H    18    52       P1 10957  1.00
      L1  C    28    56       P1 10737  1.00

> <Gold.PLP.Chemscore.Internal.Correction>
2.1319

> <Gold.Rescore>
     Score         DG    S(hbond)    S(metal)    S(lipo)     H(rot)  DE(clash)    DE(int)     intcor
     10.62     -14.21       1.94        0.00      82.71       2.90       0.01       3.58       ----

> <Gold.Chemscore.Fitness>
10.6196

> <Gold.Chemscore.DG>
-14.2052

> <Gold.Chemscore.ZeroCoef>
-5.4800

> <Gold.Chemscore.Hbond>
1.9369

> <Gold.Chemscore.Metal>
0.0000

> <Gold.Chemscore.Lipo>
82.7078

> <Gold.Chemscore.Internal_Hbond>
0.0000

> <Gold.Chemscore.DEClash>
0.0057

> <Gold.Chemscore.DEInternal>
3.5799

> <Gold.Chemscore.Rot>
2.8988

> <Gold.Chemscore.Internal.Correction>
   9.000000E+99

> <Gold.Chemscore.Hbonds>
donor molecule, donor type, donor heavy atom, donor atom, acceptor molecule, acceptor atom, score
      L1  H    18    52       P1 10957  0.97

> <Gold.Chemscore.Hbond.Weighted>
-6.4693

> <Gold.Chemscore.Metal.Weighted>
-0.0000

> <Gold.Chemscore.Lipo.Weighted>
-9.6768

> <Gold.Chemscore.Internal_Hbond.Weighted>
0.0000

> <Gold.Chemscore.DEClash.Weighted>
0.0057

> <Gold.Chemscore.DEInternal.Weighted>
3.5799

> <Gold.Chemscore.Rot.Weighted>
7.4209

> <Gold.Chemscore.Internal.Correction.Weighted>
   9.000000E+99

> <Gold.Protein.RotatedTorsions>
[ 6907 6896 6895 6894 ] final  114.14 input  -60.11 | X-H torsion
[ 7974 7965 7964 7962 ] final    6.89 input  175.53 | X-H torsion
[ 8008 7997 7996 7995 ] final  -18.73 input   59.86 | X-H torsion
[ 10167 10162 10161 10158 ] final -115.04 input  -65.29 | X-H torsion
[ 10718 10713 10712 10709 ] final  134.85 input   66.30 | X-H torsion
[ 10763 10752 10751 10750 ] final   49.37 input  -60.55 | X-H torsion
[ 11005 11000 10999 10996 ] final   17.09 input  -57.11 | X-H torsion

> <Gold.Protein.ActiveResidues>
 VAL166  LYS551  ARG553  GLY616  TRP617  ASP618  TYR619  PRO620  LYS621  CYS622 
 ASP623  PHE694  ASN695  SER759  ASP760  ASP761  ALA762  ILE779  LEU786  VAL792 
 PHE793  MET794  SER795  GLU796  ALA797  LYS798  CYS799  TRP800  GLU811  SER814 

> <Gold.Protein.RotatedAtoms>
  152.4820  133.8278  159.7086 H   0  0  0  0  0  0  0  0  0  0  0  0  # atno 6907 bound_to 6896
  150.8877  133.7276  159.2920 H   0  0  0  0  0  0  0  0  0  0  0  0  # atno 6908 bound_to 6896
  151.4759  135.1052  159.9816 H   0  0  0  0  0  0  0  0  0  0  0  0  # atno 6909 bound_to 6896
  146.2431  140.0166  142.8402 H   0  0  0  0  0  0  0  0  0  0  0  0  # atno 7974 bound_to 7965
  154.4886  140.2108  155.9600 H   0  0  0  0  0  0  0  0  0  0  0  0  # atno 8008 bound_to 7997
  156.1272  140.3203  155.8263 H   0  0  0  0  0  0  0  0  0  0  0  0  # atno 8009 bound_to 7997
  155.4362  140.0507  157.3005 H   0  0  0  0  0  0  0  0  0  0  0  0  # atno 8010 bound_to 7997
  140.0944  143.4670  152.1850 H   0  0  0  0  0  0  0  0  0  0  0  0  # atno 10167 bound_to 10162
  157.4631  131.1075  150.9896 H   0  0  0  0  0  0  0  0  0  0  0  0  # atno 10718 bound_to 10713
  152.9787  135.5914  154.4078 H   0  0  0  0  0  0  0  0  0  0  0  0  # atno 10763 bound_to 10752
  154.3717  135.2767  155.2264 H   0  0  0  0  0  0  0  0  0  0  0  0  # atno 10764 bound_to 10752
  154.4217  135.6057  153.6068 H   0  0  0  0  0  0  0  0  0  0  0  0  # atno 10765 bound_to 10752
  140.4399  134.1333  155.7689 H   0  0  0  0  0  0  0  0  0  0  0  0  # atno 11005 bound_to 11000
  145.1279  140.9501  143.4561 LP  0  0  0  0  0  0  0  0  0  0  0  0  # atno 17320 bound_to 7965
  145.0416  139.3255  143.5974 LP  0  0  0  0  0  0  0  0  0  0  0  0  # atno 17321 bound_to 7965
  139.5706  144.7460  151.3900 LP  0  0  0  0  0  0  0  0  0  0  0  0  # atno 17342 bound_to 10162
  140.7011  143.7628  150.7405 LP  0  0  0  0  0  0  0  0  0  0  0  0  # atno 17343 bound_to 10162
  157.0686  130.5855  149.5398 LP  0  0  0  0  0  0  0  0  0  0  0  0  # atno 17370 bound_to 10713
  156.0037  130.5121  150.7756 LP  0  0  0  0  0  0  0  0  0  0  0  0  # atno 17371 bound_to 10713
  141.1710  133.8608  157.1570 LP  0  0  0  0  0  0  0  0  0  0  0  0  # atno 17394 bound_to 11000
  140.0077  135.0001  157.0328 LP  0  0  0  0  0  0  0  0  0  0  0  0  # atno 17395 bound_to 11000

$$$$
