AV-unprocessed.smi:3086|AV-procd|sdf|11764|dock3
  -GOLD-   2272017143D 1   1.00000     0.00000
 Structure written by MMmdl.
 30 31  0  0  0  0  0  0  0  0  2 V2000
  151.8359  141.9202  158.7282 C   0  0  0  0  0  0  0  0  0  0  0  0
  151.5716  141.0986  157.5131 C   0  0  0  0  0  0  0  0  0  0  0  0
  152.3488  140.0379  157.1502 N   0  0  0  0  0  0  0  0  0  0  0  0
  151.7282  139.6598  156.0380 C   0  0  0  0  0  0  0  0  0  0  0  0
  152.1736  138.5242  155.1749 C   0  0  0  0  0  0  0  0  0  0  0  0
  150.6509  140.4097  155.7590 N   0  0  0  0  0  0  0  0  0  0  0  0
  149.7310  140.3702  154.6269 C   0  0  2  0  0  0  0  0  0  0  0  0
  148.5115  141.2770  154.8800 C   0  0  0  0  0  0  0  0  0  0  0  0
  147.5449  141.2213  153.6872 C   0  0  0  0  0  0  0  0  0  0  0  0
  147.1451  139.7707  153.3689 C   0  0  0  0  0  0  0  0  0  0  0  0
  148.3437  138.9351  153.1374 N   0  3  0  0  0  0  0  0  0  0  0  0
  149.2743  138.9325  154.2872 C   0  0  0  0  0  0  0  0  0  0  0  0
  150.5490  141.3732  156.7076 N   0  0  0  0  0  0  0  0  0  0  0  0
  152.7563  141.6007  159.2178 H   0  0  0  0  0  0  0  0  0  0  0  0
  151.0148  141.8198  159.4385 H   0  0  0  0  0  0  0  0  0  0  0  0
  151.9363  142.9721  158.4592 H   0  0  0  0  0  0  0  0  0  0  0  0
  153.1388  138.1451  155.5120 H   0  0  0  0  0  0  0  0  0  0  0  0
  152.2756  138.8524  154.1403 H   0  0  0  0  0  0  0  0  0  0  0  0
  151.4473  137.7124  155.2191 H   0  0  0  0  0  0  0  0  0  0  0  0
  150.2659  140.7551  153.7578 H   0  0  0  0  0  0  0  0  0  0  0  0
  147.9920  140.9607  155.7860 H   0  0  0  0  0  0  0  0  0  0  0  0
  148.8335  142.3054  155.0492 H   0  0  0  0  0  0  0  0  0  0  0  0
  146.6560  141.8158  153.9002 H   0  0  0  0  0  0  0  0  0  0  0  0
  148.0162  141.6725  152.8131 H   0  0  0  0  0  0  0  0  0  0  0  0
  146.5661  139.3481  154.1911 H   0  0  0  0  0  0  0  0  0  0  0  0
  146.5112  139.7384  152.4824 H   0  0  0  0  0  0  0  0  0  0  0  0
  148.0508  137.9862  152.9508 H   0  0  0  0  0  0  0  0  0  0  0  0
  150.1342  138.3077  154.0438 H   0  0  0  0  0  0  0  0  0  0  0  0
  148.7709  138.4670  155.1359 H   0  0  0  0  0  0  0  0  0  0  0  0
  148.8327  139.2904  152.3283 H   0  0  0  0  0  0  0  0  0  0  0  0
  1  2  1  0  0  0  0
  1 14  1  0  0  0  0
  1 15  1  0  0  0  0
  1 16  1  0  0  0  0
  2 13  2  0  0  0  0
  2  3  1  0  0  0  0
  3  4  2  0  0  0  0
  4  5  1  0  0  0  0
  4  6  1  0  0  0  0
  5 17  1  0  0  0  0
  5 18  1  0  0  0  0
  5 19  1  0  0  0  0
  6  7  1  0  0  0  0
  6 13  1  0  0  0  0
  7 12  1  0  0  0  0
  7  8  1  0  0  0  0
  7 20  1  0  0  0  0
  8  9  1  0  0  0  0
  8 21  1  0  0  0  0
  8 22  1  0  0  0  0
  9 10  1  0  0  0  0
  9 23  1  0  0  0  0
  9 24  1  0  0  0  0
 10 11  1  0  0  0  0
 10 25  1  0  0  0  0
 10 26  1  0  0  0  0
 11 12  1  0  0  0  0
 11 27  1  0  0  0  0
 11 30  1  0  0  0  0
 12 28  1  0  0  0  0
 12 29  1  0  0  0  0
M  CHG  1  11   1
M  END
> <s_m_source_file>
AV-unprocessed.smi

> <i_m_source_file_index>
3086

> <i_lp_mmshare_version>
43012

> <i_f3d_flags>
0

> <s_epik_input>
W0NIM11jMW5jKFtDSDNdKW4objEpW0NAQEhdMltDSDJdW0NIMl1bQ0gyXVtOSF1bQ0gyXTI=

> <s_epik_cmdline>
J2VwaWtfcHl0aG9uJywgJy1waCcsICc3LjAnLCAnLXRuJywgJzgnLCAnLW1hJywgJzIwMCcsICctbWV0YWxfYmluZGluZycsICctaW1hZScsICc8aW5maWxlLm1hZT4nLCAnLW9tYWUnLCAnPG91dGZpbGUubWFlPic=

> <r_lp_tautomer_probability>
1

> <r_epik_Ionization_Penalty>
0.000522417

> <r_epik_Ionization_Penalty_Charging>
0.000474443

> <r_epik_Ionization_Penalty_Neutral>
4.79736e-05

> <r_epik_State_Penalty>
-0

> <r_epik_Charging_Adjusted_Penalty>
0.000474443

> <i_epik_Tot_Q>
1

> <i_epik_Tot_abs_Q>
1

> <r_epik_Metal_State_Penalty>
-0

> <b_epik_Metal_Only>
0

> <s_lp_Force_Field>
OPLS_2005

> <r_lp_Energy>
16.4369

> <b_lp_Chiralities_Consistent>
1

> <s_lp_Variant>
AV-unprocessed.smi:3086-1

> <Gold.Version>
5.8.1

> <Gold.Id.Protein>
6NUR|6NUR_protein|mol2

> <Gold.PLP.Fitness>
38.9395

> <Gold.PLP.PLP>
-28.3339

> <Gold.PLP.part.hbond>
-2.9398

> <Gold.PLP.part.metal>
0.0000

> <Gold.PLP.part.buried>
-0.9953

> <Gold.PLP.part.nonpolar>
-23.7457

> <Gold.PLP.part.repulsive>
0.1302

> <Gold.PLP.ligand.clash>
0.0000

> <Gold.PLP.ligand.torsion>
0.3440

> <Gold.PLP.Chemscore.Hbond>
3.7508

> <Gold.PLP.Chemscore.CHOScore>
0.0000

> <Gold.PLP.Chemscore.Metal>
0.0000

> <Gold.Chemscore.Hbonds>
donor molecule, donor type, donor heavy atom, donor atom, acceptor molecule, acceptor atom, score
      L1  H    11    27       P1  7948  0.63
      L1  H    11    30       P1  7957  1.00
      P1  H  7997  8008       L1     3  0.80

> <Gold.PLP.Chemscore.Internal.Correction>
0.0414

> <Gold.Rescore>
     Score         DG    S(hbond)    S(metal)    S(lipo)     H(rot)  DE(clash)    DE(int)     intcor
     16.60     -18.05       2.75        0.00      50.73       1.00       0.11       1.34       ----

> <Gold.Chemscore.Fitness>
16.6020

> <Gold.Chemscore.DG>
-18.0500

> <Gold.Chemscore.ZeroCoef>
-5.4800

> <Gold.Chemscore.Hbond>
2.7530

> <Gold.Chemscore.Metal>
0.0000

> <Gold.Chemscore.Lipo>
50.7275

> <Gold.Chemscore.Internal_Hbond>
0.0000

> <Gold.Chemscore.DEClash>
0.1104

> <Gold.Chemscore.DEInternal>
1.3376

> <Gold.Chemscore.Rot>
1.0000

> <Gold.Chemscore.Internal.Correction>
   9.000000E+99

> <Gold.Chemscore.Hbonds>
donor molecule, donor type, donor heavy atom, donor atom, acceptor molecule, acceptor atom, score
      L1  H    11    27       P1  7948  0.32
      L1  H    11    30       P1  7957  0.97
      P1  H  7997  8008       L1     3  0.19

> <Gold.Chemscore.Hbond.Weighted>
-9.1949

> <Gold.Chemscore.Metal.Weighted>
-0.0000

> <Gold.Chemscore.Lipo.Weighted>
-5.9351

> <Gold.Chemscore.Internal_Hbond.Weighted>
0.0000

> <Gold.Chemscore.DEClash.Weighted>
0.1104

> <Gold.Chemscore.DEInternal.Weighted>
1.3376

> <Gold.Chemscore.Rot.Weighted>
2.5600

> <Gold.Chemscore.Internal.Correction.Weighted>
   9.000000E+99

> <Gold.Protein.RotatedTorsions>
[ 6907 6896 6895 6894 ] final   64.55 input  -60.11 | X-H torsion
[ 7974 7965 7964 7962 ] final -115.56 input  175.53 | X-H torsion
[ 8008 7997 7996 7995 ] final  -47.49 input   59.86 | X-H torsion
[ 10167 10162 10161 10158 ] final  156.13 input  -65.29 | X-H torsion
[ 10718 10713 10712 10709 ] final  -81.98 input   66.30 | X-H torsion
[ 10763 10752 10751 10750 ] final  170.80 input  -60.55 | X-H torsion
[ 11005 11000 10999 10996 ] final  116.58 input  -57.11 | X-H torsion

> <Gold.Protein.ActiveResidues>
 VAL166  LYS551  ARG553  GLY616  TRP617  ASP618  TYR619  PRO620  LYS621  CYS622 
 ASP623  PHE694  ASN695  SER759  ASP760  ASP761  ALA762  ILE779  LEU786  VAL792 
 PHE793  MET794  SER795  GLU796  ALA797  LYS798  CYS799  TRP800  GLU811  SER814 

> <Gold.Protein.RotatedAtoms>
  152.4340  134.5722  159.9924 H   0  0  0  0  0  0  0  0  0  0  0  0  # atno 6907 bound_to 6896
  151.5837  133.3369  159.3021 H   0  0  0  0  0  0  0  0  0  0  0  0  # atno 6908 bound_to 6896
  150.8236  134.7492  159.6858 H   0  0  0  0  0  0  0  0  0  0  0  0  # atno 6909 bound_to 6896
  145.1069  140.8587  143.3893 H   0  0  0  0  0  0  0  0  0  0  0  0  # atno 7974 bound_to 7965
  154.4017  140.1345  156.4183 H   0  0  0  0  0  0  0  0  0  0  0  0  # atno 8008 bound_to 7997
  155.7667  140.3485  155.5205 H   0  0  0  0  0  0  0  0  0  0  0  0  # atno 8009 bound_to 7997
  155.8807  140.0987  157.1478 H   0  0  0  0  0  0  0  0  0  0  0  0  # atno 8010 bound_to 7997
  139.4821  144.5036  151.8131 H   0  0  0  0  0  0  0  0  0  0  0  0  # atno 10167 bound_to 10162
  156.0041  130.4620  150.4036 H   0  0  0  0  0  0  0  0  0  0  0  0  # atno 10718 bound_to 10713
  154.4028  135.2755  155.2086 H   0  0  0  0  0  0  0  0  0  0  0  0  # atno 10763 bound_to 10752
  154.4105  135.6023  153.5953 H   0  0  0  0  0  0  0  0  0  0  0  0  # atno 10764 bound_to 10752
  152.9831  135.5948  154.4298 H   0  0  0  0  0  0  0  0  0  0  0  0  # atno 10765 bound_to 10752
  139.9046  134.9600  156.7220 H   0  0  0  0  0  0  0  0  0  0  0  0  # atno 11005 bound_to 11000
  145.0891  139.2903  143.5744 LP  0  0  0  0  0  0  0  0  0  0  0  0  # atno 17320 bound_to 7965
  146.3528  140.0422  142.8642 LP  0  0  0  0  0  0  0  0  0  0  0  0  # atno 17321 bound_to 7965
  140.4532  144.1826  150.5899 LP  0  0  0  0  0  0  0  0  0  0  0  0  # atno 17342 bound_to 10162
  140.4563  143.2466  151.9280 LP  0  0  0  0  0  0  0  0  0  0  0  0  # atno 17343 bound_to 10162
  157.2103  131.0459  151.2603 LP  0  0  0  0  0  0  0  0  0  0  0  0  # atno 17370 bound_to 10713
  157.3895  130.7274  149.6687 LP  0  0  0  0  0  0  0  0  0  0  0  0  # atno 17371 bound_to 10713
  140.6993  133.9321  155.8014 LP  0  0  0  0  0  0  0  0  0  0  0  0  # atno 17394 bound_to 11000
  141.0384  134.0657  157.3932 LP  0  0  0  0  0  0  0  0  0  0  0  0  # atno 17395 bound_to 11000

$$$$
