AV-unprocessed.smi:752|AV-procd|sdf|3595|dock6
  -GOLD-   22720 0583D 1   1.00000     0.00000
 Structure written by MMmdl.
 41 42  0  0  0  0  0  0  0  0  1 V2000
  145.6630  129.9304  152.0028 C   0  0  0  0  0  0  0  0  0  0  0  0
  146.3460  131.2758  152.2695 C   0  0  0  0  0  0  0  0  0  0  0  0
  145.6842  132.4068  151.5562 C   0  0  0  0  0  0  0  0  0  0  0  0
  146.0644  133.6805  151.6831 N   0  0  0  0  0  0  0  0  0  0  0  0
  145.2879  134.5559  150.9146 C   0  0  0  0  0  0  0  0  0  0  0  0
  145.6152  136.0218  150.8817 C   0  0  0  0  0  0  0  0  0  0  0  0
  145.5184  136.5872  152.2989 C   0  0  0  0  0  0  0  0  0  0  0  0
  144.4176  136.7688  152.8183 O   0  0  0  0  0  0  0  0  0  0  0  0
  146.6825  136.9093  152.8842 N   0  0  0  0  0  0  0  0  0  0  0  0
  146.8355  137.6905  154.1062 C   0  0  0  0  0  0  0  0  0  0  0  0
  148.0471  138.6412  154.0047 C   0  0  2  0  0  0  0  0  0  0  0  0
  149.3122  137.9949  154.6013 C   0  0  0  0  0  0  0  0  0  0  0  0
  150.5349  138.9153  154.4597 C   0  0  0  0  0  0  0  0  0  0  0  0
  150.2853  140.2847  155.1129 C   0  0  0  0  0  0  0  0  0  0  0  0
  149.0056  140.9567  154.5826 C   0  0  1  0  0  0  0  0  0  0  0  0
  149.1916  141.3824  153.2467 O   0  0  0  0  0  0  0  0  0  0  0  0
  147.7896  140.0158  154.6687 C   0  0  0  0  0  0  0  0  0  0  0  0
  144.2811  133.9219  150.2292 C   0  0  0  0  0  0  0  0  0  0  0  0
  144.2872  132.2020  150.5067 S   0  0  0  0  0  0  0  0  0  0  0  0
  146.1709  129.1254  152.5340 H   0  0  0  0  0  0  0  0  0  0  0  0
  145.6739  129.6880  150.9397 H   0  0  0  0  0  0  0  0  0  0  0  0
  144.6240  129.9447  152.3335 H   0  0  0  0  0  0  0  0  0  0  0  0
  146.3490  131.4873  153.3395 H   0  0  0  0  0  0  0  0  0  0  0  0
  147.3899  131.2308  151.9580 H   0  0  0  0  0  0  0  0  0  0  0  0
  146.6209  136.1856  150.4932 H   0  0  0  0  0  0  0  0  0  0  0  0
  144.9345  136.5620  150.2225 H   0  0  0  0  0  0  0  0  0  0  0  0
  147.5302  136.7068  152.3738 H   0  0  0  0  0  0  0  0  0  0  0  0
  145.9293  138.2511  154.3413 H   0  0  0  0  0  0  0  0  0  0  0  0
  146.9835  136.9894  154.9279 H   0  0  0  0  0  0  0  0  0  0  0  0
  148.2361  138.8119  152.9435 H   0  0  0  0  0  0  0  0  0  0  0  0
  149.1482  137.7638  155.6546 H   0  0  0  0  0  0  0  0  0  0  0  0
  149.5155  137.0453  154.1052 H   0  0  0  0  0  0  0  0  0  0  0  0
  151.4078  138.4442  154.9121 H   0  0  0  0  0  0  0  0  0  0  0  0
  150.7713  139.0489  153.4033 H   0  0  0  0  0  0  0  0  0  0  0  0
  150.1933  140.1488  156.1912 H   0  0  0  0  0  0  0  0  0  0  0  0
  151.1465  140.9363  154.9615 H   0  0  0  0  0  0  0  0  0  0  0  0
  148.8038  141.8514  155.1725 H   0  0  0  0  0  0  0  0  0  0  0  0
  149.1733  140.6225  152.6855 H   0  0  0  0  0  0  0  0  0  0  0  0
  146.9287  140.5108  154.2197 H   0  0  0  0  0  0  0  0  0  0  0  0
  147.5337  139.8614  155.7178 H   0  0  0  0  0  0  0  0  0  0  0  0
  143.5470  134.3605  149.5694 H   0  0  0  0  0  0  0  0  0  0  0  0
  1  2  1  0  0  0  0
  1 20  1  0  0  0  0
  1 21  1  0  0  0  0
  1 22  1  0  0  0  0
  2  3  1  0  0  0  0
  2 23  1  0  0  0  0
  2 24  1  0  0  0  0
  3 19  1  0  0  0  0
  3  4  2  0  0  0  0
  4  5  1  0  0  0  0
  5  6  1  0  0  0  0
  5 18  2  0  0  0  0
  6  7  1  0  0  0  0
  6 25  1  0  0  0  0
  6 26  1  0  0  0  0
  7  8  2  0  0  0  0
  7  9  1  0  0  0  0
  9 10  1  0  0  0  0
  9 27  1  0  0  0  0
 10 11  1  0  0  0  0
 10 28  1  0  0  0  0
 10 29  1  0  0  0  0
 11 17  1  0  0  0  0
 11 12  1  0  0  0  0
 11 30  1  0  0  0  0
 12 13  1  0  0  0  0
 12 31  1  0  0  0  0
 12 32  1  0  0  0  0
 13 14  1  0  0  0  0
 13 33  1  0  0  0  0
 13 34  1  0  0  0  0
 14 15  1  0  0  0  0
 14 35  1  0  0  0  0
 14 36  1  0  0  0  0
 15 16  1  0  0  0  0
 15 17  1  0  0  0  0
 15 37  1  0  0  0  0
 16 38  1  0  0  0  0
 17 39  1  0  0  0  0
 17 40  1  0  0  0  0
 18 19  1  0  0  0  0
 18 41  1  0  0  0  0
M  END
> <s_m_source_file>
AV-unprocessed.smi

> <i_m_source_file_index>
752

> <i_lp_mmshare_version>
43012

> <i_f3d_flags>
0

> <s_epik_input>
W0NIM11bQ0gyXWMxbmMoW2NIXXMxKVtDSDJdQyg9TylbTkhdW0NIMl1bQ0BASF0yW0NIMl1bQ0gyXVtDSDJdW0NAQEhdKFtPSF0pW0NIMl0y

> <s_epik_cmdline>
J2VwaWtfcHl0aG9uJywgJy1waCcsICc3LjAnLCAnLXRuJywgJzgnLCAnLW1hJywgJzIwMCcsICctbWV0YWxfYmluZGluZycsICctaW1hZScsICc8aW5maWxlLm1hZT4nLCAnLW9tYWUnLCAnPG91dGZpbGUubWFlPic=

> <r_lp_tautomer_probability>
1

> <r_epik_Ionization_Penalty>
5.44903e-05

> <r_epik_Ionization_Penalty_Charging>
0

> <r_epik_Ionization_Penalty_Neutral>
5.44903e-05

> <r_epik_State_Penalty>
-0

> <r_epik_Charging_Adjusted_Penalty>
0

> <i_epik_Tot_Q>
0

> <i_epik_Tot_abs_Q>
0

> <r_epik_Metal_State_Penalty>
-0

> <b_epik_Metal_Only>
0

> <s_lp_Force_Field>
OPLS_2005

> <r_lp_Energy>
4.55991

> <b_lp_Chiralities_Consistent>
1

> <s_lp_Variant>
AV-unprocessed.smi:752-1

> <Gold.Version>
5.8.1

> <Gold.Id.Protein>
6NUR|6NUR_protein|mol2

> <Gold.PLP.Fitness>
45.9323

> <Gold.PLP.PLP>
-35.8739

> <Gold.PLP.part.hbond>
-3.7995

> <Gold.PLP.part.metal>
0.0000

> <Gold.PLP.part.buried>
-4.5285

> <Gold.PLP.part.nonpolar>
-28.5722

> <Gold.PLP.part.repulsive>
0.3184

> <Gold.PLP.ligand.clash>
0.0000

> <Gold.PLP.ligand.torsion>
0.7895

> <Gold.PLP.Chemscore.Hbond>
2.8640

> <Gold.PLP.Chemscore.CHOScore>
1.0000

> <Gold.PLP.Chemscore.Metal>
0.0000

> <Gold.Chemscore.Hbonds>
donor molecule, donor type, donor heavy atom, donor atom, acceptor molecule, acceptor atom, score
      L1  H     9    27       P1  7948  1.00
      L1  H    16    38       P1  7957  0.86
      P1  H  8011  8017       L1    16  0.94
      L1  C    18    41       P1 10186  0.99

> <Gold.PLP.Chemscore.Internal.Correction>
0.0454

> <Gold.Rescore>
     Score         DG    S(hbond)    S(metal)    S(lipo)     H(rot)  DE(clash)    DE(int)     intcor
     18.04     -19.11       2.44        0.00      92.51       2.08       0.04       1.03       ----

> <Gold.Chemscore.Fitness>
18.0389

> <Gold.Chemscore.DG>
-19.1108

> <Gold.Chemscore.ZeroCoef>
-5.4800

> <Gold.Chemscore.Hbond>
2.4378

> <Gold.Chemscore.Metal>
0.0000

> <Gold.Chemscore.Lipo>
92.5099

> <Gold.Chemscore.Internal_Hbond>
0.0000

> <Gold.Chemscore.DEClash>
0.0427

> <Gold.Chemscore.DEInternal>
1.0292

> <Gold.Chemscore.Rot>
2.0840

> <Gold.Chemscore.Internal.Correction>
   9.000000E+99

> <Gold.Chemscore.Hbonds>
donor molecule, donor type, donor heavy atom, donor atom, acceptor molecule, acceptor atom, score
      L1  H     9    27       P1  7948  0.97
      L1  H    16    38       P1  7957  0.85
      P1  H  8011  8017       L1    16  0.26

> <Gold.Chemscore.Hbond.Weighted>
-8.1422

> <Gold.Chemscore.Metal.Weighted>
-0.0000

> <Gold.Chemscore.Lipo.Weighted>
-10.8237

> <Gold.Chemscore.Internal_Hbond.Weighted>
0.0000

> <Gold.Chemscore.DEClash.Weighted>
0.0427

> <Gold.Chemscore.DEInternal.Weighted>
1.0292

> <Gold.Chemscore.Rot.Weighted>
5.3350

> <Gold.Chemscore.Internal.Correction.Weighted>
   9.000000E+99

> <Gold.Protein.RotatedTorsions>
[ 6907 6896 6895 6894 ] final  -39.93 input  -60.11 | X-H torsion
[ 7974 7965 7964 7962 ] final  -24.04 input  175.53 | X-H torsion
[ 8008 7997 7996 7995 ] final   67.03 input   59.86 | X-H torsion
[ 10167 10162 10161 10158 ] final  -35.41 input  -65.29 | X-H torsion
[ 10718 10713 10712 10709 ] final  173.06 input   66.30 | X-H torsion
[ 10763 10752 10751 10750 ] final   66.41 input  -60.55 | X-H torsion
[ 11005 11000 10999 10996 ] final  116.68 input  -57.11 | X-H torsion

> <Gold.Protein.ActiveResidues>
 VAL166  LYS551  ARG553  GLY616  TRP617  ASP618  TYR619  PRO620  LYS621  CYS622 
 ASP623  PHE694  ASN695  SER759  ASP760  ASP761  ALA762  ILE779  LEU786  VAL792 
 PHE793  MET794  SER795  GLU796  ALA797  LYS798  CYS799  TRP800  GLU811  SER814 

> <Gold.Protein.RotatedAtoms>
  150.9844  134.9193  159.7862 H   0  0  0  0  0  0  0  0  0  0  0  0  # atno 6907 bound_to 6896
  152.5232  134.3366  159.9212 H   0  0  0  0  0  0  0  0  0  0  0  0  # atno 6908 bound_to 6896
  151.3373  133.3935  159.2702 H   0  0  0  0  0  0  0  0  0  0  0  0  # atno 6909 bound_to 6896
  146.1579  140.4698  142.8583 H   0  0  0  0  0  0  0  0  0  0  0  0  # atno 7974 bound_to 7965
  155.6865  140.3496  155.4876 H   0  0  0  0  0  0  0  0  0  0  0  0  # atno 8008 bound_to 7997
  155.9561  140.1128  157.0958 H   0  0  0  0  0  0  0  0  0  0  0  0  # atno 8009 bound_to 7997
  154.4132  140.1184  156.5103 H   0  0  0  0  0  0  0  0  0  0  0  0  # atno 8010 bound_to 7997
  140.7165  143.3479  151.2217 H   0  0  0  0  0  0  0  0  0  0  0  0  # atno 10167 bound_to 10162
  156.9698  131.0086  151.2908 H   0  0  0  0  0  0  0  0  0  0  0  0  # atno 10718 bound_to 10713
  153.0139  135.5321  154.6819 H   0  0  0  0  0  0  0  0  0  0  0  0  # atno 10763 bound_to 10752
  154.5977  135.2865  155.0571 H   0  0  0  0  0  0  0  0  0  0  0  0  # atno 10764 bound_to 10752
  154.1640  135.6543  153.5045 H   0  0  0  0  0  0  0  0  0  0  0  0  # atno 10765 bound_to 10752
  139.9049  134.9601  156.7235 H   0  0  0  0  0  0  0  0  0  0  0  0  # atno 11005 bound_to 11000
  144.7988  140.6173  143.6492 LP  0  0  0  0  0  0  0  0  0  0  0  0  # atno 17320 bound_to 7965
  145.4662  139.1508  143.3839 LP  0  0  0  0  0  0  0  0  0  0  0  0  # atno 17321 bound_to 7965
  139.7003  143.9544  152.2902 LP  0  0  0  0  0  0  0  0  0  0  0  0  # atno 17342 bound_to 10162
  139.9235  144.6785  150.8436 LP  0  0  0  0  0  0  0  0  0  0  0  0  # atno 17343 bound_to 10162
  157.5601  130.8240  149.8254 LP  0  0  0  0  0  0  0  0  0  0  0  0  # atno 17370 bound_to 10713
  156.0287  130.3771  150.1747 LP  0  0  0  0  0  0  0  0  0  0  0  0  # atno 17371 bound_to 10713
  140.6981  133.9330  155.8007 LP  0  0  0  0  0  0  0  0  0  0  0  0  # atno 17394 bound_to 11000
  141.0392  134.0646  157.3923 LP  0  0  0  0  0  0  0  0  0  0  0  0  # atno 17395 bound_to 11000

$$$$
