AV-unprocessed.smi:2317|AV-procd|sdf|9274|dock6
  -GOLD-   2272012493D 1   1.00000     0.00000
 Structure written by MMmdl.
 37 38  0  0  0  0  0  0  0  0  1 V2000
  145.5956  138.3625  153.4753 O   0  0  0  0  0  0  0  0  0  0  0  0
  146.5822  137.8043  152.9964 C   0  0  0  0  0  0  0  0  0  0  0  0
  146.5136  136.6832  152.2633 N   0  0  0  0  0  0  0  0  0  0  0  0
  145.2859  135.9808  151.8972 C   0  0  0  0  0  0  0  0  0  0  0  0
  145.5583  134.6398  151.1738 C   0  0  1  0  0  0  0  0  0  0  0  0
  145.9355  133.5162  152.1689 C   0  0  0  0  0  0  0  0  0  0  0  0
  146.1602  132.1663  151.4706 C   0  0  0  0  0  0  0  0  0  0  0  0
  144.9305  131.7551  150.6513 C   0  0  0  0  0  0  0  0  0  0  0  0
  144.5707  132.8438  149.6324 C   0  0  0  0  0  0  0  0  0  0  0  0
  144.3411  134.2031  150.3189 C   0  0  2  0  0  0  0  0  0  0  0  0
  144.0811  135.1555  149.3066 O   0  0  0  0  0  0  0  0  0  0  0  0
  147.8562  138.2069  153.1447 N   0  0  0  0  0  0  0  0  0  0  0  0
  148.3664  139.3427  153.8324 C   0  0  0  0  0  0  0  0  0  0  0  0
  147.7184  140.6006  153.8931 C   0  0  0  0  0  0  0  0  0  0  0  0
  148.3434  141.6492  154.5976 C   0  0  0  0  0  0  0  0  0  0  0  0
  149.5363  141.5236  155.2162 N   0  0  0  0  0  0  0  0  0  0  0  0
  150.1569  140.3273  155.1465 C   0  0  0  0  0  0  0  0  0  0  0  0
  149.6195  139.2147  154.4687 C   0  0  0  0  0  0  0  0  0  0  0  0
  150.2986  138.0427  154.4341 F   0  0  0  0  0  0  0  0  0  0  0  0
  147.3773  136.2896  151.9194 H   0  0  0  0  0  0  0  0  0  0  0  0
  144.6511  135.8170  152.7696 H   0  0  0  0  0  0  0  0  0  0  0  0
  144.7274  136.6519  151.2447 H   0  0  0  0  0  0  0  0  0  0  0  0
  146.4065  134.7848  150.5024 H   0  0  0  0  0  0  0  0  0  0  0  0
  146.8418  133.7784  152.7144 H   0  0  0  0  0  0  0  0  0  0  0  0
  145.1481  133.4101  152.9163 H   0  0  0  0  0  0  0  0  0  0  0  0
  147.0314  132.2321  150.8176 H   0  0  0  0  0  0  0  0  0  0  0  0
  146.3861  131.3985  152.2110 H   0  0  0  0  0  0  0  0  0  0  0  0
  145.1223  130.8125  150.1380 H   0  0  0  0  0  0  0  0  0  0  0  0
  144.0850  131.5801  151.3178 H   0  0  0  0  0  0  0  0  0  0  0  0
  145.3743  132.9289  148.8993 H   0  0  0  0  0  0  0  0  0  0  0  0
  143.6781  132.5478  149.0798 H   0  0  0  0  0  0  0  0  0  0  0  0
  143.4571  134.1370  150.9546 H   0  0  0  0  0  0  0  0  0  0  0  0
  144.7877  135.1279  148.6798 H   0  0  0  0  0  0  0  0  0  0  0  0
  148.5583  137.6001  152.7476 H   0  0  0  0  0  0  0  0  0  0  0  0
  146.7720  140.7896  153.4118 H   0  0  0  0  0  0  0  0  0  0  0  0
  147.8730  142.6192  154.6602 H   0  0  0  0  0  0  0  0  0  0  0  0
  151.1124  140.2550  155.6444 H   0  0  0  0  0  0  0  0  0  0  0  0
  1  2  2  0  0  0  0
  2  3  1  0  0  0  0
  2 12  1  0  0  0  0
  3  4  1  0  0  0  0
  3 20  1  0  0  0  0
  4  5  1  0  0  0  0
  4 21  1  0  0  0  0
  4 22  1  0  0  0  0
  5 10  1  0  0  0  0
  5  6  1  0  0  0  0
  5 23  1  0  0  0  0
  6  7  1  0  0  0  0
  6 24  1  0  0  0  0
  6 25  1  0  0  0  0
  7  8  1  0  0  0  0
  7 26  1  0  0  0  0
  7 27  1  0  0  0  0
  8  9  1  0  0  0  0
  8 28  1  0  0  0  0
  8 29  1  0  0  0  0
  9 10  1  0  0  0  0
  9 30  1  0  0  0  0
  9 31  1  0  0  0  0
 10 11  1  0  0  0  0
 10 32  1  0  0  0  0
 11 33  1  0  0  0  0
 12 13  1  0  0  0  0
 12 34  1  0  0  0  0
 13 18  1  0  0  0  0
 13 14  2  0  0  0  0
 14 15  1  0  0  0  0
 14 35  1  0  0  0  0
 15 16  2  0  0  0  0
 15 36  1  0  0  0  0
 16 17  1  0  0  0  0
 17 18  2  0  0  0  0
 17 37  1  0  0  0  0
 18 19  1  0  0  0  0
M  END
> <s_m_source_file>
AV-unprocessed.smi

> <i_m_source_file_index>
2317

> <i_lp_mmshare_version>
43012

> <i_f3d_flags>
0

> <s_epik_input>
RmMxW2NIXW5bY0hdW2NIXWMxW05IXUMoPU8pW05IXVtDSDJdW0NAQEhdMltDSDJdW0NIMl1bQ0gyXVtDSDJdW0NASF0yW09IXQ==

> <s_epik_cmdline>
J2VwaWtfcHl0aG9uJywgJy1waCcsICc3LjAnLCAnLXRuJywgJzgnLCAnLW1hJywgJzIwMCcsICctbWV0YWxfYmluZGluZycsICctaW1hZScsICc8aW5maWxlLm1hZT4nLCAnLW9tYWUnLCAnPG91dGZpbGUubWFlPic=

> <r_epik_Ionization_Penalty>
0.00317647

> <r_epik_Ionization_Penalty_Charging>
0

> <r_epik_Ionization_Penalty_Neutral>
0.00317647

> <r_epik_State_Penalty>
0.0022093

> <r_epik_Charging_Adjusted_Penalty>
0.0022093

> <i_epik_Tot_Q>
0

> <i_epik_Tot_abs_Q>
0

> <r_epik_Metal_State_Penalty>
-0

> <b_epik_Metal_Only>
0

> <s_lp_Force_Field>
OPLS_2005

> <r_lp_Energy>
17.8728

> <b_lp_Chiralities_Consistent>
1

> <s_lp_Variant>
AV-unprocessed.smi:2317-4

> <Gold.Version>
5.8.1

> <Gold.Id.Protein>
6NUR|6NUR_protein|mol2

> <Gold.PLP.Fitness>
46.3248

> <Gold.PLP.PLP>
-35.4748

> <Gold.PLP.part.hbond>
-4.0573

> <Gold.PLP.part.metal>
0.0000

> <Gold.PLP.part.buried>
-2.1779

> <Gold.PLP.part.nonpolar>
-30.8232

> <Gold.PLP.part.repulsive>
1.3827

> <Gold.PLP.ligand.clash>
0.0000

> <Gold.PLP.ligand.torsion>
0.4644

> <Gold.PLP.Chemscore.Hbond>
3.0000

> <Gold.PLP.Chemscore.CHOScore>
0.9250

> <Gold.PLP.Chemscore.Metal>
0.0000

> <Gold.Chemscore.Hbonds>
donor molecule, donor type, donor heavy atom, donor atom, acceptor molecule, acceptor atom, score
      L1  H     3    20       P1  7948  1.00
      L1  H    11    33       P1  7921  1.00
      L1  H    12    34       P1  7948  1.00
      L1  C    15    36       P1  8028  0.95

> <Gold.PLP.Chemscore.Internal.Correction>
0.0039

> <Gold.Rescore>
     Score         DG    S(hbond)    S(metal)    S(lipo)     H(rot)  DE(clash)    DE(int)     intcor
     19.31     -19.88       2.94        0.00      78.19       1.79       0.05       0.52       ----

> <Gold.Chemscore.Fitness>
19.3143

> <Gold.Chemscore.DG>
-19.8823

> <Gold.Chemscore.ZeroCoef>
-5.4800

> <Gold.Chemscore.Hbond>
2.9415

> <Gold.Chemscore.Metal>
0.0000

> <Gold.Chemscore.Lipo>
78.1889

> <Gold.Chemscore.Internal_Hbond>
0.0000

> <Gold.Chemscore.DEClash>
0.0497

> <Gold.Chemscore.DEInternal>
0.5183

> <Gold.Chemscore.Rot>
1.7853

> <Gold.Chemscore.Internal.Correction>
   9.000000E+99

> <Gold.Chemscore.Hbonds>
donor molecule, donor type, donor heavy atom, donor atom, acceptor molecule, acceptor atom, score
      L1  H     3    20       P1  7948  0.92
      L1  H    11    33       P1  7921  1.00
      L1  H    12    34       P1  7948  0.95

> <Gold.Chemscore.Hbond.Weighted>
-9.8246

> <Gold.Chemscore.Metal.Weighted>
-0.0000

> <Gold.Chemscore.Lipo.Weighted>
-9.1481

> <Gold.Chemscore.Internal_Hbond.Weighted>
0.0000

> <Gold.Chemscore.DEClash.Weighted>
0.0497

> <Gold.Chemscore.DEInternal.Weighted>
0.5183

> <Gold.Chemscore.Rot.Weighted>
4.5704

> <Gold.Chemscore.Internal.Correction.Weighted>
   9.000000E+99

> <Gold.Protein.RotatedTorsions>
[ 6907 6896 6895 6894 ] final  -41.09 input  -60.11 | X-H torsion
[ 7974 7965 7964 7962 ] final  -50.95 input  175.53 | X-H torsion
[ 8008 7997 7996 7995 ] final    3.90 input   59.86 | X-H torsion
[ 10167 10162 10161 10158 ] final   57.79 input  -65.29 | X-H torsion
[ 10718 10713 10712 10709 ] final -136.18 input   66.30 | X-H torsion
[ 10763 10752 10751 10750 ] final  -58.48 input  -60.55 | X-H torsion
[ 11005 11000 10999 10996 ] final  -89.00 input  -57.11 | X-H torsion

> <Gold.Protein.ActiveResidues>
 VAL166  LYS551  ARG553  GLY616  TRP617  ASP618  TYR619  PRO620  LYS621  CYS622 
 ASP623  PHE694  ASN695  SER759  ASP760  ASP761  ALA762  ILE779  LEU786  VAL792 
 PHE793  MET794  SER795  GLU796  ALA797  LYS798  CYS799  TRP800  GLU811  SER814 

> <Gold.Protein.RotatedAtoms>
  150.9708  134.9081  159.7786 H   0  0  0  0  0  0  0  0  0  0  0  0  # atno 6907 bound_to 6896
  152.5189  134.3543  159.9272 H   0  0  0  0  0  0  0  0  0  0  0  0  # atno 6908 bound_to 6896
  151.3553  133.3869  159.2719 H   0  0  0  0  0  0  0  0  0  0  0  0  # atno 6909 bound_to 6896
  145.9242  140.7806  142.9632 H   0  0  0  0  0  0  0  0  0  0  0  0  # atno 7974 bound_to 7965
  154.7093  140.2689  155.6644 H   0  0  0  0  0  0  0  0  0  0  0  0  # atno 8008 bound_to 7997
  156.2790  140.2756  156.1654 H   0  0  0  0  0  0  0  0  0  0  0  0  # atno 8009 bound_to 7997
  155.0656  140.0371  157.2581 H   0  0  0  0  0  0  0  0  0  0  0  0  # atno 8010 bound_to 7997
  140.1942  144.4054  150.6557 H   0  0  0  0  0  0  0  0  0  0  0  0  # atno 10167 bound_to 10162
  156.2743  130.7283  151.1260 H   0  0  0  0  0  0  0  0  0  0  0  0  # atno 10718 bound_to 10713
  154.2387  135.6347  153.5200 H   0  0  0  0  0  0  0  0  0  0  0  0  # atno 10763 bound_to 10752
  152.9934  135.5537  154.5934 H   0  0  0  0  0  0  0  0  0  0  0  0  # atno 10764 bound_to 10752
  154.5434  135.2896  155.1049 H   0  0  0  0  0  0  0  0  0  0  0  0  # atno 10765 bound_to 10752
  141.1592  133.7603  156.9532 H   0  0  0  0  0  0  0  0  0  0  0  0  # atno 11005 bound_to 11000
  144.6756  140.2025  143.7385 LP  0  0  0  0  0  0  0  0  0  0  0  0  # atno 17320 bound_to 7965
  145.8510  139.2175  143.1772 LP  0  0  0  0  0  0  0  0  0  0  0  0  # atno 17321 bound_to 7965
  140.6435  143.2208  151.6238 LP  0  0  0  0  0  0  0  0  0  0  0  0  # atno 17342 bound_to 10162
  139.5243  144.3107  152.0995 LP  0  0  0  0  0  0  0  0  0  0  0  0  # atno 17343 bound_to 10162
  157.7294  131.0624  150.5776 LP  0  0  0  0  0  0  0  0  0  0  0  0  # atno 17370 bound_to 10713
  156.5875  130.4320  149.5951 LP  0  0  0  0  0  0  0  0  0  0  0  0  # atno 17371 bound_to 10713
  140.1243  134.9397  157.2248 LP  0  0  0  0  0  0  0  0  0  0  0  0  # atno 17394 bound_to 11000
  140.3032  134.3107  155.7284 LP  0  0  0  0  0  0  0  0  0  0  0  0  # atno 17395 bound_to 11000

$$$$
