AV-unprocessed.smi:2892|AV-procd|sdf|11118|dock9
  -GOLD-   2272015593D 1   1.00000     0.00000
 Structure written by MMmdl.
 42 42  0  0  0  0  0  0  0  0  2 V2000
  148.0045  131.4338  161.5227 C   0  0  0  0  0  0  0  0  0  0  0  0
  147.6487  132.4883  160.4638 C   0  0  0  0  0  0  0  0  0  0  0  0
  147.8134  133.9551  160.9399 C   0  0  2  0  0  0  0  0  0  0  0  0
  146.9630  134.1964  162.2095 C   0  0  0  0  0  0  0  0  0  0  0  0
  147.4766  134.9667  159.7995 C   0  0  2  0  0  0  0  0  0  0  0  0
  148.4472  134.8150  158.7133 N   0  0  0  0  0  0  0  0  0  0  0  0
  148.2351  134.1737  157.5532 C   0  0  0  0  0  0  0  0  0  0  0  0
  147.1769  133.6044  157.2807 O   0  0  0  0  0  0  0  0  0  0  0  0
  149.4069  134.1915  156.5637 C   0  0  0  0  0  0  0  0  0  0  0  0
  149.1016  133.4148  155.3085 C   0  0  0  0  0  0  0  0  0  0  0  0
  149.7348  132.2325  154.8286 C   0  0  0  0  0  0  0  0  0  0  0  0
  149.0716  131.9505  153.6691 C   0  0  0  0  0  0  0  0  0  0  0  0
  148.1143  132.9272  153.4933 N   0  0  0  0  0  0  0  0  0  0  0  0
  147.1507  133.0593  152.4107 C   0  0  0  0  0  0  0  0  0  0  0  0
  146.2532  134.2911  152.6117 C   0  0  0  0  0  0  0  0  0  0  0  0
  146.3280  131.7720  152.2414 C   0  0  0  0  0  0  0  0  0  0  0  0
  148.1385  133.8301  154.4987 N   0  0  0  0  0  0  0  0  0  0  0  0
  147.5639  136.4176  160.3110 C   0  0  0  0  0  0  0  0  0  0  0  0
  148.6381  136.7660  160.8479 O   0  0  0  0  0  0  0  0  0  0  0  0
  146.5625  137.1523  160.1529 O   0  5  0  0  0  0  0  0  0  0  0  0
  147.9593  130.4324  161.0943 H   0  0  0  0  0  0  0  0  0  0  0  0
  147.3177  131.4532  162.3681 H   0  0  0  0  0  0  0  0  0  0  0  0
  149.0151  131.5839  161.9035 H   0  0  0  0  0  0  0  0  0  0  0  0
  148.2888  132.2952  159.6035 H   0  0  0  0  0  0  0  0  0  0  0  0
  146.6286  132.3262  160.1131 H   0  0  0  0  0  0  0  0  0  0  0  0
  148.8606  134.0953  161.2144 H   0  0  0  0  0  0  0  0  0  0  0  0
  145.8998  134.0807  161.9973 H   0  0  0  0  0  0  0  0  0  0  0  0
  147.1104  135.1933  162.6243 H   0  0  0  0  0  0  0  0  0  0  0  0
  147.2189  133.5003  163.0070 H   0  0  0  0  0  0  0  0  0  0  0  0
  146.4668  134.7718  159.4320 H   0  0  0  0  0  0  0  0  0  0  0  0
  149.3390  135.2688  158.8452 H   0  0  0  0  0  0  0  0  0  0  0  0
  149.6454  135.2299  156.3285 H   0  0  0  0  0  0  0  0  0  0  0  0
  150.2894  133.7737  157.0498 H   0  0  0  0  0  0  0  0  0  0  0  0
  150.5449  131.6742  155.2734 H   0  0  0  0  0  0  0  0  0  0  0  0
  149.2000  131.1432  152.9634 H   0  0  0  0  0  0  0  0  0  0  0  0
  147.7202  133.2109  151.4926 H   0  0  0  0  0  0  0  0  0  0  0  0
  145.5861  134.4315  151.7609 H   0  0  0  0  0  0  0  0  0  0  0  0
  146.8497  135.1980  152.7154 H   0  0  0  0  0  0  0  0  0  0  0  0
  145.6342  134.1953  153.5046 H   0  0  0  0  0  0  0  0  0  0  0  0
  145.6600  131.8447  151.3829 H   0  0  0  0  0  0  0  0  0  0  0  0
  145.7154  131.5692  153.1206 H   0  0  0  0  0  0  0  0  0  0  0  0
  146.9766  130.9101  152.0824 H   0  0  0  0  0  0  0  0  0  0  0  0
  1  2  1  0  0  0  0
  1 21  1  0  0  0  0
  1 22  1  0  0  0  0
  1 23  1  0  0  0  0
  2  3  1  0  0  0  0
  2 24  1  0  0  0  0
  2 25  1  0  0  0  0
  3  4  1  0  0  0  0
  3  5  1  0  0  0  0
  3 26  1  0  0  0  0
  4 27  1  0  0  0  0
  4 28  1  0  0  0  0
  4 29  1  0  0  0  0
  5  6  1  0  0  0  0
  5 18  1  0  0  0  0
  5 30  1  0  0  0  0
  6  7  1  0  0  0  0
  6 31  1  0  0  0  0
  7  8  2  0  0  0  0
  7  9  1  0  0  0  0
  9 10  1  0  0  0  0
  9 32  1  0  0  0  0
  9 33  1  0  0  0  0
 10 17  2  0  0  0  0
 10 11  1  0  0  0  0
 11 12  2  0  0  0  0
 11 34  1  0  0  0  0
 12 13  1  0  0  0  0
 12 35  1  0  0  0  0
 13 14  1  0  0  0  0
 13 17  1  0  0  0  0
 14 15  1  0  0  0  0
 14 16  1  0  0  0  0
 14 36  1  0  0  0  0
 15 37  1  0  0  0  0
 15 38  1  0  0  0  0
 15 39  1  0  0  0  0
 16 40  1  0  0  0  0
 16 41  1  0  0  0  0
 16 42  1  0  0  0  0
 18 19  2  0  0  0  0
 18 20  1  0  0  0  0
M  CHG  1  20  -1
M  END
> <s_m_source_file>
AV-unprocessed.smi

> <i_m_source_file_index>
2892

> <i_lp_mmshare_version>
43012

> <i_f3d_flags>
0

> <s_epik_input>
W0NIM11bQ0gyXVtDQEhdKFtDSDNdKVtDQEBIXShDKD1PKVtPSF0pW05IXUMoPU8pW0NIMl1jMVtjSF1bY0hdbihuMSlbQ0hdKFtDSDNdKVtDSDNd

> <s_epik_cmdline>
J2VwaWtfcHl0aG9uJywgJy1waCcsICc3LjAnLCAnLXRuJywgJzgnLCAnLW1hJywgJzIwMCcsICctbWV0YWxfYmluZGluZycsICctaW1hZScsICc8aW5maWxlLm1hZT4nLCAnLW9tYWUnLCAnPG91dGZpbGUubWFlPic=

> <r_lp_tautomer_probability>
1

> <r_epik_Ionization_Penalty>
0.000286846

> <r_epik_Ionization_Penalty_Charging>
0.000224481

> <r_epik_Ionization_Penalty_Neutral>
6.23655e-05

> <r_epik_State_Penalty>
-0

> <r_epik_Charging_Adjusted_Penalty>
0.000224481

> <i_epik_Tot_Q>
-1

> <i_epik_Tot_abs_Q>
1

> <r_epik_Metal_State_Penalty>
-0

> <b_epik_Metal_Only>
0

> <s_lp_Force_Field>
OPLS_2005

> <r_lp_Energy>
15.4928

> <b_lp_Chiralities_Consistent>
1

> <s_lp_Variant>
AV-unprocessed.smi:2892-1

> <Gold.Version>
5.8.1

> <Gold.Id.Protein>
6NUR|6NUR_protein|mol2

> <Gold.PLP.Fitness>
44.2678

> <Gold.PLP.PLP>
-30.0275

> <Gold.PLP.part.hbond>
-2.0595

> <Gold.PLP.part.metal>
0.0000

> <Gold.PLP.part.buried>
-3.6265

> <Gold.PLP.part.nonpolar>
-24.7947

> <Gold.PLP.part.repulsive>
0.1940

> <Gold.PLP.ligand.clash>
0.0000

> <Gold.PLP.ligand.torsion>
0.3900

> <Gold.PLP.Chemscore.Hbond>
3.9840

> <Gold.PLP.Chemscore.CHOScore>
0.9818

> <Gold.PLP.Chemscore.Metal>
0.0000

> <Gold.Chemscore.Hbonds>
donor molecule, donor type, donor heavy atom, donor atom, acceptor molecule, acceptor atom, score
      P1  H  6931  6943       L1    19  2.00
      P1  H  6934  6947       L1    20  1.59
      L1  C    12    35       P1 10747  0.63

> <Gold.PLP.Chemscore.Internal.Correction>
0.1229

> <Gold.Rescore>
     Score         DG    S(hbond)    S(metal)    S(lipo)     H(rot)  DE(clash)    DE(int)     intcor
     11.63     -13.36       1.89        0.00      65.72       2.39       0.04       1.69       ----

> <Gold.Chemscore.Fitness>
11.6310

> <Gold.Chemscore.DG>
-13.3615

> <Gold.Chemscore.ZeroCoef>
-5.4800

> <Gold.Chemscore.Hbond>
1.8867

> <Gold.Chemscore.Metal>
0.0000

> <Gold.Chemscore.Lipo>
65.7197

> <Gold.Chemscore.Internal_Hbond>
0.0000

> <Gold.Chemscore.DEClash>
0.0370

> <Gold.Chemscore.DEInternal>
1.6936

> <Gold.Chemscore.Rot>
2.3865

> <Gold.Chemscore.Internal.Correction>
   9.000000E+99

> <Gold.Chemscore.Hbonds>
donor molecule, donor type, donor heavy atom, donor atom, acceptor molecule, acceptor atom, score
      P1  H  6931  6943       L1    19  0.95
      P1  H  6934  6947       L1    20  0.35

> <Gold.Chemscore.Hbond.Weighted>
-6.3016

> <Gold.Chemscore.Metal.Weighted>
-0.0000

> <Gold.Chemscore.Lipo.Weighted>
-7.6892

> <Gold.Chemscore.Internal_Hbond.Weighted>
0.0000

> <Gold.Chemscore.DEClash.Weighted>
0.0370

> <Gold.Chemscore.DEInternal.Weighted>
1.6936

> <Gold.Chemscore.Rot.Weighted>
6.1093

> <Gold.Chemscore.Internal.Correction.Weighted>
   9.000000E+99

> <Gold.Protein.RotatedTorsions>
[ 6907 6896 6895 6894 ] final -153.86 input  -60.11 | X-H torsion
[ 7974 7965 7964 7962 ] final -178.42 input  175.53 | X-H torsion
[ 8008 7997 7996 7995 ] final   52.63 input   59.86 | X-H torsion
[ 10167 10162 10161 10158 ] final  127.50 input  -65.29 | X-H torsion
[ 10718 10713 10712 10709 ] final  132.49 input   66.30 | X-H torsion
[ 10763 10752 10751 10750 ] final  -48.45 input  -60.55 | X-H torsion
[ 11005 11000 10999 10996 ] final  -92.11 input  -57.11 | X-H torsion

> <Gold.Protein.ActiveResidues>
 VAL166  LYS551  ARG553  GLY616  TRP617  ASP618  TYR619  PRO620  LYS621  CYS622 
 ASP623  PHE694  ASN695  SER759  ASP760  ASP761  ALA762  ILE779  LEU786  VAL792 
 PHE793  MET794  SER795  GLU796  ALA797  LYS798  CYS799  TRP800  GLU811  SER814 

> <Gold.Protein.RotatedAtoms>
  151.2488  133.4361  159.2610 H   0  0  0  0  0  0  0  0  0  0  0  0  # atno 6907 bound_to 6896
  151.0637  134.9753  159.8283 H   0  0  0  0  0  0  0  0  0  0  0  0  # atno 6908 bound_to 6896
  152.5402  134.2437  159.8924 H   0  0  0  0  0  0  0  0  0  0  0  0  # atno 6909 bound_to 6896
  144.7131  140.0871  143.6423 H   0  0  0  0  0  0  0  0  0  0  0  0  # atno 7974 bound_to 7965
  155.4550  140.3459  155.4305 H   0  0  0  0  0  0  0  0  0  0  0  0  # atno 8008 bound_to 7997
  156.1197  140.1483  156.9252 H   0  0  0  0  0  0  0  0  0  0  0  0  # atno 8009 bound_to 7997
  154.4814  140.0868  156.7365 H   0  0  0  0  0  0  0  0  0  0  0  0  # atno 8010 bound_to 7997
  139.5575  144.6859  151.4140 H   0  0  0  0  0  0  0  0  0  0  0  0  # atno 10167 bound_to 10162
  157.4866  131.1088  150.9612 H   0  0  0  0  0  0  0  0  0  0  0  0  # atno 10718 bound_to 10713
  154.0780  135.6595  153.4833 H   0  0  0  0  0  0  0  0  0  0  0  0  # atno 10763 bound_to 10752
  153.0366  135.5173  154.7502 H   0  0  0  0  0  0  0  0  0  0  0  0  # atno 10764 bound_to 10752
  154.6588  135.3012  154.9861 H   0  0  0  0  0  0  0  0  0  0  0  0  # atno 10765 bound_to 10752
  141.1529  133.7799  156.9974 H   0  0  0  0  0  0  0  0  0  0  0  0  # atno 11005 bound_to 11000
  145.9652  139.2830  143.1131 LP  0  0  0  0  0  0  0  0  0  0  0  0  # atno 17320 bound_to 7965
  145.9177  140.9137  143.0421 LP  0  0  0  0  0  0  0  0  0  0  0  0  # atno 17321 bound_to 7965
  140.6850  143.7995  150.7173 LP  0  0  0  0  0  0  0  0  0  0  0  0  # atno 17342 bound_to 10162
  140.1460  143.4399  152.2163 LP  0  0  0  0  0  0  0  0  0  0  0  0  # atno 17343 bound_to 10162
  157.0328  130.5718  149.5345 LP  0  0  0  0  0  0  0  0  0  0  0  0  # atno 17370 bound_to 10713
  156.0150  130.5244  150.8107 LP  0  0  0  0  0  0  0  0  0  0  0  0  # atno 17371 bound_to 10713
  140.0962  134.9563  157.1854 LP  0  0  0  0  0  0  0  0  0  0  0  0  # atno 17394 bound_to 11000
  140.3379  134.2737  155.7217 LP  0  0  0  0  0  0  0  0  0  0  0  0  # atno 17395 bound_to 11000

$$$$
