AV-unprocessed.smi:648|AV-procd|sdf|3175|dock1
  -GOLD-   22720 0103D 1   1.00000     0.00000
 Structure written by MMmdl.
 45 46  0  0  0  0  0  0  0  0  1 V2000
  150.0937  140.9734  157.9005 C   0  0  0  0  0  0  0  0  0  0  0  0
  151.3113  141.7229  158.4614 C   0  0  1  0  0  0  0  0  0  0  0  0
  150.9524  143.1816  158.8033 C   0  0  0  0  0  0  0  0  0  0  0  0
  152.1405  144.0017  159.3585 C   0  0  0  0  0  0  0  0  0  0  0  0
  153.0995  144.4156  158.2182 C   0  0  0  0  0  0  0  0  0  0  0  0
  151.5875  145.3141  159.9572 C   0  0  0  0  0  0  0  0  0  0  0  0
  152.8531  143.2187  160.5047 C   0  0  0  0  0  0  0  0  0  0  0  0
  153.1381  141.6973  160.2936 C   0  0  1  0  0  0  0  0  0  0  0  0
  154.3714  141.4917  159.3714 C   0  0  0  0  0  0  0  0  0  0  0  0
  154.6906  140.1232  159.2023 O   0  0  0  0  0  0  0  0  0  0  0  0
  153.5246  141.0901  161.5882 N   0  0  0  0  0  0  0  0  0  0  0  0
  154.3919  141.8306  162.5125 C   0  0  0  0  0  0  0  0  0  0  0  0
  153.5586  142.7756  163.3884 C   0  0  0  0  0  0  0  0  0  0  0  0
  154.3405  143.3247  164.4784 N   0  0  0  0  0  0  0  0  0  0  0  0
  154.6839  144.5847  164.7507 C   0  0  0  0  0  0  0  0  0  0  0  0
  155.4135  144.7152  165.8501 N   0  0  0  0  0  0  0  0  0  0  0  0
  155.4862  143.4049  166.2318 C   0  0  0  0  0  0  0  0  0  0  0  0
  154.8585  142.5307  165.4448 N   0  0  0  0  0  0  0  0  0  0  0  0
  151.8666  141.0169  159.7112 C   0  0  0  0  0  0  0  0  0  0  0  0
  149.2817  140.9338  158.6273 H   0  0  0  0  0  0  0  0  0  0  0  0
  150.3520  139.9482  157.6344 H   0  0  0  0  0  0  0  0  0  0  0  0
  149.7126  141.4597  157.0020 H   0  0  0  0  0  0  0  0  0  0  0  0
  152.0706  141.7129  157.6807 H   0  0  0  0  0  0  0  0  0  0  0  0
  150.5415  143.6786  157.9233 H   0  0  0  0  0  0  0  0  0  0  0  0
  150.1474  143.1716  159.5398 H   0  0  0  0  0  0  0  0  0  0  0  0
  154.0382  144.8107  158.6079 H   0  0  0  0  0  0  0  0  0  0  0  0
  152.6556  145.1962  157.5991 H   0  0  0  0  0  0  0  0  0  0  0  0
  153.3326  143.6060  157.5327 H   0  0  0  0  0  0  0  0  0  0  0  0
  152.3895  145.9373  160.3545 H   0  0  0  0  0  0  0  0  0  0  0  0
  150.8874  145.1253  160.7720 H   0  0  0  0  0  0  0  0  0  0  0  0
  151.0551  145.9028  159.2092 H   0  0  0  0  0  0  0  0  0  0  0  0
  153.7751  143.7305  160.7841 H   0  0  0  0  0  0  0  0  0  0  0  0
  152.2090  143.3223  161.3753 H   0  0  0  0  0  0  0  0  0  0  0  0
  154.2180  141.8881  158.3752 H   0  0  0  0  0  0  0  0  0  0  0  0
  155.2448  142.0053  159.7755 H   0  0  0  0  0  0  0  0  0  0  0  0
  155.2905  139.8688  159.8868 H   0  0  0  0  0  0  0  0  0  0  0  0
  152.6876  140.7860  162.0759 H   0  0  0  0  0  0  0  0  0  0  0  0
  154.9579  141.1589  163.1551 H   0  0  0  0  0  0  0  0  0  0  0  0
  155.1143  142.4303  161.9598 H   0  0  0  0  0  0  0  0  0  0  0  0
  153.1695  143.6028  162.7929 H   0  0  0  0  0  0  0  0  0  0  0  0
  152.6981  142.2519  163.8073 H   0  0  0  0  0  0  0  0  0  0  0  0
  154.3952  145.4224  164.1326 H   0  0  0  0  0  0  0  0  0  0  0  0
  156.0168  143.0861  167.1169 H   0  0  0  0  0  0  0  0  0  0  0  0
  151.0652  141.0207  160.4492 H   0  0  0  0  0  0  0  0  0  0  0  0
  152.0603  139.9661  159.4933 H   0  0  0  0  0  0  0  0  0  0  0  0
  1  2  1  0  0  0  0
  1 20  1  0  0  0  0
  1 21  1  0  0  0  0
  1 22  1  0  0  0  0
  2 19  1  0  0  0  0
  2  3  1  0  0  0  0
  2 23  1  0  0  0  0
  3  4  1  0  0  0  0
  3 24  1  0  0  0  0
  3 25  1  0  0  0  0
  4  5  1  0  0  0  0
  4  6  1  0  0  0  0
  4  7  1  0  0  0  0
  5 26  1  0  0  0  0
  5 27  1  0  0  0  0
  5 28  1  0  0  0  0
  6 29  1  0  0  0  0
  6 30  1  0  0  0  0
  6 31  1  0  0  0  0
  7  8  1  0  0  0  0
  7 32  1  0  0  0  0
  7 33  1  0  0  0  0
  8  9  1  0  0  0  0
  8 11  1  0  0  0  0
  8 19  1  0  0  0  0
  9 10  1  0  0  0  0
  9 34  1  0  0  0  0
  9 35  1  0  0  0  0
 10 36  1  0  0  0  0
 11 12  1  0  0  0  0
 11 37  1  0  0  0  0
 12 13  1  0  0  0  0
 12 38  1  0  0  0  0
 12 39  1  0  0  0  0
 13 14  1  0  0  0  0
 13 40  1  0  0  0  0
 13 41  1  0  0  0  0
 14 18  1  0  0  0  0
 14 15  1  0  0  0  0
 15 16  2  0  0  0  0
 15 42  1  0  0  0  0
 16 17  1  0  0  0  0
 17 18  2  0  0  0  0
 17 43  1  0  0  0  0
 19 44  1  0  0  0  0
 19 45  1  0  0  0  0
M  END
> <s_m_source_file>
AV-unprocessed.smi

> <i_m_source_file_index>
648

> <i_lp_mmshare_version>
43012

> <i_f3d_flags>
0

> <s_epik_input>
W0NIM11DMShbQ0gzXSlbQ0gyXVtDQEBIXShbQ0gzXSlbQ0gyXVtDQF0oW0NIMl0xKShbQ0gyXVtPSF0pW05IXVtDSDJdW0NIMl1uMltjSF1uW2NIXW4y

> <s_epik_cmdline>
J2VwaWtfcHl0aG9uJywgJy1waCcsICc3LjAnLCAnLXRuJywgJzgnLCAnLW1hJywgJzIwMCcsICctbWV0YWxfYmluZGluZycsICctaW1hZScsICc8aW5maWxlLm1hZT4nLCAnLW9tYWUnLCAnPG91dGZpbGUubWFlPic=

> <r_lp_tautomer_probability>
1

> <r_epik_Ionization_Penalty>
2.45849

> <r_epik_Ionization_Penalty_Charging>
0

> <r_epik_Ionization_Penalty_Neutral>
2.45849

> <r_epik_State_Penalty>
2.62037

> <r_epik_Charging_Adjusted_Penalty>
2.62037

> <i_epik_Tot_Q>
0

> <i_epik_Tot_abs_Q>
0

> <r_epik_Metal_State_Penalty>
2.62024

> <b_epik_Metal_Only>
0

> <s_lp_Force_Field>
OPLS_2005

> <r_lp_Energy>
36.0578

> <b_lp_Chiralities_Consistent>
1

> <s_lp_Variant>
AV-unprocessed.smi:648-6

> <Gold.Version>
5.8.1

> <Gold.Id.Protein>
6NUR|6NUR_protein|mol2

> <Gold.PLP.Fitness>
45.0013

> <Gold.PLP.PLP>
-43.0239

> <Gold.PLP.part.hbond>
-2.2865

> <Gold.PLP.part.metal>
0.0000

> <Gold.PLP.part.buried>
-3.0174

> <Gold.PLP.part.nonpolar>
-37.3980

> <Gold.PLP.part.repulsive>
0.0885

> <Gold.PLP.ligand.clash>
0.0000

> <Gold.PLP.ligand.torsion>
0.4620

> <Gold.PLP.Chemscore.Hbond>
0.9440

> <Gold.PLP.Chemscore.CHOScore>
0.0000

> <Gold.PLP.Chemscore.Metal>
0.0000

> <Gold.Chemscore.Hbonds>
donor molecule, donor type, donor heavy atom, donor atom, acceptor molecule, acceptor atom, score
      P1  H  7997  8010       L1    10  0.94

> <Gold.PLP.Chemscore.Internal.Correction>
0.0694

> <Gold.Rescore>
     Score         DG    S(hbond)    S(metal)    S(lipo)     H(rot)  DE(clash)    DE(int)     intcor
      8.29     -11.13       0.14        0.00     112.56       3.12       2.12       0.72       ----

> <Gold.Chemscore.Fitness>
8.2855

> <Gold.Chemscore.DG>
-11.1292

> <Gold.Chemscore.ZeroCoef>
-5.4800

> <Gold.Chemscore.Hbond>
0.1384

> <Gold.Chemscore.Metal>
0.0000

> <Gold.Chemscore.Lipo>
112.5628

> <Gold.Chemscore.Internal_Hbond>
0.0000

> <Gold.Chemscore.DEClash>
2.1226

> <Gold.Chemscore.DEInternal>
0.7211

> <Gold.Chemscore.Rot>
3.1183

> <Gold.Chemscore.Internal.Correction>
   9.000000E+99

> <Gold.Chemscore.Hbonds>
donor molecule, donor type, donor heavy atom, donor atom, acceptor molecule, acceptor atom, score
      P1  H  7997  8010       L1    10  0.35

> <Gold.Chemscore.Hbond.Weighted>
-0.4623

> <Gold.Chemscore.Metal.Weighted>
-0.0000

> <Gold.Chemscore.Lipo.Weighted>
-13.1698

> <Gold.Chemscore.Internal_Hbond.Weighted>
0.0000

> <Gold.Chemscore.DEClash.Weighted>
2.1226

> <Gold.Chemscore.DEInternal.Weighted>
0.7211

> <Gold.Chemscore.Rot.Weighted>
7.9829

> <Gold.Chemscore.Internal.Correction.Weighted>
   9.000000E+99

> <Gold.Protein.RotatedTorsions>
[ 6907 6896 6895 6894 ] final -130.46 input  -60.11 | X-H torsion
[ 7974 7965 7964 7962 ] final    8.05 input  175.53 | X-H torsion
[ 8008 7997 7996 7995 ] final   -8.11 input   59.86 | X-H torsion
[ 10167 10162 10161 10158 ] final  114.71 input  -65.29 | X-H torsion
[ 10718 10713 10712 10709 ] final  173.42 input   66.30 | X-H torsion
[ 10763 10752 10751 10750 ] final -138.60 input  -60.55 | X-H torsion
[ 11005 11000 10999 10996 ] final -120.36 input  -57.11 | X-H torsion

> <Gold.Protein.ActiveResidues>
 VAL166  LYS551  ARG553  GLY616  TRP617  ASP618  TYR619  PRO620  LYS621  CYS622 
 ASP623  PHE694  ASN695  SER759  ASP760  ASP761  ALA762  ILE779  LEU786  VAL792 
 PHE793  MET794  SER795  GLU796  ALA797  LYS798  CYS799  TRP800  GLU811  SER814 

> <Gold.Protein.RotatedAtoms>
  150.9399  133.6668  159.2792 H   0  0  0  0  0  0  0  0  0  0  0  0  # atno 6907 bound_to 6896
  151.4061  135.0977  159.9580 H   0  0  0  0  0  0  0  0  0  0  0  0  # atno 6908 bound_to 6896
  152.5065  133.8883  159.7436 H   0  0  0  0  0  0  0  0  0  0  0  0  # atno 6909 bound_to 6896
  146.2420  139.9991  142.8418 H   0  0  0  0  0  0  0  0  0  0  0  0  # atno 7974 bound_to 7965
  154.5773  140.2389  155.8104 H   0  0  0  0  0  0  0  0  0  0  0  0  # atno 8008 bound_to 7997
  156.2153  140.3014  155.9782 H   0  0  0  0  0  0  0  0  0  0  0  0  # atno 8009 bound_to 7997
  155.2604  140.0414  157.2987 H   0  0  0  0  0  0  0  0  0  0  0  0  # atno 8010 bound_to 7997
  139.6369  144.7120  151.2316 H   0  0  0  0  0  0  0  0  0  0  0  0  # atno 10167 bound_to 10162
  156.9646  131.0071  151.2919 H   0  0  0  0  0  0  0  0  0  0  0  0  # atno 10718 bound_to 10713
  154.8632  135.3607  154.5410 H   0  0  0  0  0  0  0  0  0  0  0  0  # atno 10763 bound_to 10752
  153.6032  135.7012  153.5381 H   0  0  0  0  0  0  0  0  0  0  0  0  # atno 10764 bound_to 10752
  153.3273  135.4134  155.1427 H   0  0  0  0  0  0  0  0  0  0  0  0  # atno 10765 bound_to 10752
  141.0149  134.0210  157.3363 H   0  0  0  0  0  0  0  0  0  0  0  0  # atno 11005 bound_to 11000
  145.1432  140.9583  143.4476 LP  0  0  0  0  0  0  0  0  0  0  0  0  # atno 17320 bound_to 7965
  145.0276  139.3369  143.6041 LP  0  0  0  0  0  0  0  0  0  0  0  0  # atno 17321 bound_to 7965
  140.7470  143.6380  150.8361 LP  0  0  0  0  0  0  0  0  0  0  0  0  # atno 17342 bound_to 10162
  140.0012  143.5742  152.2874 LP  0  0  0  0  0  0  0  0  0  0  0  0  # atno 17343 bound_to 10162
  157.5634  130.8261  149.8296 LP  0  0  0  0  0  0  0  0  0  0  0  0  # atno 17370 bound_to 10713
  156.0308  130.3765  150.1694 LP  0  0  0  0  0  0  0  0  0  0  0  0  # atno 17371 bound_to 10713
  139.9111  135.0190  156.7695 LP  0  0  0  0  0  0  0  0  0  0  0  0  # atno 17394 bound_to 11000
  140.6671  133.9592  155.7836 LP  0  0  0  0  0  0  0  0  0  0  0  0  # atno 17395 bound_to 11000

$$$$
