AV-unprocessed.smi:2121|AV-procd|sdf|8645|dock3
  -GOLD-   2272011393D 1   1.00000     0.00000
 Structure written by MMmdl.
 49 50  0  0  0  0  0  0  0  0  1 V2000
  151.0166  145.2617  159.3228 C   0  0  0  0  0  0  0  0  0  0  0  0
  151.5145  143.8274  159.5306 C   0  0  1  0  0  0  0  0  0  0  0  0
  151.2425  142.9413  158.3021 C   0  0  0  0  0  0  0  0  0  0  0  0
  151.8376  141.6217  158.4885 N   0  0  0  0  0  0  0  0  0  0  0  0
  151.4456  140.5856  157.6154 C   0  0  0  0  0  0  0  0  0  0  0  0
  151.2000  140.8668  156.2513 C   0  0  0  0  0  0  0  0  0  0  0  0
  150.8093  139.8212  155.3937 C   0  0  0  0  0  0  0  0  0  0  0  0
  150.6669  138.5189  155.9201 C   0  0  0  0  0  0  0  0  0  0  0  0
  150.2535  137.3277  155.0643 C   0  0  0  0  0  0  0  0  0  0  0  0
  149.0094  137.5099  154.3232 N   0  0  0  0  0  0  0  0  0  0  0  0
  147.9245  138.1486  154.7865 C   0  0  0  0  0  0  0  0  0  0  0  0
  147.8506  138.6175  155.9235 O   0  0  0  0  0  0  0  0  0  0  0  0
  146.7453  138.2757  153.8095 C   0  0  1  0  0  0  0  0  0  0  0  0
  146.7630  139.6895  153.2053 C   0  0  0  0  0  0  0  0  0  0  0  0
  146.8777  137.3100  152.7194 N   0  0  0  0  0  0  0  0  0  0  0  0
  145.9006  136.4994  152.2859 C   0  0  0  0  0  0  0  0  0  0  0  0
  146.3027  135.7061  151.2927 N   0  0  0  0  0  0  0  0  0  0  0  0
  144.7594  136.4761  152.7430 O   0  0  0  0  0  0  0  0  0  0  0  0
  150.9419  138.3341  157.2899 C   0  0  0  0  0  0  0  0  0  0  0  0
  151.3212  139.3318  158.1159 N   0  0  0  0  0  0  0  0  0  0  0  0
  153.2630  141.6722  158.7985 C   0  0  0  0  0  0  0  0  0  0  0  0
  153.5360  142.6063  159.9939 C   0  0  2  0  0  0  0  0  0  0  0  0
  153.1501  141.9913  161.3510 C   0  0  0  0  0  0  0  0  0  0  0  0
  152.9187  143.8782  159.7815 O   0  0  0  0  0  0  0  0  0  0  0  0
  149.9425  145.2812  159.1365 H   0  0  0  0  0  0  0  0  0  0  0  0
  151.5126  145.7326  158.4734 H   0  0  0  0  0  0  0  0  0  0  0  0
  151.2119  145.8730  160.2041 H   0  0  0  0  0  0  0  0  0  0  0  0
  151.0009  143.4156  160.3994 H   0  0  0  0  0  0  0  0  0  0  0  0
  150.1659  142.8509  158.1517 H   0  0  0  0  0  0  0  0  0  0  0  0
  151.6605  143.4000  157.4049 H   0  0  0  0  0  0  0  0  0  0  0  0
  151.3210  141.8634  155.8533 H   0  0  0  0  0  0  0  0  0  0  0  0
  150.6284  140.0288  154.3495 H   0  0  0  0  0  0  0  0  0  0  0  0
  151.0490  137.1336  154.3449 H   0  0  0  0  0  0  0  0  0  0  0  0
  150.1817  136.4369  155.6910 H   0  0  0  0  0  0  0  0  0  0  0  0
  148.9831  137.1516  153.3795 H   0  0  0  0  0  0  0  0  0  0  0  0
  145.8003  138.1143  154.3320 H   0  0  0  0  0  0  0  0  0  0  0  0
  146.6648  140.4514  153.9796 H   0  0  0  0  0  0  0  0  0  0  0  0
  145.9334  139.8258  152.5108 H   0  0  0  0  0  0  0  0  0  0  0  0
  147.6863  139.8878  152.6584 H   0  0  0  0  0  0  0  0  0  0  0  0
  147.7839  137.2438  152.2800 H   0  0  0  0  0  0  0  0  0  0  0  0
  145.6602  135.0499  150.8741 H   0  0  0  0  0  0  0  0  0  0  0  0
  147.2539  135.7692  150.9599 H   0  0  0  0  0  0  0  0  0  0  0  0
  150.8564  137.3553  157.7387 H   0  0  0  0  0  0  0  0  0  0  0  0
  153.6708  140.6842  159.0088 H   0  0  0  0  0  0  0  0  0  0  0  0
  153.7880  142.0441  157.9177 H   0  0  0  0  0  0  0  0  0  0  0  0
  154.6097  142.7931  160.0282 H   0  0  0  0  0  0  0  0  0  0  0  0
  153.7341  141.0916  161.5458 H   0  0  0  0  0  0  0  0  0  0  0  0
  152.0986  141.7082  161.3940 H   0  0  0  0  0  0  0  0  0  0  0  0
  153.3423  142.6914  162.1641 H   0  0  0  0  0  0  0  0  0  0  0  0
  1  2  1  0  0  0  0
  1 25  1  0  0  0  0
  1 26  1  0  0  0  0
  1 27  1  0  0  0  0
  2 24  1  0  0  0  0
  2  3  1  0  0  0  0
  2 28  1  0  0  0  0
  3  4  1  0  0  0  0
  3 29  1  0  0  0  0
  3 30  1  0  0  0  0
  4  5  1  0  0  0  0
  4 21  1  0  0  0  0
  5 20  1  0  0  0  0
  5  6  2  0  0  0  0
  6  7  1  0  0  0  0
  6 31  1  0  0  0  0
  7  8  2  0  0  0  0
  7 32  1  0  0  0  0
  8  9  1  0  0  0  0
  8 19  1  0  0  0  0
  9 10  1  0  0  0  0
  9 33  1  0  0  0  0
  9 34  1  0  0  0  0
 10 11  1  0  0  0  0
 10 35  1  0  0  0  0
 11 12  2  0  0  0  0
 11 13  1  0  0  0  0
 13 14  1  0  0  0  0
 13 15  1  0  0  0  0
 13 36  1  0  0  0  0
 14 37  1  0  0  0  0
 14 38  1  0  0  0  0
 14 39  1  0  0  0  0
 15 16  1  0  0  0  0
 15 40  1  0  0  0  0
 16 17  1  0  0  0  0
 16 18  2  0  0  0  0
 17 41  1  0  0  0  0
 17 42  1  0  0  0  0
 19 20  2  0  0  0  0
 19 43  1  0  0  0  0
 21 22  1  0  0  0  0
 21 44  1  0  0  0  0
 21 45  1  0  0  0  0
 22 23  1  0  0  0  0
 22 24  1  0  0  0  0
 22 46  1  0  0  0  0
 23 47  1  0  0  0  0
 23 48  1  0  0  0  0
 23 49  1  0  0  0  0
M  END
> <s_m_source_file>
AV-unprocessed.smi

> <i_m_source_file_index>
2121

> <i_lp_mmshare_version>
43012

> <i_f3d_flags>
0

> <s_epik_input>
W0NIM11bQ0BASF0xW0NIMl1OKFtDSDJdW0NASF0oTzEpW0NIM10pYzJbY0hdW2NIXWMoW2NIXW4yKVtDSDJdW05IXUMoPU8pW0NASF0oW0NIM10pW05IXUMoPU8pW05IMl0=

> <s_epik_cmdline>
J2VwaWtfcHl0aG9uJywgJy1waCcsICc3LjAnLCAnLXRuJywgJzgnLCAnLW1hJywgJzIwMCcsICctbWV0YWxfYmluZGluZycsICctaW1hZScsICc8aW5maWxlLm1hZT4nLCAnLW9tYWUnLCAnPG91dGZpbGUubWFlPic=

> <r_lp_tautomer_probability>
1

> <r_epik_Ionization_Penalty>
0.0063713

> <r_epik_Ionization_Penalty_Charging>
0

> <r_epik_Ionization_Penalty_Neutral>
0.0063713

> <r_epik_State_Penalty>
0.00467069

> <r_epik_Charging_Adjusted_Penalty>
0.00467069

> <i_epik_Tot_Q>
0

> <i_epik_Tot_abs_Q>
0

> <r_epik_Metal_State_Penalty>
-0

> <b_epik_Metal_Only>
0

> <s_lp_Force_Field>
OPLS_2005

> <r_lp_Energy>
11.1976

> <b_lp_Chiralities_Consistent>
1

> <s_lp_Variant>
AV-unprocessed.smi:2121-6

> <Gold.Version>
5.8.1

> <Gold.Id.Protein>
6NUR|6NUR_protein|mol2

> <Gold.PLP.Fitness>
42.9950

> <Gold.PLP.PLP>
-37.1602

> <Gold.PLP.part.hbond>
-3.0000

> <Gold.PLP.part.metal>
0.0000

> <Gold.PLP.part.buried>
-4.4991

> <Gold.PLP.part.nonpolar>
-30.3679

> <Gold.PLP.part.repulsive>
0.7240

> <Gold.PLP.ligand.clash>
0.0000

> <Gold.PLP.ligand.torsion>
1.4111

> <Gold.PLP.Chemscore.Hbond>
2.7520

> <Gold.PLP.Chemscore.CHOScore>
0.0000

> <Gold.PLP.Chemscore.Metal>
0.0000

> <Gold.Chemscore.Hbonds>
donor molecule, donor type, donor heavy atom, donor atom, acceptor molecule, acceptor atom, score
      L1  H    10    35       P1  7948  1.00
      L1  H    15    40       P1  7948  0.90
      L1  H    17    42       P1  7948  0.69

> <Gold.PLP.Chemscore.Internal.Correction>
0.4010

> <Gold.Rescore>
     Score         DG    S(hbond)    S(metal)    S(lipo)     H(rot)  DE(clash)    DE(int)     intcor
     16.78     -19.62       2.76        0.00      98.76       2.58       0.03       2.81       ----

> <Gold.Chemscore.Fitness>
16.7799

> <Gold.Chemscore.DG>
-19.6237

> <Gold.Chemscore.ZeroCoef>
-5.4800

> <Gold.Chemscore.Hbond>
2.7553

> <Gold.Chemscore.Metal>
0.0000

> <Gold.Chemscore.Lipo>
98.7634

> <Gold.Chemscore.Internal_Hbond>
0.0000

> <Gold.Chemscore.DEClash>
0.0348

> <Gold.Chemscore.DEInternal>
2.8090

> <Gold.Chemscore.Rot>
2.5838

> <Gold.Chemscore.Internal.Correction>
   9.000000E+99

> <Gold.Chemscore.Hbonds>
donor molecule, donor type, donor heavy atom, donor atom, acceptor molecule, acceptor atom, score
      L1  H    10    35       P1  7948  1.00
      L1  H    15    40       P1  7948  0.86
      L1  H    17    42       P1  7948  0.56

> <Gold.Chemscore.Hbond.Weighted>
-9.2028

> <Gold.Chemscore.Metal.Weighted>
-0.0000

> <Gold.Chemscore.Lipo.Weighted>
-11.5553

> <Gold.Chemscore.Internal_Hbond.Weighted>
0.0000

> <Gold.Chemscore.DEClash.Weighted>
0.0348

> <Gold.Chemscore.DEInternal.Weighted>
2.8090

> <Gold.Chemscore.Rot.Weighted>
6.6145

> <Gold.Chemscore.Internal.Correction.Weighted>
   9.000000E+99

> <Gold.Protein.RotatedTorsions>
[ 6907 6896 6895 6894 ] final -166.28 input  -60.11 | X-H torsion
[ 7974 7965 7964 7962 ] final -100.56 input  175.53 | X-H torsion
[ 8008 7997 7996 7995 ] final    9.73 input   59.86 | X-H torsion
[ 10167 10162 10161 10158 ] final   60.26 input  -65.29 | X-H torsion
[ 10718 10713 10712 10709 ] final  154.07 input   66.30 | X-H torsion
[ 10763 10752 10751 10750 ] final  -52.68 input  -60.55 | X-H torsion
[ 11005 11000 10999 10996 ] final  112.11 input  -57.11 | X-H torsion

> <Gold.Protein.ActiveResidues>
 VAL166  LYS551  ARG553  GLY616  TRP617  ASP618  TYR619  PRO620  LYS621  CYS622 
 ASP623  PHE694  ASN695  SER759  ASP760  ASP761  ALA762  ILE779  LEU786  VAL792 
 PHE793  MET794  SER795  GLU796  ALA797  LYS798  CYS799  TRP800  GLU811  SER814 

> <Gold.Protein.RotatedAtoms>
  151.4411  133.3643  159.2781 H   0  0  0  0  0  0  0  0  0  0  0  0  # atno 6907 bound_to 6896
  150.9157  134.8576  159.7466 H   0  0  0  0  0  0  0  0  0  0  0  0  # atno 6908 bound_to 6896
  152.4956  134.4345  159.9575 H   0  0  0  0  0  0  0  0  0  0  0  0  # atno 6909 bound_to 6896
  145.2930  140.9357  143.2867 H   0  0  0  0  0  0  0  0  0  0  0  0  # atno 7974 bound_to 7965
  154.7839  140.2824  155.6042 H   0  0  0  0  0  0  0  0  0  0  0  0  # atno 8008 bound_to 7997
  156.2954  140.2617  156.2600 H   0  0  0  0  0  0  0  0  0  0  0  0  # atno 8009 bound_to 7997
  154.9750  140.0375  157.2241 H   0  0  0  0  0  0  0  0  0  0  0  0  # atno 8010 bound_to 7997
  140.1676  144.4309  150.6678 H   0  0  0  0  0  0  0  0  0  0  0  0  # atno 10167 bound_to 10162
  157.2365  131.0750  151.1820 H   0  0  0  0  0  0  0  0  0  0  0  0  # atno 10718 bound_to 10713
  154.1466  135.6497  153.4954 H   0  0  0  0  0  0  0  0  0  0  0  0  # atno 10763 bound_to 10752
  153.0150  135.5328  154.6851 H   0  0  0  0  0  0  0  0  0  0  0  0  # atno 10764 bound_to 10752
  154.6127  135.2955  155.0386 H   0  0  0  0  0  0  0  0  0  0  0  0  # atno 10765 bound_to 10752
  139.8919  134.9523  156.6535 H   0  0  0  0  0  0  0  0  0  0  0  0  # atno 11005 bound_to 11000
  144.9157  139.4473  143.6565 LP  0  0  0  0  0  0  0  0  0  0  0  0  # atno 17320 bound_to 7965
  146.3178  139.7989  142.8969 LP  0  0  0  0  0  0  0  0  0  0  0  0  # atno 17321 bound_to 7965
  140.6603  143.2250  151.5871 LP  0  0  0  0  0  0  0  0  0  0  0  0  # atno 17342 bound_to 10162
  139.5353  144.2800  152.1237 LP  0  0  0  0  0  0  0  0  0  0  0  0  # atno 17343 bound_to 10162
  157.3424  130.7040  149.6389 LP  0  0  0  0  0  0  0  0  0  0  0  0  # atno 17370 bound_to 10713
  155.9672  130.4276  150.4751 LP  0  0  0  0  0  0  0  0  0  0  0  0  # atno 17371 bound_to 10713
  140.7502  133.8903  155.8341 LP  0  0  0  0  0  0  0  0  0  0  0  0  # atno 17394 bound_to 11000
  141.0007  134.1155  157.4320 LP  0  0  0  0  0  0  0  0  0  0  0  0  # atno 17395 bound_to 11000

$$$$
