AV-unprocessed.smi:646|AV-procd|sdf|3166|dock9
  -GOLD-   22720 0 83D 1   1.00000     0.00000
 Structure written by MMmdl.
 44 45  0  0  0  0  0  0  0  0  1 V2000
  150.3719  131.5292  155.8116 C   0  0  0  0  0  0  0  0  0  0  0  0
  149.3367  132.4596  156.1037 O   0  0  0  0  0  0  0  0  0  0  0  0
  149.2335  133.6150  155.2604 C   0  0  2  0  0  0  0  0  0  0  0  0
  148.9770  133.2016  153.8056 C   0  0  0  0  0  0  0  0  0  0  0  0
  150.3723  134.6045  155.5745 C   0  0  0  0  0  0  0  0  0  0  0  0
  149.5091  135.1188  156.7250 C   0  0  1  0  0  0  0  0  0  0  0  0
  149.5935  136.5641  156.8909 N   0  0  0  0  0  0  0  0  0  0  0  0
  149.6523  137.1890  158.0759 C   0  0  0  0  0  0  0  0  0  0  0  0
  149.7470  136.5999  159.1523 O   0  0  0  0  0  0  0  0  0  0  0  0
  149.5477  138.7126  158.0419 C   0  0  0  0  0  0  0  0  0  0  0  0
  150.5711  139.2534  157.0762 C   0  0  0  0  0  0  0  0  0  0  0  0
  150.3436  139.8295  155.7934 C   0  0  0  0  0  0  0  0  0  0  0  0
  149.0364  140.0462  155.0870 C   0  0  0  0  0  0  0  0  0  0  0  0
  151.4728  140.1836  155.2033 N   0  0  0  0  0  0  0  0  0  0  0  0
  152.4942  139.8426  156.0948 O   0  0  0  0  0  0  0  0  0  0  0  0
  151.9332  139.2884  157.1994 C   0  0  0  0  0  0  0  0  0  0  0  0
  152.8712  138.8427  158.2694 C   0  0  0  0  0  0  0  0  0  0  0  0
  148.2628  134.6358  155.9389 C   0  0  0  0  0  0  0  0  0  0  0  0
  147.5968  135.6598  154.9983 C   0  0  0  0  0  0  0  0  0  0  0  0
  147.1268  134.0479  156.7831 C   0  0  0  0  0  0  0  0  0  0  0  0
  150.4398  130.8061  156.6243 H   0  0  0  0  0  0  0  0  0  0  0  0
  151.3459  132.0073  155.7121 H   0  0  0  0  0  0  0  0  0  0  0  0
  150.1607  130.9696  154.9006 H   0  0  0  0  0  0  0  0  0  0  0  0
  148.7998  134.0643  153.1642 H   0  0  0  0  0  0  0  0  0  0  0  0
  148.1054  132.5514  153.7267 H   0  0  0  0  0  0  0  0  0  0  0  0
  149.8283  132.6757  153.3741 H   0  0  0  0  0  0  0  0  0  0  0  0
  151.3180  134.1634  155.8877 H   0  0  0  0  0  0  0  0  0  0  0  0
  150.5268  135.3383  154.7813 H   0  0  0  0  0  0  0  0  0  0  0  0
  149.6816  134.5536  157.6439 H   0  0  0  0  0  0  0  0  0  0  0  0
  149.5192  137.1279  156.0569 H   0  0  0  0  0  0  0  0  0  0  0  0
  148.5358  138.9965  157.7502 H   0  0  0  0  0  0  0  0  0  0  0  0
  149.6952  139.1065  159.0482 H   0  0  0  0  0  0  0  0  0  0  0  0
  148.2984  140.4872  155.7572 H   0  0  0  0  0  0  0  0  0  0  0  0
  148.6315  139.1015  154.7235 H   0  0  0  0  0  0  0  0  0  0  0  0
  149.1447  140.7138  154.2313 H   0  0  0  0  0  0  0  0  0  0  0  0
  152.4253  138.0563  158.8781 H   0  0  0  0  0  0  0  0  0  0  0  0
  153.1289  139.6738  158.9255 H   0  0  0  0  0  0  0  0  0  0  0  0
  153.7932  138.4505  157.8397 H   0  0  0  0  0  0  0  0  0  0  0  0
  147.0711  136.4371  155.5541 H   0  0  0  0  0  0  0  0  0  0  0  0
  146.8652  135.1843  154.3442 H   0  0  0  0  0  0  0  0  0  0  0  0
  148.3206  136.1641  154.3578 H   0  0  0  0  0  0  0  0  0  0  0  0
  146.5440  134.8297  157.2714 H   0  0  0  0  0  0  0  0  0  0  0  0
  147.5004  133.3982  157.5747 H   0  0  0  0  0  0  0  0  0  0  0  0
  146.4425  133.4571  156.1736 H   0  0  0  0  0  0  0  0  0  0  0  0
  1  2  1  0  0  0  0
  1 21  1  0  0  0  0
  1 22  1  0  0  0  0
  1 23  1  0  0  0  0
  2  3  1  0  0  0  0
  3 18  1  0  0  0  0
  3  4  1  0  0  0  0
  3  5  1  0  0  0  0
  4 24  1  0  0  0  0
  4 25  1  0  0  0  0
  4 26  1  0  0  0  0
  5  6  1  0  0  0  0
  5 27  1  0  0  0  0
  5 28  1  0  0  0  0
  6  7  1  0  0  0  0
  6 18  1  0  0  0  0
  6 29  1  0  0  0  0
  7  8  1  0  0  0  0
  7 30  1  0  0  0  0
  8  9  2  0  0  0  0
  8 10  1  0  0  0  0
 10 11  1  0  0  0  0
 10 31  1  0  0  0  0
 10 32  1  0  0  0  0
 11 16  2  0  0  0  0
 11 12  1  0  0  0  0
 12 13  1  0  0  0  0
 12 14  2  0  0  0  0
 13 33  1  0  0  0  0
 13 34  1  0  0  0  0
 13 35  1  0  0  0  0
 14 15  1  0  0  0  0
 15 16  1  0  0  0  0
 16 17  1  0  0  0  0
 17 36  1  0  0  0  0
 17 37  1  0  0  0  0
 17 38  1  0  0  0  0
 18 19  1  0  0  0  0
 18 20  1  0  0  0  0
 19 39  1  0  0  0  0
 19 40  1  0  0  0  0
 19 41  1  0  0  0  0
 20 42  1  0  0  0  0
 20 43  1  0  0  0  0
 20 44  1  0  0  0  0
M  END
> <s_m_source_file>
AV-unprocessed.smi

> <i_m_source_file_index>
646

> <i_lp_mmshare_version>
43012

> <i_f3d_flags>
0

> <s_epik_input>
W0NIM11PW0NAQF0xKFtDSDNdKVtDSDJdW0NASF0oQzEoW0NIM10pW0NIM10pW05IXUMoPU8pW0NIMl1jMmMoW0NIM10pbm9jMltDSDNd

> <s_epik_cmdline>
J2VwaWtfcHl0aG9uJywgJy1waCcsICc3LjAnLCAnLXRuJywgJzgnLCAnLW1hJywgJzIwMCcsICctbWV0YWxfYmluZGluZycsICctaW1hZScsICc8aW5maWxlLm1hZT4nLCAnLW9tYWUnLCAnPG91dGZpbGUubWFlPic=

> <r_lp_tautomer_probability>
1

> <r_epik_Ionization_Penalty>
2.13169e-08

> <r_epik_Ionization_Penalty_Charging>
0

> <r_epik_Ionization_Penalty_Neutral>
2.13169e-08

> <r_epik_State_Penalty>
-0

> <r_epik_Charging_Adjusted_Penalty>
0

> <i_epik_Tot_Q>
0

> <i_epik_Tot_abs_Q>
0

> <r_epik_Metal_State_Penalty>
-0

> <b_epik_Metal_Only>
0

> <s_lp_Force_Field>
OPLS_2005

> <r_lp_Energy>
15.8314

> <b_lp_Chiralities_Consistent>
1

> <s_lp_Variant>
AV-unprocessed.smi:646-2

> <Gold.Version>
5.8.1

> <Gold.Id.Protein>
6NUR|6NUR_protein|mol2

> <Gold.PLP.Fitness>
31.3062

> <Gold.PLP.PLP>
-22.7919

> <Gold.PLP.part.hbond>
-2.9944

> <Gold.PLP.part.metal>
0.0000

> <Gold.PLP.part.buried>
-4.2571

> <Gold.PLP.part.nonpolar>
-15.8520

> <Gold.PLP.part.repulsive>
0.0622

> <Gold.PLP.ligand.clash>
0.0000

> <Gold.PLP.ligand.torsion>
0.3990

> <Gold.PLP.Chemscore.Hbond>
2.9760

> <Gold.PLP.Chemscore.CHOScore>
0.0000

> <Gold.PLP.Chemscore.Metal>
0.0000

> <Gold.Chemscore.Hbonds>
donor molecule, donor type, donor heavy atom, donor atom, acceptor molecule, acceptor atom, score
      P1  H  6896  6909       L1     9  0.80
      P1  H  7989  7998       L1    14  1.00
      P1  H  7997  8008       L1    15  1.00

> <Gold.PLP.Chemscore.Internal.Correction>
0.3844

> <Gold.Rescore>
     Score         DG    S(hbond)    S(metal)    S(lipo)     H(rot)  DE(clash)    DE(int)     intcor
     17.93     -18.27       2.91        0.00      58.99       1.49       0.01       0.33       ----

> <Gold.Chemscore.Fitness>
17.9299

> <Gold.Chemscore.DG>
-18.2748

> <Gold.Chemscore.ZeroCoef>
-5.4800

> <Gold.Chemscore.Hbond>
2.9086

> <Gold.Chemscore.Metal>
0.0000

> <Gold.Chemscore.Lipo>
58.9883

> <Gold.Chemscore.Internal_Hbond>
0.0000

> <Gold.Chemscore.DEClash>
0.0106

> <Gold.Chemscore.DEInternal>
0.3344

> <Gold.Chemscore.Rot>
1.4928

> <Gold.Chemscore.Internal.Correction>
   9.000000E+99

> <Gold.Chemscore.Hbonds>
donor molecule, donor type, donor heavy atom, donor atom, acceptor molecule, acceptor atom, score
      P1  H  6896  6909       L1     9  0.79
      P1  H  7989  7998       L1    14  0.95
      P1  H  7997  8008       L1    15  0.70

> <Gold.Chemscore.Hbond.Weighted>
-9.7149

> <Gold.Chemscore.Metal.Weighted>
-0.0000

> <Gold.Chemscore.Lipo.Weighted>
-6.9016

> <Gold.Chemscore.Internal_Hbond.Weighted>
0.0000

> <Gold.Chemscore.DEClash.Weighted>
0.0106

> <Gold.Chemscore.DEInternal.Weighted>
0.3344

> <Gold.Chemscore.Rot.Weighted>
3.8217

> <Gold.Chemscore.Internal.Correction.Weighted>
   9.000000E+99

> <Gold.Protein.RotatedTorsions>
[ 6907 6896 6895 6894 ] final   76.94 input  -60.11 | X-H torsion
[ 7974 7965 7964 7962 ] final -155.03 input  175.53 | X-H torsion
[ 8008 7997 7996 7995 ] final  -47.83 input   59.86 | X-H torsion
[ 10167 10162 10161 10158 ] final  -78.14 input  -65.29 | X-H torsion
[ 10718 10713 10712 10709 ] final   42.47 input   66.30 | X-H torsion
[ 10763 10752 10751 10750 ] final  119.16 input  -60.55 | X-H torsion
[ 11005 11000 10999 10996 ] final  -68.53 input  -57.11 | X-H torsion

> <Gold.Protein.ActiveResidues>
 VAL166  LYS551  ARG553  GLY616  TRP617  ASP618  TYR619  PRO620  LYS621  CYS622 
 ASP623  PHE694  ASN695  SER759  ASP760  ASP761  ALA762  ILE779  LEU786  VAL792 
 PHE793  MET794  SER795  GLU796  ALA797  LYS798  CYS799  TRP800  GLU811  SER814 

> <Gold.Protein.RotatedAtoms>
  152.5095  134.3893  159.9378 H   0  0  0  0  0  0  0  0  0  0  0  0  # atno 6907 bound_to 6896
  151.3853  133.3801  159.2722 H   0  0  0  0  0  0  0  0  0  0  0  0  # atno 6908 bound_to 6896
  150.9474  134.8898  159.7709 H   0  0  0  0  0  0  0  0  0  0  0  0  # atno 6909 bound_to 6896
  144.7660  140.4307  143.5941 H   0  0  0  0  0  0  0  0  0  0  0  0  # atno 7974 bound_to 7965
  154.4021  140.1336  156.4239 H   0  0  0  0  0  0  0  0  0  0  0  0  # atno 8008 bound_to 7997
  155.7616  140.3486  155.5180 H   0  0  0  0  0  0  0  0  0  0  0  0  # atno 8009 bound_to 7997
  155.8854  140.0994  157.1446 H   0  0  0  0  0  0  0  0  0  0  0  0  # atno 8010 bound_to 7997
  140.4709  143.2427  151.8207 H   0  0  0  0  0  0  0  0  0  0  0  0  # atno 10167 bound_to 10162
  157.4052  130.7883  149.7383 H   0  0  0  0  0  0  0  0  0  0  0  0  # atno 10718 bound_to 10713
  153.5787  135.3488  155.2866 H   0  0  0  0  0  0  0  0  0  0  0  0  # atno 10763 bound_to 10752
  154.8671  135.4177  154.2644 H   0  0  0  0  0  0  0  0  0  0  0  0  # atno 10764 bound_to 10752
  153.3426  135.7050  153.6925 H   0  0  0  0  0  0  0  0  0  0  0  0  # atno 10765 bound_to 10752
  141.1534  133.6743  156.6460 H   0  0  0  0  0  0  0  0  0  0  0  0  # atno 11005 bound_to 11000
  145.6468  139.1558  143.2884 LP  0  0  0  0  0  0  0  0  0  0  0  0  # atno 17320 bound_to 7965
  146.1768  140.6561  142.9208 LP  0  0  0  0  0  0  0  0  0  0  0  0  # atno 17321 bound_to 7965
  139.4818  144.4893  151.9205 LP  0  0  0  0  0  0  0  0  0  0  0  0  # atno 17342 bound_to 10162
  140.3978  144.2532  150.5895 LP  0  0  0  0  0  0  0  0  0  0  0  0  # atno 17343 bound_to 10162
  155.9834  130.4000  150.3363 LP  0  0  0  0  0  0  0  0  0  0  0  0  # atno 17370 bound_to 10713
  157.1495  131.0317  151.2891 LP  0  0  0  0  0  0  0  0  0  0  0  0  # atno 17371 bound_to 10713
  140.3357  134.7891  157.4360 LP  0  0  0  0  0  0  0  0  0  0  0  0  # atno 17394 bound_to 11000
  140.0980  134.5511  155.8380 LP  0  0  0  0  0  0  0  0  0  0  0  0  # atno 17395 bound_to 11000

$$$$
