AV-unprocessed.smi:193|AV-procd|sdf|1498|dock5
  -GOLD-   2262019323D 1   1.00000     0.00000
 Structure written by MMmdl.
 62 66  0  0  0  0  0  0  0  0  2 V2000
  145.4095  136.0299  156.0161 C   0  0  0  0  0  0  0  0  0  0  0  0
  145.9019  136.7774  154.7669 C   0  0  2  0  0  0  0  0  0  0  0  0
  147.0829  137.6914  155.1574 C   0  0  0  0  0  0  0  0  0  0  0  0
  147.7922  138.2633  154.0175 N   0  0  0  0  0  0  0  0  0  0  0  0
  148.9446  138.8602  154.3886 C   0  0  0  0  0  0  0  0  0  0  0  0
  150.1027  138.2302  154.0748 N   0  0  0  0  0  0  0  0  0  0  0  0
  151.2726  138.7760  154.4225 C   0  0  0  0  0  0  0  0  0  0  0  0
  151.5006  139.9171  155.0773 N   0  0  0  0  0  0  0  0  0  0  0  0
  150.3346  140.5472  155.3996 C   0  0  0  0  0  0  0  0  0  0  0  0
  149.0211  140.0923  155.0959 C   0  0  0  0  0  0  0  0  0  0  0  0
  148.0807  140.9902  155.5858 N   0  0  0  0  0  0  0  0  0  0  0  0
  148.7989  141.9252  156.1469 C   0  0  0  0  0  0  0  0  0  0  0  0
  150.1618  141.7414  156.0770 N   0  0  0  0  0  0  0  0  0  0  0  0
  151.1894  142.6190  156.6169 C   0  0  0  0  0  0  0  0  0  0  0  0
  151.4742  142.4009  158.1235 C   0  0  0  0  0  0  0  0  0  0  0  0
  150.2267  142.3679  158.7960 O   0  0  0  0  0  0  0  0  0  0  0  0
  152.1827  141.0499  158.3472 C   0  0  0  0  0  0  0  0  0  0  0  0
  152.6358  140.8663  159.8067 C   0  0  0  0  0  0  0  0  0  0  0  0
  153.4607  141.9556  160.2016 O   0  0  0  0  0  0  0  0  0  0  0  0
  152.7765  143.2024  160.1733 C   0  0  0  0  0  0  0  0  0  0  0  0
  152.3308  143.5300  158.7371 C   0  0  0  0  0  0  0  0  0  0  0  0
  147.0342  139.0148  153.0218 C   0  0  0  0  0  0  0  0  0  0  0  0
  146.1982  138.0776  152.1375 C   0  0  0  0  0  0  0  0  0  0  0  0
  144.8408  137.7887  152.6685 N   0  3  1  0  0  0  0  0  0  0  0  0
  144.1817  136.7006  151.9102 C   0  0  2  0  0  0  0  0  0  0  0  0
  142.9942  136.0954  152.6228 C   0  0  0  0  0  0  0  0  0  0  0  0
  144.3040  135.3395  152.5599 C   0  0  1  0  0  0  0  0  0  0  0  0
  144.4211  134.0889  151.7166 C   0  0  0  0  0  0  0  0  0  0  0  0
  144.7408  137.5851  154.1401 C   0  0  0  0  0  0  0  0  0  0  0  0
  145.0399  136.7219  156.7735 H   0  0  0  0  0  0  0  0  0  0  0  0
  146.2109  135.4424  156.4653 H   0  0  0  0  0  0  0  0  0  0  0  0
  144.6008  135.3406  155.7708 H   0  0  0  0  0  0  0  0  0  0  0  0
  146.2461  136.0165  154.0652 H   0  0  0  0  0  0  0  0  0  0  0  0
  146.7352  138.4954  155.8081 H   0  0  0  0  0  0  0  0  0  0  0  0
  147.7977  137.1112  155.7441 H   0  0  0  0  0  0  0  0  0  0  0  0
  152.1522  138.2187  154.1352 H   0  0  0  0  0  0  0  0  0  0  0  0
  148.3525  142.7833  156.6283 H   0  0  0  0  0  0  0  0  0  0  0  0
  152.0999  142.4783  156.0328 H   0  0  0  0  0  0  0  0  0  0  0  0
  150.8767  143.6496  156.4434 H   0  0  0  0  0  0  0  0  0  0  0  0
  149.6474  142.9905  158.3837 H   0  0  0  0  0  0  0  0  0  0  0  0
  151.5361  140.2234  158.0492 H   0  0  0  0  0  0  0  0  0  0  0  0
  153.0630  140.9938  157.7052 H   0  0  0  0  0  0  0  0  0  0  0  0
  151.7800  140.7802  160.4780 H   0  0  0  0  0  0  0  0  0  0  0  0
  153.2066  139.9428  159.9052 H   0  0  0  0  0  0  0  0  0  0  0  0
  151.9240  143.1779  160.8536 H   0  0  0  0  0  0  0  0  0  0  0  0
  153.4483  143.9787  160.5399 H   0  0  0  0  0  0  0  0  0  0  0  0
  153.2204  143.6787  158.1238 H   0  0  0  0  0  0  0  0  0  0  0  0
  151.7917  144.4782  158.7289 H   0  0  0  0  0  0  0  0  0  0  0  0
  146.4121  139.7767  153.4932 H   0  0  0  0  0  0  0  0  0  0  0  0
  147.7388  139.5473  152.3804 H   0  0  0  0  0  0  0  0  0  0  0  0
  146.0657  138.5463  151.1620 H   0  0  0  0  0  0  0  0  0  0  0  0
  146.7446  137.1510  151.9516 H   0  0  0  0  0  0  0  0  0  0  0  0
  144.1796  136.8013  150.8260 H   0  0  0  0  0  0  0  0  0  0  0  0
  142.7021  136.5066  153.5873 H   0  0  0  0  0  0  0  0  0  0  0  0
  142.1733  135.7337  152.0068 H   0  0  0  0  0  0  0  0  0  0  0  0
  144.8680  135.2897  153.4898 H   0  0  0  0  0  0  0  0  0  0  0  0
  143.8451  134.1864  150.7958 H   0  0  0  0  0  0  0  0  0  0  0  0
  144.0471  133.2277  152.2707 H   0  0  0  0  0  0  0  0  0  0  0  0
  145.4643  133.9094  151.4567 H   0  0  0  0  0  0  0  0  0  0  0  0
  143.7858  137.1023  154.3530 H   0  0  0  0  0  0  0  0  0  0  0  0
  144.6711  138.5611  154.6214 H   0  0  0  0  0  0  0  0  0  0  0  0
  144.2911  138.6158  152.4846 H   0  0  0  0  0  0  0  0  0  0  0  0
  1  2  1  0  0  0  0
  1 30  1  0  0  0  0
  1 31  1  0  0  0  0
  1 32  1  0  0  0  0
  2 29  1  0  0  0  0
  2  3  1  0  0  0  0
  2 33  1  0  0  0  0
  3  4  1  0  0  0  0
  3 34  1  0  0  0  0
  3 35  1  0  0  0  0
  4  5  1  0  0  0  0
  4 22  1  0  0  0  0
  5 10  1  0  0  0  0
  5  6  2  0  0  0  0
  6  7  1  0  0  0  0
  7  8  2  0  0  0  0
  7 36  1  0  0  0  0
  8  9  1  0  0  0  0
  9 13  1  0  0  0  0
  9 10  2  0  0  0  0
 10 11  1  0  0  0  0
 11 12  2  0  0  0  0
 12 13  1  0  0  0  0
 12 37  1  0  0  0  0
 13 14  1  0  0  0  0
 14 15  1  0  0  0  0
 14 38  1  0  0  0  0
 14 39  1  0  0  0  0
 15 21  1  0  0  0  0
 15 16  1  0  0  0  0
 15 17  1  0  0  0  0
 16 40  1  0  0  0  0
 17 18  1  0  0  0  0
 17 41  1  0  0  0  0
 17 42  1  0  0  0  0
 18 19  1  0  0  0  0
 18 43  1  0  0  0  0
 18 44  1  0  0  0  0
 19 20  1  0  0  0  0
 20 21  1  0  0  0  0
 20 45  1  0  0  0  0
 20 46  1  0  0  0  0
 21 47  1  0  0  0  0
 21 48  1  0  0  0  0
 22 23  1  0  0  0  0
 22 49  1  0  0  0  0
 22 50  1  0  0  0  0
 23 24  1  0  0  0  0
 23 51  1  0  0  0  0
 23 52  1  0  0  0  0
 24 25  1  0  0  0  0
 24 29  1  0  0  0  0
 24 62  1  0  0  0  0
 25 27  1  0  0  0  0
 25 26  1  0  0  0  0
 25 53  1  0  0  0  0
 26 27  1  0  0  0  0
 26 54  1  0  0  0  0
 26 55  1  0  0  0  0
 27 28  1  0  0  0  0
 27 56  1  0  0  0  0
 28 57  1  0  0  0  0
 28 58  1  0  0  0  0
 28 59  1  0  0  0  0
 29 60  1  0  0  0  0
 29 61  1  0  0  0  0
M  CHG  1  24   1
M  END
> <s_m_source_file>
AV-unprocessed.smi

> <i_m_source_file_index>
193

> <i_lp_mmshare_version>
43012

> <i_f3d_flags>
0

> <s_epik_input>
W0NIM11bQ0BASF0xW0NIMl1bQ0BIXTFOKFtDSDJdMilbQ0gyXVtDSDJdTihbQ0gyXVtDQEhdMltDSDNdKWMobltjSF1uMyljKGMzNCluW2NIXW40W0NIMl1DNShbT0hdKVtDSDJdW0NIMl1PW0NIMl1bQ0gyXTU=

> <s_epik_cmdline>
J2VwaWtfcHl0aG9uJywgJy1waCcsICc3LjAnLCAnLXRuJywgJzgnLCAnLW1hJywgJzIwMCcsICctbWV0YWxfYmluZGluZycsICctaW1hZScsICc8aW5maWxlLm1hZT4nLCAnLW9tYWUnLCAnPG91dGZpbGUubWFlPic=

> <r_lp_tautomer_probability>
1

> <r_epik_Ionization_Penalty>
0.0540825

> <r_epik_Ionization_Penalty_Charging>
0.0538476

> <r_epik_Ionization_Penalty_Neutral>
0.000234891

> <r_epik_State_Penalty>
0.0200719

> <r_epik_Charging_Adjusted_Penalty>
0.0739194

> <i_epik_Tot_Q>
1

> <i_epik_Tot_abs_Q>
1

> <r_epik_Metal_State_Penalty>
0.0199414

> <b_epik_Metal_Only>
0

> <s_lp_Force_Field>
OPLS_2005

> <r_lp_Energy>
56.0511

> <b_lp_Chiralities_Consistent>
1

> <s_lp_Variant>
AV-unprocessed.smi:193-3

> <Gold.Version>
5.8.1

> <Gold.Id.Protein>
6NUR|6NUR_protein|mol2

> <Gold.PLP.Fitness>
51.0091

> <Gold.PLP.PLP>
-42.5881

> <Gold.PLP.part.hbond>
-2.9756

> <Gold.PLP.part.metal>
0.0000

> <Gold.PLP.part.buried>
-3.7179

> <Gold.PLP.part.nonpolar>
-36.8266

> <Gold.PLP.part.repulsive>
0.5769

> <Gold.PLP.ligand.clash>
0.0000

> <Gold.PLP.ligand.torsion>
1.2334

> <Gold.PLP.Chemscore.Hbond>
2.3850

> <Gold.PLP.Chemscore.CHOScore>
0.7127

> <Gold.PLP.Chemscore.Metal>
0.0000

> <Gold.Chemscore.Hbonds>
donor molecule, donor type, donor heavy atom, donor atom, acceptor molecule, acceptor atom, score
      L1  H    24    62       P1 10175  2.00
      P1  H  7989  7998       L1     8  0.36
      L1  C    12    37       P1  8028  0.68

> <Gold.PLP.Chemscore.Internal.Correction>
1.5947

> <Gold.Rescore>
     Score         DG    S(hbond)    S(metal)    S(lipo)     H(rot)  DE(clash)    DE(int)     intcor
     11.57     -13.94       0.94        0.00      93.52       2.20       0.42       1.96       ----

> <Gold.Chemscore.Fitness>
11.5660

> <Gold.Chemscore.DG>
-13.9399

> <Gold.Chemscore.ZeroCoef>
-5.4800

> <Gold.Chemscore.Hbond>
0.9445

> <Gold.Chemscore.Metal>
0.0000

> <Gold.Chemscore.Lipo>
93.5211

> <Gold.Chemscore.Internal_Hbond>
0.0000

> <Gold.Chemscore.DEClash>
0.4173

> <Gold.Chemscore.DEInternal>
1.9566

> <Gold.Chemscore.Rot>
2.2018

> <Gold.Chemscore.Internal.Correction>
   9.000000E+99

> <Gold.Chemscore.Hbonds>
donor molecule, donor type, donor heavy atom, donor atom, acceptor molecule, acceptor atom, score
      L1  H    24    62       P1 10175  0.99

> <Gold.Chemscore.Hbond.Weighted>
-3.1545

> <Gold.Chemscore.Metal.Weighted>
-0.0000

> <Gold.Chemscore.Lipo.Weighted>
-10.9420

> <Gold.Chemscore.Internal_Hbond.Weighted>
0.0000

> <Gold.Chemscore.DEClash.Weighted>
0.4173

> <Gold.Chemscore.DEInternal.Weighted>
1.9566

> <Gold.Chemscore.Rot.Weighted>
5.6366

> <Gold.Chemscore.Internal.Correction.Weighted>
   9.000000E+99

> <Gold.Protein.RotatedTorsions>
[ 6907 6896 6895 6894 ] final  -47.66 input  -60.11 | X-H torsion
[ 7974 7965 7964 7962 ] final  112.63 input  175.53 | X-H torsion
[ 8008 7997 7996 7995 ] final  -46.32 input   59.86 | X-H torsion
[ 10167 10162 10161 10158 ] final  170.45 input  -65.29 | X-H torsion
[ 10718 10713 10712 10709 ] final -174.96 input   66.30 | X-H torsion
[ 10763 10752 10751 10750 ] final -140.35 input  -60.55 | X-H torsion
[ 11005 11000 10999 10996 ] final   55.66 input  -57.11 | X-H torsion

> <Gold.Protein.ActiveResidues>
 VAL166  LYS551  ARG553  GLY616  TRP617  ASP618  TYR619  PRO620  LYS621  CYS622 
 ASP623  PHE694  ASN695  SER759  ASP760  ASP761  ALA762  ILE779  LEU786  VAL792 
 PHE793  MET794  SER795  GLU796  ALA797  LYS798  CYS799  TRP800  GLU811  SER814 

> <Gold.Protein.RotatedAtoms>
  150.8985  134.8396  159.7343 H   0  0  0  0  0  0  0  0  0  0  0  0  # atno 6907 bound_to 6896
  152.4879  134.4538  159.9593 H   0  0  0  0  0  0  0  0  0  0  0  0  # atno 6908 bound_to 6896
  151.4593  133.3558  159.2842 H   0  0  0  0  0  0  0  0  0  0  0  0  # atno 6909 bound_to 6896
  145.2272  139.2835  143.4187 H   0  0  0  0  0  0  0  0  0  0  0  0  # atno 7974 bound_to 7965
  154.4006  140.1374  156.3992 H   0  0  0  0  0  0  0  0  0  0  0  0  # atno 8008 bound_to 7997
  155.7840  140.3480  155.5292 H   0  0  0  0  0  0  0  0  0  0  0  0  # atno 8009 bound_to 7997
  155.8645  140.0962  157.1582 H   0  0  0  0  0  0  0  0  0  0  0  0  # atno 8010 bound_to 7997
  139.5019  144.3595  151.9839 H   0  0  0  0  0  0  0  0  0  0  0  0  # atno 10167 bound_to 10162
  156.7928  130.9524  151.3120 H   0  0  0  0  0  0  0  0  0  0  0  0  # atno 10718 bound_to 10713
  154.8581  135.3555  154.5694 H   0  0  0  0  0  0  0  0  0  0  0  0  # atno 10763 bound_to 10752
  153.6307  135.7002  153.5281 H   0  0  0  0  0  0  0  0  0  0  0  0  # atno 10764 bound_to 10752
  153.3052  135.4195  155.1247 H   0  0  0  0  0  0  0  0  0  0  0  0  # atno 10765 bound_to 10752
  140.0590  134.5630  155.9174 H   0  0  0  0  0  0  0  0  0  0  0  0  # atno 11005 bound_to 11000
  146.3362  140.2596  142.8601 LP  0  0  0  0  0  0  0  0  0  0  0  0  # atno 17320 bound_to 7965
  144.9710  140.8369  143.5455 LP  0  0  0  0  0  0  0  0  0  0  0  0  # atno 17321 bound_to 7965
  140.3032  144.3623  150.6054 LP  0  0  0  0  0  0  0  0  0  0  0  0  # atno 17342 bound_to 10162
  140.5857  143.2170  151.7346 LP  0  0  0  0  0  0  0  0  0  0  0  0  # atno 17343 bound_to 10162
  157.6592  130.8951  149.9793 LP  0  0  0  0  0  0  0  0  0  0  0  0  # atno 17370 bound_to 10713
  156.1148  130.3648  149.9986 LP  0  0  0  0  0  0  0  0  0  0  0  0  # atno 17371 bound_to 10713
  141.1964  133.6591  156.5693 LP  0  0  0  0  0  0  0  0  0  0  0  0  # atno 17394 bound_to 11000
  140.3800  134.7531  157.4655 LP  0  0  0  0  0  0  0  0  0  0  0  0  # atno 17395 bound_to 11000

$$$$
