AV-unprocessed.smi:956|AV-procd|sdf|4263|dock3
  -GOLD-   22720 2173D 1   1.00000     0.00000
 Structure written by MMmdl.
 42 43  0  0  0  0  0  0  0  0  1 V2000
  153.3432  137.8177  160.0187 C   0  0  0  0  0  0  0  0  0  0  0  0
  153.1136  137.3674  158.2335 S   0  0  2  0  0  0  0  0  0  0  0  0
  153.4092  138.6228  157.4108 O   0  0  0  0  0  0  0  0  0  0  0  0
  151.2887  137.2934  158.3083 C   0  0  0  0  0  0  0  0  0  0  0  0
  150.5988  137.0517  159.4272 N   0  0  0  0  0  0  0  0  0  0  0  0
  149.2725  137.0714  159.0399 N   0  0  0  0  0  0  0  0  0  0  0  0
  149.3056  137.3293  157.7312 C   0  0  0  0  0  0  0  0  0  0  0  0
  150.5339  137.4770  157.2085 N   0  0  0  0  0  0  0  0  0  0  0  0
  150.9064  137.7323  155.8262 C   0  0  0  0  0  0  0  0  0  0  0  0
  150.9888  139.2368  155.5771 C   0  0  0  0  0  0  0  0  0  0  0  0
  151.3404  139.6566  154.4754 O   0  0  0  0  0  0  0  0  0  0  0  0
  150.7155  140.0282  156.6263 N   0  0  0  0  0  0  0  0  0  0  0  0
  150.9985  141.4577  156.7016 C   0  0  0  0  0  0  0  0  0  0  0  0
  152.0263  141.7643  157.8098 C   0  0  0  0  0  0  0  0  0  0  0  0
  151.6409  142.9077  158.7774 C   0  0  0  0  0  0  0  0  0  0  0  0
  151.5749  144.2617  158.0434 C   0  0  0  0  0  0  0  0  0  0  0  0
  151.1314  145.3898  158.9884 C   0  0  0  0  0  0  0  0  0  0  0  0
  152.0611  145.4888  160.2073 C   0  0  0  0  0  0  0  0  0  0  0  0
  152.1596  144.1427  160.9412 C   0  0  0  0  0  0  0  0  0  0  0  0
  152.5907  143.0152  159.9889 C   0  0  0  0  0  0  0  0  0  0  0  0
  152.4610  137.5733  160.6076 H   0  0  0  0  0  0  0  0  0  0  0  0
  153.5355  138.8861  160.1155 H   0  0  0  0  0  0  0  0  0  0  0  0
  154.1914  137.2746  160.4342 H   0  0  0  0  0  0  0  0  0  0  0  0
  148.4082  137.3994  157.1341 H   0  0  0  0  0  0  0  0  0  0  0  0
  151.8735  137.2666  155.6322 H   0  0  0  0  0  0  0  0  0  0  0  0
  150.1863  137.2713  155.1502 H   0  0  0  0  0  0  0  0  0  0  0  0
  150.4088  139.5858  157.4803 H   0  0  0  0  0  0  0  0  0  0  0  0
  151.3457  141.8518  155.7457 H   0  0  0  0  0  0  0  0  0  0  0  0
  150.0649  141.9774  156.9175 H   0  0  0  0  0  0  0  0  0  0  0  0
  152.2193  140.8545  158.3793 H   0  0  0  0  0  0  0  0  0  0  0  0
  152.9726  142.0174  157.3299 H   0  0  0  0  0  0  0  0  0  0  0  0
  150.6388  142.7123  159.1580 H   0  0  0  0  0  0  0  0  0  0  0  0
  152.5518  144.5014  157.6210 H   0  0  0  0  0  0  0  0  0  0  0  0
  150.8826  144.2020  157.2032 H   0  0  0  0  0  0  0  0  0  0  0  0
  151.1177  146.3398  158.4533 H   0  0  0  0  0  0  0  0  0  0  0  0
  150.1085  145.2071  159.3211 H   0  0  0  0  0  0  0  0  0  0  0  0
  153.0548  145.8008  159.8832 H   0  0  0  0  0  0  0  0  0  0  0  0
  151.7008  146.2595  160.8890 H   0  0  0  0  0  0  0  0  0  0  0  0
  152.8663  144.2212  161.7678 H   0  0  0  0  0  0  0  0  0  0  0  0
  151.1934  143.8964  161.3836 H   0  0  0  0  0  0  0  0  0  0  0  0
  152.6142  142.0770  160.5419 H   0  0  0  0  0  0  0  0  0  0  0  0
  153.6099  143.1954  159.6447 H   0  0  0  0  0  0  0  0  0  0  0  0
  1  2  1  0  0  0  0
  1 21  1  0  0  0  0
  1 22  1  0  0  0  0
  1 23  1  0  0  0  0
  2  3  2  0  0  0  0
  2  4  1  0  0  0  0
  4  8  1  0  0  0  0
  4  5  2  0  0  0  0
  5  6  1  0  0  0  0
  6  7  2  0  0  0  0
  7  8  1  0  0  0  0
  7 24  1  0  0  0  0
  8  9  1  0  0  0  0
  9 10  1  0  0  0  0
  9 25  1  0  0  0  0
  9 26  1  0  0  0  0
 10 11  2  0  0  0  0
 10 12  1  0  0  0  0
 12 13  1  0  0  0  0
 12 27  1  0  0  0  0
 13 14  1  0  0  0  0
 13 28  1  0  0  0  0
 13 29  1  0  0  0  0
 14 15  1  0  0  0  0
 14 30  1  0  0  0  0
 14 31  1  0  0  0  0
 15 20  1  0  0  0  0
 15 16  1  0  0  0  0
 15 32  1  0  0  0  0
 16 17  1  0  0  0  0
 16 33  1  0  0  0  0
 16 34  1  0  0  0  0
 17 18  1  0  0  0  0
 17 35  1  0  0  0  0
 17 36  1  0  0  0  0
 18 19  1  0  0  0  0
 18 37  1  0  0  0  0
 18 38  1  0  0  0  0
 19 20  1  0  0  0  0
 19 39  1  0  0  0  0
 19 40  1  0  0  0  0
 20 41  1  0  0  0  0
 20 42  1  0  0  0  0
M  END
> <s_m_source_file>
AV-unprocessed.smi

> <i_m_source_file_index>
956

> <i_lp_mmshare_version>
43012

> <i_f3d_flags>
0

> <s_epik_input>
W0NIM11bU0BdKD1PKWMxbm5bY0hdbjFbQ0gyXUMoPU8pW05IXVtDSDJdW0NIMl1bQ0hdMltDSDJdW0NIMl1bQ0gyXVtDSDJdW0NIMl0y

> <s_epik_cmdline>
J2VwaWtfcHl0aG9uJywgJy1waCcsICc3LjAnLCAnLXRuJywgJzgnLCAnLW1hJywgJzIwMCcsICctbWV0YWxfYmluZGluZycsICctaW1hZScsICc8aW5maWxlLm1hZT4nLCAnLW9tYWUnLCAnPG91dGZpbGUubWFlPic=

> <r_lp_tautomer_probability>
1

> <r_epik_Ionization_Penalty>
7.32521e-08

> <r_epik_Ionization_Penalty_Charging>
0

> <r_epik_Ionization_Penalty_Neutral>
7.32521e-08

> <r_epik_State_Penalty>
-0

> <r_epik_Charging_Adjusted_Penalty>
0

> <i_epik_Tot_Q>
0

> <i_epik_Tot_abs_Q>
0

> <r_epik_Metal_State_Penalty>
-0

> <b_epik_Metal_Only>
0

> <s_lp_Force_Field>
OPLS_2005

> <r_lp_Energy>
8.17766

> <b_lp_Chiralities_Consistent>
1

> <s_lp_Variant>
AV-unprocessed.smi:956-1

> <Gold.Version>
5.8.1

> <Gold.Id.Protein>
6NUR|6NUR_protein|mol2

> <Gold.PLP.Fitness>
44.3758

> <Gold.PLP.PLP>
-36.7660

> <Gold.PLP.part.hbond>
-3.0000

> <Gold.PLP.part.metal>
0.0000

> <Gold.PLP.part.buried>
-6.4954

> <Gold.PLP.part.nonpolar>
-27.4540

> <Gold.PLP.part.repulsive>
0.1408

> <Gold.PLP.ligand.clash>
0.0000

> <Gold.PLP.ligand.torsion>
1.2786

> <Gold.PLP.Chemscore.Hbond>
3.0000

> <Gold.PLP.Chemscore.CHOScore>
0.0000

> <Gold.PLP.Chemscore.Metal>
0.0000

> <Gold.Chemscore.Hbonds>
donor molecule, donor type, donor heavy atom, donor atom, acceptor molecule, acceptor atom, score
      P1  H  6896  6907       L1     5  0.86
      P1  H  7989  7998       L1    11  1.00
      P1  H  7997  8010       L1     3  1.00

> <Gold.PLP.Chemscore.Internal.Correction>
1.1670

> <Gold.Rescore>
     Score         DG    S(hbond)    S(metal)    S(lipo)     H(rot)  DE(clash)    DE(int)     intcor
     18.45     -19.68       2.76        0.00      91.97       2.26       0.01       1.22       ----

> <Gold.Chemscore.Fitness>
18.4546

> <Gold.Chemscore.DG>
-19.6802

> <Gold.Chemscore.ZeroCoef>
-5.4800

> <Gold.Chemscore.Hbond>
2.7586

> <Gold.Chemscore.Metal>
0.0000

> <Gold.Chemscore.Lipo>
91.9691

> <Gold.Chemscore.Internal_Hbond>
0.0000

> <Gold.Chemscore.DEClash>
0.0067

> <Gold.Chemscore.DEInternal>
1.2189

> <Gold.Chemscore.Rot>
2.2554

> <Gold.Chemscore.Internal.Correction>
   9.000000E+99

> <Gold.Chemscore.Hbonds>
donor molecule, donor type, donor heavy atom, donor atom, acceptor molecule, acceptor atom, score
      P1  H  6896  6907       L1     5  0.21
      P1  H  7989  7998       L1    11  0.97
      P1  H  7997  8010       L1     3  0.98

> <Gold.Chemscore.Hbond.Weighted>
-9.2137

> <Gold.Chemscore.Metal.Weighted>
-0.0000

> <Gold.Chemscore.Lipo.Weighted>
-10.7604

> <Gold.Chemscore.Internal_Hbond.Weighted>
0.0000

> <Gold.Chemscore.DEClash.Weighted>
0.0067

> <Gold.Chemscore.DEInternal.Weighted>
1.2189

> <Gold.Chemscore.Rot.Weighted>
5.7738

> <Gold.Chemscore.Internal.Correction.Weighted>
   9.000000E+99

> <Gold.Protein.RotatedTorsions>
[ 6907 6896 6895 6894 ] final  -16.97 input  -60.11 | X-H torsion
[ 7974 7965 7964 7962 ] final   -8.40 input  175.53 | X-H torsion
[ 8008 7997 7996 7995 ] final   37.65 input   59.86 | X-H torsion
[ 10167 10162 10161 10158 ] final   15.43 input  -65.29 | X-H torsion
[ 10718 10713 10712 10709 ] final  -80.30 input   66.30 | X-H torsion
[ 10763 10752 10751 10750 ] final  -26.91 input  -60.55 | X-H torsion
[ 11005 11000 10999 10996 ] final  119.16 input  -57.11 | X-H torsion

> <Gold.Protein.ActiveResidues>
 VAL166  LYS551  ARG553  GLY616  TRP617  ASP618  TYR619  PRO620  LYS621  CYS622 
 ASP623  PHE694  ASN695  SER759  ASP760  ASP761  ALA762  ILE779  LEU786  VAL792 
 PHE793  MET794  SER795  GLU796  ALA797  LYS798  CYS799  TRP800  GLU811  SER814 

> <Gold.Protein.RotatedAtoms>
  151.3005  135.0767  159.9236 H   0  0  0  0  0  0  0  0  0  0  0  0  # atno 6907 bound_to 6896
  152.5298  133.9839  159.7829 H   0  0  0  0  0  0  0  0  0  0  0  0  # atno 6908 bound_to 6896
  151.0124  133.5901  159.2711 H   0  0  0  0  0  0  0  0  0  0  0  0  # atno 6909 bound_to 6896
  146.2281  140.2462  142.8345 H   0  0  0  0  0  0  0  0  0  0  0  0  # atno 7974 bound_to 7965
  155.2073  140.3320  155.4334 H   0  0  0  0  0  0  0  0  0  0  0  0  # atno 8008 bound_to 7997
  156.2384  140.1883  156.7106 H   0  0  0  0  0  0  0  0  0  0  0  0  # atno 8009 bound_to 7997
  154.6101  140.0610  156.9468 H   0  0  0  0  0  0  0  0  0  0  0  0  # atno 8010 bound_to 7997
  140.5867  143.8875  150.6837 H   0  0  0  0  0  0  0  0  0  0  0  0  # atno 10167 bound_to 10162
  156.0073  130.4570  150.3779 H   0  0  0  0  0  0  0  0  0  0  0  0  # atno 10718 bound_to 10713
  153.7236  135.6943  153.5006 H   0  0  0  0  0  0  0  0  0  0  0  0  # atno 10763 bound_to 10752
  153.2186  135.4377  155.0462 H   0  0  0  0  0  0  0  0  0  0  0  0  # atno 10764 bound_to 10752
  154.8276  135.3455  154.6768 H   0  0  0  0  0  0  0  0  0  0  0  0  # atno 10765 bound_to 10752
  139.9136  134.9626  156.7613 H   0  0  0  0  0  0  0  0  0  0  0  0  # atno 11005 bound_to 11000
  144.9446  140.8115  143.5609 LP  0  0  0  0  0  0  0  0  0  0  0  0  # atno 17320 bound_to 7965
  145.2417  139.2069  143.4989 LP  0  0  0  0  0  0  0  0  0  0  0  0  # atno 17321 bound_to 7965
  140.2388  143.3680  152.1504 LP  0  0  0  0  0  0  0  0  0  0  0  0  # atno 17342 bound_to 10162
  139.5202  144.7030  151.5438 LP  0  0  0  0  0  0  0  0  0  0  0  0  # atno 17343 bound_to 10162
  157.1861  131.0404  151.2724 LP  0  0  0  0  0  0  0  0  0  0  0  0  # atno 17370 bound_to 10713
  157.4103  130.7381  149.6834 LP  0  0  0  0  0  0  0  0  0  0  0  0  # atno 17371 bound_to 10713
  140.6695  133.9572  155.7848 LP  0  0  0  0  0  0  0  0  0  0  0  0  # atno 17394 bound_to 11000
  141.0587  134.0378  157.3687 LP  0  0  0  0  0  0  0  0  0  0  0  0  # atno 17395 bound_to 11000

$$$$
