AV-unprocessed.smi:45|AV-procd|sdf|408|dock10
  -GOLD-   2262016263D 1   1.00000     0.00000
 Structure written by MMmdl.
 60 63  0  0  0  0  0  0  0  0  1 V2000
  152.2615  143.5648  158.9704 C   0  0  0  0  0  0  0  0  0  0  0  0
  152.6419  142.2416  159.3185 O   0  0  0  0  0  0  0  0  0  0  0  0
  152.0998  141.1960  158.6001 C   0  0  0  0  0  0  0  0  0  0  0  0
  151.1546  141.3622  157.5559 C   0  0  0  0  0  0  0  0  0  0  0  0
  150.6445  140.2449  156.8672 C   0  0  0  0  0  0  0  0  0  0  0  0
  151.0698  138.9448  157.2066 C   0  0  0  0  0  0  0  0  0  0  0  0
  150.5165  137.7388  156.4720 C   0  0  0  0  0  0  0  0  0  0  0  0
  150.7514  136.4794  157.1645 N   0  0  0  0  0  0  0  0  0  0  0  0
  149.6807  135.6869  157.6117 C   0  0  0  0  0  0  0  0  0  0  0  0
  149.3242  135.7897  158.9140 N   0  0  0  0  0  0  0  0  0  0  0  0
  148.3135  135.0383  159.3618 C   0  0  0  0  0  0  0  0  0  0  0  0
  147.9679  135.1538  160.7085 N   0  0  0  0  0  0  0  0  0  0  0  0
  147.9535  136.4477  161.3834 C   0  0  0  0  0  0  0  0  0  0  0  0
  146.8526  136.3608  162.4386 C   0  0  0  0  0  0  0  0  0  0  0  0
  146.8280  134.8779  162.7830 C   0  0  0  0  0  0  0  0  0  0  0  0
  147.1382  134.1959  161.4429 C   0  0  2  0  0  0  0  0  0  0  0  0
  147.8092  132.8174  161.6213 C   0  0  0  0  0  0  0  0  0  0  0  0
  147.9617  132.1868  160.3678 O   0  0  0  0  0  0  0  0  0  0  0  0
  147.6109  134.1716  158.6259 N   0  0  0  0  0  0  0  0  0  0  0  0
  147.9471  134.0485  157.3254 C   0  0  0  0  0  0  0  0  0  0  0  0
  149.0017  134.7890  156.7433 C   0  0  0  0  0  0  0  0  0  0  0  0
  149.3279  134.6395  155.2813 C   0  0  0  0  0  0  0  0  0  0  0  0
  150.1108  135.4044  154.7171 O   0  0  0  0  0  0  0  0  0  0  0  0
  148.7301  133.6063  154.6666 N   0  0  0  0  0  0  0  0  0  0  0  0
  148.8770  133.2764  153.2540 C   0  0  0  0  0  0  0  0  0  0  0  0
  147.5538  132.9221  152.5986 C   0  0  0  0  0  0  0  0  0  0  0  0
  147.2658  133.5497  151.4531 N   0  0  0  0  0  0  0  0  0  0  0  0
  146.0939  133.2322  150.8612 C   0  0  0  0  0  0  0  0  0  0  0  0
  145.2131  132.2847  151.4205 C   0  0  0  0  0  0  0  0  0  0  0  0
  145.6240  131.6894  152.6302 C   0  0  0  0  0  0  0  0  0  0  0  0
  146.7965  132.0111  153.2183 N   0  0  0  0  0  0  0  0  0  0  0  0
  152.0065  138.7722  158.2443 C   0  0  0  0  0  0  0  0  0  0  0  0
  152.5181  139.8886  158.9343 C   0  0  0  0  0  0  0  0  0  0  0  0
  153.6668  139.6405  160.2007 Cl  0  0  0  0  0  0  0  0  0  0  0  0
  146.2077  134.0780  160.8851 H   0  0  0  0  0  0  0  0  0  0  0  0
  152.7677  144.2694  159.6298 H   0  0  0  0  0  0  0  0  0  0  0  0
  151.1879  143.7156  159.0899 H   0  0  0  0  0  0  0  0  0  0  0  0
  152.5499  143.8062  157.9465 H   0  0  0  0  0  0  0  0  0  0  0  0
  150.8017  142.3394  157.2639 H   0  0  0  0  0  0  0  0  0  0  0  0
  149.9228  140.3898  156.0763 H   0  0  0  0  0  0  0  0  0  0  0  0
  149.4441  137.8672  156.3197 H   0  0  0  0  0  0  0  0  0  0  0  0
  150.9774  137.6974  155.4843 H   0  0  0  0  0  0  0  0  0  0  0  0
  151.6933  136.1168  157.2108 H   0  0  0  0  0  0  0  0  0  0  0  0
  148.9254  136.6079  161.8516 H   0  0  0  0  0  0  0  0  0  0  0  0
  147.7677  137.2735  160.6955 H   0  0  0  0  0  0  0  0  0  0  0  0
  147.0393  136.9999  163.3021 H   0  0  0  0  0  0  0  0  0  0  0  0
  145.8966  136.6521  162.0011 H   0  0  0  0  0  0  0  0  0  0  0  0
  147.6116  134.6649  163.5120 H   0  0  0  0  0  0  0  0  0  0  0  0
  145.8773  134.5570  163.2095 H   0  0  0  0  0  0  0  0  0  0  0  0
  148.7980  132.9028  162.0695 H   0  0  0  0  0  0  0  0  0  0  0  0
  147.2173  132.1781  162.2770 H   0  0  0  0  0  0  0  0  0  0  0  0
  148.0051  131.2528  160.5050 H   0  0  0  0  0  0  0  0  0  0  0  0
  147.3587  133.3516  156.7463 H   0  0  0  0  0  0  0  0  0  0  0  0
  148.1102  133.0205  155.2066 H   0  0  0  0  0  0  0  0  0  0  0  0
  149.3591  134.0997  152.7231 H   0  0  0  0  0  0  0  0  0  0  0  0
  149.5515  132.4237  153.1698 H   0  0  0  0  0  0  0  0  0  0  0  0
  145.8579  133.7365  149.9360 H   0  0  0  0  0  0  0  0  0  0  0  0
  144.2757  132.0295  150.9486 H   0  0  0  0  0  0  0  0  0  0  0  0
  145.0105  130.9525  153.1271 H   0  0  0  0  0  0  0  0  0  0  0  0
  152.3372  137.7801  158.5150 H   0  0  0  0  0  0  0  0  0  0  0  0
  1  2  1  0  0  0  0
  1 36  1  0  0  0  0
  1 37  1  0  0  0  0
  1 38  1  0  0  0  0
  2  3  1  0  0  0  0
  3 33  1  0  0  0  0
  3  4  2  0  0  0  0
  4  5  1  0  0  0  0
  4 39  1  0  0  0  0
  5  6  2  0  0  0  0
  5 40  1  0  0  0  0
  6  7  1  0  0  0  0
  6 32  1  0  0  0  0
  7  8  1  0  0  0  0
  7 41  1  0  0  0  0
  7 42  1  0  0  0  0
  8  9  1  0  0  0  0
  8 43  1  0  0  0  0
  9 21  1  0  0  0  0
  9 10  2  0  0  0  0
 10 11  1  0  0  0  0
 11 12  1  0  0  0  0
 11 19  2  0  0  0  0
 12 16  1  0  0  0  0
 12 13  1  0  0  0  0
 13 14  1  0  0  0  0
 13 44  1  0  0  0  0
 13 45  1  0  0  0  0
 14 15  1  0  0  0  0
 14 46  1  0  0  0  0
 14 47  1  0  0  0  0
 15 16  1  0  0  0  0
 15 48  1  0  0  0  0
 15 49  1  0  0  0  0
 16 35  1  0  0  0  0
 16 17  1  0  0  0  0
 17 18  1  0  0  0  0
 17 50  1  0  0  0  0
 17 51  1  0  0  0  0
 18 52  1  0  0  0  0
 19 20  1  0  0  0  0
 20 21  2  0  0  0  0
 20 53  1  0  0  0  0
 21 22  1  0  0  0  0
 22 23  2  0  0  0  0
 22 24  1  0  0  0  0
 24 25  1  0  0  0  0
 24 54  1  0  0  0  0
 25 26  1  0  0  0  0
 25 55  1  0  0  0  0
 25 56  1  0  0  0  0
 26 31  1  0  0  0  0
 26 27  2  0  0  0  0
 27 28  1  0  0  0  0
 28 29  2  0  0  0  0
 28 57  1  0  0  0  0
 29 30  1  0  0  0  0
 29 58  1  0  0  0  0
 30 31  2  0  0  0  0
 30 59  1  0  0  0  0
 32 33  2  0  0  0  0
 32 60  1  0  0  0  0
 33 34  1  0  0  0  0
M  END
> <s_m_source_file>
AV-unprocessed.smi

> <i_m_source_file_index>
45

> <i_lp_mmshare_version>
43012

> <i_f3d_flags>
0

> <s_epik_input>
W0NIM11PYzFbY0hdW2NIXWMoW2NIXWMxQ2wpW0NIMl1bTkhdYzJuYyhOM1tDSDJdW0NIMl1bQ0gyXVtDQEhdM1tDSDJdW09IXSluW2NIXWMyQyg9TylbTkhdW0NIMl1jNG5bY0hdW2NIXVtjSF1uNA==

> <s_epik_cmdline>
J2VwaWtfcHl0aG9uJywgJy1waCcsICc3LjAnLCAnLXRuJywgJzgnLCAnLW1hJywgJzIwMCcsICctbWV0YWxfYmluZGluZycsICctaW1hZScsICc8aW5maWxlLm1hZT4nLCAnLW9tYWUnLCAnPG91dGZpbGUubWFlPic=

> <r_lp_tautomer_probability>
1

> <r_epik_Ionization_Penalty>
0.0522664

> <r_epik_Ionization_Penalty_Charging>
0

> <r_epik_Ionization_Penalty_Neutral>
0.0522664

> <r_epik_State_Penalty>
0.0369431

> <r_epik_Charging_Adjusted_Penalty>
0.0369431

> <i_epik_Tot_Q>
0

> <i_epik_Tot_abs_Q>
0

> <r_epik_Metal_State_Penalty>
0.0404664

> <b_epik_Metal_Only>
0

> <s_epik_Chemistry_Notes>
This compound contains an electron-poor aromatic ring that is susceptible to covalent hydrolysis at low pH, typically resulting in measured values for nitrogen ring protonation that are around two units higher than predicted values.

> <s_lp_Force_Field>
OPLS_2005

> <r_lp_Energy>
32.9916

> <b_lp_Chiralities_Consistent>
1

> <s_lp_Variant>
AV-unprocessed.smi:45-2

> <Gold.Version>
5.8.1

> <Gold.Id.Protein>
6NUR|6NUR_protein|mol2

> <Gold.PLP.Fitness>
52.6412

> <Gold.PLP.PLP>
-49.5252

> <Gold.PLP.part.hbond>
-1.0000

> <Gold.PLP.part.metal>
0.0000

> <Gold.PLP.part.buried>
-6.1908

> <Gold.PLP.part.nonpolar>
-42.5305

> <Gold.PLP.part.repulsive>
0.7490

> <Gold.PLP.ligand.clash>
0.0000

> <Gold.PLP.ligand.torsion>
1.5693

> <Gold.PLP.Chemscore.Hbond>
0.9500

> <Gold.PLP.Chemscore.CHOScore>
1.0000

> <Gold.PLP.Chemscore.Metal>
0.0000

> <Gold.Chemscore.Hbonds>
donor molecule, donor type, donor heavy atom, donor atom, acceptor molecule, acceptor atom, score
      P1  H  6896  6908       L1    10  0.90
      L1  C    28    57       P1  7921  0.93

> <Gold.PLP.Chemscore.Internal.Correction>
0.4046

> <Gold.Rescore>
     Score         DG    S(hbond)    S(metal)    S(lipo)     H(rot)  DE(clash)    DE(int)     intcor
      6.84     -13.23       0.04        0.00     128.38       2.90       0.03       6.36       ----

> <Gold.Chemscore.Fitness>
6.8419

> <Gold.Chemscore.DG>
-13.2262

> <Gold.Chemscore.ZeroCoef>
-5.4800

> <Gold.Chemscore.Hbond>
0.0439

> <Gold.Chemscore.Metal>
0.0000

> <Gold.Chemscore.Lipo>
128.3797

> <Gold.Chemscore.Internal_Hbond>
0.0000

> <Gold.Chemscore.DEClash>
0.0263

> <Gold.Chemscore.DEInternal>
6.3581

> <Gold.Chemscore.Rot>
2.8988

> <Gold.Chemscore.Internal.Correction>
   9.000000E+99

> <Gold.Chemscore.Hbonds>
donor molecule, donor type, donor heavy atom, donor atom, acceptor molecule, acceptor atom, score
      P1  H  6896  6908       L1    10  0.05

> <Gold.Chemscore.Hbond.Weighted>
-0.1467

> <Gold.Chemscore.Metal.Weighted>
-0.0000

> <Gold.Chemscore.Lipo.Weighted>
-15.0204

> <Gold.Chemscore.Internal_Hbond.Weighted>
0.0000

> <Gold.Chemscore.DEClash.Weighted>
0.0263

> <Gold.Chemscore.DEInternal.Weighted>
6.3581

> <Gold.Chemscore.Rot.Weighted>
7.4209

> <Gold.Chemscore.Internal.Correction.Weighted>
   9.000000E+99

> <Gold.Protein.RotatedTorsions>
[ 6907 6896 6895 6894 ] final -172.13 input  -60.11 | X-H torsion
[ 7974 7965 7964 7962 ] final  -38.89 input  175.53 | X-H torsion
[ 8008 7997 7996 7995 ] final   75.75 input   59.86 | X-H torsion
[ 10167 10162 10161 10158 ] final -177.55 input  -65.29 | X-H torsion
[ 10718 10713 10712 10709 ] final  143.73 input   66.30 | X-H torsion
[ 10763 10752 10751 10750 ] final -110.77 input  -60.55 | X-H torsion
[ 11005 11000 10999 10996 ] final   12.93 input  -57.11 | X-H torsion

> <Gold.Protein.ActiveResidues>
 VAL166  LYS551  ARG553  GLY616  TRP617  ASP618  TYR619  PRO620  LYS621  CYS622 
 ASP623  PHE694  ASN695  SER759  ASP760  ASP761  ALA762  ILE779  LEU786  VAL792 
 PHE793  MET794  SER795  GLU796  ALA797  LYS798  CYS799  TRP800  GLU811  SER814 

> <Gold.Protein.RotatedAtoms>
  151.5351  133.3442  159.2924 H   0  0  0  0  0  0  0  0  0  0  0  0  # atno 6907 bound_to 6896
  150.8570  134.7914  159.7064 H   0  0  0  0  0  0  0  0  0  0  0  0  # atno 6908 bound_to 6896
  152.4600  134.5213  159.9835 H   0  0  0  0  0  0  0  0  0  0  0  0  # atno 6909 bound_to 6896
  146.0446  140.6563  142.9071 H   0  0  0  0  0  0  0  0  0  0  0  0  # atno 7974 bound_to 7965
  155.8174  140.3471  155.5493 H   0  0  0  0  0  0  0  0  0  0  0  0  # atno 8008 bound_to 7997
  155.8378  140.0937  157.1773 H   0  0  0  0  0  0  0  0  0  0  0  0  # atno 8009 bound_to 7997
  154.4004  140.1400  156.3679 H   0  0  0  0  0  0  0  0  0  0  0  0  # atno 8010 bound_to 7997
  139.5475  144.2197  152.1015 H   0  0  0  0  0  0  0  0  0  0  0  0  # atno 10167 bound_to 10162
  157.3655  131.0971  151.0876 H   0  0  0  0  0  0  0  0  0  0  0  0  # atno 10718 bound_to 10713
  154.8265  135.4552  154.0936 H   0  0  0  0  0  0  0  0  0  0  0  0  # atno 10763 bound_to 10752
  153.2246  135.6898  153.7967 H   0  0  0  0  0  0  0  0  0  0  0  0  # atno 10764 bound_to 10752
  153.7372  135.3318  155.3273 H   0  0  0  0  0  0  0  0  0  0  0  0  # atno 10765 bound_to 10752
  140.4865  134.0883  155.7762 H   0  0  0  0  0  0  0  0  0  0  0  0  # atno 11005 bound_to 11000
  144.7091  140.3970  143.7094 LP  0  0  0  0  0  0  0  0  0  0  0  0  # atno 17320 bound_to 7965
  145.6827  139.1622  143.2691 LP  0  0  0  0  0  0  0  0  0  0  0  0  # atno 17321 bound_to 7965
  140.1687  144.4957  150.6592 LP  0  0  0  0  0  0  0  0  0  0  0  0  # atno 17342 bound_to 10162
  140.6727  143.2292  151.5584 LP  0  0  0  0  0  0  0  0  0  0  0  0  # atno 17343 bound_to 10162
  157.2000  130.6390  149.5735 LP  0  0  0  0  0  0  0  0  0  0  0  0  # atno 17370 bound_to 10713
  155.9745  130.4694  150.6393 LP  0  0  0  0  0  0  0  0  0  0  0  0  # atno 17371 bound_to 10713
  141.1505  133.8977  157.2109 LP  0  0  0  0  0  0  0  0  0  0  0  0  # atno 17394 bound_to 11000
  139.9795  135.0103  156.9714 LP  0  0  0  0  0  0  0  0  0  0  0  0  # atno 17395 bound_to 11000

$$$$
