AV-unprocessed.smi:2264|AV-procd|sdf|9141|dock2
  -GOLD-   2272012343D 1   1.00000     0.00000
 Structure written by MMmdl.
 44 45  0  0  0  0  0  0  0  0  1 V2000
  151.4974  145.2259  159.0386 C   0  0  0  0  0  0  0  0  0  0  0  0
  151.5831  143.7143  158.9873 C   0  0  0  0  0  0  0  0  0  0  0  0
  150.6638  142.9730  158.2206 C   0  0  0  0  0  0  0  0  0  0  0  0
  150.7452  141.5681  158.1802 C   0  0  0  0  0  0  0  0  0  0  0  0
  151.7492  140.8824  158.9100 C   0  0  0  0  0  0  0  0  0  0  0  0
  151.8870  139.5101  158.9204 O   0  0  0  0  0  0  0  0  0  0  0  0
  150.9114  138.7222  158.2497 C   0  0  0  0  0  0  0  0  0  0  0  0
  150.5243  137.5163  159.1225 C   0  0  2  0  0  0  0  0  0  0  0  0
  151.6222  136.6261  159.1399 O   0  0  0  0  0  0  0  0  0  0  0  0
  149.2515  136.7939  158.6257 C   0  0  0  0  0  0  0  0  0  0  0  0
  148.9376  135.6022  159.4309 N   0  0  0  0  0  0  0  0  0  0  0  0
  149.0313  134.3645  158.7741 C   0  0  0  0  0  0  0  0  0  0  0  0
  148.7832  133.2518  159.3839 N   0  0  0  0  0  0  0  0  0  0  0  0
  148.4115  133.2628  160.7314 C   0  0  0  0  0  0  0  0  0  0  0  0
  148.1424  131.9021  161.3494 C   0  0  0  0  0  0  0  0  0  0  0  0
  148.3056  134.4286  161.4260 C   0  0  0  0  0  0  0  0  0  0  0  0
  147.9064  134.5028  162.8943 C   0  0  0  0  0  0  0  0  0  0  0  0
  148.5883  135.7029  160.7461 C   0  0  0  0  0  0  0  0  0  0  0  0
  148.5223  136.7938  161.3160 O   0  0  0  0  0  0  0  0  0  0  0  0
  152.6690  141.6340  159.6773 C   0  0  0  0  0  0  0  0  0  0  0  0
  153.7535  140.9270  160.4683 C   0  0  0  0  0  0  0  0  0  0  0  0
  152.5842  143.0416  159.7137 C   0  0  0  0  0  0  0  0  0  0  0  0
  150.8087  145.6102  158.2856 H   0  0  0  0  0  0  0  0  0  0  0  0
  152.4771  145.6695  158.8593 H   0  0  0  0  0  0  0  0  0  0  0  0
  151.1472  145.5493  160.0191 H   0  0  0  0  0  0  0  0  0  0  0  0
  149.8906  143.4777  157.6599 H   0  0  0  0  0  0  0  0  0  0  0  0
  150.0205  141.0388  157.5808 H   0  0  0  0  0  0  0  0  0  0  0  0
  150.0275  139.3128  158.0017 H   0  0  0  0  0  0  0  0  0  0  0  0
  151.3371  138.3537  157.3148 H   0  0  0  0  0  0  0  0  0  0  0  0
  150.3834  137.8772  160.1419 H   0  0  0  0  0  0  0  0  0  0  0  0
  152.0647  136.6771  158.3066 H   0  0  0  0  0  0  0  0  0  0  0  0
  148.4034  137.4791  158.6829 H   0  0  0  0  0  0  0  0  0  0  0  0
  149.3349  136.5619  157.5616 H   0  0  0  0  0  0  0  0  0  0  0  0
  149.3292  134.4102  157.7251 H   0  0  0  0  0  0  0  0  0  0  0  0
  147.1146  131.8420  161.7078 H   0  0  0  0  0  0  0  0  0  0  0  0
  148.8156  131.7235  162.1882 H   0  0  0  0  0  0  0  0  0  0  0  0
  148.2912  131.0999  160.6252 H   0  0  0  0  0  0  0  0  0  0  0  0
  148.7002  134.9720  163.4768 H   0  0  0  0  0  0  0  0  0  0  0  0
  147.7078  133.5276  163.3358 H   0  0  0  0  0  0  0  0  0  0  0  0
  147.0037  135.1039  163.0078 H   0  0  0  0  0  0  0  0  0  0  0  0
  154.3945  141.6370  160.9920 H   0  0  0  0  0  0  0  0  0  0  0  0
  154.3800  140.3310  159.8042 H   0  0  0  0  0  0  0  0  0  0  0  0
  153.3079  140.2621  161.2086 H   0  0  0  0  0  0  0  0  0  0  0  0
  153.2887  143.6103  160.3030 H   0  0  0  0  0  0  0  0  0  0  0  0
  1  2  1  0  0  0  0
  1 23  1  0  0  0  0
  1 24  1  0  0  0  0
  1 25  1  0  0  0  0
  2 22  1  0  0  0  0
  2  3  2  0  0  0  0
  3  4  1  0  0  0  0
  3 26  1  0  0  0  0
  4  5  2  0  0  0  0
  4 27  1  0  0  0  0
  5  6  1  0  0  0  0
  5 20  1  0  0  0  0
  6  7  1  0  0  0  0
  7  8  1  0  0  0  0
  7 28  1  0  0  0  0
  7 29  1  0  0  0  0
  8  9  1  0  0  0  0
  8 10  1  0  0  0  0
  8 30  1  0  0  0  0
  9 31  1  0  0  0  0
 10 11  1  0  0  0  0
 10 32  1  0  0  0  0
 10 33  1  0  0  0  0
 11 18  1  0  0  0  0
 11 12  1  0  0  0  0
 12 13  2  0  0  0  0
 12 34  1  0  0  0  0
 13 14  1  0  0  0  0
 14 15  1  0  0  0  0
 14 16  2  0  0  0  0
 15 35  1  0  0  0  0
 15 36  1  0  0  0  0
 15 37  1  0  0  0  0
 16 17  1  0  0  0  0
 16 18  1  0  0  0  0
 17 38  1  0  0  0  0
 17 39  1  0  0  0  0
 17 40  1  0  0  0  0
 18 19  2  0  0  0  0
 20 21  1  0  0  0  0
 20 22  2  0  0  0  0
 21 41  1  0  0  0  0
 21 42  1  0  0  0  0
 21 43  1  0  0  0  0
 22 44  1  0  0  0  0
M  END
> <s_m_source_file>
AV-unprocessed.smi

> <i_m_source_file_index>
2264

> <i_lp_mmshare_version>
43012

> <i_f3d_flags>
0

> <s_epik_input>
W0NIM11jMVtjSF1bY0hdYyhjKFtDSDNdKVtjSF0xKU9bQ0gyXVtDQEhdKFtPSF0pW0NIMl1uMltjSF1uYyhbQ0gzXSljKFtDSDNdKWMyPU8=

> <s_epik_cmdline>
J2VwaWtfcHl0aG9uJywgJy1waCcsICc3LjAnLCAnLXRuJywgJzgnLCAnLW1hJywgJzIwMCcsICctbWV0YWxfYmluZGluZycsICctaW1hZScsICc8aW5maWxlLm1hZT4nLCAnLW9tYWUnLCAnPG91dGZpbGUubWFlPic=

> <r_lp_tautomer_probability>
1

> <r_epik_Ionization_Penalty>
3.7476e-05

> <r_epik_Ionization_Penalty_Charging>
8.44705e-08

> <r_epik_Ionization_Penalty_Neutral>
3.73915e-05

> <r_epik_State_Penalty>
-0

> <r_epik_Charging_Adjusted_Penalty>
8.44705e-08

> <i_epik_Tot_Q>
0

> <i_epik_Tot_abs_Q>
0

> <r_epik_Metal_State_Penalty>
-0

> <b_epik_Metal_Only>
0

> <s_lp_Force_Field>
OPLS_2005

> <r_lp_Energy>
23.9382

> <b_lp_Chiralities_Consistent>
1

> <s_lp_Variant>
AV-unprocessed.smi:2264-1

> <Gold.Version>
5.8.1

> <Gold.Id.Protein>
6NUR|6NUR_protein|mol2

> <Gold.PLP.Fitness>
53.9310

> <Gold.PLP.PLP>
-46.8813

> <Gold.PLP.part.hbond>
-2.9749

> <Gold.PLP.part.metal>
0.0000

> <Gold.PLP.part.buried>
-4.4902

> <Gold.PLP.part.nonpolar>
-39.2290

> <Gold.PLP.part.repulsive>
0.0000

> <Gold.PLP.ligand.clash>
0.0000

> <Gold.PLP.ligand.torsion>
0.4453

> <Gold.PLP.Chemscore.Hbond>
2.6209

> <Gold.PLP.Chemscore.CHOScore>
0.0000

> <Gold.PLP.Chemscore.Metal>
0.0000

> <Gold.Chemscore.Hbonds>
donor molecule, donor type, donor heavy atom, donor atom, acceptor molecule, acceptor atom, score
      P1  H  6896  6908       L1     9  0.90
      P1  H  6931  6943       L1    19  1.00

> <Gold.PLP.Chemscore.Internal.Correction>
0.0776

> <Gold.Rescore>
     Score         DG    S(hbond)    S(metal)    S(lipo)     H(rot)  DE(clash)    DE(int)     intcor
     21.47     -21.98       2.51        0.00     120.35       2.32       0.06       0.45       ----

> <Gold.Chemscore.Fitness>
21.4666

> <Gold.Chemscore.DG>
-21.9844

> <Gold.Chemscore.ZeroCoef>
-5.4800

> <Gold.Chemscore.Hbond>
2.5065

> <Gold.Chemscore.Metal>
0.0000

> <Gold.Chemscore.Lipo>
120.3505

> <Gold.Chemscore.Internal_Hbond>
0.0000

> <Gold.Chemscore.DEClash>
0.0643

> <Gold.Chemscore.DEInternal>
0.4535

> <Gold.Chemscore.Rot>
2.3236

> <Gold.Chemscore.Internal.Correction>
   9.000000E+99

> <Gold.Chemscore.Hbonds>
donor molecule, donor type, donor heavy atom, donor atom, acceptor molecule, acceptor atom, score
      P1  H  6896  6908       L1     9  0.77
      P1  H  6931  6943       L1    19  1.00

> <Gold.Chemscore.Hbond.Weighted>
-8.3718

> <Gold.Chemscore.Metal.Weighted>
-0.0000

> <Gold.Chemscore.Lipo.Weighted>
-14.0810

> <Gold.Chemscore.Internal_Hbond.Weighted>
0.0000

> <Gold.Chemscore.DEClash.Weighted>
0.0643

> <Gold.Chemscore.DEInternal.Weighted>
0.4535

> <Gold.Chemscore.Rot.Weighted>
5.9484

> <Gold.Chemscore.Internal.Correction.Weighted>
   9.000000E+99

> <Gold.Protein.RotatedTorsions>
[ 6907 6896 6895 6894 ] final -138.78 input  -60.11 | X-H torsion
[ 7974 7965 7964 7962 ] final  -80.77 input  175.53 | X-H torsion
[ 8008 7997 7996 7995 ] final -147.07 input   59.86 | X-H torsion
[ 10167 10162 10161 10158 ] final  152.78 input  -65.29 | X-H torsion
[ 10718 10713 10712 10709 ] final   33.82 input   66.30 | X-H torsion
[ 10763 10752 10751 10750 ] final -106.04 input  -60.55 | X-H torsion
[ 11005 11000 10999 10996 ] final  -46.70 input  -57.11 | X-H torsion

> <Gold.Protein.ActiveResidues>
 VAL166  LYS551  ARG553  GLY616  TRP617  ASP618  TYR619  PRO620  LYS621  CYS622 
 ASP623  PHE694  ASN695  SER759  ASP760  ASP761  ALA762  ILE779  LEU786  VAL792 
 PHE793  MET794  SER795  GLU796  ALA797  LYS798  CYS799  TRP800  GLU811  SER814 

> <Gold.Protein.RotatedAtoms>
  151.0393  133.5720  159.2652 H   0  0  0  0  0  0  0  0  0  0  0  0  # atno 6907 bound_to 6896
  151.2772  135.0702  159.9166 H   0  0  0  0  0  0  0  0  0  0  0  0  # atno 6908 bound_to 6896
  152.5361  134.0114  159.7994 H   0  0  0  0  0  0  0  0  0  0  0  0  # atno 6909 bound_to 6896
  145.5555  140.9490  143.1476 H   0  0  0  0  0  0  0  0  0  0  0  0  # atno 7974 bound_to 7965
  155.5697  140.0633  157.2809 H   0  0  0  0  0  0  0  0  0  0  0  0  # atno 8008 bound_to 7997
  154.4365  140.1871  156.0912 H   0  0  0  0  0  0  0  0  0  0  0  0  # atno 8009 bound_to 7997
  156.0386  140.3298  155.7222 H   0  0  0  0  0  0  0  0  0  0  0  0  # atno 8010 bound_to 7997
  139.4831  144.5328  151.7694 H   0  0  0  0  0  0  0  0  0  0  0  0  # atno 10167 bound_to 10162
  157.3026  130.7358  149.6676 H   0  0  0  0  0  0  0  0  0  0  0  0  # atno 10718 bound_to 10713
  154.7986  135.4727  154.0221 H   0  0  0  0  0  0  0  0  0  0  0  0  # atno 10763 bound_to 10752
  153.1744  135.6830  153.8570 H   0  0  0  0  0  0  0  0  0  0  0  0  # atno 10764 bound_to 10752
  153.8142  135.3213  155.3381 H   0  0  0  0  0  0  0  0  0  0  0  0  # atno 10765 bound_to 10752
  141.0595  133.6714  156.3193 H   0  0  0  0  0  0  0  0  0  0  0  0  # atno 11005 bound_to 11000
  144.7508  139.7198  143.7274 LP  0  0  0  0  0  0  0  0  0  0  0  0  # atno 17320 bound_to 7965
  146.1887  139.5116  142.9819 LP  0  0  0  0  0  0  0  0  0  0  0  0  # atno 17321 bound_to 7965
  140.4857  144.1384  150.5940 LP  0  0  0  0  0  0  0  0  0  0  0  0  # atno 17342 bound_to 10162
  140.4228  143.2604  151.9694 LP  0  0  0  0  0  0  0  0  0  0  0  0  # atno 17343 bound_to 10162
  155.9672  130.4275  150.4748 LP  0  0  0  0  0  0  0  0  0  0  0  0  # atno 17370 bound_to 10713
  157.2731  131.0591  151.2247 LP  0  0  0  0  0  0  0  0  0  0  0  0  # atno 17371 bound_to 10713
  140.5896  134.5663  157.5497 LP  0  0  0  0  0  0  0  0  0  0  0  0  # atno 17394 bound_to 11000
  139.9420  134.7770  156.0655 LP  0  0  0  0  0  0  0  0  0  0  0  0  # atno 17395 bound_to 11000

$$$$
