AV-unprocessed.smi:1115|AV-procd|sdf|4803|dock8
  -GOLD-   22720 3353D 1   1.00000     0.00000
 Structure written by MMmdl.
 50 51  0  0  0  0  0  0  0  0  1 V2000
  145.5050  132.1558  149.4693 C   0  0  0  0  0  0  0  0  0  0  0  0
  145.6131  132.2048  150.9239 N   0  0  0  0  0  0  0  0  0  0  0  0
  145.9217  130.9899  151.6680 C   0  0  0  0  0  0  0  0  0  0  0  0
  145.5547  133.4498  151.5914 C   0  0  0  0  0  0  0  0  0  0  0  0
  145.8003  133.5551  152.9833 C   0  0  0  0  0  0  0  0  0  0  0  0
  145.7311  134.8172  153.6038 C   0  0  0  0  0  0  0  0  0  0  0  0
  145.4098  135.9499  152.8212 C   0  0  0  0  0  0  0  0  0  0  0  0
  145.3320  137.2767  153.3239 N   0  0  0  0  0  0  0  0  0  0  0  0
  145.7750  137.7540  154.4994 C   0  0  0  0  0  0  0  0  0  0  0  0
  146.3096  137.0846  155.3834 O   0  0  0  0  0  0  0  0  0  0  0  0
  145.5335  139.0680  154.6064 N   0  0  0  0  0  0  0  0  0  0  0  0
  145.8364  139.9038  155.7683 C   0  0  0  0  0  0  0  0  0  0  0  0
  146.9634  140.9416  155.4872 C   0  0  0  0  0  0  0  0  0  0  0  0
  146.6460  141.5766  154.1093 C   0  0  0  0  0  0  0  0  0  0  0  0
  146.8258  142.0629  156.5455 C   0  0  0  0  0  0  0  0  0  0  0  0
  148.3102  140.3033  155.4860 N   0  0  0  0  0  0  0  0  0  0  0  0
  149.4331  141.2317  155.6633 C   0  0  0  0  0  0  0  0  0  0  0  0
  150.7793  140.4967  155.7781 C   0  0  0  0  0  0  0  0  0  0  0  0
  150.9811  139.6845  154.6283 O   0  0  0  0  0  0  0  0  0  0  0  0
  149.9432  138.7285  154.4508 C   0  0  0  0  0  0  0  0  0  0  0  0
  148.5891  139.4479  154.3266 C   0  0  0  0  0  0  0  0  0  0  0  0
  145.1940  135.7499  151.4441 C   0  0  0  0  0  0  0  0  0  0  0  0
  145.2579  134.5425  150.8458 N   0  0  0  0  0  0  0  0  0  0  0  0
  146.3355  132.6901  149.0069 H   0  0  0  0  0  0  0  0  0  0  0  0
  144.5712  132.6103  149.1369 H   0  0  0  0  0  0  0  0  0  0  0  0
  145.5216  131.1292  149.1033 H   0  0  0  0  0  0  0  0  0  0  0  0
  146.8767  131.0890  152.1850 H   0  0  0  0  0  0  0  0  0  0  0  0
  145.9908  130.1261  151.0067 H   0  0  0  0  0  0  0  0  0  0  0  0
  145.1444  130.7834  152.4045 H   0  0  0  0  0  0  0  0  0  0  0  0
  146.0435  132.6948  153.5882 H   0  0  0  0  0  0  0  0  0  0  0  0
  145.9399  134.8900  154.6596 H   0  0  0  0  0  0  0  0  0  0  0  0
  144.8320  137.9311  152.7399 H   0  0  0  0  0  0  0  0  0  0  0  0
  145.0768  139.5275  153.8323 H   0  0  0  0  0  0  0  0  0  0  0  0
  144.9358  140.4096  156.1213 H   0  0  0  0  0  0  0  0  0  0  0  0
  146.1111  139.2420  156.5893 H   0  0  0  0  0  0  0  0  0  0  0  0
  145.6006  141.8799  154.0398 H   0  0  0  0  0  0  0  0  0  0  0  0
  146.8375  140.8817  153.2910 H   0  0  0  0  0  0  0  0  0  0  0  0
  147.2353  142.4743  153.9226 H   0  0  0  0  0  0  0  0  0  0  0  0
  145.8345  142.5164  156.5073 H   0  0  0  0  0  0  0  0  0  0  0  0
  147.5440  142.8675  156.3897 H   0  0  0  0  0  0  0  0  0  0  0  0
  146.9605  141.6904  157.5607 H   0  0  0  0  0  0  0  0  0  0  0  0
  149.4842  141.9258  154.8243 H   0  0  0  0  0  0  0  0  0  0  0  0
  149.3059  141.8311  156.5628 H   0  0  0  0  0  0  0  0  0  0  0  0
  151.5967  141.2137  155.8551 H   0  0  0  0  0  0  0  0  0  0  0  0
  150.8074  139.8806  156.6782 H   0  0  0  0  0  0  0  0  0  0  0  0
  150.1462  138.1457  153.5523 H   0  0  0  0  0  0  0  0  0  0  0  0
  149.9337  138.0307  155.2897 H   0  0  0  0  0  0  0  0  0  0  0  0
  147.8204  138.6859  154.2119 H   0  0  0  0  0  0  0  0  0  0  0  0
  148.5883  140.0402  153.4114 H   0  0  0  0  0  0  0  0  0  0  0  0
  144.9581  136.5839  150.7987 H   0  0  0  0  0  0  0  0  0  0  0  0
  1  2  1  0  0  0  0
  1 24  1  0  0  0  0
  1 25  1  0  0  0  0
  1 26  1  0  0  0  0
  2  3  1  0  0  0  0
  2  4  1  0  0  0  0
  3 27  1  0  0  0  0
  3 28  1  0  0  0  0
  3 29  1  0  0  0  0
  4 23  1  0  0  0  0
  4  5  2  0  0  0  0
  5  6  1  0  0  0  0
  5 30  1  0  0  0  0
  6  7  2  0  0  0  0
  6 31  1  0  0  0  0
  7  8  1  0  0  0  0
  7 22  1  0  0  0  0
  8  9  1  0  0  0  0
  8 32  1  0  0  0  0
  9 10  2  0  0  0  0
  9 11  1  0  0  0  0
 11 12  1  0  0  0  0
 11 33  1  0  0  0  0
 12 13  1  0  0  0  0
 12 34  1  0  0  0  0
 12 35  1  0  0  0  0
 13 14  1  0  0  0  0
 13 15  1  0  0  0  0
 13 16  1  0  0  0  0
 14 36  1  0  0  0  0
 14 37  1  0  0  0  0
 14 38  1  0  0  0  0
 15 39  1  0  0  0  0
 15 40  1  0  0  0  0
 15 41  1  0  0  0  0
 16 21  1  0  0  0  0
 16 17  1  0  0  0  0
 17 18  1  0  0  0  0
 17 42  1  0  0  0  0
 17 43  1  0  0  0  0
 18 19  1  0  0  0  0
 18 44  1  0  0  0  0
 18 45  1  0  0  0  0
 19 20  1  0  0  0  0
 20 21  1  0  0  0  0
 20 46  1  0  0  0  0
 20 47  1  0  0  0  0
 21 48  1  0  0  0  0
 21 49  1  0  0  0  0
 22 23  2  0  0  0  0
 22 50  1  0  0  0  0
M  END
> <s_m_source_file>
AV-unprocessed.smi

> <i_m_source_file_index>
1115

> <i_lp_mmshare_version>
43012

> <i_f3d_flags>
0

> <s_epik_input>
W0NIM11OKFtDSDNdKWMxW2NIXVtjSF1jKFtjSF1uMSlbTkhdQyg9TylbTkhdW0NIMl1DKFtDSDNdKShbQ0gzXSlOMltDSDJdW0NIMl1PW0NIMl1bQ0gyXTI=

> <s_epik_cmdline>
J2VwaWtfcHl0aG9uJywgJy1waCcsICc3LjAnLCAnLXRuJywgJzgnLCAnLW1hJywgJzIwMCcsICctbWV0YWxfYmluZGluZycsICctaW1hZScsICc8aW5maWxlLm1hZT4nLCAnLW9tYWUnLCAnPG91dGZpbGUubWFlPic=

> <r_lp_tautomer_probability>
1

> <r_epik_Ionization_Penalty>
0.880664

> <r_epik_Ionization_Penalty_Charging>
0

> <r_epik_Ionization_Penalty_Neutral>
0.880664

> <r_epik_State_Penalty>
0.865003

> <r_epik_Charging_Adjusted_Penalty>
0.865003

> <i_epik_Tot_Q>
0

> <i_epik_Tot_abs_Q>
0

> <r_epik_Metal_State_Penalty>
0.539426

> <b_epik_Metal_Only>
0

> <s_lp_Force_Field>
OPLS_2005

> <r_lp_Energy>
45.7519

> <b_lp_Chiralities_Consistent>
1

> <s_lp_Variant>
AV-unprocessed.smi:1115-2

> <Gold.Version>
5.8.1

> <Gold.Id.Protein>
6NUR|6NUR_protein|mol2

> <Gold.PLP.Fitness>
42.9987

> <Gold.PLP.PLP>
-35.4724

> <Gold.PLP.part.hbond>
-2.0000

> <Gold.PLP.part.metal>
0.0000

> <Gold.PLP.part.buried>
-5.1665

> <Gold.PLP.part.nonpolar>
-28.5685

> <Gold.PLP.part.repulsive>
0.6351

> <Gold.PLP.ligand.clash>
0.0000

> <Gold.PLP.ligand.torsion>
0.6956

> <Gold.PLP.Chemscore.Hbond>
1.9500

> <Gold.PLP.Chemscore.CHOScore>
1.0000

> <Gold.PLP.Chemscore.Metal>
0.0000

> <Gold.Chemscore.Hbonds>
donor molecule, donor type, donor heavy atom, donor atom, acceptor molecule, acceptor atom, score
      L1  H    11    33       P1 10175  0.67
      P1  H  7989  7998       L1    19  1.00
      L1  C    22    50       P1 10171  1.00

> <Gold.PLP.Chemscore.Internal.Correction>
0.0675

> <Gold.Rescore>
     Score         DG    S(hbond)    S(metal)    S(lipo)     H(rot)  DE(clash)    DE(int)     intcor
     15.19     -17.29       1.89        0.00      78.02       1.42       0.08       2.02       ----

> <Gold.Chemscore.Fitness>
15.1861

> <Gold.Chemscore.DG>
-17.2902

> <Gold.Chemscore.ZeroCoef>
-5.4800

> <Gold.Chemscore.Hbond>
1.8925

> <Gold.Chemscore.Metal>
0.0000

> <Gold.Chemscore.Lipo>
78.0228

> <Gold.Chemscore.Internal_Hbond>
0.0000

> <Gold.Chemscore.DEClash>
0.0843

> <Gold.Chemscore.DEInternal>
2.0198

> <Gold.Chemscore.Rot>
1.4217

> <Gold.Chemscore.Internal.Correction>
   9.000000E+99

> <Gold.Chemscore.Hbonds>
donor molecule, donor type, donor heavy atom, donor atom, acceptor molecule, acceptor atom, score
      L1  H    11    33       P1 10175  0.67
      P1  H  7989  7998       L1    19  0.30

> <Gold.Chemscore.Hbond.Weighted>
-6.3210

> <Gold.Chemscore.Metal.Weighted>
-0.0000

> <Gold.Chemscore.Lipo.Weighted>
-9.1287

> <Gold.Chemscore.Internal_Hbond.Weighted>
0.0000

> <Gold.Chemscore.DEClash.Weighted>
0.0843

> <Gold.Chemscore.DEInternal.Weighted>
2.0198

> <Gold.Chemscore.Rot.Weighted>
3.6395

> <Gold.Chemscore.Internal.Correction.Weighted>
   9.000000E+99

> <Gold.Protein.RotatedTorsions>
[ 6907 6896 6895 6894 ] final   55.50 input  -60.11 | X-H torsion
[ 7974 7965 7964 7962 ] final  136.02 input  175.53 | X-H torsion
[ 8008 7997 7996 7995 ] final  -92.78 input   59.86 | X-H torsion
[ 10167 10162 10161 10158 ] final -150.79 input  -65.29 | X-H torsion
[ 10718 10713 10712 10709 ] final   65.12 input   66.30 | X-H torsion
[ 10763 10752 10751 10750 ] final  157.73 input  -60.55 | X-H torsion
[ 11005 11000 10999 10996 ] final   56.03 input  -57.11 | X-H torsion

> <Gold.Protein.ActiveResidues>
 VAL166  LYS551  ARG553  GLY616  TRP617  ASP618  TYR619  PRO620  LYS621  CYS622 
 ASP623  PHE694  ASN695  SER759  ASP760  ASP761  ALA762  ILE779  LEU786  VAL792 
 PHE793  MET794  SER795  GLU796  ALA797  LYS798  CYS799  TRP800  GLU811  SER814 

> <Gold.Protein.RotatedAtoms>
  152.3544  134.6960  160.0226 H   0  0  0  0  0  0  0  0  0  0  0  0  # atno 6907 bound_to 6896
  151.7304  133.3312  159.3347 H   0  0  0  0  0  0  0  0  0  0  0  0  # atno 6908 bound_to 6896
  150.7562  134.6302  159.6227 H   0  0  0  0  0  0  0  0  0  0  0  0  # atno 6909 bound_to 6896
  144.9606  139.4714  143.5481 H   0  0  0  0  0  0  0  0  0  0  0  0  # atno 7974 bound_to 7965
  154.7274  140.0505  157.0695 H   0  0  0  0  0  0  0  0  0  0  0  0  # atno 8008 bound_to 7997
  155.0346  140.3162  155.4727 H   0  0  0  0  0  0  0  0  0  0  0  0  # atno 8009 bound_to 7997
  156.2832  140.2143  156.5469 H   0  0  0  0  0  0  0  0  0  0  0  0  # atno 8010 bound_to 7997
  139.7324  143.8788  152.2538 H   0  0  0  0  0  0  0  0  0  0  0  0  # atno 10167 bound_to 10162
  157.6085  130.9197  149.9935 H   0  0  0  0  0  0  0  0  0  0  0  0  # atno 10718 bound_to 10713
  154.2049  135.2788  155.2978 H   0  0  0  0  0  0  0  0  0  0  0  0  # atno 10763 bound_to 10752
  154.5825  135.5585  153.7202 H   0  0  0  0  0  0  0  0  0  0  0  0  # atno 10764 bound_to 10752
  153.0078  135.6348  154.2188 H   0  0  0  0  0  0  0  0  0  0  0  0  # atno 10765 bound_to 10752
  140.0561  134.5669  155.9206 H   0  0  0  0  0  0  0  0  0  0  0  0  # atno 11005 bound_to 11000
  146.3352  139.8753  142.8833 LP  0  0  0  0  0  0  0  0  0  0  0  0  # atno 17320 bound_to 7965
  145.2705  141.0107  143.3774 LP  0  0  0  0  0  0  0  0  0  0  0  0  # atno 17321 bound_to 7965
  139.8715  144.7066  150.8982 LP  0  0  0  0  0  0  0  0  0  0  0  0  # atno 17342 bound_to 10162
  140.7773  143.3734  151.1607 LP  0  0  0  0  0  0  0  0  0  0  0  0  # atno 17343 bound_to 10162
  156.1179  130.3647  149.9937 LP  0  0  0  0  0  0  0  0  0  0  0  0  # atno 17370 bound_to 10713
  156.8022  130.9295  151.3645 LP  0  0  0  0  0  0  0  0  0  0  0  0  # atno 17371 bound_to 10713
  141.1952  133.6586  156.5633 LP  0  0  0  0  0  0  0  0  0  0  0  0  # atno 17394 bound_to 11000
  140.3842  134.7496  157.4681 LP  0  0  0  0  0  0  0  0  0  0  0  0  # atno 17395 bound_to 11000

$$$$
