AV-unprocessed.smi:209|AV-procd|sdf|1607|dock7
  -GOLD-   2262019523D 1   1.00000     0.00000
 Structure written by MMmdl.
 48 52  0  0  0  0  0  0  0  0  1 V2000
  143.3768  131.6967  150.0160 O   0  0  0  0  0  0  0  0  0  0  0  0
  144.0845  132.6891  150.1750 C   0  0  0  0  0  0  0  0  0  0  0  0
  143.7098  133.9544  149.9945 N   0  0  0  0  0  0  0  0  0  0  0  0
  144.7440  134.9115  150.3489 C   0  0  0  0  0  0  0  0  0  0  0  0
  145.8056  134.0767  151.1076 C   0  0  2  0  0  0  0  0  0  0  0  0
  145.5509  132.6428  150.5810 C   0  0  1  0  0  0  0  0  0  0  0  0
  145.9639  131.4993  151.5318 C   0  0  0  0  0  0  0  0  0  0  0  0
  145.5937  131.7941  152.9878 C   0  0  0  0  0  0  0  0  0  0  0  0
  146.1710  133.1502  153.4038 C   0  0  0  0  0  0  0  0  0  0  0  0
  145.6219  134.2117  152.5650 N   0  0  0  0  0  0  0  0  0  0  0  0
  145.7983  135.4402  153.1159 C   0  0  0  0  0  0  0  0  0  0  0  0
  144.8867  136.4253  152.8955 N   0  0  0  0  0  0  0  0  0  0  0  0
  145.0615  137.6372  153.4306 C   0  0  0  0  0  0  0  0  0  0  0  0
  146.0585  138.0723  154.2034 N   0  0  0  0  0  0  0  0  0  0  0  0
  146.9751  137.0881  154.4291 C   0  0  0  0  0  0  0  0  0  0  0  0
  146.9227  135.7572  153.9280 C   0  0  0  0  0  0  0  0  0  0  0  0
  148.0248  135.0392  154.3754 N   0  0  0  0  0  0  0  0  0  0  0  0
  148.6939  135.8984  155.0949 C   0  0  0  0  0  0  0  0  0  0  0  0
  148.1397  137.1564  155.1744 N   0  0  0  0  0  0  0  0  0  0  0  0
  148.6656  138.2986  155.9070 C   0  0  0  0  0  0  0  0  0  0  0  0
  149.4683  139.2836  155.0366 C   0  0  0  0  0  0  0  0  0  0  0  0
  148.4870  140.0507  154.1273 C   0  0  0  0  0  0  0  0  0  0  0  0
  149.1215  141.0783  153.3918 O   0  0  0  0  0  0  0  0  0  0  0  0
  150.4915  140.1343  155.8027 C   0  0  0  0  0  0  0  0  0  0  0  0
  151.5705  139.7309  154.9309 O   0  0  0  0  0  0  0  0  0  0  0  0
  150.7198  138.7176  154.3505 C   0  0  0  0  0  0  0  0  0  0  0  0
  146.8141  134.3942  150.8398 H   0  0  0  0  0  0  0  0  0  0  0  0
  146.0988  132.5144  149.6462 H   0  0  0  0  0  0  0  0  0  0  0  0
  142.7809  134.2349  149.7146 H   0  0  0  0  0  0  0  0  0  0  0  0
  145.1649  135.3199  149.4295 H   0  0  0  0  0  0  0  0  0  0  0  0
  144.3287  135.7419  150.9207 H   0  0  0  0  0  0  0  0  0  0  0  0
  145.5206  130.5537  151.2167 H   0  0  0  0  0  0  0  0  0  0  0  0
  147.0434  131.3598  151.4637 H   0  0  0  0  0  0  0  0  0  0  0  0
  144.5098  131.7953  153.1097 H   0  0  0  0  0  0  0  0  0  0  0  0
  145.9810  131.0080  153.6363 H   0  0  0  0  0  0  0  0  0  0  0  0
  145.9487  133.3243  154.4569 H   0  0  0  0  0  0  0  0  0  0  0  0
  147.2578  133.1436  153.3086 H   0  0  0  0  0  0  0  0  0  0  0  0
  144.2933  138.3623  153.2059 H   0  0  0  0  0  0  0  0  0  0  0  0
  149.6156  135.6331  155.5919 H   0  0  0  0  0  0  0  0  0  0  0  0
  147.8341  138.8100  156.3936 H   0  0  0  0  0  0  0  0  0  0  0  0
  149.2847  137.9113  156.7172 H   0  0  0  0  0  0  0  0  0  0  0  0
  148.0164  139.3840  153.4048 H   0  0  0  0  0  0  0  0  0  0  0  0
  147.6851  140.5000  154.7138 H   0  0  0  0  0  0  0  0  0  0  0  0
  149.1213  140.8386  152.4777 H   0  0  0  0  0  0  0  0  0  0  0  0
  150.3020  141.2076  155.7691 H   0  0  0  0  0  0  0  0  0  0  0  0
  150.6602  139.8068  156.8297 H   0  0  0  0  0  0  0  0  0  0  0  0
  151.0014  137.7197  154.6880 H   0  0  0  0  0  0  0  0  0  0  0  0
  150.6935  138.7653  153.2613 H   0  0  0  0  0  0  0  0  0  0  0  0
  1  2  2  0  0  0  0
  2  6  1  0  0  0  0
  2  3  1  0  0  0  0
  3  4  1  0  0  0  0
  3 29  1  0  0  0  0
  4  5  1  0  0  0  0
  4 30  1  0  0  0  0
  4 31  1  0  0  0  0
  5 27  1  0  0  0  0
  5 10  1  0  0  0  0
  5  6  1  0  0  0  0
  6 28  1  0  0  0  0
  6  7  1  0  0  0  0
  7  8  1  0  0  0  0
  7 32  1  0  0  0  0
  7 33  1  0  0  0  0
  8  9  1  0  0  0  0
  8 34  1  0  0  0  0
  8 35  1  0  0  0  0
  9 10  1  0  0  0  0
  9 36  1  0  0  0  0
  9 37  1  0  0  0  0
 10 11  1  0  0  0  0
 11 16  1  0  0  0  0
 11 12  2  0  0  0  0
 12 13  1  0  0  0  0
 13 14  2  0  0  0  0
 13 38  1  0  0  0  0
 14 15  1  0  0  0  0
 15 19  1  0  0  0  0
 15 16  2  0  0  0  0
 16 17  1  0  0  0  0
 17 18  2  0  0  0  0
 18 19  1  0  0  0  0
 18 39  1  0  0  0  0
 19 20  1  0  0  0  0
 20 21  1  0  0  0  0
 20 40  1  0  0  0  0
 20 41  1  0  0  0  0
 21 26  1  0  0  0  0
 21 22  1  0  0  0  0
 21 24  1  0  0  0  0
 22 23  1  0  0  0  0
 22 42  1  0  0  0  0
 22 43  1  0  0  0  0
 23 44  1  0  0  0  0
 24 25  1  0  0  0  0
 24 45  1  0  0  0  0
 24 46  1  0  0  0  0
 25 26  1  0  0  0  0
 26 47  1  0  0  0  0
 26 48  1  0  0  0  0
M  END
> <s_m_source_file>
AV-unprocessed.smi

> <i_m_source_file_index>
209

> <i_lp_mmshare_version>
43012

> <i_f3d_flags>
0

> <s_epik_input>
W0NIMl0xW05IXUMoPU8pW0NAQEhdKFtDQEBIXTEyKVtDSDJdW0NIMl1bQ0gyXU4yYyhuW2NIXW4zKWMoYzM0KW5bY0hdbjRbQ0gyXUM1KFtDSDJdW09IXSlbQ0gyXU9bQ0gyXTU=

> <s_epik_cmdline>
J2VwaWtfcHl0aG9uJywgJy1waCcsICc3LjAnLCAnLXRuJywgJzgnLCAnLW1hJywgJzIwMCcsICctbWV0YWxfYmluZGluZycsICctaW1hZScsICc8aW5maWxlLm1hZT4nLCAnLW9tYWUnLCAnPG91dGZpbGUubWFlPic=

> <r_lp_tautomer_probability>
1

> <r_epik_Ionization_Penalty>
0.00113306

> <r_epik_Ionization_Penalty_Charging>
0

> <r_epik_Ionization_Penalty_Neutral>
0.00113306

> <r_epik_State_Penalty>
0.000624042

> <r_epik_Charging_Adjusted_Penalty>
0.000624042

> <i_epik_Tot_Q>
0

> <i_epik_Tot_abs_Q>
0

> <r_epik_Metal_State_Penalty>
-0

> <b_epik_Metal_Only>
0

> <s_lp_Force_Field>
OPLS_2005

> <r_lp_Energy>
50.3938

> <b_lp_Chiralities_Consistent>
1

> <s_lp_Variant>
AV-unprocessed.smi:209-1

> <Gold.Version>
5.8.1

> <Gold.Id.Protein>
6NUR|6NUR_protein|mol2

> <Gold.PLP.Fitness>
44.1477

> <Gold.PLP.PLP>
-31.0887

> <Gold.PLP.part.hbond>
-6.0000

> <Gold.PLP.part.metal>
0.0000

> <Gold.PLP.part.buried>
-3.3179

> <Gold.PLP.part.nonpolar>
-25.1681

> <Gold.PLP.part.repulsive>
3.2749

> <Gold.PLP.ligand.clash>
0.0000

> <Gold.PLP.ligand.torsion>
1.0803

> <Gold.PLP.Chemscore.Hbond>
3.8413

> <Gold.PLP.Chemscore.CHOScore>
1.0000

> <Gold.PLP.Chemscore.Metal>
0.0000

> <Gold.Chemscore.Hbonds>
donor molecule, donor type, donor heavy atom, donor atom, acceptor molecule, acceptor atom, score
      L1  H     3    29       P1 10186  1.00
      L1  H    23    44       P1  7957  1.00
      P1  H  7989  7998       L1    25  0.95
      P1  H 10785 10796       L1     1  1.00
      L1  C    13    38       P1 10175  1.00

> <Gold.PLP.Chemscore.Internal.Correction>
0.6958

> <Gold.Rescore>
     Score         DG    S(hbond)    S(metal)    S(lipo)     H(rot)  DE(clash)    DE(int)     intcor
     10.73     -15.71       2.94        0.00      61.67       2.66       0.34       4.65       ----

> <Gold.Chemscore.Fitness>
10.7266

> <Gold.Chemscore.DG>
-15.7121

> <Gold.Chemscore.ZeroCoef>
-5.4800

> <Gold.Chemscore.Hbond>
2.9436

> <Gold.Chemscore.Metal>
0.0000

> <Gold.Chemscore.Lipo>
61.6686

> <Gold.Chemscore.Internal_Hbond>
0.0000

> <Gold.Chemscore.DEClash>
0.3359

> <Gold.Chemscore.DEInternal>
4.6497

> <Gold.Chemscore.Rot>
2.6620

> <Gold.Chemscore.Internal.Correction>
   9.000000E+99

> <Gold.Chemscore.Hbonds>
donor molecule, donor type, donor heavy atom, donor atom, acceptor molecule, acceptor atom, score
      L1  H     3    29       P1 10186  1.00
      L1  H    23    44       P1  7957  0.98
      P1  H  7989  7998       L1    25  0.16
      P1  H 10785 10796       L1     1  0.92

> <Gold.Chemscore.Hbond.Weighted>
-9.8316

> <Gold.Chemscore.Metal.Weighted>
-0.0000

> <Gold.Chemscore.Lipo.Weighted>
-7.2152

> <Gold.Chemscore.Internal_Hbond.Weighted>
0.0000

> <Gold.Chemscore.DEClash.Weighted>
0.3359

> <Gold.Chemscore.DEInternal.Weighted>
4.6497

> <Gold.Chemscore.Rot.Weighted>
6.8148

> <Gold.Chemscore.Internal.Correction.Weighted>
   9.000000E+99

> <Gold.Protein.RotatedTorsions>
[ 6907 6896 6895 6894 ] final   94.45 input  -60.11 | X-H torsion
[ 7974 7965 7964 7962 ] final  149.44 input  175.53 | X-H torsion
[ 8008 7997 7996 7995 ] final  -31.67 input   59.86 | X-H torsion
[ 10167 10162 10161 10158 ] final  -85.11 input  -65.29 | X-H torsion
[ 10718 10713 10712 10709 ] final   57.69 input   66.30 | X-H torsion
[ 10763 10752 10751 10750 ] final   47.10 input  -60.55 | X-H torsion
[ 11005 11000 10999 10996 ] final  -83.98 input  -57.11 | X-H torsion

> <Gold.Protein.ActiveResidues>
 VAL166  LYS551  ARG553  GLY616  TRP617  ASP618  TYR619  PRO620  LYS621  CYS622 
 ASP623  PHE694  ASN695  SER759  ASP760  ASP761  ALA762  ILE779  LEU786  VAL792 
 PHE793  MET794  SER795  GLU796  ALA797  LYS798  CYS799  TRP800  GLU811  SER814 

> <Gold.Protein.RotatedAtoms>
  152.5449  134.1192  159.8391 H   0  0  0  0  0  0  0  0  0  0  0  0  # atno 6907 bound_to 6896
  151.1249  133.5070  159.2608 H   0  0  0  0  0  0  0  0  0  0  0  0  # atno 6908 bound_to 6896
  151.1738  135.0340  159.8817 H   0  0  0  0  0  0  0  0  0  0  0  0  # atno 6909 bound_to 6896
  144.8438  139.6280  143.6004 H   0  0  0  0  0  0  0  0  0  0  0  0  # atno 7974 bound_to 7965
  154.4205  140.1758  156.1604 H   0  0  0  0  0  0  0  0  0  0  0  0  # atno 8008 bound_to 7997
  155.9842  140.3375  155.6667 H   0  0  0  0  0  0  0  0  0  0  0  0  # atno 8009 bound_to 7997
  155.6459  140.0685  157.2594 H   0  0  0  0  0  0  0  0  0  0  0  0  # atno 8010 bound_to 7997
  140.4069  143.2639  151.9069 H   0  0  0  0  0  0  0  0  0  0  0  0  # atno 10167 bound_to 10162
  157.5535  130.8783  149.9000 H   0  0  0  0  0  0  0  0  0  0  0  0  # atno 10718 bound_to 10713
  152.9803  135.5987  154.3708 H   0  0  0  0  0  0  0  0  0  0  0  0  # atno 10763 bound_to 10752
  154.3382  135.2768  155.2438 H   0  0  0  0  0  0  0  0  0  0  0  0  # atno 10764 bound_to 10752
  154.4532  135.5984  153.6261 H   0  0  0  0  0  0  0  0  0  0  0  0  # atno 10765 bound_to 10752
  141.1654  133.7322  156.8800 H   0  0  0  0  0  0  0  0  0  0  0  0  # atno 11005 bound_to 11000
  146.2726  139.6673  142.9285 LP  0  0  0  0  0  0  0  0  0  0  0  0  # atno 17320 bound_to 7965
  145.4639  141.0434  143.2736 LP  0  0  0  0  0  0  0  0  0  0  0  0  # atno 17321 bound_to 7965
  139.4783  144.5577  151.8288 LP  0  0  0  0  0  0  0  0  0  0  0  0  # atno 17342 bound_to 10162
  140.4680  144.1627  150.5914 LP  0  0  0  0  0  0  0  0  0  0  0  0  # atno 17343 bound_to 10162
  156.0598  130.3702  150.1009 LP  0  0  0  0  0  0  0  0  0  0  0  0  # atno 17370 bound_to 10713
  156.9180  130.9673  151.3553 LP  0  0  0  0  0  0  0  0  0  0  0  0  # atno 17371 bound_to 10713
  140.1721  134.9092  157.2846 LP  0  0  0  0  0  0  0  0  0  0  0  0  # atno 17394 bound_to 11000
  140.2490  134.3705  155.7450 LP  0  0  0  0  0  0  0  0  0  0  0  0  # atno 17395 bound_to 11000

$$$$
