AV-unprocessed.smi:239|AV-procd|sdf|1823|dock1
  -GOLD-   2262020423D 1   1.00000     0.00000
 Structure written by MMmdl.
 54 58  0  0  0  0  0  0  0  0  1 V2000
  154.6125  140.4569  161.0005 C   0  0  0  0  0  0  0  0  0  0  0  0
  153.7761  141.2241  159.9717 C   0  0  1  0  0  0  0  0  0  0  0  0
  153.1139  140.2814  158.9512 C   0  0  0  0  0  0  0  0  0  0  0  0
  152.2388  141.0434  158.0672 N   0  0  0  0  0  0  0  0  0  0  0  0
  151.8045  140.4556  156.9251 C   0  0  0  0  0  0  0  0  0  0  0  0
  152.5776  139.5280  156.2995 N   0  0  0  0  0  0  0  0  0  0  0  0
  152.1509  138.9404  155.1776 C   0  0  0  0  0  0  0  0  0  0  0  0
  151.0069  139.1324  154.5181 N   0  0  0  0  0  0  0  0  0  0  0  0
  150.2321  140.0701  155.1348 C   0  0  0  0  0  0  0  0  0  0  0  0
  150.5504  140.7721  156.3313 C   0  0  0  0  0  0  0  0  0  0  0  0
  149.5244  141.6543  156.6494 N   0  0  0  0  0  0  0  0  0  0  0  0
  148.6486  141.4811  155.6975 C   0  0  0  0  0  0  0  0  0  0  0  0
  148.9965  140.5539  154.7414 N   0  0  0  0  0  0  0  0  0  0  0  0
  148.2171  140.1754  153.5726 C   0  0  0  0  0  0  0  0  0  0  0  0
  147.4314  138.8519  153.7459 C   0  0  0  0  0  0  0  0  0  0  0  0
  148.3658  137.8363  154.0702 O   0  0  0  0  0  0  0  0  0  0  0  0
  146.3792  138.9290  154.8744 C   0  0  0  0  0  0  0  0  0  0  0  0
  145.4661  137.6908  154.9031 C   0  0  0  0  0  0  0  0  0  0  0  0
  144.8561  137.5025  153.6320 O   0  0  0  0  0  0  0  0  0  0  0  0
  145.8018  137.2497  152.6000 C   0  0  0  0  0  0  0  0  0  0  0  0
  146.7310  138.4646  152.4280 C   0  0  0  0  0  0  0  0  0  0  0  0
  151.2325  141.8182  158.7842 C   0  0  0  0  0  0  0  0  0  0  0  0
  151.8958  142.7205  159.8407 C   0  0  2  0  0  0  0  0  0  0  0  0
  152.5988  143.9255  159.2315 C   0  0  0  0  0  0  0  0  0  0  0  0
  151.9400  145.2840  159.2344 C   0  0  0  0  0  0  0  0  0  0  0  0
  152.1133  144.5319  157.9360 C   0  0  0  0  0  0  0  0  0  0  0  0
  152.7675  141.9517  160.6731 O   0  0  0  0  0  0  0  0  0  0  0  0
  155.4088  139.8916  160.5158 H   0  0  0  0  0  0  0  0  0  0  0  0
  153.9974  139.7545  161.5636 H   0  0  0  0  0  0  0  0  0  0  0  0
  155.0761  141.1401  161.7127 H   0  0  0  0  0  0  0  0  0  0  0  0
  154.4342  141.9205  159.4514 H   0  0  0  0  0  0  0  0  0  0  0  0
  153.8831  139.7705  158.3702 H   0  0  0  0  0  0  0  0  0  0  0  0
  152.5309  139.5162  159.4661 H   0  0  0  0  0  0  0  0  0  0  0  0
  152.8228  138.2133  154.7462 H   0  0  0  0  0  0  0  0  0  0  0  0
  147.7220  142.0353  155.6601 H   0  0  0  0  0  0  0  0  0  0  0  0
  147.5298  140.9916  153.3460 H   0  0  0  0  0  0  0  0  0  0  0  0
  148.8942  140.1048  152.7201 H   0  0  0  0  0  0  0  0  0  0  0  0
  148.5840  137.3653  153.2805 H   0  0  0  0  0  0  0  0  0  0  0  0
  146.8572  139.0524  155.8469 H   0  0  0  0  0  0  0  0  0  0  0  0
  145.7571  139.8123  154.7242 H   0  0  0  0  0  0  0  0  0  0  0  0
  146.0240  136.7974  155.1880 H   0  0  0  0  0  0  0  0  0  0  0  0
  144.6842  137.8244  155.6507 H   0  0  0  0  0  0  0  0  0  0  0  0
  146.3707  136.3464  152.8254 H   0  0  0  0  0  0  0  0  0  0  0  0
  145.2636  137.0591  151.6713 H   0  0  0  0  0  0  0  0  0  0  0  0
  146.1334  139.3069  152.0764 H   0  0  0  0  0  0  0  0  0  0  0  0
  147.4663  138.2661  151.6471 H   0  0  0  0  0  0  0  0  0  0  0  0
  150.6279  142.4236  158.1094 H   0  0  0  0  0  0  0  0  0  0  0  0
  150.5505  141.1223  159.2742 H   0  0  0  0  0  0  0  0  0  0  0  0
  151.1102  143.1018  160.4942 H   0  0  0  0  0  0  0  0  0  0  0  0
  153.6785  143.9275  159.3680 H   0  0  0  0  0  0  0  0  0  0  0  0
  150.9342  145.3575  159.6432 H   0  0  0  0  0  0  0  0  0  0  0  0
  152.5769  146.1496  159.4042 H   0  0  0  0  0  0  0  0  0  0  0  0
  152.8666  144.8954  157.2400 H   0  0  0  0  0  0  0  0  0  0  0  0
  151.2214  144.1086  157.4781 H   0  0  0  0  0  0  0  0  0  0  0  0
  1  2  1  0  0  0  0
  1 28  1  0  0  0  0
  1 29  1  0  0  0  0
  1 30  1  0  0  0  0
  2 27  1  0  0  0  0
  2  3  1  0  0  0  0
  2 31  1  0  0  0  0
  3  4  1  0  0  0  0
  3 32  1  0  0  0  0
  3 33  1  0  0  0  0
  4  5  1  0  0  0  0
  4 22  1  0  0  0  0
  5 10  1  0  0  0  0
  5  6  2  0  0  0  0
  6  7  1  0  0  0  0
  7  8  2  0  0  0  0
  7 34  1  0  0  0  0
  8  9  1  0  0  0  0
  9 13  1  0  0  0  0
  9 10  2  0  0  0  0
 10 11  1  0  0  0  0
 11 12  2  0  0  0  0
 12 13  1  0  0  0  0
 12 35  1  0  0  0  0
 13 14  1  0  0  0  0
 14 15  1  0  0  0  0
 14 36  1  0  0  0  0
 14 37  1  0  0  0  0
 15 21  1  0  0  0  0
 15 16  1  0  0  0  0
 15 17  1  0  0  0  0
 16 38  1  0  0  0  0
 17 18  1  0  0  0  0
 17 39  1  0  0  0  0
 17 40  1  0  0  0  0
 18 19  1  0  0  0  0
 18 41  1  0  0  0  0
 18 42  1  0  0  0  0
 19 20  1  0  0  0  0
 20 21  1  0  0  0  0
 20 43  1  0  0  0  0
 20 44  1  0  0  0  0
 21 45  1  0  0  0  0
 21 46  1  0  0  0  0
 22 23  1  0  0  0  0
 22 47  1  0  0  0  0
 22 48  1  0  0  0  0
 23 24  1  0  0  0  0
 23 27  1  0  0  0  0
 23 49  1  0  0  0  0
 24 26  1  0  0  0  0
 24 25  1  0  0  0  0
 24 50  1  0  0  0  0
 25 26  1  0  0  0  0
 25 51  1  0  0  0  0
 25 52  1  0  0  0  0
 26 53  1  0  0  0  0
 26 54  1  0  0  0  0
M  END
> <s_m_source_file>
AV-unprocessed.smi

> <i_m_source_file_index>
239

> <i_lp_mmshare_version>
43012

> <i_f3d_flags>
0

> <s_epik_input>
W0NIMl0xW0NIMl1bQ0hdMVtDQEBIXShPMilbQ0gyXU4oW0NIMl1bQ0BIXTJbQ0gzXSljKG5bY0hdbjMpYyhjMzQpbltjSF1uNFtDSDJdQzUoW09IXSlbQ0gyXVtDSDJdT1tDSDJdW0NIMl01

> <s_epik_cmdline>
J2VwaWtfcHl0aG9uJywgJy1waCcsICc3LjAnLCAnLXRuJywgJzgnLCAnLW1hJywgJzIwMCcsICctbWV0YWxfYmluZGluZycsICctaW1hZScsICc8aW5maWxlLm1hZT4nLCAnLW9tYWUnLCAnPG91dGZpbGUubWFlPic=

> <r_lp_tautomer_probability>
1

> <r_epik_Ionization_Penalty>
9.13091e-05

> <r_epik_Ionization_Penalty_Charging>
0

> <r_epik_Ionization_Penalty_Neutral>
9.13091e-05

> <r_epik_State_Penalty>
-0

> <r_epik_Charging_Adjusted_Penalty>
0

> <i_epik_Tot_Q>
0

> <i_epik_Tot_abs_Q>
0

> <r_epik_Metal_State_Penalty>
-0

> <b_epik_Metal_Only>
0

> <s_lp_Force_Field>
OPLS_2005

> <r_lp_Energy>
39.3472

> <b_lp_Chiralities_Consistent>
1

> <s_lp_Variant>
AV-unprocessed.smi:239-4

> <Gold.Version>
5.8.1

> <Gold.Id.Protein>
6NUR|6NUR_protein|mol2

> <Gold.PLP.Fitness>
57.0318

> <Gold.PLP.PLP>
-52.7442

> <Gold.PLP.part.hbond>
-3.0000

> <Gold.PLP.part.metal>
0.0000

> <Gold.PLP.part.buried>
-1.0619

> <Gold.PLP.part.nonpolar>
-49.5980

> <Gold.PLP.part.repulsive>
0.8817

> <Gold.PLP.ligand.clash>
0.4029

> <Gold.PLP.ligand.torsion>
1.7323

> <Gold.PLP.Chemscore.Hbond>
2.0000

> <Gold.PLP.Chemscore.CHOScore>
0.2093

> <Gold.PLP.Chemscore.Metal>
0.0000

> <Gold.Chemscore.Hbonds>
donor molecule, donor type, donor heavy atom, donor atom, acceptor molecule, acceptor atom, score
      L1  H    16    38       P1  7948  1.00
      P1  H  7997  8009       L1     6  1.00
      L1  C    12    35       P1  8028  0.02

> <Gold.PLP.Chemscore.Internal.Correction>
1.5271

> <Gold.Rescore>
     Score         DG    S(hbond)    S(metal)    S(lipo)     H(rot)  DE(clash)    DE(int)     intcor
     15.58     -20.13       1.82        0.00     122.31       2.24       1.39       3.15       ----

> <Gold.Chemscore.Fitness>
15.5831

> <Gold.Chemscore.DG>
-20.1252

> <Gold.Chemscore.ZeroCoef>
-5.4800

> <Gold.Chemscore.Hbond>
1.8161

> <Gold.Chemscore.Metal>
0.0000

> <Gold.Chemscore.Lipo>
122.3115

> <Gold.Chemscore.Internal_Hbond>
0.0000

> <Gold.Chemscore.DEClash>
1.3947

> <Gold.Chemscore.DEInternal>
3.1473

> <Gold.Chemscore.Rot>
2.2387

> <Gold.Chemscore.Internal.Correction>
   9.000000E+99

> <Gold.Chemscore.Hbonds>
donor molecule, donor type, donor heavy atom, donor atom, acceptor molecule, acceptor atom, score
      L1  H    16    38       P1  7948  1.00
      P1  H  7997  8009       L1     6  0.60

> <Gold.Chemscore.Hbond.Weighted>
-6.0658

> <Gold.Chemscore.Metal.Weighted>
-0.0000

> <Gold.Chemscore.Lipo.Weighted>
-14.3104

> <Gold.Chemscore.Internal_Hbond.Weighted>
0.0000

> <Gold.Chemscore.DEClash.Weighted>
1.3947

> <Gold.Chemscore.DEInternal.Weighted>
3.1473

> <Gold.Chemscore.Rot.Weighted>
5.7311

> <Gold.Chemscore.Internal.Correction.Weighted>
   9.000000E+99

> <Gold.Protein.RotatedTorsions>
[ 6907 6896 6895 6894 ] final -154.13 input  -60.11 | X-H torsion
[ 7974 7965 7964 7962 ] final  102.49 input  175.53 | X-H torsion
[ 8008 7997 7996 7995 ] final -147.70 input   59.86 | X-H torsion
[ 10167 10162 10161 10158 ] final  152.95 input  -65.29 | X-H torsion
[ 10718 10713 10712 10709 ] final  -77.86 input   66.30 | X-H torsion
[ 10763 10752 10751 10750 ] final  131.94 input  -60.55 | X-H torsion
[ 11005 11000 10999 10996 ] final  106.04 input  -57.11 | X-H torsion

> <Gold.Protein.ActiveResidues>
 VAL166  LYS551  ARG553  GLY616  TRP617  ASP618  TYR619  PRO620  LYS621  CYS622 
 ASP623  PHE694  ASN695  SER759  ASP760  ASP761  ALA762  ILE779  LEU786  VAL792 
 PHE793  MET794  SER795  GLU796  ALA797  LYS798  CYS799  TRP800  GLU811  SER814 

> <Gold.Protein.RotatedAtoms>
  151.2528  133.4341  159.2612 H   0  0  0  0  0  0  0  0  0  0  0  0  # atno 6907 bound_to 6896
  151.0601  134.9731  159.8266 H   0  0  0  0  0  0  0  0  0  0  0  0  # atno 6908 bound_to 6896
  152.5397  134.2479  159.8940 H   0  0  0  0  0  0  0  0  0  0  0  0  # atno 6909 bound_to 6896
  145.3584  139.2423  143.3520 H   0  0  0  0  0  0  0  0  0  0  0  0  # atno 7974 bound_to 7965
  155.5797  140.0642  157.2786 H   0  0  0  0  0  0  0  0  0  0  0  0  # atno 8008 bound_to 7997
  154.4336  140.1854  156.1010 H   0  0  0  0  0  0  0  0  0  0  0  0  # atno 8009 bound_to 7997
  156.0314  140.3306  155.7147 H   0  0  0  0  0  0  0  0  0  0  0  0  # atno 8010 bound_to 7997
  139.4830  144.5315  151.7715 H   0  0  0  0  0  0  0  0  0  0  0  0  # atno 10167 bound_to 10162
  156.0133  130.4502  150.3409 H   0  0  0  0  0  0  0  0  0  0  0  0  # atno 10718 bound_to 10713
  153.7826  135.3166  155.3368 H   0  0  0  0  0  0  0  0  0  0  0  0  # atno 10763 bound_to 10752
  154.8156  135.4638  154.0636 H   0  0  0  0  0  0  0  0  0  0  0  0  # atno 10764 bound_to 10752
  153.1929  135.6911  153.8414 H   0  0  0  0  0  0  0  0  0  0  0  0  # atno 10765 bound_to 10752
  139.8809  134.9356  156.5606 H   0  0  0  0  0  0  0  0  0  0  0  0  # atno 11005 bound_to 11000
  146.2938  140.4213  142.8729 LP  0  0  0  0  0  0  0  0  0  0  0  0  # atno 17320 bound_to 7965
  144.8665  140.7213  143.6074 LP  0  0  0  0  0  0  0  0  0  0  0  0  # atno 17321 bound_to 7965
  140.4842  144.1406  150.5938 LP  0  0  0  0  0  0  0  0  0  0  0  0  # atno 17342 bound_to 10162
  140.4244  143.2596  151.9675 LP  0  0  0  0  0  0  0  0  0  0  0  0  # atno 17343 bound_to 10162
  157.1504  131.0319  151.2887 LP  0  0  0  0  0  0  0  0  0  0  0  0  # atno 17370 bound_to 10713
  157.4397  130.7537  149.7058 LP  0  0  0  0  0  0  0  0  0  0  0  0  # atno 17371 bound_to 10713
  140.8172  133.8382  155.8863 LP  0  0  0  0  0  0  0  0  0  0  0  0  # atno 17394 bound_to 11000
  140.9452  134.1850  157.4769 LP  0  0  0  0  0  0  0  0  0  0  0  0  # atno 17395 bound_to 11000

$$$$
