AV-unprocessed.smi:786|AV-procd|sdf|3723|dock3
  -GOLD-   22720 1153D 1   1.00000     0.00000
 Structure written by MMmdl.
 38 39  0  0  0  0  0  0  0  0  2 V2000
  152.7928  135.1574  157.3389 O   0  0  0  0  0  0  0  0  0  0  0  0
  152.2351  136.3902  157.9205 S   0  0  0  0  0  0  0  0  0  0  0  0
  152.6803  136.7364  159.2781 O   0  0  0  0  0  0  0  0  0  0  0  0
  152.8026  137.7749  156.8168 C   0  0  0  0  0  0  0  0  0  0  0  0
  151.6485  138.5595  156.1534 C   0  0  0  0  0  0  0  0  0  0  0  0
  151.4553  138.1202  154.6923 C   0  0  0  0  0  0  0  0  0  0  0  0
  150.3456  138.9376  154.0111 C   0  0  0  0  0  0  0  0  0  0  0  0
  150.6478  140.3258  154.0848 O   0  0  0  0  0  0  0  0  0  0  0  0
  150.7172  140.8021  155.4242 C   0  0  0  0  0  0  0  0  0  0  0  0
  151.8490  140.0870  156.1804 C   0  0  0  0  0  0  0  0  0  0  0  0
  150.6148  136.4843  157.8040 N   0  5  0  0  0  0  0  0  0  0  0  0
  149.8062  137.0574  158.8721 C   0  0  0  0  0  0  0  0  0  0  0  0
  148.3169  136.6812  158.6966 C   0  0  0  0  0  0  0  0  0  0  0  0
  147.5985  136.2427  159.9714 C   0  0  0  0  0  0  0  0  0  0  0  0
  147.3566  134.8735  160.2288 C   0  0  0  0  0  0  0  0  0  0  0  0
  146.7050  134.5157  161.4247 C   0  0  0  0  0  0  0  0  0  0  0  0
  146.3258  135.5329  162.3211 C   0  0  0  0  0  0  0  0  0  0  0  0
  146.6158  136.8684  161.9793 C   0  0  0  0  0  0  0  0  0  0  0  0
  147.2384  137.2223  160.8355 N   0  0  0  0  0  0  0  0  0  0  0  0
  153.4167  138.4462  157.4171 H   0  0  0  0  0  0  0  0  0  0  0  0
  153.4666  137.3494  156.0652 H   0  0  0  0  0  0  0  0  0  0  0  0
  150.7245  138.3255  156.6834 H   0  0  0  0  0  0  0  0  0  0  0  0
  152.3882  138.2484  154.1415 H   0  0  0  0  0  0  0  0  0  0  0  0
  151.2115  137.0588  154.6480 H   0  0  0  0  0  0  0  0  0  0  0  0
  150.2588  138.6500  152.9633 H   0  0  0  0  0  0  0  0  0  0  0  0
  149.3772  138.7445  154.4739 H   0  0  0  0  0  0  0  0  0  0  0  0
  150.9002  141.8765  155.4059 H   0  0  0  0  0  0  0  0  0  0  0  0
  149.7599  140.6511  155.9257 H   0  0  0  0  0  0  0  0  0  0  0  0
  151.8864  140.4623  157.2010 H   0  0  0  0  0  0  0  0  0  0  0  0
  152.8051  140.3430  155.7221 H   0  0  0  0  0  0  0  0  0  0  0  0
  150.1327  136.7310  159.8599 H   0  0  0  0  0  0  0  0  0  0  0  0
  149.8926  138.1442  158.8813 H   0  0  0  0  0  0  0  0  0  0  0  0
  147.7831  137.5422  158.2929 H   0  0  0  0  0  0  0  0  0  0  0  0
  148.2201  135.8983  157.9425 H   0  0  0  0  0  0  0  0  0  0  0  0
  147.6602  134.1151  159.5219 H   0  0  0  0  0  0  0  0  0  0  0  0
  146.4991  133.4799  161.6500 H   0  0  0  0  0  0  0  0  0  0  0  0
  145.8221  135.2965  163.2465 H   0  0  0  0  0  0  0  0  0  0  0  0
  146.3371  137.6748  162.6411 H   0  0  0  0  0  0  0  0  0  0  0  0
  1  2  2  0  0  0  0
  2  3  2  0  0  0  0
  2  4  1  0  0  0  0
  2 11  1  0  0  0  0
  4  5  1  0  0  0  0
  4 20  1  0  0  0  0
  4 21  1  0  0  0  0
  5 10  1  0  0  0  0
  5  6  1  0  0  0  0
  5 22  1  0  0  0  0
  6  7  1  0  0  0  0
  6 23  1  0  0  0  0
  6 24  1  0  0  0  0
  7  8  1  0  0  0  0
  7 25  1  0  0  0  0
  7 26  1  0  0  0  0
  8  9  1  0  0  0  0
  9 10  1  0  0  0  0
  9 27  1  0  0  0  0
  9 28  1  0  0  0  0
 10 29  1  0  0  0  0
 10 30  1  0  0  0  0
 11 12  1  0  0  0  0
 12 13  1  0  0  0  0
 12 31  1  0  0  0  0
 12 32  1  0  0  0  0
 13 14  1  0  0  0  0
 13 33  1  0  0  0  0
 13 34  1  0  0  0  0
 14 19  1  0  0  0  0
 14 15  2  0  0  0  0
 15 16  1  0  0  0  0
 15 35  1  0  0  0  0
 16 17  2  0  0  0  0
 16 36  1  0  0  0  0
 17 18  1  0  0  0  0
 17 37  1  0  0  0  0
 18 19  2  0  0  0  0
 18 38  1  0  0  0  0
M  CHG  1  11  -1
M  END
> <s_m_source_file>
AV-unprocessed.smi

> <i_m_source_file_index>
786

> <i_lp_mmshare_version>
43012

> <i_f3d_flags>
0

> <s_epik_input>
W0NIMl0xW0NIMl1PW0NIMl1bQ0gyXVtDSF0xW0NIMl1TKD1PKSg9TylbTkhdW0NIMl1bQ0gyXWMyW2NIXVtjSF1bY0hdW2NIXW4y

> <s_epik_cmdline>
J2VwaWtfcHl0aG9uJywgJy1waCcsICc3LjAnLCAnLXRuJywgJzgnLCAnLW1hJywgJzIwMCcsICctbWV0YWxfYmluZGluZycsICctaW1hZScsICc8aW5maWxlLm1hZT4nLCAnLW9tYWUnLCAnPG91dGZpbGUubWFlPic=

> <r_epik_Ionization_Penalty>
6.60618

> <r_epik_Ionization_Penalty_Charging>
6.53386

> <r_epik_Ionization_Penalty_Neutral>
0.0723214

> <r_epik_State_Penalty>
6.55045

> <r_epik_Charging_Adjusted_Penalty>
13.0843

> <i_epik_Tot_Q>
-1

> <i_epik_Tot_abs_Q>
1

> <r_epik_Metal_State_Penalty>
2.49618

> <b_epik_Metal_Only>
1

> <s_lp_Force_Field>
OPLS_2005

> <r_lp_Energy>
5.55421

> <b_lp_Chiralities_Consistent>
1

> <s_lp_Variant>
AV-unprocessed.smi:786-3

> <Gold.Version>
5.8.1

> <Gold.Id.Protein>
6NUR|6NUR_protein|mol2

> <Gold.PLP.Fitness>
48.2468

> <Gold.PLP.PLP>
-37.3529

> <Gold.PLP.part.hbond>
-5.8387

> <Gold.PLP.part.metal>
0.0000

> <Gold.PLP.part.buried>
-2.1051

> <Gold.PLP.part.nonpolar>
-29.6345

> <Gold.PLP.part.repulsive>
0.1228

> <Gold.PLP.ligand.clash>
0.0000

> <Gold.PLP.ligand.torsion>
1.7598

> <Gold.PLP.Chemscore.Hbond>
4.4360

> <Gold.PLP.Chemscore.CHOScore>
0.0000

> <Gold.PLP.Chemscore.Metal>
0.0000

> <Gold.Chemscore.Hbonds>
donor molecule, donor type, donor heavy atom, donor atom, acceptor molecule, acceptor atom, score
      P1  H  6896  6908       L1     3  0.56
      P1  H  6931  6943       L1    19  0.15
      P1  H  6934  6947       L1    19  1.00
      P1  H  7989  7998       L1     8  0.32
      P1  H 10752 10764       L1     1  0.70

> <Gold.PLP.Chemscore.Internal.Correction>
1.1055

> <Gold.Rescore>
     Score         DG    S(hbond)    S(metal)    S(lipo)     H(rot)  DE(clash)    DE(int)     intcor
     18.13     -19.85       2.81        0.00      76.88       1.57       0.07       1.64       ----

> <Gold.Chemscore.Fitness>
18.1344

> <Gold.Chemscore.DG>
-19.8472

> <Gold.Chemscore.ZeroCoef>
-5.4800

> <Gold.Chemscore.Hbond>
2.8149

> <Gold.Chemscore.Metal>
0.0000

> <Gold.Chemscore.Lipo>
76.8774

> <Gold.Chemscore.Internal_Hbond>
0.0000

> <Gold.Chemscore.DEClash>
0.0688

> <Gold.Chemscore.DEInternal>
1.6440

> <Gold.Chemscore.Rot>
1.5740

> <Gold.Chemscore.Internal.Correction>
   9.000000E+99

> <Gold.Chemscore.Hbonds>
donor molecule, donor type, donor heavy atom, donor atom, acceptor molecule, acceptor atom, score
      P1  H  6896  6908       L1     3  0.05
      P1  H  6931  6943       L1    19  0.02
      P1  H  6934  6947       L1    19  0.34
      P1  H  7989  7998       L1     8  0.18
      P1  H 10752 10764       L1     1  0.60

> <Gold.Chemscore.Hbond.Weighted>
-9.4018

> <Gold.Chemscore.Metal.Weighted>
-0.0000

> <Gold.Chemscore.Lipo.Weighted>
-8.9947

> <Gold.Chemscore.Internal_Hbond.Weighted>
0.0000

> <Gold.Chemscore.DEClash.Weighted>
0.0688

> <Gold.Chemscore.DEInternal.Weighted>
1.6440

> <Gold.Chemscore.Rot.Weighted>
4.0293

> <Gold.Chemscore.Internal.Correction.Weighted>
   9.000000E+99

> <Gold.Protein.RotatedTorsions>
[ 6907 6896 6895 6894 ] final  -78.85 input  -60.11 | X-H torsion
[ 7974 7965 7964 7962 ] final  150.89 input  175.53 | X-H torsion
[ 8008 7997 7996 7995 ] final -175.27 input   59.86 | X-H torsion
[ 10167 10162 10161 10158 ] final  157.19 input  -65.29 | X-H torsion
[ 10718 10713 10712 10709 ] final  150.06 input   66.30 | X-H torsion
[ 10763 10752 10751 10750 ] final   -8.75 input  -60.55 | X-H torsion
[ 11005 11000 10999 10996 ] final -143.84 input  -57.11 | X-H torsion

> <Gold.Protein.ActiveResidues>
 VAL166  LYS551  ARG553  GLY616  TRP617  ASP618  TYR619  PRO620  LYS621  CYS622 
 ASP623  PHE694  ASN695  SER759  ASP760  ASP761  ALA762  ILE779  LEU786  VAL792 
 PHE793  MET794  SER795  GLU796  ALA797  LYS798  CYS799  TRP800  GLU811  SER814 

> <Gold.Protein.RotatedAtoms>
  150.6963  134.4209  159.5204 H   0  0  0  0  0  0  0  0  0  0  0  0  # atno 6907 bound_to 6896
  152.1952  134.8634  160.0522 H   0  0  0  0  0  0  0  0  0  0  0  0  # atno 6908 bound_to 6896
  151.9574  133.3650  159.4059 H   0  0  0  0  0  0  0  0  0  0  0  0  # atno 6909 bound_to 6896
  144.8331  139.6467  143.6050 H   0  0  0  0  0  0  0  0  0  0  0  0  # atno 7974 bound_to 7965
  155.9804  140.1180  157.0731 H   0  0  0  0  0  0  0  0  0  0  0  0  # atno 8008 bound_to 7997
  154.4181  140.1145  156.5496 H   0  0  0  0  0  0  0  0  0  0  0  0  # atno 8009 bound_to 7997
  155.6478  140.3473  155.4739 H   0  0  0  0  0  0  0  0  0  0  0  0  # atno 8010 bound_to 7997
  139.4822  144.4940  151.8266 H   0  0  0  0  0  0  0  0  0  0  0  0  # atno 10167 bound_to 10162
  157.2883  131.0848  151.1481 H   0  0  0  0  0  0  0  0  0  0  0  0  # atno 10718 bound_to 10713
  153.4450  135.7014  153.6145 H   0  0  0  0  0  0  0  0  0  0  0  0  # atno 10763 bound_to 10752
  153.4504  135.3759  155.2280 H   0  0  0  0  0  0  0  0  0  0  0  0  # atno 10764 bound_to 10752
  154.8728  135.3995  154.3854 H   0  0  0  0  0  0  0  0  0  0  0  0  # atno 10765 bound_to 10752
  140.8085  134.2772  157.4950 H   0  0  0  0  0  0  0  0  0  0  0  0  # atno 11005 bound_to 11000
  146.2632  139.6459  142.9347 LP  0  0  0  0  0  0  0  0  0  0  0  0  # atno 17320 bound_to 7965
  145.4852  141.0438  143.2623 LP  0  0  0  0  0  0  0  0  0  0  0  0  # atno 17321 bound_to 7965
  140.4427  144.1964  150.5892 LP  0  0  0  0  0  0  0  0  0  0  0  0  # atno 17342 bound_to 10162
  140.4666  143.2428  151.9147 LP  0  0  0  0  0  0  0  0  0  0  0  0  # atno 17343 bound_to 10162
  157.2887  130.6786  149.6103 LP  0  0  0  0  0  0  0  0  0  0  0  0  # atno 17370 bound_to 10713
  155.9666  130.4427  150.5392 LP  0  0  0  0  0  0  0  0  0  0  0  0  # atno 17371 bound_to 10713
  139.8716  134.9470  156.3954 LP  0  0  0  0  0  0  0  0  0  0  0  0  # atno 17394 bound_to 11000
  140.9222  133.7637  155.9920 LP  0  0  0  0  0  0  0  0  0  0  0  0  # atno 17395 bound_to 11000

$$$$
