AV-unprocessed.smi:2881|AV-procd|sdf|11068|dock6
  -GOLD-   2272015543D 1   1.00000     0.00000
 Structure written by MMmdl.
 40 42  0  0  0  0  0  0  0  0  1 V2000
  148.2327  141.2664  154.4440 C   0  0  0  0  0  0  0  0  0  0  0  0
  147.8226  140.0753  153.6291 C   0  0  0  0  0  0  0  0  0  0  0  0
  146.8170  140.0021  152.6207 C   0  0  0  0  0  0  0  0  0  0  0  0
  146.8511  138.7009  152.2027 C   0  0  0  0  0  0  0  0  0  0  0  0
  146.0509  137.9735  151.1707 C   0  0  0  0  0  0  0  0  0  0  0  0
  145.4817  136.6735  151.7373 C   0  0  0  0  0  0  0  0  0  0  0  0
  144.2832  136.5908  152.0051 O   0  0  0  0  0  0  0  0  0  0  0  0
  146.3501  135.6662  151.9126 N   0  0  0  0  0  0  0  0  0  0  0  0
  146.0056  134.3476  152.4388 C   0  0  1  0  0  0  0  0  0  0  0  0
  144.6969  133.7683  151.8436 C   0  0  1  0  0  0  0  0  0  0  0  0
  144.7093  133.8101  150.3002 C   0  0  0  0  0  0  0  0  0  0  0  0
  145.7658  132.7478  149.9440 C   0  0  0  0  0  0  0  0  0  0  0  0
  146.1960  132.2173  151.3257 C   0  0  2  0  0  0  0  0  0  0  0  0
  144.8816  132.2777  152.0959 C   0  0  0  0  0  0  0  0  0  0  0  0
  147.0616  133.2851  152.0379 C   0  0  2  0  0  0  0  0  0  0  0  0
  147.8463  132.7420  153.2481 C   0  0  0  0  0  0  0  0  0  0  0  0
  148.5964  131.6044  152.8781 O   0  0  0  0  0  0  0  0  0  0  0  0
  147.8301  138.0846  152.9491 N   0  0  0  0  0  0  0  0  0  0  0  0
  148.4302  138.9141  153.8227 N   0  0  0  0  0  0  0  0  0  0  0  0
  148.0971  137.1132  152.8711 H   0  0  0  0  0  0  0  0  0  0  0  0
  147.7658  142.1783  154.0711 H   0  0  0  0  0  0  0  0  0  0  0  0
  149.3128  141.4121  154.4144 H   0  0  0  0  0  0  0  0  0  0  0  0
  147.9400  141.1464  155.4873 H   0  0  0  0  0  0  0  0  0  0  0  0
  146.1695  140.7872  152.2593 H   0  0  0  0  0  0  0  0  0  0  0  0
  146.6721  137.7518  150.3019 H   0  0  0  0  0  0  0  0  0  0  0  0
  145.2339  138.6026  150.8149 H   0  0  0  0  0  0  0  0  0  0  0  0
  147.3169  135.8221  151.6667 H   0  0  0  0  0  0  0  0  0  0  0  0
  145.9191  134.4011  153.5262 H   0  0  0  0  0  0  0  0  0  0  0  0
  143.7939  134.1950  152.2814 H   0  0  0  0  0  0  0  0  0  0  0  0
  143.7351  133.5210  149.9040 H   0  0  0  0  0  0  0  0  0  0  0  0
  144.9459  134.7925  149.8914 H   0  0  0  0  0  0  0  0  0  0  0  0
  145.3210  131.9532  149.3437 H   0  0  0  0  0  0  0  0  0  0  0  0
  146.6009  133.1635  149.3791 H   0  0  0  0  0  0  0  0  0  0  0  0
  146.6557  131.2297  151.2801 H   0  0  0  0  0  0  0  0  0  0  0  0
  144.9785  132.0265  153.1529 H   0  0  0  0  0  0  0  0  0  0  0  0
  144.0943  131.6623  151.6569 H   0  0  0  0  0  0  0  0  0  0  0  0
  147.7815  133.7034  151.3316 H   0  0  0  0  0  0  0  0  0  0  0  0
  148.5373  133.5002  153.6177 H   0  0  0  0  0  0  0  0  0  0  0  0
  147.1826  132.4831  154.0732 H   0  0  0  0  0  0  0  0  0  0  0  0
  148.4191  131.4092  151.9706 H   0  0  0  0  0  0  0  0  0  0  0  0
  1 21  1  0  0  0  0
  1 22  1  0  0  0  0
  1 23  1  0  0  0  0
  1  2  1  0  0  0  0
  2 19  2  0  0  0  0
  2  3  1  0  0  0  0
  3  4  2  0  0  0  0
  3 24  1  0  0  0  0
  4 18  1  0  0  0  0
  4  5  1  0  0  0  0
  5  6  1  0  0  0  0
  5 25  1  0  0  0  0
  5 26  1  0  0  0  0
  6  7  2  0  0  0  0
  6  8  1  0  0  0  0
  8  9  1  0  0  0  0
  8 27  1  0  0  0  0
  9 15  1  0  0  0  0
  9 10  1  0  0  0  0
  9 28  1  0  0  0  0
 10 14  1  0  0  0  0
 10 11  1  0  0  0  0
 10 29  1  0  0  0  0
 11 12  1  0  0  0  0
 11 30  1  0  0  0  0
 11 31  1  0  0  0  0
 12 13  1  0  0  0  0
 12 32  1  0  0  0  0
 12 33  1  0  0  0  0
 13 14  1  0  0  0  0
 13 15  1  0  0  0  0
 13 34  1  0  0  0  0
 14 35  1  0  0  0  0
 14 36  1  0  0  0  0
 15 16  1  0  0  0  0
 15 37  1  0  0  0  0
 16 17  1  0  0  0  0
 16 38  1  0  0  0  0
 16 39  1  0  0  0  0
 17 40  1  0  0  0  0
 18 19  1  0  0  0  0
 18 20  1  0  0  0  0
M  END
> <s_m_source_file>
AV-unprocessed.smi

> <i_m_source_file_index>
2881

> <i_lp_mmshare_version>
43012

> <i_f3d_flags>
0

> <s_epik_input>
W0NIM11jMVtjSF1jKG5bbkhdMSlbQ0gyXUMoPU8pW05IXVtDQEhdKFtDQEBIXTIzKVtDQEhdKFtDSDJdW09IXSlbQ0BASF0oW0NIMl0zKVtDSDJdW0NIMl0y

> <s_epik_cmdline>
J2VwaWtfcHl0aG9uJywgJy1waCcsICc3LjAnLCAnLXRuJywgJzgnLCAnLW1hJywgJzIwMCcsICctbWV0YWxfYmluZGluZycsICctaW1hZScsICc8aW5maWxlLm1hZT4nLCAnLW9tYWUnLCAnPG91dGZpbGUubWFlPic=

> <r_lp_tautomer_probability>
0.5

> <r_epik_Ionization_Penalty>
0.00013396

> <r_epik_Ionization_Penalty_Charging>
0

> <r_epik_Ionization_Penalty_Neutral>
0.00013396

> <r_epik_State_Penalty>
0.41068

> <r_epik_Charging_Adjusted_Penalty>
0.41068

> <i_epik_Tot_Q>
0

> <i_epik_Tot_abs_Q>
0

> <r_epik_Metal_State_Penalty>
0.41066

> <b_epik_Metal_Only>
0

> <s_lp_Force_Field>
OPLS_2005

> <r_lp_Energy>
46.8949

> <b_lp_Chiralities_Consistent>
1

> <s_lp_Variant>
AV-unprocessed.smi:2881-14

> <Gold.Version>
5.8.1

> <Gold.Id.Protein>
6NUR|6NUR_protein|mol2

> <Gold.PLP.Fitness>
39.2597

> <Gold.PLP.PLP>
-32.2055

> <Gold.PLP.part.hbond>
-3.1867

> <Gold.PLP.part.metal>
0.0000

> <Gold.PLP.part.buried>
4.5257

> <Gold.PLP.part.nonpolar>
-34.0367

> <Gold.PLP.part.repulsive>
1.3767

> <Gold.PLP.ligand.clash>
0.0000

> <Gold.PLP.ligand.torsion>
0.5639

> <Gold.PLP.Chemscore.Hbond>
2.7200

> <Gold.PLP.Chemscore.CHOScore>
0.0000

> <Gold.PLP.Chemscore.Metal>
0.0000

> <Gold.Chemscore.Hbonds>
donor molecule, donor type, donor heavy atom, donor atom, acceptor molecule, acceptor atom, score
      L1  H     8    27       P1  7948  1.00
      L1  H    17    40       P1 10747  0.99
      L1  H    18    20       P1  7948  0.70

> <Gold.PLP.Chemscore.Internal.Correction>
0.0219

> <Gold.Rescore>
     Score         DG    S(hbond)    S(metal)    S(lipo)     H(rot)  DE(clash)    DE(int)     intcor
     15.24     -19.19       2.68        0.00      90.49       2.28       1.36       2.59       ----

> <Gold.Chemscore.Fitness>
15.2381

> <Gold.Chemscore.DG>
-19.1940

> <Gold.Chemscore.ZeroCoef>
-5.4800

> <Gold.Chemscore.Hbond>
2.6803

> <Gold.Chemscore.Metal>
0.0000

> <Gold.Chemscore.Lipo>
90.4879

> <Gold.Chemscore.Internal_Hbond>
0.0000

> <Gold.Chemscore.DEClash>
1.3618

> <Gold.Chemscore.DEInternal>
2.5941

> <Gold.Chemscore.Rot>
2.2755

> <Gold.Chemscore.Internal.Correction>
   9.000000E+99

> <Gold.Chemscore.Hbonds>
donor molecule, donor type, donor heavy atom, donor atom, acceptor molecule, acceptor atom, score
      L1  H     8    27       P1  7948  1.00
      L1  H    17    40       P1 10747  0.94
      L1  H    18    20       P1  7948  0.70

> <Gold.Chemscore.Hbond.Weighted>
-8.9521

> <Gold.Chemscore.Metal.Weighted>
-0.0000

> <Gold.Chemscore.Lipo.Weighted>
-10.5871

> <Gold.Chemscore.Internal_Hbond.Weighted>
0.0000

> <Gold.Chemscore.DEClash.Weighted>
1.3618

> <Gold.Chemscore.DEInternal.Weighted>
2.5941

> <Gold.Chemscore.Rot.Weighted>
5.8252

> <Gold.Chemscore.Internal.Correction.Weighted>
   9.000000E+99

> <Gold.Protein.RotatedTorsions>
[ 6907 6896 6895 6894 ] final  139.10 input  -60.11 | X-H torsion
[ 7974 7965 7964 7962 ] final  131.18 input  175.53 | X-H torsion
[ 8008 7997 7996 7995 ] final  107.45 input   59.86 | X-H torsion
[ 10167 10162 10161 10158 ] final  171.23 input  -65.29 | X-H torsion
[ 10718 10713 10712 10709 ] final  128.13 input   66.30 | X-H torsion
[ 10763 10752 10751 10750 ] final -143.46 input  -60.55 | X-H torsion
[ 11005 11000 10999 10996 ] final  125.94 input  -57.11 | X-H torsion

> <Gold.Protein.ActiveResidues>
 VAL166  LYS551  ARG553  GLY616  TRP617  ASP618  TYR619  PRO620  LYS621  CYS622 
 ASP623  PHE694  ASN695  SER759  ASP760  ASP761  ALA762  ILE779  LEU786  VAL792 
 PHE793  MET794  SER795  GLU796  ALA797  LYS798  CYS799  TRP800  GLU811  SER814 

> <Gold.Protein.RotatedAtoms>
  152.2589  133.5280  159.5369 H   0  0  0  0  0  0  0  0  0  0  0  0  # atno 6907 bound_to 6896
  150.7118  134.0857  159.3922 H   0  0  0  0  0  0  0  0  0  0  0  0  # atno 6908 bound_to 6896
  151.8775  135.0466  160.0536 H   0  0  0  0  0  0  0  0  0  0  0  0  # atno 6909 bound_to 6896
  145.0101  139.4229  143.5249 H   0  0  0  0  0  0  0  0  0  0  0  0  # atno 7974 bound_to 7965
  156.1825  140.3094  155.9176 H   0  0  0  0  0  0  0  0  0  0  0  0  # atno 8008 bound_to 7997
  155.3353  140.0463  157.3060 H   0  0  0  0  0  0  0  0  0  0  0  0  # atno 8009 bound_to 7997
  154.5358  140.2245  155.8734 H   0  0  0  0  0  0  0  0  0  0  0  0  # atno 8010 bound_to 7997
  139.5041  144.3509  151.9924 H   0  0  0  0  0  0  0  0  0  0  0  0  # atno 10167 bound_to 10162
  157.5272  131.1098  150.9065 H   0  0  0  0  0  0  0  0  0  0  0  0  # atno 10718 bound_to 10713
  154.8469  135.3467  154.6191 H   0  0  0  0  0  0  0  0  0  0  0  0  # atno 10763 bound_to 10752
  153.6799  135.6980  153.5125 H   0  0  0  0  0  0  0  0  0  0  0  0  # atno 10764 bound_to 10752
  153.2676  135.4303  155.0912 H   0  0  0  0  0  0  0  0  0  0  0  0  # atno 10765 bound_to 10752
  139.9431  134.9633  156.8632 H   0  0  0  0  0  0  0  0  0  0  0  0  # atno 11005 bound_to 11000
  146.3468  139.9539  142.8725 LP  0  0  0  0  0  0  0  0  0  0  0  0  # atno 17320 bound_to 7965
  145.2035  140.9865  143.4142 LP  0  0  0  0  0  0  0  0  0  0  0  0  # atno 17321 bound_to 7965
  140.2945  144.3716  150.6078 LP  0  0  0  0  0  0  0  0  0  0  0  0  # atno 17342 bound_to 10162
  140.5921  143.2168  151.7234 LP  0  0  0  0  0  0  0  0  0  0  0  0  # atno 17343 bound_to 10162
  156.9657  130.5472  149.5288 LP  0  0  0  0  0  0  0  0  0  0  0  0  # atno 17370 bound_to 10713
  156.0395  130.5479  150.8737 LP  0  0  0  0  0  0  0  0  0  0  0  0  # atno 17371 bound_to 10713
  140.5902  134.0269  155.7497 LP  0  0  0  0  0  0  0  0  0  0  0  0  # atno 17394 bound_to 11000
  141.1072  133.9674  157.2975 LP  0  0  0  0  0  0  0  0  0  0  0  0  # atno 17395 bound_to 11000

$$$$
