AV-unprocessed.smi:35|AV-procd|sdf|258|dock4
  -GOLD-   2262016 23D 1   1.00000     0.00000
 Structure written by MMmdl.
 29 30  0  0  0  0  0  0  0  0  1 V2000
  149.9472  136.3638  158.6524 O   0  0  0  0  0  0  0  0  0  0  0  0
  149.8020  137.0698  157.6568 C   0  0  0  0  0  0  0  0  0  0  0  0
  149.8451  138.4618  157.7659 N   0  0  0  0  0  0  0  0  0  0  0  0
  149.6884  139.3630  156.7114 C   0  0  0  0  0  0  0  0  0  0  0  0
  149.7744  140.5721  156.9211 O   0  0  0  0  0  0  0  0  0  0  0  0
  149.4362  138.8270  155.4269 N   0  0  0  0  0  0  0  0  0  0  0  0
  149.2868  139.7933  154.2623 C   0  0  1  0  0  0  0  0  0  0  0  0
  148.7270  139.1386  153.1645 O   0  0  0  0  0  0  0  0  0  0  0  0
  147.3160  139.3057  153.1802 C   0  0  2  0  0  0  0  0  0  0  0  0
  146.7526  139.0193  151.7797 C   0  0  0  0  0  0  0  0  0  0  0  0
  147.0363  137.6907  151.3959 O   0  0  0  0  0  0  0  0  0  0  0  0
  147.1468  140.7499  153.6593 C   0  0  1  0  0  0  0  0  0  0  0  0
  145.9225  140.8917  154.3520 O   0  0  0  0  0  0  0  0  0  0  0  0
  148.3287  140.9592  154.6069 C   0  0  2  0  0  0  0  0  0  0  0  0
  148.9311  142.2156  154.3663 O   0  0  0  0  0  0  0  0  0  0  0  0
  149.4271  137.4447  155.2661 C   0  0  0  0  0  0  0  0  0  0  0  0
  149.5885  136.5837  156.2986 C   0  0  0  0  0  0  0  0  0  0  0  0
  149.5382  134.6527  155.8575 Br  0  0  0  0  0  0  0  0  0  0  0  0
  150.0098  138.8484  158.6839 H   0  0  0  0  0  0  0  0  0  0  0  0
  150.3085  140.0984  154.0272 H   0  0  0  0  0  0  0  0  0  0  0  0
  146.8924  138.6109  153.9076 H   0  0  0  0  0  0  0  0  0  0  0  0
  145.6761  139.1887  151.7463 H   0  0  0  0  0  0  0  0  0  0  0  0
  147.2069  139.6906  151.0505 H   0  0  0  0  0  0  0  0  0  0  0  0
  147.6399  137.3194  152.0215 H   0  0  0  0  0  0  0  0  0  0  0  0
  147.1891  141.4395  152.8145 H   0  0  0  0  0  0  0  0  0  0  0  0
  145.2158  140.7959  153.7314 H   0  0  0  0  0  0  0  0  0  0  0  0
  148.0163  140.8994  155.6508 H   0  0  0  0  0  0  0  0  0  0  0  0
  148.7931  142.7649  155.1224 H   0  0  0  0  0  0  0  0  0  0  0  0
  149.2956  137.0092  154.2875 H   0  0  0  0  0  0  0  0  0  0  0  0
  1  2  2  0  0  0  0
  2 17  1  0  0  0  0
  2  3  1  0  0  0  0
  3 19  1  0  0  0  0
  3  4  1  0  0  0  0
  4  5  2  0  0  0  0
  4  6  1  0  0  0  0
  6  7  1  0  0  0  0
  6 16  1  0  0  0  0
  7 14  1  0  0  0  0
  7  8  1  0  0  0  0
  7 20  1  0  0  0  0
  8  9  1  0  0  0  0
  9 10  1  0  0  0  0
  9 12  1  0  0  0  0
  9 21  1  0  0  0  0
 10 11  1  0  0  0  0
 10 22  1  0  0  0  0
 10 23  1  0  0  0  0
 11 24  1  0  0  0  0
 12 13  1  0  0  0  0
 12 14  1  0  0  0  0
 12 25  1  0  0  0  0
 13 26  1  0  0  0  0
 14 15  1  0  0  0  0
 14 27  1  0  0  0  0
 15 28  1  0  0  0  0
 16 17  2  0  0  0  0
 16 29  1  0  0  0  0
 17 18  1  0  0  0  0
M  END
> <s_m_source_file>
AV-unprocessed.smi

> <i_m_source_file_index>
35

> <i_lp_mmshare_version>
43012

> <i_f3d_flags>
0

> <s_epik_input>
Tz1jMVtuSF1jKD1PKW4oW2NIXWMxQnIpW0NAQEhdMk9bQ0BASF0oW0NIMl1bT0hdKVtDQEBIXShbT0hdKVtDQEhdMltPSF0=

> <s_epik_cmdline>
J2VwaWtfcHl0aG9uJywgJy1waCcsICc3LjAnLCAnLXRuJywgJzgnLCAnLW1hJywgJzIwMCcsICctbWV0YWxfYmluZGluZycsICctaW1hZScsICc8aW5maWxlLm1hZT4nLCAnLW9tYWUnLCAnPG91dGZpbGUubWFlPic=

> <r_lp_tautomer_probability>
0.999537

> <r_epik_Ionization_Penalty>
0.10812

> <r_epik_Ionization_Penalty_Charging>
0.108119

> <r_epik_Ionization_Penalty_Neutral>
4.93006e-07

> <r_epik_State_Penalty>
0.0979238

> <r_epik_Charging_Adjusted_Penalty>
0.206043

> <i_epik_Tot_Q>
0

> <i_epik_Tot_abs_Q>
0

> <r_epik_Metal_State_Penalty>
3.07911

> <b_epik_Metal_Only>
0

> <s_epik_Chemistry_Notes>
This compound contains an acetal/aminal-like group ( X-CH(R)-Y where X, Y are N, S, or O) that may be acid/base labile, releasing an aldehyde.

> <s_lp_Force_Field>
OPLS_2005

> <r_lp_Energy>
26.4636

> <b_lp_Chiralities_Consistent>
1

> <s_lp_Variant>
AV-unprocessed.smi:35-12

> <Gold.Version>
5.8.1

> <Gold.Id.Protein>
6NUR|6NUR_protein|mol2

> <Gold.PLP.Fitness>
36.0154

> <Gold.PLP.PLP>
-20.2347

> <Gold.PLP.part.hbond>
-5.6207

> <Gold.PLP.part.metal>
0.0000

> <Gold.PLP.part.buried>
-2.9728

> <Gold.PLP.part.nonpolar>
-16.5773

> <Gold.PLP.part.repulsive>
5.1652

> <Gold.PLP.ligand.clash>
0.0000

> <Gold.PLP.ligand.torsion>
0.4062

> <Gold.PLP.Chemscore.Hbond>
4.5202

> <Gold.PLP.Chemscore.CHOScore>
1.0000

> <Gold.PLP.Chemscore.Metal>
0.0000

> <Gold.Chemscore.Hbonds>
donor molecule, donor type, donor heavy atom, donor atom, acceptor molecule, acceptor atom, score
      L1  H    11    24       P1  7948  0.62
      L1  H    13    26       P1 10175  1.00
      L1  H    15    28       P1  8028  0.78
      P1  H  6896  6907       L1     1  0.99
      P1  H  7954  7966       L1    11  1.00
      P1  H  8011  8017       L1    15  0.15
      L1  C    16    29       P1  7948  0.95

> <Gold.PLP.Chemscore.Internal.Correction>
0.0326

> <Gold.Rescore>
     Score         DG    S(hbond)    S(metal)    S(lipo)     H(rot)  DE(clash)    DE(int)     intcor
      8.06     -11.26       3.24        0.00      37.26       3.67       1.51       1.69       ----

> <Gold.Chemscore.Fitness>
8.0614

> <Gold.Chemscore.DG>
-11.2557

> <Gold.Chemscore.ZeroCoef>
-5.4800

> <Gold.Chemscore.Hbond>
3.2370

> <Gold.Chemscore.Metal>
0.0000

> <Gold.Chemscore.Lipo>
37.2623

> <Gold.Chemscore.Internal_Hbond>
0.0000

> <Gold.Chemscore.DEClash>
1.5072

> <Gold.Chemscore.DEInternal>
1.6870

> <Gold.Chemscore.Rot>
3.6701

> <Gold.Chemscore.Internal.Correction>
   9.000000E+99

> <Gold.Chemscore.Hbonds>
donor molecule, donor type, donor heavy atom, donor atom, acceptor molecule, acceptor atom, score
      L1  H    11    24       P1  7948  0.62
      L1  H    13    26       P1 10175  0.89
      L1  H    15    28       P1  8028  0.73
      P1  H  6896  6907       L1     1  0.92
      P1  H  7954  7966       L1    11  0.13
      P1  H  8011  8017       L1    15  0.13

> <Gold.Chemscore.Hbond.Weighted>
-10.8115

> <Gold.Chemscore.Metal.Weighted>
-0.0000

> <Gold.Chemscore.Lipo.Weighted>
-4.3597

> <Gold.Chemscore.Internal_Hbond.Weighted>
0.0000

> <Gold.Chemscore.DEClash.Weighted>
1.5072

> <Gold.Chemscore.DEInternal.Weighted>
1.6870

> <Gold.Chemscore.Rot.Weighted>
9.3955

> <Gold.Chemscore.Internal.Correction.Weighted>
   9.000000E+99

> <Gold.Protein.RotatedTorsions>
[ 6907 6896 6895 6894 ] final  -54.79 input  -60.11 | X-H torsion
[ 7974 7965 7964 7962 ] final  162.68 input  175.53 | X-H torsion
[ 8008 7997 7996 7995 ] final  -54.98 input   59.86 | X-H torsion
[ 10167 10162 10161 10158 ] final   30.51 input  -65.29 | X-H torsion
[ 10718 10713 10712 10709 ] final   -7.71 input   66.30 | X-H torsion
[ 10763 10752 10751 10750 ] final  101.28 input  -60.55 | X-H torsion
[ 11005 11000 10999 10996 ] final   39.97 input  -57.11 | X-H torsion

> <Gold.Protein.ActiveResidues>
 VAL166  LYS551  ARG553  GLY616  TRP617  ASP618  TYR619  PRO620  LYS621  CYS622 
 ASP623  PHE694  ASN695  SER759  ASP760  ASP761  ALA762  ILE779  LEU786  VAL792 
 PHE793  MET794  SER795  GLU796  ALA797  LYS798  CYS799  TRP800  GLU811  SER814 

> <Gold.Protein.RotatedAtoms>
  150.8308  134.7560  159.6851 H   0  0  0  0  0  0  0  0  0  0  0  0  # atno 6907 bound_to 6896
  152.4412  134.5583  159.9896 H   0  0  0  0  0  0  0  0  0  0  0  0  # atno 6908 bound_to 6896
  151.5744  133.3348  159.3032 H   0  0  0  0  0  0  0  0  0  0  0  0  # atno 6909 bound_to 6896
  144.7625  139.8075  143.6327 H   0  0  0  0  0  0  0  0  0  0  0  0  # atno 7974 bound_to 7965
  154.4180  140.1163  156.5403 H   0  0  0  0  0  0  0  0  0  0  0  0  # atno 8008 bound_to 7997
  155.6514  140.3496  155.4730 H   0  0  0  0  0  0  0  0  0  0  0  0  # atno 8009 bound_to 7997
  155.9789  140.1156  157.0734 H   0  0  0  0  0  0  0  0  0  0  0  0  # atno 8010 bound_to 7997
  140.4671  144.0819  150.6227 H   0  0  0  0  0  0  0  0  0  0  0  0  # atno 10167 bound_to 10162
  156.7133  130.5128  149.5886 H   0  0  0  0  0  0  0  0  0  0  0  0  # atno 10718 bound_to 10713
  153.3246  135.4050  155.1445 H   0  0  0  0  0  0  0  0  0  0  0  0  # atno 10763 bound_to 10752
  154.8609  135.3596  154.5551 H   0  0  0  0  0  0  0  0  0  0  0  0  # atno 10764 bound_to 10752
  153.5986  135.7071  153.5453 H   0  0  0  0  0  0  0  0  0  0  0  0  # atno 10765 bound_to 10752
  140.1976  134.3909  155.8113 H   0  0  0  0  0  0  0  0  0  0  0  0  # atno 11005 bound_to 11000
  146.1702  139.4849  142.9932 LP  0  0  0  0  0  0  0  0  0  0  0  0  # atno 17320 bound_to 7965
  145.6574  141.0249  143.1727 LP  0  0  0  0  0  0  0  0  0  0  0  0  # atno 17321 bound_to 7965
  140.4022  143.2698  151.9933 LP  0  0  0  0  0  0  0  0  0  0  0  0  # atno 17342 bound_to 10162
  139.4813  144.5987  151.7644 LP  0  0  0  0  0  0  0  0  0  0  0  0  # atno 17343 bound_to 10162
  156.1646  130.6396  151.0761 LP  0  0  0  0  0  0  0  0  0  0  0  0  # atno 17370 bound_to 10713
  157.6927  131.0804  150.7060 LP  0  0  0  0  0  0  0  0  0  0  0  0  # atno 17371 bound_to 10713
  141.2227  133.7078  156.8203 LP  0  0  0  0  0  0  0  0  0  0  0  0  # atno 17394 bound_to 11000
  140.2089  134.8842  157.3253 LP  0  0  0  0  0  0  0  0  0  0  0  0  # atno 17395 bound_to 11000

$$$$
