AV-unprocessed.smi:2100|AV-procd|sdf|8575|dock5
  -GOLD-   2272011303D 1   1.00000     0.00000
 Structure written by MMmdl.
 41 42  0  0  0  0  0  0  0  0  1 V2000
  150.2979  134.4386  155.1583 C   0  0  0  0  0  0  0  0  0  0  0  0
  150.5545  135.8918  155.5718 C   0  0  1  0  0  0  0  0  0  0  0  0
  151.2642  135.9851  156.9335 C   0  0  0  0  0  0  0  0  0  0  0  0
  151.6184  137.3765  157.2461 N   0  0  0  0  0  0  0  0  0  0  0  0
  152.0921  137.7185  158.8767 S   0  0  0  0  0  0  0  0  0  0  0  0
  150.9170  138.2000  159.6194 O   0  0  0  0  0  0  0  0  0  0  0  0
  152.8962  136.5890  159.3670 O   0  0  0  0  0  0  0  0  0  0  0  0
  153.1401  139.0593  158.5986 N   0  0  0  0  0  0  0  0  0  0  0  0
  152.9002  140.3260  159.2923 C   0  0  0  0  0  0  0  0  0  0  0  0
  151.7945  141.1387  158.5982 C   0  0  0  0  0  0  0  0  0  0  0  0
  151.9738  142.6430  158.7281 C   0  0  0  0  0  0  0  0  0  0  0  0
  152.5185  143.2003  159.9049 C   0  0  0  0  0  0  0  0  0  0  0  0
  152.6692  144.5987  159.9795 C   0  0  0  0  0  0  0  0  0  0  0  0
  152.2654  145.3836  158.8826 C   0  0  0  0  0  0  0  0  0  0  0  0
  151.7324  144.7323  157.7527 C   0  0  0  0  0  0  0  0  0  0  0  0
  151.5891  143.3921  157.6692 N   0  0  0  0  0  0  0  0  0  0  0  0
  152.3690  138.0374  156.1643 C   0  0  0  0  0  0  0  0  0  0  0  0
  151.6687  137.8677  154.8027 C   0  0  2  0  0  0  0  0  0  0  0  0
  150.4431  138.7816  154.6324 C   0  0  0  0  0  0  0  0  0  0  0  0
  151.3566  136.4978  154.5649 O   0  0  0  0  0  0  0  0  0  0  0  0
  149.6743  133.9262  155.8914 H   0  0  0  0  0  0  0  0  0  0  0  0
  151.2317  133.8833  155.0657 H   0  0  0  0  0  0  0  0  0  0  0  0
  149.7861  134.3921  154.1967 H   0  0  0  0  0  0  0  0  0  0  0  0
  149.5906  136.3974  155.6289 H   0  0  0  0  0  0  0  0  0  0  0  0
  150.6147  135.5868  157.7132 H   0  0  0  0  0  0  0  0  0  0  0  0
  152.1735  135.3824  156.9355 H   0  0  0  0  0  0  0  0  0  0  0  0
  153.3910  139.1699  157.6159 H   0  0  0  0  0  0  0  0  0  0  0  0
  152.6292  140.1341  160.3310 H   0  0  0  0  0  0  0  0  0  0  0  0
  153.8308  140.8939  159.3042 H   0  0  0  0  0  0  0  0  0  0  0  0
  151.7737  140.8810  157.5387 H   0  0  0  0  0  0  0  0  0  0  0  0
  150.8170  140.8572  158.9930 H   0  0  0  0  0  0  0  0  0  0  0  0
  152.8143  142.5733  160.7331 H   0  0  0  0  0  0  0  0  0  0  0  0
  153.0821  145.0606  160.8641 H   0  0  0  0  0  0  0  0  0  0  0  0
  152.3625  146.4589  158.9060 H   0  0  0  0  0  0  0  0  0  0  0  0
  151.4127  145.3025  156.8931 H   0  0  0  0  0  0  0  0  0  0  0  0
  152.5042  139.0955  156.3857 H   0  0  0  0  0  0  0  0  0  0  0  0
  153.3665  137.5983  156.1205 H   0  0  0  0  0  0  0  0  0  0  0  0
  152.3805  138.1519  154.0273 H   0  0  0  0  0  0  0  0  0  0  0  0
  150.7434  139.8281  154.6529 H   0  0  0  0  0  0  0  0  0  0  0  0
  149.7081  138.6418  155.4246 H   0  0  0  0  0  0  0  0  0  0  0  0
  149.9501  138.5998  153.6776 H   0  0  0  0  0  0  0  0  0  0  0  0
  1  2  1  0  0  0  0
  1 21  1  0  0  0  0
  1 22  1  0  0  0  0
  1 23  1  0  0  0  0
  2 20  1  0  0  0  0
  2  3  1  0  0  0  0
  2 24  1  0  0  0  0
  3  4  1  0  0  0  0
  3 25  1  0  0  0  0
  3 26  1  0  0  0  0
  4  5  1  0  0  0  0
  4 17  1  0  0  0  0
  5  6  2  0  0  0  0
  5  7  2  0  0  0  0
  5  8  1  0  0  0  0
  8  9  1  0  0  0  0
  8 27  1  0  0  0  0
  9 10  1  0  0  0  0
  9 28  1  0  0  0  0
  9 29  1  0  0  0  0
 10 11  1  0  0  0  0
 10 30  1  0  0  0  0
 10 31  1  0  0  0  0
 11 16  1  0  0  0  0
 11 12  2  0  0  0  0
 12 13  1  0  0  0  0
 12 32  1  0  0  0  0
 13 14  2  0  0  0  0
 13 33  1  0  0  0  0
 14 15  1  0  0  0  0
 14 34  1  0  0  0  0
 15 16  2  0  0  0  0
 15 35  1  0  0  0  0
 17 18  1  0  0  0  0
 17 36  1  0  0  0  0
 17 37  1  0  0  0  0
 18 19  1  0  0  0  0
 18 20  1  0  0  0  0
 18 38  1  0  0  0  0
 19 39  1  0  0  0  0
 19 40  1  0  0  0  0
 19 41  1  0  0  0  0
M  END
> <s_m_source_file>
AV-unprocessed.smi

> <i_m_source_file_index>
2100

> <i_lp_mmshare_version>
43012

> <i_f3d_flags>
0

> <s_epik_input>
W0NIM11bQ0BASF0xW0NIMl1OKFtDSDJdW0NASF0oTzEpW0NIM10pUyg9TykoPU8pW05IXVtDSDJdW0NIMl1jMltjSF1bY0hdW2NIXVtjSF1uMg==

> <s_epik_cmdline>
J2VwaWtfcHl0aG9uJywgJy1waCcsICc3LjAnLCAnLXRuJywgJzgnLCAnLW1hJywgJzIwMCcsICctbWV0YWxfYmluZGluZycsICctaW1hZScsICc8aW5maWxlLm1hZT4nLCAnLW9tYWUnLCAnPG91dGZpbGUubWFlPic=

> <r_epik_Ionization_Penalty>
0.085378

> <r_epik_Ionization_Penalty_Charging>
0

> <r_epik_Ionization_Penalty_Neutral>
0.085378

> <r_epik_State_Penalty>
0.0441186

> <r_epik_Charging_Adjusted_Penalty>
0.0441186

> <i_epik_Tot_Q>
0

> <i_epik_Tot_abs_Q>
0

> <r_epik_Metal_State_Penalty>
0.24397

> <b_epik_Metal_Only>
0

> <s_lp_Force_Field>
OPLS_2005

> <r_lp_Energy>
8.75792

> <b_lp_Chiralities_Consistent>
1

> <s_lp_Variant>
AV-unprocessed.smi:2100-3

> <Gold.Version>
5.8.1

> <Gold.Id.Protein>
6NUR|6NUR_protein|mol2

> <Gold.PLP.Fitness>
42.5393

> <Gold.PLP.PLP>
-37.6837

> <Gold.PLP.part.hbond>
-2.5837

> <Gold.PLP.part.metal>
0.0000

> <Gold.PLP.part.buried>
-6.8491

> <Gold.PLP.part.nonpolar>
-30.4274

> <Gold.PLP.part.repulsive>
1.5946

> <Gold.PLP.ligand.clash>
0.0000

> <Gold.PLP.ligand.torsion>
1.4367

> <Gold.PLP.Chemscore.Hbond>
1.3432

> <Gold.PLP.Chemscore.CHOScore>
0.9888

> <Gold.PLP.Chemscore.Metal>
0.0000

> <Gold.Chemscore.Hbonds>
donor molecule, donor type, donor heavy atom, donor atom, acceptor molecule, acceptor atom, score
      P1  H  6896  6908       L1     7  0.17
      P1  H 10752 10765       L1    20  1.00
      L1  C    15    35       P1  8028  0.23

> <Gold.PLP.Chemscore.Internal.Correction>
0.7330

> <Gold.Rescore>
     Score         DG    S(hbond)    S(metal)    S(lipo)     H(rot)  DE(clash)    DE(int)     intcor
     15.66     -17.16       1.03        0.00     107.87       1.71       0.06       1.45       ----

> <Gold.Chemscore.Fitness>
15.6617

> <Gold.Chemscore.DG>
-17.1627

> <Gold.Chemscore.ZeroCoef>
-5.4800

> <Gold.Chemscore.Hbond>
1.0268

> <Gold.Chemscore.Metal>
0.0000

> <Gold.Chemscore.Lipo>
107.8684

> <Gold.Chemscore.Internal_Hbond>
0.0000

> <Gold.Chemscore.DEClash>
0.0553

> <Gold.Chemscore.DEInternal>
1.4457

> <Gold.Chemscore.Rot>
1.7060

> <Gold.Chemscore.Internal.Correction>
   9.000000E+99

> <Gold.Chemscore.Hbonds>
donor molecule, donor type, donor heavy atom, donor atom, acceptor molecule, acceptor atom, score
      P1  H  6896  6908       L1     7  0.17
      P1  H 10752 10765       L1    20  0.51

> <Gold.Chemscore.Hbond.Weighted>
-3.4295

> <Gold.Chemscore.Metal.Weighted>
-0.0000

> <Gold.Chemscore.Lipo.Weighted>
-12.6206

> <Gold.Chemscore.Internal_Hbond.Weighted>
0.0000

> <Gold.Chemscore.DEClash.Weighted>
0.0553

> <Gold.Chemscore.DEInternal.Weighted>
1.4457

> <Gold.Chemscore.Rot.Weighted>
4.3674

> <Gold.Chemscore.Internal.Correction.Weighted>
   9.000000E+99

> <Gold.Protein.RotatedTorsions>
[ 6907 6896 6895 6894 ] final  -44.02 input  -60.11 | X-H torsion
[ 7974 7965 7964 7962 ] final -128.90 input  175.53 | X-H torsion
[ 8008 7997 7996 7995 ] final   87.43 input   59.86 | X-H torsion
[ 10167 10162 10161 10158 ] final   74.49 input  -65.29 | X-H torsion
[ 10718 10713 10712 10709 ] final  151.22 input   66.30 | X-H torsion
[ 10763 10752 10751 10750 ] final  155.60 input  -60.55 | X-H torsion
[ 11005 11000 10999 10996 ] final -143.18 input  -57.11 | X-H torsion

> <Gold.Protein.ActiveResidues>
 VAL166  LYS551  ARG553  GLY616  TRP617  ASP618  TYR619  PRO620  LYS621  CYS622 
 ASP623  PHE694  ASN695  SER759  ASP760  ASP761  ALA762  ILE779  LEU786  VAL792 
 PHE793  MET794  SER795  GLU796  ALA797  LYS798  CYS799  TRP800  GLU811  SER814 

> <Gold.Protein.RotatedAtoms>
  150.9374  134.8786  159.7590 H   0  0  0  0  0  0  0  0  0  0  0  0  # atno 6907 bound_to 6896
  152.5065  134.3991  159.9420 H   0  0  0  0  0  0  0  0  0  0  0  0  # atno 6908 bound_to 6896
  151.4014  133.3716  159.2767 H   0  0  0  0  0  0  0  0  0  0  0  0  # atno 6909 bound_to 6896
  144.9625  140.7461  143.4720 H   0  0  0  0  0  0  0  0  0  0  0  0  # atno 7974 bound_to 7965
  155.9752  140.3382  155.6612 H   0  0  0  0  0  0  0  0  0  0  0  0  # atno 8008 bound_to 7997
  155.6622  140.0717  157.2568 H   0  0  0  0  0  0  0  0  0  0  0  0  # atno 8009 bound_to 7997
  154.4177  140.1706  156.1776 H   0  0  0  0  0  0  0  0  0  0  0  0  # atno 8010 bound_to 7997
  140.0131  144.5598  150.7642 H   0  0  0  0  0  0  0  0  0  0  0  0  # atno 10167 bound_to 10162
  157.2735  131.0821  151.1583 H   0  0  0  0  0  0  0  0  0  0  0  0  # atno 10718 bound_to 10713
  154.1710  135.2804  155.3081 H   0  0  0  0  0  0  0  0  0  0  0  0  # atno 10763 bound_to 10752
  154.6075  135.5509  153.7442 H   0  0  0  0  0  0  0  0  0  0  0  0  # atno 10764 bound_to 10752
  153.0165  135.6407  154.1850 H   0  0  0  0  0  0  0  0  0  0  0  0  # atno 10765 bound_to 10752
  140.8151  134.2698  157.4924 H   0  0  0  0  0  0  0  0  0  0  0  0  # atno 11005 bound_to 11000
  145.2679  139.1966  143.4857 LP  0  0  0  0  0  0  0  0  0  0  0  0  # atno 17320 bound_to 7965
  146.3357  140.2620  142.8602 LP  0  0  0  0  0  0  0  0  0  0  0  0  # atno 17321 bound_to 7965
  140.7373  143.2764  151.3729 LP  0  0  0  0  0  0  0  0  0  0  0  0  # atno 17342 bound_to 10162
  139.6191  144.0943  152.2374 LP  0  0  0  0  0  0  0  0  0  0  0  0  # atno 17343 bound_to 10162
  157.3045  130.6859  149.6182 LP  0  0  0  0  0  0  0  0  0  0  0  0  # atno 17370 bound_to 10713
  155.9663  130.4382  150.5207 LP  0  0  0  0  0  0  0  0  0  0  0  0  # atno 17371 bound_to 10713
  139.8711  134.9504  156.4056 LP  0  0  0  0  0  0  0  0  0  0  0  0  # atno 17394 bound_to 11000
  140.9157  133.7680  155.9846 LP  0  0  0  0  0  0  0  0  0  0  0  0  # atno 17395 bound_to 11000

$$$$
