AV-unprocessed.smi:629|AV-procd|sdf|3115|dock3
  -GOLD-   22720 0 43D 1   1.00000     0.00000
 Structure written by MMmdl.
 31 32  0  0  0  0  0  0  0  0  1 V2000
  146.6698  138.5528  152.3639 C   0  0  0  0  0  0  0  0  0  0  0  0
  147.5011  139.6903  152.7259 N   0  0  0  0  0  0  0  0  0  0  0  0
  147.5348  140.2426  153.9479 C   0  0  0  0  0  0  0  0  0  0  0  0
  146.8667  139.8281  154.8949 O   0  0  0  0  0  0  0  0  0  0  0  0
  148.4697  141.4394  154.1362 C   0  0  0  0  0  0  0  0  0  0  0  0
  149.5997  141.0925  155.0528 C   0  0  0  0  0  0  0  0  0  0  0  0
  150.4480  140.1125  154.7618 N   0  0  0  0  0  0  0  0  0  0  0  0
  151.3301  140.1124  155.8515 O   0  0  0  0  0  0  0  0  0  0  0  0
  150.9088  141.1076  156.6683 C   0  0  0  0  0  0  0  0  0  0  0  0
  151.6248  141.3351  157.9585 C   0  0  0  0  0  0  0  0  0  0  0  0
  151.1721  142.6198  158.6762 C   0  0  2  0  0  0  0  0  0  0  0  0
  151.4057  143.8623  157.8547 C   0  0  0  0  0  0  0  0  0  0  0  0
  152.0871  144.7973  158.5129 C   0  0  0  0  0  0  0  0  0  0  0  0
  152.4502  144.3681  159.9066 C   0  0  0  0  0  0  0  0  0  0  0  0
  151.9684  142.9022  159.9771 C   0  0  0  0  0  0  0  0  0  0  0  0
  149.8214  141.7380  156.2317 N   0  0  0  0  0  0  0  0  0  0  0  0
  146.8171  138.3045  151.3129 H   0  0  0  0  0  0  0  0  0  0  0  0
  145.6137  138.7795  152.5159 H   0  0  0  0  0  0  0  0  0  0  0  0
  146.9280  137.6773  152.9609 H   0  0  0  0  0  0  0  0  0  0  0  0
  148.0786  140.0902  152.0002 H   0  0  0  0  0  0  0  0  0  0  0  0
  148.8677  141.7526  153.1701 H   0  0  0  0  0  0  0  0  0  0  0  0
  147.9104  142.2860  154.5369 H   0  0  0  0  0  0  0  0  0  0  0  0
  151.4260  140.4714  158.5944 H   0  0  0  0  0  0  0  0  0  0  0  0
  152.7012  141.3446  157.7819 H   0  0  0  0  0  0  0  0  0  0  0  0
  150.1104  142.5588  158.9203 H   0  0  0  0  0  0  0  0  0  0  0  0
  151.0321  143.9621  156.8460 H   0  0  0  0  0  0  0  0  0  0  0  0
  152.3513  145.7686  158.1210 H   0  0  0  0  0  0  0  0  0  0  0  0
  153.5251  144.4512  160.0705 H   0  0  0  0  0  0  0  0  0  0  0  0
  151.9354  144.9977  160.6330 H   0  0  0  0  0  0  0  0  0  0  0  0
  151.3589  142.7246  160.8640 H   0  0  0  0  0  0  0  0  0  0  0  0
  152.8349  142.2434  160.0503 H   0  0  0  0  0  0  0  0  0  0  0  0
  1  2  1  0  0  0  0
  1 17  1  0  0  0  0
  1 18  1  0  0  0  0
  1 19  1  0  0  0  0
  2  3  1  0  0  0  0
  2 20  1  0  0  0  0
  3  4  2  0  0  0  0
  3  5  1  0  0  0  0
  5  6  1  0  0  0  0
  5 21  1  0  0  0  0
  5 22  1  0  0  0  0
  6 16  1  0  0  0  0
  6  7  2  0  0  0  0
  7  8  1  0  0  0  0
  8  9  1  0  0  0  0
  9 10  1  0  0  0  0
  9 16  2  0  0  0  0
 10 11  1  0  0  0  0
 10 23  1  0  0  0  0
 10 24  1  0  0  0  0
 11 15  1  0  0  0  0
 11 12  1  0  0  0  0
 11 25  1  0  0  0  0
 12 13  2  0  0  0  0
 12 26  1  0  0  0  0
 13 14  1  0  0  0  0
 13 27  1  0  0  0  0
 14 15  1  0  0  0  0
 14 28  1  0  0  0  0
 14 29  1  0  0  0  0
 15 30  1  0  0  0  0
 15 31  1  0  0  0  0
M  END
> <s_m_source_file>
AV-unprocessed.smi

> <i_m_source_file_index>
629

> <i_lp_mmshare_version>
43012

> <i_f3d_flags>
0

> <s_epik_input>
W0NIM11bTkhdQyg9TylbQ0gyXWMxbm9jKG4xKVtDSDJdW0NAQEhdMltDSF09W0NIXVtDSDJdW0NIMl0y

> <s_epik_cmdline>
J2VwaWtfcHl0aG9uJywgJy1waCcsICc3LjAnLCAnLXRuJywgJzgnLCAnLW1hJywgJzIwMCcsICctbWV0YWxfYmluZGluZycsICctaW1hZScsICc8aW5maWxlLm1hZT4nLCAnLW9tYWUnLCAnPG91dGZpbGUubWFlPic=

> <r_lp_tautomer_probability>
1

> <r_epik_Ionization_Penalty>
1.02915e-07

> <r_epik_Ionization_Penalty_Charging>
0

> <r_epik_Ionization_Penalty_Neutral>
1.02915e-07

> <r_epik_State_Penalty>
-0

> <r_epik_Charging_Adjusted_Penalty>
0

> <i_epik_Tot_Q>
0

> <i_epik_Tot_abs_Q>
0

> <r_epik_Metal_State_Penalty>
-0

> <b_epik_Metal_Only>
0

> <s_lp_Force_Field>
OPLS_2005

> <r_lp_Energy>
15.6926

> <b_lp_Chiralities_Consistent>
1

> <s_lp_Variant>
AV-unprocessed.smi:629-1

> <Gold.Version>
5.8.1

> <Gold.Id.Protein>
6NUR|6NUR_protein|mol2

> <Gold.PLP.Fitness>
42.1657

> <Gold.PLP.PLP>
-36.7235

> <Gold.PLP.part.hbond>
-1.7127

> <Gold.PLP.part.metal>
0.0000

> <Gold.PLP.part.buried>
-3.6775

> <Gold.PLP.part.nonpolar>
-31.7679

> <Gold.PLP.part.repulsive>
0.3554

> <Gold.PLP.ligand.clash>
0.0000

> <Gold.PLP.ligand.torsion>
0.1573

> <Gold.PLP.Chemscore.Hbond>
1.9120

> <Gold.PLP.Chemscore.CHOScore>
0.0000

> <Gold.PLP.Chemscore.Metal>
0.0000

> <Gold.Chemscore.Hbonds>
donor molecule, donor type, donor heavy atom, donor atom, acceptor molecule, acceptor atom, score
      L1  H     2    20       P1  7957  0.96
      P1  H  7989  7998       L1     7  0.90

> <Gold.PLP.Chemscore.Internal.Correction>
0.0209

> <Gold.Rescore>
     Score         DG    S(hbond)    S(metal)    S(lipo)     H(rot)  DE(clash)    DE(int)     intcor
     14.69     -14.91       1.52        0.00      78.44       1.89       0.07       0.15       ----

> <Gold.Chemscore.Fitness>
14.6876

> <Gold.Chemscore.DG>
-14.9124

> <Gold.Chemscore.ZeroCoef>
-5.4800

> <Gold.Chemscore.Hbond>
1.5230

> <Gold.Chemscore.Metal>
0.0000

> <Gold.Chemscore.Lipo>
78.4449

> <Gold.Chemscore.Internal_Hbond>
0.0000

> <Gold.Chemscore.DEClash>
0.0737

> <Gold.Chemscore.DEInternal>
0.1511

> <Gold.Chemscore.Rot>
1.8877

> <Gold.Chemscore.Internal.Correction>
   9.000000E+99

> <Gold.Chemscore.Hbonds>
donor molecule, donor type, donor heavy atom, donor atom, acceptor molecule, acceptor atom, score
      L1  H     2    20       P1  7957  0.92
      P1  H  7989  7998       L1     7  0.08

> <Gold.Chemscore.Hbond.Weighted>
-5.0868

> <Gold.Chemscore.Metal.Weighted>
-0.0000

> <Gold.Chemscore.Lipo.Weighted>
-9.1781

> <Gold.Chemscore.Internal_Hbond.Weighted>
0.0000

> <Gold.Chemscore.DEClash.Weighted>
0.0737

> <Gold.Chemscore.DEInternal.Weighted>
0.1511

> <Gold.Chemscore.Rot.Weighted>
4.8325

> <Gold.Chemscore.Internal.Correction.Weighted>
   9.000000E+99

> <Gold.Protein.RotatedTorsions>
[ 6907 6896 6895 6894 ] final  -75.77 input  -60.11 | X-H torsion
[ 7974 7965 7964 7962 ] final  118.51 input  175.53 | X-H torsion
[ 8008 7997 7996 7995 ] final -122.89 input   59.86 | X-H torsion
[ 10167 10162 10161 10158 ] final    2.35 input  -65.29 | X-H torsion
[ 10718 10713 10712 10709 ] final   67.72 input   66.30 | X-H torsion
[ 10763 10752 10751 10750 ] final   58.04 input  -60.55 | X-H torsion
[ 11005 11000 10999 10996 ] final -107.26 input  -57.11 | X-H torsion

> <Gold.Protein.ActiveResidues>
 VAL166  LYS551  ARG553  GLY616  TRP617  ASP618  TYR619  PRO620  LYS621  CYS622 
 ASP623  PHE694  ASN695  SER759  ASP760  ASP761  ALA762  ILE779  LEU786  VAL792 
 PHE793  MET794  SER795  GLU796  ALA797  LYS798  CYS799  TRP800  GLU811  SER814 

> <Gold.Protein.RotatedAtoms>
  150.7048  134.4671  159.5407 H   0  0  0  0  0  0  0  0  0  0  0  0  # atno 6907 bound_to 6896
  152.2335  134.8296  160.0479 H   0  0  0  0  0  0  0  0  0  0  0  0  # atno 6908 bound_to 6896
  151.9103  133.3524  159.3898 H   0  0  0  0  0  0  0  0  0  0  0  0  # atno 6909 bound_to 6896
  145.1544  139.3191  143.4550 H   0  0  0  0  0  0  0  0  0  0  0  0  # atno 7974 bound_to 7965
  155.1717  140.0408  157.2864 H   0  0  0  0  0  0  0  0  0  0  0  0  # atno 8008 bound_to 7997
  154.6265  140.2513  155.7458 H   0  0  0  0  0  0  0  0  0  0  0  0  # atno 8009 bound_to 7997
  156.2462  140.2884  156.0597 H   0  0  0  0  0  0  0  0  0  0  0  0  # atno 8010 bound_to 7997
  140.6639  143.7230  150.7791 H   0  0  0  0  0  0  0  0  0  0  0  0  # atno 10167 bound_to 10162
  157.6247  130.9335  150.0280 H   0  0  0  0  0  0  0  0  0  0  0  0  # atno 10718 bound_to 10713
  152.9862  135.5620  154.5489 H   0  0  0  0  0  0  0  0  0  0  0  0  # atno 10763 bound_to 10752
  154.4929  135.2793  155.1484 H   0  0  0  0  0  0  0  0  0  0  0  0  # atno 10764 bound_to 10752
  154.2946  135.6319  153.5452 H   0  0  0  0  0  0  0  0  0  0  0  0  # atno 10765 bound_to 10752
  141.0963  133.8965  157.1955 H   0  0  0  0  0  0  0  0  0  0  0  0  # atno 11005 bound_to 11000
  146.3490  140.1630  142.8590 LP  0  0  0  0  0  0  0  0  0  0  0  0  # atno 17320 bound_to 7965
  145.0397  140.8935  143.5060 LP  0  0  0  0  0  0  0  0  0  0  0  0  # atno 17321 bound_to 7965
  140.0904  143.4883  152.2482 LP  0  0  0  0  0  0  0  0  0  0  0  0  # atno 17342 bound_to 10162
  139.5882  144.7539  151.3467 LP  0  0  0  0  0  0  0  0  0  0  0  0  # atno 17343 bound_to 10162
  156.1412  130.3642  149.9580 LP  0  0  0  0  0  0  0  0  0  0  0  0  # atno 17370 bound_to 10713
  156.7620  130.9154  151.3642 LP  0  0  0  0  0  0  0  0  0  0  0  0  # atno 17371 bound_to 10713
  139.9800  135.0101  156.9727 LP  0  0  0  0  0  0  0  0  0  0  0  0  # atno 17394 bound_to 11000
  140.5132  134.0981  155.7275 LP  0  0  0  0  0  0  0  0  0  0  0  0  # atno 17395 bound_to 11000

$$$$
