AV-unprocessed.smi:2495|AV-procd|sdf|9824|dock7
  -GOLD-   2272013453D 1   1.00000     0.00000
 Structure written by MMmdl.
 33 34  0  0  0  0  0  0  0  0  1 V2000
  146.0945  142.9964  153.9607 C   0  0  0  0  0  0  0  0  0  0  0  0
  147.4289  142.5507  154.3309 N   0  0  0  0  0  0  0  0  0  0  0  0
  147.9793  141.3934  153.9337 C   0  0  0  0  0  0  0  0  0  0  0  0
  147.3878  140.5856  153.2161 O   0  0  0  0  0  0  0  0  0  0  0  0
  149.3991  141.0945  154.4386 C   0  0  1  0  0  0  0  0  0  0  0  0
  149.7094  141.8053  155.7760 C   0  0  0  0  0  0  0  0  0  0  0  0
  151.0182  141.4031  156.2870 N   0  0  0  0  0  0  0  0  0  0  0  0
  151.5235  142.1759  157.3553 C   0  0  0  0  0  0  0  0  0  0  0  0
  152.2002  141.5665  158.4397 C   0  0  0  0  0  0  0  0  0  0  0  0
  152.6709  142.4194  159.4597 C   0  0  0  0  0  0  0  0  0  0  0  0
  153.4088  141.8737  160.6639 C   0  0  0  0  0  0  0  0  0  0  0  0
  152.4897  143.7562  159.4113 N   0  0  0  0  0  0  0  0  0  0  0  0
  151.8349  144.2310  158.3504 C   0  0  0  0  0  0  0  0  0  0  0  0
  151.3447  143.5206  157.3320 N   0  0  0  0  0  0  0  0  0  0  0  0
  151.2018  139.9549  156.3472 C   0  0  0  0  0  0  0  0  0  0  0  0
  150.8620  139.3171  154.9916 C   0  0  0  0  0  0  0  0  0  0  0  0
  149.5410  139.6841  154.6117 O   0  0  0  0  0  0  0  0  0  0  0  0
  145.8596  143.9301  154.4716 H   0  0  0  0  0  0  0  0  0  0  0  0
  145.3432  142.2566  154.2407 H   0  0  0  0  0  0  0  0  0  0  0  0
  146.0297  143.1690  152.8857 H   0  0  0  0  0  0  0  0  0  0  0  0
  147.9764  143.1626  154.9191 H   0  0  0  0  0  0  0  0  0  0  0  0
  150.0968  141.4331  153.6705 H   0  0  0  0  0  0  0  0  0  0  0  0
  149.6602  142.8827  155.6246 H   0  0  0  0  0  0  0  0  0  0  0  0
  148.9532  141.5558  156.5220 H   0  0  0  0  0  0  0  0  0  0  0  0
  152.3443  140.4983  158.5041 H   0  0  0  0  0  0  0  0  0  0  0  0
  153.1441  140.8310  160.8416 H   0  0  0  0  0  0  0  0  0  0  0  0
  153.1631  142.4423  161.5615 H   0  0  0  0  0  0  0  0  0  0  0  0
  154.4852  141.9319  160.5030 H   0  0  0  0  0  0  0  0  0  0  0  0
  151.6853  145.2997  158.3116 H   0  0  0  0  0  0  0  0  0  0  0  0
  152.2328  139.7137  156.6090 H   0  0  0  0  0  0  0  0  0  0  0  0
  150.5605  139.5412  157.1269 H   0  0  0  0  0  0  0  0  0  0  0  0
  151.5736  139.6268  154.2245 H   0  0  0  0  0  0  0  0  0  0  0  0
  150.9223  138.2310  155.0626 H   0  0  0  0  0  0  0  0  0  0  0  0
  1  2  1  0  0  0  0
  1 18  1  0  0  0  0
  1 19  1  0  0  0  0
  1 20  1  0  0  0  0
  2  3  1  0  0  0  0
  2 21  1  0  0  0  0
  3  4  2  0  0  0  0
  3  5  1  0  0  0  0
  5 17  1  0  0  0  0
  5  6  1  0  0  0  0
  5 22  1  0  0  0  0
  6  7  1  0  0  0  0
  6 23  1  0  0  0  0
  6 24  1  0  0  0  0
  7  8  1  0  0  0  0
  7 15  1  0  0  0  0
  8 14  1  0  0  0  0
  8  9  2  0  0  0  0
  9 10  1  0  0  0  0
  9 25  1  0  0  0  0
 10 11  1  0  0  0  0
 10 12  2  0  0  0  0
 11 26  1  0  0  0  0
 11 27  1  0  0  0  0
 11 28  1  0  0  0  0
 12 13  1  0  0  0  0
 13 14  2  0  0  0  0
 13 29  1  0  0  0  0
 15 16  1  0  0  0  0
 15 30  1  0  0  0  0
 15 31  1  0  0  0  0
 16 17  1  0  0  0  0
 16 32  1  0  0  0  0
 16 33  1  0  0  0  0
M  END
> <s_m_source_file>
AV-unprocessed.smi

> <i_m_source_file_index>
2495

> <i_lp_mmshare_version>
43012

> <i_f3d_flags>
0

> <s_epik_input>
W0NIM11bTkhdQyg9TylbQ0BASF0xW0NIMl1OKFtDSDJdW0NIMl1PMSljMltjSF1jKFtDSDNdKW5bY0hdbjI=

> <s_epik_cmdline>
J2VwaWtfcHl0aG9uJywgJy1waCcsICc3LjAnLCAnLXRuJywgJzgnLCAnLW1hJywgJzIwMCcsICctbWV0YWxfYmluZGluZycsICctaW1hZScsICc8aW5maWxlLm1hZT4nLCAnLW9tYWUnLCAnPG91dGZpbGUubWFlPic=

> <r_lp_tautomer_probability>
1

> <r_epik_Ionization_Penalty>
0.000466083

> <r_epik_Ionization_Penalty_Charging>
0

> <r_epik_Ionization_Penalty_Neutral>
0.000466083

> <r_epik_State_Penalty>
0.000259726

> <r_epik_Charging_Adjusted_Penalty>
0.000259726

> <i_epik_Tot_Q>
0

> <i_epik_Tot_abs_Q>
0

> <r_epik_Metal_State_Penalty>
-0

> <b_epik_Metal_Only>
0

> <s_lp_Force_Field>
OPLS_2005

> <r_lp_Energy>
12.0364

> <b_lp_Chiralities_Consistent>
1

> <s_lp_Variant>
AV-unprocessed.smi:2495-2

> <Gold.Version>
5.8.1

> <Gold.Id.Protein>
6NUR|6NUR_protein|mol2

> <Gold.PLP.Fitness>
37.1320

> <Gold.PLP.PLP>
-35.8175

> <Gold.PLP.part.hbond>
-1.0000

> <Gold.PLP.part.metal>
0.0000

> <Gold.PLP.part.buried>
-5.0805

> <Gold.PLP.part.nonpolar>
-30.6991

> <Gold.PLP.part.repulsive>
1.1433

> <Gold.PLP.ligand.clash>
0.0000

> <Gold.PLP.ligand.torsion>
1.0167

> <Gold.PLP.Chemscore.Hbond>
1.0000

> <Gold.PLP.Chemscore.CHOScore>
0.0000

> <Gold.PLP.Chemscore.Metal>
0.0000

> <Gold.Chemscore.Hbonds>
donor molecule, donor type, donor heavy atom, donor atom, acceptor molecule, acceptor atom, score
      L1  H     2    21       P1  8028  1.00

> <Gold.PLP.Chemscore.Internal.Correction>
0.3480

> <Gold.Rescore>
     Score         DG    S(hbond)    S(metal)    S(lipo)     H(rot)  DE(clash)    DE(int)     intcor
     11.64     -12.85       0.97        0.00      65.24       1.37       0.13       1.08       ----

> <Gold.Chemscore.Fitness>
11.6361

> <Gold.Chemscore.DG>
-12.8484

> <Gold.Chemscore.ZeroCoef>
-5.4800

> <Gold.Chemscore.Hbond>
0.9713

> <Gold.Chemscore.Metal>
0.0000

> <Gold.Chemscore.Lipo>
65.2395

> <Gold.Chemscore.Internal_Hbond>
0.0000

> <Gold.Chemscore.DEClash>
0.1329

> <Gold.Chemscore.DEInternal>
1.0794

> <Gold.Chemscore.Rot>
1.3706

> <Gold.Chemscore.Internal.Correction>
   9.000000E+99

> <Gold.Chemscore.Hbonds>
donor molecule, donor type, donor heavy atom, donor atom, acceptor molecule, acceptor atom, score
      L1  H     2    21       P1  8028  0.85

> <Gold.Chemscore.Hbond.Weighted>
-3.2441

> <Gold.Chemscore.Metal.Weighted>
-0.0000

> <Gold.Chemscore.Lipo.Weighted>
-7.6330

> <Gold.Chemscore.Internal_Hbond.Weighted>
0.0000

> <Gold.Chemscore.DEClash.Weighted>
0.1329

> <Gold.Chemscore.DEInternal.Weighted>
1.0794

> <Gold.Chemscore.Rot.Weighted>
3.5087

> <Gold.Chemscore.Internal.Correction.Weighted>
   9.000000E+99

> <Gold.Protein.RotatedTorsions>
[ 6907 6896 6895 6894 ] final -146.63 input  -60.11 | X-H torsion
[ 7974 7965 7964 7962 ] final   82.83 input  175.53 | X-H torsion
[ 8008 7997 7996 7995 ] final -147.80 input   59.86 | X-H torsion
[ 10167 10162 10161 10158 ] final   92.96 input  -65.29 | X-H torsion
[ 10718 10713 10712 10709 ] final   50.51 input   66.30 | X-H torsion
[ 10763 10752 10751 10750 ] final -153.31 input  -60.55 | X-H torsion
[ 11005 11000 10999 10996 ] final  177.13 input  -57.11 | X-H torsion

> <Gold.Protein.ActiveResidues>
 VAL166  LYS551  ARG553  GLY616  TRP617  ASP618  TYR619  PRO620  LYS621  CYS622 
 ASP623  PHE694  ASN695  SER759  ASP760  ASP761  ALA762  ILE779  LEU786  VAL792 
 PHE793  MET794  SER795  GLU796  ALA797  LYS798  CYS799  TRP800  GLU811  SER814 

> <Gold.Protein.RotatedAtoms>
  151.1443  133.4950  159.2596 H   0  0  0  0  0  0  0  0  0  0  0  0  # atno 6907 bound_to 6896
  151.1621  135.0278  159.8725 H   0  0  0  0  0  0  0  0  0  0  0  0  # atno 6908 bound_to 6896
  152.5463  134.1316  159.8495 H   0  0  0  0  0  0  0  0  0  0  0  0  # atno 6909 bound_to 6896
  145.6199  139.2384  143.2144 H   0  0  0  0  0  0  0  0  0  0  0  0  # atno 7974 bound_to 7965
  155.5813  140.0643  157.2782 H   0  0  0  0  0  0  0  0  0  0  0  0  # atno 8008 bound_to 7997
  154.4331  140.1851  156.1026 H   0  0  0  0  0  0  0  0  0  0  0  0  # atno 8009 bound_to 7997
  156.0302  140.3307  155.7135 H   0  0  0  0  0  0  0  0  0  0  0  0  # atno 8010 bound_to 7997
  139.8226  144.6724  150.9499 H   0  0  0  0  0  0  0  0  0  0  0  0  # atno 10167 bound_to 10162
  157.4892  130.8365  149.8182 H   0  0  0  0  0  0  0  0  0  0  0  0  # atno 10718 bound_to 10713
  154.7936  135.3216  154.7719 H   0  0  0  0  0  0  0  0  0  0  0  0  # atno 10763 bound_to 10752
  153.8403  135.6871  153.4808 H   0  0  0  0  0  0  0  0  0  0  0  0  # atno 10764 bound_to 10752
  153.1617  135.4658  154.9722 H   0  0  0  0  0  0  0  0  0  0  0  0  # atno 10765 bound_to 10752
  140.3807  134.6949  157.4449 H   0  0  0  0  0  0  0  0  0  0  0  0  # atno 11005 bound_to 11000
  146.1439  140.7019  142.9354 LP  0  0  0  0  0  0  0  0  0  0  0  0  # atno 17320 bound_to 7965
  144.7235  140.4451  143.6990 LP  0  0  0  0  0  0  0  0  0  0  0  0  # atno 17321 bound_to 7965
  140.7812  143.4077  151.1044 LP  0  0  0  0  0  0  0  0  0  0  0  0  # atno 17342 bound_to 10162
  139.7736  143.8458  152.3125 LP  0  0  0  0  0  0  0  0  0  0  0  0  # atno 17343 bound_to 10162
  156.0164  130.3812  150.2098 LP  0  0  0  0  0  0  0  0  0  0  0  0  # atno 17370 bound_to 10713
  157.0287  131.0001  151.3318 LP  0  0  0  0  0  0  0  0  0  0  0  0  # atno 17371 bound_to 10713
  140.0480  134.6171  155.8896 LP  0  0  0  0  0  0  0  0  0  0  0  0  # atno 17394 bound_to 11000
  141.1924  133.6575  156.5501 LP  0  0  0  0  0  0  0  0  0  0  0  0  # atno 17395 bound_to 11000

$$$$
