AV-unprocessed.smi:761|AV-procd|sdf|3631|dock1
  -GOLD-   22720 1 23D 1   1.00000     0.00000
 Structure written by MMmdl.
 35 36  0  0  0  0  0  0  0  0  3 V2000
  145.3111  138.1981  153.4538 O   0  0  0  0  0  0  0  0  0  0  0  0
  146.3680  137.7684  152.9919 C   0  0  0  0  0  0  0  0  0  0  0  0
  146.4667  136.5927  152.3546 N   0  0  0  0  0  0  0  0  0  0  0  0
  145.3487  135.6906  152.1021 C   0  0  0  0  0  0  0  0  0  0  0  0
  145.0842  135.5242  150.5940 C   0  0  0  0  0  0  0  0  0  0  0  0
  145.1868  134.1102  150.1645 N   0  3  0  0  0  0  0  0  0  0  0  0
  143.9676  133.2896  150.4201 C   0  0  0  0  0  0  0  0  0  0  0  0
  144.5273  131.9658  150.8577 C   0  0  0  0  0  0  0  0  0  0  0  0
  145.8447  132.0238  151.0158 C   0  0  0  0  0  0  0  0  0  0  0  0
  146.3754  133.3961  150.7108 C   0  0  0  0  0  0  0  0  0  0  0  0
  147.5598  138.3854  153.0716 N   0  0  0  0  0  0  0  0  0  0  0  0
  147.8646  139.6503  153.6451 C   0  0  0  0  0  0  0  0  0  0  0  0
  149.1059  139.7872  154.3056 C   0  0  0  0  0  0  0  0  0  0  0  0
  149.4581  141.0283  154.8741 C   0  0  0  0  0  0  0  0  0  0  0  0
  148.6135  142.0771  154.7756 N   0  3  0  0  0  0  0  0  0  0  0  0
  147.4239  141.9993  154.1421 C   0  0  0  0  0  0  0  0  0  0  0  0
  147.0173  140.7842  153.5539 C   0  0  0  0  0  0  0  0  0  0  0  0
  147.3720  136.3068  152.0100 H   0  0  0  0  0  0  0  0  0  0  0  0
  145.5458  134.7276  152.5762 H   0  0  0  0  0  0  0  0  0  0  0  0
  144.4647  136.1004  152.5916 H   0  0  0  0  0  0  0  0  0  0  0  0
  144.0790  135.8846  150.3702 H   0  0  0  0  0  0  0  0  0  0  0  0
  145.7737  136.1307  150.0043 H   0  0  0  0  0  0  0  0  0  0  0  0
  143.3479  133.7036  151.2170 H   0  0  0  0  0  0  0  0  0  0  0  0
  143.3676  133.1903  149.5151 H   0  0  0  0  0  0  0  0  0  0  0  0
  143.9077  131.0987  151.0344 H   0  0  0  0  0  0  0  0  0  0  0  0
  146.4773  131.2117  151.3429 H   0  0  0  0  0  0  0  0  0  0  0  0
  147.1809  133.3608  149.9768 H   0  0  0  0  0  0  0  0  0  0  0  0
  146.7464  133.8535  151.6291 H   0  0  0  0  0  0  0  0  0  0  0  0
  148.3520  137.8672  152.7211 H   0  0  0  0  0  0  0  0  0  0  0  0
  149.7841  138.9495  154.3825 H   0  0  0  0  0  0  0  0  0  0  0  0
  150.3845  141.2125  155.3982 H   0  0  0  0  0  0  0  0  0  0  0  0
  146.8384  142.9071  154.1180 H   0  0  0  0  0  0  0  0  0  0  0  0
  146.0718  140.7521  153.0346 H   0  0  0  0  0  0  0  0  0  0  0  0
  145.3143  134.1143  149.1626 H   0  0  0  0  0  0  0  0  0  0  0  0
  148.8877  142.9673  155.1927 H   0  0  0  0  0  0  0  0  0  0  0  0
  1  2  2  0  0  0  0
  2  3  1  0  0  0  0
  2 11  1  0  0  0  0
  3  4  1  0  0  0  0
  3 18  1  0  0  0  0
  4  5  1  0  0  0  0
  4 19  1  0  0  0  0
  4 20  1  0  0  0  0
  5  6  1  0  0  0  0
  5 21  1  0  0  0  0
  5 22  1  0  0  0  0
  6 10  1  0  0  0  0
  6  7  1  0  0  0  0
  6 34  1  0  0  0  0
  7  8  1  0  0  0  0
  7 23  1  0  0  0  0
  7 24  1  0  0  0  0
  8  9  2  0  0  0  0
  8 25  1  0  0  0  0
  9 10  1  0  0  0  0
  9 26  1  0  0  0  0
 10 27  1  0  0  0  0
 10 28  1  0  0  0  0
 11 12  1  0  0  0  0
 11 29  1  0  0  0  0
 12 17  1  0  0  0  0
 12 13  2  0  0  0  0
 13 14  1  0  0  0  0
 13 30  1  0  0  0  0
 14 15  2  0  0  0  0
 14 31  1  0  0  0  0
 15 16  1  0  0  0  0
 15 35  1  0  0  0  0
 16 17  2  0  0  0  0
 16 32  1  0  0  0  0
 17 33  1  0  0  0  0
M  CHG  1   6   1
M  CHG  1  15   1
M  END
> <s_m_source_file>
AV-unprocessed.smi

> <i_m_source_file_index>
761

> <i_lp_mmshare_version>
43012

> <i_f3d_flags>
0

> <s_epik_input>
W2NIXTFbY0hdbltjSF1bY0hdYzFbTkhdQyg9TylbTkhdW0NIMl1bQ0gyXU4yW0NIMl1bQ0hdPVtDSF1bQ0gyXTI=

> <s_epik_cmdline>
J2VwaWtfcHl0aG9uJywgJy1waCcsICc3LjAnLCAnLXRuJywgJzgnLCAnLW1hJywgJzIwMCcsICctbWV0YWxfYmluZGluZycsICctaW1hZScsICc8aW5maWxlLm1hZT4nLCAnLW9tYWUnLCAnPG91dGZpbGUubWFlPic=

> <r_epik_Ionization_Penalty>
1.1155

> <r_epik_Ionization_Penalty_Charging>
1.11548

> <r_epik_Ionization_Penalty_Neutral>
1.98533e-05

> <r_epik_State_Penalty>
1.13758

> <r_epik_Charging_Adjusted_Penalty>
2.25306

> <i_epik_Tot_Q>
2

> <i_epik_Tot_abs_Q>
2

> <r_epik_Metal_State_Penalty>
1.22141

> <b_epik_Metal_Only>
0

> <s_lp_Force_Field>
OPLS_2005

> <r_lp_Energy>
33.0614

> <b_lp_Chiralities_Consistent>
1

> <s_lp_Variant>
AV-unprocessed.smi:761-2

> <Gold.Version>
5.8.1

> <Gold.Id.Protein>
6NUR|6NUR_protein|mol2

> <Gold.PLP.Fitness>
46.8794

> <Gold.PLP.PLP>
-33.6273

> <Gold.PLP.part.hbond>
-4.2709

> <Gold.PLP.part.metal>
0.0000

> <Gold.PLP.part.buried>
-3.9555

> <Gold.PLP.part.nonpolar>
-27.5852

> <Gold.PLP.part.repulsive>
1.4243

> <Gold.PLP.ligand.clash>
0.0000

> <Gold.PLP.ligand.torsion>
0.8108

> <Gold.PLP.Chemscore.Hbond>
4.9280

> <Gold.PLP.Chemscore.CHOScore>
0.0000

> <Gold.PLP.Chemscore.Metal>
0.0000

> <Gold.Chemscore.Hbonds>
donor molecule, donor type, donor heavy atom, donor atom, acceptor molecule, acceptor atom, score
      L1  H     3    18       P1  7948  1.00
      L1  H     6    34       P1  7921  1.00
      L1  H    11    29       P1  7948  0.94
      L1  H    15    35       P1  8028  2.00

> <Gold.PLP.Chemscore.Internal.Correction>
0.0898

> <Gold.Rescore>
     Score         DG    S(hbond)    S(metal)    S(lipo)     H(rot)  DE(clash)    DE(int)     intcor
     22.42     -23.61       3.81        0.00      80.00       1.54       0.34       0.85       ----

> <Gold.Chemscore.Fitness>
22.4191

> <Gold.Chemscore.DG>
-23.6100

> <Gold.Chemscore.ZeroCoef>
-5.4800

> <Gold.Chemscore.Hbond>
3.8085

> <Gold.Chemscore.Metal>
0.0000

> <Gold.Chemscore.Lipo>
80.0016

> <Gold.Chemscore.Internal_Hbond>
0.0000

> <Gold.Chemscore.DEClash>
0.3431

> <Gold.Chemscore.DEInternal>
0.8477

> <Gold.Chemscore.Rot>
1.5432

> <Gold.Chemscore.Internal.Correction>
   9.000000E+99

> <Gold.Chemscore.Hbonds>
donor molecule, donor type, donor heavy atom, donor atom, acceptor molecule, acceptor atom, score
      L1  H     3    18       P1  7948  0.96
      L1  H     6    34       P1  7921  0.87
      L1  H    11    29       P1  7948  0.91
      L1  H    15    35       P1  8028  1.00

> <Gold.Chemscore.Hbond.Weighted>
-12.7203

> <Gold.Chemscore.Metal.Weighted>
-0.0000

> <Gold.Chemscore.Lipo.Weighted>
-9.3602

> <Gold.Chemscore.Internal_Hbond.Weighted>
0.0000

> <Gold.Chemscore.DEClash.Weighted>
0.3431

> <Gold.Chemscore.DEInternal.Weighted>
0.8477

> <Gold.Chemscore.Rot.Weighted>
3.9505

> <Gold.Chemscore.Internal.Correction.Weighted>
   9.000000E+99

> <Gold.Protein.RotatedTorsions>
[ 6907 6896 6895 6894 ] final  -74.52 input  -60.11 | X-H torsion
[ 7974 7965 7964 7962 ] final -170.56 input  175.53 | X-H torsion
[ 8008 7997 7996 7995 ] final  125.23 input   59.86 | X-H torsion
[ 10167 10162 10161 10158 ] final  -76.71 input  -65.29 | X-H torsion
[ 10718 10713 10712 10709 ] final   52.27 input   66.30 | X-H torsion
[ 10763 10752 10751 10750 ] final   18.96 input  -60.55 | X-H torsion
[ 11005 11000 10999 10996 ] final -163.16 input  -57.11 | X-H torsion

> <Gold.Protein.ActiveResidues>
 VAL166  LYS551  ARG553  GLY616  TRP617  ASP618  TYR619  PRO620  LYS621  CYS622 
 ASP623  PHE694  ASN695  SER759  ASP760  ASP761  ALA762  ILE779  LEU786  VAL792 
 PHE793  MET794  SER795  GLU796  ALA797  LYS798  CYS799  TRP800  GLU811  SER814 

> <Gold.Protein.RotatedAtoms>
  150.7090  134.4857  159.5491 H   0  0  0  0  0  0  0  0  0  0  0  0  # atno 6907 bound_to 6896
  152.2485  134.8154  160.0459 H   0  0  0  0  0  0  0  0  0  0  0  0  # atno 6908 bound_to 6896
  151.8910  133.3481  159.3835 H   0  0  0  0  0  0  0  0  0  0  0  0  # atno 6909 bound_to 6896
  144.7168  140.2054  143.6333 H   0  0  0  0  0  0  0  0  0  0  0  0  # atno 7974 bound_to 7965
  156.2827  140.2721  156.1915 H   0  0  0  0  0  0  0  0  0  0  0  0  # atno 8008 bound_to 7997
  155.0453  140.0386  157.2542 H   0  0  0  0  0  0  0  0  0  0  0  0  # atno 8009 bound_to 7997
  154.7240  140.2693  155.6521 H   0  0  0  0  0  0  0  0  0  0  0  0  # atno 8010 bound_to 7997
  140.4834  143.2397  151.8022 H   0  0  0  0  0  0  0  0  0  0  0  0  # atno 10167 bound_to 10162
  157.5059  130.8468  149.8374 H   0  0  0  0  0  0  0  0  0  0  0  0  # atno 10718 bound_to 10713
  153.1203  135.6717  153.9347 H   0  0  0  0  0  0  0  0  0  0  0  0  # atno 10763 bound_to 10752
  153.8864  135.3052  155.3448 H   0  0  0  0  0  0  0  0  0  0  0  0  # atno 10764 bound_to 10752
  154.7615  135.4985  153.9553 H   0  0  0  0  0  0  0  0  0  0  0  0  # atno 10765 bound_to 10752
  140.6012  134.4945  157.5205 H   0  0  0  0  0  0  0  0  0  0  0  0  # atno 11005 bound_to 11000
  145.8641  139.2238  143.1699 LP  0  0  0  0  0  0  0  0  0  0  0  0  # atno 17320 bound_to 7965
  146.0146  140.8404  142.9954 LP  0  0  0  0  0  0  0  0  0  0  0  0  # atno 17321 bound_to 7965
  139.4837  144.4743  151.9386 LP  0  0  0  0  0  0  0  0  0  0  0  0  # atno 17342 bound_to 10162
  140.3829  144.2713  150.5907 LP  0  0  0  0  0  0  0  0  0  0  0  0  # atno 17343 bound_to 10162
  156.0258  130.3780  150.1828 LP  0  0  0  0  0  0  0  0  0  0  0  0  # atno 17370 bound_to 10713
  157.0018  130.9924  151.3389 LP  0  0  0  0  0  0  0  0  0  0  0  0  # atno 17371 bound_to 10713
  139.9232  134.8108  156.1148 LP  0  0  0  0  0  0  0  0  0  0  0  0  # atno 17394 bound_to 11000
  141.0871  133.6729  156.2460 LP  0  0  0  0  0  0  0  0  0  0  0  0  # atno 17395 bound_to 11000

$$$$
