AV-unprocessed.smi:1292|AV-procd|sdf|5396|dock10
  -GOLD-   22720 4553D 1   1.00000     0.00000
 Structure written by MMmdl.
 40 41  0  0  0  0  0  0  0  0  1 V2000
  148.8261  140.3379  154.1114 C   0  0  0  0  0  0  0  0  0  0  0  0
  149.8045  139.4198  154.8564 C   0  0  1  0  0  0  0  0  0  0  0  0
  150.5665  138.5042  153.8854 C   0  0  0  0  0  0  0  0  0  0  0  0
  151.5198  137.5838  154.6574 C   0  0  0  0  0  0  0  0  0  0  0  0
  152.4691  138.3768  155.5724 C   0  0  0  0  0  0  0  0  0  0  0  0
  151.7478  139.3534  156.4150 N   0  0  0  0  0  0  0  0  0  0  0  0
  151.6407  139.1723  158.1419 S   0  0  0  0  0  0  0  0  0  0  0  0
  152.9188  138.6626  158.6625 O   0  0  0  0  0  0  0  0  0  0  0  0
  151.0338  140.3973  158.6841 O   0  0  0  0  0  0  0  0  0  0  0  0
  150.4544  137.9228  158.2513 N   0  0  0  0  0  0  0  0  0  0  0  0
  149.8077  137.5586  159.5131 C   0  0  0  0  0  0  0  0  0  0  0  0
  148.5844  136.6650  159.2564 C   0  0  0  0  0  0  0  0  0  0  0  0
  147.9186  136.2004  160.5404 C   0  0  0  0  0  0  0  0  0  0  0  0
  147.9452  134.8401  160.9162 C   0  0  0  0  0  0  0  0  0  0  0  0
  147.3352  134.4671  162.1293 C   0  0  0  0  0  0  0  0  0  0  0  0
  146.7251  135.4630  162.9160 C   0  0  0  0  0  0  0  0  0  0  0  0
  146.7506  136.7930  162.4515 C   0  0  0  0  0  0  0  0  0  0  0  0
  147.3330  137.1616  161.2900 N   0  0  0  0  0  0  0  0  0  0  0  0
  150.7992  140.2333  155.7069 C   0  0  0  0  0  0  0  0  0  0  0  0
  149.3498  140.9980  153.4194 H   0  0  0  0  0  0  0  0  0  0  0  0
  148.2661  140.9618  154.8085 H   0  0  0  0  0  0  0  0  0  0  0  0
  148.1038  139.7574  153.5365 H   0  0  0  0  0  0  0  0  0  0  0  0
  149.2136  138.7939  155.5253 H   0  0  0  0  0  0  0  0  0  0  0  0
  149.8673  137.9038  153.3025 H   0  0  0  0  0  0  0  0  0  0  0  0
  151.1324  139.1056  153.1726 H   0  0  0  0  0  0  0  0  0  0  0  0
  150.9493  136.8667  155.2424 H   0  0  0  0  0  0  0  0  0  0  0  0
  152.1046  136.9905  153.9542 H   0  0  0  0  0  0  0  0  0  0  0  0
  153.0540  137.6951  156.1887 H   0  0  0  0  0  0  0  0  0  0  0  0
  153.1848  138.9249  154.9591 H   0  0  0  0  0  0  0  0  0  0  0  0
  150.5798  137.1595  157.5868 H   0  0  0  0  0  0  0  0  0  0  0  0
  150.5205  137.0319  160.1438 H   0  0  0  0  0  0  0  0  0  0  0  0
  149.5033  138.4608  160.0433 H   0  0  0  0  0  0  0  0  0  0  0  0
  147.8517  137.2113  158.6610 H   0  0  0  0  0  0  0  0  0  0  0  0
  148.8727  135.7985  158.6595 H   0  0  0  0  0  0  0  0  0  0  0  0
  148.4284  134.1006  160.2945 H   0  0  0  0  0  0  0  0  0  0  0  0
  147.3384  133.4363  162.4517 H   0  0  0  0  0  0  0  0  0  0  0  0
  146.2501  135.2137  163.8533 H   0  0  0  0  0  0  0  0  0  0  0  0
  146.2933  137.5823  163.0295 H   0  0  0  0  0  0  0  0  0  0  0  0
  151.3670  140.9141  155.0717 H   0  0  0  0  0  0  0  0  0  0  0  0
  150.2632  140.8540  156.4253 H   0  0  0  0  0  0  0  0  0  0  0  0
  1  2  1  0  0  0  0
  1 20  1  0  0  0  0
  1 21  1  0  0  0  0
  1 22  1  0  0  0  0
  2 19  1  0  0  0  0
  2  3  1  0  0  0  0
  2 23  1  0  0  0  0
  3  4  1  0  0  0  0
  3 24  1  0  0  0  0
  3 25  1  0  0  0  0
  4  5  1  0  0  0  0
  4 26  1  0  0  0  0
  4 27  1  0  0  0  0
  5  6  1  0  0  0  0
  5 28  1  0  0  0  0
  5 29  1  0  0  0  0
  6  7  1  0  0  0  0
  6 19  1  0  0  0  0
  7  8  2  0  0  0  0
  7  9  2  0  0  0  0
  7 10  1  0  0  0  0
 10 11  1  0  0  0  0
 10 30  1  0  0  0  0
 11 12  1  0  0  0  0
 11 31  1  0  0  0  0
 11 32  1  0  0  0  0
 12 13  1  0  0  0  0
 12 33  1  0  0  0  0
 12 34  1  0  0  0  0
 13 18  1  0  0  0  0
 13 14  2  0  0  0  0
 14 15  1  0  0  0  0
 14 35  1  0  0  0  0
 15 16  2  0  0  0  0
 15 36  1  0  0  0  0
 16 17  1  0  0  0  0
 16 37  1  0  0  0  0
 17 18  2  0  0  0  0
 17 38  1  0  0  0  0
 19 39  1  0  0  0  0
 19 40  1  0  0  0  0
M  END
> <s_m_source_file>
AV-unprocessed.smi

> <i_m_source_file_index>
1292

> <i_lp_mmshare_version>
43012

> <i_f3d_flags>
0

> <s_epik_input>
W0NIM11bQ0BASF0xW0NIMl1bQ0gyXVtDSDJdTihbQ0gyXTEpUyg9TykoPU8pW05IXVtDSDJdW0NIMl1jMltjSF1bY0hdW2NIXVtjSF1uMg==

> <s_epik_cmdline>
J2VwaWtfcHl0aG9uJywgJy1waCcsICc3LjAnLCAnLXRuJywgJzgnLCAnLW1hJywgJzIwMCcsICctbWV0YWxfYmluZGluZycsICctaW1hZScsICc8aW5maWxlLm1hZT4nLCAnLW9tYWUnLCAnPG91dGZpbGUubWFlPic=

> <r_epik_Ionization_Penalty>
0.0252758

> <r_epik_Ionization_Penalty_Charging>
0

> <r_epik_Ionization_Penalty_Neutral>
0.0252758

> <r_epik_State_Penalty>
0.0138562

> <r_epik_Charging_Adjusted_Penalty>
0.0138562

> <i_epik_Tot_Q>
0

> <i_epik_Tot_abs_Q>
0

> <r_epik_Metal_State_Penalty>
0.204365

> <b_epik_Metal_Only>
0

> <s_lp_Force_Field>
OPLS_2005

> <r_lp_Energy>
8.19125

> <b_lp_Chiralities_Consistent>
1

> <s_lp_Variant>
AV-unprocessed.smi:1292-2

> <Gold.Version>
5.8.1

> <Gold.Id.Protein>
6NUR|6NUR_protein|mol2

> <Gold.PLP.Fitness>
44.3359

> <Gold.PLP.PLP>
-39.3521

> <Gold.PLP.part.hbond>
-2.0000

> <Gold.PLP.part.metal>
0.0000

> <Gold.PLP.part.buried>
-1.8270

> <Gold.PLP.part.nonpolar>
-35.1373

> <Gold.PLP.part.repulsive>
0.0863

> <Gold.PLP.ligand.clash>
0.0000

> <Gold.PLP.ligand.torsion>
1.7500

> <Gold.PLP.Chemscore.Hbond>
1.8320

> <Gold.PLP.Chemscore.CHOScore>
0.0000

> <Gold.PLP.Chemscore.Metal>
0.0000

> <Gold.Chemscore.Hbonds>
donor molecule, donor type, donor heavy atom, donor atom, acceptor molecule, acceptor atom, score
      P1  H  6931  6943       L1    18  0.71
      P1  H  6934  6947       L1    18  1.00

> <Gold.PLP.Chemscore.Internal.Correction>
2.9878

> <Gold.Rescore>
     Score         DG    S(hbond)    S(metal)    S(lipo)     H(rot)  DE(clash)    DE(int)     intcor
     14.78     -17.02       1.20        0.00      92.87       1.30       0.49       1.74       ----

> <Gold.Chemscore.Fitness>
14.7820

> <Gold.Chemscore.DG>
-17.0185

> <Gold.Chemscore.ZeroCoef>
-5.4800

> <Gold.Chemscore.Hbond>
1.2008

> <Gold.Chemscore.Metal>
0.0000

> <Gold.Chemscore.Lipo>
92.8698

> <Gold.Chemscore.Internal_Hbond>
0.0000

> <Gold.Chemscore.DEClash>
0.4935

> <Gold.Chemscore.DEInternal>
1.7429

> <Gold.Chemscore.Rot>
1.3039

> <Gold.Chemscore.Internal.Correction>
   9.000000E+99

> <Gold.Chemscore.Hbonds>
donor molecule, donor type, donor heavy atom, donor atom, acceptor molecule, acceptor atom, score
      P1  H  6931  6943       L1    18  0.09
      P1  H  6934  6947       L1    18  0.80

> <Gold.Chemscore.Hbond.Weighted>
-4.0106

> <Gold.Chemscore.Metal.Weighted>
-0.0000

> <Gold.Chemscore.Lipo.Weighted>
-10.8658

> <Gold.Chemscore.Internal_Hbond.Weighted>
0.0000

> <Gold.Chemscore.DEClash.Weighted>
0.4935

> <Gold.Chemscore.DEInternal.Weighted>
1.7429

> <Gold.Chemscore.Rot.Weighted>
3.3379

> <Gold.Chemscore.Internal.Correction.Weighted>
   9.000000E+99

> <Gold.Protein.RotatedTorsions>
[ 6907 6896 6895 6894 ] final -129.03 input  -60.11 | X-H torsion
[ 7974 7965 7964 7962 ] final -107.39 input  175.53 | X-H torsion
[ 8008 7997 7996 7995 ] final -157.94 input   59.86 | X-H torsion
[ 10167 10162 10161 10158 ] final    7.63 input  -65.29 | X-H torsion
[ 10718 10713 10712 10709 ] final   -9.10 input   66.30 | X-H torsion
[ 10763 10752 10751 10750 ] final   81.02 input  -60.55 | X-H torsion
[ 11005 11000 10999 10996 ] final  -71.58 input  -57.11 | X-H torsion

> <Gold.Protein.ActiveResidues>
 VAL166  LYS551  ARG553  GLY616  TRP617  ASP618  TYR619  PRO620  LYS621  CYS622 
 ASP623  PHE694  ASN695  SER759  ASP760  ASP761  ALA762  ILE779  LEU786  VAL792 
 PHE793  MET794  SER795  GLU796  ALA797  LYS798  CYS799  TRP800  GLU811  SER814 

> <Gold.Protein.RotatedAtoms>
  150.9243  133.6842  159.2824 H   0  0  0  0  0  0  0  0  0  0  0  0  # atno 6907 bound_to 6896
  151.4286  135.1005  159.9645 H   0  0  0  0  0  0  0  0  0  0  0  0  # atno 6908 bound_to 6896
  152.4995  133.8678  159.7338 H   0  0  0  0  0  0  0  0  0  0  0  0  # atno 6909 bound_to 6896
  145.2059  140.9076  143.3342 H   0  0  0  0  0  0  0  0  0  0  0  0  # atno 7974 bound_to 7965
  155.7400  140.0813  157.2250 H   0  0  0  0  0  0  0  0  0  0  0  0  # atno 8008 bound_to 7997
  154.4023  140.1579  156.2660 H   0  0  0  0  0  0  0  0  0  0  0  0  # atno 8009 bound_to 7997
  155.9029  140.3408  155.6043 H   0  0  0  0  0  0  0  0  0  0  0  0  # atno 8010 bound_to 7997
  140.6360  143.7884  150.7361 H   0  0  0  0  0  0  0  0  0  0  0  0  # atno 10167 bound_to 10162
  156.6929  130.5070  149.5938 H   0  0  0  0  0  0  0  0  0  0  0  0  # atno 10718 bound_to 10713
  153.1082  135.4781  154.8988 H   0  0  0  0  0  0  0  0  0  0  0  0  # atno 10763 bound_to 10752
  154.7452  135.3092  154.8659 H   0  0  0  0  0  0  0  0  0  0  0  0  # atno 10764 bound_to 10752
  153.9256  135.6850  153.4800 H   0  0  0  0  0  0  0  0  0  0  0  0  # atno 10765 bound_to 10752
  141.1594  133.6821  156.6927 H   0  0  0  0  0  0  0  0  0  0  0  0  # atno 11005 bound_to 11000
  144.9902  139.3696  143.6218 LP  0  0  0  0  0  0  0  0  0  0  0  0  # atno 17320 bound_to 7965
  146.3408  139.9082  142.8784 LP  0  0  0  0  0  0  0  0  0  0  0  0  # atno 17321 bound_to 7965
  140.1505  143.4361  152.2134 LP  0  0  0  0  0  0  0  0  0  0  0  0  # atno 17342 bound_to 10162
  139.5571  144.7380  151.4263 LP  0  0  0  0  0  0  0  0  0  0  0  0  # atno 17343 bound_to 10162
  156.1784  130.6483  151.0922 LP  0  0  0  0  0  0  0  0  0  0  0  0  # atno 17370 bound_to 10713
  157.7002  131.0779  150.6844 LP  0  0  0  0  0  0  0  0  0  0  0  0  # atno 17371 bound_to 10713
  140.3018  134.8157  157.4104 LP  0  0  0  0  0  0  0  0  0  0  0  0  # atno 17394 bound_to 11000
  140.1255  134.5164  155.8148 LP  0  0  0  0  0  0  0  0  0  0  0  0  # atno 17395 bound_to 11000

$$$$
