AV-unprocessed.smi:2439|AV-procd|sdf|9606|dock7
  -GOLD-   2272013243D 1   1.00000     0.00000
 Structure written by MMmdl.
 41 43  0  0  0  0  0  0  0  0  2 V2000
  153.8557  141.0945  161.2366 N   0  0  0  0  0  0  0  0  0  0  0  0
  153.1823  141.9016  160.7532 C   0  0  0  0  0  0  0  0  0  0  0  0
  152.3345  142.9197  160.1444 C   0  0  0  0  0  0  0  0  0  0  0  0
  152.2833  144.2032  160.7276 C   0  0  0  0  0  0  0  0  0  0  0  0
  151.4649  145.1886  160.1461 C   0  0  0  0  0  0  0  0  0  0  0  0
  150.7282  144.8493  158.9971 C   0  0  0  0  0  0  0  0  0  0  0  0
  150.7678  143.6260  158.4292 N   0  0  0  0  0  0  0  0  0  0  0  0
  151.5528  142.6699  158.9844 C   0  0  0  0  0  0  0  0  0  0  0  0
  151.5734  141.4033  158.3708 N   0  0  0  0  0  0  0  0  0  0  0  0
  151.6327  141.2444  156.9225 C   0  0  0  0  0  0  0  0  0  0  0  0
  150.4640  140.4085  156.3729 C   0  0  1  0  0  0  0  0  0  0  0  0
  149.1268  141.1602  156.4957 C   0  0  0  0  0  0  0  0  0  0  0  0
  148.0278  140.3755  155.8803 N   0  3  1  0  0  0  0  0  0  0  0  0
  146.6903  141.0113  156.0080 C   0  0  0  0  0  0  0  0  0  0  0  0
  146.5156  142.1997  155.0430 C   0  0  0  0  0  0  0  0  0  0  0  0
  146.8088  141.7837  153.5951 C   0  0  0  0  0  0  0  0  0  0  0  0
  148.1974  141.1368  153.4940 C   0  0  0  0  0  0  0  0  0  0  0  0
  148.3375  139.9596  154.4844 C   0  0  1  0  0  0  0  0  0  0  0  0
  149.7267  139.2945  154.4234 C   0  0  0  0  0  0  0  0  0  0  0  0
  150.7085  140.1511  154.9941 O   0  0  0  0  0  0  0  0  0  0  0  0
  152.8617  144.4351  161.6106 H   0  0  0  0  0  0  0  0  0  0  0  0
  151.4042  146.1800  160.5701 H   0  0  0  0  0  0  0  0  0  0  0  0
  150.0888  145.5784  158.5218 H   0  0  0  0  0  0  0  0  0  0  0  0
  151.4408  140.5778  158.9379 H   0  0  0  0  0  0  0  0  0  0  0  0
  151.6514  142.2279  156.4515 H   0  0  0  0  0  0  0  0  0  0  0  0
  152.5802  140.7695  156.6665 H   0  0  0  0  0  0  0  0  0  0  0  0
  150.3961  139.4648  156.9172 H   0  0  0  0  0  0  0  0  0  0  0  0
  148.8977  141.3360  157.5476 H   0  0  0  0  0  0  0  0  0  0  0  0
  149.2085  142.1391  156.0231 H   0  0  0  0  0  0  0  0  0  0  0  0
  145.9319  140.2573  155.7931 H   0  0  0  0  0  0  0  0  0  0  0  0
  146.5242  141.3276  157.0384 H   0  0  0  0  0  0  0  0  0  0  0  0
  145.4995  142.5886  155.1166 H   0  0  0  0  0  0  0  0  0  0  0  0
  147.1742  143.0190  155.3318 H   0  0  0  0  0  0  0  0  0  0  0  0
  146.0496  141.0782  153.2553 H   0  0  0  0  0  0  0  0  0  0  0  0
  146.7475  142.6493  152.9348 H   0  0  0  0  0  0  0  0  0  0  0  0
  148.3613  140.7858  152.4747 H   0  0  0  0  0  0  0  0  0  0  0  0
  148.9662  141.8868  153.6828 H   0  0  0  0  0  0  0  0  0  0  0  0
  147.6004  139.2061  154.2026 H   0  0  0  0  0  0  0  0  0  0  0  0
  149.7197  138.3399  154.9519 H   0  0  0  0  0  0  0  0  0  0  0  0
  150.0002  139.0767  153.3908 H   0  0  0  0  0  0  0  0  0  0  0  0
  147.9803  139.5222  156.4191 H   0  0  0  0  0  0  0  0  0  0  0  0
  1  2  3  0  0  0  0
  2  3  1  0  0  0  0
  3  8  1  0  0  0  0
  3  4  2  0  0  0  0
  4  5  1  0  0  0  0
  4 21  1  0  0  0  0
  5  6  2  0  0  0  0
  5 22  1  0  0  0  0
  6  7  1  0  0  0  0
  6 23  1  0  0  0  0
  7  8  2  0  0  0  0
  8  9  1  0  0  0  0
  9 10  1  0  0  0  0
  9 24  1  0  0  0  0
 10 11  1  0  0  0  0
 10 25  1  0  0  0  0
 10 26  1  0  0  0  0
 11 20  1  0  0  0  0
 11 12  1  0  0  0  0
 11 27  1  0  0  0  0
 12 13  1  0  0  0  0
 12 28  1  0  0  0  0
 12 29  1  0  0  0  0
 13 18  1  0  0  0  0
 13 14  1  0  0  0  0
 13 41  1  0  0  0  0
 14 15  1  0  0  0  0
 14 30  1  0  0  0  0
 14 31  1  0  0  0  0
 15 16  1  0  0  0  0
 15 32  1  0  0  0  0
 15 33  1  0  0  0  0
 16 17  1  0  0  0  0
 16 34  1  0  0  0  0
 16 35  1  0  0  0  0
 17 18  1  0  0  0  0
 17 36  1  0  0  0  0
 17 37  1  0  0  0  0
 18 19  1  0  0  0  0
 18 38  1  0  0  0  0
 19 20  1  0  0  0  0
 19 39  1  0  0  0  0
 19 40  1  0  0  0  0
M  CHG  1  13   1
M  END
> <s_m_source_file>
AV-unprocessed.smi

> <i_m_source_file_index>
2439

> <i_lp_mmshare_version>
43012

> <i_f3d_flags>
0

> <s_epik_input>
TiNDYzFbY0hdW2NIXVtjSF1uYzFbTkhdW0NIMl1bQ0BIXShbQ0gyXTIpT1tDSDJdW0NAQEhdKE4yMylbQ0gyXVtDSDJdW0NIMl1bQ0gyXTM=

> <s_epik_cmdline>
J2VwaWtfcHl0aG9uJywgJy1waCcsICc3LjAnLCAnLXRuJywgJzgnLCAnLW1hJywgJzIwMCcsICctbWV0YWxfYmluZGluZycsICctaW1hZScsICc8aW5maWxlLm1hZT4nLCAnLW9tYWUnLCAnPG91dGZpbGUubWFlPic=

> <r_epik_Ionization_Penalty>
0.0803594

> <r_epik_Ionization_Penalty_Charging>
0.0803403

> <r_epik_Ionization_Penalty_Neutral>
1.90988e-05

> <r_epik_State_Penalty>
0.0711481

> <r_epik_Charging_Adjusted_Penalty>
0.151488

> <i_epik_Tot_Q>
1

> <i_epik_Tot_abs_Q>
1

> <r_epik_Metal_State_Penalty>
0.0711482

> <b_epik_Metal_Only>
0

> <s_lp_Force_Field>
OPLS_2005

> <r_lp_Energy>
29.8986

> <b_lp_Chiralities_Consistent>
1

> <s_lp_Variant>
AV-unprocessed.smi:2439-4

> <Gold.Version>
5.8.1

> <Gold.Id.Protein>
6NUR|6NUR_protein|mol2

> <Gold.PLP.Fitness>
43.3670

> <Gold.PLP.PLP>
-38.1360

> <Gold.PLP.part.hbond>
-1.0000

> <Gold.PLP.part.metal>
0.0000

> <Gold.PLP.part.buried>
-5.7953

> <Gold.PLP.part.nonpolar>
-31.3254

> <Gold.PLP.part.repulsive>
0.2866

> <Gold.PLP.ligand.clash>
0.0000

> <Gold.PLP.ligand.torsion>
0.3859

> <Gold.PLP.Chemscore.Hbond>
1.0000

> <Gold.PLP.Chemscore.CHOScore>
1.0000

> <Gold.PLP.Chemscore.Metal>
0.0000

> <Gold.Chemscore.Hbonds>
donor molecule, donor type, donor heavy atom, donor atom, acceptor molecule, acceptor atom, score
      P1  H  7989  7998       L1    20  1.00
      L1  C     6    23       P1  8029  1.00

> <Gold.PLP.Chemscore.Internal.Correction>
0.0028

> <Gold.Rescore>
     Score         DG    S(hbond)    S(metal)    S(lipo)     H(rot)  DE(clash)    DE(int)     intcor
     16.08     -16.59       0.88        0.00      97.42       1.27       0.28       0.23       ----

> <Gold.Chemscore.Fitness>
16.0810

> <Gold.Chemscore.DG>
-16.5883

> <Gold.Chemscore.ZeroCoef>
-5.4800

> <Gold.Chemscore.Hbond>
0.8834

> <Gold.Chemscore.Metal>
0.0000

> <Gold.Chemscore.Lipo>
97.4226

> <Gold.Chemscore.Internal_Hbond>
0.0000

> <Gold.Chemscore.DEClash>
0.2775

> <Gold.Chemscore.DEInternal>
0.2298

> <Gold.Chemscore.Rot>
1.2659

> <Gold.Chemscore.Internal.Correction>
   9.000000E+99

> <Gold.Chemscore.Hbonds>
donor molecule, donor type, donor heavy atom, donor atom, acceptor molecule, acceptor atom, score
      P1  H  7989  7998       L1    20  0.45

> <Gold.Chemscore.Hbond.Weighted>
-2.9507

> <Gold.Chemscore.Metal.Weighted>
-0.0000

> <Gold.Chemscore.Lipo.Weighted>
-11.3984

> <Gold.Chemscore.Internal_Hbond.Weighted>
0.0000

> <Gold.Chemscore.DEClash.Weighted>
0.2775

> <Gold.Chemscore.DEInternal.Weighted>
0.2298

> <Gold.Chemscore.Rot.Weighted>
3.2408

> <Gold.Chemscore.Internal.Correction.Weighted>
   9.000000E+99

> <Gold.Protein.RotatedTorsions>
[ 6907 6896 6895 6894 ] final  -96.77 input  -60.11 | X-H torsion
[ 7974 7965 7964 7962 ] final  -18.76 input  175.53 | X-H torsion
[ 8008 7997 7996 7995 ] final -165.12 input   59.86 | X-H torsion
[ 10167 10162 10161 10158 ] final -154.43 input  -65.29 | X-H torsion
[ 10718 10713 10712 10709 ] final   92.82 input   66.30 | X-H torsion
[ 10763 10752 10751 10750 ] final  131.60 input  -60.55 | X-H torsion
[ 11005 11000 10999 10996 ] final  -31.21 input  -57.11 | X-H torsion

> <Gold.Protein.ActiveResidues>
 VAL166  LYS551  ARG553  GLY616  TRP617  ASP618  TYR619  PRO620  LYS621  CYS622 
 ASP623  PHE694  ASN695  SER759  ASP760  ASP761  ALA762  ILE779  LEU786  VAL792 
 PHE793  MET794  SER795  GLU796  ALA797  LYS798  CYS799  TRP800  GLU811  SER814 

> <Gold.Protein.RotatedAtoms>
  150.6998  134.1451  159.4119 H   0  0  0  0  0  0  0  0  0  0  0  0  # atno 6907 bound_to 6896
  151.9435  135.0200  160.0546 H   0  0  0  0  0  0  0  0  0  0  0  0  # atno 6908 bound_to 6896
  152.2073  133.4850  159.5128 H   0  0  0  0  0  0  0  0  0  0  0  0  # atno 6909 bound_to 6896
  146.1876  140.3966  142.8470 H   0  0  0  0  0  0  0  0  0  0  0  0  # atno 7974 bound_to 7965
  155.8452  140.0954  157.1709 H   0  0  0  0  0  0  0  0  0  0  0  0  # atno 8008 bound_to 7997
  154.3983  140.1393  156.3839 H   0  0  0  0  0  0  0  0  0  0  0  0  # atno 8009 bound_to 7997
  155.8021  140.3452  155.5411 H   0  0  0  0  0  0  0  0  0  0  0  0  # atno 8010 bound_to 7997
  139.7014  143.9258  152.2430 H   0  0  0  0  0  0  0  0  0  0  0  0  # atno 10167 bound_to 10162
  157.6957  131.0456  150.3940 H   0  0  0  0  0  0  0  0  0  0  0  0  # atno 10718 bound_to 10713
  153.7770  135.3174  155.3360 H   0  0  0  0  0  0  0  0  0  0  0  0  # atno 10763 bound_to 10752
  154.8175  135.4626  154.0688 H   0  0  0  0  0  0  0  0  0  0  0  0  # atno 10764 bound_to 10752
  153.1965  135.6916  153.8370 H   0  0  0  0  0  0  0  0  0  0  0  0  # atno 10765 bound_to 10752
  140.9448  133.7256  156.1131 H   0  0  0  0  0  0  0  0  0  0  0  0  # atno 11005 bound_to 11000
  144.8426  140.6880  143.6220 LP  0  0  0  0  0  0  0  0  0  0  0  0  # atno 17320 bound_to 7965
  145.3892  139.1620  143.4238 LP  0  0  0  0  0  0  0  0  0  0  0  0  # atno 17321 bound_to 7965
  139.9101  144.6861  150.8571 LP  0  0  0  0  0  0  0  0  0  0  0  0  # atno 17342 bound_to 10162
  140.7710  143.3450  151.2130 LP  0  0  0  0  0  0  0  0  0  0  0  0  # atno 17343 bound_to 10162
  156.4340  130.3978  149.6741 LP  0  0  0  0  0  0  0  0  0  0  0  0  # atno 17370 bound_to 10713
  156.3948  130.7645  151.2649 LP  0  0  0  0  0  0  0  0  0  0  0  0  # atno 17371 bound_to 10713
  140.7684  134.3861  157.5512 LP  0  0  0  0  0  0  0  0  0  0  0  0  # atno 17394 bound_to 11000
  139.8830  134.9006  156.2792 LP  0  0  0  0  0  0  0  0  0  0  0  0  # atno 17395 bound_to 11000

$$$$
