AV-unprocessed.smi:3112|AV-procd|sdf|11844|dock9
  -GOLD-   2272017223D 1   1.00000     0.00000
 Structure written by MMmdl.
 36 36  0  0  0  0  0  0  0  0  1 V2000
  153.5405  137.3615  161.1852 C   0  0  0  0  0  0  0  0  0  0  0  0
  154.3447  137.9186  162.3681 C   0  0  0  0  0  0  0  0  0  0  0  0
  155.5257  138.8113  161.9379 C   0  0  2  0  0  0  0  0  0  0  0  0
  156.2762  139.1491  163.0863 O   0  0  0  0  0  0  0  0  0  0  0  0
  155.0777  140.1254  161.2760 C   0  0  0  0  0  0  0  0  0  0  0  0
  154.0530  140.8018  162.0735 N   0  0  0  0  0  0  0  0  0  0  0  0
  153.7036  142.1504  161.6163 C   0  0  2  0  0  0  0  0  0  0  0  0
  153.1006  142.9185  162.8077 C   0  0  0  0  0  0  0  0  0  0  0  0
  152.7440  142.1159  160.3887 C   0  0  2  0  0  0  0  0  0  0  0  0
  153.2696  141.3025  159.1912 C   0  0  0  0  0  0  0  0  0  0  0  0
  152.3847  143.4578  159.9456 N   0  0  0  0  0  0  0  0  0  0  0  0
  152.5460  144.0149  158.6935 C   0  0  0  0  0  0  0  0  0  0  0  0
  152.0617  145.2902  158.7476 C   0  0  0  0  0  0  0  0  0  0  0  0
  151.6203  145.4271  160.0931 C   0  0  0  0  0  0  0  0  0  0  0  0
  151.8139  144.3306  160.8074 N   0  0  0  0  0  0  0  0  0  0  0  0
  152.7012  136.7612  161.5365 H   0  0  0  0  0  0  0  0  0  0  0  0
  154.1553  136.7263  160.5474 H   0  0  0  0  0  0  0  0  0  0  0  0
  153.1377  138.1665  160.5697 H   0  0  0  0  0  0  0  0  0  0  0  0
  153.6638  138.4930  162.9969 H   0  0  0  0  0  0  0  0  0  0  0  0
  154.7048  137.0959  162.9873 H   0  0  0  0  0  0  0  0  0  0  0  0
  156.1795  138.2659  161.2559 H   0  0  0  0  0  0  0  0  0  0  0  0
  155.9783  138.6150  163.8068 H   0  0  0  0  0  0  0  0  0  0  0  0
  155.9397  140.7805  161.1424 H   0  0  0  0  0  0  0  0  0  0  0  0
  154.7038  139.9125  160.2765 H   0  0  0  0  0  0  0  0  0  0  0  0
  154.3677  140.8471  163.0374 H   0  0  0  0  0  0  0  0  0  0  0  0
  154.6132  142.6823  161.3331 H   0  0  0  0  0  0  0  0  0  0  0  0
  152.9342  143.9698  162.5725 H   0  0  0  0  0  0  0  0  0  0  0  0
  153.7689  142.8913  163.6692 H   0  0  0  0  0  0  0  0  0  0  0  0
  152.1459  142.4899  163.1145 H   0  0  0  0  0  0  0  0  0  0  0  0
  151.8147  141.6432  160.7112 H   0  0  0  0  0  0  0  0  0  0  0  0
  153.2999  140.2372  159.4175 H   0  0  0  0  0  0  0  0  0  0  0  0
  154.2712  141.6192  158.8989 H   0  0  0  0  0  0  0  0  0  0  0  0
  152.6188  141.4182  158.3239 H   0  0  0  0  0  0  0  0  0  0  0  0
  152.9859  143.4625  157.8763 H   0  0  0  0  0  0  0  0  0  0  0  0
  152.0279  146.0154  157.9481 H   0  0  0  0  0  0  0  0  0  0  0  0
  151.1678  146.2847  160.5688 H   0  0  0  0  0  0  0  0  0  0  0  0
  1  2  1  0  0  0  0
  1 16  1  0  0  0  0
  1 17  1  0  0  0  0
  1 18  1  0  0  0  0
  2  3  1  0  0  0  0
  2 19  1  0  0  0  0
  2 20  1  0  0  0  0
  3  4  1  0  0  0  0
  3  5  1  0  0  0  0
  3 21  1  0  0  0  0
  4 22  1  0  0  0  0
  5  6  1  0  0  0  0
  5 23  1  0  0  0  0
  5 24  1  0  0  0  0
  6  7  1  0  0  0  0
  6 25  1  0  0  0  0
  7  8  1  0  0  0  0
  7  9  1  0  0  0  0
  7 26  1  0  0  0  0
  8 27  1  0  0  0  0
  8 28  1  0  0  0  0
  8 29  1  0  0  0  0
  9 10  1  0  0  0  0
  9 11  1  0  0  0  0
  9 30  1  0  0  0  0
 10 31  1  0  0  0  0
 10 32  1  0  0  0  0
 10 33  1  0  0  0  0
 11 15  1  0  0  0  0
 11 12  1  0  0  0  0
 12 13  2  0  0  0  0
 12 34  1  0  0  0  0
 13 14  1  0  0  0  0
 13 35  1  0  0  0  0
 14 15  2  0  0  0  0
 14 36  1  0  0  0  0
M  END
> <s_m_source_file>
AV-unprocessed.smi

> <i_m_source_file_index>
3112

> <i_lp_mmshare_version>
43012

> <i_f3d_flags>
0

> <s_epik_input>
W0NIM11bQ0gyXVtDQEhdKFtPSF0pW0NIMl1bTkhdW0NASF0oW0NIM10pW0NASF0oW0NIM10pbjFbY0hdW2NIXVtjSF1uMQ==

> <s_epik_cmdline>
J2VwaWtfcHl0aG9uJywgJy1waCcsICc3LjAnLCAnLXRuJywgJzgnLCAnLW1hJywgJzIwMCcsICctbWV0YWxfYmluZGluZycsICctaW1hZScsICc8aW5maWxlLm1hZT4nLCAnLW9tYWUnLCAnPG91dGZpbGUubWFlPic=

> <r_lp_tautomer_probability>
1

> <r_epik_Ionization_Penalty>
2.16876

> <r_epik_Ionization_Penalty_Charging>
0

> <r_epik_Ionization_Penalty_Neutral>
2.16876

> <r_epik_State_Penalty>
2.30854

> <r_epik_Charging_Adjusted_Penalty>
2.30854

> <i_epik_Tot_Q>
0

> <i_epik_Tot_abs_Q>
0

> <r_epik_Metal_State_Penalty>
2.3073

> <b_epik_Metal_Only>
0

> <s_lp_Force_Field>
OPLS_2005

> <r_lp_Energy>
16.1769

> <b_lp_Chiralities_Consistent>
1

> <s_lp_Variant>
AV-unprocessed.smi:3112-9

> <Gold.Version>
5.8.1

> <Gold.Id.Protein>
6NUR|6NUR_protein|mol2

> <Gold.PLP.Fitness>
40.0046

> <Gold.PLP.PLP>
-40.5382

> <Gold.PLP.part.hbond>
0.0000

> <Gold.PLP.part.metal>
0.0000

> <Gold.PLP.part.buried>
-4.7305

> <Gold.PLP.part.nonpolar>
-35.1945

> <Gold.PLP.part.repulsive>
0.1289

> <Gold.PLP.ligand.clash>
0.0000

> <Gold.PLP.ligand.torsion>
0.3414

> <Gold.PLP.Chemscore.Hbond>
0.0000

> <Gold.PLP.Chemscore.CHOScore>
0.0000

> <Gold.PLP.Chemscore.Metal>
0.0000

> <Gold.PLP.Chemscore.Internal.Correction>
0.1493

> <Gold.Rescore>
     Score         DG    S(hbond)    S(metal)    S(lipo)     H(rot)  DE(clash)    DE(int)     intcor
     10.80     -12.80       0.00        0.00     113.14       2.31       0.14       1.86       ----

> <Gold.Chemscore.Fitness>
10.7972

> <Gold.Chemscore.DG>
-12.8012

> <Gold.Chemscore.ZeroCoef>
-5.4800

> <Gold.Chemscore.Hbond>
0.0000

> <Gold.Chemscore.Metal>
0.0000

> <Gold.Chemscore.Lipo>
113.1358

> <Gold.Chemscore.Internal_Hbond>
0.0000

> <Gold.Chemscore.DEClash>
0.1414

> <Gold.Chemscore.DEInternal>
1.8627

> <Gold.Chemscore.Rot>
2.3108

> <Gold.Chemscore.Internal.Correction>
   9.000000E+99

> <Gold.Chemscore.Hbond.Weighted>
-0.0000

> <Gold.Chemscore.Metal.Weighted>
-0.0000

> <Gold.Chemscore.Lipo.Weighted>
-13.2369

> <Gold.Chemscore.Internal_Hbond.Weighted>
0.0000

> <Gold.Chemscore.DEClash.Weighted>
0.1414

> <Gold.Chemscore.DEInternal.Weighted>
1.8627

> <Gold.Chemscore.Rot.Weighted>
5.9157

> <Gold.Chemscore.Internal.Correction.Weighted>
   9.000000E+99

> <Gold.Protein.RotatedTorsions>
[ 6907 6896 6895 6894 ] final  147.90 input  -60.11 | X-H torsion
[ 7974 7965 7964 7962 ] final  -50.43 input  175.53 | X-H torsion
[ 8008 7997 7996 7995 ] final   63.68 input   59.86 | X-H torsion
[ 10167 10162 10161 10158 ] final    3.98 input  -65.29 | X-H torsion
[ 10718 10713 10712 10709 ] final  147.35 input   66.30 | X-H torsion
[ 10763 10752 10751 10750 ] final  -52.80 input  -60.55 | X-H torsion
[ 11005 11000 10999 10996 ] final   49.77 input  -57.11 | X-H torsion

> <Gold.Protein.ActiveResidues>
 VAL166  LYS551  ARG553  GLY616  TRP617  ASP618  TYR619  PRO620  LYS621  CYS622 
 ASP623  PHE694  ASN695  SER759  ASP760  ASP761  ALA762  ILE779  LEU786  VAL792 
 PHE793  MET794  SER795  GLU796  ALA797  LYS798  CYS799  TRP800  GLU811  SER814 

> <Gold.Protein.RotatedAtoms>
  152.1486  133.4508  159.4801 H   0  0  0  0  0  0  0  0  0  0  0  0  # atno 6907 bound_to 6896
  150.6893  134.2217  159.4408 H   0  0  0  0  0  0  0  0  0  0  0  0  # atno 6908 bound_to 6896
  152.0112  134.9874  160.0619 H   0  0  0  0  0  0  0  0  0  0  0  0  # atno 6909 bound_to 6896
  145.9299  140.7758  142.9604 H   0  0  0  0  0  0  0  0  0  0  0  0  # atno 7974 bound_to 7965
  155.6340  140.3496  155.4692 H   0  0  0  0  0  0  0  0  0  0  0  0  # atno 8008 bound_to 7997
  155.9980  140.1207  157.0598 H   0  0  0  0  0  0  0  0  0  0  0  0  # atno 8009 bound_to 7997
  154.4239  140.1106  156.5643 H   0  0  0  0  0  0  0  0  0  0  0  0  # atno 8010 bound_to 7997
  140.6558  143.7430  150.7652 H   0  0  0  0  0  0  0  0  0  0  0  0  # atno 10167 bound_to 10162
  157.3221  131.0906  151.1232 H   0  0  0  0  0  0  0  0  0  0  0  0  # atno 10718 bound_to 10713
  154.1486  135.6494  153.4958 H   0  0  0  0  0  0  0  0  0  0  0  0  # atno 10763 bound_to 10752
  153.0144  135.5332  154.6832 H   0  0  0  0  0  0  0  0  0  0  0  0  # atno 10764 bound_to 10752
  154.6113  135.2954  155.0400 H   0  0  0  0  0  0  0  0  0  0  0  0  # atno 10765 bound_to 10752
  140.1075  134.4999  155.8707 H   0  0  0  0  0  0  0  0  0  0  0  0  # atno 11005 bound_to 11000
  144.6763  140.2111  143.7377 LP  0  0  0  0  0  0  0  0  0  0  0  0  # atno 17320 bound_to 7965
  145.8439  139.2143  143.1811 LP  0  0  0  0  0  0  0  0  0  0  0  0  # atno 17321 bound_to 7965
  140.1090  143.4717  152.2381 LP  0  0  0  0  0  0  0  0  0  0  0  0  # atno 17342 bound_to 10162
  139.5781  144.7497  151.3712 LP  0  0  0  0  0  0  0  0  0  0  0  0  # atno 17343 bound_to 10162
  157.2513  130.6615  149.5933 LP  0  0  0  0  0  0  0  0  0  0  0  0  # atno 17370 bound_to 10713
  155.9687  130.4537  150.5823 LP  0  0  0  0  0  0  0  0  0  0  0  0  # atno 17371 bound_to 10713
  141.2122  133.6716  156.6639 LP  0  0  0  0  0  0  0  0  0  0  0  0  # atno 17394 bound_to 11000
  140.3136  134.8065  157.4196 LP  0  0  0  0  0  0  0  0  0  0  0  0  # atno 17395 bound_to 11000

$$$$
