AV-unprocessed.smi:1076|AV-procd|sdf|4698|dock7
  -GOLD-   22720 3223D 1   1.00000     0.00000
 Structure written by MMmdl.
 45 46  0  0  0  0  0  0  0  0  2 V2000
  154.6290  140.1590  161.8346 C   0  0  0  0  0  0  0  0  0  0  0  0
  153.8839  141.0489  160.8819 C   0  0  0  0  0  0  0  0  0  0  0  0
  153.5174  140.7724  159.5341 C   0  0  0  0  0  0  0  0  0  0  0  0
  152.8593  141.7696  158.9659 N   0  0  0  0  0  0  0  0  0  0  0  0
  152.7852  142.7155  159.9268 N   0  0  0  0  0  0  0  0  0  0  0  0
  152.1054  143.9690  159.6533 C   0  0  0  0  0  0  0  0  0  0  0  0
  150.6442  143.7701  159.1996 C   0  0  1  0  0  0  0  0  0  0  0  0
  149.7999  145.0112  159.5175 C   0  0  0  0  0  0  0  0  0  0  0  0
  150.5724  143.4866  157.7489 N   0  3  0  0  0  0  0  0  0  0  0  0
  150.1706  142.1053  157.3995 C   0  0  0  0  0  0  0  0  0  0  0  0
  151.0081  141.5349  156.2377 C   0  0  0  0  0  0  0  0  0  0  0  0
  150.2800  140.4991  155.3600 C   0  0  0  0  0  0  0  0  0  0  0  0
  149.0827  140.6588  155.1172 O   0  0  0  0  0  0  0  0  0  0  0  0
  150.9804  139.4481  154.8705 N   0  0  0  0  0  0  0  0  0  0  0  0
  152.3713  139.1697  155.2376 C   0  0  0  0  0  0  0  0  0  0  0  0
  152.4037  137.8493  156.0294 C   0  0  0  0  0  0  0  0  0  0  0  0
  151.8369  136.8020  155.2448 O   0  0  0  0  0  0  0  0  0  0  0  0
  150.4948  137.0638  154.8404 C   0  0  0  0  0  0  0  0  0  0  0  0
  150.4484  138.3711  154.0300 C   0  0  0  0  0  0  0  0  0  0  0  0
  153.3964  142.3076  161.0931 C   0  0  0  0  0  0  0  0  0  0  0  0
  155.2798  139.4595  161.3096 H   0  0  0  0  0  0  0  0  0  0  0  0
  153.9480  139.5673  162.4466 H   0  0  0  0  0  0  0  0  0  0  0  0
  155.2582  140.7327  162.5152 H   0  0  0  0  0  0  0  0  0  0  0  0
  153.7074  139.8801  158.9557 H   0  0  0  0  0  0  0  0  0  0  0  0
  152.1346  144.5700  160.5631 H   0  0  0  0  0  0  0  0  0  0  0  0
  152.6705  144.5217  158.9007 H   0  0  0  0  0  0  0  0  0  0  0  0
  150.2130  142.9337  159.7529 H   0  0  0  0  0  0  0  0  0  0  0  0
  149.8167  145.2363  160.5844 H   0  0  0  0  0  0  0  0  0  0  0  0
  148.7584  144.8610  159.2308 H   0  0  0  0  0  0  0  0  0  0  0  0
  150.1678  145.8901  158.9867 H   0  0  0  0  0  0  0  0  0  0  0  0
  149.8961  144.1134  157.3358 H   0  0  0  0  0  0  0  0  0  0  0  0
  150.2948  141.4627  158.2713 H   0  0  0  0  0  0  0  0  0  0  0  0
  149.1083  142.0877  157.1506 H   0  0  0  0  0  0  0  0  0  0  0  0
  151.3434  142.3631  155.6120 H   0  0  0  0  0  0  0  0  0  0  0  0
  151.9015  141.0637  156.6493 H   0  0  0  0  0  0  0  0  0  0  0  0
  152.9762  139.0827  154.3339 H   0  0  0  0  0  0  0  0  0  0  0  0
  152.8244  139.9659  155.8295 H   0  0  0  0  0  0  0  0  0  0  0  0
  153.4305  137.5848  156.2824 H   0  0  0  0  0  0  0  0  0  0  0  0
  151.8574  137.9468  156.9691 H   0  0  0  0  0  0  0  0  0  0  0  0
  150.1392  136.2304  154.2345 H   0  0  0  0  0  0  0  0  0  0  0  0
  149.8456  137.1245  155.7153 H   0  0  0  0  0  0  0  0  0  0  0  0
  149.4370  138.5497  153.6687 H   0  0  0  0  0  0  0  0  0  0  0  0
  151.0664  138.2765  153.1359 H   0  0  0  0  0  0  0  0  0  0  0  0
  153.4309  142.9388  161.9690 H   0  0  0  0  0  0  0  0  0  0  0  0
  151.4776  143.6791  157.3436 H   0  0  0  0  0  0  0  0  0  0  0  0
  1  2  1  0  0  0  0
  1 21  1  0  0  0  0
  1 22  1  0  0  0  0
  1 23  1  0  0  0  0
  2 20  2  0  0  0  0
  2  3  1  0  0  0  0
  3  4  2  0  0  0  0
  3 24  1  0  0  0  0
  4  5  1  0  0  0  0
  5  6  1  0  0  0  0
  5 20  1  0  0  0  0
  6  7  1  0  0  0  0
  6 25  1  0  0  0  0
  6 26  1  0  0  0  0
  7  8  1  0  0  0  0
  7  9  1  0  0  0  0
  7 27  1  0  0  0  0
  8 28  1  0  0  0  0
  8 29  1  0  0  0  0
  8 30  1  0  0  0  0
  9 10  1  0  0  0  0
  9 31  1  0  0  0  0
  9 45  1  0  0  0  0
 10 11  1  0  0  0  0
 10 32  1  0  0  0  0
 10 33  1  0  0  0  0
 11 12  1  0  0  0  0
 11 34  1  0  0  0  0
 11 35  1  0  0  0  0
 12 13  2  0  0  0  0
 12 14  1  0  0  0  0
 14 19  1  0  0  0  0
 14 15  1  0  0  0  0
 15 16  1  0  0  0  0
 15 36  1  0  0  0  0
 15 37  1  0  0  0  0
 16 17  1  0  0  0  0
 16 38  1  0  0  0  0
 16 39  1  0  0  0  0
 17 18  1  0  0  0  0
 18 19  1  0  0  0  0
 18 40  1  0  0  0  0
 18 41  1  0  0  0  0
 19 42  1  0  0  0  0
 19 43  1  0  0  0  0
 20 44  1  0  0  0  0
M  CHG  1   9   1
M  END
> <s_m_source_file>
AV-unprocessed.smi

> <i_m_source_file_index>
1076

> <i_lp_mmshare_version>
43012

> <i_f3d_flags>
0

> <s_epik_input>
W0NIM11jMVtjSF1ubihbY0hdMSlbQ0gyXVtDQEhdKFtDSDNdKVtOSF1bQ0gyXVtDSDJdQyg9TylOMltDSDJdW0NIMl1PW0NIMl1bQ0gyXTI=

> <s_epik_cmdline>
J2VwaWtfcHl0aG9uJywgJy1waCcsICc3LjAnLCAnLXRuJywgJzgnLCAnLW1hJywgJzIwMCcsICctbWV0YWxfYmluZGluZycsICctaW1hZScsICc8aW5maWxlLm1hZT4nLCAnLW9tYWUnLCAnPG91dGZpbGUubWFlPic=

> <r_lp_tautomer_probability>
1

> <r_epik_Ionization_Penalty>
0.00797518

> <r_epik_Ionization_Penalty_Charging>
0.0079672

> <r_epik_Ionization_Penalty_Neutral>
7.97619e-06

> <r_epik_State_Penalty>
0.00597998

> <r_epik_Charging_Adjusted_Penalty>
0.0139472

> <i_epik_Tot_Q>
1

> <i_epik_Tot_abs_Q>
1

> <r_epik_Metal_State_Penalty>
0.00598062

> <b_epik_Metal_Only>
0

> <s_lp_Force_Field>
OPLS_2005

> <r_lp_Energy>
23.7914

> <b_lp_Chiralities_Consistent>
1

> <s_lp_Variant>
AV-unprocessed.smi:1076-2

> <Gold.Version>
5.8.1

> <Gold.Id.Protein>
6NUR|6NUR_protein|mol2

> <Gold.PLP.Fitness>
50.4764

> <Gold.PLP.PLP>
-44.9839

> <Gold.PLP.part.hbond>
-2.0000

> <Gold.PLP.part.metal>
0.0000

> <Gold.PLP.part.buried>
-2.9878

> <Gold.PLP.part.nonpolar>
-39.8255

> <Gold.PLP.part.repulsive>
0.1744

> <Gold.PLP.ligand.clash>
0.0000

> <Gold.PLP.ligand.torsion>
1.8041

> <Gold.PLP.Chemscore.Hbond>
3.0000

> <Gold.PLP.Chemscore.CHOScore>
0.0000

> <Gold.PLP.Chemscore.Metal>
0.0000

> <Gold.Chemscore.Hbonds>
donor molecule, donor type, donor heavy atom, donor atom, acceptor molecule, acceptor atom, score
      L1  H     9    31       P1  8028  1.98
      P1  H 10752 10763       L1    17  1.00

> <Gold.PLP.Chemscore.Internal.Correction>
0.1007

> <Gold.Rescore>
     Score         DG    S(hbond)    S(metal)    S(lipo)     H(rot)  DE(clash)    DE(int)     intcor
     15.96     -17.92       1.59        0.00     104.44       1.98       0.17       1.79       ----

> <Gold.Chemscore.Fitness>
15.9583

> <Gold.Chemscore.DG>
-17.9162

> <Gold.Chemscore.ZeroCoef>
-5.4800

> <Gold.Chemscore.Hbond>
1.5852

> <Gold.Chemscore.Metal>
0.0000

> <Gold.Chemscore.Lipo>
104.4427

> <Gold.Chemscore.Internal_Hbond>
0.0000

> <Gold.Chemscore.DEClash>
0.1678

> <Gold.Chemscore.DEInternal>
1.7901

> <Gold.Chemscore.Rot>
1.9837

> <Gold.Chemscore.Internal.Correction>
   9.000000E+99

> <Gold.Chemscore.Hbonds>
donor molecule, donor type, donor heavy atom, donor atom, acceptor molecule, acceptor atom, score
      L1  H     9    31       P1  8028  0.53
      P1  H 10752 10763       L1    17  0.92

> <Gold.Chemscore.Hbond.Weighted>
-5.2946

> <Gold.Chemscore.Metal.Weighted>
-0.0000

> <Gold.Chemscore.Lipo.Weighted>
-12.2198

> <Gold.Chemscore.Internal_Hbond.Weighted>
0.0000

> <Gold.Chemscore.DEClash.Weighted>
0.1678

> <Gold.Chemscore.DEInternal.Weighted>
1.7901

> <Gold.Chemscore.Rot.Weighted>
5.0782

> <Gold.Chemscore.Internal.Correction.Weighted>
   9.000000E+99

> <Gold.Protein.RotatedTorsions>
[ 6907 6896 6895 6894 ] final -109.32 input  -60.11 | X-H torsion
[ 7974 7965 7964 7962 ] final  -70.67 input  175.53 | X-H torsion
[ 8008 7997 7996 7995 ] final   19.33 input   59.86 | X-H torsion
[ 10167 10162 10161 10158 ] final  -96.04 input  -65.29 | X-H torsion
[ 10718 10713 10712 10709 ] final -105.72 input   66.30 | X-H torsion
[ 10763 10752 10751 10750 ] final   63.60 input  -60.55 | X-H torsion
[ 11005 11000 10999 10996 ] final   62.49 input  -57.11 | X-H torsion

> <Gold.Protein.ActiveResidues>
 VAL166  LYS551  ARG553  GLY616  TRP617  ASP618  TYR619  PRO620  LYS621  CYS622 
 ASP623  PHE694  ASN695  SER759  ASP760  ASP761  ALA762  ILE779  LEU786  VAL792 
 PHE793  MET794  SER795  GLU796  ALA797  LYS798  CYS799  TRP800  GLU811  SER814 

> <Gold.Protein.RotatedAtoms>
  150.7555  133.9546  159.3496 H   0  0  0  0  0  0  0  0  0  0  0  0  # atno 6907 bound_to 6896
  151.7467  135.0840  160.0333 H   0  0  0  0  0  0  0  0  0  0  0  0  # atno 6908 bound_to 6896
  152.3493  133.6123  159.5969 H   0  0  0  0  0  0  0  0  0  0  0  0  # atno 6909 bound_to 6896
  145.6880  140.9164  143.0797 H   0  0  0  0  0  0  0  0  0  0  0  0  # atno 7974 bound_to 7965
  154.9192  140.3025  155.5225 H   0  0  0  0  0  0  0  0  0  0  0  0  # atno 8008 bound_to 7997
  156.3011  140.2375  156.4176 H   0  0  0  0  0  0  0  0  0  0  0  0  # atno 8009 bound_to 7997
  154.8348  140.0416  157.1490 H   0  0  0  0  0  0  0  0  0  0  0  0  # atno 8010 bound_to 7997
  140.2980  143.3180  152.0278 H   0  0  0  0  0  0  0  0  0  0  0  0  # atno 10167 bound_to 10162
  156.0358  130.5577  150.7579 H   0  0  0  0  0  0  0  0  0  0  0  0  # atno 10718 bound_to 10713
  153.0024  135.5423  154.6377 H   0  0  0  0  0  0  0  0  0  0  0  0  # atno 10763 bound_to 10752
  154.5640  135.2836  155.0894 H   0  0  0  0  0  0  0  0  0  0  0  0  # atno 10764 bound_to 10752
  154.2086  135.6471  153.5161 H   0  0  0  0  0  0  0  0  0  0  0  0  # atno 10765 bound_to 10752
  140.0088  134.6327  155.9812 H   0  0  0  0  0  0  0  0  0  0  0  0  # atno 11005 bound_to 11000
  144.7005  139.8783  143.7445 LP  0  0  0  0  0  0  0  0  0  0  0  0  # atno 17320 bound_to 7965
  146.0907  139.3897  143.0407 LP  0  0  0  0  0  0  0  0  0  0  0  0  # atno 17321 bound_to 7965
  139.4922  144.6477  151.6743 LP  0  0  0  0  0  0  0  0  0  0  0  0  # atno 17342 bound_to 10162
  140.5676  144.0164  150.6200 LP  0  0  0  0  0  0  0  0  0  0  0  0  # atno 17343 bound_to 10162
  157.5106  131.0925  151.0202 LP  0  0  0  0  0  0  0  0  0  0  0  0  # atno 17370 bound_to 10713
  157.0559  130.5806  149.5378 LP  0  0  0  0  0  0  0  0  0  0  0  0  # atno 17371 bound_to 10713
  141.1696  133.6537  156.4604 LP  0  0  0  0  0  0  0  0  0  0  0  0  # atno 17394 bound_to 11000
  140.4591  134.6857  157.5077 LP  0  0  0  0  0  0  0  0  0  0  0  0  # atno 17395 bound_to 11000

$$$$
