AV-unprocessed.smi:1942|AV-procd|sdf|7850|dock8
  -GOLD-   22720 9593D 1   1.00000     0.00000
 Structure written by MMmdl.
 36 38  0  0  0  0  0  0  0  0  2 V2000
  148.8076  138.3141  155.1910 O   0  0  0  0  0  0  0  0  0  0  0  0
  148.2915  139.3892  154.8857 C   0  0  0  0  0  0  0  0  0  0  0  0
  146.8515  139.5207  154.6361 C   0  0  0  0  0  0  0  0  0  0  0  0
  146.2931  140.7093  154.3323 C   0  0  0  0  0  0  0  0  0  0  0  0
  147.1087  141.8974  154.2449 C   0  0  0  0  0  0  0  0  0  0  0  0
  148.4281  141.7785  154.4616 C   0  0  0  0  0  0  0  0  0  0  0  0
  149.0230  140.5394  154.7686 N   0  0  0  0  0  0  0  0  0  0  0  0
  150.4774  140.5345  154.9791 C   0  0  0  0  0  0  0  0  0  0  0  0
  150.9222  141.3494  156.1578 C   0  0  0  0  0  0  0  0  0  0  0  0
  150.5906  142.6460  156.4253 N   0  3  0  0  0  0  0  0  0  0  0  0
  151.1901  143.0541  157.6166 C   0  0  0  0  0  0  0  0  0  0  0  0
  151.1475  144.2728  158.2862 C   0  0  0  0  0  0  0  0  0  0  0  0
  151.8767  144.3609  159.4903 C   0  0  0  0  0  0  0  0  0  0  0  0
  151.8699  145.8408  160.3766 Cl  0  0  0  0  0  0  0  0  0  0  0  0
  152.6112  143.2622  159.9824 C   0  0  0  0  0  0  0  0  0  0  0  0
  152.6473  142.0316  159.2942 C   0  0  0  0  0  0  0  0  0  0  0  0
  151.9216  141.9531  158.1056 C   0  0  0  0  0  0  0  0  0  0  0  0
  151.7258  140.9247  157.1753 N   0  0  0  0  0  0  0  0  0  0  0  0
  152.3598  139.6146  157.3951 C   0  0  0  0  0  0  0  0  0  0  0  0
  151.9314  138.9593  158.7191 C   0  0  0  0  0  0  0  0  0  0  0  0
  150.5633  138.6102  158.6992 O   0  0  0  0  0  0  0  0  0  0  0  0
  146.2255  138.6425  154.6969 H   0  0  0  0  0  0  0  0  0  0  0  0
  145.2299  140.7738  154.1525 H   0  0  0  0  0  0  0  0  0  0  0  0
  146.6682  142.8560  154.0124 H   0  0  0  0  0  0  0  0  0  0  0  0
  149.1083  142.6172  154.4190 H   0  0  0  0  0  0  0  0  0  0  0  0
  150.8528  139.5171  155.0996 H   0  0  0  0  0  0  0  0  0  0  0  0
  150.9735  140.9098  154.0834 H   0  0  0  0  0  0  0  0  0  0  0  0
  150.5858  145.1146  157.9082 H   0  0  0  0  0  0  0  0  0  0  0  0
  153.1602  143.3637  160.9074 H   0  0  0  0  0  0  0  0  0  0  0  0
  153.2191  141.2004  159.6787 H   0  0  0  0  0  0  0  0  0  0  0  0
  152.1503  138.9629  156.5469 H   0  0  0  0  0  0  0  0  0  0  0  0
  153.4389  139.7708  157.3945 H   0  0  0  0  0  0  0  0  0  0  0  0
  152.5204  138.0600  158.8999 H   0  0  0  0  0  0  0  0  0  0  0  0
  152.1113  139.6337  159.5568 H   0  0  0  0  0  0  0  0  0  0  0  0
  150.3258  138.2771  159.5513 H   0  0  0  0  0  0  0  0  0  0  0  0
  149.9938  143.2084  155.8324 H   0  0  0  0  0  0  0  0  0  0  0  0
  1  2  2  0  0  0  0
  2  7  1  0  0  0  0
  2  3  1  0  0  0  0
  3  4  2  0  0  0  0
  3 22  1  0  0  0  0
  4  5  1  0  0  0  0
  4 23  1  0  0  0  0
  5  6  2  0  0  0  0
  5 24  1  0  0  0  0
  6  7  1  0  0  0  0
  6 25  1  0  0  0  0
  7  8  1  0  0  0  0
  8  9  1  0  0  0  0
  8 26  1  0  0  0  0
  8 27  1  0  0  0  0
  9 18  1  0  0  0  0
  9 10  2  0  0  0  0
 10 11  1  0  0  0  0
 10 36  1  0  0  0  0
 11 17  2  0  0  0  0
 11 12  1  0  0  0  0
 12 13  2  0  0  0  0
 12 28  1  0  0  0  0
 13 14  1  0  0  0  0
 13 15  1  0  0  0  0
 15 16  2  0  0  0  0
 15 29  1  0  0  0  0
 16 17  1  0  0  0  0
 16 30  1  0  0  0  0
 17 18  1  0  0  0  0
 18 19  1  0  0  0  0
 19 20  1  0  0  0  0
 19 31  1  0  0  0  0
 19 32  1  0  0  0  0
 20 21  1  0  0  0  0
 20 33  1  0  0  0  0
 20 34  1  0  0  0  0
 21 35  1  0  0  0  0
M  CHG  1  10   1
M  END
> <s_m_source_file>
AV-unprocessed.smi

> <i_m_source_file_index>
1942

> <i_lp_mmshare_version>
43012

> <i_f3d_flags>
0

> <s_epik_input>
Tz1jMVtjSF1bY0hdW2NIXVtjSF1uMVtDSDJdYyhuMiluKFtDSDJdW0NIMl1bT0hdKWMoYzIzKVtjSF1bY0hdYyhDbClbY0hdMw==

> <s_epik_cmdline>
J2VwaWtfcHl0aG9uJywgJy1waCcsICc3LjAnLCAnLXRuJywgJzgnLCAnLW1hJywgJzIwMCcsICctbWV0YWxfYmluZGluZycsICctaW1hZScsICc8aW5maWxlLm1hZT4nLCAnLW9tYWUnLCAnPG91dGZpbGUubWFlPic=

> <r_lp_tautomer_probability>
1

> <r_epik_Ionization_Penalty>
1.62531

> <r_epik_Ionization_Penalty_Charging>
1.62531

> <r_epik_Ionization_Penalty_Neutral>
5.76694e-08

> <r_epik_State_Penalty>
1.72539

> <r_epik_Charging_Adjusted_Penalty>
3.3507

> <i_epik_Tot_Q>
1

> <i_epik_Tot_abs_Q>
1

> <r_epik_Metal_State_Penalty>
5.78505

> <b_epik_Metal_Only>
0

> <s_lp_Force_Field>
OPLS_2005

> <r_lp_Energy>
19.9382

> <b_lp_Chiralities_Consistent>
1

> <s_lp_Variant>
AV-unprocessed.smi:1942-2

> <Gold.Version>
5.8.1

> <Gold.Id.Protein>
6NUR|6NUR_protein|mol2

> <Gold.PLP.Fitness>
51.1662

> <Gold.PLP.PLP>
-42.7523

> <Gold.PLP.part.hbond>
-1.3269

> <Gold.PLP.part.metal>
0.0000

> <Gold.PLP.part.buried>
-3.7820

> <Gold.PLP.part.nonpolar>
-39.2584

> <Gold.PLP.part.repulsive>
0.1310

> <Gold.PLP.ligand.clash>
0.0000

> <Gold.PLP.ligand.torsion>
0.0937

> <Gold.PLP.Chemscore.Hbond>
1.9520

> <Gold.PLP.Chemscore.CHOScore>
0.9122

> <Gold.PLP.Chemscore.Metal>
0.0000

> <Gold.Chemscore.Hbonds>
donor molecule, donor type, donor heavy atom, donor atom, acceptor molecule, acceptor atom, score
      L1  H    10    36       P1  8028  1.92
      L1  C     6    25       P1  8028  0.93

> <Gold.PLP.Chemscore.Internal.Correction>
0.0087

> <Gold.Rescore>
     Score         DG    S(hbond)    S(metal)    S(lipo)     H(rot)  DE(clash)    DE(int)     intcor
     15.75     -15.96       0.95        0.00     113.43       2.33       0.03       0.19       ----

> <Gold.Chemscore.Fitness>
15.7460

> <Gold.Chemscore.DG>
-15.9644

> <Gold.Chemscore.ZeroCoef>
-5.4800

> <Gold.Chemscore.Hbond>
0.9536

> <Gold.Chemscore.Metal>
0.0000

> <Gold.Chemscore.Lipo>
113.4258

> <Gold.Chemscore.Internal_Hbond>
0.0000

> <Gold.Chemscore.DEClash>
0.0271

> <Gold.Chemscore.DEInternal>
0.1912

> <Gold.Chemscore.Rot>
2.3326

> <Gold.Chemscore.Internal.Correction>
   9.000000E+99

> <Gold.Chemscore.Hbonds>
donor molecule, donor type, donor heavy atom, donor atom, acceptor molecule, acceptor atom, score
      L1  H    10    36       P1  8028  0.92

> <Gold.Chemscore.Hbond.Weighted>
-3.1850

> <Gold.Chemscore.Metal.Weighted>
-0.0000

> <Gold.Chemscore.Lipo.Weighted>
-13.2708

> <Gold.Chemscore.Internal_Hbond.Weighted>
0.0000

> <Gold.Chemscore.DEClash.Weighted>
0.0271

> <Gold.Chemscore.DEInternal.Weighted>
0.1912

> <Gold.Chemscore.Rot.Weighted>
5.9714

> <Gold.Chemscore.Internal.Correction.Weighted>
   9.000000E+99

> <Gold.Protein.RotatedTorsions>
[ 6907 6896 6895 6894 ] final -157.50 input  -60.11 | X-H torsion
[ 7974 7965 7964 7962 ] final  176.84 input  175.53 | X-H torsion
[ 8008 7997 7996 7995 ] final -139.66 input   59.86 | X-H torsion
[ 10167 10162 10161 10158 ] final  176.55 input  -65.29 | X-H torsion
[ 10718 10713 10712 10709 ] final  -24.21 input   66.30 | X-H torsion
[ 10763 10752 10751 10750 ] final  148.52 input  -60.55 | X-H torsion
[ 11005 11000 10999 10996 ] final   53.20 input  -57.11 | X-H torsion

> <Gold.Protein.ActiveResidues>
 VAL166  LYS551  ARG553  GLY616  TRP617  ASP618  TYR619  PRO620  LYS621  CYS622 
 ASP623  PHE694  ASN695  SER759  ASP760  ASP761  ALA762  ILE779  LEU786  VAL792 
 PHE793  MET794  SER795  GLU796  ALA797  LYS798  CYS799  TRP800  GLU811  SER814 

> <Gold.Protein.RotatedAtoms>
  151.3038  133.4110  159.2641 H   0  0  0  0  0  0  0  0  0  0  0  0  # atno 6907 bound_to 6896
  151.0173  134.9443  159.8050 H   0  0  0  0  0  0  0  0  0  0  0  0  # atno 6908 bound_to 6896
  152.5315  134.3001  159.9128 H   0  0  0  0  0  0  0  0  0  0  0  0  # atno 6909 bound_to 6896
  144.7178  140.0157  143.6440 H   0  0  0  0  0  0  0  0  0  0  0  0  # atno 7974 bound_to 7965
  155.4486  140.0537  157.3003 H   0  0  0  0  0  0  0  0  0  0  0  0  # atno 8008 bound_to 7997
  154.4787  140.2072  155.9772 H   0  0  0  0  0  0  0  0  0  0  0  0  # atno 8009 bound_to 7997
  156.1172  140.3194  155.8161 H   0  0  0  0  0  0  0  0  0  0  0  0  # atno 8010 bound_to 7997
  139.5219  144.2902  152.0470 H   0  0  0  0  0  0  0  0  0  0  0  0  # atno 10167 bound_to 10162
  156.4806  130.4544  149.6814 H   0  0  0  0  0  0  0  0  0  0  0  0  # atno 10718 bound_to 10713
  154.0562  135.2878  155.3332 H   0  0  0  0  0  0  0  0  0  0  0  0  # atno 10763 bound_to 10752
  154.6838  135.5253  153.8301 H   0  0  0  0  0  0  0  0  0  0  0  0  # atno 10764 bound_to 10752
  153.0541  135.6588  154.0754 H   0  0  0  0  0  0  0  0  0  0  0  0  # atno 10765 bound_to 10752
  140.0787  134.5369  155.8969 H   0  0  0  0  0  0  0  0  0  0  0  0  # atno 11005 bound_to 11000
  146.0222  139.3261  143.0806 LP  0  0  0  0  0  0  0  0  0  0  0  0  # atno 17320 bound_to 7965
  145.8555  140.9505  143.0727 LP  0  0  0  0  0  0  0  0  0  0  0  0  # atno 17321 bound_to 7965
  140.2353  144.4325  150.6282 LP  0  0  0  0  0  0  0  0  0  0  0  0  # atno 17342 bound_to 10162
  140.6327  143.2190  151.6461 LP  0  0  0  0  0  0  0  0  0  0  0  0  # atno 17343 bound_to 10162
  156.3525  130.7439  151.2401 LP  0  0  0  0  0  0  0  0  0  0  0  0  # atno 17370 bound_to 10713
  157.7483  131.0373  150.4449 LP  0  0  0  0  0  0  0  0  0  0  0  0  # atno 17371 bound_to 10713
  141.2039  133.6635  156.6088 LP  0  0  0  0  0  0  0  0  0  0  0  0  # atno 17394 bound_to 11000
  140.3520  134.7760  157.4473 LP  0  0  0  0  0  0  0  0  0  0  0  0  # atno 17395 bound_to 11000

$$$$
