AV-unprocessed.smi:2007|AV-procd|sdf|8140|dock3
  -GOLD-   2272010373D 1   1.00000     0.00000
 Structure written by MMmdl.
 36 37  0  0  0  0  0  0  0  0  3 V2000
  149.8931  131.9874  154.4652 C   0  0  0  0  0  0  0  0  0  0  0  0
  149.3545  133.4237  154.4298 C   0  0  1  0  0  0  0  0  0  0  0  0
  150.4844  134.4588  154.6350 C   0  0  0  0  0  0  0  0  0  0  0  0
  150.0023  135.8585  154.5241 N   0  3  0  0  0  0  0  0  0  0  0  0
  148.8655  136.1715  155.4219 C   0  0  0  0  0  0  0  0  0  0  0  0
  148.3581  137.5957  155.1429 C   0  0  0  0  0  0  0  0  0  0  0  0
  149.4238  138.5222  155.3203 O   0  0  0  0  0  0  0  0  0  0  0  0
  150.5009  138.2764  154.4228 C   0  0  0  0  0  0  0  0  0  0  0  0
  151.0730  136.8700  154.6708 C   0  0  0  0  0  0  0  0  0  0  0  0
  148.6683  133.6535  153.1564 N   0  0  0  0  0  0  0  0  0  0  0  0
  147.6727  132.9172  152.6391 C   0  0  0  0  0  0  0  0  0  0  0  0
  147.3033  131.8889  153.2100 O   0  0  0  0  0  0  0  0  0  0  0  0
  147.1444  133.4369  151.5099 N   0  5  0  0  0  0  0  0  0  0  0  0
  145.9519  133.0034  151.0701 C   0  0  0  0  0  0  0  0  0  0  0  0
  145.0881  133.7884  150.4153 N   0  0  0  0  0  0  0  0  0  0  0  0
  143.9107  133.1333  150.0496 C   0  0  0  0  0  0  0  0  0  0  0  0
  143.8806  131.8178  150.4298 C   0  0  0  0  0  0  0  0  0  0  0  0
  145.3386  131.3595  151.2628 S   0  0  0  0  0  0  0  0  0  0  0  0
  150.3875  131.7780  155.4141 H   0  0  0  0  0  0  0  0  0  0  0  0
  150.6158  131.8128  153.6673 H   0  0  0  0  0  0  0  0  0  0  0  0
  149.0863  131.2629  154.3479 H   0  0  0  0  0  0  0  0  0  0  0  0
  148.6404  133.5130  155.2493 H   0  0  0  0  0  0  0  0  0  0  0  0
  150.9828  134.3094  155.5941 H   0  0  0  0  0  0  0  0  0  0  0  0
  151.2420  134.2860  153.8690 H   0  0  0  0  0  0  0  0  0  0  0  0
  148.0553  135.4585  155.2714 H   0  0  0  0  0  0  0  0  0  0  0  0
  149.1810  136.0814  156.4623 H   0  0  0  0  0  0  0  0  0  0  0  0
  147.9544  137.6739  154.1318 H   0  0  0  0  0  0  0  0  0  0  0  0
  147.5503  137.8491  155.8295 H   0  0  0  0  0  0  0  0  0  0  0  0
  150.1598  138.3804  153.3912 H   0  0  0  0  0  0  0  0  0  0  0  0
  151.2726  139.0298  154.5804 H   0  0  0  0  0  0  0  0  0  0  0  0
  151.5065  136.8060  155.6701 H   0  0  0  0  0  0  0  0  0  0  0  0
  151.8732  136.6706  153.9569 H   0  0  0  0  0  0  0  0  0  0  0  0
  148.9406  134.4773  152.6397 H   0  0  0  0  0  0  0  0  0  0  0  0
  143.1467  133.6813  149.5184 H   0  0  0  0  0  0  0  0  0  0  0  0
  143.0959  131.0936  150.2712 H   0  0  0  0  0  0  0  0  0  0  0  0
  149.6591  135.9541  153.5777 H   0  0  0  0  0  0  0  0  0  0  0  0
  1  2  1  0  0  0  0
  1 19  1  0  0  0  0
  1 20  1  0  0  0  0
  1 21  1  0  0  0  0
  2  3  1  0  0  0  0
  2 10  1  0  0  0  0
  2 22  1  0  0  0  0
  3  4  1  0  0  0  0
  3 23  1  0  0  0  0
  3 24  1  0  0  0  0
  4  9  1  0  0  0  0
  4  5  1  0  0  0  0
  4 36  1  0  0  0  0
  5  6  1  0  0  0  0
  5 25  1  0  0  0  0
  5 26  1  0  0  0  0
  6  7  1  0  0  0  0
  6 27  1  0  0  0  0
  6 28  1  0  0  0  0
  7  8  1  0  0  0  0
  8  9  1  0  0  0  0
  8 29  1  0  0  0  0
  8 30  1  0  0  0  0
  9 31  1  0  0  0  0
  9 32  1  0  0  0  0
 10 11  1  0  0  0  0
 10 33  1  0  0  0  0
 11 12  2  0  0  0  0
 11 13  1  0  0  0  0
 13 14  1  0  0  0  0
 14 18  1  0  0  0  0
 14 15  2  0  0  0  0
 15 16  1  0  0  0  0
 16 17  2  0  0  0  0
 16 34  1  0  0  0  0
 17 18  1  0  0  0  0
 17 35  1  0  0  0  0
M  CHG  1   4   1
M  CHG  1  13  -1
M  END
> <s_m_source_file>
AV-unprocessed.smi

> <i_m_source_file_index>
2007

> <i_lp_mmshare_version>
43012

> <i_f3d_flags>
0

> <s_epik_input>
W0NIMl0xW0NIMl1PW0NIMl1bQ0gyXU4xW0NIMl1bQ0BASF0oW0NIM10pW05IXUMoPU8pW05IXWMybltjSF1bY0hdczI=

> <s_epik_cmdline>
J2VwaWtfcHl0aG9uJywgJy1waCcsICc3LjAnLCAnLXRuJywgJzgnLCAnLW1hJywgJzIwMCcsICctbWV0YWxfYmluZGluZycsICctaW1hZScsICc8aW5maWxlLm1hZT4nLCAnLW9tYWUnLCAnPG91dGZpbGUubWFlPic=

> <r_lp_tautomer_probability>
0.999

> <r_epik_Ionization_Penalty>
6.49226

> <r_epik_Ionization_Penalty_Charging>
5.74393

> <r_epik_Ionization_Penalty_Neutral>
0.748321

> <r_epik_State_Penalty>
5.94164

> <r_epik_Charging_Adjusted_Penalty>
11.6856

> <i_epik_Tot_Q>
0

> <i_epik_Tot_abs_Q>
2

> <r_epik_Metal_State_Penalty>
1.97606

> <b_epik_Metal_Only>
1

> <s_lp_Force_Field>
OPLS_2005

> <r_lp_Energy>
10.1675

> <b_lp_Chiralities_Consistent>
1

> <s_lp_Variant>
AV-unprocessed.smi:2007-8

> <Gold.Version>
5.8.1

> <Gold.Id.Protein>
6NUR|6NUR_protein|mol2

> <Gold.PLP.Fitness>
42.6498

> <Gold.PLP.PLP>
-29.3800

> <Gold.PLP.part.hbond>
-2.0000

> <Gold.PLP.part.metal>
0.0000

> <Gold.PLP.part.buried>
-5.9493

> <Gold.PLP.part.nonpolar>
-23.5187

> <Gold.PLP.part.repulsive>
1.0582

> <Gold.PLP.ligand.clash>
0.0000

> <Gold.PLP.ligand.torsion>
0.3089

> <Gold.PLP.Chemscore.Hbond>
2.6000

> <Gold.PLP.Chemscore.CHOScore>
2.0000

> <Gold.PLP.Chemscore.Metal>
0.0000

> <Gold.Chemscore.Hbonds>
donor molecule, donor type, donor heavy atom, donor atom, acceptor molecule, acceptor atom, score
      L1  H     4    36       P1  7948  1.90
      L1  H    10    33       P1  7948  0.25
      L1  C    16    34       P1 10186  1.00
      L1  C    17    35       P1 10952  1.00

> <Gold.PLP.Chemscore.Internal.Correction>
0.0876

> <Gold.Rescore>
     Score         DG    S(hbond)    S(metal)    S(lipo)     H(rot)  DE(clash)    DE(int)     intcor
      9.93     -12.82       1.28        0.00      61.26       1.60       0.07       2.82       ----

> <Gold.Chemscore.Fitness>
9.9255

> <Gold.Chemscore.DG>
-12.8227

> <Gold.Chemscore.ZeroCoef>
-5.4800

> <Gold.Chemscore.Hbond>
1.2782

> <Gold.Chemscore.Metal>
0.0000

> <Gold.Chemscore.Lipo>
61.2585

> <Gold.Chemscore.Internal_Hbond>
0.0000

> <Gold.Chemscore.DEClash>
0.0724

> <Gold.Chemscore.DEInternal>
2.8248

> <Gold.Chemscore.Rot>
1.5991

> <Gold.Chemscore.Internal.Correction>
   9.000000E+99

> <Gold.Chemscore.Hbonds>
donor molecule, donor type, donor heavy atom, donor atom, acceptor molecule, acceptor atom, score
      L1  H     4    36       P1  7948  0.22

> <Gold.Chemscore.Hbond.Weighted>
-4.2691

> <Gold.Chemscore.Metal.Weighted>
-0.0000

> <Gold.Chemscore.Lipo.Weighted>
-7.1672

> <Gold.Chemscore.Internal_Hbond.Weighted>
0.0000

> <Gold.Chemscore.DEClash.Weighted>
0.0724

> <Gold.Chemscore.DEInternal.Weighted>
2.8248

> <Gold.Chemscore.Rot.Weighted>
4.0936

> <Gold.Chemscore.Internal.Correction.Weighted>
   9.000000E+99

> <Gold.Protein.RotatedTorsions>
[ 6907 6896 6895 6894 ] final -129.37 input  -60.11 | X-H torsion
[ 7974 7965 7964 7962 ] final  -28.72 input  175.53 | X-H torsion
[ 8008 7997 7996 7995 ] final  170.69 input   59.86 | X-H torsion
[ 10167 10162 10161 10158 ] final   20.55 input  -65.29 | X-H torsion
[ 10718 10713 10712 10709 ] final    7.50 input   66.30 | X-H torsion
[ 10763 10752 10751 10750 ] final   64.88 input  -60.55 | X-H torsion
[ 11005 11000 10999 10996 ] final  143.53 input  -57.11 | X-H torsion

> <Gold.Protein.ActiveResidues>
 VAL166  LYS551  ARG553  GLY616  TRP617  ASP618  TYR619  PRO620  LYS621  CYS622 
 ASP623  PHE694  ASN695  SER759  ASP760  ASP761  ALA762  ILE779  LEU786  VAL792 
 PHE793  MET794  SER795  GLU796  ALA797  LYS798  CYS799  TRP800  GLU811  SER814 

> <Gold.Protein.RotatedAtoms>
  150.9279  133.6801  159.2816 H   0  0  0  0  0  0  0  0  0  0  0  0  # atno 6907 bound_to 6896
  151.4233  135.0999  159.9630 H   0  0  0  0  0  0  0  0  0  0  0  0  # atno 6908 bound_to 6896
  152.5012  133.8726  159.7361 H   0  0  0  0  0  0  0  0  0  0  0  0  # atno 6909 bound_to 6896
  146.1268  140.5319  142.8711 H   0  0  0  0  0  0  0  0  0  0  0  0  # atno 7974 bound_to 7965
  156.1341  140.1531  156.9021 H   0  0  0  0  0  0  0  0  0  0  0  0  # atno 8008 bound_to 7997
  154.4933  140.0845  156.7681 H   0  0  0  0  0  0  0  0  0  0  0  0  # atno 8009 bound_to 7997
  155.4201  140.3422  155.4273 H   0  0  0  0  0  0  0  0  0  0  0  0  # atno 8010 bound_to 7997
  140.5495  143.9535  150.6569 H   0  0  0  0  0  0  0  0  0  0  0  0  # atno 10167 bound_to 10162
  156.9378  130.5850  149.5651 H   0  0  0  0  0  0  0  0  0  0  0  0  # atno 10718 bound_to 10713
  153.0073  135.5377  154.6579 H   0  0  0  0  0  0  0  0  0  0  0  0  # atno 10763 bound_to 10752
  154.5795  135.2848  155.0749 H   0  0  0  0  0  0  0  0  0  0  0  0  # atno 10764 bound_to 10752
  154.1884  135.6504  153.5105 H   0  0  0  0  0  0  0  0  0  0  0  0  # atno 10765 bound_to 10752
  140.0561  134.9230  157.1103 H   0  0  0  0  0  0  0  0  0  0  0  0  # atno 11005 bound_to 11000
  144.7650  140.5510  143.6709 LP  0  0  0  0  0  0  0  0  0  0  0  0  # atno 17320 bound_to 7965
  145.5348  139.1475  143.3480 LP  0  0  0  0  0  0  0  0  0  0  0  0  # atno 17321 bound_to 7965
  140.2957  143.3294  152.1020 LP  0  0  0  0  0  0  0  0  0  0  0  0  # atno 17342 bound_to 10162
  139.5021  144.6728  151.6201 LP  0  0  0  0  0  0  0  0  0  0  0  0  # atno 17343 bound_to 10162
  156.0418  130.5499  150.8788 LP  0  0  0  0  0  0  0  0  0  0  0  0  # atno 17370 bound_to 10713
  157.5805  131.0946  150.9279 LP  0  0  0  0  0  0  0  0  0  0  0  0  # atno 17371 bound_to 10713
  140.3842  134.2254  155.7169 LP  0  0  0  0  0  0  0  0  0  0  0  0  # atno 17394 bound_to 11000
  141.1952  133.8110  157.0723 LP  0  0  0  0  0  0  0  0  0  0  0  0  # atno 17395 bound_to 11000

$$$$
