AV-unprocessed.smi:2674|AV-procd|sdf|10358|dock2
  -GOLD-   2272014383D 1   1.00000     0.00000
 Structure written by MMmdl.
 45 46  0  0  0  0  0  0  0  0  2 V2000
  147.3173  141.6997  153.8888 C   0  0  0  0  0  0  0  0  0  0  0  0
  148.2350  140.5515  153.6757 N   0  3  2  0  0  0  0  0  0  0  0  0
  147.5263  139.2602  153.8864 C   0  0  0  0  0  0  0  0  0  0  0  0
  146.6070  138.9243  152.6983 C   0  0  0  0  0  0  0  0  0  0  0  0
  146.8412  137.5737  152.2002 N   0  0  0  0  0  0  0  0  0  0  0  0
  145.8826  136.6607  151.9862 C   0  0  0  0  0  0  0  0  0  0  0  0
  144.6868  136.8803  152.1813 O   0  0  0  0  0  0  0  0  0  0  0  0
  146.4005  135.5028  151.5396 N   0  0  0  0  0  0  0  0  0  0  0  0
  145.7119  134.3106  151.1900 C   0  0  0  0  0  0  0  0  0  0  0  0
  146.5414  133.2156  150.8571 C   0  0  0  0  0  0  0  0  0  0  0  0
  145.9553  131.9879  150.4933 C   0  0  0  0  0  0  0  0  0  0  0  0
  144.5530  131.8865  150.4711 C   0  0  0  0  0  0  0  0  0  0  0  0
  143.8005  133.0242  150.8154 C   0  0  0  0  0  0  0  0  0  0  0  0
  144.3600  134.2022  151.1644 N   0  0  0  0  0  0  0  0  0  0  0  0
  149.5386  140.6283  154.4090 C   0  0  0  0  0  0  0  0  0  0  0  0
  150.3523  139.3064  154.3896 C   0  0  0  0  0  0  0  0  0  0  0  0
  151.6646  139.4231  155.1825 C   0  0  0  0  0  0  0  0  0  0  0  0
  151.4076  139.8566  156.6312 C   0  0  0  0  0  0  0  0  0  0  0  0
  150.6106  141.1666  156.6726 C   0  0  0  0  0  0  0  0  0  0  0  0
  149.2983  141.0437  155.8829 C   0  0  0  0  0  0  0  0  0  0  0  0
  147.0998  141.8347  154.9490 H   0  0  0  0  0  0  0  0  0  0  0  0
  146.3703  141.5466  153.3714 H   0  0  0  0  0  0  0  0  0  0  0  0
  147.7363  142.6257  153.4954 H   0  0  0  0  0  0  0  0  0  0  0  0
  148.2366  138.4451  154.0192 H   0  0  0  0  0  0  0  0  0  0  0  0
  146.9562  139.2944  154.8166 H   0  0  0  0  0  0  0  0  0  0  0  0
  145.5600  138.9934  152.9921 H   0  0  0  0  0  0  0  0  0  0  0  0
  146.7498  139.6454  151.8914 H   0  0  0  0  0  0  0  0  0  0  0  0
  147.7990  137.3129  152.0156 H   0  0  0  0  0  0  0  0  0  0  0  0
  147.4039  135.4683  151.4374 H   0  0  0  0  0  0  0  0  0  0  0  0
  147.6175  133.3103  150.8792 H   0  0  0  0  0  0  0  0  0  0  0  0
  146.5717  131.1392  150.2357 H   0  0  0  0  0  0  0  0  0  0  0  0
  144.0669  130.9617  150.1975 H   0  0  0  0  0  0  0  0  0  0  0  0
  142.7211  132.9883  150.8105 H   0  0  0  0  0  0  0  0  0  0  0  0
  150.1493  141.3897  153.9199 H   0  0  0  0  0  0  0  0  0  0  0  0
  149.7528  138.4940  154.8034 H   0  0  0  0  0  0  0  0  0  0  0  0
  150.6098  139.0208  153.3697 H   0  0  0  0  0  0  0  0  0  0  0  0
  152.1923  138.4691  155.1703 H   0  0  0  0  0  0  0  0  0  0  0  0
  152.3222  140.1450  154.6965 H   0  0  0  0  0  0  0  0  0  0  0  0
  150.8583  139.0744  157.1570 H   0  0  0  0  0  0  0  0  0  0  0  0
  152.3542  139.9785  157.1584 H   0  0  0  0  0  0  0  0  0  0  0  0
  150.3976  141.4371  157.7070 H   0  0  0  0  0  0  0  0  0  0  0  0
  151.2123  141.9767  156.2587 H   0  0  0  0  0  0  0  0  0  0  0  0
  148.7686  141.9933  155.9500 H   0  0  0  0  0  0  0  0  0  0  0  0
  148.6552  140.3081  156.3684 H   0  0  0  0  0  0  0  0  0  0  0  0
  148.4830  140.5783  152.6967 H   0  0  0  0  0  0  0  0  0  0  0  0
  1  2  1  0  0  0  0
  1 21  1  0  0  0  0
  1 22  1  0  0  0  0
  1 23  1  0  0  0  0
  2  3  1  0  0  0  0
  2 15  1  0  0  0  0
  2 45  1  0  0  0  0
  3  4  1  0  0  0  0
  3 24  1  0  0  0  0
  3 25  1  0  0  0  0
  4  5  1  0  0  0  0
  4 26  1  0  0  0  0
  4 27  1  0  0  0  0
  5  6  1  0  0  0  0
  5 28  1  0  0  0  0
  6  7  2  0  0  0  0
  6  8  1  0  0  0  0
  8  9  1  0  0  0  0
  8 29  1  0  0  0  0
  9 14  1  0  0  0  0
  9 10  2  0  0  0  0
 10 11  1  0  0  0  0
 10 30  1  0  0  0  0
 11 12  2  0  0  0  0
 11 31  1  0  0  0  0
 12 13  1  0  0  0  0
 12 32  1  0  0  0  0
 13 14  2  0  0  0  0
 13 33  1  0  0  0  0
 15 20  1  0  0  0  0
 15 16  1  0  0  0  0
 15 34  1  0  0  0  0
 16 17  1  0  0  0  0
 16 35  1  0  0  0  0
 16 36  1  0  0  0  0
 17 18  1  0  0  0  0
 17 37  1  0  0  0  0
 17 38  1  0  0  0  0
 18 19  1  0  0  0  0
 18 39  1  0  0  0  0
 18 40  1  0  0  0  0
 19 20  1  0  0  0  0
 19 41  1  0  0  0  0
 19 42  1  0  0  0  0
 20 43  1  0  0  0  0
 20 44  1  0  0  0  0
M  CHG  1   2   1
M  END
> <s_m_source_file>
AV-unprocessed.smi

> <i_m_source_file_index>
2674

> <i_lp_mmshare_version>
43012

> <i_f3d_flags>
0

> <s_epik_input>
W0NIMl0xW0NIMl1bQ0gyXVtDSDJdW0NIMl1bQ0hdMU4oW0NIM10pW0NIMl1bQ0gyXVtOSF1DKD1PKVtOSF1jMltjSF1bY0hdW2NIXVtjSF1uMg==

> <s_epik_cmdline>
J2VwaWtfcHl0aG9uJywgJy1waCcsICc3LjAnLCAnLXRuJywgJzgnLCAnLW1hJywgJzIwMCcsICctbWV0YWxfYmluZGluZycsICctaW1hZScsICc8aW5maWxlLm1hZT4nLCAnLW9tYWUnLCAnPG91dGZpbGUubWFlPic=

> <r_epik_Ionization_Penalty>
0.00206741

> <r_epik_Ionization_Penalty_Charging>
0.00203269

> <r_epik_Ionization_Penalty_Neutral>
3.47205e-05

> <r_epik_State_Penalty>
0.00139005

> <r_epik_Charging_Adjusted_Penalty>
0.00342273

> <i_epik_Tot_Q>
1

> <i_epik_Tot_abs_Q>
1

> <r_epik_Metal_State_Penalty>
-0

> <b_epik_Metal_Only>
0

> <s_lp_Force_Field>
OPLS_2005

> <r_lp_Energy>
21.2235

> <b_lp_Chiralities_Consistent>
1

> <s_lp_Variant>
AV-unprocessed.smi:2674-1

> <Gold.Version>
5.8.1

> <Gold.Id.Protein>
6NUR|6NUR_protein|mol2

> <Gold.PLP.Fitness>
50.2468

> <Gold.PLP.PLP>
-40.0903

> <Gold.PLP.part.hbond>
-2.9508

> <Gold.PLP.part.metal>
0.0000

> <Gold.PLP.part.buried>
-3.9757

> <Gold.PLP.part.nonpolar>
-34.3542

> <Gold.PLP.part.repulsive>
1.2933

> <Gold.PLP.ligand.clash>
0.0000

> <Gold.PLP.ligand.torsion>
0.9088

> <Gold.PLP.Chemscore.Hbond>
2.9600

> <Gold.PLP.Chemscore.CHOScore>
1.0000

> <Gold.PLP.Chemscore.Metal>
0.0000

> <Gold.Chemscore.Hbonds>
donor molecule, donor type, donor heavy atom, donor atom, acceptor molecule, acceptor atom, score
      L1  H     2    45       P1  7957  1.00
      L1  H     5    28       P1  7948  1.00
      L1  H     8    29       P1  7948  0.96
      L1  C    13    33       P1 10186  0.93

> <Gold.PLP.Chemscore.Internal.Correction>
0.0943

> <Gold.Rescore>
     Score         DG    S(hbond)    S(metal)    S(lipo)     H(rot)  DE(clash)    DE(int)     intcor
     19.37     -21.60       2.86        0.00      93.33       1.70       0.05       2.18       ----

> <Gold.Chemscore.Fitness>
19.3721

> <Gold.Chemscore.DG>
-21.5968

> <Gold.Chemscore.ZeroCoef>
-5.4800

> <Gold.Chemscore.Hbond>
2.8613

> <Gold.Chemscore.Metal>
0.0000

> <Gold.Chemscore.Lipo>
93.3326

> <Gold.Chemscore.Internal_Hbond>
0.0000

> <Gold.Chemscore.DEClash>
0.0458

> <Gold.Chemscore.DEInternal>
2.1789

> <Gold.Chemscore.Rot>
1.7030

> <Gold.Chemscore.Internal.Correction>
   9.000000E+99

> <Gold.Chemscore.Hbonds>
donor molecule, donor type, donor heavy atom, donor atom, acceptor molecule, acceptor atom, score
      L1  H     2    45       P1  7957  0.95
      L1  H     5    28       P1  7948  0.94
      L1  H     8    29       P1  7948  0.84

> <Gold.Chemscore.Hbond.Weighted>
-9.5566

> <Gold.Chemscore.Metal.Weighted>
-0.0000

> <Gold.Chemscore.Lipo.Weighted>
-10.9199

> <Gold.Chemscore.Internal_Hbond.Weighted>
0.0000

> <Gold.Chemscore.DEClash.Weighted>
0.0458

> <Gold.Chemscore.DEInternal.Weighted>
2.1789

> <Gold.Chemscore.Rot.Weighted>
4.3597

> <Gold.Chemscore.Internal.Correction.Weighted>
   9.000000E+99

> <Gold.Protein.RotatedTorsions>
[ 6907 6896 6895 6894 ] final  -87.71 input  -60.11 | X-H torsion
[ 7974 7965 7964 7962 ] final  -16.62 input  175.53 | X-H torsion
[ 8008 7997 7996 7995 ] final  -84.94 input   59.86 | X-H torsion
[ 10167 10162 10161 10158 ] final  120.35 input  -65.29 | X-H torsion
[ 10718 10713 10712 10709 ] final   11.49 input   66.30 | X-H torsion
[ 10763 10752 10751 10750 ] final  176.04 input  -60.55 | X-H torsion
[ 11005 11000 10999 10996 ] final  125.77 input  -57.11 | X-H torsion

> <Gold.Protein.ActiveResidues>
 VAL166  LYS551  ARG553  GLY616  TRP617  ASP618  TYR619  PRO620  LYS621  CYS622 
 ASP623  PHE694  ASN695  SER759  ASP760  ASP761  ALA762  ILE779  LEU786  VAL792 
 PHE793  MET794  SER795  GLU796  ALA797  LYS798  CYS799  TRP800  GLU811  SER814 

> <Gold.Protein.RotatedAtoms>
  150.6867  134.2854  159.4644 H   0  0  0  0  0  0  0  0  0  0  0  0  # atno 6907 bound_to 6896
  152.0764  134.9497  160.0583 H   0  0  0  0  0  0  0  0  0  0  0  0  # atno 6908 bound_to 6896
  152.0867  133.4145  159.4562 H   0  0  0  0  0  0  0  0  0  0  0  0  # atno 6909 bound_to 6896
  146.1979  140.3662  142.8434 H   0  0  0  0  0  0  0  0  0  0  0  0  # atno 7974 bound_to 7965
  154.6352  140.0598  156.9781 H   0  0  0  0  0  0  0  0  0  0  0  0  # atno 8008 bound_to 7997
  155.1602  140.3282  155.4394 H   0  0  0  0  0  0  0  0  0  0  0  0  # atno 8009 bound_to 7997
  156.2503  140.1932  156.6710 H   0  0  0  0  0  0  0  0  0  0  0  0  # atno 8010 bound_to 7997
  139.5988  144.7050  151.3113 H   0  0  0  0  0  0  0  0  0  0  0  0  # atno 10167 bound_to 10162
  156.9963  130.6062  149.5691 H   0  0  0  0  0  0  0  0  0  0  0  0  # atno 10718 bound_to 10713
  154.4758  135.2773  155.1608 H   0  0  0  0  0  0  0  0  0  0  0  0  # atno 10763 bound_to 10752
  154.3339  135.6184  153.5568 H   0  0  0  0  0  0  0  0  0  0  0  0  # atno 10764 bound_to 10752
  152.9869  135.5772  154.5148 H   0  0  0  0  0  0  0  0  0  0  0  0  # atno 10765 bound_to 10752
  139.9423  134.9634  156.8608 H   0  0  0  0  0  0  0  0  0  0  0  0  # atno 11005 bound_to 11000
  144.8620  140.7152  143.6101 LP  0  0  0  0  0  0  0  0  0  0  0  0  # atno 17320 bound_to 7965
  145.3582  139.1688  143.4397 LP  0  0  0  0  0  0  0  0  0  0  0  0  # atno 17321 bound_to 7965
  140.7233  143.7075  150.7796 LP  0  0  0  0  0  0  0  0  0  0  0  0  # atno 17342 bound_to 10162
  140.0647  143.5120  152.2610 LP  0  0  0  0  0  0  0  0  0  0  0  0  # atno 17343 bound_to 10162
  156.0188  130.5282  150.8214 LP  0  0  0  0  0  0  0  0  0  0  0  0  # atno 17370 bound_to 10713
  157.5422  131.0941  150.9811 LP  0  0  0  0  0  0  0  0  0  0  0  0  # atno 17371 bound_to 10713
  140.5921  134.0252  155.7504 LP  0  0  0  0  0  0  0  0  0  0  0  0  # atno 17394 bound_to 11000
  141.1062  133.9690  157.2993 LP  0  0  0  0  0  0  0  0  0  0  0  0  # atno 17395 bound_to 11000

$$$$
