AV-unprocessed.smi:19|AV-procd|sdf|110|dock3
  -GOLD-   2262015273D 1   1.00000     0.00000
 Structure written by MMmdl.
 57 60  0  0  0  0  0  0  0  0  1 V2000
  150.8918  144.8389  159.5076 C   0  0  0  0  0  0  0  0  0  0  0  0
  150.7846  144.0041  160.6472 O   0  0  0  0  0  0  0  0  0  0  0  0
  152.0424  143.5135  161.0808 C   0  0  0  0  0  0  0  0  0  0  0  0
  152.2256  142.0782  160.5719 C   0  0  1  0  0  0  0  0  0  0  0  0
  152.0964  141.9949  159.0391 C   0  0  0  0  0  0  0  0  0  0  0  0
  152.3854  140.6401  158.5803 N   0  0  0  0  0  0  0  0  0  0  0  0
  152.0326  140.3841  157.2945 C   0  0  0  0  0  0  0  0  0  0  0  0
  152.9773  140.0001  156.3942 N   0  0  0  0  0  0  0  0  0  0  0  0
  152.6421  139.7599  155.1234 C   0  0  0  0  0  0  0  0  0  0  0  0
  151.4403  139.8349  154.5497 N   0  0  0  0  0  0  0  0  0  0  0  0
  150.4838  140.2049  155.4481 C   0  0  0  0  0  0  0  0  0  0  0  0
  150.6928  140.4994  156.8258 C   0  0  0  0  0  0  0  0  0  0  0  0
  149.4845  140.8379  157.4236 N   0  0  0  0  0  0  0  0  0  0  0  0
  148.6159  140.7619  156.4533 C   0  0  0  0  0  0  0  0  0  0  0  0
  149.1253  140.3712  155.2350 N   0  0  0  0  0  0  0  0  0  0  0  0
  148.3814  140.2068  153.9926 C   0  0  0  0  0  0  0  0  0  0  0  0
  147.5292  138.9054  153.9020 C   0  0  0  0  0  0  0  0  0  0  0  0
  147.0010  138.6964  152.4541 C   0  0  0  0  0  0  0  0  0  0  0  0
  148.0330  138.7722  151.4916 O   0  0  0  0  0  0  0  0  0  0  0  0
  148.3836  137.6816  154.3220 C   0  0  0  0  0  0  0  0  0  0  0  0
  147.5454  136.4145  154.5766 C   0  0  0  0  0  0  0  0  0  0  0  0
  146.5361  136.6779  155.5419 O   0  0  0  0  0  0  0  0  0  0  0  0
  145.6207  137.6805  155.1215 C   0  0  0  0  0  0  0  0  0  0  0  0
  146.3647  139.0120  154.9190 C   0  0  0  0  0  0  0  0  0  0  0  0
  153.6753  140.1417  159.0505 C   0  0  0  0  0  0  0  0  0  0  0  0
  153.7720  140.2793  160.5807 C   0  0  1  0  0  0  0  0  0  0  0  0
  155.1540  139.8806  161.1087 C   0  0  0  0  0  0  0  0  0  0  0  0
  153.5308  141.6370  160.9392 O   0  0  0  0  0  0  0  0  0  0  0  0
  149.9012  145.1852  159.2128 H   0  0  0  0  0  0  0  0  0  0  0  0
  151.3259  144.3013  158.6635 H   0  0  0  0  0  0  0  0  0  0  0  0
  151.5061  145.7153  159.7177 H   0  0  0  0  0  0  0  0  0  0  0  0
  152.8292  144.1521  160.6756 H   0  0  0  0  0  0  0  0  0  0  0  0
  152.1209  143.5464  162.1687 H   0  0  0  0  0  0  0  0  0  0  0  0
  151.4725  141.4375  161.0344 H   0  0  0  0  0  0  0  0  0  0  0  0
  151.0969  142.3107  158.7427 H   0  0  0  0  0  0  0  0  0  0  0  0
  152.7980  142.6834  158.5659 H   0  0  0  0  0  0  0  0  0  0  0  0
  153.4531  139.4666  154.4732 H   0  0  0  0  0  0  0  0  0  0  0  0
  147.5692  140.9829  156.6038 H   0  0  0  0  0  0  0  0  0  0  0  0
  147.7389  141.0813  153.8812 H   0  0  0  0  0  0  0  0  0  0  0  0
  149.0875  140.2582  153.1629 H   0  0  0  0  0  0  0  0  0  0  0  0
  146.5070  137.7296  152.3568 H   0  0  0  0  0  0  0  0  0  0  0  0
  146.2537  139.4411  152.1861 H   0  0  0  0  0  0  0  0  0  0  0  0
  148.5512  139.5429  151.6663 H   0  0  0  0  0  0  0  0  0  0  0  0
  149.1401  137.4633  153.5680 H   0  0  0  0  0  0  0  0  0  0  0  0
  148.9259  137.9165  155.2388 H   0  0  0  0  0  0  0  0  0  0  0  0
  147.0975  136.0361  153.6576 H   0  0  0  0  0  0  0  0  0  0  0  0
  148.1874  135.6194  154.9560 H   0  0  0  0  0  0  0  0  0  0  0  0
  145.1021  137.3670  154.2148 H   0  0  0  0  0  0  0  0  0  0  0  0
  144.8579  137.7973  155.8913 H   0  0  0  0  0  0  0  0  0  0  0  0
  146.7575  139.3247  155.8873 H   0  0  0  0  0  0  0  0  0  0  0  0
  145.6596  139.7889  154.6230 H   0  0  0  0  0  0  0  0  0  0  0  0
  153.7975  139.0953  158.7670 H   0  0  0  0  0  0  0  0  0  0  0  0
  154.4776  140.7061  158.5729 H   0  0  0  0  0  0  0  0  0  0  0  0
  153.0214  139.6448  161.0555 H   0  0  0  0  0  0  0  0  0  0  0  0
  155.3814  138.8420  160.8674 H   0  0  0  0  0  0  0  0  0  0  0  0
  155.2027  139.9890  162.1923 H   0  0  0  0  0  0  0  0  0  0  0  0
  155.9368  140.5041  160.6758 H   0  0  0  0  0  0  0  0  0  0  0  0
  1  2  1  0  0  0  0
  1 29  1  0  0  0  0
  1 30  1  0  0  0  0
  1 31  1  0  0  0  0
  2  3  1  0  0  0  0
  3  4  1  0  0  0  0
  3 32  1  0  0  0  0
  3 33  1  0  0  0  0
  4 28  1  0  0  0  0
  4  5  1  0  0  0  0
  4 34  1  0  0  0  0
  5  6  1  0  0  0  0
  5 35  1  0  0  0  0
  5 36  1  0  0  0  0
  6  7  1  0  0  0  0
  6 25  1  0  0  0  0
  7 12  1  0  0  0  0
  7  8  2  0  0  0  0
  8  9  1  0  0  0  0
  9 10  2  0  0  0  0
  9 37  1  0  0  0  0
 10 11  1  0  0  0  0
 11 15  1  0  0  0  0
 11 12  2  0  0  0  0
 12 13  1  0  0  0  0
 13 14  2  0  0  0  0
 14 15  1  0  0  0  0
 14 38  1  0  0  0  0
 15 16  1  0  0  0  0
 16 17  1  0  0  0  0
 16 39  1  0  0  0  0
 16 40  1  0  0  0  0
 17 24  1  0  0  0  0
 17 18  1  0  0  0  0
 17 20  1  0  0  0  0
 18 19  1  0  0  0  0
 18 41  1  0  0  0  0
 18 42  1  0  0  0  0
 19 43  1  0  0  0  0
 20 21  1  0  0  0  0
 20 44  1  0  0  0  0
 20 45  1  0  0  0  0
 21 22  1  0  0  0  0
 21 46  1  0  0  0  0
 21 47  1  0  0  0  0
 22 23  1  0  0  0  0
 23 24  1  0  0  0  0
 23 48  1  0  0  0  0
 23 49  1  0  0  0  0
 24 50  1  0  0  0  0
 24 51  1  0  0  0  0
 25 26  1  0  0  0  0
 25 52  1  0  0  0  0
 25 53  1  0  0  0  0
 26 27  1  0  0  0  0
 26 28  1  0  0  0  0
 26 54  1  0  0  0  0
 27 55  1  0  0  0  0
 27 56  1  0  0  0  0
 27 57  1  0  0  0  0
M  END
> <s_m_source_file>
AV-unprocessed.smi

> <i_m_source_file_index>
19

> <i_lp_mmshare_version>
43012

> <i_f3d_flags>
0

> <s_epik_input>
W0NIM11PW0NIMl1bQ0BASF0xW0NIMl1OKFtDSDJdW0NASF0oTzEpW0NIM10pYyhuW2NIXW4yKWMoYzIzKW5bY0hdbjNbQ0gyXUM0KFtDSDJdW09IXSlbQ0gyXVtDSDJdT1tDSDJdW0NIMl00

> <s_epik_cmdline>
J2VwaWtfcHl0aG9uJywgJy1waCcsICc3LjAnLCAnLXRuJywgJzgnLCAnLW1hJywgJzIwMCcsICctbWV0YWxfYmluZGluZycsICctaW1hZScsICc8aW5maWxlLm1hZT4nLCAnLW9tYWUnLCAnPG91dGZpbGUubWFlPic=

> <r_lp_tautomer_probability>
1

> <r_epik_Ionization_Penalty>
6.20357e-05

> <r_epik_Ionization_Penalty_Charging>
0

> <r_epik_Ionization_Penalty_Neutral>
6.20357e-05

> <r_epik_State_Penalty>
-0

> <r_epik_Charging_Adjusted_Penalty>
0

> <i_epik_Tot_Q>
0

> <i_epik_Tot_abs_Q>
0

> <r_epik_Metal_State_Penalty>
-0

> <b_epik_Metal_Only>
0

> <s_lp_Force_Field>
OPLS_2005

> <r_lp_Energy>
35.6446

> <b_lp_Chiralities_Consistent>
1

> <s_lp_Variant>
AV-unprocessed.smi:19-2

> <Gold.Version>
5.8.1

> <Gold.Id.Protein>
6NUR|6NUR_protein|mol2

> <Gold.PLP.Fitness>
53.9075

> <Gold.PLP.PLP>
-43.6723

> <Gold.PLP.part.hbond>
-4.7013

> <Gold.PLP.part.metal>
0.0000

> <Gold.PLP.part.buried>
-6.2868

> <Gold.PLP.part.nonpolar>
-33.7778

> <Gold.PLP.part.repulsive>
0.2261

> <Gold.PLP.ligand.clash>
0.0000

> <Gold.PLP.ligand.torsion>
0.8550

> <Gold.PLP.Chemscore.Hbond>
3.8400

> <Gold.PLP.Chemscore.CHOScore>
0.0000

> <Gold.PLP.Chemscore.Metal>
0.0000

> <Gold.Chemscore.Hbonds>
donor molecule, donor type, donor heavy atom, donor atom, acceptor molecule, acceptor atom, score
      L1  H    19    43       P1  7957  0.19
      P1  H  7954  7966       L1    19  0.70
      P1  H  7989  7998       L1    10  0.88
      P1  H  7997  8009       L1     8  0.59

> <Gold.PLP.Chemscore.Internal.Correction>
0.4252

> <Gold.Rescore>
     Score         DG    S(hbond)    S(metal)    S(lipo)     H(rot)  DE(clash)    DE(int)     intcor
     14.06     -15.02       1.86        0.00      91.26       2.87       0.03       0.93       ----

> <Gold.Chemscore.Fitness>
14.0562

> <Gold.Chemscore.DG>
-15.0204

> <Gold.Chemscore.ZeroCoef>
-5.4800

> <Gold.Chemscore.Hbond>
1.8617

> <Gold.Chemscore.Metal>
0.0000

> <Gold.Chemscore.Lipo>
91.2553

> <Gold.Chemscore.Internal_Hbond>
0.0000

> <Gold.Chemscore.DEClash>
0.0339

> <Gold.Chemscore.DEInternal>
0.9304

> <Gold.Chemscore.Rot>
2.8729

> <Gold.Chemscore.Internal.Correction>
   9.000000E+99

> <Gold.Chemscore.Hbonds>
donor molecule, donor type, donor heavy atom, donor atom, acceptor molecule, acceptor atom, score
      L1  H    19    43       P1  7957  0.19
      P1  H  7954  7966       L1    19  0.68
      P1  H  7989  7998       L1    10  0.24
      P1  H  7997  8009       L1     8  0.20

> <Gold.Chemscore.Hbond.Weighted>
-6.2182

> <Gold.Chemscore.Metal.Weighted>
-0.0000

> <Gold.Chemscore.Lipo.Weighted>
-10.6769

> <Gold.Chemscore.Internal_Hbond.Weighted>
0.0000

> <Gold.Chemscore.DEClash.Weighted>
0.0339

> <Gold.Chemscore.DEInternal.Weighted>
0.9304

> <Gold.Chemscore.Rot.Weighted>
7.3546

> <Gold.Chemscore.Internal.Correction.Weighted>
   9.000000E+99

> <Gold.Protein.RotatedTorsions>
[ 6907 6896 6895 6894 ] final  149.41 input  -60.11 | X-H torsion
[ 7974 7965 7964 7962 ] final  -49.82 input  175.53 | X-H torsion
[ 8008 7997 7996 7995 ] final -159.71 input   59.86 | X-H torsion
[ 10167 10162 10161 10158 ] final  -98.57 input  -65.29 | X-H torsion
[ 10718 10713 10712 10709 ] final   28.74 input   66.30 | X-H torsion
[ 10763 10752 10751 10750 ] final  -15.77 input  -60.55 | X-H torsion
[ 11005 11000 10999 10996 ] final  160.52 input  -57.11 | X-H torsion

> <Gold.Protein.ActiveResidues>
 VAL166  LYS551  ARG553  GLY616  TRP617  ASP618  TYR619  PRO620  LYS621  CYS622 
 ASP623  PHE694  ASN695  SER759  ASP760  ASP761  ALA762  ILE779  LEU786  VAL792 
 PHE793  MET794  SER795  GLU796  ALA797  LYS798  CYS799  TRP800  GLU811  SER814 

> <Gold.Protein.RotatedAtoms>
  152.1283  133.4393  159.4708 H   0  0  0  0  0  0  0  0  0  0  0  0  # atno 6907 bound_to 6896
  150.6876  134.2451  159.4497 H   0  0  0  0  0  0  0  0  0  0  0  0  # atno 6908 bound_to 6896
  152.0333  134.9754  160.0623 H   0  0  0  0  0  0  0  0  0  0  0  0  # atno 6909 bound_to 6896
  145.9364  140.7702  142.9574 H   0  0  0  0  0  0  0  0  0  0  0  0  # atno 7974 bound_to 7965
  155.7666  140.0846  157.2129 H   0  0  0  0  0  0  0  0  0  0  0  0  # atno 8008 bound_to 7997
  154.3999  140.1533  156.2950 H   0  0  0  0  0  0  0  0  0  0  0  0  # atno 8009 bound_to 7997
  155.8788  140.3421  155.5875 H   0  0  0  0  0  0  0  0  0  0  0  0  # atno 8010 bound_to 7997
  140.2716  143.3340  152.0529 H   0  0  0  0  0  0  0  0  0  0  0  0  # atno 10167 bound_to 10162
  157.2375  130.7053  149.6342 H   0  0  0  0  0  0  0  0  0  0  0  0  # atno 10718 bound_to 10713
  153.5485  135.7012  153.5603 H   0  0  0  0  0  0  0  0  0  0  0  0  # atno 10763 bound_to 10752
  153.3537  135.3988  155.1666 H   0  0  0  0  0  0  0  0  0  0  0  0  # atno 10764 bound_to 10752
  154.8664  135.3772  154.4994 H   0  0  0  0  0  0  0  0  0  0  0  0  # atno 10765 bound_to 10752
  140.2067  134.8298  157.3077 H   0  0  0  0  0  0  0  0  0  0  0  0  # atno 11005 bound_to 11000
  144.6772  140.2210  143.7366 LP  0  0  0  0  0  0  0  0  0  0  0  0  # atno 17320 bound_to 7965
  145.8358  139.2107  143.1856 LP  0  0  0  0  0  0  0  0  0  0  0  0  # atno 17321 bound_to 7965
  139.4987  144.6652  151.6372 LP  0  0  0  0  0  0  0  0  0  0  0  0  # atno 17342 bound_to 10162
  140.5885  143.9822  150.6310 LP  0  0  0  0  0  0  0  0  0  0  0  0  # atno 17343 bound_to 10162
  155.9672  130.4469  150.5559 LP  0  0  0  0  0  0  0  0  0  0  0  0  # atno 17370 bound_to 10713
  157.3414  131.0717  151.1785 LP  0  0  0  0  0  0  0  0  0  0  0  0  # atno 17371 bound_to 10713
  140.1995  134.4272  155.7670 LP  0  0  0  0  0  0  0  0  0  0  0  0  # atno 17394 bound_to 11000
  141.2227  133.7065  156.8160 LP  0  0  0  0  0  0  0  0  0  0  0  0  # atno 17395 bound_to 11000

$$$$
