AV-unprocessed.smi:1423|AV-procd|sdf|5794|dock2
  -GOLD-   22720 5443D 1   1.00000     0.00000
 Structure written by MMmdl.
 43 44  0  0  0  0  0  0  0  0  1 V2000
  150.7978  141.9405  156.5853 C   0  0  0  0  0  0  0  0  0  0  0  0
  150.7803  140.8928  155.6217 O   0  0  0  0  0  0  0  0  0  0  0  0
  149.5637  140.5031  155.1001 C   0  0  0  0  0  0  0  0  0  0  0  0
  148.4584  141.3639  155.2483 C   0  0  0  0  0  0  0  0  0  0  0  0
  147.2130  140.9742  154.7183 C   0  0  0  0  0  0  0  0  0  0  0  0
  147.1124  139.7294  154.0501 C   0  0  0  0  0  0  0  0  0  0  0  0
  145.9260  139.2078  153.4627 N   0  0  0  0  0  0  0  0  0  0  0  0
  145.6766  137.9795  152.9764 C   0  0  0  0  0  0  0  0  0  0  0  0
  146.4860  137.0554  152.9078 O   0  0  0  0  0  0  0  0  0  0  0  0
  144.4055  137.8775  152.5626 N   0  0  0  0  0  0  0  0  0  0  0  0
  143.7959  136.6760  152.0010 C   0  0  0  0  0  0  0  0  0  0  0  0
  143.9420  135.4832  152.9589 C   0  0  0  0  0  0  0  0  0  0  0  0
  143.4140  134.1903  152.3130 C   0  0  0  0  0  0  0  0  0  0  0  0
  144.1210  133.9061  151.0594 N   0  0  0  0  0  0  0  0  0  0  0  0
  143.6669  132.5979  150.5338 C   0  0  0  0  0  0  0  0  0  0  0  0
  143.7239  132.4663  149.0065 C   0  0  0  0  0  0  0  0  0  0  0  0
  142.6190  132.7809  148.3260 N   0  0  0  0  0  0  0  0  0  0  0  0
  144.7527  132.0891  148.4496 O   0  0  0  0  0  0  0  0  0  0  0  0
  143.9184  135.0015  150.0995 C   0  0  0  0  0  0  0  0  0  0  0  0
  144.4650  136.3243  150.6654 C   0  0  0  0  0  0  0  0  0  0  0  0
  148.2790  138.9419  153.9592 C   0  0  0  0  0  0  0  0  0  0  0  0
  149.4747  139.3086  154.4656 N   0  0  0  0  0  0  0  0  0  0  0  0
  151.8252  142.1279  156.8965 H   0  0  0  0  0  0  0  0  0  0  0  0
  150.2264  141.6747  157.4758 H   0  0  0  0  0  0  0  0  0  0  0  0
  150.4030  142.8692  156.1706 H   0  0  0  0  0  0  0  0  0  0  0  0
  148.5634  142.3085  155.7613 H   0  0  0  0  0  0  0  0  0  0  0  0
  146.3747  141.6403  154.8411 H   0  0  0  0  0  0  0  0  0  0  0  0
  145.1483  139.8511  153.4368 H   0  0  0  0  0  0  0  0  0  0  0  0
  143.8100  138.6876  152.6523 H   0  0  0  0  0  0  0  0  0  0  0  0
  142.7356  136.8595  151.8159 H   0  0  0  0  0  0  0  0  0  0  0  0
  144.9893  135.3502  153.2346 H   0  0  0  0  0  0  0  0  0  0  0  0
  143.4007  135.6767  153.8858 H   0  0  0  0  0  0  0  0  0  0  0  0
  143.5567  133.3655  153.0122 H   0  0  0  0  0  0  0  0  0  0  0  0
  142.3403  134.2713  152.1335 H   0  0  0  0  0  0  0  0  0  0  0  0
  144.2968  131.8065  150.9427 H   0  0  0  0  0  0  0  0  0  0  0  0
  142.6521  132.3956  150.8827 H   0  0  0  0  0  0  0  0  0  0  0  0
  142.6090  132.7114  147.3190 H   0  0  0  0  0  0  0  0  0  0  0  0
  141.7960  133.0894  148.8232 H   0  0  0  0  0  0  0  0  0  0  0  0
  144.4354  134.7989  149.1617 H   0  0  0  0  0  0  0  0  0  0  0  0
  142.8581  135.1009  149.8605 H   0  0  0  0  0  0  0  0  0  0  0  0
  144.3034  137.1272  149.9450 H   0  0  0  0  0  0  0  0  0  0  0  0
  145.5451  136.2408  150.7980 H   0  0  0  0  0  0  0  0  0  0  0  0
  148.2548  137.9837  153.4606 H   0  0  0  0  0  0  0  0  0  0  0  0
  1  2  1  0  0  0  0
  1 23  1  0  0  0  0
  1 24  1  0  0  0  0
  1 25  1  0  0  0  0
  2  3  1  0  0  0  0
  3 22  1  0  0  0  0
  3  4  2  0  0  0  0
  4  5  1  0  0  0  0
  4 26  1  0  0  0  0
  5  6  2  0  0  0  0
  5 27  1  0  0  0  0
  6  7  1  0  0  0  0
  6 21  1  0  0  0  0
  7  8  1  0  0  0  0
  7 28  1  0  0  0  0
  8  9  2  0  0  0  0
  8 10  1  0  0  0  0
 10 11  1  0  0  0  0
 10 29  1  0  0  0  0
 11 20  1  0  0  0  0
 11 12  1  0  0  0  0
 11 30  1  0  0  0  0
 12 13  1  0  0  0  0
 12 31  1  0  0  0  0
 12 32  1  0  0  0  0
 13 14  1  0  0  0  0
 13 33  1  0  0  0  0
 13 34  1  0  0  0  0
 14 15  1  0  0  0  0
 14 19  1  0  0  0  0
 15 16  1  0  0  0  0
 15 35  1  0  0  0  0
 15 36  1  0  0  0  0
 16 17  1  0  0  0  0
 16 18  2  0  0  0  0
 17 37  1  0  0  0  0
 17 38  1  0  0  0  0
 19 20  1  0  0  0  0
 19 39  1  0  0  0  0
 19 40  1  0  0  0  0
 20 41  1  0  0  0  0
 20 42  1  0  0  0  0
 21 22  2  0  0  0  0
 21 43  1  0  0  0  0
M  END
> <s_m_source_file>
AV-unprocessed.smi

> <i_m_source_file_index>
1423

> <i_lp_mmshare_version>
43012

> <i_f3d_flags>
0

> <s_epik_input>
W0NIM11PYzFbY0hdW2NIXWMoW2NIXW4xKVtOSF1DKD1PKVtOSF1bQ0hdMltDSDJdW0NIMl1OKFtDSDJdW0NIMl0yKVtDSDJdQyg9TylbTkgyXQ==

> <s_epik_cmdline>
J2VwaWtfcHl0aG9uJywgJy1waCcsICc3LjAnLCAnLXRuJywgJzgnLCAnLW1hJywgJzIwMCcsICctbWV0YWxfYmluZGluZycsICctaW1hZScsICc8aW5maWxlLm1hZT4nLCAnLW9tYWUnLCAnPG91dGZpbGUubWFlPic=

> <r_lp_tautomer_probability>
1

> <r_epik_Ionization_Penalty>
0.16483

> <r_epik_Ionization_Penalty_Charging>
0

> <r_epik_Ionization_Penalty_Neutral>
0.16483

> <r_epik_State_Penalty>
0.154069

> <r_epik_Charging_Adjusted_Penalty>
0.154069

> <i_epik_Tot_Q>
0

> <i_epik_Tot_abs_Q>
0

> <r_epik_Metal_State_Penalty>
0.171364

> <b_epik_Metal_Only>
0

> <s_lp_Force_Field>
OPLS_2005

> <r_lp_Energy>
14.563

> <b_lp_Chiralities_Consistent>
1

> <s_lp_Variant>
AV-unprocessed.smi:1423-1

> <Gold.Version>
5.8.1

> <Gold.Id.Protein>
6NUR|6NUR_protein|mol2

> <Gold.PLP.Fitness>
45.1448

> <Gold.PLP.PLP>
-31.8397

> <Gold.PLP.part.hbond>
-8.2830

> <Gold.PLP.part.metal>
0.0000

> <Gold.PLP.part.buried>
2.2924

> <Gold.PLP.part.nonpolar>
-29.7250

> <Gold.PLP.part.repulsive>
4.0115

> <Gold.PLP.ligand.clash>
0.0000

> <Gold.PLP.ligand.torsion>
1.0320

> <Gold.PLP.Chemscore.Hbond>
4.1204

> <Gold.PLP.Chemscore.CHOScore>
1.0000

> <Gold.PLP.Chemscore.Metal>
0.0000

> <Gold.Chemscore.Hbonds>
donor molecule, donor type, donor heavy atom, donor atom, acceptor molecule, acceptor atom, score
      L1  H     7    28       P1 10175  0.93
      L1  H    10    29       P1 10175  0.94
      L1  H    17    37       P1 10195  0.99
      L1  H    17    38       P1 10186  0.93
      P1  H  7989  7998       L1     2  0.13
      L1  C    21    43       P1  7948  1.00

> <Gold.PLP.Chemscore.Internal.Correction>
0.0079

> <Gold.Rescore>
     Score         DG    S(hbond)    S(metal)    S(lipo)     H(rot)  DE(clash)    DE(int)     intcor
     12.34     -20.02       3.80        0.00      65.88       2.29       4.09       3.59       ----

> <Gold.Chemscore.Fitness>
12.3416

> <Gold.Chemscore.DG>
-20.0182

> <Gold.Chemscore.ZeroCoef>
-5.4800

> <Gold.Chemscore.Hbond>
3.8041

> <Gold.Chemscore.Metal>
0.0000

> <Gold.Chemscore.Lipo>
65.8769

> <Gold.Chemscore.Internal_Hbond>
0.0000

> <Gold.Chemscore.DEClash>
4.0858

> <Gold.Chemscore.DEInternal>
3.5907

> <Gold.Chemscore.Rot>
2.2949

> <Gold.Chemscore.Internal.Correction>
   9.000000E+99

> <Gold.Chemscore.Hbonds>
donor molecule, donor type, donor heavy atom, donor atom, acceptor molecule, acceptor atom, score
      L1  H     7    28       P1 10175  0.91
      L1  H    10    29       P1 10175  0.91
      L1  H    17    37       P1 10195  0.90
      L1  H    17    38       P1 10186  0.90

> <Gold.Chemscore.Hbond.Weighted>
-12.7056

> <Gold.Chemscore.Metal.Weighted>
-0.0000

> <Gold.Chemscore.Lipo.Weighted>
-7.7076

> <Gold.Chemscore.Internal_Hbond.Weighted>
0.0000

> <Gold.Chemscore.DEClash.Weighted>
4.0858

> <Gold.Chemscore.DEInternal.Weighted>
3.5907

> <Gold.Chemscore.Rot.Weighted>
5.8750

> <Gold.Chemscore.Internal.Correction.Weighted>
   9.000000E+99

> <Gold.Protein.RotatedTorsions>
[ 6907 6896 6895 6894 ] final   25.07 input  -60.11 | X-H torsion
[ 7974 7965 7964 7962 ] final  -57.04 input  175.53 | X-H torsion
[ 8008 7997 7996 7995 ] final   79.54 input   59.86 | X-H torsion
[ 10167 10162 10161 10158 ] final  -97.58 input  -65.29 | X-H torsion
[ 10718 10713 10712 10709 ] final  152.23 input   66.30 | X-H torsion
[ 10763 10752 10751 10750 ] final  -86.29 input  -60.55 | X-H torsion
[ 11005 11000 10999 10996 ] final   24.49 input  -57.11 | X-H torsion

> <Gold.Protein.ActiveResidues>
 VAL166  LYS551  ARG553  GLY616  TRP617  ASP618  TYR619  PRO620  LYS621  CYS622 
 ASP623  PHE694  ASN695  SER759  ASP760  ASP761  ALA762  ILE779  LEU786  VAL792 
 PHE793  MET794  SER795  GLU796  ALA797  LYS798  CYS799  TRP800  GLU811  SER814 

> <Gold.Protein.RotatedAtoms>
  151.9670  135.0095  160.0550 H   0  0  0  0  0  0  0  0  0  0  0  0  # atno 6907 bound_to 6896
  152.1817  133.4707  159.4970 H   0  0  0  0  0  0  0  0  0  0  0  0  # atno 6908 bound_to 6896
  150.6918  134.1742  159.4267 H   0  0  0  0  0  0  0  0  0  0  0  0  # atno 6909 bound_to 6896
  145.8557  140.8321  142.9963 H   0  0  0  0  0  0  0  0  0  0  0  0  # atno 7974 bound_to 7965
  155.8711  140.3449  155.5822 H   0  0  0  0  0  0  0  0  0  0  0  0  # atno 8008 bound_to 7997
  155.7826  140.0860  157.2070 H   0  0  0  0  0  0  0  0  0  0  0  0  # atno 8009 bound_to 7997
  154.4017  140.1498  156.3057 H   0  0  0  0  0  0  0  0  0  0  0  0  # atno 8010 bound_to 7997
  140.2820  143.3276  152.0432 H   0  0  0  0  0  0  0  0  0  0  0  0  # atno 10167 bound_to 10162
  157.2605  131.0797  151.1669 H   0  0  0  0  0  0  0  0  0  0  0  0  # atno 10718 bound_to 10713
  154.6208  135.5454  153.7573 H   0  0  0  0  0  0  0  0  0  0  0  0  # atno 10763 bound_to 10752
  153.0237  135.6412  154.1443 H   0  0  0  0  0  0  0  0  0  0  0  0  # atno 10764 bound_to 10752
  154.1378  135.2910  155.3149 H   0  0  0  0  0  0  0  0  0  0  0  0  # atno 10765 bound_to 10752
  140.3581  134.2155  155.7674 H   0  0  0  0  0  0  0  0  0  0  0  0  # atno 11005 bound_to 11000
  144.6728  140.1020  143.7460 LP  0  0  0  0  0  0  0  0  0  0  0  0  # atno 17320 bound_to 7965
  145.9306  139.2604  143.1327 LP  0  0  0  0  0  0  0  0  0  0  0  0  # atno 17321 bound_to 7965
  139.4960  144.6585  151.6518 LP  0  0  0  0  0  0  0  0  0  0  0  0  # atno 17342 bound_to 10162
  140.5804  143.9955  150.6265 LP  0  0  0  0  0  0  0  0  0  0  0  0  # atno 17343 bound_to 10162
  157.3181  130.6923  149.6253 LP  0  0  0  0  0  0  0  0  0  0  0  0  # atno 17370 bound_to 10713
  155.9664  130.4343  150.5045 LP  0  0  0  0  0  0  0  0  0  0  0  0  # atno 17371 bound_to 10713
  141.1992  133.8017  157.0547 LP  0  0  0  0  0  0  0  0  0  0  0  0  # atno 17394 bound_to 11000
  140.0648  134.9735  157.1367 LP  0  0  0  0  0  0  0  0  0  0  0  0  # atno 17395 bound_to 11000

$$$$
