AV-unprocessed.smi:1483|AV-procd|sdf|5990|dock5
  -GOLD-   22720 6 83D 1   1.00000     0.00000
 Structure written by MMmdl.
 49 50  0  0  0  0  0  0  0  0  2 V2000
  151.7128  145.4663  159.6214 C   0  0  0  0  0  0  0  0  0  0  0  0
  151.7372  144.0009  159.2405 C   0  0  0  0  0  0  0  0  0  0  0  0
  152.5757  143.0921  159.9195 C   0  0  0  0  0  0  0  0  0  0  0  0
  152.5444  141.7365  159.5392 C   0  0  0  0  0  0  0  0  0  0  0  0
  151.6766  141.3420  158.4996 C   0  0  0  0  0  0  0  0  0  0  0  0
  151.5437  139.8779  158.1075 C   0  0  0  0  0  0  0  0  0  0  0  0
  151.7191  139.7374  156.5932 C   0  0  0  0  0  0  0  0  0  0  0  0
  152.8351  139.5585  156.1079 O   0  0  0  0  0  0  0  0  0  0  0  0
  150.5892  139.7676  155.8702 N   0  0  0  0  0  0  0  0  0  0  0  0
  150.4349  139.3701  154.4735 C   0  0  2  0  0  0  0  0  0  0  0  0
  148.9784  138.9479  154.2220 C   0  0  0  0  0  0  0  0  0  0  0  0
  148.6114  137.6732  155.0095 C   0  0  0  0  0  0  0  0  0  0  0  0
  149.5339  136.5453  154.7099 N   0  3  2  0  0  0  0  0  0  0  0  0
  149.1431  135.3109  155.4408 C   0  0  0  0  0  0  0  0  0  0  0  0
  150.0353  134.0935  155.1149 C   0  0  0  0  0  0  0  0  0  0  0  0
  149.5490  133.3467  153.8620 C   0  0  0  0  0  0  0  0  0  0  0  0
  150.1023  133.1396  156.3167 C   0  0  0  0  0  0  0  0  0  0  0  0
  150.9613  136.9144  154.9168 C   0  0  0  0  0  0  0  0  0  0  0  0
  151.3443  138.1759  154.1203 C   0  0  0  0  0  0  0  0  0  0  0  0
  150.8924  142.3349  157.8729 C   0  0  0  0  0  0  0  0  0  0  0  0
  150.9083  143.6343  158.2382 N   0  0  0  0  0  0  0  0  0  0  0  0
  152.6079  145.7407  160.1803 H   0  0  0  0  0  0  0  0  0  0  0  0
  150.8423  145.6780  160.2425 H   0  0  0  0  0  0  0  0  0  0  0  0
  151.6634  146.0964  158.7325 H   0  0  0  0  0  0  0  0  0  0  0  0
  153.2228  143.4221  160.7192 H   0  0  0  0  0  0  0  0  0  0  0  0
  153.1594  141.0108  160.0512 H   0  0  0  0  0  0  0  0  0  0  0  0
  152.2948  139.2778  158.6225 H   0  0  0  0  0  0  0  0  0  0  0  0
  150.5659  139.5004  158.4098 H   0  0  0  0  0  0  0  0  0  0  0  0
  149.7350  139.9610  156.3725 H   0  0  0  0  0  0  0  0  0  0  0  0
  150.6809  140.2234  153.8394 H   0  0  0  0  0  0  0  0  0  0  0  0
  148.2996  139.7585  154.4902 H   0  0  0  0  0  0  0  0  0  0  0  0
  148.8308  138.7694  153.1559 H   0  0  0  0  0  0  0  0  0  0  0  0
  148.6217  137.8729  156.0824 H   0  0  0  0  0  0  0  0  0  0  0  0
  147.5907  137.3830  154.7572 H   0  0  0  0  0  0  0  0  0  0  0  0
  149.1503  135.5156  156.5129 H   0  0  0  0  0  0  0  0  0  0  0  0
  148.1128  135.0519  155.1919 H   0  0  0  0  0  0  0  0  0  0  0  0
  151.0547  134.4305  154.9305 H   0  0  0  0  0  0  0  0  0  0  0  0
  148.5307  132.9785  153.9898 H   0  0  0  0  0  0  0  0  0  0  0  0
  150.1862  132.4887  153.6452 H   0  0  0  0  0  0  0  0  0  0  0  0
  149.5628  133.9901  152.9821 H   0  0  0  0  0  0  0  0  0  0  0  0
  149.1169  132.7462  156.5682 H   0  0  0  0  0  0  0  0  0  0  0  0
  150.4933  133.6462  157.1995 H   0  0  0  0  0  0  0  0  0  0  0  0
  150.7561  132.2916  156.1110 H   0  0  0  0  0  0  0  0  0  0  0  0
  151.1480  137.0671  155.9806 H   0  0  0  0  0  0  0  0  0  0  0  0
  151.6112  136.0988  154.6033 H   0  0  0  0  0  0  0  0  0  0  0  0
  151.2650  137.9651  153.0529 H   0  0  0  0  0  0  0  0  0  0  0  0
  152.3920  138.4213  154.2967 H   0  0  0  0  0  0  0  0  0  0  0  0
  150.2057  142.0732  157.0812 H   0  0  0  0  0  0  0  0  0  0  0  0
  149.4216  136.3463  153.7260 H   0  0  0  0  0  0  0  0  0  0  0  0
  1  2  1  0  0  0  0
  1 22  1  0  0  0  0
  1 23  1  0  0  0  0
  1 24  1  0  0  0  0
  2 21  1  0  0  0  0
  2  3  2  0  0  0  0
  3  4  1  0  0  0  0
  3 25  1  0  0  0  0
  4  5  2  0  0  0  0
  4 26  1  0  0  0  0
  5  6  1  0  0  0  0
  5 20  1  0  0  0  0
  6  7  1  0  0  0  0
  6 27  1  0  0  0  0
  6 28  1  0  0  0  0
  7  8  2  0  0  0  0
  7  9  1  0  0  0  0
  9 10  1  0  0  0  0
  9 29  1  0  0  0  0
 10 19  1  0  0  0  0
 10 11  1  0  0  0  0
 10 30  1  0  0  0  0
 11 12  1  0  0  0  0
 11 31  1  0  0  0  0
 11 32  1  0  0  0  0
 12 13  1  0  0  0  0
 12 33  1  0  0  0  0
 12 34  1  0  0  0  0
 13 14  1  0  0  0  0
 13 18  1  0  0  0  0
 13 49  1  0  0  0  0
 14 15  1  0  0  0  0
 14 35  1  0  0  0  0
 14 36  1  0  0  0  0
 15 16  1  0  0  0  0
 15 17  1  0  0  0  0
 15 37  1  0  0  0  0
 16 38  1  0  0  0  0
 16 39  1  0  0  0  0
 16 40  1  0  0  0  0
 17 41  1  0  0  0  0
 17 42  1  0  0  0  0
 17 43  1  0  0  0  0
 18 19  1  0  0  0  0
 18 44  1  0  0  0  0
 18 45  1  0  0  0  0
 19 46  1  0  0  0  0
 19 47  1  0  0  0  0
 20 21  2  0  0  0  0
 20 48  1  0  0  0  0
M  CHG  1  13   1
M  END
> <s_m_source_file>
AV-unprocessed.smi

> <i_m_source_file_index>
1483

> <i_lp_mmshare_version>
43012

> <i_f3d_flags>
0

> <s_epik_input>
W0NIM11jMVtjSF1bY0hdYyhbY0hdbjEpW0NIMl1DKD1PKVtOSF1bQ0hdMltDSDJdW0NIMl1OKFtDSDJdW0NIMl0yKVtDSDJdW0NIXShbQ0gzXSlbQ0gzXQ==

> <s_epik_cmdline>
J2VwaWtfcHl0aG9uJywgJy1waCcsICc3LjAnLCAnLXRuJywgJzgnLCAnLW1hJywgJzIwMCcsICctbWV0YWxfYmluZGluZycsICctaW1hZScsICc8aW5maWxlLm1hZT4nLCAnLW9tYWUnLCAnPG91dGZpbGUubWFlPic=

> <r_epik_Ionization_Penalty>
0.0186701

> <r_epik_Ionization_Penalty_Charging>
0.00405837

> <r_epik_Ionization_Penalty_Neutral>
0.0146117

> <r_epik_State_Penalty>
0.0114383

> <r_epik_Charging_Adjusted_Penalty>
0.0154967

> <i_epik_Tot_Q>
1

> <i_epik_Tot_abs_Q>
1

> <r_epik_Metal_State_Penalty>
0.0111573

> <b_epik_Metal_Only>
0

> <s_lp_Force_Field>
OPLS_2005

> <r_lp_Energy>
15.6664

> <b_lp_Chiralities_Consistent>
1

> <s_lp_Variant>
AV-unprocessed.smi:1483-2

> <Gold.Version>
5.8.1

> <Gold.Id.Protein>
6NUR|6NUR_protein|mol2

> <Gold.PLP.Fitness>
52.0194

> <Gold.PLP.PLP>
-45.1429

> <Gold.PLP.part.hbond>
-2.0000

> <Gold.PLP.part.metal>
0.0000

> <Gold.PLP.part.buried>
-5.0791

> <Gold.PLP.part.nonpolar>
-37.8617

> <Gold.PLP.part.repulsive>
0.2400

> <Gold.PLP.ligand.clash>
0.0000

> <Gold.PLP.ligand.torsion>
1.1210

> <Gold.PLP.Chemscore.Hbond>
3.0000

> <Gold.PLP.Chemscore.CHOScore>
0.0000

> <Gold.PLP.Chemscore.Metal>
0.0000

> <Gold.Chemscore.Hbonds>
donor molecule, donor type, donor heavy atom, donor atom, acceptor molecule, acceptor atom, score
      L1  H    13    49       P1  7948  2.00
      P1  H  7997  8010       L1     8  1.00

> <Gold.PLP.Chemscore.Internal.Correction>
0.1185

> <Gold.Rescore>
     Score         DG    S(hbond)    S(metal)    S(lipo)     H(rot)  DE(clash)    DE(int)     intcor
     19.92     -22.45       1.99        0.00     120.43       1.47       0.03       2.50       ----

> <Gold.Chemscore.Fitness>
19.9194

> <Gold.Chemscore.DG>
-22.4514

> <Gold.Chemscore.ZeroCoef>
-5.4800

> <Gold.Chemscore.Hbond>
1.9910

> <Gold.Chemscore.Metal>
0.0000

> <Gold.Chemscore.Lipo>
120.4314

> <Gold.Chemscore.Internal_Hbond>
0.0000

> <Gold.Chemscore.DEClash>
0.0299

> <Gold.Chemscore.DEInternal>
2.5021

> <Gold.Chemscore.Rot>
1.4723

> <Gold.Chemscore.Internal.Correction>
   9.000000E+99

> <Gold.Chemscore.Hbonds>
donor molecule, donor type, donor heavy atom, donor atom, acceptor molecule, acceptor atom, score
      L1  H    13    49       P1  7948  0.78
      P1  H  7997  8010       L1     8  0.99

> <Gold.Chemscore.Hbond.Weighted>
-6.6501

> <Gold.Chemscore.Metal.Weighted>
-0.0000

> <Gold.Chemscore.Lipo.Weighted>
-14.0905

> <Gold.Chemscore.Internal_Hbond.Weighted>
0.0000

> <Gold.Chemscore.DEClash.Weighted>
0.0299

> <Gold.Chemscore.DEInternal.Weighted>
2.5021

> <Gold.Chemscore.Rot.Weighted>
3.7691

> <Gold.Chemscore.Internal.Correction.Weighted>
   9.000000E+99

> <Gold.Protein.RotatedTorsions>
[ 6907 6896 6895 6894 ] final  151.98 input  -60.11 | X-H torsion
[ 7974 7965 7964 7962 ] final  -73.22 input  175.53 | X-H torsion
[ 8008 7997 7996 7995 ] final   84.88 input   59.86 | X-H torsion
[ 10167 10162 10161 10158 ] final   48.60 input  -65.29 | X-H torsion
[ 10718 10713 10712 10709 ] final    1.20 input   66.30 | X-H torsion
[ 10763 10752 10751 10750 ] final   46.81 input  -60.55 | X-H torsion
[ 11005 11000 10999 10996 ] final -142.52 input  -57.11 | X-H torsion

> <Gold.Protein.ActiveResidues>
 VAL166  LYS551  ARG553  GLY616  TRP617  ASP618  TYR619  PRO620  LYS621  CYS622 
 ASP623  PHE694  ASN695  SER759  ASP760  ASP761  ALA762  ILE779  LEU786  VAL792 
 PHE793  MET794  SER795  GLU796  ALA797  LYS798  CYS799  TRP800  GLU811  SER814 

> <Gold.Protein.RotatedAtoms>
  152.0931  133.4210  159.4552 H   0  0  0  0  0  0  0  0  0  0  0  0  # atno 6907 bound_to 6896
  150.6863  134.2848  159.4651 H   0  0  0  0  0  0  0  0  0  0  0  0  # atno 6908 bound_to 6896
  152.0702  134.9538  160.0625 H   0  0  0  0  0  0  0  0  0  0  0  0  # atno 6909 bound_to 6896
  145.6550  140.9270  143.0964 H   0  0  0  0  0  0  0  0  0  0  0  0  # atno 7974 bound_to 7965
  155.9428  140.3407  155.6342 H   0  0  0  0  0  0  0  0  0  0  0  0  # atno 8008 bound_to 7997
  155.7018  140.0761  157.2425 H   0  0  0  0  0  0  0  0  0  0  0  0  # atno 8009 bound_to 7997
  154.4106  140.1638  156.2187 H   0  0  0  0  0  0  0  0  0  0  0  0  # atno 8010 bound_to 7997
  140.2916  144.3040  150.6239 H   0  0  0  0  0  0  0  0  0  0  0  0  # atno 10167 bound_to 10162
  156.8446  130.5533  149.5674 H   0  0  0  0  0  0  0  0  0  0  0  0  # atno 10718 bound_to 10713
  152.9806  135.5996  154.3660 H   0  0  0  0  0  0  0  0  0  0  0  0  # atno 10763 bound_to 10752
  154.3337  135.2768  155.2460 H   0  0  0  0  0  0  0  0  0  0  0  0  # atno 10764 bound_to 10752
  154.4572  135.5975  153.6287 H   0  0  0  0  0  0  0  0  0  0  0  0  # atno 10765 bound_to 10752
  140.8216  134.2624  157.4897 H   0  0  0  0  0  0  0  0  0  0  0  0  # atno 11005 bound_to 11000
  144.7109  139.8376  143.7415 LP  0  0  0  0  0  0  0  0  0  0  0  0  # atno 17320 bound_to 7965
  146.1172  139.4185  143.0251 LP  0  0  0  0  0  0  0  0  0  0  0  0  # atno 17321 bound_to 7965
  140.5728  143.2179  151.7569 LP  0  0  0  0  0  0  0  0  0  0  0  0  # atno 17342 bound_to 10162
  139.4937  144.4193  151.9995 LP  0  0  0  0  0  0  0  0  0  0  0  0  # atno 17343 bound_to 10162
  156.0861  130.5859  150.9651 LP  0  0  0  0  0  0  0  0  0  0  0  0  # atno 17370 bound_to 10713
  157.6337  131.0918  150.8392 LP  0  0  0  0  0  0  0  0  0  0  0  0  # atno 17371 bound_to 10713
  139.8708  134.9538  156.4158 LP  0  0  0  0  0  0  0  0  0  0  0  0  # atno 17394 bound_to 11000
  140.9092  133.7723  155.9772 LP  0  0  0  0  0  0  0  0  0  0  0  0  # atno 17395 bound_to 11000

$$$$
