AV-unprocessed.smi:3097|AV-procd|sdf|11798|dock5
  -GOLD-   2272017173D 1   1.00000     0.00000
 Structure written by MMmdl.
 35 35  0  0  0  0  0  0  0  0  2 V2000
  140.2368  137.6854  153.1728 C   0  0  0  0  0  0  0  0  0  0  0  0
  141.6830  138.1933  153.1119 C   0  0  0  0  0  0  0  0  0  0  0  0
  142.7094  137.0714  152.8946 C   0  0  0  0  0  0  0  0  0  0  0  0
  144.0387  137.6046  152.5614 N   0  0  0  0  0  0  0  0  0  0  0  0
  145.1793  136.8939  152.4577 C   0  0  0  0  0  0  0  0  0  0  0  0
  146.3371  137.5212  152.1719 N   0  3  0  0  0  0  0  0  0  0  0  0
  146.4956  138.9636  151.9500 C   0  0  0  0  0  0  0  0  0  0  0  0
  145.1652  135.5591  152.6409 N   0  0  0  0  0  0  0  0  0  0  0  0
  146.3324  134.6710  152.5664 C   0  0  0  0  0  0  0  0  0  0  0  0
  146.4790  134.0643  151.1648 C   0  0  0  0  0  0  0  0  0  0  0  0
  145.4477  133.0808  150.8985 N   0  0  0  0  0  0  0  0  0  0  0  0
  145.5723  131.7111  150.7958 C   0  0  0  0  0  0  0  0  0  0  0  0
  144.3293  131.2089  150.5362 C   0  0  0  0  0  0  0  0  0  0  0  0
  143.4994  132.3642  150.4955 C   0  0  0  0  0  0  0  0  0  0  0  0
  144.1717  133.4832  150.7140 N   0  0  0  0  0  0  0  0  0  0  0  0
  139.5446  138.5092  153.3483 H   0  0  0  0  0  0  0  0  0  0  0  0
  140.1063  136.9641  153.9802 H   0  0  0  0  0  0  0  0  0  0  0  0
  139.9453  137.2020  152.2401 H   0  0  0  0  0  0  0  0  0  0  0  0
  141.7727  138.9371  152.3194 H   0  0  0  0  0  0  0  0  0  0  0  0
  141.9176  138.7137  154.0410 H   0  0  0  0  0  0  0  0  0  0  0  0
  142.7884  136.4537  153.7896 H   0  0  0  0  0  0  0  0  0  0  0  0
  142.3804  136.4124  152.0907 H   0  0  0  0  0  0  0  0  0  0  0  0
  144.0969  138.6065  152.4466 H   0  0  0  0  0  0  0  0  0  0  0  0
  147.5406  139.2009  151.7513 H   0  0  0  0  0  0  0  0  0  0  0  0
  146.1757  139.5222  152.8297 H   0  0  0  0  0  0  0  0  0  0  0  0
  145.9000  139.2852  151.0955 H   0  0  0  0  0  0  0  0  0  0  0  0
  144.2832  135.1210  152.8651 H   0  0  0  0  0  0  0  0  0  0  0  0
  147.2274  135.2384  152.8239 H   0  0  0  0  0  0  0  0  0  0  0  0
  146.2221  133.8829  153.3120 H   0  0  0  0  0  0  0  0  0  0  0  0
  146.4231  134.8424  150.4017 H   0  0  0  0  0  0  0  0  0  0  0  0
  147.4528  133.5842  151.0583 H   0  0  0  0  0  0  0  0  0  0  0  0
  146.5232  131.2126  150.9150 H   0  0  0  0  0  0  0  0  0  0  0  0
  144.0546  130.1740  150.3954 H   0  0  0  0  0  0  0  0  0  0  0  0
  142.4358  132.4226  150.3165 H   0  0  0  0  0  0  0  0  0  0  0  0
  147.1763  136.9631  152.1037 H   0  0  0  0  0  0  0  0  0  0  0  0
  1  2  1  0  0  0  0
  1 16  1  0  0  0  0
  1 17  1  0  0  0  0
  1 18  1  0  0  0  0
  2  3  1  0  0  0  0
  2 19  1  0  0  0  0
  2 20  1  0  0  0  0
  3  4  1  0  0  0  0
  3 21  1  0  0  0  0
  3 22  1  0  0  0  0
  4  5  1  0  0  0  0
  4 23  1  0  0  0  0
  5  6  2  0  0  0  0
  5  8  1  0  0  0  0
  6  7  1  0  0  0  0
  6 35  1  0  0  0  0
  7 24  1  0  0  0  0
  7 25  1  0  0  0  0
  7 26  1  0  0  0  0
  8  9  1  0  0  0  0
  8 27  1  0  0  0  0
  9 10  1  0  0  0  0
  9 28  1  0  0  0  0
  9 29  1  0  0  0  0
 10 11  1  0  0  0  0
 10 30  1  0  0  0  0
 10 31  1  0  0  0  0
 11 15  1  0  0  0  0
 11 12  1  0  0  0  0
 12 13  2  0  0  0  0
 12 32  1  0  0  0  0
 13 14  1  0  0  0  0
 13 33  1  0  0  0  0
 14 15  2  0  0  0  0
 14 34  1  0  0  0  0
M  CHG  1   6   1
M  END
> <s_m_source_file>
AV-unprocessed.smi

> <i_m_source_file_index>
3097

> <i_lp_mmshare_version>
43012

> <i_f3d_flags>
0

> <s_epik_input>
W0NIM11bQ0gyXVtDSDJdW05IXS9DKD1OXFtDSDNdKVtOSF1bQ0gyXVtDSDJdbjFbY0hdW2NIXVtjSF1uMQ==

> <s_epik_cmdline>
J2VwaWtfcHl0aG9uJywgJy1waCcsICc3LjAnLCAnLXRuJywgJzgnLCAnLW1hJywgJzIwMCcsICctbWV0YWxfYmluZGluZycsICctaW1hZScsICc8aW5maWxlLm1hZT4nLCAnLW9tYWUnLCAnPG91dGZpbGUubWFlPic=

> <r_lp_tautomer_probability>
1

> <r_epik_Ionization_Penalty>
4.40305e-05

> <r_epik_Ionization_Penalty_Charging>
1.64417e-07

> <r_epik_Ionization_Penalty_Neutral>
4.38661e-05

> <r_epik_State_Penalty>
-0

> <r_epik_Charging_Adjusted_Penalty>
1.64417e-07

> <i_epik_Tot_Q>
1

> <i_epik_Tot_abs_Q>
1

> <r_epik_Metal_State_Penalty>
-0

> <b_epik_Metal_Only>
0

> <s_epik_Chemistry_Notes>
This compound has an imine and may undergo hydrolysis.

> <s_lp_Force_Field>
OPLS_2005

> <r_lp_Energy>
7.72145

> <b_lp_Chiralities_Consistent>
1

> <s_lp_Variant>
AV-unprocessed.smi:3097-1

> <Gold.Version>
5.8.1

> <Gold.Id.Protein>
6NUR|6NUR_protein|mol2

> <Gold.PLP.Fitness>
46.3091

> <Gold.PLP.PLP>
-27.6928

> <Gold.PLP.part.hbond>
-3.0000

> <Gold.PLP.part.metal>
0.0000

> <Gold.PLP.part.buried>
-0.8081

> <Gold.PLP.part.nonpolar>
-23.6113

> <Gold.PLP.part.repulsive>
0.2457

> <Gold.PLP.ligand.clash>
0.0000

> <Gold.PLP.ligand.torsion>
0.3811

> <Gold.PLP.Chemscore.Hbond>
4.0000

> <Gold.PLP.Chemscore.CHOScore>
2.4526

> <Gold.PLP.Chemscore.Metal>
0.0000

> <Gold.Chemscore.Hbonds>
donor molecule, donor type, donor heavy atom, donor atom, acceptor molecule, acceptor atom, score
      L1  H     4    23       P1 10175  2.00
      L1  H     6    35       P1  7948  2.00
      L1  C    12    32       P1 10747  0.94
      L1  C    14    34       P1 10186  0.91
      L1  C    14    34       P1 10952  0.48

> <Gold.PLP.Chemscore.Internal.Correction>
0.0208

> <Gold.Rescore>
     Score         DG    S(hbond)    S(metal)    S(lipo)     H(rot)  DE(clash)    DE(int)     intcor
     13.42     -14.89       1.98        0.00      64.51       1.86       0.92       0.56       ----

> <Gold.Chemscore.Fitness>
13.4154

> <Gold.Chemscore.DG>
-14.8948

> <Gold.Chemscore.ZeroCoef>
-5.4800

> <Gold.Chemscore.Hbond>
1.9818

> <Gold.Chemscore.Metal>
0.0000

> <Gold.Chemscore.Lipo>
64.5070

> <Gold.Chemscore.Internal_Hbond>
0.0000

> <Gold.Chemscore.DEClash>
0.9234

> <Gold.Chemscore.DEInternal>
0.5560

> <Gold.Chemscore.Rot>
1.8561

> <Gold.Chemscore.Internal.Correction>
   9.000000E+99

> <Gold.Chemscore.Hbonds>
donor molecule, donor type, donor heavy atom, donor atom, acceptor molecule, acceptor atom, score
      L1  H     4    23       P1 10175  1.00
      L1  H     6    35       P1  7948  1.00

> <Gold.Chemscore.Hbond.Weighted>
-6.6193

> <Gold.Chemscore.Metal.Weighted>
-0.0000

> <Gold.Chemscore.Lipo.Weighted>
-7.5473

> <Gold.Chemscore.Internal_Hbond.Weighted>
0.0000

> <Gold.Chemscore.DEClash.Weighted>
0.9234

> <Gold.Chemscore.DEInternal.Weighted>
0.5560

> <Gold.Chemscore.Rot.Weighted>
4.7517

> <Gold.Chemscore.Internal.Correction.Weighted>
   9.000000E+99

> <Gold.Protein.RotatedTorsions>
[ 6907 6896 6895 6894 ] final -171.57 input  -60.11 | X-H torsion
[ 7974 7965 7964 7962 ] final  149.55 input  175.53 | X-H torsion
[ 8008 7997 7996 7995 ] final  100.44 input   59.86 | X-H torsion
[ 10167 10162 10161 10158 ] final   58.65 input  -65.29 | X-H torsion
[ 10718 10713 10712 10709 ] final   48.45 input   66.30 | X-H torsion
[ 10763 10752 10751 10750 ] final  -17.20 input  -60.55 | X-H torsion
[ 11005 11000 10999 10996 ] final  168.25 input  -57.11 | X-H torsion

> <Gold.Protein.ActiveResidues>
 VAL166  LYS551  ARG553  GLY616  TRP617  ASP618  TYR619  PRO620  LYS621  CYS622 
 ASP623  PHE694  ASN695  SER759  ASP760  ASP761  ALA762  ILE779  LEU786  VAL792 
 PHE793  MET794  SER795  GLU796  ALA797  LYS798  CYS799  TRP800  GLU811  SER814 

> <Gold.Protein.RotatedAtoms>
  151.5259  133.3458  159.2909 H   0  0  0  0  0  0  0  0  0  0  0  0  # atno 6907 bound_to 6896
  150.8623  134.7980  159.7103 H   0  0  0  0  0  0  0  0  0  0  0  0  # atno 6908 bound_to 6896
  152.4639  134.5130  159.9811 H   0  0  0  0  0  0  0  0  0  0  0  0  # atno 6909 bound_to 6896
  144.8430  139.6295  143.6008 H   0  0  0  0  0  0  0  0  0  0  0  0  # atno 7974 bound_to 7965
  156.1204  140.3213  155.8200 H   0  0  0  0  0  0  0  0  0  0  0  0  # atno 8008 bound_to 7997
  155.4515  140.0532  157.3018 H   0  0  0  0  0  0  0  0  0  0  0  0  # atno 8009 bound_to 7997
  154.4823  140.2058  155.9749 H   0  0  0  0  0  0  0  0  0  0  0  0  # atno 8010 bound_to 7997
  140.1849  144.4145  150.6598 H   0  0  0  0  0  0  0  0  0  0  0  0  # atno 10167 bound_to 10162
  157.4688  130.8242  149.7965 H   0  0  0  0  0  0  0  0  0  0  0  0  # atno 10718 bound_to 10713
  153.5703  135.7007  153.5508 H   0  0  0  0  0  0  0  0  0  0  0  0  # atno 10763 bound_to 10752
  153.3350  135.4036  155.1526 H   0  0  0  0  0  0  0  0  0  0  0  0  # atno 10764 bound_to 10752
  154.8634  135.3728  154.5225 H   0  0  0  0  0  0  0  0  0  0  0  0  # atno 10765 bound_to 10752
  140.2853  134.7717  157.3793 H   0  0  0  0  0  0  0  0  0  0  0  0  # atno 11005 bound_to 11000
  146.2719  139.6656  142.9290 LP  0  0  0  0  0  0  0  0  0  0  0  0  # atno 17320 bound_to 7965
  145.4655  141.0434  143.2727 LP  0  0  0  0  0  0  0  0  0  0  0  0  # atno 17321 bound_to 7965
  140.6495  143.2221  151.6110 LP  0  0  0  0  0  0  0  0  0  0  0  0  # atno 17342 bound_to 10162
  139.5280  144.3000  152.1081 LP  0  0  0  0  0  0  0  0  0  0  0  0  # atno 17343 bound_to 10162
  156.0063  130.3854  150.2419 LP  0  0  0  0  0  0  0  0  0  0  0  0  # atno 17370 bound_to 10713
  157.0600  131.0087  151.3225 LP  0  0  0  0  0  0  0  0  0  0  0  0  # atno 17371 bound_to 10713
  140.1245  134.5176  155.8156 LP  0  0  0  0  0  0  0  0  0  0  0  0  # atno 17394 bound_to 11000
  141.2156  133.6768  156.6927 LP  0  0  0  0  0  0  0  0  0  0  0  0  # atno 17395 bound_to 11000

$$$$
