AV-unprocessed.smi:2446|AV-procd|sdf|9645|dock2
  -GOLD-   2272013283D 1   1.00000     0.00000
 Structure written by MMmdl.
 40 41  0  0  0  0  0  0  0  0  2 V2000
  151.5282  144.9134  158.5543 C   0  0  0  0  0  0  0  0  0  0  0  0
  152.0672  143.5714  159.0197 C   0  0  0  0  0  0  0  0  0  0  0  0
  153.1870  143.5330  159.8787 C   0  0  0  0  0  0  0  0  0  0  0  0
  153.6750  142.3488  160.3039 N   0  3  0  0  0  0  0  0  0  0  0  0
  153.1324  141.1661  159.9478 C   0  0  0  0  0  0  0  0  0  0  0  0
  152.0132  141.1351  159.0924 C   0  0  0  0  0  0  0  0  0  0  0  0
  151.4726  142.3523  158.6040 C   0  0  0  0  0  0  0  0  0  0  0  0
  150.3359  142.4112  157.7495 N   0  0  0  0  0  0  0  0  0  0  0  0
  149.5148  141.4173  157.3576 C   0  0  0  0  0  0  0  0  0  0  0  0
  149.6032  140.2489  157.7278 O   0  0  0  0  0  0  0  0  0  0  0  0
  148.5600  141.8009  156.4904 N   0  0  0  0  0  0  0  0  0  0  0  0
  147.5089  140.9904  155.8652 C   0  0  2  0  0  0  0  0  0  0  0  0
  147.7491  140.8926  154.3466 C   0  0  0  0  0  0  0  0  0  0  0  0
  147.4821  142.2265  153.6288 C   0  0  0  0  0  0  0  0  0  0  0  0
  146.0717  142.7548  153.9334 C   0  0  0  0  0  0  0  0  0  0  0  0
  145.8335  142.9015  155.4507 C   0  0  1  0  0  0  0  0  0  0  0  0
  144.4267  143.4499  155.7663 C   0  0  0  0  0  0  0  0  0  0  0  0
  143.4926  142.5308  155.5200 F   0  0  0  0  0  0  0  0  0  0  0  0
  144.3542  143.8053  157.0492 F   0  0  0  0  0  0  0  0  0  0  0  0
  144.1786  144.5275  155.0221 F   0  0  0  0  0  0  0  0  0  0  0  0
  146.1009  141.5552  156.1612 C   0  0  0  0  0  0  0  0  0  0  0  0
  152.0794  145.7393  159.0049 H   0  0  0  0  0  0  0  0  0  0  0  0
  150.4782  145.0205  158.8288 H   0  0  0  0  0  0  0  0  0  0  0  0
  151.6138  145.0027  157.4711 H   0  0  0  0  0  0  0  0  0  0  0  0
  153.7051  144.4099  160.2393 H   0  0  0  0  0  0  0  0  0  0  0  0
  153.6028  140.2849  160.3593 H   0  0  0  0  0  0  0  0  0  0  0  0
  151.5855  140.1774  158.8395 H   0  0  0  0  0  0  0  0  0  0  0  0
  150.1758  143.3055  157.3092 H   0  0  0  0  0  0  0  0  0  0  0  0
  148.5521  142.7807  156.2449 H   0  0  0  0  0  0  0  0  0  0  0  0
  147.5708  139.9768  156.2650 H   0  0  0  0  0  0  0  0  0  0  0  0
  148.7670  140.5563  154.1448 H   0  0  0  0  0  0  0  0  0  0  0  0
  147.0913  140.1287  153.9299 H   0  0  0  0  0  0  0  0  0  0  0  0
  148.2233  142.9663  153.9334 H   0  0  0  0  0  0  0  0  0  0  0  0
  147.6040  142.0968  152.5530 H   0  0  0  0  0  0  0  0  0  0  0  0
  145.9329  143.7159  153.4373 H   0  0  0  0  0  0  0  0  0  0  0  0
  145.3305  142.0784  153.5056 H   0  0  0  0  0  0  0  0  0  0  0  0
  146.5529  143.6293  155.8292 H   0  0  0  0  0  0  0  0  0  0  0  0
  145.3565  140.8269  155.8376 H   0  0  0  0  0  0  0  0  0  0  0  0
  145.9586  141.6658  157.2361 H   0  0  0  0  0  0  0  0  0  0  0  0
  154.4845  142.3480  160.9251 H   0  0  0  0  0  0  0  0  0  0  0  0
  1  2  1  0  0  0  0
  1 22  1  0  0  0  0
  1 23  1  0  0  0  0
  1 24  1  0  0  0  0
  2  7  1  0  0  0  0
  2  3  2  0  0  0  0
  3  4  1  0  0  0  0
  3 25  1  0  0  0  0
  4  5  2  0  0  0  0
  4 40  1  0  0  0  0
  5  6  1  0  0  0  0
  5 26  1  0  0  0  0
  6  7  2  0  0  0  0
  6 27  1  0  0  0  0
  7  8  1  0  0  0  0
  8  9  1  0  0  0  0
  8 28  1  0  0  0  0
  9 10  2  0  0  0  0
  9 11  1  0  0  0  0
 11 12  1  0  0  0  0
 11 29  1  0  0  0  0
 12 21  1  0  0  0  0
 12 13  1  0  0  0  0
 12 30  1  0  0  0  0
 13 14  1  0  0  0  0
 13 31  1  0  0  0  0
 13 32  1  0  0  0  0
 14 15  1  0  0  0  0
 14 33  1  0  0  0  0
 14 34  1  0  0  0  0
 15 16  1  0  0  0  0
 15 35  1  0  0  0  0
 15 36  1  0  0  0  0
 16 17  1  0  0  0  0
 16 21  1  0  0  0  0
 16 37  1  0  0  0  0
 17 18  1  0  0  0  0
 17 19  1  0  0  0  0
 17 20  1  0  0  0  0
 21 38  1  0  0  0  0
 21 39  1  0  0  0  0
M  CHG  1   4   1
M  END
> <s_m_source_file>
AV-unprocessed.smi

> <i_m_source_file_index>
2446

> <i_lp_mmshare_version>
43012

> <i_f3d_flags>
0

> <s_epik_input>
W0NIM11jMVtjSF1uW2NIXVtjSF1jMVtOSF1DKD1PKVtOSF1bQ0BASF0yW0NIMl1bQ0gyXVtDSDJdW0NAQEhdKEMoRikoRilGKVtDSDJdMg==

> <s_epik_cmdline>
J2VwaWtfcHl0aG9uJywgJy1waCcsICc3LjAnLCAnLXRuJywgJzgnLCAnLW1hJywgJzIwMCcsICctbWV0YWxfYmluZGluZycsICctaW1hZScsICc8aW5maWxlLm1hZT4nLCAnLW9tYWUnLCAnPG91dGZpbGUubWFlPic=

> <r_epik_Ionization_Penalty>
0.736582

> <r_epik_Ionization_Penalty_Charging>
0.736562

> <r_epik_Ionization_Penalty_Neutral>
1.98379e-05

> <r_epik_State_Penalty>
0.762314

> <r_epik_Charging_Adjusted_Penalty>
1.49888

> <i_epik_Tot_Q>
1

> <i_epik_Tot_abs_Q>
1

> <r_epik_Metal_State_Penalty>
0.914579

> <b_epik_Metal_Only>
0

> <s_lp_Force_Field>
OPLS_2005

> <r_lp_Energy>
31.0639

> <b_lp_Chiralities_Consistent>
1

> <s_lp_Variant>
AV-unprocessed.smi:2446-5

> <Gold.Version>
5.8.1

> <Gold.Id.Protein>
6NUR|6NUR_protein|mol2

> <Gold.PLP.Fitness>
39.9555

> <Gold.PLP.PLP>
-37.2985

> <Gold.PLP.part.hbond>
-1.0000

> <Gold.PLP.part.metal>
0.0000

> <Gold.PLP.part.buried>
-7.2733

> <Gold.PLP.part.nonpolar>
-28.9392

> <Gold.PLP.part.repulsive>
0.0797

> <Gold.PLP.ligand.clash>
0.0000

> <Gold.PLP.ligand.torsion>
0.1824

> <Gold.PLP.Chemscore.Hbond>
1.0000

> <Gold.PLP.Chemscore.CHOScore>
0.0000

> <Gold.PLP.Chemscore.Metal>
0.0000

> <Gold.Chemscore.Hbonds>
donor molecule, donor type, donor heavy atom, donor atom, acceptor molecule, acceptor atom, score
      L1  H    11    29       P1  8028  0.96

> <Gold.PLP.Chemscore.Internal.Correction>
0.0217

> <Gold.Rescore>
     Score         DG    S(hbond)    S(metal)    S(lipo)     H(rot)  DE(clash)    DE(int)     intcor
     15.56     -17.72       1.04        0.00      96.76       1.00       0.42       1.74       ----

> <Gold.Chemscore.Fitness>
15.5573

> <Gold.Chemscore.DG>
-17.7203

> <Gold.Chemscore.ZeroCoef>
-5.4800

> <Gold.Chemscore.Hbond>
1.0417

> <Gold.Chemscore.Metal>
0.0000

> <Gold.Chemscore.Lipo>
96.7616

> <Gold.Chemscore.Internal_Hbond>
0.0000

> <Gold.Chemscore.DEClash>
0.4212

> <Gold.Chemscore.DEInternal>
1.7418

> <Gold.Chemscore.Rot>
1.0000

> <Gold.Chemscore.Internal.Correction>
   9.000000E+99

> <Gold.Chemscore.Hbonds>
donor molecule, donor type, donor heavy atom, donor atom, acceptor molecule, acceptor atom, score
      L1  H     8    28       P1  8028  0.01
      L1  H    11    29       P1  8028  0.88

> <Gold.Chemscore.Hbond.Weighted>
-3.4792

> <Gold.Chemscore.Metal.Weighted>
-0.0000

> <Gold.Chemscore.Lipo.Weighted>
-11.3211

> <Gold.Chemscore.Internal_Hbond.Weighted>
0.0000

> <Gold.Chemscore.DEClash.Weighted>
0.4212

> <Gold.Chemscore.DEInternal.Weighted>
1.7418

> <Gold.Chemscore.Rot.Weighted>
2.5600

> <Gold.Chemscore.Internal.Correction.Weighted>
   9.000000E+99

> <Gold.Protein.RotatedTorsions>
[ 6907 6896 6895 6894 ] final  113.03 input  -60.11 | X-H torsion
[ 7974 7965 7964 7962 ] final -147.01 input  175.53 | X-H torsion
[ 8008 7997 7996 7995 ] final   19.98 input   59.86 | X-H torsion
[ 10167 10162 10161 10158 ] final  133.00 input  -65.29 | X-H torsion
[ 10718 10713 10712 10709 ] final  -54.84 input   66.30 | X-H torsion
[ 10763 10752 10751 10750 ] final  107.75 input  -60.55 | X-H torsion
[ 11005 11000 10999 10996 ] final  167.39 input  -57.11 | X-H torsion

> <Gold.Protein.ActiveResidues>
 VAL166  LYS551  ARG553  GLY616  TRP617  ASP618  TYR619  PRO620  LYS621  CYS622 
 ASP623  PHE694  ASN695  SER759  ASP760  ASP761  ALA762  ILE779  LEU786  VAL792 
 PHE793  MET794  SER795  GLU796  ALA797  LYS798  CYS799  TRP800  GLU811  SER814 

> <Gold.Protein.RotatedAtoms>
  152.4884  133.8433  159.7163 H   0  0  0  0  0  0  0  0  0  0  0  0  # atno 6907 bound_to 6896
  150.8990  133.7134  159.2890 H   0  0  0  0  0  0  0  0  0  0  0  0  # atno 6908 bound_to 6896
  151.4581  135.1040  159.9769 H   0  0  0  0  0  0  0  0  0  0  0  0  # atno 6909 bound_to 6896
  144.8121  140.5382  143.5635 H   0  0  0  0  0  0  0  0  0  0  0  0  # atno 7974 bound_to 7965
  154.9288  140.3037  155.5178 H   0  0  0  0  0  0  0  0  0  0  0  0  # atno 8008 bound_to 7997
  156.3005  140.2358  156.4282 H   0  0  0  0  0  0  0  0  0  0  0  0  # atno 8009 bound_to 7997
  154.8258  140.0421  157.1431 H   0  0  0  0  0  0  0  0  0  0  0  0  # atno 8010 bound_to 7997
  139.5315  144.6636  151.4932 H   0  0  0  0  0  0  0  0  0  0  0  0  # atno 10167 bound_to 10162
  156.1417  130.4154  150.0091 H   0  0  0  0  0  0  0  0  0  0  0  0  # atno 10718 bound_to 10713
  153.4110  135.3834  155.2050 H   0  0  0  0  0  0  0  0  0  0  0  0  # atno 10763 bound_to 10752
  154.8737  135.3794  154.4501 H   0  0  0  0  0  0  0  0  0  0  0  0  # atno 10764 bound_to 10752
  153.5009  135.7088  153.5894 H   0  0  0  0  0  0  0  0  0  0  0  0  # atno 10765 bound_to 10752
  140.2763  134.7787  157.3719 H   0  0  0  0  0  0  0  0  0  0  0  0  # atno 11005 bound_to 11000
  145.5299  139.1475  143.3505 LP  0  0  0  0  0  0  0  0  0  0  0  0  # atno 17320 bound_to 7965
  146.2421  140.5439  142.8929 LP  0  0  0  0  0  0  0  0  0  0  0  0  # atno 17321 bound_to 7965
  140.6497  143.8722  150.6773 LP  0  0  0  0  0  0  0  0  0  0  0  0  # atno 17342 bound_to 10162
  140.2083  143.3904  152.1738 LP  0  0  0  0  0  0  0  0  0  0  0  0  # atno 17343 bound_to 10162
  156.7975  130.9278  151.3646 LP  0  0  0  0  0  0  0  0  0  0  0  0  # atno 17370 bound_to 10713
  157.6582  130.8942  149.9773 LP  0  0  0  0  0  0  0  0  0  0  0  0  # atno 17371 bound_to 10713
  140.1326  134.5076  155.8094 LP  0  0  0  0  0  0  0  0  0  0  0  0  # atno 17394 bound_to 11000
  141.2170  133.6795  156.7066 LP  0  0  0  0  0  0  0  0  0  0  0  0  # atno 17395 bound_to 11000

$$$$
