AV-unprocessed.smi:3231|AV-procd|sdf|12336|dock9
  -GOLD-   2272018193D 1   1.00000     0.00000
 Structure written by MMmdl.
 42 43  0  0  0  0  0  0  0  0  3 V2000
  147.4635  138.0808  151.2341 O   0  0  0  0  0  0  0  0  0  0  0  0
  146.4740  138.7437  151.9954 C   0  0  1  0  0  0  0  0  0  0  0  0
  145.6273  137.6577  152.6860 C   0  0  0  0  0  0  0  0  0  0  0  0
  146.4460  136.4956  153.0872 N   0  3  0  0  0  0  0  0  0  0  0  0
  145.6887  135.2320  153.1738 C   0  0  0  0  0  0  0  0  0  0  0  0
  144.7402  135.0749  151.9767 C   0  0  0  0  0  0  0  0  0  0  0  0
  144.9670  133.8281  151.2726 N   0  0  0  0  0  0  0  0  0  0  0  0
  144.2058  133.2521  150.2772 C   0  0  0  0  0  0  0  0  0  0  0  0
  144.8152  132.0815  149.9273 C   0  0  0  0  0  0  0  0  0  0  0  0
  145.9551  132.0257  150.7770 C   0  0  0  0  0  0  0  0  0  0  0  0
  146.0425  133.0727  151.5817 N   0  0  0  0  0  0  0  0  0  0  0  0
  147.1723  139.6796  153.0076 C   0  0  0  0  0  0  0  0  0  0  0  0
  146.2472  140.6479  153.6530 N   0  3  0  0  0  0  0  0  0  0  0  0
  145.8243  140.2523  155.0200 C   0  0  0  0  0  0  0  0  0  0  0  0
  144.8546  141.2925  155.6078 C   0  0  0  0  0  0  0  0  0  0  0  0
  145.4709  142.5736  155.6076 O   0  0  0  0  0  0  0  0  0  0  0  0
  145.7947  143.0065  154.2929 C   0  0  0  0  0  0  0  0  0  0  0  0
  146.7970  142.0254  153.6613 C   0  0  0  0  0  0  0  0  0  0  0  0
  147.9205  137.4660  151.7874 H   0  0  0  0  0  0  0  0  0  0  0  0
  145.8378  139.3013  151.3086 H   0  0  0  0  0  0  0  0  0  0  0  0
  145.1636  138.0651  153.5859 H   0  0  0  0  0  0  0  0  0  0  0  0
  144.8172  137.3328  152.0310 H   0  0  0  0  0  0  0  0  0  0  0  0
  147.1879  136.3727  152.4133 H   0  0  0  0  0  0  0  0  0  0  0  0
  146.3858  134.3935  153.2094 H   0  0  0  0  0  0  0  0  0  0  0  0
  145.1224  135.2210  154.1061 H   0  0  0  0  0  0  0  0  0  0  0  0
  143.6999  135.1018  152.3049 H   0  0  0  0  0  0  0  0  0  0  0  0
  144.8734  135.8991  151.2745 H   0  0  0  0  0  0  0  0  0  0  0  0
  143.3048  133.7166  149.9040 H   0  0  0  0  0  0  0  0  0  0  0  0
  144.4948  131.3716  149.1791 H   0  0  0  0  0  0  0  0  0  0  0  0
  146.7160  131.2610  150.8328 H   0  0  0  0  0  0  0  0  0  0  0  0
  147.6723  139.1003  153.7851 H   0  0  0  0  0  0  0  0  0  0  0  0
  147.9602  140.2259  152.4857 H   0  0  0  0  0  0  0  0  0  0  0  0
  145.3356  139.2791  155.0053 H   0  0  0  0  0  0  0  0  0  0  0  0
  146.7009  140.1601  155.6633 H   0  0  0  0  0  0  0  0  0  0  0  0
  143.9226  141.3225  155.0408 H   0  0  0  0  0  0  0  0  0  0  0  0
  144.5947  141.0261  156.6325 H   0  0  0  0  0  0  0  0  0  0  0  0
  144.8899  143.0852  153.6879 H   0  0  0  0  0  0  0  0  0  0  0  0
  146.2294  144.0048  154.3467 H   0  0  0  0  0  0  0  0  0  0  0  0
  147.7357  142.0422  154.2171 H   0  0  0  0  0  0  0  0  0  0  0  0
  147.0218  142.3414  152.6419 H   0  0  0  0  0  0  0  0  0  0  0  0
  146.8556  136.6860  153.9908 H   0  0  0  0  0  0  0  0  0  0  0  0
  145.4151  140.6831  153.0815 H   0  0  0  0  0  0  0  0  0  0  0  0
  1  2  1  0  0  0  0
  1 19  1  0  0  0  0
  2  3  1  0  0  0  0
  2 12  1  0  0  0  0
  2 20  1  0  0  0  0
  3  4  1  0  0  0  0
  3 21  1  0  0  0  0
  3 22  1  0  0  0  0
  4  5  1  0  0  0  0
  4 23  1  0  0  0  0
  4 41  1  0  0  0  0
  5  6  1  0  0  0  0
  5 24  1  0  0  0  0
  5 25  1  0  0  0  0
  6  7  1  0  0  0  0
  6 26  1  0  0  0  0
  6 27  1  0  0  0  0
  7 11  1  0  0  0  0
  7  8  1  0  0  0  0
  8  9  2  0  0  0  0
  8 28  1  0  0  0  0
  9 10  1  0  0  0  0
  9 29  1  0  0  0  0
 10 11  2  0  0  0  0
 10 30  1  0  0  0  0
 12 13  1  0  0  0  0
 12 31  1  0  0  0  0
 12 32  1  0  0  0  0
 13 18  1  0  0  0  0
 13 14  1  0  0  0  0
 13 42  1  0  0  0  0
 14 15  1  0  0  0  0
 14 33  1  0  0  0  0
 14 34  1  0  0  0  0
 15 16  1  0  0  0  0
 15 35  1  0  0  0  0
 15 36  1  0  0  0  0
 16 17  1  0  0  0  0
 17 18  1  0  0  0  0
 17 37  1  0  0  0  0
 17 38  1  0  0  0  0
 18 39  1  0  0  0  0
 18 40  1  0  0  0  0
M  CHG  1   4   1
M  CHG  1  13   1
M  END
> <s_m_source_file>
AV-unprocessed.smi

> <i_m_source_file_index>
3231

> <i_lp_mmshare_version>
43012

> <i_f3d_flags>
0

> <s_epik_input>
W0NIMl0xW0NIMl1PW0NIMl1bQ0gyXU4xW0NIMl1bQ0BIXShbT0hdKVtDSDJdW05IXVtDSDJdW0NIMl1uMltjSF1bY0hdW2NIXW4y

> <s_epik_cmdline>
J2VwaWtfcHl0aG9uJywgJy1waCcsICc3LjAnLCAnLXRuJywgJzgnLCAnLW1hJywgJzIwMCcsICctbWV0YWxfYmluZGluZycsICctaW1hZScsICc8aW5maWxlLm1hZT4nLCAnLW9tYWUnLCAnPG91dGZpbGUubWFlPic=

> <r_lp_tautomer_probability>
1

> <r_epik_Ionization_Penalty>
2.09881

> <r_epik_Ionization_Penalty_Charging>
2.09628

> <r_epik_Ionization_Penalty_Neutral>
0.0025303

> <r_epik_State_Penalty>
1.58657

> <r_epik_Charging_Adjusted_Penalty>
3.68285

> <i_epik_Tot_Q>
2

> <i_epik_Tot_abs_Q>
2

> <r_epik_Metal_State_Penalty>
1.58685

> <b_epik_Metal_Only>
0

> <s_lp_Force_Field>
OPLS_2005

> <r_lp_Energy>
27.3068

> <b_lp_Chiralities_Consistent>
1

> <s_lp_Variant>
AV-unprocessed.smi:3231-6

> <Gold.Version>
5.8.1

> <Gold.Id.Protein>
6NUR|6NUR_protein|mol2

> <Gold.PLP.Fitness>
54.7834

> <Gold.PLP.PLP>
-34.2193

> <Gold.PLP.part.hbond>
-4.7729

> <Gold.PLP.part.metal>
0.0000

> <Gold.PLP.part.buried>
-5.2589

> <Gold.PLP.part.nonpolar>
-25.3064

> <Gold.PLP.part.repulsive>
0.2815

> <Gold.PLP.ligand.clash>
0.0000

> <Gold.PLP.ligand.torsion>
1.6439

> <Gold.PLP.Chemscore.Hbond>
5.8600

> <Gold.PLP.Chemscore.CHOScore>
2.0000

> <Gold.PLP.Chemscore.Metal>
0.0000

> <Gold.Chemscore.Hbonds>
donor molecule, donor type, donor heavy atom, donor atom, acceptor molecule, acceptor atom, score
      L1  H     1    19       P1  7948  0.90
      L1  H     4    23       P1  7948  2.00
      L1  H    13    42       P1 10175  2.00
      P1  H  7954  7966       L1     1  0.98
      L1  C     8    28       P1 10186  1.00
      L1  C    10    30       P1 10747  1.00

> <Gold.PLP.Chemscore.Internal.Correction>
0.2720

> <Gold.Rescore>
     Score         DG    S(hbond)    S(metal)    S(lipo)     H(rot)  DE(clash)    DE(int)     intcor
     16.32     -17.97       3.37        0.00      74.92       2.94       0.03       1.62       ----

> <Gold.Chemscore.Fitness>
16.3159

> <Gold.Chemscore.DG>
-17.9662

> <Gold.Chemscore.ZeroCoef>
-5.4800

> <Gold.Chemscore.Hbond>
3.3703

> <Gold.Chemscore.Metal>
0.0000

> <Gold.Chemscore.Lipo>
74.9164

> <Gold.Chemscore.Internal_Hbond>
0.0000

> <Gold.Chemscore.DEClash>
0.0285

> <Gold.Chemscore.DEInternal>
1.6218

> <Gold.Chemscore.Rot>
2.9437

> <Gold.Chemscore.Internal.Correction>
   9.000000E+99

> <Gold.Chemscore.Hbonds>
donor molecule, donor type, donor heavy atom, donor atom, acceptor molecule, acceptor atom, score
      L1  H     1    19       P1  7948  0.86
      L1  H     4    23       P1  7948  0.99
      L1  H    13    42       P1 10175  0.74
      P1  H  7954  7966       L1     1  0.28

> <Gold.Chemscore.Hbond.Weighted>
-11.2568

> <Gold.Chemscore.Metal.Weighted>
-0.0000

> <Gold.Chemscore.Lipo.Weighted>
-8.7652

> <Gold.Chemscore.Internal_Hbond.Weighted>
0.0000

> <Gold.Chemscore.DEClash.Weighted>
0.0285

> <Gold.Chemscore.DEInternal.Weighted>
1.6218

> <Gold.Chemscore.Rot.Weighted>
7.5359

> <Gold.Chemscore.Internal.Correction.Weighted>
   9.000000E+99

> <Gold.Protein.RotatedTorsions>
[ 6907 6896 6895 6894 ] final   31.55 input  -60.11 | X-H torsion
[ 7974 7965 7964 7962 ] final  133.85 input  175.53 | X-H torsion
[ 8008 7997 7996 7995 ] final  171.55 input   59.86 | X-H torsion
[ 10167 10162 10161 10158 ] final -123.84 input  -65.29 | X-H torsion
[ 10718 10713 10712 10709 ] final   42.84 input   66.30 | X-H torsion
[ 10763 10752 10751 10750 ] final   93.57 input  -60.55 | X-H torsion
[ 11005 11000 10999 10996 ] final  -77.86 input  -57.11 | X-H torsion

> <Gold.Protein.ActiveResidues>
 VAL166  LYS551  ARG553  GLY616  TRP617  ASP618  TYR619  PRO620  LYS621  CYS622 
 ASP623  PHE694  ASN695  SER759  ASP760  ASP761  ALA762  ILE779  LEU786  VAL792 
 PHE793  MET794  SER795  GLU796  ALA797  LYS798  CYS799  TRP800  GLU811  SER814 

> <Gold.Protein.RotatedAtoms>
  152.0618  134.9589  160.0574 H   0  0  0  0  0  0  0  0  0  0  0  0  # atno 6907 bound_to 6896
  152.0949  133.4215  159.4569 H   0  0  0  0  0  0  0  0  0  0  0  0  # atno 6908 bound_to 6896
  150.6838  134.2747  159.4646 H   0  0  0  0  0  0  0  0  0  0  0  0  # atno 6909 bound_to 6896
  144.9823  139.4492  143.5380 H   0  0  0  0  0  0  0  0  0  0  0  0  # atno 7974 bound_to 7965
  156.1260  140.1509  156.9136 H   0  0  0  0  0  0  0  0  0  0  0  0  # atno 8008 bound_to 7997
  154.4872  140.0862  156.7553 H   0  0  0  0  0  0  0  0  0  0  0  0  # atno 8009 bound_to 7997
  155.4343  140.3428  155.4285 H   0  0  0  0  0  0  0  0  0  0  0  0  # atno 8010 bound_to 7997
  139.9992  143.5558  152.2310 H   0  0  0  0  0  0  0  0  0  0  0  0  # atno 10167 bound_to 10162
  157.4093  130.7905  149.7416 H   0  0  0  0  0  0  0  0  0  0  0  0  # atno 10718 bound_to 10713
  153.2318  135.4321  155.0603 H   0  0  0  0  0  0  0  0  0  0  0  0  # atno 10763 bound_to 10752
  154.8300  135.3381  154.6776 H   0  0  0  0  0  0  0  0  0  0  0  0  # atno 10764 bound_to 10752
  153.7203  135.7017  153.5071 H   0  0  0  0  0  0  0  0  0  0  0  0  # atno 10765 bound_to 10752
  141.1662  133.7040  156.7885 H   0  0  0  0  0  0  0  0  0  0  0  0  # atno 11005 bound_to 11000
  146.3411  139.9103  142.8781 LP  0  0  0  0  0  0  0  0  0  0  0  0  # atno 17320 bound_to 7965
  145.2403  141.0007  143.3939 LP  0  0  0  0  0  0  0  0  0  0  0  0  # atno 17321 bound_to 7965
  139.6284  144.7640  151.2589 LP  0  0  0  0  0  0  0  0  0  0  0  0  # atno 17342 bound_to 10162
  140.7425  143.6523  150.8237 LP  0  0  0  0  0  0  0  0  0  0  0  0  # atno 17343 bound_to 10162
  155.9846  130.3990  150.3305 LP  0  0  0  0  0  0  0  0  0  0  0  0  # atno 17370 bound_to 10713
  157.1441  131.0304  151.2914 LP  0  0  0  0  0  0  0  0  0  0  0  0  # atno 17371 bound_to 10713
  140.2342  134.8662  157.3508 LP  0  0  0  0  0  0  0  0  0  0  0  0  # atno 17394 bound_to 11000
  140.1860  134.4431  155.7743 LP  0  0  0  0  0  0  0  0  0  0  0  0  # atno 17395 bound_to 11000

$$$$
