AV-unprocessed.smi:754|AV-procd|sdf|3607|dock4
  -GOLD-   22720 1 03D 1   1.00000     0.00000
 Structure written by MMmdl.
 37 38  0  0  0  0  0  0  0  0  1 V2000
  153.6581  141.1151  161.7894 C   0  0  0  0  0  0  0  0  0  0  0  0
  153.1959  141.1252  160.3307 C   0  0  0  0  0  0  0  0  0  0  0  0
  153.0728  142.4693  159.8969 O   0  0  0  0  0  0  0  0  0  0  0  0
  151.7742  142.7762  159.4134 C   0  0  2  0  0  0  0  0  0  0  0  0
  151.3893  142.0515  158.1206 C   0  0  0  0  0  0  0  0  0  0  0  0
  150.7857  143.3751  157.6395 C   0  0  1  0  0  0  0  0  0  0  0  0
  149.3596  143.4461  157.9593 N   0  0  0  0  0  0  0  0  0  0  0  0
  148.4540  142.5192  157.6118 C   0  0  0  0  0  0  0  0  0  0  0  0
  148.7302  141.5124  156.9607 O   0  0  0  0  0  0  0  0  0  0  0  0
  147.0146  142.7671  158.0631 C   0  0  0  0  0  0  0  0  0  0  0  0
  146.9481  142.9830  159.4961 N   0  0  0  0  0  0  0  0  0  0  0  0
  147.3998  143.9843  160.2542 C   0  0  0  0  0  0  0  0  0  0  0  0
  147.1369  143.7843  161.5366 N   0  0  0  0  0  0  0  0  0  0  0  0
  146.4771  142.5665  161.5358 N   0  0  0  0  0  0  0  0  0  0  0  0
  146.3629  142.0859  160.3280 N   0  0  0  0  0  0  0  0  0  0  0  0
  151.7044  144.1208  158.6501 C   0  0  0  0  0  0  0  0  0  0  0  0
  151.1177  145.3021  159.4319 C   0  0  0  0  0  0  0  0  0  0  0  0
  153.0242  144.6144  158.0416 C   0  0  0  0  0  0  0  0  0  0  0  0
  153.7633  140.0945  162.1578 H   0  0  0  0  0  0  0  0  0  0  0  0
  152.9422  141.6303  162.4302 H   0  0  0  0  0  0  0  0  0  0  0  0
  154.6232  141.6105  161.8973 H   0  0  0  0  0  0  0  0  0  0  0  0
  153.9164  140.5899  159.7110 H   0  0  0  0  0  0  0  0  0  0  0  0
  152.2370  140.6129  160.2402 H   0  0  0  0  0  0  0  0  0  0  0  0
  151.0024  142.6994  160.1824 H   0  0  0  0  0  0  0  0  0  0  0  0
  152.2541  141.7423  157.5314 H   0  0  0  0  0  0  0  0  0  0  0  0
  150.6816  141.2320  158.2513 H   0  0  0  0  0  0  0  0  0  0  0  0
  151.0176  143.5849  156.5936 H   0  0  0  0  0  0  0  0  0  0  0  0
  149.0476  144.2475  158.4884 H   0  0  0  0  0  0  0  0  0  0  0  0
  146.6062  143.6410  157.5538 H   0  0  0  0  0  0  0  0  0  0  0  0
  146.3861  141.9158  157.7970 H   0  0  0  0  0  0  0  0  0  0  0  0
  147.9199  144.8493  159.8701 H   0  0  0  0  0  0  0  0  0  0  0  0
  150.8455  146.1235  158.7684 H   0  0  0  0  0  0  0  0  0  0  0  0
  151.8279  145.6901  160.1627 H   0  0  0  0  0  0  0  0  0  0  0  0
  150.2216  145.0213  159.9857 H   0  0  0  0  0  0  0  0  0  0  0  0
  152.8609  145.4562  157.3679 H   0  0  0  0  0  0  0  0  0  0  0  0
  153.5234  143.8358  157.4644 H   0  0  0  0  0  0  0  0  0  0  0  0
  153.7249  144.9411  158.8106 H   0  0  0  0  0  0  0  0  0  0  0  0
  1  2  1  0  0  0  0
  1 19  1  0  0  0  0
  1 20  1  0  0  0  0
  1 21  1  0  0  0  0
  2  3  1  0  0  0  0
  2 22  1  0  0  0  0
  2 23  1  0  0  0  0
  3  4  1  0  0  0  0
  4 16  1  0  0  0  0
  4  5  1  0  0  0  0
  4 24  1  0  0  0  0
  5  6  1  0  0  0  0
  5 25  1  0  0  0  0
  5 26  1  0  0  0  0
  6  7  1  0  0  0  0
  6 16  1  0  0  0  0
  6 27  1  0  0  0  0
  7  8  1  0  0  0  0
  7 28  1  0  0  0  0
  8  9  2  0  0  0  0
  8 10  1  0  0  0  0
 10 11  1  0  0  0  0
 10 29  1  0  0  0  0
 10 30  1  0  0  0  0
 11 15  1  0  0  0  0
 11 12  1  0  0  0  0
 12 13  2  0  0  0  0
 12 31  1  0  0  0  0
 13 14  1  0  0  0  0
 14 15  2  0  0  0  0
 16 17  1  0  0  0  0
 16 18  1  0  0  0  0
 17 32  1  0  0  0  0
 17 33  1  0  0  0  0
 17 34  1  0  0  0  0
 18 35  1  0  0  0  0
 18 36  1  0  0  0  0
 18 37  1  0  0  0  0
M  END
> <s_m_source_file>
AV-unprocessed.smi

> <i_m_source_file_index>
754

> <i_lp_mmshare_version>
43012

> <i_f3d_flags>
0

> <s_epik_input>
W0NIM11bQ0gyXU9bQ0BASF0oQzEoW0NIM10pW0NIM10pW0NIMl1bQ0BIXTFbTkhdQyg9TylbQ0gyXW4yW2NIXW5ubjI=

> <s_epik_cmdline>
J2VwaWtfcHl0aG9uJywgJy1waCcsICc3LjAnLCAnLXRuJywgJzgnLCAnLW1hJywgJzIwMCcsICctbWV0YWxfYmluZGluZycsICctaW1hZScsICc8aW5maWxlLm1hZT4nLCAnLW9tYWUnLCAnPG91dGZpbGUubWFlPic=

> <r_lp_tautomer_probability>
1

> <r_epik_Ionization_Penalty>
8.28422e-07

> <r_epik_Ionization_Penalty_Charging>
0

> <r_epik_Ionization_Penalty_Neutral>
8.28422e-07

> <r_epik_State_Penalty>
-0

> <r_epik_Charging_Adjusted_Penalty>
0

> <i_epik_Tot_Q>
0

> <i_epik_Tot_abs_Q>
0

> <r_epik_Metal_State_Penalty>
-0

> <b_epik_Metal_Only>
0

> <s_lp_Force_Field>
OPLS_2005

> <r_lp_Energy>
23.2797

> <b_lp_Chiralities_Consistent>
1

> <s_lp_Variant>
AV-unprocessed.smi:754-1

> <Gold.Version>
5.8.1

> <Gold.Id.Protein>
6NUR|6NUR_protein|mol2

> <Gold.PLP.Fitness>
40.6179

> <Gold.PLP.PLP>
-35.0981

> <Gold.PLP.part.hbond>
-5.0326

> <Gold.PLP.part.metal>
0.0000

> <Gold.PLP.part.buried>
-1.4743

> <Gold.PLP.part.nonpolar>
-26.5350

> <Gold.PLP.part.repulsive>
0.2930

> <Gold.PLP.ligand.clash>
0.0000

> <Gold.PLP.ligand.torsion>
0.7266

> <Gold.PLP.Chemscore.Hbond>
1.2059

> <Gold.PLP.Chemscore.CHOScore>
1.0000

> <Gold.PLP.Chemscore.Metal>
0.0000

> <Gold.Chemscore.Hbonds>
donor molecule, donor type, donor heavy atom, donor atom, acceptor molecule, acceptor atom, score
      L1  H     7    28       P1  8029  0.04
      P1  H  6934  6946       L1    15  0.37
      L1  C    12    31       P1  8029  0.29

> <Gold.PLP.Chemscore.Internal.Correction>
0.3553

> <Gold.Rescore>
     Score         DG    S(hbond)    S(metal)    S(lipo)     H(rot)  DE(clash)    DE(int)     intcor
     11.76     -12.76       0.85        0.00      91.77       2.46       0.24       0.76       ----

> <Gold.Chemscore.Fitness>
11.7600

> <Gold.Chemscore.DG>
-12.7574

> <Gold.Chemscore.ZeroCoef>
-5.4800

> <Gold.Chemscore.Hbond>
0.8510

> <Gold.Chemscore.Metal>
0.0000

> <Gold.Chemscore.Lipo>
91.7651

> <Gold.Chemscore.Internal_Hbond>
0.0000

> <Gold.Chemscore.DEClash>
0.2356

> <Gold.Chemscore.DEInternal>
0.7618

> <Gold.Chemscore.Rot>
2.4616

> <Gold.Chemscore.Internal.Correction>
   9.000000E+99

> <Gold.Chemscore.Hbonds>
donor molecule, donor type, donor heavy atom, donor atom, acceptor molecule, acceptor atom, score
      L1  H     7    28       P1  8029  0.02
      P1  H  6934  6946       L1    15  0.02

> <Gold.Chemscore.Hbond.Weighted>
-2.8425

> <Gold.Chemscore.Metal.Weighted>
-0.0000

> <Gold.Chemscore.Lipo.Weighted>
-10.7365

> <Gold.Chemscore.Internal_Hbond.Weighted>
0.0000

> <Gold.Chemscore.DEClash.Weighted>
0.2356

> <Gold.Chemscore.DEInternal.Weighted>
0.7618

> <Gold.Chemscore.Rot.Weighted>
6.3016

> <Gold.Chemscore.Internal.Correction.Weighted>
   9.000000E+99

> <Gold.Protein.RotatedTorsions>
[ 6907 6896 6895 6894 ] final  -92.46 input  -60.11 | X-H torsion
[ 7974 7965 7964 7962 ] final   38.50 input  175.53 | X-H torsion
[ 8008 7997 7996 7995 ] final  -93.94 input   59.86 | X-H torsion
[ 10167 10162 10161 10158 ] final   -1.48 input  -65.29 | X-H torsion
[ 10718 10713 10712 10709 ] final  161.12 input   66.30 | X-H torsion
[ 10763 10752 10751 10750 ] final  -57.89 input  -60.55 | X-H torsion
[ 11005 11000 10999 10996 ] final  -65.04 input  -57.11 | X-H torsion

> <Gold.Protein.ActiveResidues>
 VAL166  LYS551  ARG553  GLY616  TRP617  ASP618  TYR619  PRO620  LYS621  CYS622 
 ASP623  PHE694  ASN695  SER759  ASP760  ASP761  ALA762  ILE779  LEU786  VAL792 
 PHE793  MET794  SER795  GLU796  ALA797  LYS798  CYS799  TRP800  GLU811  SER814 

> <Gold.Protein.RotatedAtoms>
  150.6906  134.2119  159.4362 H   0  0  0  0  0  0  0  0  0  0  0  0  # atno 6907 bound_to 6896
  152.0080  134.9889  160.0576 H   0  0  0  0  0  0  0  0  0  0  0  0  # atno 6908 bound_to 6896
  152.1516  133.4490  159.4853 H   0  0  0  0  0  0  0  0  0  0  0  0  # atno 6909 bound_to 6896
  146.1057  139.5765  142.9385 H   0  0  0  0  0  0  0  0  0  0  0  0  # atno 7974 bound_to 7965
  154.7421  140.0494  157.0820 H   0  0  0  0  0  0  0  0  0  0  0  0  # atno 8008 bound_to 7997
  155.0165  140.3142  155.4790 H   0  0  0  0  0  0  0  0  0  0  0  0  # atno 8009 bound_to 7997
  156.2866  140.2174  156.5282 H   0  0  0  0  0  0  0  0  0  0  0  0  # atno 8010 bound_to 7997
  140.6812  143.6771  150.8137 H   0  0  0  0  0  0  0  0  0  0  0  0  # atno 10167 bound_to 10162
  157.1410  131.0540  151.2327 H   0  0  0  0  0  0  0  0  0  0  0  0  # atno 10718 bound_to 10713
  154.2296  135.6363  153.5171 H   0  0  0  0  0  0  0  0  0  0  0  0  # atno 10763 bound_to 10752
  152.9952  135.5516  154.6027 H   0  0  0  0  0  0  0  0  0  0  0  0  # atno 10764 bound_to 10752
  154.5507  135.2901  155.0986 H   0  0  0  0  0  0  0  0  0  0  0  0  # atno 10765 bound_to 10752
  141.1443  133.6675  156.5925 H   0  0  0  0  0  0  0  0  0  0  0  0  # atno 11005 bound_to 11000
  145.5765  141.0388  143.2145 LP  0  0  0  0  0  0  0  0  0  0  0  0  # atno 17320 bound_to 7965
  144.7469  139.7296  143.7288 LP  0  0  0  0  0  0  0  0  0  0  0  0  # atno 17321 bound_to 7965
  140.0471  143.5287  152.2691 LP  0  0  0  0  0  0  0  0  0  0  0  0  # atno 17342 bound_to 10162
  139.6135  144.7614  151.2898 LP  0  0  0  0  0  0  0  0  0  0  0  0  # atno 17343 bound_to 10162
  157.4307  130.7489  149.6988 LP  0  0  0  0  0  0  0  0  0  0  0  0  # atno 17370 bound_to 10713
  155.9788  130.4046  150.3622 LP  0  0  0  0  0  0  0  0  0  0  0  0  # atno 17371 bound_to 10713
  140.3752  134.7571  157.4625 LP  0  0  0  0  0  0  0  0  0  0  0  0  # atno 17394 bound_to 11000
  140.0680  134.5902  155.8674 LP  0  0  0  0  0  0  0  0  0  0  0  0  # atno 17395 bound_to 11000

$$$$
