AV-unprocessed.smi:1978|AV-procd|sdf|8007|dock7
  -GOLD-   2272010193D 1   1.00000     0.00000
 Structure written by MMmdl.
 44 45  0  0  0  0  0  0  0  0  3 V2000
  146.2798  135.5569  162.9602 C   0  0  0  0  0  0  0  0  0  0  0  0
  146.9073  135.3668  161.6216 C   0  0  0  0  0  0  0  0  0  0  0  0
  147.2692  134.2538  160.9171 C   0  0  0  0  0  0  0  0  0  0  0  0
  147.8154  134.7906  159.7192 C   0  0  0  0  0  0  0  0  0  0  0  0
  148.3036  134.0855  158.6869 N   0  5  0  0  0  0  0  0  0  0  0  0
  147.8606  134.3204  157.4309 C   0  0  0  0  0  0  0  0  0  0  0  0
  147.7513  135.4204  156.8845 O   0  0  0  0  0  0  0  0  0  0  0  0
  147.5211  133.2092  156.7647 N   0  0  0  0  0  0  0  0  0  0  0  0
  146.9957  133.1692  155.4047 C   0  0  0  0  0  0  0  0  0  0  0  0
  147.9709  133.8040  154.3760 C   0  0  1  0  0  0  0  0  0  0  0  0
  149.2224  132.9033  154.2182 C   0  0  0  0  0  0  0  0  0  0  0  0
  147.3175  134.0694  153.0463 N   0  3  2  0  0  0  0  0  0  0  0  0
  146.0508  134.8586  153.1419 C   0  0  0  0  0  0  0  0  0  0  0  0
  145.5351  135.2928  151.7597 C   0  0  0  0  0  0  0  0  0  0  0  0
  145.3403  134.0930  150.8317 C   0  0  0  0  0  0  0  0  0  0  0  0
  146.6454  133.2957  150.7537 C   0  0  0  0  0  0  0  0  0  0  0  0
  147.1583  132.8764  152.1476 C   0  0  2  0  0  0  0  0  0  0  0  0
  146.2986  131.7520  152.7673 C   0  0  0  0  0  0  0  0  0  0  0  0
  147.7734  136.1121  159.6924 N   0  0  0  0  0  0  0  0  0  0  0  0
  147.1980  136.4899  160.9115 O   0  0  0  0  0  0  0  0  0  0  0  0
  145.3217  135.0401  163.0132 H   0  0  0  0  0  0  0  0  0  0  0  0
  146.1055  136.6130  163.1677 H   0  0  0  0  0  0  0  0  0  0  0  0
  146.9225  135.1605  163.7461 H   0  0  0  0  0  0  0  0  0  0  0  0
  147.1647  133.2207  161.2124 H   0  0  0  0  0  0  0  0  0  0  0  0
  147.6274  132.3281  157.2457 H   0  0  0  0  0  0  0  0  0  0  0  0
  146.7794  132.1379  155.1200 H   0  0  0  0  0  0  0  0  0  0  0  0
  146.0467  133.7020  155.4457 H   0  0  0  0  0  0  0  0  0  0  0  0
  148.3041  134.7606  154.7812 H   0  0  0  0  0  0  0  0  0  0  0  0
  149.6472  132.6104  155.1778 H   0  0  0  0  0  0  0  0  0  0  0  0
  150.0354  133.4048  153.6962 H   0  0  0  0  0  0  0  0  0  0  0  0
  148.9835  131.9868  153.6779 H   0  0  0  0  0  0  0  0  0  0  0  0
  145.2903  134.2836  153.6707 H   0  0  0  0  0  0  0  0  0  0  0  0
  146.1959  135.7722  153.7128 H   0  0  0  0  0  0  0  0  0  0  0  0
  144.5949  135.8347  151.8667 H   0  0  0  0  0  0  0  0  0  0  0  0
  146.2429  135.9903  151.3100 H   0  0  0  0  0  0  0  0  0  0  0  0
  144.5297  133.4624  151.1977 H   0  0  0  0  0  0  0  0  0  0  0  0
  145.0457  134.4305  149.8375 H   0  0  0  0  0  0  0  0  0  0  0  0
  146.5087  132.4179  150.1209 H   0  0  0  0  0  0  0  0  0  0  0  0
  147.4048  133.9052  150.2615 H   0  0  0  0  0  0  0  0  0  0  0  0
  148.1449  132.4611  151.9497 H   0  0  0  0  0  0  0  0  0  0  0  0
  146.2206  130.9070  152.0829 H   0  0  0  0  0  0  0  0  0  0  0  0
  145.2841  132.0797  152.9912 H   0  0  0  0  0  0  0  0  0  0  0  0
  146.7305  131.3688  153.6912 H   0  0  0  0  0  0  0  0  0  0  0  0
  147.9667  134.6706  152.5593 H   0  0  0  0  0  0  0  0  0  0  0  0
  1  2  1  0  0  0  0
  1 21  1  0  0  0  0
  1 22  1  0  0  0  0
  1 23  1  0  0  0  0
  2 20  1  0  0  0  0
  2  3  2  0  0  0  0
  3  4  1  0  0  0  0
  3 24  1  0  0  0  0
  4  5  1  0  0  0  0
  4 19  2  0  0  0  0
  5  6  1  0  0  0  0
  6  7  2  0  0  0  0
  6  8  1  0  0  0  0
  8  9  1  0  0  0  0
  8 25  1  0  0  0  0
  9 10  1  0  0  0  0
  9 26  1  0  0  0  0
  9 27  1  0  0  0  0
 10 11  1  0  0  0  0
 10 12  1  0  0  0  0
 10 28  1  0  0  0  0
 11 29  1  0  0  0  0
 11 30  1  0  0  0  0
 11 31  1  0  0  0  0
 12 17  1  0  0  0  0
 12 13  1  0  0  0  0
 12 44  1  0  0  0  0
 13 14  1  0  0  0  0
 13 32  1  0  0  0  0
 13 33  1  0  0  0  0
 14 15  1  0  0  0  0
 14 34  1  0  0  0  0
 14 35  1  0  0  0  0
 15 16  1  0  0  0  0
 15 36  1  0  0  0  0
 15 37  1  0  0  0  0
 16 17  1  0  0  0  0
 16 38  1  0  0  0  0
 16 39  1  0  0  0  0
 17 18  1  0  0  0  0
 17 40  1  0  0  0  0
 18 41  1  0  0  0  0
 18 42  1  0  0  0  0
 18 43  1  0  0  0  0
 19 20  1  0  0  0  0
M  CHG  1   5  -1
M  CHG  1  12   1
M  END
> <s_m_source_file>
AV-unprocessed.smi

> <i_m_source_file_index>
1978

> <i_lp_mmshare_version>
43012

> <i_f3d_flags>
0

> <s_epik_input>
W0NIM11jMVtjSF1jKG5vMSlbTkhdQyg9TylbTkhdW0NIMl1bQ0BIXShbQ0gzXSlOMltDSDJdW0NIMl1bQ0gyXVtDSDJdW0NASF0yW0NIM10=

> <s_epik_cmdline>
J2VwaWtfcHl0aG9uJywgJy1waCcsICc3LjAnLCAnLXRuJywgJzgnLCAnLW1hJywgJzIwMCcsICctbWV0YWxfYmluZGluZycsICctaW1hZScsICc8aW5maWxlLm1hZT4nLCAnLW9tYWUnLCAnPG91dGZpbGUubWFlPic=

> <r_epik_Ionization_Penalty>
6.22372

> <r_epik_Ionization_Penalty_Charging>
6.22362

> <r_epik_Ionization_Penalty_Neutral>
9.65074e-05

> <r_epik_State_Penalty>
6.22363

> <r_epik_Charging_Adjusted_Penalty>
12.4472

> <i_epik_Tot_Q>
0

> <i_epik_Tot_abs_Q>
2

> <r_epik_Metal_State_Penalty>
2.16675

> <b_epik_Metal_Only>
1

> <s_lp_Force_Field>
OPLS_2005

> <r_lp_Energy>
15.9266

> <b_lp_Chiralities_Consistent>
1

> <s_lp_Variant>
AV-unprocessed.smi:1978-16

> <Gold.Version>
5.8.1

> <Gold.Id.Protein>
6NUR|6NUR_protein|mol2

> <Gold.PLP.Fitness>
45.0661

> <Gold.PLP.PLP>
-30.0050

> <Gold.PLP.part.hbond>
-4.0000

> <Gold.PLP.part.metal>
0.0000

> <Gold.PLP.part.buried>
-4.4887

> <Gold.PLP.part.nonpolar>
-22.3001

> <Gold.PLP.part.repulsive>
0.0145

> <Gold.PLP.ligand.clash>
0.0000

> <Gold.PLP.ligand.torsion>
1.1089

> <Gold.PLP.Chemscore.Hbond>
5.7120

> <Gold.PLP.Chemscore.CHOScore>
0.0000

> <Gold.PLP.Chemscore.Metal>
0.0000

> <Gold.Chemscore.Hbonds>
donor molecule, donor type, donor heavy atom, donor atom, acceptor molecule, acceptor atom, score
      L1  H    12    44       P1  7948  2.00

> <Gold.PLP.Chemscore.Internal.Correction>
0.1429

> <Gold.Rescore>
     Score         DG    S(hbond)    S(metal)    S(lipo)     H(rot)  DE(clash)    DE(int)     intcor
     15.65     -17.20       2.38        0.00      65.42       1.52       0.05       1.50       ----

> <Gold.Chemscore.Fitness>
15.6539

> <Gold.Chemscore.DG>
-17.2008

> <Gold.Chemscore.ZeroCoef>
-5.4800

> <Gold.Chemscore.Hbond>
2.3817

> <Gold.Chemscore.Metal>
0.0000

> <Gold.Chemscore.Lipo>
65.4245

> <Gold.Chemscore.Internal_Hbond>
0.0000

> <Gold.Chemscore.DEClash>
0.0515

> <Gold.Chemscore.DEInternal>
1.4954

> <Gold.Chemscore.Rot>
1.5190

> <Gold.Chemscore.Internal.Correction>
   9.000000E+99

> <Gold.Chemscore.Hbonds>
donor molecule, donor type, donor heavy atom, donor atom, acceptor molecule, acceptor atom, score
      L1  H    12    44       P1  7948  0.65
      P1  H  6896  6908       L1     5  0.01

> <Gold.Chemscore.Hbond.Weighted>
-7.9548

> <Gold.Chemscore.Metal.Weighted>
-0.0000

> <Gold.Chemscore.Lipo.Weighted>
-7.6547

> <Gold.Chemscore.Internal_Hbond.Weighted>
0.0000

> <Gold.Chemscore.DEClash.Weighted>
0.0515

> <Gold.Chemscore.DEInternal.Weighted>
1.4954

> <Gold.Chemscore.Rot.Weighted>
3.8886

> <Gold.Chemscore.Internal.Correction.Weighted>
   9.000000E+99

> <Gold.Protein.RotatedTorsions>
[ 6907 6896 6895 6894 ] final  137.66 input  -60.11 | X-H torsion
[ 7974 7965 7964 7962 ] final  132.67 input  175.53 | X-H torsion
[ 8008 7997 7996 7995 ] final  105.86 input   59.86 | X-H torsion
[ 10167 10162 10161 10158 ] final  144.80 input  -65.29 | X-H torsion
[ 10718 10713 10712 10709 ] final -150.85 input   66.30 | X-H torsion
[ 10763 10752 10751 10750 ] final    7.75 input  -60.55 | X-H torsion
[ 11005 11000 10999 10996 ] final  -35.76 input  -57.11 | X-H torsion

> <Gold.Protein.ActiveResidues>
 VAL166  LYS551  ARG553  GLY616  TRP617  ASP618  TYR619  PRO620  LYS621  CYS622 
 ASP623  PHE694  ASN695  SER759  ASP760  ASP761  ALA762  ILE779  LEU786  VAL792 
 PHE793  MET794  SER795  GLU796  ALA797  LYS798  CYS799  TRP800  GLU811  SER814 

> <Gold.Protein.RotatedAtoms>
  152.2755  133.5422  159.5465 H   0  0  0  0  0  0  0  0  0  0  0  0  # atno 6907 bound_to 6896
  150.7175  134.0637  159.3849 H   0  0  0  0  0  0  0  0  0  0  0  0  # atno 6908 bound_to 6896
  151.8550  135.0544  160.0514 H   0  0  0  0  0  0  0  0  0  0  0  0  # atno 6909 bound_to 6896
  144.9945  139.4373  143.5323 H   0  0  0  0  0  0  0  0  0  0  0  0  # atno 7974 bound_to 7965
  156.1694  140.3123  155.8947 H   0  0  0  0  0  0  0  0  0  0  0  0  # atno 8008 bound_to 7997
  155.3618  140.0477  157.3063 H   0  0  0  0  0  0  0  0  0  0  0  0  # atno 8009 bound_to 7997
  154.5226  140.2203  155.8959 H   0  0  0  0  0  0  0  0  0  0  0  0  # atno 8010 bound_to 7997
  139.4939  144.5947  151.6609 H   0  0  0  0  0  0  0  0  0  0  0  0  # atno 10167 bound_to 10162
  156.4516  130.8170  151.2401 H   0  0  0  0  0  0  0  0  0  0  0  0  # atno 10718 bound_to 10713
  153.2328  135.6894  153.7871 H   0  0  0  0  0  0  0  0  0  0  0  0  # atno 10763 bound_to 10752
  153.7029  135.3294  155.3230 H   0  0  0  0  0  0  0  0  0  0  0  0  # atno 10764 bound_to 10752
  154.8321  135.4572  154.1220 H   0  0  0  0  0  0  0  0  0  0  0  0  # atno 10765 bound_to 10752
  140.9821  133.7050  156.1702 H   0  0  0  0  0  0  0  0  0  0  0  0  # atno 11005 bound_to 11000
  146.3439  139.9296  142.8755 LP  0  0  0  0  0  0  0  0  0  0  0  0  # atno 17320 bound_to 7965
  145.2240  140.9946  143.4029 LP  0  0  0  0  0  0  0  0  0  0  0  0  # atno 17321 bound_to 7965
  140.5582  144.0313  150.6157 LP  0  0  0  0  0  0  0  0  0  0  0  0  # atno 17342 bound_to 10162
  140.3390  143.3031  152.0608 LP  0  0  0  0  0  0  0  0  0  0  0  0  # atno 17343 bound_to 10162
  157.7502  131.0136  150.3431 LP  0  0  0  0  0  0  0  0  0  0  0  0  # atno 17370 bound_to 10713
  156.3810  130.3880  149.7101 LP  0  0  0  0  0  0  0  0  0  0  0  0  # atno 17371 bound_to 10713
  140.7170  134.4400  157.5578 LP  0  0  0  0  0  0  0  0  0  0  0  0  # atno 17394 bound_to 11000
  139.8955  134.8682  156.2130 LP  0  0  0  0  0  0  0  0  0  0  0  0  # atno 17395 bound_to 11000

$$$$
