AV-unprocessed.smi:1639|AV-procd|sdf|6548|dock5
  -GOLD-   22720 7233D 1   1.00000     0.00000
 Structure written by MMmdl.
 37 38  0  0  0  0  0  0  0  0  1 V2000
  154.8773  138.8300  162.4986 C   0  0  0  0  0  0  0  0  0  0  0  0
  154.8143  139.7848  161.3047 C   0  0  0  0  0  0  0  0  0  0  0  0
  154.0016  140.8963  161.6522 O   0  0  0  0  0  0  0  0  0  0  0  0
  153.6296  141.7225  160.5561 C   0  0  2  0  0  0  0  0  0  0  0  0
  152.8208  142.9008  161.1216 C   0  0  0  0  0  0  0  0  0  0  0  0
  152.3165  143.7940  159.9797 C   0  0  0  0  0  0  0  0  0  0  0  0
  151.5022  142.9787  158.9621 C   0  0  0  0  0  0  0  0  0  0  0  0
  152.2629  141.8241  158.4811 N   0  0  0  0  0  0  0  0  0  0  0  0
  151.7704  141.2224  157.3024 C   0  0  0  0  0  0  0  0  0  0  0  0
  150.5818  141.6884  156.6904 C   0  0  0  0  0  0  0  0  0  0  0  0
  150.1651  141.0246  155.5172 C   0  0  0  0  0  0  0  0  0  0  0  0
  148.9095  141.4393  154.7802 C   0  0  0  0  0  0  0  0  0  0  0  0
  150.8609  139.9906  154.9977 N   0  0  0  0  0  0  0  0  0  0  0  0
  151.9687  139.6329  155.6476 C   0  0  0  0  0  0  0  0  0  0  0  0
  152.6795  138.5835  155.1190 N   0  0  0  0  0  0  0  0  0  0  0  0
  152.4581  140.1867  156.7583 N   0  0  0  0  0  0  0  0  0  0  0  0
  152.7887  140.9396  159.5247 C   0  0  0  0  0  0  0  0  0  0  0  0
  155.4984  137.9634  162.2714 H   0  0  0  0  0  0  0  0  0  0  0  0
  153.8834  138.4691  162.7640 H   0  0  0  0  0  0  0  0  0  0  0  0
  155.2999  139.3247  163.3733 H   0  0  0  0  0  0  0  0  0  0  0  0
  155.8208  140.1178  161.0474 H   0  0  0  0  0  0  0  0  0  0  0  0
  154.4070  139.2614  160.4398 H   0  0  0  0  0  0  0  0  0  0  0  0
  154.5243  142.1214  160.0745 H   0  0  0  0  0  0  0  0  0  0  0  0
  151.9723  142.5269  161.6961 H   0  0  0  0  0  0  0  0  0  0  0  0
  153.4336  143.4830  161.8104 H   0  0  0  0  0  0  0  0  0  0  0  0
  151.7078  144.6048  160.3802 H   0  0  0  0  0  0  0  0  0  0  0  0
  153.1653  144.2613  159.4787 H   0  0  0  0  0  0  0  0  0  0  0  0
  150.5831  142.6187  159.4266 H   0  0  0  0  0  0  0  0  0  0  0  0
  151.2024  143.6352  158.1466 H   0  0  0  0  0  0  0  0  0  0  0  0
  150.0193  142.5212  157.0849 H   0  0  0  0  0  0  0  0  0  0  0  0
  148.6353  142.4660  155.0251 H   0  0  0  0  0  0  0  0  0  0  0  0
  148.0803  140.7871  155.0547 H   0  0  0  0  0  0  0  0  0  0  0  0
  149.0552  141.3767  153.7013 H   0  0  0  0  0  0  0  0  0  0  0  0
  152.3600  138.1218  154.2800 H   0  0  0  0  0  0  0  0  0  0  0  0
  153.5506  138.2942  155.5392 H   0  0  0  0  0  0  0  0  0  0  0  0
  153.4032  140.1637  159.0681 H   0  0  0  0  0  0  0  0  0  0  0  0
  151.9550  140.4420  160.0220 H   0  0  0  0  0  0  0  0  0  0  0  0
  1  2  1  0  0  0  0
  1 18  1  0  0  0  0
  1 19  1  0  0  0  0
  1 20  1  0  0  0  0
  2  3  1  0  0  0  0
  2 21  1  0  0  0  0
  2 22  1  0  0  0  0
  3  4  1  0  0  0  0
  4 17  1  0  0  0  0
  4  5  1  0  0  0  0
  4 23  1  0  0  0  0
  5  6  1  0  0  0  0
  5 24  1  0  0  0  0
  5 25  1  0  0  0  0
  6  7  1  0  0  0  0
  6 26  1  0  0  0  0
  6 27  1  0  0  0  0
  7  8  1  0  0  0  0
  7 28  1  0  0  0  0
  7 29  1  0  0  0  0
  8  9  1  0  0  0  0
  8 17  1  0  0  0  0
  9 16  1  0  0  0  0
  9 10  2  0  0  0  0
 10 11  1  0  0  0  0
 10 30  1  0  0  0  0
 11 12  1  0  0  0  0
 11 13  2  0  0  0  0
 12 31  1  0  0  0  0
 12 32  1  0  0  0  0
 12 33  1  0  0  0  0
 13 14  1  0  0  0  0
 14 15  1  0  0  0  0
 14 16  2  0  0  0  0
 15 34  1  0  0  0  0
 15 35  1  0  0  0  0
 17 36  1  0  0  0  0
 17 37  1  0  0  0  0
M  END
> <s_m_source_file>
AV-unprocessed.smi

> <i_m_source_file_index>
1639

> <i_lp_mmshare_version>
43012

> <i_f3d_flags>
0

> <s_epik_input>
W0NIM11bQ0gyXU9bQ0BASF0xW0NIMl1bQ0gyXVtDSDJdTihbQ0gyXTEpYzJbY0hdYyhbQ0gzXSluYyhuMilbTkgyXQ==

> <s_epik_cmdline>
J2VwaWtfcHl0aG9uJywgJy1waCcsICc3LjAnLCAnLXRuJywgJzgnLCAnLW1hJywgJzIwMCcsICctbWV0YWxfYmluZGluZycsICctaW1hZScsICc8aW5maWxlLm1hZT4nLCAnLW9tYWUnLCAnPG91dGZpbGUubWFlPic=

> <r_lp_tautomer_probability>
1

> <r_epik_Ionization_Penalty>
0.383805

> <r_epik_Ionization_Penalty_Charging>
0

> <r_epik_Ionization_Penalty_Neutral>
0.383805

> <r_epik_State_Penalty>
0.0922942

> <r_epik_Charging_Adjusted_Penalty>
0.0922942

> <i_epik_Tot_Q>
0

> <i_epik_Tot_abs_Q>
0

> <r_epik_Metal_State_Penalty>
0.050432

> <b_epik_Metal_Only>
0

> <s_lp_Force_Field>
OPLS_2005

> <r_lp_Energy>
9.62656

> <b_lp_Chiralities_Consistent>
1

> <s_lp_Variant>
AV-unprocessed.smi:1639-1

> <Gold.Version>
5.8.1

> <Gold.Id.Protein>
6NUR|6NUR_protein|mol2

> <Gold.PLP.Fitness>
41.4827

> <Gold.PLP.PLP>
-35.6633

> <Gold.PLP.part.hbond>
-2.0000

> <Gold.PLP.part.metal>
0.0000

> <Gold.PLP.part.buried>
-4.1064

> <Gold.PLP.part.nonpolar>
-29.0485

> <Gold.PLP.part.repulsive>
0.2713

> <Gold.PLP.ligand.clash>
0.0000

> <Gold.PLP.ligand.torsion>
0.3045

> <Gold.PLP.Chemscore.Hbond>
2.0000

> <Gold.PLP.Chemscore.CHOScore>
0.0000

> <Gold.PLP.Chemscore.Metal>
0.0000

> <Gold.Chemscore.Hbonds>
donor molecule, donor type, donor heavy atom, donor atom, acceptor molecule, acceptor atom, score
      P1  H  7989  7998       L1    13  0.95
      P1  H  7997  8010       L1    16  1.00

> <Gold.PLP.Chemscore.Internal.Correction>
0.4284

> <Gold.Rescore>
     Score         DG    S(hbond)    S(metal)    S(lipo)     H(rot)  DE(clash)    DE(int)     intcor
     14.67     -14.93       0.87        0.00      87.25       1.43       0.01       0.26       ----

> <Gold.Chemscore.Fitness>
14.6669

> <Gold.Chemscore.DG>
-14.9308

> <Gold.Chemscore.ZeroCoef>
-5.4800

> <Gold.Chemscore.Hbond>
0.8688

> <Gold.Chemscore.Metal>
0.0000

> <Gold.Chemscore.Lipo>
87.2490

> <Gold.Chemscore.Internal_Hbond>
0.0000

> <Gold.Chemscore.DEClash>
0.0060

> <Gold.Chemscore.DEInternal>
0.2580

> <Gold.Chemscore.Rot>
1.4293

> <Gold.Chemscore.Internal.Correction>
   9.000000E+99

> <Gold.Chemscore.Hbonds>
donor molecule, donor type, donor heavy atom, donor atom, acceptor molecule, acceptor atom, score
      P1  H  7989  7998       L1    13  0.06
      P1  H  7997  8010       L1    16  0.24

> <Gold.Chemscore.Hbond.Weighted>
-2.9016

> <Gold.Chemscore.Metal.Weighted>
-0.0000

> <Gold.Chemscore.Lipo.Weighted>
-10.2081

> <Gold.Chemscore.Internal_Hbond.Weighted>
0.0000

> <Gold.Chemscore.DEClash.Weighted>
0.0060

> <Gold.Chemscore.DEInternal.Weighted>
0.2580

> <Gold.Chemscore.Rot.Weighted>
3.6589

> <Gold.Chemscore.Internal.Correction.Weighted>
   9.000000E+99

> <Gold.Protein.RotatedTorsions>
[ 6907 6896 6895 6894 ] final  -51.14 input  -60.11 | X-H torsion
[ 7974 7965 7964 7962 ] final  118.44 input  175.53 | X-H torsion
[ 8008 7997 7996 7995 ] final   78.15 input   59.86 | X-H torsion
[ 10167 10162 10161 10158 ] final  126.27 input  -65.29 | X-H torsion
[ 10718 10713 10712 10709 ] final -156.73 input   66.30 | X-H torsion
[ 10763 10752 10751 10750 ] final    4.41 input  -60.55 | X-H torsion
[ 11005 11000 10999 10996 ] final  132.93 input  -57.11 | X-H torsion

> <Gold.Protein.ActiveResidues>
 VAL166  LYS551  ARG553  GLY616  TRP617  ASP618  TYR619  PRO620  LYS621  CYS622 
 ASP623  PHE694  ASN695  SER759  ASP760  ASP761  ALA762  ILE779  LEU786  VAL792 
 PHE793  MET794  SER795  GLU796  ALA797  LYS798  CYS799  TRP800  GLU811  SER814 

> <Gold.Protein.RotatedAtoms>
  150.8640  134.7998  159.7103 H   0  0  0  0  0  0  0  0  0  0  0  0  # atno 6907 bound_to 6896
  152.4667  134.5054  159.9747 H   0  0  0  0  0  0  0  0  0  0  0  0  # atno 6908 bound_to 6896
  151.5154  133.3438  159.2927 H   0  0  0  0  0  0  0  0  0  0  0  0  # atno 6909 bound_to 6896
  145.1551  139.3187  143.4546 H   0  0  0  0  0  0  0  0  0  0  0  0  # atno 7974 bound_to 7965
  155.8517  140.3458  155.5697 H   0  0  0  0  0  0  0  0  0  0  0  0  # atno 8008 bound_to 7997
  155.8030  140.0888  157.1966 H   0  0  0  0  0  0  0  0  0  0  0  0  # atno 8009 bound_to 7997
  154.4008  140.1462  156.3285 H   0  0  0  0  0  0  0  0  0  0  0  0  # atno 8010 bound_to 7997
  139.5640  144.6900  151.3962 H   0  0  0  0  0  0  0  0  0  0  0  0  # atno 10167 bound_to 10162
  156.5306  130.8519  151.2715 H   0  0  0  0  0  0  0  0  0  0  0  0  # atno 10718 bound_to 10713
  153.2715  135.6932  153.7475 H   0  0  0  0  0  0  0  0  0  0  0  0  # atno 10763 bound_to 10752
  153.6497  135.3379  155.3097 H   0  0  0  0  0  0  0  0  0  0  0  0  # atno 10764 bound_to 10752
  154.8465  135.4451  154.1740 H   0  0  0  0  0  0  0  0  0  0  0  0  # atno 10765 bound_to 10752
  139.9820  134.9545  156.9652 H   0  0  0  0  0  0  0  0  0  0  0  0  # atno 11005 bound_to 11000
  146.3489  140.1641  142.8590 LP  0  0  0  0  0  0  0  0  0  0  0  0  # atno 17320 bound_to 7965
  145.0389  140.8930  143.5064 LP  0  0  0  0  0  0  0  0  0  0  0  0  # atno 17321 bound_to 7965
  140.6922  143.7833  150.7273 LP  0  0  0  0  0  0  0  0  0  0  0  0  # atno 17342 bound_to 10162
  140.1319  143.4518  152.2249 LP  0  0  0  0  0  0  0  0  0  0  0  0  # atno 17343 bound_to 10162
  157.7422  130.9886  150.2501 LP  0  0  0  0  0  0  0  0  0  0  0  0  # atno 17370 bound_to 10713
  156.3063  130.3765  149.7703 LP  0  0  0  0  0  0  0  0  0  0  0  0  # atno 17371 bound_to 10713
  140.5077  134.1033  155.7263 LP  0  0  0  0  0  0  0  0  0  0  0  0  # atno 17394 bound_to 11000
  141.1491  133.9002  157.2143 LP  0  0  0  0  0  0  0  0  0  0  0  0  # atno 17395 bound_to 11000

$$$$
