AV-unprocessed.smi:1567|AV-procd|sdf|6306|dock5
  -GOLD-   22720 6503D 1   1.00000     0.00000
 Structure written by MMmdl.
 42 44  0  0  0  0  0  0  0  0  1 V2000
  150.1114  136.6179  159.5462 O   0  0  0  0  0  0  0  0  0  0  0  0
  150.3211  137.2745  158.3143 C   0  0  0  0  0  0  0  0  0  0  0  0
  151.7499  137.0310  157.8083 C   0  0  0  0  0  0  0  0  0  0  0  0
  152.3286  138.2170  157.0182 C   0  0  0  0  0  0  0  0  0  0  0  0
  152.4285  139.4689  157.8440 C   0  0  0  0  0  0  0  0  0  0  0  0
  153.4839  139.6751  158.6339 N   0  0  0  0  0  0  0  0  0  0  0  0
  153.2090  140.8995  159.2065 C   0  0  0  0  0  0  0  0  0  0  0  0
  153.9535  141.6700  160.1279 C   0  0  0  0  0  0  0  0  0  0  0  0
  153.4608  142.9107  160.5824 C   0  0  0  0  0  0  0  0  0  0  0  0
  152.2188  143.3957  160.1243 C   0  0  0  0  0  0  0  0  0  0  0  0
  151.4613  142.6422  159.2070 C   0  0  0  0  0  0  0  0  0  0  0  0
  151.9592  141.4054  158.7540 C   0  0  0  0  0  0  0  0  0  0  0  0
  151.4746  140.4403  157.8750 N   0  0  0  0  0  0  0  0  0  0  0  0
  150.1927  140.5171  157.1816 C   0  0  0  0  0  0  0  0  0  0  0  0
  150.2667  141.3339  155.8764 C   0  0  2  0  0  0  0  0  0  0  0  0
  150.5109  142.6825  156.2211 O   0  0  0  0  0  0  0  0  0  0  0  0
  149.0235  141.1839  155.0083 C   0  0  0  0  0  0  0  0  0  0  0  0
  148.1080  142.2533  154.8890 C   0  0  0  0  0  0  0  0  0  0  0  0
  146.9636  142.1249  154.0786 C   0  0  0  0  0  0  0  0  0  0  0  0
  146.0900  143.1539  153.9736 F   0  0  0  0  0  0  0  0  0  0  0  0
  146.7262  140.9258  153.3807 C   0  0  0  0  0  0  0  0  0  0  0  0
  147.6308  139.8535  153.4999 C   0  0  0  0  0  0  0  0  0  0  0  0
  148.7744  139.9784  154.3129 C   0  0  0  0  0  0  0  0  0  0  0  0
  149.6285  138.9326  154.4216 F   0  0  0  0  0  0  0  0  0  0  0  0
  149.5000  137.1247  160.0585 H   0  0  0  0  0  0  0  0  0  0  0  0
  149.5996  136.8913  157.5923 H   0  0  0  0  0  0  0  0  0  0  0  0
  150.1246  138.3406  158.4301 H   0  0  0  0  0  0  0  0  0  0  0  0
  152.4022  136.7803  158.6458 H   0  0  0  0  0  0  0  0  0  0  0  0
  151.7408  136.1532  157.1645 H   0  0  0  0  0  0  0  0  0  0  0  0
  153.2977  137.9307  156.6188 H   0  0  0  0  0  0  0  0  0  0  0  0
  151.6989  138.4302  156.1540 H   0  0  0  0  0  0  0  0  0  0  0  0
  154.9050  141.3056  160.4859 H   0  0  0  0  0  0  0  0  0  0  0  0
  154.0380  143.4920  161.2863 H   0  0  0  0  0  0  0  0  0  0  0  0
  151.8478  144.3464  160.4780 H   0  0  0  0  0  0  0  0  0  0  0  0
  150.5095  143.0114  158.8553 H   0  0  0  0  0  0  0  0  0  0  0  0
  149.7809  139.5257  157.0075 H   0  0  0  0  0  0  0  0  0  0  0  0
  149.4906  140.9978  157.8643 H   0  0  0  0  0  0  0  0  0  0  0  0
  151.1392  141.0112  155.3080 H   0  0  0  0  0  0  0  0  0  0  0  0
  149.7008  143.1629  156.1424 H   0  0  0  0  0  0  0  0  0  0  0  0
  148.2808  143.1774  155.4208 H   0  0  0  0  0  0  0  0  0  0  0  0
  145.8485  140.8263  152.7592 H   0  0  0  0  0  0  0  0  0  0  0  0
  147.4451  138.9313  152.9696 H   0  0  0  0  0  0  0  0  0  0  0  0
  1  2  1  0  0  0  0
  1 25  1  0  0  0  0
  2  3  1  0  0  0  0
  2 26  1  0  0  0  0
  2 27  1  0  0  0  0
  3  4  1  0  0  0  0
  3 28  1  0  0  0  0
  3 29  1  0  0  0  0
  4  5  1  0  0  0  0
  4 30  1  0  0  0  0
  4 31  1  0  0  0  0
  5 13  1  0  0  0  0
  5  6  2  0  0  0  0
  6  7  1  0  0  0  0
  7 12  2  0  0  0  0
  7  8  1  0  0  0  0
  8  9  2  0  0  0  0
  8 32  1  0  0  0  0
  9 10  1  0  0  0  0
  9 33  1  0  0  0  0
 10 11  2  0  0  0  0
 10 34  1  0  0  0  0
 11 12  1  0  0  0  0
 11 35  1  0  0  0  0
 12 13  1  0  0  0  0
 13 14  1  0  0  0  0
 14 15  1  0  0  0  0
 14 36  1  0  0  0  0
 14 37  1  0  0  0  0
 15 16  1  0  0  0  0
 15 17  1  0  0  0  0
 15 38  1  0  0  0  0
 16 39  1  0  0  0  0
 17 23  1  0  0  0  0
 17 18  2  0  0  0  0
 18 19  1  0  0  0  0
 18 40  1  0  0  0  0
 19 20  1  0  0  0  0
 19 21  2  0  0  0  0
 21 22  1  0  0  0  0
 21 41  1  0  0  0  0
 22 23  2  0  0  0  0
 22 42  1  0  0  0  0
 23 24  1  0  0  0  0
M  END
> <s_m_source_file>
AV-unprocessed.smi

> <i_m_source_file_index>
1567

> <i_lp_mmshare_version>
43012

> <i_f3d_flags>
0

> <s_epik_input>
W09IXVtDSDJdW0NIMl1bQ0gyXWMobjEpbihjKGMxMilbY0hdW2NIXVtjSF1bY0hdMilbQ0gyXVtDQEhdKFtPSF0pYzNbY0hdYyhGKVtjSF1bY0hdYzNG

> <s_epik_cmdline>
J2VwaWtfcHl0aG9uJywgJy1waCcsICc3LjAnLCAnLXRuJywgJzgnLCAnLW1hJywgJzIwMCcsICctbWV0YWxfYmluZGluZycsICctaW1hZScsICc8aW5maWxlLm1hZT4nLCAnLW9tYWUnLCAnPG91dGZpbGUubWFlPic=

> <r_epik_Ionization_Penalty>
0.182562

> <r_epik_Ionization_Penalty_Charging>
0

> <r_epik_Ionization_Penalty_Neutral>
0.182562

> <r_epik_State_Penalty>
0.172086

> <r_epik_Charging_Adjusted_Penalty>
0.172086

> <i_epik_Tot_Q>
0

> <i_epik_Tot_abs_Q>
0

> <r_epik_Metal_State_Penalty>
0.000199649

> <b_epik_Metal_Only>
0

> <s_lp_Force_Field>
OPLS_2005

> <r_lp_Energy>
11.8794

> <b_lp_Chiralities_Consistent>
1

> <s_lp_Variant>
AV-unprocessed.smi:1567-1

> <Gold.Version>
5.8.1

> <Gold.Id.Protein>
6NUR|6NUR_protein|mol2

> <Gold.PLP.Fitness>
53.5818

> <Gold.PLP.PLP>
-47.1452

> <Gold.PLP.part.hbond>
-3.0000

> <Gold.PLP.part.metal>
0.0000

> <Gold.PLP.part.buried>
-0.3539

> <Gold.PLP.part.nonpolar>
-42.4091

> <Gold.PLP.part.repulsive>
0.0000

> <Gold.PLP.ligand.clash>
0.0000

> <Gold.PLP.ligand.torsion>
1.2602

> <Gold.PLP.Chemscore.Hbond>
2.9673

> <Gold.PLP.Chemscore.CHOScore>
0.0000

> <Gold.PLP.Chemscore.Metal>
0.0000

> <Gold.Chemscore.Hbonds>
donor molecule, donor type, donor heavy atom, donor atom, acceptor molecule, acceptor atom, score
      L1  H    16    39       P1  8028  0.94
      P1  H  6896  6908       L1     1  1.00
      P1  H  7997  8009       L1     6  1.00

> <Gold.PLP.Chemscore.Internal.Correction>
0.0552

> <Gold.Rescore>
     Score         DG    S(hbond)    S(metal)    S(lipo)     H(rot)  DE(clash)    DE(int)     intcor
     16.34     -19.35       2.26        0.00     124.57       3.23       1.76       1.24       ----

> <Gold.Chemscore.Fitness>
16.3449

> <Gold.Chemscore.DG>
-19.3490

> <Gold.Chemscore.ZeroCoef>
-5.4800

> <Gold.Chemscore.Hbond>
2.2630

> <Gold.Chemscore.Metal>
0.0000

> <Gold.Chemscore.Lipo>
124.5674

> <Gold.Chemscore.Internal_Hbond>
0.0000

> <Gold.Chemscore.DEClash>
1.7598

> <Gold.Chemscore.DEInternal>
1.2443

> <Gold.Chemscore.Rot>
3.2281

> <Gold.Chemscore.Internal.Correction>
   9.000000E+99

> <Gold.Chemscore.Hbonds>
donor molecule, donor type, donor heavy atom, donor atom, acceptor molecule, acceptor atom, score
      L1  H    16    39       P1  8028  0.91
      P1  H  6896  6908       L1     1  0.89
      P1  H  7997  8009       L1     6  0.15

> <Gold.Chemscore.Hbond.Weighted>
-7.5585

> <Gold.Chemscore.Metal.Weighted>
-0.0000

> <Gold.Chemscore.Lipo.Weighted>
-14.5744

> <Gold.Chemscore.Internal_Hbond.Weighted>
0.0000

> <Gold.Chemscore.DEClash.Weighted>
1.7598

> <Gold.Chemscore.DEInternal.Weighted>
1.2443

> <Gold.Chemscore.Rot.Weighted>
8.2639

> <Gold.Chemscore.Internal.Correction.Weighted>
   9.000000E+99

> <Gold.Protein.RotatedTorsions>
[ 6907 6896 6895 6894 ] final -174.32 input  -60.11 | X-H torsion
[ 7974 7965 7964 7962 ] final  115.14 input  175.53 | X-H torsion
[ 8008 7997 7996 7995 ] final  129.23 input   59.86 | X-H torsion
[ 10167 10162 10161 10158 ] final  -65.66 input  -65.29 | X-H torsion
[ 10718 10713 10712 10709 ] final  -67.33 input   66.30 | X-H torsion
[ 10763 10752 10751 10750 ] final  161.94 input  -60.55 | X-H torsion
[ 11005 11000 10999 10996 ] final   97.26 input  -57.11 | X-H torsion

> <Gold.Protein.ActiveResidues>
 VAL166  LYS551  ARG553  GLY616  TRP617  ASP618  TYR619  PRO620  LYS621  CYS622 
 ASP623  PHE694  ASN695  SER759  ASP760  ASP761  ALA762  ILE779  LEU786  VAL792 
 PHE793  MET794  SER795  GLU796  ALA797  LYS798  CYS799  TRP800  GLU811  SER814 

> <Gold.Protein.RotatedAtoms>
  151.5705  133.3390  159.2988 H   0  0  0  0  0  0  0  0  0  0  0  0  # atno 6907 bound_to 6896
  150.8370  134.7650  159.6912 H   0  0  0  0  0  0  0  0  0  0  0  0  # atno 6908 bound_to 6896
  152.4445  134.5530  159.9924 H   0  0  0  0  0  0  0  0  0  0  0  0  # atno 6909 bound_to 6896
  145.1956  139.2978  143.4345 H   0  0  0  0  0  0  0  0  0  0  0  0  # atno 7974 bound_to 7965
  156.2932  140.2625  156.2564 H   0  0  0  0  0  0  0  0  0  0  0  0  # atno 8008 bound_to 7997
  154.9832  140.0389  157.2305 H   0  0  0  0  0  0  0  0  0  0  0  0  # atno 8009 bound_to 7997
  154.7753  140.2785  155.6110 H   0  0  0  0  0  0  0  0  0  0  0  0  # atno 8010 bound_to 7997
  140.5714  143.2318  151.6531 H   0  0  0  0  0  0  0  0  0  0  0  0  # atno 10167 bound_to 10162
  156.0563  130.4276  150.1839 H   0  0  0  0  0  0  0  0  0  0  0  0  # atno 10718 bound_to 10713
  154.2707  135.2766  155.2739 H   0  0  0  0  0  0  0  0  0  0  0  0  # atno 10763 bound_to 10752
  154.5304  135.5731  153.6757 H   0  0  0  0  0  0  0  0  0  0  0  0  # atno 10764 bound_to 10752
  152.9945  135.6226  154.2862 H   0  0  0  0  0  0  0  0  0  0  0  0  # atno 10765 bound_to 10752
  139.8777  134.8992  156.4281 H   0  0  0  0  0  0  0  0  0  0  0  0  # atno 11005 bound_to 11000
  146.3427  140.2184  142.8591 LP  0  0  0  0  0  0  0  0  0  0  0  0  # atno 17320 bound_to 7965
  144.9998  140.8621  143.5289 LP  0  0  0  0  0  0  0  0  0  0  0  0  # atno 17321 bound_to 7965
  139.5119  144.3493  152.0667 LP  0  0  0  0  0  0  0  0  0  0  0  0  # atno 17342 bound_to 10162
  140.2631  144.4046  150.6178 LP  0  0  0  0  0  0  0  0  0  0  0  0  # atno 17343 bound_to 10162
  156.9914  130.9894  151.3413 LP  0  0  0  0  0  0  0  0  0  0  0  0  # atno 17370 bound_to 10713
  157.5536  130.8198  149.8176 LP  0  0  0  0  0  0  0  0  0  0  0  0  # atno 17371 bound_to 10713
  140.9086  133.7728  155.9765 LP  0  0  0  0  0  0  0  0  0  0  0  0  # atno 17394 bound_to 11000
  140.8571  134.2885  157.5250 LP  0  0  0  0  0  0  0  0  0  0  0  0  # atno 17395 bound_to 11000

$$$$
