AV-unprocessed.smi:1394|AV-procd|sdf|5665|dock9
  -GOLD-   22720 5283D 1   1.00000     0.00000
 Structure written by MMmdl.
 41 42  0  0  0  0  0  0  0  0  1 V2000
  147.2354  142.7419  158.7707 C   0  0  0  0  0  0  0  0  0  0  0  0
  146.7143  143.0946  157.3656 C   0  0  2  0  0  0  0  0  0  0  0  0
  145.1730  143.1462  157.3570 C   0  0  0  0  0  0  0  0  0  0  0  0
  144.6195  143.5059  155.9703 C   0  0  0  0  0  0  0  0  0  0  0  0
  145.1259  142.5240  154.9057 C   0  0  0  0  0  0  0  0  0  0  0  0
  146.6605  142.4738  154.8890 C   0  0  0  0  0  0  0  0  0  0  0  0
  147.2373  142.1232  156.2775 C   0  0  1  0  0  0  0  0  0  0  0  0
  148.6975  142.1580  156.2300 N   0  0  0  0  0  0  0  0  0  0  0  0
  149.5077  141.0927  156.3182 C   0  0  0  0  0  0  0  0  0  0  0  0
  149.0950  139.9374  156.4316 O   0  0  0  0  0  0  0  0  0  0  0  0
  151.0119  141.3939  156.2502 C   0  0  0  0  0  0  0  0  0  0  0  0
  151.5652  141.9326  157.5048 N   0  0  0  0  0  0  0  0  0  0  0  0
  151.1944  143.2442  157.8506 C   0  0  0  0  0  0  0  0  0  0  0  0
  151.6358  143.8298  158.9719 C   0  0  0  0  0  0  0  0  0  0  0  0
  152.5133  143.0770  159.8345 C   0  0  0  0  0  0  0  0  0  0  0  0
  152.8926  141.8153  159.5254 C   0  0  0  0  0  0  0  0  0  0  0  0
  153.8143  141.0022  160.4316 C   0  0  0  0  0  0  0  0  0  0  0  0
  153.3401  139.7669  160.5989 F   0  0  0  0  0  0  0  0  0  0  0  0
  155.0330  140.9118  159.8981 F   0  0  0  0  0  0  0  0  0  0  0  0
  153.9374  141.5570  161.6385 F   0  0  0  0  0  0  0  0  0  0  0  0
  152.4033  141.1808  158.2842 C   0  0  0  0  0  0  0  0  0  0  0  0
  152.7246  140.0369  157.9570 O   0  0  0  0  0  0  0  0  0  0  0  0
  146.9329  141.7358  159.0629 H   0  0  0  0  0  0  0  0  0  0  0  0
  146.8471  143.4351  159.5171 H   0  0  0  0  0  0  0  0  0  0  0  0
  148.3232  142.7901  158.8223 H   0  0  0  0  0  0  0  0  0  0  0  0
  147.0763  144.0961  157.1260 H   0  0  0  0  0  0  0  0  0  0  0  0
  144.7709  142.1810  157.6678 H   0  0  0  0  0  0  0  0  0  0  0  0
  144.8206  143.8754  158.0872 H   0  0  0  0  0  0  0  0  0  0  0  0
  143.5293  143.5017  155.9920 H   0  0  0  0  0  0  0  0  0  0  0  0
  144.9201  144.5206  155.7065 H   0  0  0  0  0  0  0  0  0  0  0  0
  144.7286  141.5282  155.1062 H   0  0  0  0  0  0  0  0  0  0  0  0
  144.7526  142.8148  153.9235 H   0  0  0  0  0  0  0  0  0  0  0  0
  146.9899  141.7437  154.1487 H   0  0  0  0  0  0  0  0  0  0  0  0
  147.0485  143.4395  154.5617 H   0  0  0  0  0  0  0  0  0  0  0  0
  146.9155  141.1141  156.5431 H   0  0  0  0  0  0  0  0  0  0  0  0
  149.1240  143.0682  156.1338 H   0  0  0  0  0  0  0  0  0  0  0  0
  151.5286  140.4754  155.9689 H   0  0  0  0  0  0  0  0  0  0  0  0
  151.2007  142.0875  155.4285 H   0  0  0  0  0  0  0  0  0  0  0  0
  150.5397  143.7400  157.1486 H   0  0  0  0  0  0  0  0  0  0  0  0
  151.3437  144.8391  159.2222 H   0  0  0  0  0  0  0  0  0  0  0  0
  152.8650  143.5449  160.7419 H   0  0  0  0  0  0  0  0  0  0  0  0
  1  2  1  0  0  0  0
  1 23  1  0  0  0  0
  1 24  1  0  0  0  0
  1 25  1  0  0  0  0
  2  7  1  0  0  0  0
  2  3  1  0  0  0  0
  2 26  1  0  0  0  0
  3  4  1  0  0  0  0
  3 27  1  0  0  0  0
  3 28  1  0  0  0  0
  4  5  1  0  0  0  0
  4 29  1  0  0  0  0
  4 30  1  0  0  0  0
  5  6  1  0  0  0  0
  5 31  1  0  0  0  0
  5 32  1  0  0  0  0
  6  7  1  0  0  0  0
  6 33  1  0  0  0  0
  6 34  1  0  0  0  0
  7  8  1  0  0  0  0
  7 35  1  0  0  0  0
  8  9  1  0  0  0  0
  8 36  1  0  0  0  0
  9 10  2  0  0  0  0
  9 11  1  0  0  0  0
 11 12  1  0  0  0  0
 11 37  1  0  0  0  0
 11 38  1  0  0  0  0
 12 21  1  0  0  0  0
 12 13  1  0  0  0  0
 13 14  2  0  0  0  0
 13 39  1  0  0  0  0
 14 15  1  0  0  0  0
 14 40  1  0  0  0  0
 15 16  2  0  0  0  0
 15 41  1  0  0  0  0
 16 17  1  0  0  0  0
 16 21  1  0  0  0  0
 17 18  1  0  0  0  0
 17 19  1  0  0  0  0
 17 20  1  0  0  0  0
 21 22  2  0  0  0  0
M  END
> <s_m_source_file>
AV-unprocessed.smi

> <i_m_source_file_index>
1394

> <i_lp_mmshare_version>
43012

> <i_f3d_flags>
0

> <s_epik_input>
W0NIM11bQ0BASF0xW0NIMl1bQ0gyXVtDSDJdW0NIMl1bQ0BIXTFbTkhdQyg9TylbQ0gyXW4yW2NIXVtjSF1bY0hdYyhDKEYpKEYpRiljMj1P

> <s_epik_cmdline>
J2VwaWtfcHl0aG9uJywgJy1waCcsICc3LjAnLCAnLXRuJywgJzgnLCAnLW1hJywgJzIwMCcsICctbWV0YWxfYmluZGluZycsICctaW1hZScsICc8aW5maWxlLm1hZT4nLCAnLW9tYWUnLCAnPG91dGZpbGUubWFlPic=

> <r_lp_tautomer_probability>
1

> <r_epik_Ionization_Penalty>
2.11487e-08

> <r_epik_Ionization_Penalty_Charging>
2.10183e-09

> <r_epik_Ionization_Penalty_Neutral>
1.90469e-08

> <r_epik_State_Penalty>
-0

> <r_epik_Charging_Adjusted_Penalty>
2.10183e-09

> <i_epik_Tot_Q>
0

> <i_epik_Tot_abs_Q>
0

> <r_epik_Metal_State_Penalty>
-0

> <b_epik_Metal_Only>
0

> <s_lp_Force_Field>
OPLS_2005

> <r_lp_Energy>
20.2228

> <b_lp_Chiralities_Consistent>
1

> <s_lp_Variant>
AV-unprocessed.smi:1394-1

> <Gold.Version>
5.8.1

> <Gold.Id.Protein>
6NUR|6NUR_protein|mol2

> <Gold.PLP.Fitness>
48.0293

> <Gold.PLP.PLP>
-40.4731

> <Gold.PLP.part.hbond>
-2.0000

> <Gold.PLP.part.metal>
0.0000

> <Gold.PLP.part.buried>
-3.4668

> <Gold.PLP.part.nonpolar>
-33.3977

> <Gold.PLP.part.repulsive>
0.0376

> <Gold.PLP.ligand.clash>
0.0000

> <Gold.PLP.ligand.torsion>
0.8900

> <Gold.PLP.Chemscore.Hbond>
2.0000

> <Gold.PLP.Chemscore.CHOScore>
1.0000

> <Gold.PLP.Chemscore.Metal>
0.0000

> <Gold.Chemscore.Hbonds>
donor molecule, donor type, donor heavy atom, donor atom, acceptor molecule, acceptor atom, score
      L1  H     8    36       P1  8028  0.91
      P1  H  7997  8008       L1    22  0.93
      L1  C    13    39       P1  8028  1.00

> <Gold.PLP.Chemscore.Internal.Correction>
0.3362

> <Gold.Rescore>
     Score         DG    S(hbond)    S(metal)    S(lipo)     H(rot)  DE(clash)    DE(int)     intcor
     15.00     -17.50       1.85        0.00      83.20       1.52       0.32       2.18       ----

> <Gold.Chemscore.Fitness>
14.9990

> <Gold.Chemscore.DG>
-17.5019

> <Gold.Chemscore.ZeroCoef>
-5.4800

> <Gold.Chemscore.Hbond>
1.8530

> <Gold.Chemscore.Metal>
0.0000

> <Gold.Chemscore.Lipo>
83.2032

> <Gold.Chemscore.Internal_Hbond>
0.0000

> <Gold.Chemscore.DEClash>
0.3200

> <Gold.Chemscore.DEInternal>
2.1830

> <Gold.Chemscore.Rot>
1.5242

> <Gold.Chemscore.Internal.Correction>
   9.000000E+99

> <Gold.Chemscore.Hbonds>
donor molecule, donor type, donor heavy atom, donor atom, acceptor molecule, acceptor atom, score
      L1  H     8    36       P1  8028  0.88
      P1  H  7997  8008       L1    22  0.64

> <Gold.Chemscore.Hbond.Weighted>
-6.1891

> <Gold.Chemscore.Metal.Weighted>
-0.0000

> <Gold.Chemscore.Lipo.Weighted>
-9.7348

> <Gold.Chemscore.Internal_Hbond.Weighted>
0.0000

> <Gold.Chemscore.DEClash.Weighted>
0.3200

> <Gold.Chemscore.DEInternal.Weighted>
2.1830

> <Gold.Chemscore.Rot.Weighted>
3.9019

> <Gold.Chemscore.Internal.Correction.Weighted>
   9.000000E+99

> <Gold.Protein.RotatedTorsions>
[ 6907 6896 6895 6894 ] final  148.96 input  -60.11 | X-H torsion
[ 7974 7965 7964 7962 ] final  -14.17 input  175.53 | X-H torsion
[ 8008 7997 7996 7995 ] final  -80.20 input   59.86 | X-H torsion
[ 10167 10162 10161 10158 ] final  -97.41 input  -65.29 | X-H torsion
[ 10718 10713 10712 10709 ] final    9.50 input   66.30 | X-H torsion
[ 10763 10752 10751 10750 ] final  108.68 input  -60.55 | X-H torsion
[ 11005 11000 10999 10996 ] final -103.39 input  -57.11 | X-H torsion

> <Gold.Protein.ActiveResidues>
 VAL166  LYS551  ARG553  GLY616  TRP617  ASP618  TYR619  PRO620  LYS621  CYS622 
 ASP623  PHE694  ASN695  SER759  ASP760  ASP761  ALA762  ILE779  LEU786  VAL792 
 PHE793  MET794  SER795  GLU796  ALA797  LYS798  CYS799  TRP800  GLU811  SER814 

> <Gold.Protein.RotatedAtoms>
  152.1345  133.4427  159.4736 H   0  0  0  0  0  0  0  0  0  0  0  0  # atno 6907 bound_to 6896
  150.6881  134.2380  159.4470 H   0  0  0  0  0  0  0  0  0  0  0  0  # atno 6908 bound_to 6896
  152.0266  134.9791  160.0622 H   0  0  0  0  0  0  0  0  0  0  0  0  # atno 6909 bound_to 6896
  146.2085  140.3309  142.8399 H   0  0  0  0  0  0  0  0  0  0  0  0  # atno 7974 bound_to 7965
  154.5859  140.0666  156.9171 H   0  0  0  0  0  0  0  0  0  0  0  0  # atno 8008 bound_to 7997
  155.2380  140.3342  155.4277 H   0  0  0  0  0  0  0  0  0  0  0  0  # atno 8009 bound_to 7997
  156.2222  140.1804  156.7433 H   0  0  0  0  0  0  0  0  0  0  0  0  # atno 8010 bound_to 7997
  140.2837  143.3265  152.0416 H   0  0  0  0  0  0  0  0  0  0  0  0  # atno 10167 bound_to 10162
  156.9673  130.5955  149.5666 H   0  0  0  0  0  0  0  0  0  0  0  0  # atno 10718 bound_to 10713
  153.4241  135.3804  155.2129 H   0  0  0  0  0  0  0  0  0  0  0  0  # atno 10763 bound_to 10752
  154.8746  135.3824  154.4348 H   0  0  0  0  0  0  0  0  0  0  0  0  # atno 10764 bound_to 10752
  153.4872  135.7088  153.5967 H   0  0  0  0  0  0  0  0  0  0  0  0  # atno 10765 bound_to 10752
  141.1148  133.8636  157.1480 H   0  0  0  0  0  0  0  0  0  0  0  0  # atno 11005 bound_to 11000
  144.8853  140.7454  143.5961 LP  0  0  0  0  0  0  0  0  0  0  0  0  # atno 17320 bound_to 7965
  145.3230  139.1782  143.4577 LP  0  0  0  0  0  0  0  0  0  0  0  0  # atno 17321 bound_to 7965
  139.4956  144.6574  151.6542 LP  0  0  0  0  0  0  0  0  0  0  0  0  # atno 17342 bound_to 10162
  140.5790  143.9978  150.6258 LP  0  0  0  0  0  0  0  0  0  0  0  0  # atno 17343 bound_to 10162
  156.0297  130.5389  150.8502 LP  0  0  0  0  0  0  0  0  0  0  0  0  # atno 17370 bound_to 10713
  157.5617  131.0946  150.9549 LP  0  0  0  0  0  0  0  0  0  0  0  0  # atno 17371 bound_to 10713
  140.0063  135.0007  157.0299 LP  0  0  0  0  0  0  0  0  0  0  0  0  # atno 17394 bound_to 11000
  140.4677  134.1418  155.7199 LP  0  0  0  0  0  0  0  0  0  0  0  0  # atno 17395 bound_to 11000

$$$$
