AV-unprocessed.smi:1645|AV-procd|sdf|6602|dock10
  -GOLD-   22720 7303D 1   1.00000     0.00000
 Structure written by MMmdl.
 55 58  0  0  0  0  0  0  0  0  2 V2000
  148.3997  135.7477  155.5396 O   0  0  0  0  0  0  0  0  0  0  0  0
  149.2542  135.4767  154.6966 C   0  0  0  0  0  0  0  0  0  0  0  0
  150.3573  136.2019  154.4467 N   0  0  0  0  0  0  0  0  0  0  0  0
  150.8220  137.3614  155.1235 C   0  0  0  0  0  0  0  0  0  0  0  0
  151.9663  138.0996  154.7427 C   0  0  0  0  0  0  0  0  0  0  0  0
  152.3095  139.2517  155.4761 C   0  0  0  0  0  0  0  0  0  0  0  0
  151.5000  139.6457  156.5674 C   0  0  0  0  0  0  0  0  0  0  0  0
  151.8236  140.8033  157.3086 N   0  0  0  0  0  0  0  0  0  0  0  0
  152.3031  140.6200  158.6812 C   0  0  0  0  0  0  0  0  0  0  0  0
  152.9601  141.9032  159.2179 C   0  0  0  0  0  0  0  0  0  0  0  0
  152.0165  143.1065  159.0790 C   0  0  0  0  0  0  0  0  0  0  0  0
  151.5559  143.2475  157.6209 C   0  0  0  0  0  0  0  0  0  0  0  0
  150.9231  141.9414  157.1112 C   0  0  0  0  0  0  0  0  0  0  0  0
  150.4019  138.9367  156.9270 N   0  0  0  0  0  0  0  0  0  0  0  0
  150.0747  137.8352  156.2199 C   0  0  0  0  0  0  0  0  0  0  0  0
  149.1782  134.4126  153.8849 N   0  0  0  0  0  0  0  0  0  0  0  0
  148.0992  133.4287  153.8901 C   0  0  2  0  0  0  0  0  0  0  0  0
  148.5840  131.9963  154.1384 C   0  0  0  0  0  0  0  0  0  0  0  0
  147.5722  131.1486  153.3698 C   0  0  0  0  0  0  0  0  0  0  0  0
  147.3192  131.9446  152.1603 N   0  3  1  0  0  0  0  0  0  0  0  0
  146.2611  131.4637  151.2343 C   0  0  0  0  0  0  0  0  0  0  0  0
  144.8761  132.0469  151.5367 C   0  0  0  0  0  0  0  0  0  0  0  0
  144.9518  133.5732  151.5873 C   0  0  0  0  0  0  0  0  0  0  0  0
  145.9061  133.9766  152.7115 C   0  0  0  0  0  0  0  0  0  0  0  0
  147.3282  133.3837  152.5443 C   0  0  1  0  0  0  0  0  0  0  0  0
  150.9137  135.9122  153.6558 H   0  0  0  0  0  0  0  0  0  0  0  0
  152.5766  137.8166  153.8993 H   0  0  0  0  0  0  0  0  0  0  0  0
  153.1894  139.8132  155.1993 H   0  0  0  0  0  0  0  0  0  0  0  0
  151.4642  140.3363  159.3183 H   0  0  0  0  0  0  0  0  0  0  0  0
  153.0282  139.8060  158.7206 H   0  0  0  0  0  0  0  0  0  0  0  0
  153.2436  141.7682  160.2618 H   0  0  0  0  0  0  0  0  0  0  0  0
  153.8821  142.0975  158.6684 H   0  0  0  0  0  0  0  0  0  0  0  0
  151.1504  142.9715  159.7281 H   0  0  0  0  0  0  0  0  0  0  0  0
  152.5163  144.0181  159.4075 H   0  0  0  0  0  0  0  0  0  0  0  0
  150.8425  144.0671  157.5322 H   0  0  0  0  0  0  0  0  0  0  0  0
  152.4080  143.5088  156.9919 H   0  0  0  0  0  0  0  0  0  0  0  0
  150.6549  142.0672  156.0630 H   0  0  0  0  0  0  0  0  0  0  0  0
  149.9945  141.7452  157.6489 H   0  0  0  0  0  0  0  0  0  0  0  0
  149.1862  137.3136  156.5448 H   0  0  0  0  0  0  0  0  0  0  0  0
  149.9244  134.2690  153.2204 H   0  0  0  0  0  0  0  0  0  0  0  0
  147.4182  133.6718  154.7081 H   0  0  0  0  0  0  0  0  0  0  0  0
  149.5793  131.8506  153.7148 H   0  0  0  0  0  0  0  0  0  0  0  0
  148.6302  131.7418  155.1976 H   0  0  0  0  0  0  0  0  0  0  0  0
  147.9544  130.1555  153.1319 H   0  0  0  0  0  0  0  0  0  0  0  0
  146.6481  131.0387  153.9398 H   0  0  0  0  0  0  0  0  0  0  0  0
  146.5530  131.7602  150.2260 H   0  0  0  0  0  0  0  0  0  0  0  0
  146.2310  130.3734  151.2346 H   0  0  0  0  0  0  0  0  0  0  0  0
  144.1673  131.7337  150.7694 H   0  0  0  0  0  0  0  0  0  0  0  0
  144.5017  131.6564  152.4839 H   0  0  0  0  0  0  0  0  0  0  0  0
  145.2966  133.9719  150.6323 H   0  0  0  0  0  0  0  0  0  0  0  0
  143.9618  133.9934  151.7675 H   0  0  0  0  0  0  0  0  0  0  0  0
  145.9652  135.0633  152.7765 H   0  0  0  0  0  0  0  0  0  0  0  0
  145.4673  133.6420  153.6527 H   0  0  0  0  0  0  0  0  0  0  0  0
  147.8552  133.9229  151.7554 H   0  0  0  0  0  0  0  0  0  0  0  0
  148.1753  131.8271  151.6377 H   0  0  0  0  0  0  0  0  0  0  0  0
  1  2  2  0  0  0  0
  2  3  1  0  0  0  0
  2 16  1  0  0  0  0
  3  4  1  0  0  0  0
  3 26  1  0  0  0  0
  4 15  1  0  0  0  0
  4  5  2  0  0  0  0
  5  6  1  0  0  0  0
  5 27  1  0  0  0  0
  6  7  2  0  0  0  0
  6 28  1  0  0  0  0
  7  8  1  0  0  0  0
  7 14  1  0  0  0  0
  8 13  1  0  0  0  0
  8  9  1  0  0  0  0
  9 10  1  0  0  0  0
  9 29  1  0  0  0  0
  9 30  1  0  0  0  0
 10 11  1  0  0  0  0
 10 31  1  0  0  0  0
 10 32  1  0  0  0  0
 11 12  1  0  0  0  0
 11 33  1  0  0  0  0
 11 34  1  0  0  0  0
 12 13  1  0  0  0  0
 12 35  1  0  0  0  0
 12 36  1  0  0  0  0
 13 37  1  0  0  0  0
 13 38  1  0  0  0  0
 14 15  2  0  0  0  0
 15 39  1  0  0  0  0
 16 17  1  0  0  0  0
 16 40  1  0  0  0  0
 17 25  1  0  0  0  0
 17 18  1  0  0  0  0
 17 41  1  0  0  0  0
 18 19  1  0  0  0  0
 18 42  1  0  0  0  0
 18 43  1  0  0  0  0
 19 20  1  0  0  0  0
 19 44  1  0  0  0  0
 19 45  1  0  0  0  0
 20 25  1  0  0  0  0
 20 21  1  0  0  0  0
 20 55  1  0  0  0  0
 21 22  1  0  0  0  0
 21 46  1  0  0  0  0
 21 47  1  0  0  0  0
 22 23  1  0  0  0  0
 22 48  1  0  0  0  0
 22 49  1  0  0  0  0
 23 24  1  0  0  0  0
 23 50  1  0  0  0  0
 23 51  1  0  0  0  0
 24 25  1  0  0  0  0
 24 52  1  0  0  0  0
 24 53  1  0  0  0  0
 25 54  1  0  0  0  0
M  CHG  1  20   1
M  END
> <s_m_source_file>
AV-unprocessed.smi

> <i_m_source_file_index>
1645

> <i_lp_mmshare_version>
43012

> <i_f3d_flags>
0

> <s_epik_input>
W0NIMl0xW0NIMl1bQ0gyXVtDSDJdW0NASF0oTjEyKVtDQEBIXShbQ0gyXVtDSDJdMilbTkhdQyg9TylbTkhdYzNbY0hdW2NIXWMobltjSF0zKU40W0NIMl1bQ0gyXVtDSDJdW0NIMl1bQ0gyXTQ=

> <s_epik_cmdline>
J2VwaWtfcHl0aG9uJywgJy1waCcsICc3LjAnLCAnLXRuJywgJzgnLCAnLW1hJywgJzIwMCcsICctbWV0YWxfYmluZGluZycsICctaW1hZScsICc8aW5maWxlLm1hZT4nLCAnLW9tYWUnLCAnPG91dGZpbGUubWFlPic=

> <r_lp_tautomer_probability>
1

> <r_epik_Ionization_Penalty>
0.0808019

> <r_epik_Ionization_Penalty_Charging>
0.000974069

> <r_epik_Ionization_Penalty_Neutral>
0.0798278

> <r_epik_State_Penalty>
0.0653665

> <r_epik_Charging_Adjusted_Penalty>
0.0663406

> <i_epik_Tot_Q>
1

> <i_epik_Tot_abs_Q>
1

> <r_epik_Metal_State_Penalty>
0.0585673

> <b_epik_Metal_Only>
0

> <s_lp_Force_Field>
OPLS_2005

> <r_lp_Energy>
57.6774

> <b_lp_Chiralities_Consistent>
1

> <s_lp_Variant>
AV-unprocessed.smi:1645-3

> <Gold.Version>
5.8.1

> <Gold.Id.Protein>
6NUR|6NUR_protein|mol2

> <Gold.PLP.Fitness>
45.5223

> <Gold.PLP.PLP>
-40.8963

> <Gold.PLP.part.hbond>
-4.0000

> <Gold.PLP.part.metal>
0.0000

> <Gold.PLP.part.buried>
-0.2224

> <Gold.PLP.part.nonpolar>
-36.2775

> <Gold.PLP.part.repulsive>
0.1494

> <Gold.PLP.ligand.clash>
0.0000

> <Gold.PLP.ligand.torsion>
0.2091

> <Gold.PLP.Chemscore.Hbond>
1.5458

> <Gold.PLP.Chemscore.CHOScore>
0.0000

> <Gold.PLP.Chemscore.Metal>
0.0000

> <Gold.Chemscore.Hbonds>
donor molecule, donor type, donor heavy atom, donor atom, acceptor molecule, acceptor atom, score
      L1  H     3    26       P1  7949  0.48
      L1  H    20    55       P1 10747  0.90

> <Gold.PLP.Chemscore.Internal.Correction>
0.4070

> <Gold.Rescore>
     Score         DG    S(hbond)    S(metal)    S(lipo)     H(rot)  DE(clash)    DE(int)     intcor
     17.06     -19.17       0.94        0.00     115.81       1.17       0.46       1.65       ----

> <Gold.Chemscore.Fitness>
17.0617

> <Gold.Chemscore.DG>
-19.1667

> <Gold.Chemscore.ZeroCoef>
-5.4800

> <Gold.Chemscore.Hbond>
0.9400

> <Gold.Chemscore.Metal>
0.0000

> <Gold.Chemscore.Lipo>
115.8139

> <Gold.Chemscore.Internal_Hbond>
0.0000

> <Gold.Chemscore.DEClash>
0.4590

> <Gold.Chemscore.DEInternal>
1.6461

> <Gold.Chemscore.Rot>
1.1731

> <Gold.Chemscore.Internal.Correction>
   9.000000E+99

> <Gold.Chemscore.Hbonds>
donor molecule, donor type, donor heavy atom, donor atom, acceptor molecule, acceptor atom, score
      L1  H     3    26       P1  7949  0.07
      L1  H    20    55       P1 10747  0.88

> <Gold.Chemscore.Hbond.Weighted>
-3.1397

> <Gold.Chemscore.Metal.Weighted>
-0.0000

> <Gold.Chemscore.Lipo.Weighted>
-13.5502

> <Gold.Chemscore.Internal_Hbond.Weighted>
0.0000

> <Gold.Chemscore.DEClash.Weighted>
0.4590

> <Gold.Chemscore.DEInternal.Weighted>
1.6461

> <Gold.Chemscore.Rot.Weighted>
3.0032

> <Gold.Chemscore.Internal.Correction.Weighted>
   9.000000E+99

> <Gold.Protein.RotatedTorsions>
[ 6907 6896 6895 6894 ] final -149.21 input  -60.11 | X-H torsion
[ 7974 7965 7964 7962 ] final   10.50 input  175.53 | X-H torsion
[ 8008 7997 7996 7995 ] final -143.34 input   59.86 | X-H torsion
[ 10167 10162 10161 10158 ] final    6.93 input  -65.29 | X-H torsion
[ 10718 10713 10712 10709 ] final  156.15 input   66.30 | X-H torsion
[ 10763 10752 10751 10750 ] final -108.94 input  -60.55 | X-H torsion
[ 11005 11000 10999 10996 ] final   74.34 input  -57.11 | X-H torsion

> <Gold.Protein.ActiveResidues>
 VAL166  LYS551  ARG553  GLY616  TRP617  ASP618  TYR619  PRO620  LYS621  CYS622 
 ASP623  PHE694  ASN695  SER759  ASP760  ASP761  ALA762  ILE779  LEU786  VAL792 
 PHE793  MET794  SER795  GLU796  ALA797  LYS798  CYS799  TRP800  GLU811  SER814 

> <Gold.Protein.RotatedAtoms>
  151.1808  133.4726  159.2593 H   0  0  0  0  0  0  0  0  0  0  0  0  # atno 6907 bound_to 6896
  151.1261  135.0105  159.8571 H   0  0  0  0  0  0  0  0  0  0  0  0  # atno 6908 bound_to 6896
  152.5458  134.1715  159.8652 H   0  0  0  0  0  0  0  0  0  0  0  0  # atno 6909 bound_to 6896
  146.2387  139.9625  142.8457 H   0  0  0  0  0  0  0  0  0  0  0  0  # atno 7974 bound_to 7965
  155.5091  140.0582  157.2926 H   0  0  0  0  0  0  0  0  0  0  0  0  # atno 8008 bound_to 7997
  154.4558  140.1972  156.0331 H   0  0  0  0  0  0  0  0  0  0  0  0  # atno 8009 bound_to 7997
  156.0797  140.3249  155.7682 H   0  0  0  0  0  0  0  0  0  0  0  0  # atno 8010 bound_to 7997
  140.6400  143.7795  150.7415 H   0  0  0  0  0  0  0  0  0  0  0  0  # atno 10167 bound_to 10162
  157.2089  131.0693  151.1981 H   0  0  0  0  0  0  0  0  0  0  0  0  # atno 10718 bound_to 10713
  154.8164  135.4619  154.0656 H   0  0  0  0  0  0  0  0  0  0  0  0  # atno 10763 bound_to 10752
  153.2045  135.6873  153.8196 H   0  0  0  0  0  0  0  0  0  0  0  0  # atno 10764 bound_to 10752
  153.7669  135.3276  155.3323 H   0  0  0  0  0  0  0  0  0  0  0  0  # atno 10765 bound_to 10752
  139.9396  134.7424  156.1136 H   0  0  0  0  0  0  0  0  0  0  0  0  # atno 11005 bound_to 11000
  145.1757  140.9743  143.4295 LP  0  0  0  0  0  0  0  0  0  0  0  0  # atno 17320 bound_to 7965
  144.9988  139.3619  143.6178 LP  0  0  0  0  0  0  0  0  0  0  0  0  # atno 17321 bound_to 7965
  140.1425  143.4429  152.2184 LP  0  0  0  0  0  0  0  0  0  0  0  0  # atno 17342 bound_to 10162
  139.5610  144.7405  151.4156 LP  0  0  0  0  0  0  0  0  0  0  0  0  # atno 17343 bound_to 10162
  157.3693  130.7172  149.6554 LP  0  0  0  0  0  0  0  0  0  0  0  0  # atno 17370 bound_to 10713
  155.9692  130.4203  150.4418 LP  0  0  0  0  0  0  0  0  0  0  0  0  # atno 17371 bound_to 10713
  141.1024  133.6672  156.2786 LP  0  0  0  0  0  0  0  0  0  0  0  0  # atno 17394 bound_to 11000
  140.5987  134.5577  157.5513 LP  0  0  0  0  0  0  0  0  0  0  0  0  # atno 17395 bound_to 11000

$$$$
