AV-unprocessed.smi:3331|AV-procd|sdf|12822|dock7
  -GOLD-   2272019193D 1   1.00000     0.00000
 Structure written by MMmdl.
 47 48  0  0  0  0  0  0  0  0  2 V2000
  151.1131  139.6679  155.2747 C   0  0  0  0  0  0  0  0  0  0  0  0
  149.6173  139.9174  155.0376 C   0  0  1  0  0  0  0  0  0  0  0  0
  149.3322  141.4080  154.7420 C   0  0  0  0  0  0  0  0  0  0  0  0
  147.8584  141.6768  154.3608 C   0  0  2  0  0  0  0  0  0  0  0  0
  146.9299  141.6741  155.5888 C   0  0  0  0  0  0  0  0  0  0  0  0
  147.4107  140.6816  153.2676 C   0  0  0  0  0  0  0  0  0  0  0  0
  147.6336  139.3049  153.7321 N   0  0  0  0  0  0  0  0  0  0  0  0
  146.6763  138.4058  154.0742 C   0  0  0  0  0  0  0  0  0  0  0  0
  145.4754  138.6786  154.0185 O   0  0  0  0  0  0  0  0  0  0  0  0
  147.0735  136.9917  154.5508 C   0  0  1  0  0  0  0  0  0  0  0  0
  146.3987  136.6791  155.8960 C   0  0  0  0  0  0  0  0  0  0  0  0
  146.7037  135.9546  153.5589 N   0  3  0  0  0  0  0  0  0  0  0  0
  145.3405  136.0831  152.9999 C   0  0  0  0  0  0  0  0  0  0  0  0
  145.3304  135.7724  151.4970 C   0  0  0  0  0  0  0  0  0  0  0  0
  145.1684  134.3540  151.2430 N   0  0  0  0  0  0  0  0  0  0  0  0
  143.9998  133.6300  151.1315 C   0  0  0  0  0  0  0  0  0  0  0  0
  144.3483  132.3309  150.8955 C   0  0  0  0  0  0  0  0  0  0  0  0
  145.7710  132.3590  150.8834 C   0  0  0  0  0  0  0  0  0  0  0  0
  146.2589  133.5713  151.0934 N   0  0  0  0  0  0  0  0  0  0  0  0
  149.0670  139.0305  153.9005 C   0  0  0  0  0  0  0  0  0  0  0  0
  151.7015  139.9087  154.3889 H   0  0  0  0  0  0  0  0  0  0  0  0
  151.3018  138.6236  155.5258 H   0  0  0  0  0  0  0  0  0  0  0  0
  151.4862  140.2766  156.0987 H   0  0  0  0  0  0  0  0  0  0  0  0
  149.0950  139.6473  155.9564 H   0  0  0  0  0  0  0  0  0  0  0  0
  149.6228  142.0267  155.5920 H   0  0  0  0  0  0  0  0  0  0  0  0
  149.9648  141.7258  153.9119 H   0  0  0  0  0  0  0  0  0  0  0  0
  147.8077  142.6799  153.9350 H   0  0  0  0  0  0  0  0  0  0  0  0
  146.9217  140.7086  156.0945 H   0  0  0  0  0  0  0  0  0  0  0  0
  145.9040  141.9072  155.3035 H   0  0  0  0  0  0  0  0  0  0  0  0
  147.2437  142.4229  156.3166 H   0  0  0  0  0  0  0  0  0  0  0  0
  146.3896  140.8878  152.9539 H   0  0  0  0  0  0  0  0  0  0  0  0
  148.0074  140.8427  152.3682 H   0  0  0  0  0  0  0  0  0  0  0  0
  148.1525  136.9150  154.6743 H   0  0  0  0  0  0  0  0  0  0  0  0
  146.6702  137.4074  156.6608 H   0  0  0  0  0  0  0  0  0  0  0  0
  146.6965  135.6966  156.2636 H   0  0  0  0  0  0  0  0  0  0  0  0
  145.3114  136.6831  155.8082 H   0  0  0  0  0  0  0  0  0  0  0  0
  147.3553  136.0111  152.7895 H   0  0  0  0  0  0  0  0  0  0  0  0
  144.6626  135.4043  153.5187 H   0  0  0  0  0  0  0  0  0  0  0  0
  144.9761  137.0962  153.1758 H   0  0  0  0  0  0  0  0  0  0  0  0
  144.5218  136.3092  150.9983 H   0  0  0  0  0  0  0  0  0  0  0  0
  146.2627  136.1018  151.0361 H   0  0  0  0  0  0  0  0  0  0  0  0
  143.0284  134.0926  151.2275 H   0  0  0  0  0  0  0  0  0  0  0  0
  143.6877  131.4884  150.7547 H   0  0  0  0  0  0  0  0  0  0  0  0
  146.4581  131.5399  150.7299 H   0  0  0  0  0  0  0  0  0  0  0  0
  149.5893  139.2445  152.9665 H   0  0  0  0  0  0  0  0  0  0  0  0
  149.2735  137.9812  154.1159 H   0  0  0  0  0  0  0  0  0  0  0  0
  146.7975  135.0485  153.9958 H   0  0  0  0  0  0  0  0  0  0  0  0
  1  2  1  0  0  0  0
  1 21  1  0  0  0  0
  1 22  1  0  0  0  0
  1 23  1  0  0  0  0
  2 20  1  0  0  0  0
  2  3  1  0  0  0  0
  2 24  1  0  0  0  0
  3  4  1  0  0  0  0
  3 25  1  0  0  0  0
  3 26  1  0  0  0  0
  4  5  1  0  0  0  0
  4  6  1  0  0  0  0
  4 27  1  0  0  0  0
  5 28  1  0  0  0  0
  5 29  1  0  0  0  0
  5 30  1  0  0  0  0
  6  7  1  0  0  0  0
  6 31  1  0  0  0  0
  6 32  1  0  0  0  0
  7  8  1  0  0  0  0
  7 20  1  0  0  0  0
  8  9  2  0  0  0  0
  8 10  1  0  0  0  0
 10 11  1  0  0  0  0
 10 12  1  0  0  0  0
 10 33  1  0  0  0  0
 11 34  1  0  0  0  0
 11 35  1  0  0  0  0
 11 36  1  0  0  0  0
 12 13  1  0  0  0  0
 12 37  1  0  0  0  0
 12 47  1  0  0  0  0
 13 14  1  0  0  0  0
 13 38  1  0  0  0  0
 13 39  1  0  0  0  0
 14 15  1  0  0  0  0
 14 40  1  0  0  0  0
 14 41  1  0  0  0  0
 15 19  1  0  0  0  0
 15 16  1  0  0  0  0
 16 17  2  0  0  0  0
 16 42  1  0  0  0  0
 17 18  1  0  0  0  0
 17 43  1  0  0  0  0
 18 19  2  0  0  0  0
 18 44  1  0  0  0  0
 20 45  1  0  0  0  0
 20 46  1  0  0  0  0
M  CHG  1  12   1
M  END
> <s_m_source_file>
AV-unprocessed.smi

> <i_m_source_file_index>
3331

> <i_lp_mmshare_version>
43012

> <i_f3d_flags>
0

> <s_epik_input>
W0NIM11bQ0BASF0xW0NIMl1bQ0BASF0oW0NIM10pW0NIMl1OKFtDSDJdMSlDKD1PKVtDQEhdKFtDSDNdKVtOSF1bQ0gyXVtDSDJdbjJbY0hdW2NIXVtjSF1uMg==

> <s_epik_cmdline>
J2VwaWtfcHl0aG9uJywgJy1waCcsICc3LjAnLCAnLXRuJywgJzgnLCAnLW1hJywgJzIwMCcsICctbWV0YWxfYmluZGluZycsICctaW1hZScsICc8aW5maWxlLm1hZT4nLCAnLW9tYWUnLCAnPG91dGZpbGUubWFlPic=

> <r_lp_tautomer_probability>
1

> <r_epik_Ionization_Penalty>
0.189706

> <r_epik_Ionization_Penalty_Charging>
0.189703

> <r_epik_Ionization_Penalty_Neutral>
2.45875e-06

> <r_epik_State_Penalty>
0.179341

> <r_epik_Charging_Adjusted_Penalty>
0.369044

> <i_epik_Tot_Q>
1

> <i_epik_Tot_abs_Q>
1

> <r_epik_Metal_State_Penalty>
0.179578

> <b_epik_Metal_Only>
0

> <s_lp_Force_Field>
OPLS_2005

> <r_lp_Energy>
28.0969

> <b_lp_Chiralities_Consistent>
1

> <s_lp_Variant>
AV-unprocessed.smi:3331-6

> <Gold.Version>
5.8.1

> <Gold.Id.Protein>
6NUR|6NUR_protein|mol2

> <Gold.PLP.Fitness>
42.9765

> <Gold.PLP.PLP>
-33.0389

> <Gold.PLP.part.hbond>
-1.0000

> <Gold.PLP.part.metal>
0.0000

> <Gold.PLP.part.buried>
-1.7492

> <Gold.PLP.part.nonpolar>
-31.7734

> <Gold.PLP.part.repulsive>
1.6474

> <Gold.PLP.ligand.clash>
0.0000

> <Gold.PLP.ligand.torsion>
1.0602

> <Gold.PLP.Chemscore.Hbond>
2.0000

> <Gold.PLP.Chemscore.CHOScore>
2.0000

> <Gold.PLP.Chemscore.Metal>
0.0000

> <Gold.Chemscore.Hbonds>
donor molecule, donor type, donor heavy atom, donor atom, acceptor molecule, acceptor atom, score
      L1  H    12    37       P1  7948  2.00
      L1  C    16    42       P1 10186  0.73
      L1  C    18    44       P1 10747  0.71

> <Gold.PLP.Chemscore.Internal.Correction>
0.0579

> <Gold.Rescore>
     Score         DG    S(hbond)    S(metal)    S(lipo)     H(rot)  DE(clash)    DE(int)     intcor
     10.93     -13.42       1.00        0.00      77.08       1.73       0.13       2.36       ----

> <Gold.Chemscore.Fitness>
10.9291

> <Gold.Chemscore.DG>
-13.4199

> <Gold.Chemscore.ZeroCoef>
-5.4800

> <Gold.Chemscore.Hbond>
0.9997

> <Gold.Chemscore.Metal>
0.0000

> <Gold.Chemscore.Lipo>
77.0773

> <Gold.Chemscore.Internal_Hbond>
0.0000

> <Gold.Chemscore.DEClash>
0.1280

> <Gold.Chemscore.DEInternal>
2.3628

> <Gold.Chemscore.Rot>
1.7254

> <Gold.Chemscore.Internal.Correction>
   9.000000E+99

> <Gold.Chemscore.Hbonds>
donor molecule, donor type, donor heavy atom, donor atom, acceptor molecule, acceptor atom, score
      L1  H    12    37       P1  7948  1.00

> <Gold.Chemscore.Hbond.Weighted>
-3.3389

> <Gold.Chemscore.Metal.Weighted>
-0.0000

> <Gold.Chemscore.Lipo.Weighted>
-9.0180

> <Gold.Chemscore.Internal_Hbond.Weighted>
0.0000

> <Gold.Chemscore.DEClash.Weighted>
0.1280

> <Gold.Chemscore.DEInternal.Weighted>
2.3628

> <Gold.Chemscore.Rot.Weighted>
4.4170

> <Gold.Chemscore.Internal.Correction.Weighted>
   9.000000E+99

> <Gold.Protein.RotatedTorsions>
[ 6907 6896 6895 6894 ] final -117.48 input  -60.11 | X-H torsion
[ 7974 7965 7964 7962 ] final  120.49 input  175.53 | X-H torsion
[ 8008 7997 7996 7995 ] final  -95.72 input   59.86 | X-H torsion
[ 10167 10162 10161 10158 ] final -171.99 input  -65.29 | X-H torsion
[ 10718 10713 10712 10709 ] final   86.22 input   66.30 | X-H torsion
[ 10763 10752 10751 10750 ] final   32.58 input  -60.55 | X-H torsion
[ 11005 11000 10999 10996 ] final -114.28 input  -57.11 | X-H torsion

> <Gold.Protein.ActiveResidues>
 VAL166  LYS551  ARG553  GLY616  TRP617  ASP618  TYR619  PRO620  LYS621  CYS622 
 ASP623  PHE694  ASN695  SER759  ASP760  ASP761  ALA762  ILE779  LEU786  VAL792 
 PHE793  MET794  SER795  GLU796  ALA797  LYS798  CYS799  TRP800  GLU811  SER814 

> <Gold.Protein.RotatedAtoms>
  150.8140  133.8370  159.3168 H   0  0  0  0  0  0  0  0  0  0  0  0  # atno 6907 bound_to 6896
  151.6148  135.1035  160.0098 H   0  0  0  0  0  0  0  0  0  0  0  0  # atno 6908 bound_to 6896
  152.4232  133.7110  159.6535 H   0  0  0  0  0  0  0  0  0  0  0  0  # atno 6909 bound_to 6896
  145.1305  139.3330  143.4667 H   0  0  0  0  0  0  0  0  0  0  0  0  # atno 7974 bound_to 7965
  154.7651  140.0477  157.1005 H   0  0  0  0  0  0  0  0  0  0  0  0  # atno 8008 bound_to 7997
  154.9890  140.3111  155.4895 H   0  0  0  0  0  0  0  0  0  0  0  0  # atno 8009 bound_to 7997
  156.2911  140.2222  156.4993 H   0  0  0  0  0  0  0  0  0  0  0  0  # atno 8010 bound_to 7997
  139.5770  144.1510  152.1464 H   0  0  0  0  0  0  0  0  0  0  0  0  # atno 10167 bound_to 10162
  157.6926  131.0206  150.2939 H   0  0  0  0  0  0  0  0  0  0  0  0  # atno 10718 bound_to 10713
  153.0255  135.6409  154.1377 H   0  0  0  0  0  0  0  0  0  0  0  0  # atno 10763 bound_to 10752
  154.1107  135.2853  155.3233 H   0  0  0  0  0  0  0  0  0  0  0  0  # atno 10764 bound_to 10752
  154.6334  135.5485  153.7768 H   0  0  0  0  0  0  0  0  0  0  0  0  # atno 10765 bound_to 10752
  141.0562  133.9609  157.2750 H   0  0  0  0  0  0  0  0  0  0  0  0  # atno 11005 bound_to 11000
  146.3514  140.1302  142.8597 LP  0  0  0  0  0  0  0  0  0  0  0  0  # atno 17320 bound_to 7965
  145.0640  140.9108  143.4921 LP  0  0  0  0  0  0  0  0  0  0  0  0  # atno 17321 bound_to 7965
  140.1055  144.5503  150.6960 LP  0  0  0  0  0  0  0  0  0  0  0  0  # atno 17342 bound_to 10162
  140.7052  143.2463  151.4748 LP  0  0  0  0  0  0  0  0  0  0  0  0  # atno 17343 bound_to 10162
  156.3466  130.3824  149.7364 LP  0  0  0  0  0  0  0  0  0  0  0  0  # atno 17370 bound_to 10713
  156.4855  130.8061  151.3073 LP  0  0  0  0  0  0  0  0  0  0  0  0  # atno 17371 bound_to 10713
  139.9392  135.0193  156.8654 LP  0  0  0  0  0  0  0  0  0  0  0  0  # atno 17394 bound_to 11000
  140.5960  134.0217  155.7518 LP  0  0  0  0  0  0  0  0  0  0  0  0  # atno 17395 bound_to 11000

$$$$
