AV-unprocessed.smi:172|AV-procd|sdf|1422|dock4
  -GOLD-   2262019193D 1   1.00000     0.00000
 Structure written by MMmdl.
 56 60  0  0  0  0  0  0  0  0  1 V2000
  142.7712  132.0959  148.8483 O   0  0  0  0  0  0  0  0  0  0  0  0
  144.0267  132.7468  148.8221 C   0  0  0  0  0  0  0  0  0  0  0  0
  144.3835  133.4063  150.1697 C   0  0  0  0  0  0  0  0  0  0  0  0
  144.1090  134.9253  150.1278 C   0  0  0  0  0  0  0  0  0  0  0  0
  144.6094  135.6690  151.2728 N   0  0  0  0  0  0  0  0  0  0  0  0
  145.7952  136.3672  151.3423 C   0  0  0  0  0  0  0  0  0  0  0  0
  146.0354  136.9481  152.4858 N   0  0  0  0  0  0  0  0  0  0  0  0
  144.9245  136.6357  153.2573 C   0  0  0  0  0  0  0  0  0  0  0  0
  144.5372  136.9324  154.5900 C   0  0  0  0  0  0  0  0  0  0  0  0
  145.3258  137.6566  155.4203 N   0  0  0  0  0  0  0  0  0  0  0  0
  144.9771  137.4282  156.8292 C   0  0  0  0  0  0  0  0  0  0  0  0
  146.1556  137.0457  157.7161 C   0  0  0  0  0  0  0  0  0  0  0  0
  146.1449  137.3940  159.1858 C   0  0  0  0  0  0  0  0  0  0  0  0
  147.0957  138.1002  158.2499 C   0  0  0  0  0  0  0  0  0  0  0  0
  145.5323  139.0473  154.9706 C   0  0  0  0  0  0  0  0  0  0  0  0
  146.7097  139.1710  153.9618 C   0  0  0  0  0  0  0  0  0  0  0  0
  146.9433  140.6185  153.5042 C   0  0  0  0  0  0  0  0  0  0  0  0
  147.1915  141.5453  154.6993 C   0  0  0  0  0  0  0  0  0  0  0  0
  146.0280  141.4610  155.6937 C   0  0  0  0  0  0  0  0  0  0  0  0
  145.7847  140.0151  156.1556 C   0  0  0  0  0  0  0  0  0  0  0  0
  143.3445  136.4526  155.0313 N   0  0  0  0  0  0  0  0  0  0  0  0
  142.5771  135.7266  154.2126 C   0  0  0  0  0  0  0  0  0  0  0  0
  142.8111  135.3668  152.9482 N   0  0  0  0  0  0  0  0  0  0  0  0
  144.0110  135.8437  152.5085 C   0  0  0  0  0  0  0  0  0  0  0  0
  143.7780  132.6930  151.3880 C   0  0  0  0  0  0  0  0  0  0  0  0
  145.0240  132.0339  151.6938 O   0  0  0  0  0  0  0  0  0  0  0  0
  145.7048  132.9476  150.8089 C   0  0  0  0  0  0  0  0  0  0  0  0
  142.1227  132.7044  149.1684 H   0  0  0  0  0  0  0  0  0  0  0  0
  144.7902  132.0284  148.5224 H   0  0  0  0  0  0  0  0  0  0  0  0
  143.9819  133.4937  148.0288 H   0  0  0  0  0  0  0  0  0  0  0  0
  144.5452  135.3594  149.2273 H   0  0  0  0  0  0  0  0  0  0  0  0
  143.0377  135.1174  150.0541 H   0  0  0  0  0  0  0  0  0  0  0  0
  146.4886  136.4202  150.5156 H   0  0  0  0  0  0  0  0  0  0  0  0
  144.5411  138.3307  157.2531 H   0  0  0  0  0  0  0  0  0  0  0  0
  144.2158  136.6498  156.8964 H   0  0  0  0  0  0  0  0  0  0  0  0
  146.5982  136.0783  157.4847 H   0  0  0  0  0  0  0  0  0  0  0  0
  145.3009  137.9651  159.5677 H   0  0  0  0  0  0  0  0  0  0  0  0
  146.5673  136.6673  159.8769 H   0  0  0  0  0  0  0  0  0  0  0  0
  148.1510  137.8417  158.3086 H   0  0  0  0  0  0  0  0  0  0  0  0
  146.8826  139.1381  158.0023 H   0  0  0  0  0  0  0  0  0  0  0  0
  144.6187  139.3698  154.4685 H   0  0  0  0  0  0  0  0  0  0  0  0
  147.6225  138.7833  154.4165 H   0  0  0  0  0  0  0  0  0  0  0  0
  146.5320  138.5680  153.0711 H   0  0  0  0  0  0  0  0  0  0  0  0
  147.7925  140.6590  152.8216 H   0  0  0  0  0  0  0  0  0  0  0  0
  146.0770  140.9685  152.9416 H   0  0  0  0  0  0  0  0  0  0  0  0
  148.1221  141.2666  155.1953 H   0  0  0  0  0  0  0  0  0  0  0  0
  147.3164  142.5727  154.3562 H   0  0  0  0  0  0  0  0  0  0  0  0
  146.2313  142.0963  156.5563 H   0  0  0  0  0  0  0  0  0  0  0  0
  145.1216  141.8521  155.2297 H   0  0  0  0  0  0  0  0  0  0  0  0
  144.9310  140.0343  156.8315 H   0  0  0  0  0  0  0  0  0  0  0  0
  146.6393  139.6694  156.7389 H   0  0  0  0  0  0  0  0  0  0  0  0
  141.6436  135.3813  154.6315 H   0  0  0  0  0  0  0  0  0  0  0  0
  143.4717  133.3665  152.1904 H   0  0  0  0  0  0  0  0  0  0  0  0
  142.9783  131.9918  151.1471 H   0  0  0  0  0  0  0  0  0  0  0  0
  146.3870  132.4400  150.1262 H   0  0  0  0  0  0  0  0  0  0  0  0
  146.2243  133.7273  151.3671 H   0  0  0  0  0  0  0  0  0  0  0  0
  1  2  1  0  0  0  0
  1 28  1  0  0  0  0
  2  3  1  0  0  0  0
  2 29  1  0  0  0  0
  2 30  1  0  0  0  0
  3 27  1  0  0  0  0
  3  4  1  0  0  0  0
  3 25  1  0  0  0  0
  4  5  1  0  0  0  0
  4 31  1  0  0  0  0
  4 32  1  0  0  0  0
  5 24  1  0  0  0  0
  5  6  1  0  0  0  0
  6  7  2  0  0  0  0
  6 33  1  0  0  0  0
  7  8  1  0  0  0  0
  8 24  2  0  0  0  0
  8  9  1  0  0  0  0
  9 10  1  0  0  0  0
  9 21  2  0  0  0  0
 10 11  1  0  0  0  0
 10 15  1  0  0  0  0
 11 12  1  0  0  0  0
 11 34  1  0  0  0  0
 11 35  1  0  0  0  0
 12 14  1  0  0  0  0
 12 13  1  0  0  0  0
 12 36  1  0  0  0  0
 13 14  1  0  0  0  0
 13 37  1  0  0  0  0
 13 38  1  0  0  0  0
 14 39  1  0  0  0  0
 14 40  1  0  0  0  0
 15 20  1  0  0  0  0
 15 16  1  0  0  0  0
 15 41  1  0  0  0  0
 16 17  1  0  0  0  0
 16 42  1  0  0  0  0
 16 43  1  0  0  0  0
 17 18  1  0  0  0  0
 17 44  1  0  0  0  0
 17 45  1  0  0  0  0
 18 19  1  0  0  0  0
 18 46  1  0  0  0  0
 18 47  1  0  0  0  0
 19 20  1  0  0  0  0
 19 48  1  0  0  0  0
 19 49  1  0  0  0  0
 20 50  1  0  0  0  0
 20 51  1  0  0  0  0
 21 22  1  0  0  0  0
 22 23  2  0  0  0  0
 22 52  1  0  0  0  0
 23 24  1  0  0  0  0
 25 26  1  0  0  0  0
 25 53  1  0  0  0  0
 25 54  1  0  0  0  0
 26 27  1  0  0  0  0
 27 55  1  0  0  0  0
 27 56  1  0  0  0  0
M  END
> <s_m_source_file>
AV-unprocessed.smi

> <i_m_source_file_index>
172

> <i_lp_mmshare_version>
43012

> <i_f3d_flags>
0

> <s_epik_input>
W0NIMl0xT1tDSDJdQzEoW0NIMl1bT0hdKVtDSDJdbihbY0hdbjIpYyhjMjMpbltjSF1uYzNOKFtDSDJdW0NIXTRbQ0gyXVtDSDJdNClbQ0hdNVtDSDJdW0NIMl1bQ0gyXVtDSDJdW0NIMl01

> <s_epik_cmdline>
J2VwaWtfcHl0aG9uJywgJy1waCcsICc3LjAnLCAnLXRuJywgJzgnLCAnLW1hJywgJzIwMCcsICctbWV0YWxfYmluZGluZycsICctaW1hZScsICc8aW5maWxlLm1hZT4nLCAnLW9tYWUnLCAnPG91dGZpbGUubWFlPic=

> <r_lp_tautomer_probability>
1

> <r_epik_Ionization_Penalty>
0.0023612

> <r_epik_Ionization_Penalty_Charging>
0

> <r_epik_Ionization_Penalty_Neutral>
0.0023612

> <r_epik_State_Penalty>
0.00145434

> <r_epik_Charging_Adjusted_Penalty>
0.00145434

> <i_epik_Tot_Q>
0

> <i_epik_Tot_abs_Q>
0

> <r_epik_Metal_State_Penalty>
-0

> <b_epik_Metal_Only>
0

> <s_lp_Force_Field>
OPLS_2005

> <r_lp_Energy>
48.1575

> <b_lp_Chiralities_Consistent>
1

> <s_lp_Variant>
AV-unprocessed.smi:172-1

> <Gold.Version>
5.8.1

> <Gold.Id.Protein>
6NUR|6NUR_protein|mol2

> <Gold.PLP.Fitness>
36.6083

> <Gold.PLP.PLP>
-33.3853

> <Gold.PLP.part.hbond>
-3.0000

> <Gold.PLP.part.metal>
0.0000

> <Gold.PLP.part.buried>
-6.4375

> <Gold.PLP.part.nonpolar>
-26.7685

> <Gold.PLP.part.repulsive>
1.6416

> <Gold.PLP.ligand.clash>
0.0000

> <Gold.PLP.ligand.torsion>
3.4192

> <Gold.PLP.Chemscore.Hbond>
2.0000

> <Gold.PLP.Chemscore.CHOScore>
0.8443

> <Gold.PLP.Chemscore.Metal>
0.0000

> <Gold.Chemscore.Hbonds>
donor molecule, donor type, donor heavy atom, donor atom, acceptor molecule, acceptor atom, score
      L1  H     1    28       P1 10186  0.91
      P1  H 10785 10796       L1     1  1.00
      L1  C     6    33       P1  7948  0.19
      L1  C    22    52       P1 11000  0.56

> <Gold.PLP.Chemscore.Internal.Correction>
1.5286

> <Gold.Rescore>
     Score         DG    S(hbond)    S(metal)    S(lipo)     H(rot)  DE(clash)    DE(int)     intcor
      6.20     -11.41       1.58        0.00      68.51       2.87       0.32       4.90       ----

> <Gold.Chemscore.Fitness>
6.2006

> <Gold.Chemscore.DG>
-11.4148

> <Gold.Chemscore.ZeroCoef>
-5.4800

> <Gold.Chemscore.Hbond>
1.5803

> <Gold.Chemscore.Metal>
0.0000

> <Gold.Chemscore.Lipo>
68.5057

> <Gold.Chemscore.Internal_Hbond>
0.0000

> <Gold.Chemscore.DEClash>
0.3161

> <Gold.Chemscore.DEInternal>
4.8981

> <Gold.Chemscore.Rot>
2.8744

> <Gold.Chemscore.Internal.Correction>
   9.000000E+99

> <Gold.Chemscore.Hbonds>
donor molecule, donor type, donor heavy atom, donor atom, acceptor molecule, acceptor atom, score
      L1  H     1    28       P1 10186  0.87
      P1  H 10785 10796       L1     1  0.47

> <Gold.Chemscore.Hbond.Weighted>
-5.2781

> <Gold.Chemscore.Metal.Weighted>
-0.0000

> <Gold.Chemscore.Lipo.Weighted>
-8.0152

> <Gold.Chemscore.Internal_Hbond.Weighted>
0.0000

> <Gold.Chemscore.DEClash.Weighted>
0.3161

> <Gold.Chemscore.DEInternal.Weighted>
4.8981

> <Gold.Chemscore.Rot.Weighted>
7.3584

> <Gold.Chemscore.Internal.Correction.Weighted>
   9.000000E+99

> <Gold.Protein.RotatedTorsions>
[ 6907 6896 6895 6894 ] final  -13.51 input  -60.11 | X-H torsion
[ 7974 7965 7964 7962 ] final  128.81 input  175.53 | X-H torsion
[ 8008 7997 7996 7995 ] final  166.95 input   59.86 | X-H torsion
[ 10167 10162 10161 10158 ] final -145.94 input  -65.29 | X-H torsion
[ 10718 10713 10712 10709 ] final -165.49 input   66.30 | X-H torsion
[ 10763 10752 10751 10750 ] final -115.76 input  -60.55 | X-H torsion
[ 11005 11000 10999 10996 ] final -163.59 input  -57.11 | X-H torsion

> <Gold.Protein.ActiveResidues>
 VAL166  LYS551  ARG553  GLY616  TRP617  ASP618  TYR619  PRO620  LYS621  CYS622 
 ASP623  PHE694  ASN695  SER759  ASP760  ASP761  ALA762  ILE779  LEU786  VAL792 
 PHE793  MET794  SER795  GLU796  ALA797  LYS798  CYS799  TRP800  GLU811  SER814 

> <Gold.Protein.RotatedAtoms>
  151.3538  135.0890  159.9411 H   0  0  0  0  0  0  0  0  0  0  0  0  # atno 6907 bound_to 6896
  152.5180  133.9326  159.7598 H   0  0  0  0  0  0  0  0  0  0  0  0  # atno 6908 bound_to 6896
  150.9706  133.6293  159.2768 H   0  0  0  0  0  0  0  0  0  0  0  0  # atno 6909 bound_to 6896
  145.0355  139.4009  143.5128 H   0  0  0  0  0  0  0  0  0  0  0  0  # atno 7974 bound_to 7965
  156.1675  140.1629  156.8506 H   0  0  0  0  0  0  0  0  0  0  0  0  # atno 8008 bound_to 7997
  154.5222  140.0775  156.8228 H   0  0  0  0  0  0  0  0  0  0  0  0  # atno 8009 bound_to 7997
  155.3582  140.3394  155.4242 H   0  0  0  0  0  0  0  0  0  0  0  0  # atno 8010 bound_to 7997
  139.7759  143.8170  152.2632 H   0  0  0  0  0  0  0  0  0  0  0  0  # atno 10167 bound_to 10162
  156.6542  130.9020  151.3018 H   0  0  0  0  0  0  0  0  0  0  0  0  # atno 10718 bound_to 10713
  154.8493  135.4370  154.1713 H   0  0  0  0  0  0  0  0  0  0  0  0  # atno 10763 bound_to 10752
  153.2826  135.6955  153.7376 H   0  0  0  0  0  0  0  0  0  0  0  0  # atno 10764 bound_to 10752
  153.6575  135.3441  155.3092 H   0  0  0  0  0  0  0  0  0  0  0  0  # atno 10765 bound_to 10752
  140.5964  134.4992  157.5199 H   0  0  0  0  0  0  0  0  0  0  0  0  # atno 11005 bound_to 11000
  146.3503  139.9927  142.8684 LP  0  0  0  0  0  0  0  0  0  0  0  0  # atno 17320 bound_to 7965
  145.1715  140.9723  143.4319 LP  0  0  0  0  0  0  0  0  0  0  0  0  # atno 17321 bound_to 7965
  139.8218  144.7292  150.9562 LP  0  0  0  0  0  0  0  0  0  0  0  0  # atno 17342 bound_to 10162
  140.7816  143.4151  151.0929 LP  0  0  0  0  0  0  0  0  0  0  0  0  # atno 17343 bound_to 10162
  157.7131  130.9464  150.1158 LP  0  0  0  0  0  0  0  0  0  0  0  0  # atno 17370 bound_to 10713
  156.2061  130.3663  149.8728 LP  0  0  0  0  0  0  0  0  0  0  0  0  # atno 17371 bound_to 10713
  139.9251  134.8071  156.1092 LP  0  0  0  0  0  0  0  0  0  0  0  0  # atno 17394 bound_to 11000
  141.0901  133.6718  156.2522 LP  0  0  0  0  0  0  0  0  0  0  0  0  # atno 17395 bound_to 11000

$$$$
