AV-unprocessed.smi:601|AV-procd|sdf|3034|dock2
  -GOLD-   2262023553D 1   1.00000     0.00000
 Structure written by MMmdl.
 49 50  0  0  0  0  0  0  0  0  2 V2000
  152.3736  145.5714  159.5791 C   0  0  0  0  0  0  0  0  0  0  0  0
  152.3096  144.7071  158.3126 C   0  0  0  0  0  0  0  0  0  0  0  0
  151.2853  143.5641  158.3953 C   0  0  0  0  0  0  0  0  0  0  0  0
  151.2235  142.6982  157.1223 C   0  0  0  0  0  0  0  0  0  0  0  0
  150.5854  141.3960  157.3696 N   0  0  0  0  0  0  0  0  0  0  0  0
  149.2691  141.3133  157.7029 C   0  0  0  0  0  0  0  0  0  0  0  0
  148.7092  140.2271  157.8648 O   0  0  0  0  0  0  0  0  0  0  0  0
  148.4448  142.6101  157.8642 C   0  0  1  0  0  0  0  0  0  0  0  0
  147.2335  142.7650  156.9297 C   0  0  0  0  0  0  0  0  0  0  0  0
  146.2232  143.5454  157.7625 C   0  0  0  0  0  0  0  0  0  0  0  0
  146.8855  143.6790  159.1340 C   0  0  0  0  0  0  0  0  0  0  0  0
  147.8458  142.6376  159.1507 O   0  0  0  0  0  0  0  0  0  0  0  0
  151.3898  140.2546  157.1893 C   0  0  0  0  0  0  0  0  0  0  0  0
  152.1172  139.7066  158.1991 C   0  0  0  0  0  0  0  0  0  0  0  0
  152.1066  140.2646  159.4698 N   0  0  0  0  0  0  0  0  0  0  0  0
  152.9037  138.5473  157.9604 N   0  0  0  0  0  0  0  0  0  0  0  0
  153.6727  137.9629  159.0833 C   0  0  0  0  0  0  0  0  0  0  0  0
  152.7731  137.4280  160.2178 C   0  0  0  0  0  0  0  0  0  0  0  0
  153.5397  136.8635  161.4212 C   0  0  0  0  0  0  0  0  0  0  0  0
  152.9456  137.9764  156.7163 C   0  0  0  0  0  0  0  0  0  0  0  0
  153.6417  136.9770  156.5320 O   0  0  0  0  0  0  0  0  0  0  0  0
  152.2174  138.5324  155.7064 N   0  5  0  0  0  0  0  0  0  0  0  0
  151.4408  139.6368  155.8599 C   0  0  0  0  0  0  0  0  0  0  0  0
  150.7949  140.1189  154.9290 O   0  0  0  0  0  0  0  0  0  0  0  0
  153.0648  146.4034  159.4438 H   0  0  0  0  0  0  0  0  0  0  0  0
  152.7168  144.9983  160.4402 H   0  0  0  0  0  0  0  0  0  0  0  0
  151.3955  145.9889  159.8205 H   0  0  0  0  0  0  0  0  0  0  0  0
  152.0483  145.3490  157.4707 H   0  0  0  0  0  0  0  0  0  0  0  0
  153.2980  144.3039  158.0896 H   0  0  0  0  0  0  0  0  0  0  0  0
  151.5112  142.9397  159.2598 H   0  0  0  0  0  0  0  0  0  0  0  0
  150.3021  143.9968  158.5834 H   0  0  0  0  0  0  0  0  0  0  0  0
  150.6974  143.2304  156.3278 H   0  0  0  0  0  0  0  0  0  0  0  0
  152.2326  142.5396  156.7405 H   0  0  0  0  0  0  0  0  0  0  0  0
  149.0878  143.4839  157.7493 H   0  0  0  0  0  0  0  0  0  0  0  0
  147.4998  143.2913  156.0127 H   0  0  0  0  0  0  0  0  0  0  0  0
  146.7957  141.8071  156.6469 H   0  0  0  0  0  0  0  0  0  0  0  0
  145.9972  144.5218  157.3331 H   0  0  0  0  0  0  0  0  0  0  0  0
  145.2890  142.9877  157.8386 H   0  0  0  0  0  0  0  0  0  0  0  0
  147.3943  144.6398  159.2293 H   0  0  0  0  0  0  0  0  0  0  0  0
  146.1764  143.5833  159.9564 H   0  0  0  0  0  0  0  0  0  0  0  0
  151.5628  141.0884  159.6826 H   0  0  0  0  0  0  0  0  0  0  0  0
  152.7512  139.9575  160.1841 H   0  0  0  0  0  0  0  0  0  0  0  0
  154.3089  137.1584  158.7138 H   0  0  0  0  0  0  0  0  0  0  0  0
  154.3882  138.6724  159.5013 H   0  0  0  0  0  0  0  0  0  0  0  0
  152.0969  138.2106  160.5617 H   0  0  0  0  0  0  0  0  0  0  0  0
  152.1362  136.6418  159.8119 H   0  0  0  0  0  0  0  0  0  0  0  0
  152.8525  136.4415  162.1544 H   0  0  0  0  0  0  0  0  0  0  0  0
  154.1198  137.6376  161.9238 H   0  0  0  0  0  0  0  0  0  0  0  0
  154.2261  136.0738  161.1148 H   0  0  0  0  0  0  0  0  0  0  0  0
  1  2  1  0  0  0  0
  1 25  1  0  0  0  0
  1 26  1  0  0  0  0
  1 27  1  0  0  0  0
  2  3  1  0  0  0  0
  2 28  1  0  0  0  0
  2 29  1  0  0  0  0
  3  4  1  0  0  0  0
  3 30  1  0  0  0  0
  3 31  1  0  0  0  0
  4  5  1  0  0  0  0
  4 32  1  0  0  0  0
  4 33  1  0  0  0  0
  5  6  1  0  0  0  0
  5 13  1  0  0  0  0
  6  7  2  0  0  0  0
  6  8  1  0  0  0  0
  8 12  1  0  0  0  0
  8  9  1  0  0  0  0
  8 34  1  0  0  0  0
  9 10  1  0  0  0  0
  9 35  1  0  0  0  0
  9 36  1  0  0  0  0
 10 11  1  0  0  0  0
 10 37  1  0  0  0  0
 10 38  1  0  0  0  0
 11 12  1  0  0  0  0
 11 39  1  0  0  0  0
 11 40  1  0  0  0  0
 13 23  1  0  0  0  0
 13 14  2  0  0  0  0
 14 15  1  0  0  0  0
 14 16  1  0  0  0  0
 15 41  1  0  0  0  0
 15 42  1  0  0  0  0
 16 17  1  0  0  0  0
 16 20  1  0  0  0  0
 17 18  1  0  0  0  0
 17 43  1  0  0  0  0
 17 44  1  0  0  0  0
 18 19  1  0  0  0  0
 18 45  1  0  0  0  0
 18 46  1  0  0  0  0
 19 47  1  0  0  0  0
 19 48  1  0  0  0  0
 19 49  1  0  0  0  0
 20 21  2  0  0  0  0
 20 22  1  0  0  0  0
 22 23  1  0  0  0  0
 23 24  2  0  0  0  0
M  CHG  1  22  -1
M  END
> <s_m_source_file>
AV-unprocessed.smi

> <i_m_source_file_index>
601

> <i_lp_mmshare_version>
43012

> <i_f3d_flags>
0

> <s_epik_input>
TzFbQ0gyXVtDSDJdW0NIMl1bQ0BIXTFDKD1PKU4oW0NIMl1bQ0gyXVtDSDJdW0NIM10pYzJjKFtOSDJdKW4oW0NIMl1bQ0gyXVtDSDNdKWMoPU8pW25IXWMyPU8=

> <s_epik_cmdline>
J2VwaWtfcHl0aG9uJywgJy1waCcsICc3LjAnLCAnLXRuJywgJzgnLCAnLW1hJywgJzIwMCcsICctbWV0YWxfYmluZGluZycsICctaW1hZScsICc8aW5maWxlLm1hZT4nLCAnLW9tYWUnLCAnPG91dGZpbGUubWFlPic=

> <r_lp_tautomer_probability>
1

> <r_epik_Ionization_Penalty>
5.90608

> <r_epik_Ionization_Penalty_Charging>
4.55687e-07

> <r_epik_Ionization_Penalty_Neutral>
5.90608

> <r_epik_State_Penalty>
5.90604

> <r_epik_Charging_Adjusted_Penalty>
5.90604

> <i_epik_Tot_Q>
-1

> <i_epik_Tot_abs_Q>
1

> <r_epik_Metal_State_Penalty>
1.84043

> <b_epik_Metal_Only>
1

> <s_lp_Force_Field>
OPLS_2005

> <r_lp_Energy>
54.0415

> <b_lp_Chiralities_Consistent>
1

> <s_lp_Variant>
AV-unprocessed.smi:601-4

> <Gold.Version>
5.8.1

> <Gold.Id.Protein>
6NUR|6NUR_protein|mol2

> <Gold.PLP.Fitness>
43.5917

> <Gold.PLP.PLP>
-39.2507

> <Gold.PLP.part.hbond>
-4.0771

> <Gold.PLP.part.metal>
0.0000

> <Gold.PLP.part.buried>
-5.5237

> <Gold.PLP.part.nonpolar>
-30.1995

> <Gold.PLP.part.repulsive>
0.2806

> <Gold.PLP.ligand.clash>
0.0000

> <Gold.PLP.ligand.torsion>
1.6415

> <Gold.PLP.Chemscore.Hbond>
1.8224

> <Gold.PLP.Chemscore.CHOScore>
0.0000

> <Gold.PLP.Chemscore.Metal>
0.0000

> <Gold.Chemscore.Hbonds>
donor molecule, donor type, donor heavy atom, donor atom, acceptor molecule, acceptor atom, score
      P1  H  6933  6944       L1    12  0.06
      P1  H  7989  7998       L1    24  1.00
      P1  H 10752 10763       L1    21  0.56

> <Gold.PLP.Chemscore.Internal.Correction>
2.1568

> <Gold.Rescore>
     Score         DG    S(hbond)    S(metal)    S(lipo)     H(rot)  DE(clash)    DE(int)     intcor
     12.67     -14.60       1.52        0.00      76.51       1.92       0.06       1.87       ----

> <Gold.Chemscore.Fitness>
12.6741

> <Gold.Chemscore.DG>
-14.6047

> <Gold.Chemscore.ZeroCoef>
-5.4800

> <Gold.Chemscore.Hbond>
1.5234

> <Gold.Chemscore.Metal>
0.0000

> <Gold.Chemscore.Lipo>
76.5142

> <Gold.Chemscore.Internal_Hbond>
0.0000

> <Gold.Chemscore.DEClash>
0.0633

> <Gold.Chemscore.DEInternal>
1.8674

> <Gold.Chemscore.Rot>
1.9201

> <Gold.Chemscore.Internal.Correction>
   9.000000E+99

> <Gold.Chemscore.Hbonds>
donor molecule, donor type, donor heavy atom, donor atom, acceptor molecule, acceptor atom, score
      P1  H  6933  6944       L1    12  0.05
      P1  H  7989  7998       L1    24  0.98
      P1  H 10752 10763       L1    21  0.54

> <Gold.Chemscore.Hbond.Weighted>
-5.0880

> <Gold.Chemscore.Metal.Weighted>
-0.0000

> <Gold.Chemscore.Lipo.Weighted>
-8.9522

> <Gold.Chemscore.Internal_Hbond.Weighted>
0.0000

> <Gold.Chemscore.DEClash.Weighted>
0.0633

> <Gold.Chemscore.DEInternal.Weighted>
1.8674

> <Gold.Chemscore.Rot.Weighted>
4.9154

> <Gold.Chemscore.Internal.Correction.Weighted>
   9.000000E+99

> <Gold.Protein.RotatedTorsions>
[ 6907 6896 6895 6894 ] final  154.89 input  -60.11 | X-H torsion
[ 7974 7965 7964 7962 ] final  166.22 input  175.53 | X-H torsion
[ 8008 7997 7996 7995 ] final   -4.24 input   59.86 | X-H torsion
[ 10167 10162 10161 10158 ] final -118.67 input  -65.29 | X-H torsion
[ 10718 10713 10712 10709 ] final   89.06 input   66.30 | X-H torsion
[ 10763 10752 10751 10750 ] final  147.74 input  -60.55 | X-H torsion
[ 11005 11000 10999 10996 ] final -165.70 input  -57.11 | X-H torsion

> <Gold.Protein.ActiveResidues>
 VAL166  LYS551  ARG553  GLY616  TRP617  ASP618  TYR619  PRO620  LYS621  CYS622 
 ASP623  PHE694  ASN695  SER759  ASP760  ASP761  ALA762  ILE779  LEU786  VAL792 
 PHE793  MET794  SER795  GLU796  ALA797  LYS798  CYS799  TRP800  GLU811  SER814 

> <Gold.Protein.RotatedAtoms>
  152.0520  133.4023  159.4380 H   0  0  0  0  0  0  0  0  0  0  0  0  # atno 6907 bound_to 6896
  150.6870  134.3297  159.4831 H   0  0  0  0  0  0  0  0  0  0  0  0  # atno 6908 bound_to 6896
  152.1108  134.9275  160.0617 H   0  0  0  0  0  0  0  0  0  0  0  0  # atno 6909 bound_to 6896
  144.7471  139.8584  143.6378 H   0  0  0  0  0  0  0  0  0  0  0  0  # atno 7974 bound_to 7965
  154.6164  140.2489  155.7604 H   0  0  0  0  0  0  0  0  0  0  0  0  # atno 8008 bound_to 7997
  156.2401  140.2935  156.0370 H   0  0  0  0  0  0  0  0  0  0  0  0  # atno 8009 bound_to 7997
  155.1968  140.0393  157.2900 H   0  0  0  0  0  0  0  0  0  0  0  0  # atno 8010 bound_to 7997
  140.0550  143.5023  152.2062 H   0  0  0  0  0  0  0  0  0  0  0  0  # atno 10167 bound_to 10162
  157.6953  131.0319  150.3369 H   0  0  0  0  0  0  0  0  0  0  0  0  # atno 10718 bound_to 10713
  154.0433  135.2888  155.3352 H   0  0  0  0  0  0  0  0  0  0  0  0  # atno 10763 bound_to 10752
  154.6915  135.5224  153.8402 H   0  0  0  0  0  0  0  0  0  0  0  0  # atno 10764 bound_to 10752
  153.0591  135.6607  154.0635 H   0  0  0  0  0  0  0  0  0  0  0  0  # atno 10765 bound_to 10752
  140.5728  134.5221  157.5165 H   0  0  0  0  0  0  0  0  0  0  0  0  # atno 11005 bound_to 11000
  146.1366  139.4413  143.0135 LP  0  0  0  0  0  0  0  0  0  0  0  0  # atno 17320 bound_to 7965
  145.7082  141.0114  143.1467 LP  0  0  0  0  0  0  0  0  0  0  0  0  # atno 17321 bound_to 7965
  139.5929  144.7557  151.3356 LP  0  0  0  0  0  0  0  0  0  0  0  0  # atno 17342 bound_to 10162
  140.7199  143.7164  150.7729 LP  0  0  0  0  0  0  0  0  0  0  0  0  # atno 17343 bound_to 10162
  156.3835  130.3885  149.7083 LP  0  0  0  0  0  0  0  0  0  0  0  0  # atno 17370 bound_to 10713
  156.4457  130.7882  151.2904 LP  0  0  0  0  0  0  0  0  0  0  0  0  # atno 17371 bound_to 10713
  139.9354  134.7885  156.0818 LP  0  0  0  0  0  0  0  0  0  0  0  0  # atno 17394 bound_to 11000
  141.1045  133.6665  156.2833 LP  0  0  0  0  0  0  0  0  0  0  0  0  # atno 17395 bound_to 11000

$$$$
