AV-unprocessed.smi:2849|AV-procd|sdf|10958|dock1
  -GOLD-   2272015413D 1   1.00000     0.00000
 Structure written by MMmdl.
 55 58  0  0  0  0  0  0  0  0  2 V2000
  146.3794  132.6249  154.9962 C   0  0  0  0  0  0  0  0  0  0  0  0
  147.6531  131.8676  155.0360 N   0  3  2  0  0  0  0  0  0  0  0  0
  148.5317  132.1852  156.1881 C   0  0  1  0  0  0  0  0  0  0  0  0
  149.5729  131.0527  156.3502 C   0  0  0  0  0  0  0  0  0  0  0  0
  150.3651  130.7445  155.0632 C   0  0  0  0  0  0  0  0  0  0  0  0
  149.4709  130.7452  153.8062 C   0  0  0  0  0  0  0  0  0  0  0  0
  148.4347  131.8934  153.7759 C   0  0  2  0  0  0  0  0  0  0  0  0
  149.0311  133.2986  153.5117 C   0  0  0  0  0  0  0  0  0  0  0  0
  149.8117  133.9026  154.7048 C   0  0  1  0  0  0  0  0  0  0  0  0
  149.9437  135.3485  154.5390 N   0  0  0  0  0  0  0  0  0  0  0  0
  150.3603  136.2020  155.4861 C   0  0  0  0  0  0  0  0  0  0  0  0
  150.7011  135.8445  156.6129 O   0  0  0  0  0  0  0  0  0  0  0  0
  150.3485  137.4674  155.0322 N   0  0  0  0  0  0  0  0  0  0  0  0
  150.6603  138.6781  155.7115 C   0  0  0  0  0  0  0  0  0  0  0  0
  150.6703  139.9651  155.1227 C   0  0  0  0  0  0  0  0  0  0  0  0
  151.0036  141.0781  155.9185 C   0  0  0  0  0  0  0  0  0  0  0  0
  151.3136  140.8829  157.2849 C   0  0  0  0  0  0  0  0  0  0  0  0
  151.6612  141.9685  158.1128 N   0  0  0  0  0  0  0  0  0  0  0  0
  151.3186  143.3395  157.7683 C   0  0  0  0  0  0  0  0  0  0  0  0
  151.9746  144.1855  158.8583 C   0  0  0  0  0  0  0  0  0  0  0  0
  153.2316  143.3877  159.2056 C   0  0  0  0  0  0  0  0  0  0  0  0
  152.8162  141.9262  158.9990 C   0  0  0  0  0  0  0  0  0  0  0  0
  151.3034  139.6513  157.8469 N   0  0  0  0  0  0  0  0  0  0  0  0
  150.9837  138.5884  157.0802 C   0  0  0  0  0  0  0  0  0  0  0  0
  149.1323  133.6081  156.0618 C   0  0  0  0  0  0  0  0  0  0  0  0
  146.5369  133.6952  154.8661 H   0  0  0  0  0  0  0  0  0  0  0  0
  145.8214  132.4763  155.9212 H   0  0  0  0  0  0  0  0  0  0  0  0
  145.7540  132.2738  154.1749 H   0  0  0  0  0  0  0  0  0  0  0  0
  147.9172  132.1710  157.0895 H   0  0  0  0  0  0  0  0  0  0  0  0
  150.2594  131.2788  157.1670 H   0  0  0  0  0  0  0  0  0  0  0  0
  149.0449  130.1459  156.6487 H   0  0  0  0  0  0  0  0  0  0  0  0
  151.1860  131.4463  154.9451 H   0  0  0  0  0  0  0  0  0  0  0  0
  150.8517  129.7735  155.1608 H   0  0  0  0  0  0  0  0  0  0  0  0
  150.0887  130.7652  152.9079 H   0  0  0  0  0  0  0  0  0  0  0  0
  148.9303  129.7986  153.7737 H   0  0  0  0  0  0  0  0  0  0  0  0
  147.7517  131.6707  152.9548 H   0  0  0  0  0  0  0  0  0  0  0  0
  149.6690  133.2698  152.6274 H   0  0  0  0  0  0  0  0  0  0  0  0
  148.2117  133.9699  153.2511 H   0  0  0  0  0  0  0  0  0  0  0  0
  150.8163  133.4872  154.7271 H   0  0  0  0  0  0  0  0  0  0  0  0
  149.6849  135.7297  153.6406 H   0  0  0  0  0  0  0  0  0  0  0  0
  150.0391  137.5858  154.0787 H   0  0  0  0  0  0  0  0  0  0  0  0
  150.4328  140.1327  154.0848 H   0  0  0  0  0  0  0  0  0  0  0  0
  151.0231  142.0597  155.4692 H   0  0  0  0  0  0  0  0  0  0  0  0
  151.7333  143.5825  156.7892 H   0  0  0  0  0  0  0  0  0  0  0  0
  150.2391  143.4908  157.7352 H   0  0  0  0  0  0  0  0  0  0  0  0
  152.1892  145.2043  158.5347 H   0  0  0  0  0  0  0  0  0  0  0  0
  151.3197  144.2380  159.7291 H   0  0  0  0  0  0  0  0  0  0  0  0
  154.0279  143.6430  158.5051 H   0  0  0  0  0  0  0  0  0  0  0  0
  153.5966  143.5861  160.2136 H   0  0  0  0  0  0  0  0  0  0  0  0
  152.5184  141.4713  159.9443 H   0  0  0  0  0  0  0  0  0  0  0  0
  153.6374  141.3434  158.5801 H   0  0  0  0  0  0  0  0  0  0  0  0
  150.9909  137.6305  157.5797 H   0  0  0  0  0  0  0  0  0  0  0  0
  148.3279  134.3281  156.2184 H   0  0  0  0  0  0  0  0  0  0  0  0
  149.8381  133.7877  156.8736 H   0  0  0  0  0  0  0  0  0  0  0  0
  147.3745  130.9051  155.1632 H   0  0  0  0  0  0  0  0  0  0  0  0
  1  2  1  0  0  0  0
  1 26  1  0  0  0  0
  1 27  1  0  0  0  0
  1 28  1  0  0  0  0
  2  7  1  0  0  0  0
  2  3  1  0  0  0  0
  2 55  1  0  0  0  0
  3 25  1  0  0  0  0
  3  4  1  0  0  0  0
  3 29  1  0  0  0  0
  4  5  1  0  0  0  0
  4 30  1  0  0  0  0
  4 31  1  0  0  0  0
  5  6  1  0  0  0  0
  5 32  1  0  0  0  0
  5 33  1  0  0  0  0
  6  7  1  0  0  0  0
  6 34  1  0  0  0  0
  6 35  1  0  0  0  0
  7  8  1  0  0  0  0
  7 36  1  0  0  0  0
  8  9  1  0  0  0  0
  8 37  1  0  0  0  0
  8 38  1  0  0  0  0
  9 10  1  0  0  0  0
  9 25  1  0  0  0  0
  9 39  1  0  0  0  0
 10 11  1  0  0  0  0
 10 40  1  0  0  0  0
 11 12  2  0  0  0  0
 11 13  1  0  0  0  0
 13 14  1  0  0  0  0
 13 41  1  0  0  0  0
 14 24  1  0  0  0  0
 14 15  2  0  0  0  0
 15 16  1  0  0  0  0
 15 42  1  0  0  0  0
 16 17  2  0  0  0  0
 16 43  1  0  0  0  0
 17 18  1  0  0  0  0
 17 23  1  0  0  0  0
 18 22  1  0  0  0  0
 18 19  1  0  0  0  0
 19 20  1  0  0  0  0
 19 44  1  0  0  0  0
 19 45  1  0  0  0  0
 20 21  1  0  0  0  0
 20 46  1  0  0  0  0
 20 47  1  0  0  0  0
 21 22  1  0  0  0  0
 21 48  1  0  0  0  0
 21 49  1  0  0  0  0
 22 50  1  0  0  0  0
 22 51  1  0  0  0  0
 23 24  2  0  0  0  0
 24 52  1  0  0  0  0
 25 53  1  0  0  0  0
 25 54  1  0  0  0  0
M  CHG  1   2   1
M  END
> <s_m_source_file>
AV-unprocessed.smi

> <i_m_source_file_index>
2849

> <i_lp_mmshare_version>
43012

> <i_f3d_flags>
0

> <s_epik_input>
W0NIMl0xW0NIMl1bQ0gyXVtDQEhdKE4oW0NIM10pW0NIXTEyKVtDSDJdW0NASF0oW0NIMl0yKVtOSF1DKD1PKVtOSF1jM1tjSF1bY0hdYyhuW2NIXTMpTjRbQ0gyXVtDSDJdW0NIMl1bQ0gyXTQ=

> <s_epik_cmdline>
J2VwaWtfcHl0aG9uJywgJy1waCcsICc3LjAnLCAnLXRuJywgJzgnLCAnLW1hJywgJzIwMCcsICctbWV0YWxfYmluZGluZycsICctaW1hZScsICc8aW5maWxlLm1hZT4nLCAnLW9tYWUnLCAnPG91dGZpbGUubWFlPic=

> <r_lp_tautomer_probability>
1

> <r_epik_Ionization_Penalty>
0.07954

> <r_epik_Ionization_Penalty_Charging>
0.00089841

> <r_epik_Ionization_Penalty_Neutral>
0.0786416

> <r_epik_State_Penalty>
0.0689917

> <r_epik_Charging_Adjusted_Penalty>
0.0698901

> <i_epik_Tot_Q>
1

> <i_epik_Tot_abs_Q>
1

> <r_epik_Metal_State_Penalty>
0.060891

> <b_epik_Metal_Only>
0

> <s_lp_Force_Field>
OPLS_2005

> <r_lp_Energy>
60.9972

> <b_lp_Chiralities_Consistent>
1

> <s_lp_Variant>
AV-unprocessed.smi:2849-2

> <Gold.Version>
5.8.1

> <Gold.Id.Protein>
6NUR|6NUR_protein|mol2

> <Gold.PLP.Fitness>
42.6216

> <Gold.PLP.PLP>
-41.1940

> <Gold.PLP.part.hbond>
-1.0356

> <Gold.PLP.part.metal>
0.0000

> <Gold.PLP.part.buried>
-4.2126

> <Gold.PLP.part.nonpolar>
-35.5326

> <Gold.PLP.part.repulsive>
0.1002

> <Gold.PLP.ligand.clash>
0.0000

> <Gold.PLP.ligand.torsion>
0.6509

> <Gold.PLP.Chemscore.Hbond>
0.8500

> <Gold.PLP.Chemscore.CHOScore>
0.0000

> <Gold.PLP.Chemscore.Metal>
0.0000

> <Gold.Chemscore.Hbonds>
donor molecule, donor type, donor heavy atom, donor atom, acceptor molecule, acceptor atom, score
      L1  H    10    40       P1  7948  0.85

> <Gold.PLP.Chemscore.Internal.Correction>
0.1793

> <Gold.Rescore>
     Score         DG    S(hbond)    S(metal)    S(lipo)     H(rot)  DE(clash)    DE(int)     intcor
     15.06     -18.43       0.84        0.00     108.49       1.00       0.02       3.35       ----

> <Gold.Chemscore.Fitness>
15.0591

> <Gold.Chemscore.DG>
-18.4311

> <Gold.Chemscore.ZeroCoef>
-5.4800

> <Gold.Chemscore.Hbond>
0.8438

> <Gold.Chemscore.Metal>
0.0000

> <Gold.Chemscore.Lipo>
108.4858

> <Gold.Chemscore.Internal_Hbond>
0.0000

> <Gold.Chemscore.DEClash>
0.0210

> <Gold.Chemscore.DEInternal>
3.3510

> <Gold.Chemscore.Rot>
1.0000

> <Gold.Chemscore.Internal.Correction>
   9.000000E+99

> <Gold.Chemscore.Hbonds>
donor molecule, donor type, donor heavy atom, donor atom, acceptor molecule, acceptor atom, score
      L1  H    10    40       P1  7948  0.14

> <Gold.Chemscore.Hbond.Weighted>
-2.8183

> <Gold.Chemscore.Metal.Weighted>
-0.0000

> <Gold.Chemscore.Lipo.Weighted>
-12.6928

> <Gold.Chemscore.Internal_Hbond.Weighted>
0.0000

> <Gold.Chemscore.DEClash.Weighted>
0.0210

> <Gold.Chemscore.DEInternal.Weighted>
3.3510

> <Gold.Chemscore.Rot.Weighted>
2.5600

> <Gold.Chemscore.Internal.Correction.Weighted>
   9.000000E+99

> <Gold.Protein.RotatedTorsions>
[ 6907 6896 6895 6894 ] final   33.55 input  -60.11 | X-H torsion
[ 7974 7965 7964 7962 ] final   12.54 input  175.53 | X-H torsion
[ 8008 7997 7996 7995 ] final  -82.04 input   59.86 | X-H torsion
[ 10167 10162 10161 10158 ] final   51.95 input  -65.29 | X-H torsion
[ 10718 10713 10712 10709 ] final  100.02 input   66.30 | X-H torsion
[ 10763 10752 10751 10750 ] final   71.42 input  -60.55 | X-H torsion
[ 11005 11000 10999 10996 ] final  157.56 input  -57.11 | X-H torsion

> <Gold.Protein.ActiveResidues>
 VAL166  LYS551  ARG553  GLY616  TRP617  ASP618  TYR619  PRO620  LYS621  CYS622 
 ASP623  PHE694  ASN695  SER759  ASP760  ASP761  ALA762  ILE779  LEU786  VAL792 
 PHE793  MET794  SER795  GLU796  ALA797  LYS798  CYS799  TRP800  GLU811  SER814 

> <Gold.Protein.RotatedAtoms>
  152.0900  134.9413  160.0571 H   0  0  0  0  0  0  0  0  0  0  0  0  # atno 6907 bound_to 6896
  152.0668  133.4083  159.4450 H   0  0  0  0  0  0  0  0  0  0  0  0  # atno 6908 bound_to 6896
  150.6837  134.3057  159.4768 H   0  0  0  0  0  0  0  0  0  0  0  0  # atno 6909 bound_to 6896
  146.2349  139.9322  142.8495 H   0  0  0  0  0  0  0  0  0  0  0  0  # atno 7974 bound_to 7965
  154.6045  140.0639  156.9413 H   0  0  0  0  0  0  0  0  0  0  0  0  # atno 8008 bound_to 7997
  155.2076  140.3320  155.4315 H   0  0  0  0  0  0  0  0  0  0  0  0  # atno 8009 bound_to 7997
  156.2339  140.1854  156.7154 H   0  0  0  0  0  0  0  0  0  0  0  0  # atno 8010 bound_to 7997
  140.2565  144.3420  150.6331 H   0  0  0  0  0  0  0  0  0  0  0  0  # atno 10167 bound_to 10162
  157.6863  131.0686  150.5037 H   0  0  0  0  0  0  0  0  0  0  0  0  # atno 10718 bound_to 10713
  153.0398  135.5137  154.7591 H   0  0  0  0  0  0  0  0  0  0  0  0  # atno 10763 bound_to 10752
  154.6537  135.2929  154.9956 H   0  0  0  0  0  0  0  0  0  0  0  0  # atno 10764 bound_to 10752
  154.0831  135.6661  153.4893 H   0  0  0  0  0  0  0  0  0  0  0  0  # atno 10765 bound_to 10752
  140.1781  134.8495  157.2770 H   0  0  0  0  0  0  0  0  0  0  0  0  # atno 11005 bound_to 11000
  145.2033  140.9864  143.4143 LP  0  0  0  0  0  0  0  0  0  0  0  0  # atno 17320 bound_to 7965
  144.9754  139.3837  143.6288 LP  0  0  0  0  0  0  0  0  0  0  0  0  # atno 17321 bound_to 7965
  140.5999  143.2167  151.7092 LP  0  0  0  0  0  0  0  0  0  0  0  0  # atno 17342 bound_to 10162
  139.5030  144.3809  152.0377 LP  0  0  0  0  0  0  0  0  0  0  0  0  # atno 17343 bound_to 10162
  156.5358  130.4196  149.6179 LP  0  0  0  0  0  0  0  0  0  0  0  0  # atno 17370 bound_to 10713
  156.3029  130.7187  151.2062 LP  0  0  0  0  0  0  0  0  0  0  0  0  # atno 17371 bound_to 10713
  140.2299  134.3921  155.7526 LP  0  0  0  0  0  0  0  0  0  0  0  0  # atno 17394 bound_to 11000
  141.2221  133.7209  156.8624 LP  0  0  0  0  0  0  0  0  0  0  0  0  # atno 17395 bound_to 11000

$$$$
