AV-unprocessed.smi:2032|AV-procd|sdf|8246|dock6
  -GOLD-   2272010513D 1   1.00000     0.00000
 Structure written by MMmdl.
 41 42  0  0  0  0  0  0  0  0  2 V2000
  153.6279  142.1283  161.4217 C   0  0  0  0  0  0  0  0  0  0  0  0
  153.4507  141.6413  159.9796 C   0  0  1  0  0  0  0  0  0  0  0  0
  153.4758  140.1043  159.8777 C   0  0  0  0  0  0  0  0  0  0  0  0
  153.2289  139.6161  158.5166 N   0  0  0  0  0  0  0  0  0  0  0  0
  153.2387  138.1360  158.4360 C   0  0  2  0  0  0  0  0  0  0  0  0
  152.3077  137.4752  159.4848 C   0  0  0  0  0  0  0  0  0  0  0  0
  154.6637  137.5210  158.5651 C   0  0  0  0  0  0  0  0  0  0  0  0
  155.5712  137.9080  157.4874 N   0  0  0  0  0  0  0  0  0  0  0  0
  155.9668  137.1286  156.4705 C   0  0  0  0  0  0  0  0  0  0  0  0
  155.5499  135.9713  156.3834 O   0  0  0  0  0  0  0  0  0  0  0  0
  156.8244  137.7391  155.6213 N   0  5  0  0  0  0  0  0  0  0  0  0
  156.9918  137.2661  154.3756 C   0  0  0  0  0  0  0  0  0  0  0  0
  156.5472  136.0661  153.9849 N   0  0  0  0  0  0  0  0  0  0  0  0
  156.8168  135.7833  152.6447 C   0  0  0  0  0  0  0  0  0  0  0  0
  157.4741  136.7954  151.9971 C   0  0  0  0  0  0  0  0  0  0  0  0
  157.7781  138.1412  153.0585 S   0  0  0  0  0  0  0  0  0  0  0  0
  151.9685  140.2030  158.0497 C   0  0  0  0  0  0  0  0  0  0  0  0
  151.9491  141.7402  158.1529 C   0  0  1  0  0  0  0  0  0  0  0  0
  150.6003  142.3320  157.7300 C   0  0  0  0  0  0  0  0  0  0  0  0
  152.2018  142.1220  159.4990 O   0  0  0  0  0  0  0  0  0  0  0  0
  154.5783  141.7910  161.8363 H   0  0  0  0  0  0  0  0  0  0  0  0
  152.8303  141.7551  162.0648 H   0  0  0  0  0  0  0  0  0  0  0  0
  153.6123  143.2173  161.4695 H   0  0  0  0  0  0  0  0  0  0  0  0
  154.2516  142.0608  159.3681 H   0  0  0  0  0  0  0  0  0  0  0  0
  154.4528  139.7783  160.2295 H   0  0  0  0  0  0  0  0  0  0  0  0
  152.7363  139.6812  160.5594 H   0  0  0  0  0  0  0  0  0  0  0  0
  152.8569  137.8547  157.4534 H   0  0  0  0  0  0  0  0  0  0  0  0
  152.3466  136.3871  159.4489 H   0  0  0  0  0  0  0  0  0  0  0  0
  151.2598  137.7227  159.3242 H   0  0  0  0  0  0  0  0  0  0  0  0
  152.5761  137.7795  160.4967 H   0  0  0  0  0  0  0  0  0  0  0  0
  155.1485  137.8080  159.4974 H   0  0  0  0  0  0  0  0  0  0  0  0
  154.5983  136.4327  158.5741 H   0  0  0  0  0  0  0  0  0  0  0  0
  155.9376  138.8481  157.5173 H   0  0  0  0  0  0  0  0  0  0  0  0
  156.5009  134.8364  152.2331 H   0  0  0  0  0  0  0  0  0  0  0  0
  157.7948  136.8329  150.9671 H   0  0  0  0  0  0  0  0  0  0  0  0
  151.7956  139.9561  157.0042 H   0  0  0  0  0  0  0  0  0  0  0  0
  151.1350  139.7862  158.6174 H   0  0  0  0  0  0  0  0  0  0  0  0
  152.7289  142.1580  157.5136 H   0  0  0  0  0  0  0  0  0  0  0  0
  150.3672  142.0761  156.6963 H   0  0  0  0  0  0  0  0  0  0  0  0
  150.6101  143.4193  157.8092 H   0  0  0  0  0  0  0  0  0  0  0  0
  149.7911  141.9586  158.3584 H   0  0  0  0  0  0  0  0  0  0  0  0
  1  2  1  0  0  0  0
  1 21  1  0  0  0  0
  1 22  1  0  0  0  0
  1 23  1  0  0  0  0
  2 20  1  0  0  0  0
  2  3  1  0  0  0  0
  2 24  1  0  0  0  0
  3  4  1  0  0  0  0
  3 25  1  0  0  0  0
  3 26  1  0  0  0  0
  4  5  1  0  0  0  0
  4 17  1  0  0  0  0
  5  6  1  0  0  0  0
  5  7  1  0  0  0  0
  5 27  1  0  0  0  0
  6 28  1  0  0  0  0
  6 29  1  0  0  0  0
  6 30  1  0  0  0  0
  7  8  1  0  0  0  0
  7 31  1  0  0  0  0
  7 32  1  0  0  0  0
  8  9  1  0  0  0  0
  8 33  1  0  0  0  0
  9 10  2  0  0  0  0
  9 11  1  0  0  0  0
 11 12  1  0  0  0  0
 12 16  1  0  0  0  0
 12 13  2  0  0  0  0
 13 14  1  0  0  0  0
 14 15  2  0  0  0  0
 14 34  1  0  0  0  0
 15 16  1  0  0  0  0
 15 35  1  0  0  0  0
 17 18  1  0  0  0  0
 17 36  1  0  0  0  0
 17 37  1  0  0  0  0
 18 19  1  0  0  0  0
 18 20  1  0  0  0  0
 18 38  1  0  0  0  0
 19 39  1  0  0  0  0
 19 40  1  0  0  0  0
 19 41  1  0  0  0  0
M  CHG  1  11  -1
M  END
> <s_m_source_file>
AV-unprocessed.smi

> <i_m_source_file_index>
2032

> <i_lp_mmshare_version>
43012

> <i_f3d_flags>
0

> <s_epik_input>
W0NIM11bQ0BASF0xW0NIMl1OKFtDSDJdW0NASF0oTzEpW0NIM10pW0NASF0oW0NIM10pW0NIMl1bTkhdQyg9TylbTkhdYzJuW2NIXVtjSF1zMg==

> <s_epik_cmdline>
J2VwaWtfcHl0aG9uJywgJy1waCcsICc3LjAnLCAnLXRuJywgJzgnLCAnLW1hJywgJzIwMCcsICctbWV0YWxfYmluZGluZycsICctaW1hZScsICc8aW5maWxlLm1hZT4nLCAnLW9tYWUnLCAnPG91dGZpbGUubWFlPic=

> <r_lp_tautomer_probability>
0.999

> <r_epik_Ionization_Penalty>
7.22375

> <r_epik_Ionization_Penalty_Charging>
5.82415

> <r_epik_Ionization_Penalty_Neutral>
1.39959

> <r_epik_State_Penalty>
6.03347

> <r_epik_Charging_Adjusted_Penalty>
11.8576

> <i_epik_Tot_Q>
-1

> <i_epik_Tot_abs_Q>
1

> <r_epik_Metal_State_Penalty>
2.01024

> <b_epik_Metal_Only>
1

> <s_lp_Force_Field>
OPLS_2005

> <r_lp_Energy>
22.7494

> <b_lp_Chiralities_Consistent>
1

> <s_lp_Variant>
AV-unprocessed.smi:2032-16

> <Gold.Version>
5.8.1

> <Gold.Id.Protein>
6NUR|6NUR_protein|mol2

> <Gold.PLP.Fitness>
39.9703

> <Gold.PLP.PLP>
-31.3363

> <Gold.PLP.part.hbond>
-3.6560

> <Gold.PLP.part.metal>
0.0000

> <Gold.PLP.part.buried>
-4.6151

> <Gold.PLP.part.nonpolar>
-25.6211

> <Gold.PLP.part.repulsive>
2.8125

> <Gold.PLP.ligand.clash>
0.0000

> <Gold.PLP.ligand.torsion>
0.3873

> <Gold.PLP.Chemscore.Hbond>
2.1059

> <Gold.PLP.Chemscore.CHOScore>
1.0000

> <Gold.PLP.Chemscore.Metal>
0.0000

> <Gold.Chemscore.Hbonds>
donor molecule, donor type, donor heavy atom, donor atom, acceptor molecule, acceptor atom, score
      P1  H  7997  8008       L1     4  0.90
      P1  H 10752 10764       L1    10  1.00
      P1  H 10752 10765       L1    13  0.18
      L1  C    15    35       P1 10674  1.00

> <Gold.PLP.Chemscore.Internal.Correction>
0.0911

> <Gold.Rescore>
     Score         DG    S(hbond)    S(metal)    S(lipo)     H(rot)  DE(clash)    DE(int)     intcor
     14.59     -16.61       1.15        0.00      96.09       1.54       0.02       2.00       ----

> <Gold.Chemscore.Fitness>
14.5949

> <Gold.Chemscore.DG>
-16.6098

> <Gold.Chemscore.ZeroCoef>
-5.4800

> <Gold.Chemscore.Hbond>
1.1488

> <Gold.Chemscore.Metal>
0.0000

> <Gold.Chemscore.Lipo>
96.0941

> <Gold.Chemscore.Internal_Hbond>
0.0000

> <Gold.Chemscore.DEClash>
0.0163

> <Gold.Chemscore.DEInternal>
1.9986

> <Gold.Chemscore.Rot>
1.5431

> <Gold.Chemscore.Internal.Correction>
   9.000000E+99

> <Gold.Chemscore.Hbonds>
donor molecule, donor type, donor heavy atom, donor atom, acceptor molecule, acceptor atom, score
      P1  H  7997  8008       L1     4  0.11
      P1  H 10752 10764       L1    10  0.96
      P1  H 10752 10765       L1    13  0.01

> <Gold.Chemscore.Hbond.Weighted>
-3.8371

> <Gold.Chemscore.Metal.Weighted>
-0.0000

> <Gold.Chemscore.Lipo.Weighted>
-11.2430

> <Gold.Chemscore.Internal_Hbond.Weighted>
0.0000

> <Gold.Chemscore.DEClash.Weighted>
0.0163

> <Gold.Chemscore.DEInternal.Weighted>
1.9986

> <Gold.Chemscore.Rot.Weighted>
3.9503

> <Gold.Chemscore.Internal.Correction.Weighted>
   9.000000E+99

> <Gold.Protein.RotatedTorsions>
[ 6907 6896 6895 6894 ] final -175.20 input  -60.11 | X-H torsion
[ 7974 7965 7964 7962 ] final -107.87 input  175.53 | X-H torsion
[ 8008 7997 7996 7995 ] final  -90.03 input   59.86 | X-H torsion
[ 10167 10162 10161 10158 ] final -178.71 input  -65.29 | X-H torsion
[ 10718 10713 10712 10709 ] final  110.06 input   66.30 | X-H torsion
[ 10763 10752 10751 10750 ] final   45.23 input  -60.55 | X-H torsion
[ 11005 11000 10999 10996 ] final -137.80 input  -57.11 | X-H torsion

> <Gold.Protein.ActiveResidues>
 VAL166  LYS551  ARG553  GLY616  TRP617  ASP618  TYR619  PRO620  LYS621  CYS622 
 ASP623  PHE694  ASN695  SER759  ASP760  ASP761  ALA762  ILE779  LEU786  VAL792 
 PHE793  MET794  SER795  GLU796  ALA797  LYS798  CYS799  TRP800  GLU811  SER814 

> <Gold.Protein.RotatedAtoms>
  151.5848  133.3373  159.3015 H   0  0  0  0  0  0  0  0  0  0  0  0  # atno 6907 bound_to 6896
  150.8293  134.7542  159.6851 H   0  0  0  0  0  0  0  0  0  0  0  0  # atno 6908 bound_to 6896
  152.4379  134.5657  159.9958 H   0  0  0  0  0  0  0  0  0  0  0  0  # atno 6909 bound_to 6896
  145.1999  140.9052  143.3375 H   0  0  0  0  0  0  0  0  0  0  0  0  # atno 7974 bound_to 7965
  154.6937  140.0535  157.0389 H   0  0  0  0  0  0  0  0  0  0  0  0  # atno 8008 bound_to 7997
  155.0781  140.3206  155.4591 H   0  0  0  0  0  0  0  0  0  0  0  0  # atno 8009 bound_to 7997
  156.2737  140.2070  156.5909 H   0  0  0  0  0  0  0  0  0  0  0  0  # atno 8010 bound_to 7997
  139.5420  144.2338  152.0913 H   0  0  0  0  0  0  0  0  0  0  0  0  # atno 10167 bound_to 10162
  157.6512  131.0925  150.6546 H   0  0  0  0  0  0  0  0  0  0  0  0  # atno 10718 bound_to 10713
  152.9828  135.6046  154.3403 H   0  0  0  0  0  0  0  0  0  0  0  0  # atno 10763 bound_to 10752
  154.3100  135.2771  155.2572 H   0  0  0  0  0  0  0  0  0  0  0  0  # atno 10764 bound_to 10752
  154.4786  135.5923  153.6429 H   0  0  0  0  0  0  0  0  0  0  0  0  # atno 10765 bound_to 10752
  140.8676  134.2091  157.4670 H   0  0  0  0  0  0  0  0  0  0  0  0  # atno 11005 bound_to 11000
  144.9958  139.3646  143.6192 LP  0  0  0  0  0  0  0  0  0  0  0  0  # atno 17320 bound_to 7965
  146.3419  139.9159  142.8773 LP  0  0  0  0  0  0  0  0  0  0  0  0  # atno 17321 bound_to 7965
  140.1818  144.4837  150.6524 LP  0  0  0  0  0  0  0  0  0  0  0  0  # atno 17342 bound_to 10162
  140.6653  143.2266  151.5757 LP  0  0  0  0  0  0  0  0  0  0  0  0  # atno 17343 bound_to 10162
  156.6857  130.4580  149.5614 LP  0  0  0  0  0  0  0  0  0  0  0  0  # atno 17370 bound_to 10713
  156.1897  130.6552  151.1048 LP  0  0  0  0  0  0  0  0  0  0  0  0  # atno 17371 bound_to 10713
  139.8710  134.9759  156.4901 LP  0  0  0  0  0  0  0  0  0  0  0  0  # atno 17394 bound_to 11000
  140.8610  133.8059  155.9265 LP  0  0  0  0  0  0  0  0  0  0  0  0  # atno 17395 bound_to 11000

$$$$
