AV-unprocessed.smi:2924|AV-procd|sdf|11219|dock3
  -GOLD-   2272016113D 1   1.00000     0.00000
 Structure written by MMmdl.
 29 31  0  0  0  0  0  0  0  0  1 V2000
  154.2033  140.4183  160.1627 N   0  0  0  0  0  0  0  0  0  0  0  0
  153.5526  141.2520  159.6933 C   0  0  0  0  0  0  0  0  0  0  0  0
  152.7330  142.3033  159.1028 C   0  0  0  0  0  0  0  0  0  0  0  0
  152.7587  143.5927  159.6747 C   0  0  0  0  0  0  0  0  0  0  0  0
  151.9657  144.6091  159.1114 C   0  0  0  0  0  0  0  0  0  0  0  0
  151.1751  144.2929  157.9917 C   0  0  0  0  0  0  0  0  0  0  0  0
  151.1424  143.0647  157.4343 N   0  0  0  0  0  0  0  0  0  0  0  0
  151.9017  142.0793  157.9726 C   0  0  0  0  0  0  0  0  0  0  0  0
  151.8488  140.8098  157.3685 N   0  0  0  0  0  0  0  0  0  0  0  0
  151.6045  140.6602  155.9370 C   0  0  1  0  0  0  0  0  0  0  0  0
  152.2297  139.3904  155.3546 C   0  0  0  0  0  0  0  0  0  0  0  0
  151.0255  138.7324  154.6663 C   0  0  1  0  0  0  0  0  0  0  0  0
  150.0700  138.0995  155.6860 C   0  0  0  0  0  0  0  0  0  0  0  0
  149.4219  139.3333  156.3107 C   0  0  0  0  0  0  0  0  0  0  0  0
  150.1211  140.4773  155.5563 C   0  0  2  0  0  0  0  0  0  0  0  0
  150.2757  139.8731  154.2829 O   0  0  0  0  0  0  0  0  0  0  0  0
  153.3761  143.8059  160.5356 H   0  0  0  0  0  0  0  0  0  0  0  0
  151.9633  145.6058  159.5271 H   0  0  0  0  0  0  0  0  0  0  0  0
  150.5527  145.0457  157.5309 H   0  0  0  0  0  0  0  0  0  0  0  0
  151.7036  140.0018  157.9567 H   0  0  0  0  0  0  0  0  0  0  0  0
  152.0142  141.5213  155.4069 H   0  0  0  0  0  0  0  0  0  0  0  0
  153.0003  139.6494  154.6280 H   0  0  0  0  0  0  0  0  0  0  0  0
  152.6788  138.7361  156.1031 H   0  0  0  0  0  0  0  0  0  0  0  0
  151.2936  138.0710  153.8421 H   0  0  0  0  0  0  0  0  0  0  0  0
  149.3197  137.4849  155.1873 H   0  0  0  0  0  0  0  0  0  0  0  0
  150.5914  137.4790  156.4157 H   0  0  0  0  0  0  0  0  0  0  0  0
  148.3505  139.3405  156.1072 H   0  0  0  0  0  0  0  0  0  0  0  0
  149.5575  139.3858  157.3912 H   0  0  0  0  0  0  0  0  0  0  0  0
  149.5497  141.4058  155.5390 H   0  0  0  0  0  0  0  0  0  0  0  0
  1  2  3  0  0  0  0
  2  3  1  0  0  0  0
  3  8  1  0  0  0  0
  3  4  2  0  0  0  0
  4  5  1  0  0  0  0
  4 17  1  0  0  0  0
  5  6  2  0  0  0  0
  5 18  1  0  0  0  0
  6  7  1  0  0  0  0
  6 19  1  0  0  0  0
  7  8  2  0  0  0  0
  8  9  1  0  0  0  0
  9 10  1  0  0  0  0
  9 20  1  0  0  0  0
 10 15  1  0  0  0  0
 10 11  1  0  0  0  0
 10 21  1  0  0  0  0
 11 12  1  0  0  0  0
 11 22  1  0  0  0  0
 11 23  1  0  0  0  0
 12 16  1  0  0  0  0
 12 13  1  0  0  0  0
 12 24  1  0  0  0  0
 13 14  1  0  0  0  0
 13 25  1  0  0  0  0
 13 26  1  0  0  0  0
 14 15  1  0  0  0  0
 14 27  1  0  0  0  0
 14 28  1  0  0  0  0
 15 16  1  0  0  0  0
 15 29  1  0  0  0  0
M  END
> <s_m_source_file>
AV-unprocessed.smi

> <i_m_source_file_index>
2924

> <i_lp_mmshare_version>
43012

> <i_f3d_flags>
0

> <s_epik_input>
TiNDYzFbY0hdW2NIXVtjSF1uYzFbTkhdW0NASF0oW0NIMl1bQ0BASF0yMylbQ0BASF0oTzMpW0NIMl1bQ0gyXTI=

> <s_epik_cmdline>
J2VwaWtfcHl0aG9uJywgJy1waCcsICc3LjAnLCAnLXRuJywgJzgnLCAnLW1hJywgJzIwMCcsICctbWV0YWxfYmluZGluZycsICctaW1hZScsICc8aW5maWxlLm1hZT4nLCAnLW9tYWUnLCAnPG91dGZpbGUubWFlPic=

> <r_lp_tautomer_probability>
1

> <r_epik_Ionization_Penalty>
2.11559e-05

> <r_epik_Ionization_Penalty_Charging>
0

> <r_epik_Ionization_Penalty_Neutral>
2.11559e-05

> <r_epik_State_Penalty>
-0

> <r_epik_Charging_Adjusted_Penalty>
0

> <i_epik_Tot_Q>
0

> <i_epik_Tot_abs_Q>
0

> <r_epik_Metal_State_Penalty>
-0

> <b_epik_Metal_Only>
0

> <s_lp_Force_Field>
OPLS_2005

> <r_lp_Energy>
42.6424

> <b_lp_Chiralities_Consistent>
1

> <s_lp_Variant>
AV-unprocessed.smi:2924-2

> <Gold.Version>
5.8.1

> <Gold.Id.Protein>
6NUR|6NUR_protein|mol2

> <Gold.PLP.Fitness>
39.3931

> <Gold.PLP.PLP>
-34.6913

> <Gold.PLP.part.hbond>
-1.0000

> <Gold.PLP.part.metal>
0.0000

> <Gold.PLP.part.buried>
-5.6050

> <Gold.PLP.part.nonpolar>
-28.9371

> <Gold.PLP.part.repulsive>
0.3465

> <Gold.PLP.ligand.clash>
0.0000

> <Gold.PLP.ligand.torsion>
0.5684

> <Gold.PLP.Chemscore.Hbond>
1.0000

> <Gold.PLP.Chemscore.CHOScore>
0.9428

> <Gold.PLP.Chemscore.Metal>
0.0000

> <Gold.Chemscore.Hbonds>
donor molecule, donor type, donor heavy atom, donor atom, acceptor molecule, acceptor atom, score
      P1  H  7989  7998       L1    16  1.00
      L1  C     6    19       P1  8028  0.84
      L1  C     6    19       P1  8029  0.05

> <Gold.PLP.Chemscore.Internal.Correction>
0.0101

> <Gold.Rescore>
     Score         DG    S(hbond)    S(metal)    S(lipo)     H(rot)  DE(clash)    DE(int)     intcor
     14.70     -15.34       0.77        0.00      84.01       1.00       0.15       0.49       ----

> <Gold.Chemscore.Fitness>
14.7031

> <Gold.Chemscore.DG>
-15.3376

> <Gold.Chemscore.ZeroCoef>
-5.4800

> <Gold.Chemscore.Hbond>
0.7749

> <Gold.Chemscore.Metal>
0.0000

> <Gold.Chemscore.Lipo>
84.0114

> <Gold.Chemscore.Internal_Hbond>
0.0000

> <Gold.Chemscore.DEClash>
0.1477

> <Gold.Chemscore.DEInternal>
0.4868

> <Gold.Chemscore.Rot>
1.0000

> <Gold.Chemscore.Internal.Correction>
   9.000000E+99

> <Gold.Chemscore.Hbonds>
donor molecule, donor type, donor heavy atom, donor atom, acceptor molecule, acceptor atom, score
      P1  H  7989  7998       L1    16  0.11

> <Gold.Chemscore.Hbond.Weighted>
-2.5883

> <Gold.Chemscore.Metal.Weighted>
-0.0000

> <Gold.Chemscore.Lipo.Weighted>
-9.8293

> <Gold.Chemscore.Internal_Hbond.Weighted>
0.0000

> <Gold.Chemscore.DEClash.Weighted>
0.1477

> <Gold.Chemscore.DEInternal.Weighted>
0.4868

> <Gold.Chemscore.Rot.Weighted>
2.5600

> <Gold.Chemscore.Internal.Correction.Weighted>
   9.000000E+99

> <Gold.Protein.RotatedTorsions>
[ 6907 6896 6895 6894 ] final  -29.97 input  -60.11 | X-H torsion
[ 7974 7965 7964 7962 ] final  -52.86 input  175.53 | X-H torsion
[ 8008 7997 7996 7995 ] final   16.80 input   59.86 | X-H torsion
[ 10167 10162 10161 10158 ] final   -3.62 input  -65.29 | X-H torsion
[ 10718 10713 10712 10709 ] final  -28.48 input   66.30 | X-H torsion
[ 10763 10752 10751 10750 ] final -177.31 input  -60.55 | X-H torsion
[ 11005 11000 10999 10996 ] final    6.55 input  -57.11 | X-H torsion

> <Gold.Protein.ActiveResidues>
 VAL166  LYS551  ARG553  GLY616  TRP617  ASP618  TYR619  PRO620  LYS621  CYS622 
 ASP623  PHE694  ASN695  SER759  ASP760  ASP761  ALA762  ILE779  LEU786  VAL792 
 PHE793  MET794  SER795  GLU796  ALA797  LYS798  CYS799  TRP800  GLU811  SER814 

> <Gold.Protein.RotatedAtoms>
  151.1119  135.0031  159.8497 H   0  0  0  0  0  0  0  0  0  0  0  0  # atno 6907 bound_to 6896
  152.5443  134.1826  159.8651 H   0  0  0  0  0  0  0  0  0  0  0  0  # atno 6908 bound_to 6896
  151.1877  133.4642  159.2627 H   0  0  0  0  0  0  0  0  0  0  0  0  # atno 6909 bound_to 6896
  145.9033  140.7976  142.9732 H   0  0  0  0  0  0  0  0  0  0  0  0  # atno 7974 bound_to 7965
  154.8822  140.2974  155.5419 H   0  0  0  0  0  0  0  0  0  0  0  0  # atno 8008 bound_to 7997
  156.3022  140.2440  156.3760 H   0  0  0  0  0  0  0  0  0  0  0  0  # atno 8009 bound_to 7997
  154.8705  140.0401  157.1711 H   0  0  0  0  0  0  0  0  0  0  0  0  # atno 8010 bound_to 7997
  140.6897  143.6519  150.8343 H   0  0  0  0  0  0  0  0  0  0  0  0  # atno 10167 bound_to 10162
  156.4247  130.4433  149.7159 H   0  0  0  0  0  0  0  0  0  0  0  0  # atno 10718 bound_to 10713
  154.5616  135.2820  155.0913 H   0  0  0  0  0  0  0  0  0  0  0  0  # atno 10763 bound_to 10752
  154.2320  135.6372  153.5182 H   0  0  0  0  0  0  0  0  0  0  0  0  # atno 10764 bound_to 10752
  153.0031  135.5539  154.6212 H   0  0  0  0  0  0  0  0  0  0  0  0  # atno 10765 bound_to 10752
  140.5582  134.0217  155.7962 H   0  0  0  0  0  0  0  0  0  0  0  0  # atno 11005 bound_to 11000
  144.6737  140.1711  143.7414 LP  0  0  0  0  0  0  0  0  0  0  0  0  # atno 17320 bound_to 7965
  145.8763  139.2299  143.1631 LP  0  0  0  0  0  0  0  0  0  0  0  0  # atno 17321 bound_to 7965
  140.0230  143.5522  152.2792 LP  0  0  0  0  0  0  0  0  0  0  0  0  # atno 17342 bound_to 10162
  139.6288  144.7641  151.2581 LP  0  0  0  0  0  0  0  0  0  0  0  0  # atno 17343 bound_to 10162
  156.4086  130.7710  151.2722 LP  0  0  0  0  0  0  0  0  0  0  0  0  # atno 17370 bound_to 10713
  157.7508  131.0218  150.3766 LP  0  0  0  0  0  0  0  0  0  0  0  0  # atno 17371 bound_to 10713
  141.1130  133.9585  157.2874 LP  0  0  0  0  0  0  0  0  0  0  0  0  # atno 17394 bound_to 11000
  139.9421  135.0189  156.8739 LP  0  0  0  0  0  0  0  0  0  0  0  0  # atno 17395 bound_to 11000

$$$$
