AV-unprocessed.smi:1221|AV-procd|sdf|5119|dock5
  -GOLD-   22720 4173D 1   1.00000     0.00000
 Structure written by MMmdl.
 39 40  0  0  0  0  0  0  0  0  2 V2000
  155.0091  141.8564  167.8155 C   0  0  0  0  0  0  0  0  0  0  0  0
  155.3399  141.2440  166.4976 C   0  0  0  0  0  0  0  0  0  0  0  0
  155.6794  139.9749  166.1230 C   0  0  0  0  0  0  0  0  0  0  0  0
  155.8586  140.0879  164.7169 C   0  0  0  0  0  0  0  0  0  0  0  0
  156.2222  139.1009  163.8837 N   0  5  0  0  0  0  0  0  0  0  0  0
  156.0605  139.2391  162.5472 C   0  0  0  0  0  0  0  0  0  0  0  0
  156.9080  139.0147  161.6800 O   0  0  0  0  0  0  0  0  0  0  0  0
  154.8400  139.6673  162.1952 N   0  0  0  0  0  0  0  0  0  0  0  0
  154.3784  139.9141  160.8341 C   0  0  0  0  0  0  0  0  0  0  0  0
  154.3812  141.4174  160.5015 C   0  0  0  0  0  0  0  0  0  0  0  0
  153.0997  141.8391  159.9242 N   0  0  0  0  0  0  0  0  0  0  0  0
  152.3939  142.9154  160.6378 C   0  0  0  0  0  0  0  0  0  0  0  0
  152.3561  144.2570  159.8699 C   0  0  0  0  0  0  0  0  0  0  0  0
  152.3738  144.1636  158.3311 C   0  0  0  0  0  0  0  0  0  0  0  0
  151.3043  143.2346  157.7194 C   0  0  0  0  0  0  0  0  0  0  0  0
  151.2587  141.7849  158.2587 C   0  0  0  0  0  0  0  0  0  0  0  0
  152.6010  141.2671  158.8009 C   0  0  0  0  0  0  0  0  0  0  0  0
  153.1715  140.3571  158.1989 O   0  0  0  0  0  0  0  0  0  0  0  0
  155.6609  141.3202  164.2799 N   0  0  0  0  0  0  0  0  0  0  0  0
  155.3224  142.0668  165.4148 O   0  0  0  0  0  0  0  0  0  0  0  0
  155.9089  141.9822  168.4175 H   0  0  0  0  0  0  0  0  0  0  0  0
  154.3151  141.2260  168.3713 H   0  0  0  0  0  0  0  0  0  0  0  0
  154.5472  142.8359  167.6888 H   0  0  0  0  0  0  0  0  0  0  0  0
  155.7816  139.1035  166.7520 H   0  0  0  0  0  0  0  0  0  0  0  0
  154.1783  139.8362  162.9385 H   0  0  0  0  0  0  0  0  0  0  0  0
  154.9842  139.3538  160.1200 H   0  0  0  0  0  0  0  0  0  0  0  0
  153.3650  139.5198  160.7563 H   0  0  0  0  0  0  0  0  0  0  0  0
  154.5929  141.9970  161.4012 H   0  0  0  0  0  0  0  0  0  0  0  0
  155.1981  141.6496  159.8157 H   0  0  0  0  0  0  0  0  0  0  0  0
  151.3774  142.5891  160.8580 H   0  0  0  0  0  0  0  0  0  0  0  0
  152.8314  143.0810  161.6231 H   0  0  0  0  0  0  0  0  0  0  0  0
  151.4804  144.8214  160.1921 H   0  0  0  0  0  0  0  0  0  0  0  0
  153.2169  144.8533  160.1745 H   0  0  0  0  0  0  0  0  0  0  0  0
  152.2485  145.1645  157.9172 H   0  0  0  0  0  0  0  0  0  0  0  0
  153.3636  143.8449  158.0010 H   0  0  0  0  0  0  0  0  0  0  0  0
  150.3217  143.6868  157.8587 H   0  0  0  0  0  0  0  0  0  0  0  0
  151.4589  143.2013  156.6404 H   0  0  0  0  0  0  0  0  0  0  0  0
  150.5056  141.6999  159.0417 H   0  0  0  0  0  0  0  0  0  0  0  0
  150.9115  141.1195  157.4672 H   0  0  0  0  0  0  0  0  0  0  0  0
  1  2  1  0  0  0  0
  1 21  1  0  0  0  0
  1 22  1  0  0  0  0
  1 23  1  0  0  0  0
  2 20  1  0  0  0  0
  2  3  2  0  0  0  0
  3  4  1  0  0  0  0
  3 24  1  0  0  0  0
  4  5  1  0  0  0  0
  4 19  2  0  0  0  0
  5  6  1  0  0  0  0
  6  7  2  0  0  0  0
  6  8  1  0  0  0  0
  8  9  1  0  0  0  0
  8 25  1  0  0  0  0
  9 10  1  0  0  0  0
  9 26  1  0  0  0  0
  9 27  1  0  0  0  0
 10 11  1  0  0  0  0
 10 28  1  0  0  0  0
 10 29  1  0  0  0  0
 11 17  1  0  0  0  0
 11 12  1  0  0  0  0
 12 13  1  0  0  0  0
 12 30  1  0  0  0  0
 12 31  1  0  0  0  0
 13 14  1  0  0  0  0
 13 32  1  0  0  0  0
 13 33  1  0  0  0  0
 14 15  1  0  0  0  0
 14 34  1  0  0  0  0
 14 35  1  0  0  0  0
 15 16  1  0  0  0  0
 15 36  1  0  0  0  0
 15 37  1  0  0  0  0
 16 17  1  0  0  0  0
 16 38  1  0  0  0  0
 16 39  1  0  0  0  0
 17 18  2  0  0  0  0
 19 20  1  0  0  0  0
M  CHG  1   5  -1
M  END
> <s_m_source_file>
AV-unprocessed.smi

> <i_m_source_file_index>
1221

> <i_lp_mmshare_version>
43012

> <i_f3d_flags>
0

> <s_epik_input>
W0NIM11jMVtjSF1jKG5vMSlbTkhdQyg9TylbTkhdW0NIMl1bQ0gyXU4yW0NIMl1bQ0gyXVtDSDJdW0NIMl1bQ0gyXUMyPU8=

> <s_epik_cmdline>
J2VwaWtfcHl0aG9uJywgJy1waCcsICc3LjAnLCAnLXRuJywgJzgnLCAnLW1hJywgJzIwMCcsICctbWV0YWxfYmluZGluZycsICctaW1hZScsICc8aW5maWxlLm1hZT4nLCAnLW9tYWUnLCAnPG91dGZpbGUubWFlPic=

> <r_lp_tautomer_probability>
1

> <r_epik_Ionization_Penalty>
6.46803

> <r_epik_Ionization_Penalty_Charging>
6.46791

> <r_epik_Ionization_Penalty_Neutral>
0.00012322

> <r_epik_State_Penalty>
6.4679

> <r_epik_Charging_Adjusted_Penalty>
12.9358

> <i_epik_Tot_Q>
-1

> <i_epik_Tot_abs_Q>
1

> <r_epik_Metal_State_Penalty>
2.39627

> <b_epik_Metal_Only>
1

> <s_lp_Force_Field>
OPLS_2005

> <r_lp_Energy>
15.4009

> <b_lp_Chiralities_Consistent>
1

> <s_lp_Variant>
AV-unprocessed.smi:1221-2

> <Gold.Version>
5.8.1

> <Gold.Id.Protein>
6NUR|6NUR_protein|mol2

> <Gold.PLP.Fitness>
42.2650

> <Gold.PLP.PLP>
-41.3444

> <Gold.PLP.part.hbond>
-2.0000

> <Gold.PLP.part.metal>
0.0000

> <Gold.PLP.part.buried>
-5.3888

> <Gold.PLP.part.nonpolar>
-33.5878

> <Gold.PLP.part.repulsive>
0.0000

> <Gold.PLP.ligand.clash>
0.0000

> <Gold.PLP.ligand.torsion>
0.9651

> <Gold.PLP.Chemscore.Hbond>
0.9440

> <Gold.PLP.Chemscore.CHOScore>
0.0000

> <Gold.PLP.Chemscore.Metal>
0.0000

> <Gold.Chemscore.Hbonds>
donor molecule, donor type, donor heavy atom, donor atom, acceptor molecule, acceptor atom, score
      P1  H  7997  8009       L1    18  0.88

> <Gold.PLP.Chemscore.Internal.Correction>
0.0189

> <Gold.Rescore>
     Score         DG    S(hbond)    S(metal)    S(lipo)     H(rot)  DE(clash)    DE(int)     intcor
     11.29     -14.76       0.91        0.00      88.32       1.60       0.04       3.43       ----

> <Gold.Chemscore.Fitness>
11.2896

> <Gold.Chemscore.DG>
-14.7563

> <Gold.Chemscore.ZeroCoef>
-5.4800

> <Gold.Chemscore.Hbond>
0.9082

> <Gold.Chemscore.Metal>
0.0000

> <Gold.Chemscore.Lipo>
88.3174

> <Gold.Chemscore.Internal_Hbond>
0.0000

> <Gold.Chemscore.DEClash>
0.0416

> <Gold.Chemscore.DEInternal>
3.4251

> <Gold.Chemscore.Rot>
1.5978

> <Gold.Chemscore.Internal.Correction>
   9.000000E+99

> <Gold.Chemscore.Hbonds>
donor molecule, donor type, donor heavy atom, donor atom, acceptor molecule, acceptor atom, score
      P1  H  7997  8009       L1    18  0.86

> <Gold.Chemscore.Hbond.Weighted>
-3.0334

> <Gold.Chemscore.Metal.Weighted>
-0.0000

> <Gold.Chemscore.Lipo.Weighted>
-10.3331

> <Gold.Chemscore.Internal_Hbond.Weighted>
0.0000

> <Gold.Chemscore.DEClash.Weighted>
0.0416

> <Gold.Chemscore.DEInternal.Weighted>
3.4251

> <Gold.Chemscore.Rot.Weighted>
4.0902

> <Gold.Chemscore.Internal.Correction.Weighted>
   9.000000E+99

> <Gold.Protein.RotatedTorsions>
[ 6907 6896 6895 6894 ] final  164.50 input  -60.11 | X-H torsion
[ 7974 7965 7964 7962 ] final   67.57 input  175.53 | X-H torsion
[ 8008 7997 7996 7995 ] final  155.93 input   59.86 | X-H torsion
[ 10167 10162 10161 10158 ] final   -3.13 input  -65.29 | X-H torsion
[ 10718 10713 10712 10709 ] final -142.00 input   66.30 | X-H torsion
[ 10763 10752 10751 10750 ] final  -72.15 input  -60.55 | X-H torsion
[ 11005 11000 10999 10996 ] final   -9.45 input  -57.11 | X-H torsion

> <Gold.Protein.ActiveResidues>
 VAL166  LYS551  ARG553  GLY616  TRP617  ASP618  TYR619  PRO620  LYS621  CYS622 
 ASP623  PHE694  ASN695  SER759  ASP760  ASP761  ALA762  ILE779  LEU786  VAL792 
 PHE793  MET794  SER795  GLU796  ALA797  LYS798  CYS799  TRP800  GLU811  SER814 

> <Gold.Protein.RotatedAtoms>
  151.9089  133.3556  159.3856 H   0  0  0  0  0  0  0  0  0  0  0  0  # atno 6907 bound_to 6896
  150.7063  134.4753  159.5454 H   0  0  0  0  0  0  0  0  0  0  0  0  # atno 6908 bound_to 6896
  152.2355  134.8280  160.0518 H   0  0  0  0  0  0  0  0  0  0  0  0  # atno 6909 bound_to 6896
  145.8131  139.3043  143.1087 H   0  0  0  0  0  0  0  0  0  0  0  0  # atno 7974 bound_to 7965
  156.2451  140.1926  156.6877 H   0  0  0  0  0  0  0  0  0  0  0  0  # atno 8008 bound_to 7997
  154.6275  140.0600  156.9717 H   0  0  0  0  0  0  0  0  0  0  0  0  # atno 8009 bound_to 7997
  155.1764  140.3272  155.4386 H   0  0  0  0  0  0  0  0  0  0  0  0  # atno 8010 bound_to 7997
  140.6878  143.6576  150.8295 H   0  0  0  0  0  0  0  0  0  0  0  0  # atno 10167 bound_to 10162
  156.3407  130.7636  151.1771 H   0  0  0  0  0  0  0  0  0  0  0  0  # atno 10718 bound_to 10713
  154.4416  135.5939  153.6133 H   0  0  0  0  0  0  0  0  0  0  0  0  # atno 10763 bound_to 10752
  152.9806  135.5999  154.3715 H   0  0  0  0  0  0  0  0  0  0  0  0  # atno 10764 bound_to 10752
  154.3565  135.2841  155.2322 H   0  0  0  0  0  0  0  0  0  0  0  0  # atno 10765 bound_to 10752
  140.7342  133.8723  155.8917 H   0  0  0  0  0  0  0  0  0  0  0  0  # atno 11005 bound_to 11000
  145.9756  140.8725  143.0140 LP  0  0  0  0  0  0  0  0  0  0  0  0  # atno 17320 bound_to 7965
  144.6755  140.2007  143.7387 LP  0  0  0  0  0  0  0  0  0  0  0  0  # atno 17321 bound_to 7965
  140.0285  143.5468  152.2770 LP  0  0  0  0  0  0  0  0  0  0  0  0  # atno 17342 bound_to 10162
  139.6252  144.7636  151.2654 LP  0  0  0  0  0  0  0  0  0  0  0  0  # atno 17343 bound_to 10162
  157.7446  131.0455  150.4848 LP  0  0  0  0  0  0  0  0  0  0  0  0  # atno 17370 bound_to 10713
  156.5027  130.4121  149.6344 LP  0  0  0  0  0  0  0  0  0  0  0  0  # atno 17371 bound_to 10713
  140.9894  134.1299  157.4422 LP  0  0  0  0  0  0  0  0  0  0  0  0  # atno 17394 bound_to 11000
  139.8819  135.0035  156.6194 LP  0  0  0  0  0  0  0  0  0  0  0  0  # atno 17395 bound_to 11000

$$$$
