AV-unprocessed.smi:212|AV-procd|sdf|1631|dock6
  -GOLD-   2262019583D 1   1.00000     0.00000
 Structure written by MMmdl.
 65 68  0  0  0  0  0  0  0  0  2 V2000
  150.4818  132.2427  156.4830 C   0  0  0  0  0  0  0  0  0  0  0  0
  149.5179  133.3927  156.8218 C   0  0  2  0  0  0  0  0  0  0  0  0
  148.1588  133.2433  156.1070 C   0  0  0  0  0  0  0  0  0  0  0  0
  148.2726  133.5237  154.6512 N   0  3  1  0  0  0  0  0  0  0  0  0
  147.0150  133.2650  153.9018 C   0  0  0  0  0  0  0  0  0  0  0  0
  147.1544  132.1007  152.8929 C   0  0  0  0  0  0  0  0  0  0  0  0
  147.2994  130.7653  153.6418 C   0  0  0  0  0  0  0  0  0  0  0  0
  145.9699  132.0348  151.9112 C   0  0  0  0  0  0  0  0  0  0  0  0
  148.3414  132.2740  152.1448 O   0  0  0  0  0  0  0  0  0  0  0  0
  148.8498  134.8651  154.3841 C   0  0  0  0  0  0  0  0  0  0  0  0
  150.2050  135.0343  155.0955 C   0  0  0  0  0  0  0  0  0  0  0  0
  150.1061  134.6998  156.5175 N   0  0  0  0  0  0  0  0  0  0  0  0
  149.8399  135.6938  157.4061 C   0  0  0  0  0  0  0  0  0  0  0  0
  149.1521  135.4191  158.5467 N   0  0  0  0  0  0  0  0  0  0  0  0
  148.8966  136.3861  159.4327 C   0  0  0  0  0  0  0  0  0  0  0  0
  149.2295  137.6767  159.3779 N   0  0  0  0  0  0  0  0  0  0  0  0
  149.9120  137.9620  158.2325 C   0  0  0  0  0  0  0  0  0  0  0  0
  150.2552  137.0406  157.2030 C   0  0  0  0  0  0  0  0  0  0  0  0
  150.9379  137.7001  156.1870 N   0  0  0  0  0  0  0  0  0  0  0  0
  150.9989  138.9386  156.5947 C   0  0  0  0  0  0  0  0  0  0  0  0
  150.4058  139.1841  157.8119 N   0  0  0  0  0  0  0  0  0  0  0  0
  150.3251  140.4633  158.4939 C   0  0  0  0  0  0  0  0  0  0  0  0
  150.7698  141.6672  157.6176 C   0  0  1  0  0  0  0  0  0  0  0  0
  149.7792  142.0012  156.4748 C   0  0  0  0  0  0  0  0  0  0  0  0
  148.6233  142.6609  156.9494 O   0  0  0  0  0  0  0  0  0  0  0  0
  151.0794  142.9454  158.4417 C   0  0  1  0  0  0  0  0  0  0  0  0
  151.9955  142.7798  159.6531 C   0  0  0  0  0  0  0  0  0  0  0  0
  152.7851  144.0925  159.7042 C   0  0  0  0  0  0  0  0  0  0  0  0
  152.1727  144.9406  158.7418 O   0  0  0  0  0  0  0  0  0  0  0  0
  151.7134  144.1144  157.6859 C   0  0  0  0  0  0  0  0  0  0  0  0
  150.0568  131.2817  156.7731 H   0  0  0  0  0  0  0  0  0  0  0  0
  151.4255  132.3575  157.0171 H   0  0  0  0  0  0  0  0  0  0  0  0
  150.7055  132.1935  155.4173 H   0  0  0  0  0  0  0  0  0  0  0  0
  149.3161  133.3183  157.8899 H   0  0  0  0  0  0  0  0  0  0  0  0
  147.7609  132.2421  156.2729 H   0  0  0  0  0  0  0  0  0  0  0  0
  147.4400  133.9387  156.5439 H   0  0  0  0  0  0  0  0  0  0  0  0
  146.1944  133.0784  154.5969 H   0  0  0  0  0  0  0  0  0  0  0  0
  146.7262  134.1610  153.3493 H   0  0  0  0  0  0  0  0  0  0  0  0
  146.4159  130.5528  154.2451 H   0  0  0  0  0  0  0  0  0  0  0  0
  148.1595  130.7752  154.3126 H   0  0  0  0  0  0  0  0  0  0  0  0
  147.4319  129.9317  152.9508 H   0  0  0  0  0  0  0  0  0  0  0  0
  145.0259  131.9121  152.4428 H   0  0  0  0  0  0  0  0  0  0  0  0
  146.0706  131.1937  151.2242 H   0  0  0  0  0  0  0  0  0  0  0  0
  145.8924  132.9385  151.3057 H   0  0  0  0  0  0  0  0  0  0  0  0
  148.4608  131.5187  151.5887 H   0  0  0  0  0  0  0  0  0  0  0  0
  148.9869  135.0010  153.3107 H   0  0  0  0  0  0  0  0  0  0  0  0
  148.1471  135.6311  154.7146 H   0  0  0  0  0  0  0  0  0  0  0  0
  150.9429  134.3749  154.6385 H   0  0  0  0  0  0  0  0  0  0  0  0
  150.5880  136.0459  154.9552 H   0  0  0  0  0  0  0  0  0  0  0  0
  148.3472  136.0825  160.3117 H   0  0  0  0  0  0  0  0  0  0  0  0
  151.4748  139.7147  156.0127 H   0  0  0  0  0  0  0  0  0  0  0  0
  149.3020  140.5934  158.8446 H   0  0  0  0  0  0  0  0  0  0  0  0
  150.9453  140.3862  159.3857 H   0  0  0  0  0  0  0  0  0  0  0  0
  151.7142  141.3870  157.1475 H   0  0  0  0  0  0  0  0  0  0  0  0
  150.2601  142.6089  155.7077 H   0  0  0  0  0  0  0  0  0  0  0  0
  149.4381  141.0890  155.9844 H   0  0  0  0  0  0  0  0  0  0  0  0
  148.6706  143.5699  156.6948 H   0  0  0  0  0  0  0  0  0  0  0  0
  150.1291  143.3257  158.8209 H   0  0  0  0  0  0  0  0  0  0  0  0
  151.4095  142.6293  160.5604 H   0  0  0  0  0  0  0  0  0  0  0  0
  152.6776  141.9356  159.5632 H   0  0  0  0  0  0  0  0  0  0  0  0
  152.7732  144.5502  160.6934 H   0  0  0  0  0  0  0  0  0  0  0  0
  153.8249  143.9231  159.4207 H   0  0  0  0  0  0  0  0  0  0  0  0
  152.5689  143.8147  157.0812 H   0  0  0  0  0  0  0  0  0  0  0  0
  151.0028  144.6378  157.0459 H   0  0  0  0  0  0  0  0  0  0  0  0
  148.9448  132.8617  154.2909 H   0  0  0  0  0  0  0  0  0  0  0  0
  1  2  1  0  0  0  0
  1 31  1  0  0  0  0
  1 32  1  0  0  0  0
  1 33  1  0  0  0  0
  2 12  1  0  0  0  0
  2  3  1  0  0  0  0
  2 34  1  0  0  0  0
  3  4  1  0  0  0  0
  3 35  1  0  0  0  0
  3 36  1  0  0  0  0
  4  5  1  0  0  0  0
  4 10  1  0  0  0  0
  4 65  1  0  0  0  0
  5  6  1  0  0  0  0
  5 37  1  0  0  0  0
  5 38  1  0  0  0  0
  6  7  1  0  0  0  0
  6  8  1  0  0  0  0
  6  9  1  0  0  0  0
  7 39  1  0  0  0  0
  7 40  1  0  0  0  0
  7 41  1  0  0  0  0
  8 42  1  0  0  0  0
  8 43  1  0  0  0  0
  8 44  1  0  0  0  0
  9 45  1  0  0  0  0
 10 11  1  0  0  0  0
 10 46  1  0  0  0  0
 10 47  1  0  0  0  0
 11 12  1  0  0  0  0
 11 48  1  0  0  0  0
 11 49  1  0  0  0  0
 12 13  1  0  0  0  0
 13 18  1  0  0  0  0
 13 14  2  0  0  0  0
 14 15  1  0  0  0  0
 15 16  2  0  0  0  0
 15 50  1  0  0  0  0
 16 17  1  0  0  0  0
 17 21  1  0  0  0  0
 17 18  2  0  0  0  0
 18 19  1  0  0  0  0
 19 20  2  0  0  0  0
 20 21  1  0  0  0  0
 20 51  1  0  0  0  0
 21 22  1  0  0  0  0
 22 23  1  0  0  0  0
 22 52  1  0  0  0  0
 22 53  1  0  0  0  0
 23 24  1  0  0  0  0
 23 26  1  0  0  0  0
 23 54  1  0  0  0  0
 24 25  1  0  0  0  0
 24 55  1  0  0  0  0
 24 56  1  0  0  0  0
 25 57  1  0  0  0  0
 26 30  1  0  0  0  0
 26 27  1  0  0  0  0
 26 58  1  0  0  0  0
 27 28  1  0  0  0  0
 27 59  1  0  0  0  0
 27 60  1  0  0  0  0
 28 29  1  0  0  0  0
 28 61  1  0  0  0  0
 28 62  1  0  0  0  0
 29 30  1  0  0  0  0
 30 63  1  0  0  0  0
 30 64  1  0  0  0  0
M  CHG  1   4   1
M  END
> <s_m_source_file>
AV-unprocessed.smi

> <i_m_source_file_index>
212

> <i_lp_mmshare_version>
43012

> <i_f3d_flags>
0

> <s_epik_input>
W0NIM11bQ0BASF0xW0NIMl1OKFtDSDJdQyhbQ0gzXSkoW0NIM10pW09IXSlbQ0gyXVtDSDJdTjFjKG5bY0hdbjIpYyhjMjMpbltjSF1uM1tDSDJdW0NASF0oW0NIMl1bT0hdKVtDQEBIXTRbQ0gyXVtDSDJdT1tDSDJdNA==

> <s_epik_cmdline>
J2VwaWtfcHl0aG9uJywgJy1waCcsICc3LjAnLCAnLXRuJywgJzgnLCAnLW1hJywgJzIwMCcsICctbWV0YWxfYmluZGluZycsICctaW1hZScsICc8aW5maWxlLm1hZT4nLCAnLW9tYWUnLCAnPG91dGZpbGUubWFlPic=

> <r_lp_tautomer_probability>
1

> <r_epik_Ionization_Penalty>
0.00182193

> <r_epik_Ionization_Penalty_Charging>
0.00173996

> <r_epik_Ionization_Penalty_Neutral>
8.19718e-05

> <r_epik_State_Penalty>
-0

> <r_epik_Charging_Adjusted_Penalty>
0.00173996

> <i_epik_Tot_Q>
1

> <i_epik_Tot_abs_Q>
1

> <r_epik_Metal_State_Penalty>
-0

> <b_epik_Metal_Only>
0

> <s_lp_Force_Field>
OPLS_2005

> <r_lp_Energy>
59.1595

> <b_lp_Chiralities_Consistent>
1

> <s_lp_Variant>
AV-unprocessed.smi:212-15

> <Gold.Version>
5.8.1

> <Gold.Id.Protein>
6NUR|6NUR_protein|mol2

> <Gold.PLP.Fitness>
44.6915

> <Gold.PLP.PLP>
-37.3865

> <Gold.PLP.part.hbond>
-3.6825

> <Gold.PLP.part.metal>
0.0000

> <Gold.PLP.part.buried>
-3.0290

> <Gold.PLP.part.nonpolar>
-31.4540

> <Gold.PLP.part.repulsive>
0.0514

> <Gold.PLP.ligand.clash>
0.0000

> <Gold.PLP.ligand.torsion>
1.3489

> <Gold.PLP.Chemscore.Hbond>
2.9680

> <Gold.PLP.Chemscore.CHOScore>
0.0000

> <Gold.PLP.Chemscore.Metal>
0.0000

> <Gold.Chemscore.Hbonds>
donor molecule, donor type, donor heavy atom, donor atom, acceptor molecule, acceptor atom, score
      L1  H     9    45       P1 10747  1.00
      L1  H    25    57       P1  8028  1.00
      P1  H  6896  6907       L1    14  0.68

> <Gold.PLP.Chemscore.Internal.Correction>
1.0987

> <Gold.Rescore>
     Score         DG    S(hbond)    S(metal)    S(lipo)     H(rot)  DE(clash)    DE(int)     intcor
     11.68     -14.24       1.77        0.00      98.71       3.40       0.03       2.54       ----

> <Gold.Chemscore.Fitness>
11.6771

> <Gold.Chemscore.DG>
-14.2421

> <Gold.Chemscore.ZeroCoef>
-5.4800

> <Gold.Chemscore.Hbond>
1.7705

> <Gold.Chemscore.Metal>
0.0000

> <Gold.Chemscore.Lipo>
98.7098

> <Gold.Chemscore.Internal_Hbond>
0.0000

> <Gold.Chemscore.DEClash>
0.0270

> <Gold.Chemscore.DEInternal>
2.5380

> <Gold.Chemscore.Rot>
3.3986

> <Gold.Chemscore.Internal.Correction>
   9.000000E+99

> <Gold.Chemscore.Hbonds>
donor molecule, donor type, donor heavy atom, donor atom, acceptor molecule, acceptor atom, score
      L1  H     9    45       P1 10747  0.91
      L1  H    25    57       P1  8028  0.42
      P1  H  6896  6907       L1    14  0.05

> <Gold.Chemscore.Hbond.Weighted>
-5.9136

> <Gold.Chemscore.Metal.Weighted>
-0.0000

> <Gold.Chemscore.Lipo.Weighted>
-11.5490

> <Gold.Chemscore.Internal_Hbond.Weighted>
0.0000

> <Gold.Chemscore.DEClash.Weighted>
0.0270

> <Gold.Chemscore.DEInternal.Weighted>
2.5380

> <Gold.Chemscore.Rot.Weighted>
8.7005

> <Gold.Chemscore.Internal.Correction.Weighted>
   9.000000E+99

> <Gold.Protein.RotatedTorsions>
[ 6907 6896 6895 6894 ] final  -94.20 input  -60.11 | X-H torsion
[ 7974 7965 7964 7962 ] final -169.31 input  175.53 | X-H torsion
[ 8008 7997 7996 7995 ] final  -47.90 input   59.86 | X-H torsion
[ 10167 10162 10161 10158 ] final -145.69 input  -65.29 | X-H torsion
[ 10718 10713 10712 10709 ] final -115.77 input   66.30 | X-H torsion
[ 10763 10752 10751 10750 ] final   62.25 input  -60.55 | X-H torsion
[ 11005 11000 10999 10996 ] final   -8.05 input  -57.11 | X-H torsion

> <Gold.Protein.ActiveResidues>
 VAL166  LYS551  ARG553  GLY616  TRP617  ASP618  TYR619  PRO620  LYS621  CYS622 
 ASP623  PHE694  ASN695  SER759  ASP760  ASP761  ALA762  ILE779  LEU786  VAL792 
 PHE793  MET794  SER795  GLU796  ALA797  LYS798  CYS799  TRP800  GLU811  SER814 

> <Gold.Protein.RotatedAtoms>
  150.6937  134.1849  159.4262 H   0  0  0  0  0  0  0  0  0  0  0  0  # atno 6907 bound_to 6896
  151.9822  135.0020  160.0567 H   0  0  0  0  0  0  0  0  0  0  0  0  # atno 6908 bound_to 6896
  152.1745  133.4630  159.4963 H   0  0  0  0  0  0  0  0  0  0  0  0  # atno 6909 bound_to 6896
  144.7187  140.2240  143.6312 H   0  0  0  0  0  0  0  0  0  0  0  0  # atno 7974 bound_to 7965
  154.4022  140.1335  156.4251 H   0  0  0  0  0  0  0  0  0  0  0  0  # atno 8008 bound_to 7997
  155.7605  140.3486  155.5175 H   0  0  0  0  0  0  0  0  0  0  0  0  # atno 8009 bound_to 7997
  155.8863  140.0996  157.1440 H   0  0  0  0  0  0  0  0  0  0  0  0  # atno 8010 bound_to 7997
  139.7782  143.8139  152.2635 H   0  0  0  0  0  0  0  0  0  0  0  0  # atno 10167 bound_to 10162
  156.0918  130.6099  150.8949 H   0  0  0  0  0  0  0  0  0  0  0  0  # atno 10718 bound_to 10713
  152.9977  135.5471  154.6164 H   0  0  0  0  0  0  0  0  0  0  0  0  # atno 10763 bound_to 10752
  154.5473  135.2824  155.1043 H   0  0  0  0  0  0  0  0  0  0  0  0  # atno 10764 bound_to 10752
  154.2297  135.6436  153.5224 H   0  0  0  0  0  0  0  0  0  0  0  0  # atno 10765 bound_to 10752
  140.7194  133.8841  155.8809 H   0  0  0  0  0  0  0  0  0  0  0  0  # atno 11005 bound_to 11000
  145.8474  139.2159  143.1792 LP  0  0  0  0  0  0  0  0  0  0  0  0  # atno 17320 bound_to 7965
  146.0292  140.8275  142.9885 LP  0  0  0  0  0  0  0  0  0  0  0  0  # atno 17321 bound_to 7965
  139.8194  144.7302  150.9593 LP  0  0  0  0  0  0  0  0  0  0  0  0  # atno 17342 bound_to 10162
  140.7817  143.4174  151.0896 LP  0  0  0  0  0  0  0  0  0  0  0  0  # atno 17343 bound_to 10162
  157.6069  131.0938  150.8863 LP  0  0  0  0  0  0  0  0  0  0  0  0  # atno 17370 bound_to 10713
  156.9010  130.5247  149.5283 LP  0  0  0  0  0  0  0  0  0  0  0  0  # atno 17371 bound_to 10713
  141.0017  134.1141  157.4311 LP  0  0  0  0  0  0  0  0  0  0  0  0  # atno 17394 bound_to 11000
  139.8852  135.0070  156.6418 LP  0  0  0  0  0  0  0  0  0  0  0  0  # atno 17395 bound_to 11000

$$$$
