AV-unprocessed.smi:679|AV-procd|sdf|3322|dock2
  -GOLD-   22720 0293D 1   1.00000     0.00000
 Structure written by MMmdl.
 41 43  0  0  0  0  0  0  0  0  1 V2000
  145.4516  132.0729  150.8821 C   0  0  0  0  0  0  0  0  0  0  0  0
  145.2622  133.2797  151.8036 C   0  0  0  0  0  0  0  0  0  0  0  0
  146.1626  133.1672  152.8923 O   0  0  0  0  0  0  0  0  0  0  0  0
  146.8424  134.3795  153.1780 C   0  0  1  0  0  0  0  0  0  0  0  0
  146.0023  135.4326  153.9073 C   0  0  0  0  0  0  0  0  0  0  0  0
  147.2402  135.7274  154.7629 C   0  0  2  0  0  0  0  0  0  0  0  0
  148.0499  136.7922  154.1685 N   0  0  0  0  0  0  0  0  0  0  0  0
  148.6819  137.7491  154.8631 C   0  0  0  0  0  0  0  0  0  0  0  0
  148.6398  137.8292  156.0915 O   0  0  0  0  0  0  0  0  0  0  0  0
  149.4922  138.7544  154.0389 C   0  0  0  0  0  0  0  0  0  0  0  0
  150.9026  138.7384  154.3855 N   0  0  0  0  0  0  0  0  0  0  0  0
  151.8207  137.7746  154.2853 C   0  0  0  0  0  0  0  0  0  0  0  0
  153.0024  138.1770  154.7272 N   0  0  0  0  0  0  0  0  0  0  0  0
  152.7628  139.4828  155.1212 N   0  0  0  0  0  0  0  0  0  0  0  0
  151.5182  139.8206  154.9232 N   0  0  0  0  0  0  0  0  0  0  0  0
  147.7507  134.2999  154.4291 C   0  0  0  0  0  0  0  0  0  0  0  0
  147.4280  133.2060  155.4503 C   0  0  0  0  0  0  0  0  0  0  0  0
  148.3013  131.9943  155.1083 C   0  0  0  0  0  0  0  0  0  0  0  0
  149.4523  132.5380  154.2561 C   0  0  0  0  0  0  0  0  0  0  0  0
  149.2398  134.0518  154.1950 C   0  0  0  0  0  0  0  0  0  0  0  0
  144.7802  132.1273  150.0248 H   0  0  0  0  0  0  0  0  0  0  0  0
  145.2463  131.1414  151.4102 H   0  0  0  0  0  0  0  0  0  0  0  0
  146.4733  132.0265  150.5047 H   0  0  0  0  0  0  0  0  0  0  0  0
  145.4522  134.2017  151.2520 H   0  0  0  0  0  0  0  0  0  0  0  0
  144.2331  133.3150  152.1634 H   0  0  0  0  0  0  0  0  0  0  0  0
  147.3692  134.7874  152.3124 H   0  0  0  0  0  0  0  0  0  0  0  0
  145.6570  136.2560  153.2808 H   0  0  0  0  0  0  0  0  0  0  0  0
  145.1847  134.9987  154.4851 H   0  0  0  0  0  0  0  0  0  0  0  0
  147.0010  135.8808  155.8167 H   0  0  0  0  0  0  0  0  0  0  0  0
  148.1382  136.7938  153.1627 H   0  0  0  0  0  0  0  0  0  0  0  0
  149.3756  138.5254  152.9786 H   0  0  0  0  0  0  0  0  0  0  0  0
  149.1136  139.7654  154.1956 H   0  0  0  0  0  0  0  0  0  0  0  0
  151.6250  136.7881  153.8916 H   0  0  0  0  0  0  0  0  0  0  0  0
  147.6775  133.5539  156.4537 H   0  0  0  0  0  0  0  0  0  0  0  0
  146.3702  132.9410  155.4701 H   0  0  0  0  0  0  0  0  0  0  0  0
  148.6605  131.4977  156.0101 H   0  0  0  0  0  0  0  0  0  0  0  0
  147.7295  131.2628  154.5359 H   0  0  0  0  0  0  0  0  0  0  0  0
  150.4287  132.2845  154.6701 H   0  0  0  0  0  0  0  0  0  0  0  0
  149.3995  132.1129  153.2530 H   0  0  0  0  0  0  0  0  0  0  0  0
  149.5914  134.4637  153.2485 H   0  0  0  0  0  0  0  0  0  0  0  0
  149.8249  134.5265  154.9838 H   0  0  0  0  0  0  0  0  0  0  0  0
  1  2  1  0  0  0  0
  1 21  1  0  0  0  0
  1 22  1  0  0  0  0
  1 23  1  0  0  0  0
  2  3  1  0  0  0  0
  2 24  1  0  0  0  0
  2 25  1  0  0  0  0
  3  4  1  0  0  0  0
  4 16  1  0  0  0  0
  4  5  1  0  0  0  0
  4 26  1  0  0  0  0
  5  6  1  0  0  0  0
  5 27  1  0  0  0  0
  5 28  1  0  0  0  0
  6  7  1  0  0  0  0
  6 16  1  0  0  0  0
  6 29  1  0  0  0  0
  7  8  1  0  0  0  0
  7 30  1  0  0  0  0
  8  9  2  0  0  0  0
  8 10  1  0  0  0  0
 10 11  1  0  0  0  0
 10 31  1  0  0  0  0
 10 32  1  0  0  0  0
 11 15  1  0  0  0  0
 11 12  1  0  0  0  0
 12 13  2  0  0  0  0
 12 33  1  0  0  0  0
 13 14  1  0  0  0  0
 14 15  2  0  0  0  0
 16 20  1  0  0  0  0
 16 17  1  0  0  0  0
 17 18  1  0  0  0  0
 17 34  1  0  0  0  0
 17 35  1  0  0  0  0
 18 19  1  0  0  0  0
 18 36  1  0  0  0  0
 18 37  1  0  0  0  0
 19 20  1  0  0  0  0
 19 38  1  0  0  0  0
 19 39  1  0  0  0  0
 20 40  1  0  0  0  0
 20 41  1  0  0  0  0
M  END
> <s_m_source_file>
AV-unprocessed.smi

> <i_m_source_file_index>
679

> <i_lp_mmshare_version>
43012

> <i_f3d_flags>
0

> <s_epik_input>
W0NIMl0xW0NIMl1bQ0gyXVtDSDJdQzEyW0NASF0oT1tDSDJdW0NIM10pW0NIMl1bQ0BIXTJbTkhdQyg9TylbQ0gyXW4zW2NIXW5ubjM=

> <s_epik_cmdline>
J2VwaWtfcHl0aG9uJywgJy1waCcsICc3LjAnLCAnLXRuJywgJzgnLCAnLW1hJywgJzIwMCcsICctbWV0YWxfYmluZGluZycsICctaW1hZScsICc8aW5maWxlLm1hZT4nLCAnLW9tYWUnLCAnPG91dGZpbGUubWFlPic=

> <r_lp_tautomer_probability>
1

> <r_epik_Ionization_Penalty>
7.96741e-07

> <r_epik_Ionization_Penalty_Charging>
0

> <r_epik_Ionization_Penalty_Neutral>
7.96741e-07

> <r_epik_State_Penalty>
-0

> <r_epik_Charging_Adjusted_Penalty>
0

> <i_epik_Tot_Q>
0

> <i_epik_Tot_abs_Q>
0

> <r_epik_Metal_State_Penalty>
-0

> <b_epik_Metal_Only>
0

> <s_lp_Force_Field>
OPLS_2005

> <r_lp_Energy>
39.7046

> <b_lp_Chiralities_Consistent>
1

> <s_lp_Variant>
AV-unprocessed.smi:679-4

> <Gold.Version>
5.8.1

> <Gold.Id.Protein>
6NUR|6NUR_protein|mol2

> <Gold.PLP.Fitness>
38.7252

> <Gold.PLP.PLP>
-27.6819

> <Gold.PLP.part.hbond>
-4.5085

> <Gold.PLP.part.metal>
0.0000

> <Gold.PLP.part.buried>
-3.0394

> <Gold.PLP.part.nonpolar>
-20.3618

> <Gold.PLP.part.repulsive>
0.2113

> <Gold.PLP.ligand.clash>
0.0000

> <Gold.PLP.ligand.torsion>
0.5555

> <Gold.PLP.Chemscore.Hbond>
2.9280

> <Gold.PLP.Chemscore.CHOScore>
1.0000

> <Gold.PLP.Chemscore.Metal>
0.0000

> <Gold.Chemscore.Hbonds>
donor molecule, donor type, donor heavy atom, donor atom, acceptor molecule, acceptor atom, score
      L1  H     7    30       P1  7948  0.93
      P1  H  7989  7998       L1    15  1.00
      P1  H  7997  8009       L1    14  1.00
      L1  C    12    33       P1  7949  0.90

> <Gold.PLP.Chemscore.Internal.Correction>
0.3703

> <Gold.Rescore>
     Score         DG    S(hbond)    S(metal)    S(lipo)     H(rot)  DE(clash)    DE(int)     intcor
     11.65     -12.28       2.22        0.00      47.48       2.41       0.09       0.55       ----

> <Gold.Chemscore.Fitness>
11.6457

> <Gold.Chemscore.DG>
-12.2821

> <Gold.Chemscore.ZeroCoef>
-5.4800

> <Gold.Chemscore.Hbond>
2.2195

> <Gold.Chemscore.Metal>
0.0000

> <Gold.Chemscore.Lipo>
47.4849

> <Gold.Chemscore.Internal_Hbond>
0.0000

> <Gold.Chemscore.DEClash>
0.0861

> <Gold.Chemscore.DEInternal>
0.5502

> <Gold.Chemscore.Rot>
2.4089

> <Gold.Chemscore.Internal.Correction>
   9.000000E+99

> <Gold.Chemscore.Hbonds>
donor molecule, donor type, donor heavy atom, donor atom, acceptor molecule, acceptor atom, score
      L1  H     7    30       P1  7948  0.91
      P1  H  7989  7998       L1    15  0.09
      P1  H  7997  8009       L1    14  0.64

> <Gold.Chemscore.Hbond.Weighted>
-7.4131

> <Gold.Chemscore.Metal.Weighted>
-0.0000

> <Gold.Chemscore.Lipo.Weighted>
-5.5557

> <Gold.Chemscore.Internal_Hbond.Weighted>
0.0000

> <Gold.Chemscore.DEClash.Weighted>
0.0861

> <Gold.Chemscore.DEInternal.Weighted>
0.5502

> <Gold.Chemscore.Rot.Weighted>
6.1668

> <Gold.Chemscore.Internal.Correction.Weighted>
   9.000000E+99

> <Gold.Protein.RotatedTorsions>
[ 6907 6896 6895 6894 ] final  -32.47 input  -60.11 | X-H torsion
[ 7974 7965 7964 7962 ] final  -90.21 input  175.53 | X-H torsion
[ 8008 7997 7996 7995 ] final -137.85 input   59.86 | X-H torsion
[ 10167 10162 10161 10158 ] final  -70.78 input  -65.29 | X-H torsion
[ 10718 10713 10712 10709 ] final   42.08 input   66.30 | X-H torsion
[ 10763 10752 10751 10750 ] final -170.65 input  -60.55 | X-H torsion
[ 11005 11000 10999 10996 ] final  136.82 input  -57.11 | X-H torsion

> <Gold.Protein.ActiveResidues>
 VAL166  LYS551  ARG553  GLY616  TRP617  ASP618  TYR619  PRO620  LYS621  CYS622 
 ASP623  PHE694  ASN695  SER759  ASP760  ASP761  ALA762  ILE779  LEU786  VAL792 
 PHE793  MET794  SER795  GLU796  ALA797  LYS798  CYS799  TRP800  GLU811  SER814 

> <Gold.Protein.RotatedAtoms>
  151.0784  134.9843  159.8343 H   0  0  0  0  0  0  0  0  0  0  0  0  # atno 6907 bound_to 6896
  152.5417  134.2212  159.8798 H   0  0  0  0  0  0  0  0  0  0  0  0  # atno 6908 bound_to 6896
  151.2241  133.4443  159.2635 H   0  0  0  0  0  0  0  0  0  0  0  0  # atno 6909 bound_to 6896
  145.4294  140.9555  143.2136 H   0  0  0  0  0  0  0  0  0  0  0  0  # atno 7974 bound_to 7965
  155.4186  140.0517  157.3027 H   0  0  0  0  0  0  0  0  0  0  0  0  # atno 8008 bound_to 7997
  154.4913  140.2121  155.9502 H   0  0  0  0  0  0  0  0  0  0  0  0  # atno 8009 bound_to 7997
  156.1346  140.3165  155.8405 H   0  0  0  0  0  0  0  0  0  0  0  0  # atno 8010 bound_to 7997
  140.5325  143.2320  151.7236 H   0  0  0  0  0  0  0  0  0  0  0  0  # atno 10167 bound_to 10162
  157.4008  130.7859  149.7347 H   0  0  0  0  0  0  0  0  0  0  0  0  # atno 10718 bound_to 10713
  154.6392  135.2896  155.0124 H   0  0  0  0  0  0  0  0  0  0  0  0  # atno 10763 bound_to 10752
  154.1257  135.6541  153.4915 H   0  0  0  0  0  0  0  0  0  0  0  0  # atno 10764 bound_to 10752
  153.0318  135.5298  154.7251 H   0  0  0  0  0  0  0  0  0  0  0  0  # atno 10765 bound_to 10752
  140.0072  134.9454  157.0201 H   0  0  0  0  0  0  0  0  0  0  0  0  # atno 11005 bound_to 11000
  144.8192  139.5821  143.6994 LP  0  0  0  0  0  0  0  0  0  0  0  0  # atno 17320 bound_to 7965
  146.2615  139.6421  142.9359 LP  0  0  0  0  0  0  0  0  0  0  0  0  # atno 17321 bound_to 7965
  139.4959  144.4092  152.0098 LP  0  0  0  0  0  0  0  0  0  0  0  0  # atno 17342 bound_to 10162
  140.3195  144.3444  150.6013 LP  0  0  0  0  0  0  0  0  0  0  0  0  # atno 17343 bound_to 10162
  155.9823  130.4011  150.3426 LP  0  0  0  0  0  0  0  0  0  0  0  0  # atno 17370 bound_to 10713
  157.1553  131.0331  151.2866 LP  0  0  0  0  0  0  0  0  0  0  0  0  # atno 17371 bound_to 10713
  140.4619  134.1475  155.7192 LP  0  0  0  0  0  0  0  0  0  0  0  0  # atno 17394 bound_to 11000
  141.1685  133.8655  157.1641 LP  0  0  0  0  0  0  0  0  0  0  0  0  # atno 17395 bound_to 11000

$$$$
