AV-unprocessed.smi:1150|AV-procd|sdf|4894|dock8
  -GOLD-   22720 3473D 1   1.00000     0.00000
 Structure written by MMmdl.
 50 51  0  0  0  0  0  0  0  0  1 V2000
  151.3359  139.0708  155.1938 C   0  0  0  0  0  0  0  0  0  0  0  0
  150.2377  138.8070  156.2373 C   0  0  0  0  0  0  0  0  0  0  0  0
  149.4721  140.0728  156.6925 C   0  0  1  0  0  0  0  0  0  0  0  0
  150.4430  141.1424  156.9288 N   0  0  0  0  0  0  0  0  0  0  0  0
  151.0241  141.4434  158.1019 C   0  0  0  0  0  0  0  0  0  0  0  0
  150.7416  140.8956  159.1670 O   0  0  0  0  0  0  0  0  0  0  0  0
  152.1062  142.5216  158.0603 C   0  0  0  0  0  0  0  0  0  0  0  0
  152.4060  142.9813  159.4657 C   0  0  0  0  0  0  0  0  0  0  0  0
  152.2259  144.2897  160.0035 C   0  0  0  0  0  0  0  0  0  0  0  0
  151.7040  145.5156  159.3101 C   0  0  0  0  0  0  0  0  0  0  0  0
  152.5641  144.3620  161.2799 N   0  0  0  0  0  0  0  0  0  0  0  0
  152.9647  143.1159  161.6011 N   0  0  0  0  0  0  0  0  0  0  0  0
  153.4091  142.8405  162.9534 C   0  0  0  0  0  0  0  0  0  0  0  0
  152.8832  142.2545  160.5243 C   0  0  0  0  0  0  0  0  0  0  0  0
  153.2640  140.8127  160.6294 C   0  0  0  0  0  0  0  0  0  0  0  0
  148.3877  140.5427  155.6801 C   0  0  0  0  0  0  0  0  0  0  0  0
  148.9530  140.6995  154.2448 C   0  0  0  0  0  0  0  0  0  0  0  0
  147.8883  141.1709  153.2418 C   0  0  0  0  0  0  0  0  0  0  0  0
  147.2413  142.4854  153.6944 C   0  0  0  0  0  0  0  0  0  0  0  0
  146.6508  142.3405  155.1023 C   0  0  0  0  0  0  0  0  0  0  0  0
  147.7117  141.8682  156.1100 C   0  0  0  0  0  0  0  0  0  0  0  0
  151.8950  138.1589  154.9840 H   0  0  0  0  0  0  0  0  0  0  0  0
  152.0440  139.8198  155.5491 H   0  0  0  0  0  0  0  0  0  0  0  0
  150.9224  139.4219  154.2480 H   0  0  0  0  0  0  0  0  0  0  0  0
  149.5348  138.0754  155.8368 H   0  0  0  0  0  0  0  0  0  0  0  0
  150.7156  138.3346  157.0942 H   0  0  0  0  0  0  0  0  0  0  0  0
  148.9672  139.8260  157.6282 H   0  0  0  0  0  0  0  0  0  0  0  0
  150.7463  141.6584  156.1156 H   0  0  0  0  0  0  0  0  0  0  0  0
  152.9906  142.1200  157.5653 H   0  0  0  0  0  0  0  0  0  0  0  0
  151.7643  143.3487  157.4373 H   0  0  0  0  0  0  0  0  0  0  0  0
  150.6169  145.4850  159.2365 H   0  0  0  0  0  0  0  0  0  0  0  0
  152.1024  145.5949  158.2988 H   0  0  0  0  0  0  0  0  0  0  0  0
  151.9767  146.4273  159.8427 H   0  0  0  0  0  0  0  0  0  0  0  0
  152.9410  141.9260  163.3180 H   0  0  0  0  0  0  0  0  0  0  0  0
  153.1398  143.6602  163.6212 H   0  0  0  0  0  0  0  0  0  0  0  0
  154.4918  142.7157  162.9630 H   0  0  0  0  0  0  0  0  0  0  0  0
  153.1257  140.2937  159.6816 H   0  0  0  0  0  0  0  0  0  0  0  0
  152.6537  140.3051  161.3763 H   0  0  0  0  0  0  0  0  0  0  0  0
  154.3102  140.7090  160.9178 H   0  0  0  0  0  0  0  0  0  0  0  0
  147.6134  139.7745  155.6435 H   0  0  0  0  0  0  0  0  0  0  0  0
  149.7822  141.4083  154.2542 H   0  0  0  0  0  0  0  0  0  0  0  0
  149.3621  139.7560  153.8838 H   0  0  0  0  0  0  0  0  0  0  0  0
  148.3377  141.2995  152.2566 H   0  0  0  0  0  0  0  0  0  0  0  0
  147.1213  140.4029  153.1341 H   0  0  0  0  0  0  0  0  0  0  0  0
  147.9856  143.2829  153.6877 H   0  0  0  0  0  0  0  0  0  0  0  0
  146.4624  142.7806  152.9907 H   0  0  0  0  0  0  0  0  0  0  0  0
  146.2293  143.2923  155.4270 H   0  0  0  0  0  0  0  0  0  0  0  0
  145.8248  141.6284  155.0808 H   0  0  0  0  0  0  0  0  0  0  0  0
  147.2245  141.7580  157.0777 H   0  0  0  0  0  0  0  0  0  0  0  0
  148.4687  142.6444  156.2310 H   0  0  0  0  0  0  0  0  0  0  0  0
  1  2  1  0  0  0  0
  1 22  1  0  0  0  0
  1 23  1  0  0  0  0
  1 24  1  0  0  0  0
  2  3  1  0  0  0  0
  2 25  1  0  0  0  0
  2 26  1  0  0  0  0
  3  4  1  0  0  0  0
  3 16  1  0  0  0  0
  3 27  1  0  0  0  0
  4  5  1  0  0  0  0
  4 28  1  0  0  0  0
  5  6  2  0  0  0  0
  5  7  1  0  0  0  0
  7  8  1  0  0  0  0
  7 29  1  0  0  0  0
  7 30  1  0  0  0  0
  8 14  2  0  0  0  0
  8  9  1  0  0  0  0
  9 10  1  0  0  0  0
  9 11  2  0  0  0  0
 10 31  1  0  0  0  0
 10 32  1  0  0  0  0
 10 33  1  0  0  0  0
 11 12  1  0  0  0  0
 12 13  1  0  0  0  0
 12 14  1  0  0  0  0
 13 34  1  0  0  0  0
 13 35  1  0  0  0  0
 13 36  1  0  0  0  0
 14 15  1  0  0  0  0
 15 37  1  0  0  0  0
 15 38  1  0  0  0  0
 15 39  1  0  0  0  0
 16 21  1  0  0  0  0
 16 17  1  0  0  0  0
 16 40  1  0  0  0  0
 17 18  1  0  0  0  0
 17 41  1  0  0  0  0
 17 42  1  0  0  0  0
 18 19  1  0  0  0  0
 18 43  1  0  0  0  0
 18 44  1  0  0  0  0
 19 20  1  0  0  0  0
 19 45  1  0  0  0  0
 19 46  1  0  0  0  0
 20 21  1  0  0  0  0
 20 47  1  0  0  0  0
 20 48  1  0  0  0  0
 21 49  1  0  0  0  0
 21 50  1  0  0  0  0
M  END
> <s_m_source_file>
AV-unprocessed.smi

> <i_m_source_file_index>
1150

> <i_lp_mmshare_version>
43012

> <i_f3d_flags>
0

> <s_epik_input>
W0NIMl0xW0NIMl1bQ0gyXVtDSDJdW0NIMl1bQ0hdMVtDQEhdKFtDSDJdW0NIM10pW05IXUMoPU8pW0NIMl1jMmMoW0NIM10pbm4oW0NIM10pYzJbQ0gzXQ==

> <s_epik_cmdline>
J2VwaWtfcHl0aG9uJywgJy1waCcsICc3LjAnLCAnLXRuJywgJzgnLCAnLW1hJywgJzIwMCcsICctbWV0YWxfYmluZGluZycsICctaW1hZScsICc8aW5maWxlLm1hZT4nLCAnLW9tYWUnLCAnPG91dGZpbGUubWFlPic=

> <r_lp_tautomer_probability>
1

> <r_epik_Ionization_Penalty>
0.00328092

> <r_epik_Ionization_Penalty_Charging>
0

> <r_epik_Ionization_Penalty_Neutral>
0.00328092

> <r_epik_State_Penalty>
0.00231765

> <r_epik_Charging_Adjusted_Penalty>
0.00231765

> <i_epik_Tot_Q>
0

> <i_epik_Tot_abs_Q>
0

> <r_epik_Metal_State_Penalty>
-0

> <b_epik_Metal_Only>
0

> <s_lp_Force_Field>
OPLS_2005

> <r_lp_Energy>
7.94886

> <b_lp_Chiralities_Consistent>
1

> <s_lp_Variant>
AV-unprocessed.smi:1150-2

> <Gold.Version>
5.8.1

> <Gold.Id.Protein>
6NUR|6NUR_protein|mol2

> <Gold.PLP.Fitness>
45.4405

> <Gold.PLP.PLP>
-46.8391

> <Gold.PLP.part.hbond>
-0.6663

> <Gold.PLP.part.metal>
0.0000

> <Gold.PLP.part.buried>
-4.6813

> <Gold.PLP.part.nonpolar>
-42.1508

> <Gold.PLP.part.repulsive>
0.2015

> <Gold.PLP.ligand.clash>
0.0000

> <Gold.PLP.ligand.torsion>
0.7211

> <Gold.PLP.Chemscore.Hbond>
0.0000

> <Gold.PLP.Chemscore.CHOScore>
0.0000

> <Gold.PLP.Chemscore.Metal>
0.0000

> <Gold.PLP.Chemscore.Internal.Correction>
0.0436

> <Gold.Rescore>
     Score         DG    S(hbond)    S(metal)    S(lipo)     H(rot)  DE(clash)    DE(int)     intcor
     13.93     -16.47       0.00        0.00     124.97       1.42       0.47       2.08       ----

> <Gold.Chemscore.Fitness>
13.9281

> <Gold.Chemscore.DG>
-16.4724

> <Gold.Chemscore.ZeroCoef>
-5.4800

> <Gold.Chemscore.Hbond>
0.0000

> <Gold.Chemscore.Metal>
0.0000

> <Gold.Chemscore.Lipo>
124.9659

> <Gold.Chemscore.Internal_Hbond>
0.0000

> <Gold.Chemscore.DEClash>
0.4686

> <Gold.Chemscore.DEInternal>
2.0757

> <Gold.Chemscore.Rot>
1.4174

> <Gold.Chemscore.Internal.Correction>
   9.000000E+99

> <Gold.Chemscore.Hbond.Weighted>
-0.0000

> <Gold.Chemscore.Metal.Weighted>
-0.0000

> <Gold.Chemscore.Lipo.Weighted>
-14.6210

> <Gold.Chemscore.Internal_Hbond.Weighted>
0.0000

> <Gold.Chemscore.DEClash.Weighted>
0.4686

> <Gold.Chemscore.DEInternal.Weighted>
2.0757

> <Gold.Chemscore.Rot.Weighted>
3.6286

> <Gold.Chemscore.Internal.Correction.Weighted>
   9.000000E+99

> <Gold.Protein.RotatedTorsions>
[ 6907 6896 6895 6894 ] final  -26.28 input  -60.11 | X-H torsion
[ 7974 7965 7964 7962 ] final -127.71 input  175.53 | X-H torsion
[ 8008 7997 7996 7995 ] final   69.64 input   59.86 | X-H torsion
[ 10167 10162 10161 10158 ] final  -17.36 input  -65.29 | X-H torsion
[ 10718 10713 10712 10709 ] final  -76.91 input   66.30 | X-H torsion
[ 10763 10752 10751 10750 ] final -120.41 input  -60.55 | X-H torsion
[ 11005 11000 10999 10996 ] final  -53.34 input  -57.11 | X-H torsion

> <Gold.Protein.ActiveResidues>
 VAL166  LYS551  ARG553  GLY616  TRP617  ASP618  TYR619  PRO620  LYS621  CYS622 
 ASP623  PHE694  ASN695  SER759  ASP760  ASP761  ALA762  ILE779  LEU786  VAL792 
 PHE793  MET794  SER795  GLU796  ALA797  LYS798  CYS799  TRP800  GLU811  SER814 

> <Gold.Protein.RotatedAtoms>
  151.1632  135.0283  159.8719 H   0  0  0  0  0  0  0  0  0  0  0  0  # atno 6907 bound_to 6896
  152.5451  134.1255  159.8427 H   0  0  0  0  0  0  0  0  0  0  0  0  # atno 6908 bound_to 6896
  151.1353  133.4962  159.2630 H   0  0  0  0  0  0  0  0  0  0  0  0  # atno 6909 bound_to 6896
  144.9743  140.7577  143.4651 H   0  0  0  0  0  0  0  0  0  0  0  0  # atno 7974 bound_to 7965
  155.7266  140.3492  155.5040 H   0  0  0  0  0  0  0  0  0  0  0  0  # atno 8008 bound_to 7997
  155.9221  140.1069  157.1220 H   0  0  0  0  0  0  0  0  0  0  0  0  # atno 8009 bound_to 7997
  154.4071  140.1247  156.4679 H   0  0  0  0  0  0  0  0  0  0  0  0  # atno 8010 bound_to 7997
  140.7246  143.5023  150.9853 H   0  0  0  0  0  0  0  0  0  0  0  0  # atno 10167 bound_to 10162
  156.0160  130.4477  150.3265 H   0  0  0  0  0  0  0  0  0  0  0  0  # atno 10718 bound_to 10713
  154.8643  135.4204  154.2454 H   0  0  0  0  0  0  0  0  0  0  0  0  # atno 10763 bound_to 10752
  153.3411  135.6993  153.6872 H   0  0  0  0  0  0  0  0  0  0  0  0  # atno 10764 bound_to 10752
  153.5850  135.3565  155.2862 H   0  0  0  0  0  0  0  0  0  0  0  0  # atno 10765 bound_to 10752
  141.0971  133.6623  156.4158 H   0  0  0  0  0  0  0  0  0  0  0  0  # atno 11005 bound_to 11000
  145.2512  139.2031  143.4941 LP  0  0  0  0  0  0  0  0  0  0  0  0  # atno 17320 bound_to 7965
  146.3391  140.2426  142.8596 LP  0  0  0  0  0  0  0  0  0  0  0  0  # atno 17321 bound_to 7965
  139.8733  143.7164  152.3164 LP  0  0  0  0  0  0  0  0  0  0  0  0  # atno 17342 bound_to 10162
  139.7421  144.7557  151.0636 LP  0  0  0  0  0  0  0  0  0  0  0  0  # atno 17343 bound_to 10162
  157.1364  131.0285  151.2947 LP  0  0  0  0  0  0  0  0  0  0  0  0  # atno 17370 bound_to 10713
  157.4508  130.7597  149.7150 LP  0  0  0  0  0  0  0  0  0  0  0  0  # atno 17371 bound_to 10713
  140.5113  134.6392  157.5285 LP  0  0  0  0  0  0  0  0  0  0  0  0  # atno 17394 bound_to 11000
  139.9811  134.7136  155.9858 LP  0  0  0  0  0  0  0  0  0  0  0  0  # atno 17395 bound_to 11000

$$$$
