AV-unprocessed.smi:1707|AV-procd|sdf|6887|dock7
  -GOLD-   22720 8 93D 1   1.00000     0.00000
 Structure written by MMmdl.
 41 42  0  0  0  0  0  0  0  0  1 V2000
  153.6505  137.4175  160.5099 O   0  0  0  0  0  0  0  0  0  0  0  0
  154.4829  137.8809  161.2890 C   0  0  0  0  0  0  0  0  0  0  0  0
  154.7413  139.1927  161.3906 N   0  0  0  0  0  0  0  0  0  0  0  0
  154.0887  140.2367  160.6093 C   0  0  0  0  0  0  0  0  0  0  0  0
  153.7473  141.4603  161.4776 C   0  0  0  0  0  0  0  0  0  0  0  0
  152.9686  142.5219  160.7193 C   0  0  0  0  0  0  0  0  0  0  0  0
  152.7156  142.4158  159.4002 C   0  0  0  0  0  0  0  0  0  0  0  0
  151.9530  143.4510  158.5918 C   0  0  0  0  0  0  0  0  0  0  0  0
  151.7988  144.7840  159.3429 C   0  0  0  0  0  0  0  0  0  0  0  0
  151.4199  144.5511  160.8106 C   0  0  0  0  0  0  0  0  0  0  0  0
  152.4871  143.7142  161.5387 C   0  0  0  0  0  0  0  0  0  0  0  0
  155.2589  137.1738  162.1312 N   0  0  0  0  0  0  0  0  0  0  0  0
  155.3099  135.7870  162.3564 C   0  0  0  0  0  0  0  0  0  0  0  0
  155.2237  135.1869  163.5730 C   0  0  0  0  0  0  0  0  0  0  0  0
  155.2949  133.7436  163.7287 C   0  0  0  0  0  0  0  0  0  0  0  0
  155.1198  133.0828  165.0872 C   0  0  0  0  0  0  0  0  0  0  0  0
  154.1561  132.1611  165.0591 F   0  0  0  0  0  0  0  0  0  0  0  0
  156.2547  132.4870  165.4503 F   0  0  0  0  0  0  0  0  0  0  0  0
  154.8091  133.9846  166.0187 F   0  0  0  0  0  0  0  0  0  0  0  0
  155.4412  133.0244  162.6008 C   0  0  0  0  0  0  0  0  0  0  0  0
  155.5490  133.6335  161.3490 N   0  0  0  0  0  0  0  0  0  0  0  0
  155.4943  134.9689  161.1461 C   0  0  0  0  0  0  0  0  0  0  0  0
  155.5962  135.4282  160.0089 O   0  0  0  0  0  0  0  0  0  0  0  0
  155.6719  133.0260  160.5517 H   0  0  0  0  0  0  0  0  0  0  0  0
  155.4414  139.4913  162.0540 H   0  0  0  0  0  0  0  0  0  0  0  0
  154.7238  140.5177  159.7679 H   0  0  0  0  0  0  0  0  0  0  0  0
  153.1758  139.8191  160.1837 H   0  0  0  0  0  0  0  0  0  0  0  0
  153.1697  141.1386  162.3455 H   0  0  0  0  0  0  0  0  0  0  0  0
  154.6580  141.9159  161.8683 H   0  0  0  0  0  0  0  0  0  0  0  0
  153.0549  141.5465  158.8560 H   0  0  0  0  0  0  0  0  0  0  0  0
  152.4650  143.6162  157.6438 H   0  0  0  0  0  0  0  0  0  0  0  0
  150.9724  143.0371  158.3550 H   0  0  0  0  0  0  0  0  0  0  0  0
  152.7377  145.3377  159.3002 H   0  0  0  0  0  0  0  0  0  0  0  0
  151.0507  145.4055  158.8503 H   0  0  0  0  0  0  0  0  0  0  0  0
  151.2818  145.5037  161.3229 H   0  0  0  0  0  0  0  0  0  0  0  0
  150.4602  144.0350  160.8545 H   0  0  0  0  0  0  0  0  0  0  0  0
  152.0877  143.3653  162.4913 H   0  0  0  0  0  0  0  0  0  0  0  0
  153.3492  144.3408  161.7680 H   0  0  0  0  0  0  0  0  0  0  0  0
  155.9261  137.7058  162.6713 H   0  0  0  0  0  0  0  0  0  0  0  0
  155.1159  135.7645  164.4757 H   0  0  0  0  0  0  0  0  0  0  0  0
  155.4807  131.9455  162.5670 H   0  0  0  0  0  0  0  0  0  0  0  0
  1  2  2  0  0  0  0
  2  3  1  0  0  0  0
  2 12  1  0  0  0  0
  3  4  1  0  0  0  0
  3 25  1  0  0  0  0
  4  5  1  0  0  0  0
  4 26  1  0  0  0  0
  4 27  1  0  0  0  0
  5  6  1  0  0  0  0
  5 28  1  0  0  0  0
  5 29  1  0  0  0  0
  6 11  1  0  0  0  0
  6  7  2  0  0  0  0
  7  8  1  0  0  0  0
  7 30  1  0  0  0  0
  8  9  1  0  0  0  0
  8 31  1  0  0  0  0
  8 32  1  0  0  0  0
  9 10  1  0  0  0  0
  9 33  1  0  0  0  0
  9 34  1  0  0  0  0
 10 11  1  0  0  0  0
 10 35  1  0  0  0  0
 10 36  1  0  0  0  0
 11 37  1  0  0  0  0
 11 38  1  0  0  0  0
 12 13  1  0  0  0  0
 12 39  1  0  0  0  0
 13 22  1  0  0  0  0
 13 14  2  0  0  0  0
 14 15  1  0  0  0  0
 14 40  1  0  0  0  0
 15 16  1  0  0  0  0
 15 20  2  0  0  0  0
 16 17  1  0  0  0  0
 16 18  1  0  0  0  0
 16 19  1  0  0  0  0
 20 21  1  0  0  0  0
 20 41  1  0  0  0  0
 21 24  1  0  0  0  0
 21 22  1  0  0  0  0
 22 23  2  0  0  0  0
M  END
> <s_m_source_file>
AV-unprocessed.smi

> <i_m_source_file_index>
1707

> <i_lp_mmshare_version>
43012

> <i_f3d_flags>
0

> <s_epik_input>
Tz1jMVtuSF1bY0hdYyhDKEYpKEYpRilbY0hdYzFbTkhdQyg9TylbTkhdW0NIMl1bQ0gyXUMyPVtDSF1bQ0gyXVtDSDJdW0NIMl1bQ0gyXTI=

> <s_epik_cmdline>
J2VwaWtfcHl0aG9uJywgJy1waCcsICc3LjAnLCAnLXRuJywgJzgnLCAnLW1hJywgJzIwMCcsICctbWV0YWxfYmluZGluZycsICctaW1hZScsICc8aW5maWxlLm1hZT4nLCAnLW9tYWUnLCAnPG91dGZpbGUubWFlPic=

> <r_lp_tautomer_probability>
1

> <r_epik_Ionization_Penalty>
0.00382222

> <r_epik_Ionization_Penalty_Charging>
0.0038016

> <r_epik_Ionization_Penalty_Neutral>
2.06242e-05

> <r_epik_State_Penalty>
-0

> <r_epik_Charging_Adjusted_Penalty>
0.0038016

> <i_epik_Tot_Q>
0

> <i_epik_Tot_abs_Q>
0

> <r_epik_Metal_State_Penalty>
0.371215

> <b_epik_Metal_Only>
0

> <s_lp_Force_Field>
OPLS_2005

> <r_lp_Energy>
19.0753

> <b_lp_Chiralities_Consistent>
1

> <s_lp_Variant>
AV-unprocessed.smi:1707-1

> <Gold.Version>
5.8.1

> <Gold.Id.Protein>
6NUR|6NUR_protein|mol2

> <Gold.PLP.Fitness>
48.5102

> <Gold.PLP.PLP>
-50.0164

> <Gold.PLP.part.hbond>
0.0000

> <Gold.PLP.part.metal>
0.0000

> <Gold.PLP.part.buried>
-4.5004

> <Gold.PLP.part.nonpolar>
-44.9603

> <Gold.PLP.part.repulsive>
0.0651

> <Gold.PLP.ligand.clash>
0.0000

> <Gold.PLP.ligand.torsion>
0.7800

> <Gold.PLP.Chemscore.Hbond>
0.0000

> <Gold.PLP.Chemscore.CHOScore>
0.0000

> <Gold.PLP.Chemscore.Metal>
0.0000

> <Gold.PLP.Chemscore.Internal.Correction>
0.0538

> <Gold.Rescore>
     Score         DG    S(hbond)    S(metal)    S(lipo)     H(rot)  DE(clash)    DE(int)     intcor
     14.80     -15.60       0.00        0.00     120.89       1.57       0.06       0.74       ----

> <Gold.Chemscore.Fitness>
14.7962

> <Gold.Chemscore.DG>
-15.6002

> <Gold.Chemscore.ZeroCoef>
-5.4800

> <Gold.Chemscore.Hbond>
0.0000

> <Gold.Chemscore.Metal>
0.0000

> <Gold.Chemscore.Lipo>
120.8880

> <Gold.Chemscore.Internal_Hbond>
0.0000

> <Gold.Chemscore.DEClash>
0.0614

> <Gold.Chemscore.DEInternal>
0.7426

> <Gold.Chemscore.Rot>
1.5717

> <Gold.Chemscore.Internal.Correction>
   9.000000E+99

> <Gold.Chemscore.Hbond.Weighted>
-0.0000

> <Gold.Chemscore.Metal.Weighted>
-0.0000

> <Gold.Chemscore.Lipo.Weighted>
-14.1439

> <Gold.Chemscore.Internal_Hbond.Weighted>
0.0000

> <Gold.Chemscore.DEClash.Weighted>
0.0614

> <Gold.Chemscore.DEInternal.Weighted>
0.7426

> <Gold.Chemscore.Rot.Weighted>
4.0237

> <Gold.Chemscore.Internal.Correction.Weighted>
   9.000000E+99

> <Gold.Protein.RotatedTorsions>
[ 6907 6896 6895 6894 ] final  -90.67 input  -60.11 | X-H torsion
[ 7974 7965 7964 7962 ] final -149.92 input  175.53 | X-H torsion
[ 8008 7997 7996 7995 ] final -145.40 input   59.86 | X-H torsion
[ 10167 10162 10161 10158 ] final   72.72 input  -65.29 | X-H torsion
[ 10718 10713 10712 10709 ] final  150.46 input   66.30 | X-H torsion
[ 10763 10752 10751 10750 ] final   21.94 input  -60.55 | X-H torsion
[ 11005 11000 10999 10996 ] final  -38.02 input  -57.11 | X-H torsion

> <Gold.Protein.ActiveResidues>
 VAL166  LYS551  ARG553  GLY616  TRP617  ASP618  TYR619  PRO620  LYS621  CYS622 
 ASP623  PHE694  ASN695  SER759  ASP760  ASP761  ALA762  ILE779  LEU786  VAL792 
 PHE793  MET794  SER795  GLU796  ALA797  LYS798  CYS799  TRP800  GLU811  SER814 

> <Gold.Protein.RotatedAtoms>
  150.6884  134.2395  159.4466 H   0  0  0  0  0  0  0  0  0  0  0  0  # atno 6907 bound_to 6896
  152.0341  134.9748  160.0582 H   0  0  0  0  0  0  0  0  0  0  0  0  # atno 6908 bound_to 6896
  152.1276  133.4354  159.4742 H   0  0  0  0  0  0  0  0  0  0  0  0  # atno 6909 bound_to 6896
  144.7938  140.5000  143.5754 H   0  0  0  0  0  0  0  0  0  0  0  0  # atno 7974 bound_to 7965
  155.5426  140.0609  157.2867 H   0  0  0  0  0  0  0  0  0  0  0  0  # atno 8008 bound_to 7997
  154.4447  140.1916  156.0650 H   0  0  0  0  0  0  0  0  0  0  0  0  # atno 8009 bound_to 7997
  156.0573  140.3277  155.7424 H   0  0  0  0  0  0  0  0  0  0  0  0  # atno 8010 bound_to 7997
  140.0322  144.5456  150.7498 H   0  0  0  0  0  0  0  0  0  0  0  0  # atno 10167 bound_to 10162
  157.2832  131.0839  151.1516 H   0  0  0  0  0  0  0  0  0  0  0  0  # atno 10718 bound_to 10713
  153.0955  135.6658  153.9771 H   0  0  0  0  0  0  0  0  0  0  0  0  # atno 10763 bound_to 10752
  153.9356  135.2999  155.3446 H   0  0  0  0  0  0  0  0  0  0  0  0  # atno 10764 bound_to 10752
  154.7373  135.5095  153.9137 H   0  0  0  0  0  0  0  0  0  0  0  0  # atno 10765 bound_to 10752
  140.9996  133.6962  156.1998 H   0  0  0  0  0  0  0  0  0  0  0  0  # atno 11005 bound_to 11000
  145.5725  139.1484  143.3280 LP  0  0  0  0  0  0  0  0  0  0  0  0  # atno 17320 bound_to 7965
  146.2200  140.5858  142.9021 LP  0  0  0  0  0  0  0  0  0  0  0  0  # atno 17321 bound_to 7965
  140.7297  143.2675  151.3996 LP  0  0  0  0  0  0  0  0  0  0  0  0  # atno 17342 bound_to 10162
  139.6068  144.1180  152.2257 LP  0  0  0  0  0  0  0  0  0  0  0  0  # atno 17343 bound_to 10162
  157.2942  130.6811  149.6130 LP  0  0  0  0  0  0  0  0  0  0  0  0  # atno 17370 bound_to 10713
  155.9665  130.4411  150.5328 LP  0  0  0  0  0  0  0  0  0  0  0  0  # atno 17371 bound_to 10713
  140.6910  134.4666  157.5588 LP  0  0  0  0  0  0  0  0  0  0  0  0  # atno 17394 bound_to 11000
  139.9032  134.8508  156.1811 LP  0  0  0  0  0  0  0  0  0  0  0  0  # atno 17395 bound_to 11000

$$$$
