AV-unprocessed.smi:3141|AV-procd|sdf|11969|dock8
  -GOLD-   2272017373D 1   1.00000     0.00000
 Structure written by MMmdl.
 35 37  0  0  0  0  0  0  0  0  1 V2000
  150.3403  143.7138  160.4057 O   0  0  0  0  0  0  0  0  0  0  0  0
  149.7578  144.1992  159.4358 C   0  0  0  0  0  0  0  0  0  0  0  0
  148.6518  144.9504  159.5172 N   0  0  0  0  0  0  0  0  0  0  0  0
  147.9810  145.3072  160.7250 C   0  0  0  0  0  0  0  0  0  0  0  0
  146.7251  144.5414  161.0807 C   0  0  0  0  0  0  0  0  0  0  0  0
  146.6230  145.9647  160.6069 C   0  0  0  0  0  0  0  0  0  0  0  0
  150.1550  144.0421  158.1658 N   0  0  0  0  0  0  0  0  0  0  0  0
  151.3408  143.3025  157.7426 C   0  0  1  0  0  0  0  0  0  0  0  0
  152.5122  143.4939  158.7285 C   0  0  0  0  0  0  0  0  0  0  0  0
  152.7722  142.1252  159.3639 C   0  0  0  0  0  0  0  0  0  0  0  0
  152.2991  141.1211  158.3171 C   0  0  0  0  0  0  0  0  0  0  0  0
  151.0544  141.7862  157.7192 C   0  0  2  0  0  0  0  0  0  0  0  0
  150.6991  141.2892  156.3991 N   0  0  0  0  0  0  0  0  0  0  0  0
  149.6188  141.6935  155.6250 C   0  0  0  0  0  0  0  0  0  0  0  0
  149.6824  140.9779  154.4511 C   0  0  0  0  0  0  0  0  0  0  0  0
  150.7917  140.1367  154.4750 N   0  0  0  0  0  0  0  0  0  0  0  0
  151.3465  140.3790  155.6554 C   0  0  0  0  0  0  0  0  0  0  0  0
  148.2525  145.2991  158.6584 H   0  0  0  0  0  0  0  0  0  0  0  0
  148.5971  145.6303  161.5630 H   0  0  0  0  0  0  0  0  0  0  0  0
  146.3932  143.7607  160.3989 H   0  0  0  0  0  0  0  0  0  0  0  0
  146.5381  144.3481  162.1350 H   0  0  0  0  0  0  0  0  0  0  0  0
  146.3674  146.7224  161.3447 H   0  0  0  0  0  0  0  0  0  0  0  0
  146.2244  146.1347  159.6085 H   0  0  0  0  0  0  0  0  0  0  0  0
  149.6073  144.4779  157.4384 H   0  0  0  0  0  0  0  0  0  0  0  0
  151.6560  143.6443  156.7545 H   0  0  0  0  0  0  0  0  0  0  0  0
  153.3972  143.8102  158.1749 H   0  0  0  0  0  0  0  0  0  0  0  0
  152.3216  144.2572  159.4844 H   0  0  0  0  0  0  0  0  0  0  0  0
  153.8172  141.9831  159.6405 H   0  0  0  0  0  0  0  0  0  0  0  0
  152.1714  142.0207  160.2684 H   0  0  0  0  0  0  0  0  0  0  0  0
  153.0773  140.9941  157.5638 H   0  0  0  0  0  0  0  0  0  0  0  0
  152.0857  140.1407  158.7439 H   0  0  0  0  0  0  0  0  0  0  0  0
  150.2228  141.5682  158.3926 H   0  0  0  0  0  0  0  0  0  0  0  0
  148.9130  142.4377  155.9631 H   0  0  0  0  0  0  0  0  0  0  0  0
  149.0229  141.0070  153.5962 H   0  0  0  0  0  0  0  0  0  0  0  0
  152.2485  139.8840  155.9848 H   0  0  0  0  0  0  0  0  0  0  0  0
  1  2  2  0  0  0  0
  2  3  1  0  0  0  0
  2  7  1  0  0  0  0
  3  4  1  0  0  0  0
  3 18  1  0  0  0  0
  4  6  1  0  0  0  0
  4  5  1  0  0  0  0
  4 19  1  0  0  0  0
  5  6  1  0  0  0  0
  5 20  1  0  0  0  0
  5 21  1  0  0  0  0
  6 22  1  0  0  0  0
  6 23  1  0  0  0  0
  7  8  1  0  0  0  0
  7 24  1  0  0  0  0
  8 12  1  0  0  0  0
  8  9  1  0  0  0  0
  8 25  1  0  0  0  0
  9 10  1  0  0  0  0
  9 26  1  0  0  0  0
  9 27  1  0  0  0  0
 10 11  1  0  0  0  0
 10 28  1  0  0  0  0
 10 29  1  0  0  0  0
 11 12  1  0  0  0  0
 11 30  1  0  0  0  0
 11 31  1  0  0  0  0
 12 13  1  0  0  0  0
 12 32  1  0  0  0  0
 13 17  1  0  0  0  0
 13 14  1  0  0  0  0
 14 15  2  0  0  0  0
 14 33  1  0  0  0  0
 15 16  1  0  0  0  0
 15 34  1  0  0  0  0
 16 17  2  0  0  0  0
 17 35  1  0  0  0  0
M  END
> <s_m_source_file>
AV-unprocessed.smi

> <i_m_source_file_index>
3141

> <i_lp_mmshare_version>
43012

> <i_f3d_flags>
0

> <s_epik_input>
W0NIMl0xW0NIMl1bQ0hdMVtOSF1DKD1PKVtOSF1bQ0BASF0yW0NIMl1bQ0gyXVtDSDJdW0NASF0ybjNbY0hdW2NIXW5bY0hdMw==

> <s_epik_cmdline>
J2VwaWtfcHl0aG9uJywgJy1waCcsICc3LjAnLCAnLXRuJywgJzgnLCAnLW1hJywgJzIwMCcsICctbWV0YWxfYmluZGluZycsICctaW1hZScsICc8aW5maWxlLm1hZT4nLCAnLW9tYWUnLCAnPG91dGZpbGUubWFlPic=

> <r_lp_tautomer_probability>
1

> <r_epik_Ionization_Penalty>
0.728419

> <r_epik_Ionization_Penalty_Charging>
0.728357

> <r_epik_Ionization_Penalty_Neutral>
6.27871e-05

> <r_epik_State_Penalty>
0.753408

> <r_epik_Charging_Adjusted_Penalty>
1.48176

> <i_epik_Tot_Q>
0

> <i_epik_Tot_abs_Q>
0

> <r_epik_Metal_State_Penalty>
0.332413

> <b_epik_Metal_Only>
0

> <s_lp_Force_Field>
OPLS_2005

> <r_lp_Energy>
34.7591

> <b_lp_Chiralities_Consistent>
1

> <s_lp_Variant>
AV-unprocessed.smi:3141-8

> <Gold.Version>
5.8.1

> <Gold.Id.Protein>
6NUR|6NUR_protein|mol2

> <Gold.PLP.Fitness>
51.5957

> <Gold.PLP.PLP>
-40.6808

> <Gold.PLP.part.hbond>
-4.8590

> <Gold.PLP.part.metal>
0.0000

> <Gold.PLP.part.buried>
-4.8394

> <Gold.PLP.part.nonpolar>
-31.8109

> <Gold.PLP.part.repulsive>
0.4623

> <Gold.PLP.ligand.clash>
0.0000

> <Gold.PLP.ligand.torsion>
0.4843

> <Gold.PLP.Chemscore.Hbond>
2.7000

> <Gold.PLP.Chemscore.CHOScore>
1.2472

> <Gold.PLP.Chemscore.Metal>
0.0000

> <Gold.Chemscore.Hbonds>
donor molecule, donor type, donor heavy atom, donor atom, acceptor molecule, acceptor atom, score
      L1  H     3    18       P1  8029  1.00
      L1  H     7    24       P1  8028  0.70
      P1  H  7989  7998       L1    16  0.79
      L1  C    14    33       P1  8028  1.00
      L1  C    15    34       P1  7957  0.57

> <Gold.PLP.Chemscore.Internal.Correction>
0.0419

> <Gold.Rescore>
     Score         DG    S(hbond)    S(metal)    S(lipo)     H(rot)  DE(clash)    DE(int)     intcor
     15.18     -16.45       1.51        0.00      84.98       1.57       0.04       1.23       ----

> <Gold.Chemscore.Fitness>
15.1763

> <Gold.Chemscore.DG>
-16.4537

> <Gold.Chemscore.ZeroCoef>
-5.4800

> <Gold.Chemscore.Hbond>
1.5123

> <Gold.Chemscore.Metal>
0.0000

> <Gold.Chemscore.Lipo>
84.9838

> <Gold.Chemscore.Internal_Hbond>
0.0000

> <Gold.Chemscore.DEClash>
0.0428

> <Gold.Chemscore.DEInternal>
1.2345

> <Gold.Chemscore.Rot>
1.5705

> <Gold.Chemscore.Internal.Correction>
   9.000000E+99

> <Gold.Chemscore.Hbonds>
donor molecule, donor type, donor heavy atom, donor atom, acceptor molecule, acceptor atom, score
      L1  H     3    18       P1  8029  0.97
      L1  H     7    24       P1  8028  0.07
      P1  H  7989  7998       L1    16  0.08

> <Gold.Chemscore.Hbond.Weighted>
-5.0512

> <Gold.Chemscore.Metal.Weighted>
-0.0000

> <Gold.Chemscore.Lipo.Weighted>
-9.9431

> <Gold.Chemscore.Internal_Hbond.Weighted>
0.0000

> <Gold.Chemscore.DEClash.Weighted>
0.0428

> <Gold.Chemscore.DEInternal.Weighted>
1.2345

> <Gold.Chemscore.Rot.Weighted>
4.0206

> <Gold.Chemscore.Internal.Correction.Weighted>
   9.000000E+99

> <Gold.Protein.RotatedTorsions>
[ 6907 6896 6895 6894 ] final   50.05 input  -60.11 | X-H torsion
[ 7974 7965 7964 7962 ] final -177.37 input  175.53 | X-H torsion
[ 8008 7997 7996 7995 ] final   28.68 input   59.86 | X-H torsion
[ 10167 10162 10161 10158 ] final   72.36 input  -65.29 | X-H torsion
[ 10718 10713 10712 10709 ] final  130.13 input   66.30 | X-H torsion
[ 10763 10752 10751 10750 ] final   98.44 input  -60.55 | X-H torsion
[ 11005 11000 10999 10996 ] final -111.11 input  -57.11 | X-H torsion

> <Gold.Protein.ActiveResidues>
 VAL166  LYS551  ARG553  GLY616  TRP617  ASP618  TYR619  PRO620  LYS621  CYS622 
 ASP623  PHE694  ASN695  SER759  ASP760  ASP761  ALA762  ILE779  LEU786  VAL792 
 PHE793  MET794  SER795  GLU796  ALA797  LYS798  CYS799  TRP800  GLU811  SER814 

> <Gold.Protein.RotatedAtoms>
  152.2976  134.7649  160.0364 H   0  0  0  0  0  0  0  0  0  0  0  0  # atno 6907 bound_to 6896
  151.8173  133.3384  159.3581 H   0  0  0  0  0  0  0  0  0  0  0  0  # atno 6908 bound_to 6896
  150.7258  134.5536  159.5851 H   0  0  0  0  0  0  0  0  0  0  0  0  # atno 6909 bound_to 6896
  144.7127  140.1030  143.6415 H   0  0  0  0  0  0  0  0  0  0  0  0  # atno 7974 bound_to 7965
  155.0625  140.3191  155.4656 H   0  0  0  0  0  0  0  0  0  0  0  0  # atno 8008 bound_to 7997
  156.2810  140.2126  156.5696 H   0  0  0  0  0  0  0  0  0  0  0  0  # atno 8009 bound_to 7997
  154.7121  140.0497  157.0547 H   0  0  0  0  0  0  0  0  0  0  0  0  # atno 8010 bound_to 7997
  140.0361  144.5427  150.7469 H   0  0  0  0  0  0  0  0  0  0  0  0  # atno 10167 bound_to 10162
  157.5090  131.1096  150.9320 H   0  0  0  0  0  0  0  0  0  0  0  0  # atno 10718 bound_to 10713
  153.2891  135.4148  155.1150 H   0  0  0  0  0  0  0  0  0  0  0  0  # atno 10763 bound_to 10752
  154.8514  135.3514  154.6006 H   0  0  0  0  0  0  0  0  0  0  0  0  # atno 10764 bound_to 10752
  153.6428  135.7056  153.5293 H   0  0  0  0  0  0  0  0  0  0  0  0  # atno 10765 bound_to 10752
  141.0753  133.9311  157.2401 H   0  0  0  0  0  0  0  0  0  0  0  0  # atno 11005 bound_to 11000
  145.9521  139.2741  143.1206 LP  0  0  0  0  0  0  0  0  0  0  0  0  # atno 17320 bound_to 7965
  145.9312  140.9047  143.0355 LP  0  0  0  0  0  0  0  0  0  0  0  0  # atno 17321 bound_to 7965
  140.7281  143.2658  151.4050 LP  0  0  0  0  0  0  0  0  0  0  0  0  # atno 17342 bound_to 10162
  139.6044  144.1228  152.2233 LP  0  0  0  0  0  0  0  0  0  0  0  0  # atno 17343 bound_to 10162
  156.9966  130.5584  149.5308 LP  0  0  0  0  0  0  0  0  0  0  0  0  # atno 17370 bound_to 10713
  156.0277  130.5370  150.8450 LP  0  0  0  0  0  0  0  0  0  0  0  0  # atno 17371 bound_to 10713
  139.9566  135.0164  156.9144 LP  0  0  0  0  0  0  0  0  0  0  0  0  # atno 17394 bound_to 11000
  140.5586  134.0557  155.7391 LP  0  0  0  0  0  0  0  0  0  0  0  0  # atno 17395 bound_to 11000

$$$$
