AV-unprocessed.smi:2061|AV-procd|sdf|8390|dock9
  -GOLD-   2272011 73D 1   1.00000     0.00000
 Structure written by MMmdl.
 45 46  0  0  0  0  0  0  0  0  3 V2000
  153.4519  142.3729  160.6721 C   0  0  0  0  0  0  0  0  0  0  0  0
  152.3815  142.1285  159.6647 C   0  0  0  0  0  0  0  0  0  0  0  0
  152.3789  141.5269  158.4379 C   0  0  0  0  0  0  0  0  0  0  0  0
  151.0243  141.6419  158.0263 C   0  0  0  0  0  0  0  0  0  0  0  0
  150.6019  141.1207  156.7750 N   0  0  0  0  0  0  0  0  0  0  0  0
  151.2670  140.3097  155.9320 C   0  0  0  0  0  0  0  0  0  0  0  0
  152.3932  139.8921  156.2260 O   0  0  0  0  0  0  0  0  0  0  0  0
  150.5544  140.0468  154.8025 N   0  5  0  0  0  0  0  0  0  0  0  0
  149.8798  138.7801  154.5195 C   0  0  0  0  0  0  0  0  0  0  0  0
  148.4991  139.0349  153.8589 C   0  0  2  0  0  0  0  0  0  0  0  0
  147.7128  140.2258  154.4629 C   0  0  0  0  0  0  0  0  0  0  0  0
  147.6999  137.7712  153.8179 N   0  3  1  0  0  0  0  0  0  0  0  0
  147.4657  137.0865  155.1194 C   0  0  0  0  0  0  0  0  0  0  0  0
  146.8097  135.7113  154.8969 C   0  0  2  0  0  0  0  0  0  0  0  0
  147.7692  134.6623  154.3073 C   0  0  0  0  0  0  0  0  0  0  0  0
  145.6197  135.8587  154.1209 O   0  0  0  0  0  0  0  0  0  0  0  0
  145.7977  136.5043  152.8618 C   0  0  1  0  0  0  0  0  0  0  0  0
  144.4289  136.5893  152.1775 C   0  0  0  0  0  0  0  0  0  0  0  0
  146.4242  137.8946  153.0729 C   0  0  0  0  0  0  0  0  0  0  0  0
  150.2684  142.2572  158.9238 N   0  0  0  0  0  0  0  0  0  0  0  0
  151.1340  142.5719  159.9780 O   0  0  0  0  0  0  0  0  0  0  0  0
  154.4344  142.1426  160.2598 H   0  0  0  0  0  0  0  0  0  0  0  0
  153.3006  141.7509  161.5544 H   0  0  0  0  0  0  0  0  0  0  0  0
  153.4546  143.4163  160.9882 H   0  0  0  0  0  0  0  0  0  0  0  0
  153.2126  141.0775  157.9192 H   0  0  0  0  0  0  0  0  0  0  0  0
  149.6812  141.4032  156.4743 H   0  0  0  0  0  0  0  0  0  0  0  0
  150.4680  138.1549  153.8455 H   0  0  0  0  0  0  0  0  0  0  0  0
  149.7419  138.1850  155.4226 H   0  0  0  0  0  0  0  0  0  0  0  0
  148.7160  139.2975  152.8219 H   0  0  0  0  0  0  0  0  0  0  0  0
  148.2510  141.1682  154.3462 H   0  0  0  0  0  0  0  0  0  0  0  0
  147.5077  140.1008  155.5274 H   0  0  0  0  0  0  0  0  0  0  0  0
  146.7549  140.3532  153.9581 H   0  0  0  0  0  0  0  0  0  0  0  0
  148.3977  136.9650  155.6722 H   0  0  0  0  0  0  0  0  0  0  0  0
  146.8072  137.6953  155.7404 H   0  0  0  0  0  0  0  0  0  0  0  0
  146.4904  135.3349  155.8691 H   0  0  0  0  0  0  0  0  0  0  0  0
  148.6032  134.4789  154.9852 H   0  0  0  0  0  0  0  0  0  0  0  0
  148.1934  134.9764  153.3538 H   0  0  0  0  0  0  0  0  0  0  0  0
  147.2579  133.7125  154.1501 H   0  0  0  0  0  0  0  0  0  0  0  0
  146.4521  135.9021  152.2312 H   0  0  0  0  0  0  0  0  0  0  0  0
  144.5065  137.0691  151.2016 H   0  0  0  0  0  0  0  0  0  0  0  0
  143.7219  137.1632  152.7775 H   0  0  0  0  0  0  0  0  0  0  0  0
  144.0070  135.5957  152.0256 H   0  0  0  0  0  0  0  0  0  0  0  0
  145.7407  138.5460  153.6197 H   0  0  0  0  0  0  0  0  0  0  0  0
  146.6006  138.3571  152.1008 H   0  0  0  0  0  0  0  0  0  0  0  0
  148.2645  137.1388  153.2684 H   0  0  0  0  0  0  0  0  0  0  0  0
  1  2  1  0  0  0  0
  1 22  1  0  0  0  0
  1 23  1  0  0  0  0
  1 24  1  0  0  0  0
  2 21  1  0  0  0  0
  2  3  2  0  0  0  0
  3  4  1  0  0  0  0
  3 25  1  0  0  0  0
  4  5  1  0  0  0  0
  4 20  2  0  0  0  0
  5  6  1  0  0  0  0
  5 26  1  0  0  0  0
  6  7  2  0  0  0  0
  6  8  1  0  0  0  0
  8  9  1  0  0  0  0
  9 10  1  0  0  0  0
  9 27  1  0  0  0  0
  9 28  1  0  0  0  0
 10 11  1  0  0  0  0
 10 12  1  0  0  0  0
 10 29  1  0  0  0  0
 11 30  1  0  0  0  0
 11 31  1  0  0  0  0
 11 32  1  0  0  0  0
 12 19  1  0  0  0  0
 12 13  1  0  0  0  0
 12 45  1  0  0  0  0
 13 14  1  0  0  0  0
 13 33  1  0  0  0  0
 13 34  1  0  0  0  0
 14 15  1  0  0  0  0
 14 16  1  0  0  0  0
 14 35  1  0  0  0  0
 15 36  1  0  0  0  0
 15 37  1  0  0  0  0
 15 38  1  0  0  0  0
 16 17  1  0  0  0  0
 17 18  1  0  0  0  0
 17 19  1  0  0  0  0
 17 39  1  0  0  0  0
 18 40  1  0  0  0  0
 18 41  1  0  0  0  0
 18 42  1  0  0  0  0
 19 43  1  0  0  0  0
 19 44  1  0  0  0  0
 20 21  1  0  0  0  0
M  CHG  1   8  -1
M  CHG  1  12   1
M  END
> <s_m_source_file>
AV-unprocessed.smi

> <i_m_source_file_index>
2061

> <i_lp_mmshare_version>
43012

> <i_f3d_flags>
0

> <s_epik_input>
W0NIM11jMVtjSF1jKG5vMSlbTkhdQyg9TylbTkhdW0NIMl1bQ0BIXShbQ0gzXSlOMltDSDJdW0NAQEhdKFtDSDNdKU9bQ0BASF0oW0NIM10pW0NIMl0y

> <s_epik_cmdline>
J2VwaWtfcHl0aG9uJywgJy1waCcsICc3LjAnLCAnLXRuJywgJzgnLCAnLW1hJywgJzIwMCcsICctbWV0YWxfYmluZGluZycsICctaW1hZScsICc8aW5maWxlLm1hZT4nLCAnLW9tYWUnLCAnPG91dGZpbGUubWFlPic=

> <r_epik_Ionization_Penalty>
6.8073

> <r_epik_Ionization_Penalty_Charging>
6.80729

> <r_epik_Ionization_Penalty_Neutral>
5.65391e-06

> <r_epik_State_Penalty>
7.47323

> <r_epik_Charging_Adjusted_Penalty>
14.2805

> <i_epik_Tot_Q>
0

> <i_epik_Tot_abs_Q>
2

> <r_epik_Metal_State_Penalty>
3.40035

> <b_epik_Metal_Only>
1

> <s_lp_Force_Field>
OPLS_2005

> <r_lp_Energy>
19.801

> <b_lp_Chiralities_Consistent>
1

> <s_lp_Variant>
AV-unprocessed.smi:2061-31

> <Gold.Version>
5.8.1

> <Gold.Id.Protein>
6NUR|6NUR_protein|mol2

> <Gold.PLP.Fitness>
39.2997

> <Gold.PLP.PLP>
-29.2403

> <Gold.PLP.part.hbond>
-4.6417

> <Gold.PLP.part.metal>
0.0000

> <Gold.PLP.part.buried>
-2.2524

> <Gold.PLP.part.nonpolar>
-21.9733

> <Gold.PLP.part.repulsive>
0.2451

> <Gold.PLP.ligand.clash>
0.0000

> <Gold.PLP.ligand.torsion>
1.0492

> <Gold.PLP.Chemscore.Hbond>
4.0000

> <Gold.PLP.Chemscore.CHOScore>
0.0000

> <Gold.PLP.Chemscore.Metal>
0.0000

> <Gold.Chemscore.Hbonds>
donor molecule, donor type, donor heavy atom, donor atom, acceptor molecule, acceptor atom, score
      L1  H    12    45       P1  7948  2.00
      P1  H  7989  7998       L1     8  1.00
      P1  H  7997  8010       L1     7  1.00

> <Gold.PLP.Chemscore.Internal.Correction>
0.1578

> <Gold.Rescore>
     Score         DG    S(hbond)    S(metal)    S(lipo)     H(rot)  DE(clash)    DE(int)     intcor
     15.41     -17.94       2.63        0.00      65.38       1.56       0.05       2.48       ----

> <Gold.Chemscore.Fitness>
15.4099

> <Gold.Chemscore.DG>
-17.9391

> <Gold.Chemscore.ZeroCoef>
-5.4800

> <Gold.Chemscore.Hbond>
2.6319

> <Gold.Chemscore.Metal>
0.0000

> <Gold.Chemscore.Lipo>
65.3807

> <Gold.Chemscore.Internal_Hbond>
0.0000

> <Gold.Chemscore.DEClash>
0.0456

> <Gold.Chemscore.DEInternal>
2.4836

> <Gold.Chemscore.Rot>
1.5550

> <Gold.Chemscore.Internal.Correction>
   9.000000E+99

> <Gold.Chemscore.Hbonds>
donor molecule, donor type, donor heavy atom, donor atom, acceptor molecule, acceptor atom, score
      L1  H    12    45       P1  7948  1.00
      P1  H  7989  7998       L1     8  0.29
      P1  H  7997  8010       L1     7  0.95

> <Gold.Chemscore.Hbond.Weighted>
-8.7904

> <Gold.Chemscore.Metal.Weighted>
-0.0000

> <Gold.Chemscore.Lipo.Weighted>
-7.6495

> <Gold.Chemscore.Internal_Hbond.Weighted>
0.0000

> <Gold.Chemscore.DEClash.Weighted>
0.0456

> <Gold.Chemscore.DEInternal.Weighted>
2.4836

> <Gold.Chemscore.Rot.Weighted>
3.9809

> <Gold.Chemscore.Internal.Correction.Weighted>
   9.000000E+99

> <Gold.Protein.RotatedTorsions>
[ 6907 6896 6895 6894 ] final -159.69 input  -60.11 | X-H torsion
[ 7974 7965 7964 7962 ] final -156.60 input  175.53 | X-H torsion
[ 8008 7997 7996 7995 ] final   65.56 input   59.86 | X-H torsion
[ 10167 10162 10161 10158 ] final -147.93 input  -65.29 | X-H torsion
[ 10718 10713 10712 10709 ] final -113.92 input   66.30 | X-H torsion
[ 10763 10752 10751 10750 ] final  -80.58 input  -60.55 | X-H torsion
[ 11005 11000 10999 10996 ] final   45.90 input  -57.11 | X-H torsion

> <Gold.Protein.ActiveResidues>
 VAL166  LYS551  ARG553  GLY616  TRP617  ASP618  TYR619  PRO620  LYS621  CYS622 
 ASP623  PHE694  ASN695  SER759  ASP760  ASP761  ALA762  ILE779  LEU786  VAL792 
 PHE793  MET794  SER795  GLU796  ALA797  LYS798  CYS799  TRP800  GLU811  SER814 

> <Gold.Protein.RotatedAtoms>
  151.3375  133.3976  159.2667 H   0  0  0  0  0  0  0  0  0  0  0  0  # atno 6907 bound_to 6896
  150.9905  134.9242  159.7907 H   0  0  0  0  0  0  0  0  0  0  0  0  # atno 6908 bound_to 6896
  152.5246  134.3340  159.9245 H   0  0  0  0  0  0  0  0  0  0  0  0  # atno 6909 bound_to 6896
  144.7586  140.4087  143.5994 H   0  0  0  0  0  0  0  0  0  0  0  0  # atno 7974 bound_to 7965
  155.6636  140.3497  155.4792 H   0  0  0  0  0  0  0  0  0  0  0  0  # atno 8008 bound_to 7997
  155.9747  140.1163  157.0803 H   0  0  0  0  0  0  0  0  0  0  0  0  # atno 8009 bound_to 7997
  154.4175  140.1150  156.5341 H   0  0  0  0  0  0  0  0  0  0  0  0  # atno 8010 bound_to 7997
  139.7577  143.8423  152.2600 H   0  0  0  0  0  0  0  0  0  0  0  0  # atno 10167 bound_to 10162
  156.0797  130.5999  150.8706 H   0  0  0  0  0  0  0  0  0  0  0  0  # atno 10718 bound_to 10713
  154.5530  135.5656  153.6939 H   0  0  0  0  0  0  0  0  0  0  0  0  # atno 10763 bound_to 10752
  152.9995  135.6255  154.2348 H   0  0  0  0  0  0  0  0  0  0  0  0  # atno 10764 bound_to 10752
  154.2284  135.2867  155.2879 H   0  0  0  0  0  0  0  0  0  0  0  0  # atno 10765 bound_to 10752
  140.1417  134.4574  155.8445 H   0  0  0  0  0  0  0  0  0  0  0  0  # atno 11005 bound_to 11000
  145.6695  139.1596  143.2762 LP  0  0  0  0  0  0  0  0  0  0  0  0  # atno 17320 bound_to 7965
  146.1624  140.6768  142.9271 LP  0  0  0  0  0  0  0  0  0  0  0  0  # atno 17321 bound_to 7965
  139.8420  144.7205  150.9319 LP  0  0  0  0  0  0  0  0  0  0  0  0  # atno 17342 bound_to 10162
  140.7804  143.3975  151.1205 LP  0  0  0  0  0  0  0  0  0  0  0  0  # atno 17343 bound_to 10162
  157.5908  131.0944  150.9122 LP  0  0  0  0  0  0  0  0  0  0  0  0  # atno 17370 bound_to 10713
  156.9298  130.5345  149.5279 LP  0  0  0  0  0  0  0  0  0  0  0  0  # atno 17371 bound_to 10713
  141.2187  133.6836  156.7259 LP  0  0  0  0  0  0  0  0  0  0  0  0  # atno 17394 bound_to 11000
  140.2714  134.8389  157.3850 LP  0  0  0  0  0  0  0  0  0  0  0  0  # atno 17395 bound_to 11000

$$$$
