AV-unprocessed.smi:925|AV-procd|sdf|4181|dock4
  -GOLD-   22720 2 83D 1   1.00000     0.00000
 Structure written by MMmdl.
 29 30  0  0  0  0  0  0  0  0  1 V2000
  151.4866  141.1627  157.1695 O   0  0  0  0  0  0  0  0  0  0  0  0
  150.7006  142.0417  156.8145 C   0  0  0  0  0  0  0  0  0  0  0  0
  149.7546  141.9037  155.8686 N   0  0  0  0  0  0  0  0  0  0  0  0
  149.4508  140.7570  155.0879 C   0  0  0  0  0  0  0  0  0  0  0  0
  150.2886  139.7201  154.9298 N   0  0  0  0  0  0  0  0  0  0  0  0
  149.7454  138.7320  154.1186 N   0  0  0  0  0  0  0  0  0  0  0  0
  148.5210  139.0620  153.6976 C   0  0  0  0  0  0  0  0  0  0  0  0
  147.9117  140.6122  154.2510 S   0  0  0  0  0  0  0  0  0  0  0  0
  150.6864  143.2766  157.3377 N   0  0  0  0  0  0  0  0  0  0  0  0
  151.5850  143.7596  158.3823 C   0  0  0  0  0  0  0  0  0  0  0  0
  151.6699  142.7445  159.5414 C   0  0  0  0  0  0  0  0  0  0  0  0
  152.5525  143.2700  160.6852 C   0  0  0  0  0  0  0  0  0  0  0  0
  152.0642  144.6388  161.1848 C   0  0  0  0  0  0  0  0  0  0  0  0
  151.9831  145.6530  160.0332 C   0  0  0  0  0  0  0  0  0  0  0  0
  151.0972  145.1294  158.8911 C   0  0  0  0  0  0  0  0  0  0  0  0
  149.1841  142.7157  155.6844 H   0  0  0  0  0  0  0  0  0  0  0  0
  147.9727  138.3875  153.0568 H   0  0  0  0  0  0  0  0  0  0  0  0
  150.0058  143.9342  156.9865 H   0  0  0  0  0  0  0  0  0  0  0  0
  152.5819  143.8937  157.9579 H   0  0  0  0  0  0  0  0  0  0  0  0
  150.6699  142.5352  159.9242 H   0  0  0  0  0  0  0  0  0  0  0  0
  152.0678  141.7943  159.1828 H   0  0  0  0  0  0  0  0  0  0  0  0
  152.5590  142.5546  161.5081 H   0  0  0  0  0  0  0  0  0  0  0  0
  153.5838  143.3539  160.3402 H   0  0  0  0  0  0  0  0  0  0  0  0
  151.0820  144.5303  161.6466 H   0  0  0  0  0  0  0  0  0  0  0  0
  152.7324  145.0111  161.9620 H   0  0  0  0  0  0  0  0  0  0  0  0
  151.5931  146.6025  160.4009 H   0  0  0  0  0  0  0  0  0  0  0  0
  152.9855  145.8565  159.6542 H   0  0  0  0  0  0  0  0  0  0  0  0
  151.0891  145.8514  158.0736 H   0  0  0  0  0  0  0  0  0  0  0  0
  150.0672  145.0487  159.2424 H   0  0  0  0  0  0  0  0  0  0  0  0
  1  2  2  0  0  0  0
  2  3  1  0  0  0  0
  2  9  1  0  0  0  0
  3  4  1  0  0  0  0
  3 16  1  0  0  0  0
  4  8  1  0  0  0  0
  4  5  2  0  0  0  0
  5  6  1  0  0  0  0
  6  7  2  0  0  0  0
  7  8  1  0  0  0  0
  7 17  1  0  0  0  0
  9 10  1  0  0  0  0
  9 18  1  0  0  0  0
 10 15  1  0  0  0  0
 10 11  1  0  0  0  0
 10 19  1  0  0  0  0
 11 12  1  0  0  0  0
 11 20  1  0  0  0  0
 11 21  1  0  0  0  0
 12 13  1  0  0  0  0
 12 22  1  0  0  0  0
 12 23  1  0  0  0  0
 13 14  1  0  0  0  0
 13 24  1  0  0  0  0
 13 25  1  0  0  0  0
 14 15  1  0  0  0  0
 14 26  1  0  0  0  0
 14 27  1  0  0  0  0
 15 28  1  0  0  0  0
 15 29  1  0  0  0  0
M  END
> <s_m_source_file>
AV-unprocessed.smi

> <i_m_source_file_index>
925

> <i_lp_mmshare_version>
43012

> <i_f3d_flags>
0

> <s_epik_input>
czFbY0hdbm5jMVtOSF1DKD1PKVtOSF1bQ0hdMltDSDJdW0NIMl1bQ0gyXVtDSDJdW0NIMl0y

> <s_epik_cmdline>
J2VwaWtfcHl0aG9uJywgJy1waCcsICc3LjAnLCAnLXRuJywgJzgnLCAnLW1hJywgJzIwMCcsICctbWV0YWxfYmluZGluZycsICctaW1hZScsICc8aW5maWxlLm1hZT4nLCAnLW9tYWUnLCAnPG91dGZpbGUubWFlPic=

> <r_lp_tautomer_probability>
1

> <r_epik_Ionization_Penalty>
0.000322846

> <r_epik_Ionization_Penalty_Charging>
0

> <r_epik_Ionization_Penalty_Neutral>
0.000322846

> <r_epik_State_Penalty>
-0

> <r_epik_Charging_Adjusted_Penalty>
0

> <i_epik_Tot_Q>
0

> <i_epik_Tot_abs_Q>
0

> <r_epik_Metal_State_Penalty>
0.17121

> <b_epik_Metal_Only>
0

> <s_lp_Force_Field>
OPLS_2005

> <r_lp_Energy>
7.89547

> <b_lp_Chiralities_Consistent>
1

> <s_lp_Variant>
AV-unprocessed.smi:925-1

> <Gold.Version>
5.8.1

> <Gold.Id.Protein>
6NUR|6NUR_protein|mol2

> <Gold.PLP.Fitness>
43.1035

> <Gold.PLP.PLP>
-31.7098

> <Gold.PLP.part.hbond>
-3.0000

> <Gold.PLP.part.metal>
0.0000

> <Gold.PLP.part.buried>
-1.5247

> <Gold.PLP.part.nonpolar>
-29.2587

> <Gold.PLP.part.repulsive>
1.5802

> <Gold.PLP.ligand.clash>
0.0000

> <Gold.PLP.ligand.torsion>
0.1909

> <Gold.PLP.Chemscore.Hbond>
2.9260

> <Gold.PLP.Chemscore.CHOScore>
0.9981

> <Gold.PLP.Chemscore.Metal>
0.0000

> <Gold.Chemscore.Hbonds>
donor molecule, donor type, donor heavy atom, donor atom, acceptor molecule, acceptor atom, score
      L1  H     3    16       P1  8028  1.00
      L1  H     9    18       P1  8028  1.00
      P1  H  7989  7998       L1     5  0.25
      L1  C     7    17       P1  7948  0.67

> <Gold.PLP.Chemscore.Internal.Correction>
0.0032

> <Gold.Rescore>
     Score         DG    S(hbond)    S(metal)    S(lipo)     H(rot)  DE(clash)    DE(int)     intcor
     16.13     -19.41       1.96        0.00      85.05       1.00       0.14       3.14       ----

> <Gold.Chemscore.Fitness>
16.1316

> <Gold.Chemscore.DG>
-19.4113

> <Gold.Chemscore.ZeroCoef>
-5.4800

> <Gold.Chemscore.Hbond>
1.9584

> <Gold.Chemscore.Metal>
0.0000

> <Gold.Chemscore.Lipo>
85.0456

> <Gold.Chemscore.Internal_Hbond>
0.0000

> <Gold.Chemscore.DEClash>
0.1353

> <Gold.Chemscore.DEInternal>
3.1444

> <Gold.Chemscore.Rot>
1.0000

> <Gold.Chemscore.Internal.Correction>
   9.000000E+99

> <Gold.Chemscore.Hbonds>
donor molecule, donor type, donor heavy atom, donor atom, acceptor molecule, acceptor atom, score
      L1  H     3    16       P1  8028  0.90
      L1  H     9    18       P1  8028  0.94
      P1  H  7989  7998       L1     5  0.01

> <Gold.Chemscore.Hbond.Weighted>
-6.5410

> <Gold.Chemscore.Metal.Weighted>
-0.0000

> <Gold.Chemscore.Lipo.Weighted>
-9.9503

> <Gold.Chemscore.Internal_Hbond.Weighted>
0.0000

> <Gold.Chemscore.DEClash.Weighted>
0.1353

> <Gold.Chemscore.DEInternal.Weighted>
3.1444

> <Gold.Chemscore.Rot.Weighted>
2.5600

> <Gold.Chemscore.Internal.Correction.Weighted>
   9.000000E+99

> <Gold.Protein.RotatedTorsions>
[ 6907 6896 6895 6894 ] final   37.39 input  -60.11 | X-H torsion
[ 7974 7965 7964 7962 ] final  -24.54 input  175.53 | X-H torsion
[ 8008 7997 7996 7995 ] final  -75.86 input   59.86 | X-H torsion
[ 10167 10162 10161 10158 ] final  -76.36 input  -65.29 | X-H torsion
[ 10718 10713 10712 10709 ] final   45.66 input   66.30 | X-H torsion
[ 10763 10752 10751 10750 ] final  116.40 input  -60.55 | X-H torsion
[ 11005 11000 10999 10996 ] final   55.88 input  -57.11 | X-H torsion

> <Gold.Protein.ActiveResidues>
 VAL166  LYS551  ARG553  GLY616  TRP617  ASP618  TYR619  PRO620  LYS621  CYS622 
 ASP623  PHE694  ASN695  SER759  ASP760  ASP761  ALA762  ILE779  LEU786  VAL792 
 PHE793  MET794  SER795  GLU796  ALA797  LYS798  CYS799  TRP800  GLU811  SER814 

> <Gold.Protein.RotatedAtoms>
  152.1425  134.9052  160.0552 H   0  0  0  0  0  0  0  0  0  0  0  0  # atno 6907 bound_to 6896
  152.0114  133.3858  159.4229 H   0  0  0  0  0  0  0  0  0  0  0  0  # atno 6908 bound_to 6896
  150.6866  134.3648  159.5010 H   0  0  0  0  0  0  0  0  0  0  0  0  # atno 6909 bound_to 6896
  146.1548  140.4766  142.8596 H   0  0  0  0  0  0  0  0  0  0  0  0  # atno 7974 bound_to 7965
  154.5454  140.0737  156.8580 H   0  0  0  0  0  0  0  0  0  0  0  0  # atno 8008 bound_to 7997
  155.3098  140.3389  155.4226 H   0  0  0  0  0  0  0  0  0  0  0  0  # atno 8009 bound_to 7997
  156.1913  140.1687  156.8073 H   0  0  0  0  0  0  0  0  0  0  0  0  # atno 8010 bound_to 7997
  140.4864  143.2390  151.7977 H   0  0  0  0  0  0  0  0  0  0  0  0  # atno 10167 bound_to 10162
  157.4399  130.8075  149.7684 H   0  0  0  0  0  0  0  0  0  0  0  0  # atno 10718 bound_to 10713
  153.5367  135.3567  155.2700 H   0  0  0  0  0  0  0  0  0  0  0  0  # atno 10763 bound_to 10752
  154.8721  135.4081  154.3090 H   0  0  0  0  0  0  0  0  0  0  0  0  # atno 10764 bound_to 10752
  153.3789  135.7067  153.6648 H   0  0  0  0  0  0  0  0  0  0  0  0  # atno 10765 bound_to 10752
  140.0572  134.5653  155.9194 H   0  0  0  0  0  0  0  0  0  0  0  0  # atno 11005 bound_to 11000
  144.7949  140.6104  143.6516 LP  0  0  0  0  0  0  0  0  0  0  0  0  # atno 17320 bound_to 7965
  145.4735  139.1501  143.3801 LP  0  0  0  0  0  0  0  0  0  0  0  0  # atno 17321 bound_to 7965
  139.4843  144.4706  151.9429 LP  0  0  0  0  0  0  0  0  0  0  0  0  # atno 17342 bound_to 10162
  140.3792  144.2757  150.5910 LP  0  0  0  0  0  0  0  0  0  0  0  0  # atno 17343 bound_to 10162
  155.9944  130.3918  150.2858 LP  0  0  0  0  0  0  0  0  0  0  0  0  # atno 17370 bound_to 10713
  157.1022  131.0199  151.3081 LP  0  0  0  0  0  0  0  0  0  0  0  0  # atno 17371 bound_to 10713
  141.1957  133.6588  156.5657 LP  0  0  0  0  0  0  0  0  0  0  0  0  # atno 17394 bound_to 11000
  140.3825  134.7510  157.4670 LP  0  0  0  0  0  0  0  0  0  0  0  0  # atno 17395 bound_to 11000

$$$$
