AV-unprocessed.smi:2251|AV-procd|sdf|9101|dock10
  -GOLD-   2272012303D 1   1.00000     0.00000
 Structure written by MMmdl.
 44 45  0  0  0  0  0  0  0  0  1 V2000
  146.8935  135.0218  161.7283 C   0  0  0  0  0  0  0  0  0  0  0  0
  147.6382  135.9934  160.8193 C   0  0  0  0  0  0  0  0  0  0  0  0
  147.8028  137.1625  161.1667 O   0  0  0  0  0  0  0  0  0  0  0  0
  148.0856  135.4947  159.6565 N   0  0  0  0  0  0  0  0  0  0  0  0
  148.8352  136.2453  158.6518 C   0  0  0  0  0  0  0  0  0  0  0  0
  148.1205  137.5259  158.2033 C   0  0  0  0  0  0  0  0  0  0  0  0
  147.1720  137.9792  158.8456 O   0  0  0  0  0  0  0  0  0  0  0  0
  148.6050  138.1133  157.1009 N   0  0  0  0  0  0  0  0  0  0  0  0
  148.0718  139.3390  156.5146 C   0  0  0  0  0  0  0  0  0  0  0  0
  148.9600  139.8777  155.3565 C   0  0  0  0  0  0  0  0  0  0  0  0
  150.4417  139.6266  155.7170 C   0  0  0  0  0  0  0  0  0  0  0  0
  151.2864  138.9456  154.8074 C   0  0  0  0  0  0  0  0  0  0  0  0
  152.6382  138.7359  155.1431 C   0  0  0  0  0  0  0  0  0  0  0  0
  153.1885  139.1565  156.2996 N   0  0  0  0  0  0  0  0  0  0  0  0
  152.3920  139.8121  157.1680 C   0  0  0  0  0  0  0  0  0  0  0  0
  151.0284  140.0732  156.9280 C   0  0  0  0  0  0  0  0  0  0  0  0
  148.5685  139.1907  154.0102 C   0  0  0  0  0  0  0  0  0  0  0  0
  147.1673  139.5621  153.4915 C   0  0  0  0  0  0  0  0  0  0  0  0
  147.0157  141.0802  153.3451 C   0  0  0  0  0  0  0  0  0  0  0  0
  147.3401  141.7916  154.6635 C   0  0  0  0  0  0  0  0  0  0  0  0
  148.7384  141.4088  155.1836 C   0  0  0  0  0  0  0  0  0  0  0  0
  146.0748  134.5435  161.1901 H   0  0  0  0  0  0  0  0  0  0  0  0
  146.4763  135.5407  162.5920 H   0  0  0  0  0  0  0  0  0  0  0  0
  147.5700  134.2468  162.0899 H   0  0  0  0  0  0  0  0  0  0  0  0
  147.9103  134.5202  159.4588 H   0  0  0  0  0  0  0  0  0  0  0  0
  149.7999  136.5201  159.0784 H   0  0  0  0  0  0  0  0  0  0  0  0
  149.0441  135.6105  157.7887 H   0  0  0  0  0  0  0  0  0  0  0  0
  149.3916  137.6846  156.6347 H   0  0  0  0  0  0  0  0  0  0  0  0
  147.0519  139.1487  156.1826 H   0  0  0  0  0  0  0  0  0  0  0  0
  147.9914  140.0888  157.3029 H   0  0  0  0  0  0  0  0  0  0  0  0
  150.9166  138.5893  153.8579 H   0  0  0  0  0  0  0  0  0  0  0  0
  153.2959  138.2186  154.4603 H   0  0  0  0  0  0  0  0  0  0  0  0
  152.8565  140.1439  158.0847 H   0  0  0  0  0  0  0  0  0  0  0  0
  150.4715  140.6123  157.6781 H   0  0  0  0  0  0  0  0  0  0  0  0
  149.2799  139.4843  153.2369 H   0  0  0  0  0  0  0  0  0  0  0  0
  148.6374  138.1055  154.0921 H   0  0  0  0  0  0  0  0  0  0  0  0
  146.9979  139.0852  152.5257 H   0  0  0  0  0  0  0  0  0  0  0  0
  146.3972  139.1715  154.1564 H   0  0  0  0  0  0  0  0  0  0  0  0
  147.6840  141.4404  152.5618 H   0  0  0  0  0  0  0  0  0  0  0  0
  146.0026  141.3265  153.0263 H   0  0  0  0  0  0  0  0  0  0  0  0
  147.2872  142.8710  154.5178 H   0  0  0  0  0  0  0  0  0  0  0  0
  146.5819  141.5525  155.4089 H   0  0  0  0  0  0  0  0  0  0  0  0
  148.9116  141.9351  156.1221 H   0  0  0  0  0  0  0  0  0  0  0  0
  149.4796  141.7974  154.4833 H   0  0  0  0  0  0  0  0  0  0  0  0
  1  2  1  0  0  0  0
  1 22  1  0  0  0  0
  1 23  1  0  0  0  0
  1 24  1  0  0  0  0
  2  3  2  0  0  0  0
  2  4  1  0  0  0  0
  4  5  1  0  0  0  0
  4 25  1  0  0  0  0
  5  6  1  0  0  0  0
  5 26  1  0  0  0  0
  5 27  1  0  0  0  0
  6  7  2  0  0  0  0
  6  8  1  0  0  0  0
  8  9  1  0  0  0  0
  8 28  1  0  0  0  0
  9 10  1  0  0  0  0
  9 29  1  0  0  0  0
  9 30  1  0  0  0  0
 10 21  1  0  0  0  0
 10 11  1  0  0  0  0
 10 17  1  0  0  0  0
 11 16  1  0  0  0  0
 11 12  2  0  0  0  0
 12 13  1  0  0  0  0
 12 31  1  0  0  0  0
 13 14  2  0  0  0  0
 13 32  1  0  0  0  0
 14 15  1  0  0  0  0
 15 16  2  0  0  0  0
 15 33  1  0  0  0  0
 16 34  1  0  0  0  0
 17 18  1  0  0  0  0
 17 35  1  0  0  0  0
 17 36  1  0  0  0  0
 18 19  1  0  0  0  0
 18 37  1  0  0  0  0
 18 38  1  0  0  0  0
 19 20  1  0  0  0  0
 19 39  1  0  0  0  0
 19 40  1  0  0  0  0
 20 21  1  0  0  0  0
 20 41  1  0  0  0  0
 20 42  1  0  0  0  0
 21 43  1  0  0  0  0
 21 44  1  0  0  0  0
M  END
> <s_m_source_file>
AV-unprocessed.smi

> <i_m_source_file_index>
2251

> <i_lp_mmshare_version>
43012

> <i_f3d_flags>
0

> <s_epik_input>
W0NIM11DKD1PKVtOSF1bQ0gyXUMoPU8pW05IXVtDSDJdQzEoW0NIMl1bQ0gyXVtDSDJdW0NIMl1bQ0gyXTEpYzJbY0hdW2NIXW5bY0hdW2NIXTI=

> <s_epik_cmdline>
J2VwaWtfcHl0aG9uJywgJy1waCcsICc3LjAnLCAnLXRuJywgJzgnLCAnLW1hJywgJzIwMCcsICctbWV0YWxfYmluZGluZycsICctaW1hZScsICc8aW5maWxlLm1hZT4nLCAnLW9tYWUnLCAnPG91dGZpbGUubWFlPic=

> <r_epik_Ionization_Penalty>
0.0619926

> <r_epik_Ionization_Penalty_Charging>
0

> <r_epik_Ionization_Penalty_Neutral>
0.0619926

> <r_epik_State_Penalty>
0.0538453

> <r_epik_Charging_Adjusted_Penalty>
0.0538453

> <i_epik_Tot_Q>
0

> <i_epik_Tot_abs_Q>
0

> <r_epik_Metal_State_Penalty>
0.048714

> <b_epik_Metal_Only>
0

> <s_lp_Force_Field>
OPLS_2005

> <r_lp_Energy>
14.8117

> <b_lp_Chiralities_Consistent>
1

> <s_lp_Variant>
AV-unprocessed.smi:2251-1

> <Gold.Version>
5.8.1

> <Gold.Id.Protein>
6NUR|6NUR_protein|mol2

> <Gold.PLP.Fitness>
40.1474

> <Gold.PLP.PLP>
-33.2540

> <Gold.PLP.part.hbond>
-3.8102

> <Gold.PLP.part.metal>
0.0000

> <Gold.PLP.part.buried>
-2.5979

> <Gold.PLP.part.nonpolar>
-27.3108

> <Gold.PLP.part.repulsive>
0.1340

> <Gold.PLP.ligand.clash>
0.0000

> <Gold.PLP.ligand.torsion>
0.7043

> <Gold.PLP.Chemscore.Hbond>
2.7520

> <Gold.PLP.Chemscore.CHOScore>
0.0000

> <Gold.PLP.Chemscore.Metal>
0.0000

> <Gold.Chemscore.Hbonds>
donor molecule, donor type, donor heavy atom, donor atom, acceptor molecule, acceptor atom, score
      P1  H  6931  6943       L1     3  0.98
      P1  H  6934  6947       L1     3  0.82
      P1  H  7997  8009       L1    14  0.98

> <Gold.PLP.Chemscore.Internal.Correction>
0.0459

> <Gold.Rescore>
     Score         DG    S(hbond)    S(metal)    S(lipo)     H(rot)  DE(clash)    DE(int)     intcor
     14.04     -17.54       2.36        0.00      79.93       2.02       0.19       3.31       ----

> <Gold.Chemscore.Fitness>
14.0450

> <Gold.Chemscore.DG>
-17.5429

> <Gold.Chemscore.ZeroCoef>
-5.4800

> <Gold.Chemscore.Hbond>
2.3568

> <Gold.Chemscore.Metal>
0.0000

> <Gold.Chemscore.Lipo>
79.9334

> <Gold.Chemscore.Internal_Hbond>
0.0000

> <Gold.Chemscore.DEClash>
0.1903

> <Gold.Chemscore.DEInternal>
3.3076

> <Gold.Chemscore.Rot>
2.0160

> <Gold.Chemscore.Internal.Correction>
   9.000000E+99

> <Gold.Chemscore.Hbonds>
donor molecule, donor type, donor heavy atom, donor atom, acceptor molecule, acceptor atom, score
      P1  H  6931  6943       L1     3  0.93
      P1  H  6934  6947       L1     3  0.80
      P1  H  7997  8009       L1    14  0.31

> <Gold.Chemscore.Hbond.Weighted>
-7.8717

> <Gold.Chemscore.Metal.Weighted>
-0.0000

> <Gold.Chemscore.Lipo.Weighted>
-9.3522

> <Gold.Chemscore.Internal_Hbond.Weighted>
0.0000

> <Gold.Chemscore.DEClash.Weighted>
0.1903

> <Gold.Chemscore.DEInternal.Weighted>
3.3076

> <Gold.Chemscore.Rot.Weighted>
5.1610

> <Gold.Chemscore.Internal.Correction.Weighted>
   9.000000E+99

> <Gold.Protein.RotatedTorsions>
[ 6907 6896 6895 6894 ] final   36.60 input  -60.11 | X-H torsion
[ 7974 7965 7964 7962 ] final -133.85 input  175.53 | X-H torsion
[ 8008 7997 7996 7995 ] final -147.55 input   59.86 | X-H torsion
[ 10167 10162 10161 10158 ] final -138.14 input  -65.29 | X-H torsion
[ 10718 10713 10712 10709 ] final   17.31 input   66.30 | X-H torsion
[ 10763 10752 10751 10750 ] final -159.89 input  -60.55 | X-H torsion
[ 11005 11000 10999 10996 ] final  167.17 input  -57.11 | X-H torsion

> <Gold.Protein.ActiveResidues>
 VAL166  LYS551  ARG553  GLY616  TRP617  ASP618  TYR619  PRO620  LYS621  CYS622 
 ASP623  PHE694  ASN695  SER759  ASP760  ASP761  ALA762  ILE779  LEU786  VAL792 
 PHE793  MET794  SER795  GLU796  ALA797  LYS798  CYS799  TRP800  GLU811  SER814 

> <Gold.Protein.RotatedAtoms>
  152.1319  134.9128  160.0558 H   0  0  0  0  0  0  0  0  0  0  0  0  # atno 6907 bound_to 6896
  152.0229  133.3901  159.4274 H   0  0  0  0  0  0  0  0  0  0  0  0  # atno 6908 bound_to 6896
  150.6857  134.3527  159.4959 H   0  0  0  0  0  0  0  0  0  0  0  0  # atno 6909 bound_to 6896
  144.9155  140.6949  143.4998 H   0  0  0  0  0  0  0  0  0  0  0  0  # atno 7974 bound_to 7965
  155.5774  140.0640  157.2791 H   0  0  0  0  0  0  0  0  0  0  0  0  # atno 8008 bound_to 7997
  154.4342  140.1858  156.0988 H   0  0  0  0  0  0  0  0  0  0  0  0  # atno 8009 bound_to 7997
  156.0330  140.3304  155.7164 H   0  0  0  0  0  0  0  0  0  0  0  0  # atno 8010 bound_to 7997
  139.8507  143.7202  152.2658 H   0  0  0  0  0  0  0  0  0  0  0  0  # atno 10167 bound_to 10162
  157.0803  130.6385  149.5825 H   0  0  0  0  0  0  0  0  0  0  0  0  # atno 10718 bound_to 10713
  154.7437  135.3075  154.8683 H   0  0  0  0  0  0  0  0  0  0  0  0  # atno 10763 bound_to 10752
  153.9490  135.6766  153.4748 H   0  0  0  0  0  0  0  0  0  0  0  0  # atno 10764 bound_to 10752
  153.1034  135.4901  154.8834 H   0  0  0  0  0  0  0  0  0  0  0  0  # atno 10765 bound_to 10752
  140.2740  134.7804  157.3700 H   0  0  0  0  0  0  0  0  0  0  0  0  # atno 11005 bound_to 11000
  145.3382  139.1740  143.4500 LP  0  0  0  0  0  0  0  0  0  0  0  0  # atno 17320 bound_to 7965
  146.3180  140.3420  142.8649 LP  0  0  0  0  0  0  0  0  0  0  0  0  # atno 17321 bound_to 7965
  139.7468  144.7545  151.0568 LP  0  0  0  0  0  0  0  0  0  0  0  0  # atno 17342 bound_to 10162
  140.7788  143.4907  150.9897 LP  0  0  0  0  0  0  0  0  0  0  0  0  # atno 17343 bound_to 10162
  155.9925  130.4984  150.7345 LP  0  0  0  0  0  0  0  0  0  0  0  0  # atno 17370 bound_to 10713
  157.4806  131.0902  151.0540 LP  0  0  0  0  0  0  0  0  0  0  0  0  # atno 17371 bound_to 10713
  140.1346  134.5051  155.8078 LP  0  0  0  0  0  0  0  0  0  0  0  0  # atno 17394 bound_to 11000
  141.2173  133.6802  156.7101 LP  0  0  0  0  0  0  0  0  0  0  0  0  # atno 17395 bound_to 11000

$$$$
