AV-unprocessed.smi:1983|AV-procd|sdf|8035|dock6
  -GOLD-   2272010233D 1   1.00000     0.00000
 Structure written by MMmdl.
 50 51  0  0  0  0  0  0  0  0  2 V2000
  149.1456  133.3249  154.8084 C   0  0  0  0  0  0  0  0  0  0  0  0
  149.4154  134.6277  155.5777 C   0  0  1  0  0  0  0  0  0  0  0  0
  150.7942  134.6570  156.2699 C   0  0  0  0  0  0  0  0  0  0  0  0
  150.8760  133.6966  157.3036 O   0  0  0  0  0  0  0  0  0  0  0  0
  149.2404  135.7824  154.6995 N   0  0  0  0  0  0  0  0  0  0  0  0
  148.9157  137.0199  155.0984 C   0  0  0  0  0  0  0  0  0  0  0  0
  148.7189  137.3406  156.2709 O   0  0  0  0  0  0  0  0  0  0  0  0
  148.8397  137.8722  154.0667 N   0  0  0  0  0  0  0  0  0  0  0  0
  148.4992  139.2867  154.1818 C   0  0  0  0  0  0  0  0  0  0  0  0
  149.3399  140.0517  155.1944 C   0  0  0  0  0  0  0  0  0  0  0  0
  148.7178  140.6962  156.2857 C   0  0  0  0  0  0  0  0  0  0  0  0
  149.5055  141.3992  157.2201 C   0  0  0  0  0  0  0  0  0  0  0  0
  150.9082  141.4488  157.0460 C   0  0  0  0  0  0  0  0  0  0  0  0
  151.7736  142.1193  157.9201 N   0  0  0  0  0  0  0  0  0  0  0  0
  152.0764  141.3748  159.1356 C   0  0  0  0  0  0  0  0  0  0  0  0
  153.1242  142.1338  159.9706 C   0  0  2  0  0  0  0  0  0  0  0  0
  153.4103  141.4396  161.3063 C   0  0  0  0  0  0  0  0  0  0  0  0
  152.6339  143.4451  160.2418 O   0  0  0  0  0  0  0  0  0  0  0  0
  152.4059  144.2044  159.0563 C   0  0  2  0  0  0  0  0  0  0  0  0
  151.9556  145.6109  159.4644 C   0  0  0  0  0  0  0  0  0  0  0  0
  151.3512  143.4861  158.1928 C   0  0  0  0  0  0  0  0  0  0  0  0
  151.4628  140.8296  155.9809 N   0  3  0  0  0  0  0  0  0  0  0  0
  150.7437  140.1455  155.0647 C   0  0  0  0  0  0  0  0  0  0  0  0
  149.2507  132.4573  155.4602 H   0  0  0  0  0  0  0  0  0  0  0  0
  149.8348  133.1987  153.9726 H   0  0  0  0  0  0  0  0  0  0  0  0
  148.1325  133.3118  154.4056 H   0  0  0  0  0  0  0  0  0  0  0  0
  148.6575  134.6916  156.3609 H   0  0  0  0  0  0  0  0  0  0  0  0
  151.6001  134.4878  155.5550 H   0  0  0  0  0  0  0  0  0  0  0  0
  150.9663  135.6403  156.7086 H   0  0  0  0  0  0  0  0  0  0  0  0
  150.5973  132.8615  156.9599 H   0  0  0  0  0  0  0  0  0  0  0  0
  149.3865  135.6234  153.7133 H   0  0  0  0  0  0  0  0  0  0  0  0
  149.0158  137.5161  153.1384 H   0  0  0  0  0  0  0  0  0  0  0  0
  148.6350  139.7504  153.2047 H   0  0  0  0  0  0  0  0  0  0  0  0
  147.4398  139.3843  154.4260 H   0  0  0  0  0  0  0  0  0  0  0  0
  147.6458  140.6499  156.4108 H   0  0  0  0  0  0  0  0  0  0  0  0
  149.0329  141.8937  158.0562 H   0  0  0  0  0  0  0  0  0  0  0  0
  151.1677  141.2350  159.7225 H   0  0  0  0  0  0  0  0  0  0  0  0
  152.4494  140.3835  158.8743 H   0  0  0  0  0  0  0  0  0  0  0  0
  154.0584  142.2092  159.4111 H   0  0  0  0  0  0  0  0  0  0  0  0
  153.7982  140.4328  161.1501 H   0  0  0  0  0  0  0  0  0  0  0  0
  152.5074  141.3607  161.9126 H   0  0  0  0  0  0  0  0  0  0  0  0
  154.1508  141.9949  161.8824 H   0  0  0  0  0  0  0  0  0  0  0  0
  153.3418  144.2872  158.5005 H   0  0  0  0  0  0  0  0  0  0  0  0
  151.7747  146.2352  158.5890 H   0  0  0  0  0  0  0  0  0  0  0  0
  152.7168  146.1025  160.0708 H   0  0  0  0  0  0  0  0  0  0  0  0
  151.0352  145.5779  160.0482 H   0  0  0  0  0  0  0  0  0  0  0  0
  151.2086  144.0217  157.2532 H   0  0  0  0  0  0  0  0  0  0  0  0
  150.3893  143.4755  158.7077 H   0  0  0  0  0  0  0  0  0  0  0  0
  151.3125  139.6949  154.2643 H   0  0  0  0  0  0  0  0  0  0  0  0
  152.4753  140.8772  155.8646 H   0  0  0  0  0  0  0  0  0  0  0  0
  1  2  1  0  0  0  0
  1 24  1  0  0  0  0
  1 25  1  0  0  0  0
  1 26  1  0  0  0  0
  2  3  1  0  0  0  0
  2  5  1  0  0  0  0
  2 27  1  0  0  0  0
  3  4  1  0  0  0  0
  3 28  1  0  0  0  0
  3 29  1  0  0  0  0
  4 30  1  0  0  0  0
  5  6  1  0  0  0  0
  5 31  1  0  0  0  0
  6  7  2  0  0  0  0
  6  8  1  0  0  0  0
  8  9  1  0  0  0  0
  8 32  1  0  0  0  0
  9 10  1  0  0  0  0
  9 33  1  0  0  0  0
  9 34  1  0  0  0  0
 10 23  1  0  0  0  0
 10 11  2  0  0  0  0
 11 12  1  0  0  0  0
 11 35  1  0  0  0  0
 12 13  2  0  0  0  0
 12 36  1  0  0  0  0
 13 14  1  0  0  0  0
 13 22  1  0  0  0  0
 14 21  1  0  0  0  0
 14 15  1  0  0  0  0
 15 16  1  0  0  0  0
 15 37  1  0  0  0  0
 15 38  1  0  0  0  0
 16 17  1  0  0  0  0
 16 18  1  0  0  0  0
 16 39  1  0  0  0  0
 17 40  1  0  0  0  0
 17 41  1  0  0  0  0
 17 42  1  0  0  0  0
 18 19  1  0  0  0  0
 19 20  1  0  0  0  0
 19 21  1  0  0  0  0
 19 43  1  0  0  0  0
 20 44  1  0  0  0  0
 20 45  1  0  0  0  0
 20 46  1  0  0  0  0
 21 47  1  0  0  0  0
 21 48  1  0  0  0  0
 22 23  2  0  0  0  0
 22 50  1  0  0  0  0
 23 49  1  0  0  0  0
M  CHG  1  22   1
M  END
> <s_m_source_file>
AV-unprocessed.smi

> <i_m_source_file_index>
1983

> <i_lp_mmshare_version>
43012

> <i_f3d_flags>
0

> <s_epik_input>
W09IXVtDSDJdW0NAQEhdKFtDSDNdKVtOSF1DKD1PKVtOSF1bQ0gyXWMxW2NIXVtjSF1jKG5bY0hdMSlOMltDSDJdW0NAQEhdKFtDSDNdKU9bQ0BASF0oW0NIM10pW0NIMl0y

> <s_epik_cmdline>
J2VwaWtfcHl0aG9uJywgJy1waCcsICc3LjAnLCAnLXRuJywgJzgnLCAnLW1hJywgJzIwMCcsICctbWV0YWxfYmluZGluZycsICctaW1hZScsICc8aW5maWxlLm1hZT4nLCAnLW9tYWUnLCAnPG91dGZpbGUubWFlPic=

> <r_lp_tautomer_probability>
0.999994

> <r_epik_Ionization_Penalty>
2.55677

> <r_epik_Ionization_Penalty_Charging>
2.55673

> <r_epik_Ionization_Penalty_Neutral>
3.71772e-05

> <r_epik_State_Penalty>
2.72571

> <r_epik_Charging_Adjusted_Penalty>
5.28244

> <i_epik_Tot_Q>
1

> <i_epik_Tot_abs_Q>
1

> <r_epik_Metal_State_Penalty>
2.73364

> <b_epik_Metal_Only>
0

> <s_lp_Force_Field>
OPLS_2005

> <r_lp_Energy>
22.1941

> <b_lp_Chiralities_Consistent>
1

> <s_lp_Variant>
AV-unprocessed.smi:1983-8

> <Gold.Version>
5.8.1

> <Gold.Id.Protein>
6NUR|6NUR_protein|mol2

> <Gold.PLP.Fitness>
47.4091

> <Gold.PLP.PLP>
-40.9665

> <Gold.PLP.part.hbond>
-3.0000

> <Gold.PLP.part.metal>
0.0000

> <Gold.PLP.part.buried>
-2.7628

> <Gold.PLP.part.nonpolar>
-35.1228

> <Gold.PLP.part.repulsive>
0.2470

> <Gold.PLP.ligand.clash>
0.0000

> <Gold.PLP.ligand.torsion>
0.7323

> <Gold.PLP.Chemscore.Hbond>
2.5840

> <Gold.PLP.Chemscore.CHOScore>
0.0000

> <Gold.PLP.Chemscore.Metal>
0.0000

> <Gold.Chemscore.Hbonds>
donor molecule, donor type, donor heavy atom, donor atom, acceptor molecule, acceptor atom, score
      L1  H     5    31       P1  7948  0.94
      L1  H     8    32       P1  7948  1.00
      P1  H  6896  6908       L1     4  0.69

> <Gold.PLP.Chemscore.Internal.Correction>
0.1551

> <Gold.Rescore>
     Score         DG    S(hbond)    S(metal)    S(lipo)     H(rot)  DE(clash)    DE(int)     intcor
     17.75     -19.69       2.75        0.00     101.26       2.66       0.06       1.89       ----

> <Gold.Chemscore.Fitness>
17.7510

> <Gold.Chemscore.DG>
-19.6927

> <Gold.Chemscore.ZeroCoef>
-5.4800

> <Gold.Chemscore.Hbond>
2.7497

> <Gold.Chemscore.Metal>
0.0000

> <Gold.Chemscore.Lipo>
101.2646

> <Gold.Chemscore.Internal_Hbond>
0.0000

> <Gold.Chemscore.DEClash>
0.0551

> <Gold.Chemscore.DEInternal>
1.8867

> <Gold.Chemscore.Rot>
2.6637

> <Gold.Chemscore.Internal.Correction>
   9.000000E+99

> <Gold.Chemscore.Hbonds>
donor molecule, donor type, donor heavy atom, donor atom, acceptor molecule, acceptor atom, score
      L1  H     5    31       P1  7948  0.36
      L1  H     8    32       P1  7948  0.98
      P1  H  6896  6908       L1     4  0.47

> <Gold.Chemscore.Hbond.Weighted>
-9.1839

> <Gold.Chemscore.Metal.Weighted>
-0.0000

> <Gold.Chemscore.Lipo.Weighted>
-11.8480

> <Gold.Chemscore.Internal_Hbond.Weighted>
0.0000

> <Gold.Chemscore.DEClash.Weighted>
0.0551

> <Gold.Chemscore.DEInternal.Weighted>
1.8867

> <Gold.Chemscore.Rot.Weighted>
6.8191

> <Gold.Chemscore.Internal.Correction.Weighted>
   9.000000E+99

> <Gold.Protein.RotatedTorsions>
[ 6907 6896 6895 6894 ] final   99.07 input  -60.11 | X-H torsion
[ 7974 7965 7964 7962 ] final  171.32 input  175.53 | X-H torsion
[ 8008 7997 7996 7995 ] final  -83.96 input   59.86 | X-H torsion
[ 10167 10162 10161 10158 ] final  171.57 input  -65.29 | X-H torsion
[ 10718 10713 10712 10709 ] final  143.84 input   66.30 | X-H torsion
[ 10763 10752 10751 10750 ] final  -34.11 input  -60.55 | X-H torsion
[ 11005 11000 10999 10996 ] final  -87.36 input  -57.11 | X-H torsion

> <Gold.Protein.ActiveResidues>
 VAL166  LYS551  ARG553  GLY616  TRP617  ASP618  TYR619  PRO620  LYS621  CYS622 
 ASP623  PHE694  ASN695  SER759  ASP760  ASP761  ALA762  ILE779  LEU786  VAL792 
 PHE793  MET794  SER795  GLU796  ALA797  LYS798  CYS799  TRP800  GLU811  SER814 

> <Gold.Protein.RotatedAtoms>
  152.5398  134.0485  159.8098 H   0  0  0  0  0  0  0  0  0  0  0  0  # atno 6907 bound_to 6896
  151.0630  133.5521  159.2640 H   0  0  0  0  0  0  0  0  0  0  0  0  # atno 6908 bound_to 6896
  151.2412  135.0597  159.9080 H   0  0  0  0  0  0  0  0  0  0  0  0  # atno 6909 bound_to 6896
  144.7298  139.9332  143.6425 H   0  0  0  0  0  0  0  0  0  0  0  0  # atno 7974 bound_to 7965
  154.6246  140.0611  156.9658 H   0  0  0  0  0  0  0  0  0  0  0  0  # atno 8008 bound_to 7997
  155.1762  140.3295  155.4365 H   0  0  0  0  0  0  0  0  0  0  0  0  # atno 8009 bound_to 7997
  156.2450  140.1905  156.6861 H   0  0  0  0  0  0  0  0  0  0  0  0  # atno 8010 bound_to 7997
  139.5050  144.3471  151.9960 H   0  0  0  0  0  0  0  0  0  0  0  0  # atno 10167 bound_to 10162
  157.3643  131.0969  151.0887 H   0  0  0  0  0  0  0  0  0  0  0  0  # atno 10718 bound_to 10713
  153.8414  135.6857  153.4802 H   0  0  0  0  0  0  0  0  0  0  0  0  # atno 10763 bound_to 10752
  153.1451  135.4641  154.9553 H   0  0  0  0  0  0  0  0  0  0  0  0  # atno 10764 bound_to 10752
  154.7843  135.3279  154.7867 H   0  0  0  0  0  0  0  0  0  0  0  0  # atno 10765 bound_to 10752
  141.1618  133.7507  156.9296 H   0  0  0  0  0  0  0  0  0  0  0  0  # atno 11005 bound_to 11000
  146.0841  139.3829  143.0446 LP  0  0  0  0  0  0  0  0  0  0  0  0  # atno 17320 bound_to 7965
  145.7800  140.9860  143.1104 LP  0  0  0  0  0  0  0  0  0  0  0  0  # atno 17321 bound_to 7965
  140.2908  144.3756  150.6089 LP  0  0  0  0  0  0  0  0  0  0  0  0  # atno 17342 bound_to 10162
  140.5948  143.2167  151.7185 LP  0  0  0  0  0  0  0  0  0  0  0  0  # atno 17343 bound_to 10162
  157.2015  130.6397  149.5740 LP  0  0  0  0  0  0  0  0  0  0  0  0  # atno 17370 bound_to 10713
  155.9743  130.4689  150.6377 LP  0  0  0  0  0  0  0  0  0  0  0  0  # atno 17371 bound_to 10713
  140.1395  134.9303  157.2448 LP  0  0  0  0  0  0  0  0  0  0  0  0  # atno 17394 bound_to 11000
  140.2854  134.3302  155.7331 LP  0  0  0  0  0  0  0  0  0  0  0  0  # atno 17395 bound_to 11000

$$$$
