AV-unprocessed.smi:2202|AV-procd|sdf|8933|dock3
  -GOLD-   2272012143D 1   1.00000     0.00000
 Structure written by MMmdl.
 43 45  0  0  0  0  0  0  0  0  2 V2000
  148.4540  138.3825  155.4935 O   0  0  0  0  0  0  0  0  0  0  0  0
  149.0241  139.0135  154.6017 C   0  0  0  0  0  0  0  0  0  0  0  0
  150.5269  139.3174  154.6824 C   0  0  0  0  0  0  0  0  0  0  0  0
  150.8886  140.1585  155.8304 N   0  0  0  0  0  0  0  0  0  0  0  0
  151.9986  139.9905  156.5762 C   0  0  0  0  0  0  0  0  0  0  0  0
  152.8127  139.0708  156.5019 O   0  0  0  0  0  0  0  0  0  0  0  0
  152.1590  141.1876  157.5010 C   0  0  2  0  0  0  0  0  0  0  0  0
  152.7200  141.0689  158.9231 C   0  0  0  0  0  0  0  0  0  0  0  0
  152.4940  142.4066  159.6353 C   0  0  0  0  0  0  0  0  0  0  0  0
  151.6443  143.3637  159.1875 C   0  0  0  0  0  0  0  0  0  0  0  0
  150.7733  143.2101  157.9361 C   0  0  0  0  0  0  0  0  0  0  0  0
  150.7427  141.7241  157.5592 C   0  0  1  0  0  0  0  0  0  0  0  0
  150.1697  141.2210  156.2433 C   0  0  0  0  0  0  0  0  0  0  0  0
  149.1722  141.6986  155.7033 O   0  0  0  0  0  0  0  0  0  0  0  0
  148.3891  139.4804  153.5162 N   0  0  0  0  0  0  0  0  0  0  0  0
  146.9694  139.2983  153.2395 C   0  0  0  0  0  0  0  0  0  0  0  0
  146.7417  138.6002  151.8877 C   0  0  0  0  0  0  0  0  0  0  0  0
  145.6612  137.5398  151.9648 C   0  0  0  0  0  0  0  0  0  0  0  0
  145.8803  136.2091  151.5474 C   0  0  0  0  0  0  0  0  0  0  0  0
  144.8264  135.2759  151.6415 C   0  0  0  0  0  0  0  0  0  0  0  0
  143.5785  135.6925  152.1501 C   0  0  0  0  0  0  0  0  0  0  0  0
  143.4152  137.0339  152.5522 C   0  0  0  0  0  0  0  0  0  0  0  0
  144.4483  137.8982  152.4454 N   0  3  0  0  0  0  0  0  0  0  0  0
  151.0799  138.3776  154.7309 H   0  0  0  0  0  0  0  0  0  0  0  0
  150.8341  139.7953  153.7508 H   0  0  0  0  0  0  0  0  0  0  0  0
  152.7915  141.8909  156.9536 H   0  0  0  0  0  0  0  0  0  0  0  0
  152.2366  140.2676  159.4832 H   0  0  0  0  0  0  0  0  0  0  0  0
  153.7881  140.8518  158.8903 H   0  0  0  0  0  0  0  0  0  0  0  0
  153.0587  142.5742  160.5406 H   0  0  0  0  0  0  0  0  0  0  0  0
  151.5548  144.2944  159.7283 H   0  0  0  0  0  0  0  0  0  0  0  0
  149.7649  143.5655  158.1504 H   0  0  0  0  0  0  0  0  0  0  0  0
  151.1761  143.8238  157.1296 H   0  0  0  0  0  0  0  0  0  0  0  0
  150.1860  141.1967  158.3376 H   0  0  0  0  0  0  0  0  0  0  0  0
  148.9284  139.9944  152.8340 H   0  0  0  0  0  0  0  0  0  0  0  0
  146.5054  138.7314  154.0487 H   0  0  0  0  0  0  0  0  0  0  0  0
  146.4937  140.2795  153.2361 H   0  0  0  0  0  0  0  0  0  0  0  0
  146.4697  139.3355  151.1290 H   0  0  0  0  0  0  0  0  0  0  0  0
  147.6636  138.1303  151.5418 H   0  0  0  0  0  0  0  0  0  0  0  0
  146.8415  135.9051  151.1589 H   0  0  0  0  0  0  0  0  0  0  0  0
  144.9734  134.2531  151.3264 H   0  0  0  0  0  0  0  0  0  0  0  0
  142.7588  134.9935  152.2298 H   0  0  0  0  0  0  0  0  0  0  0  0
  142.4966  137.4391  152.9512 H   0  0  0  0  0  0  0  0  0  0  0  0
  144.3077  138.8649  152.7409 H   0  0  0  0  0  0  0  0  0  0  0  0
  1  2  2  0  0  0  0
  2  3  1  0  0  0  0
  2 15  1  0  0  0  0
  3  4  1  0  0  0  0
  3 24  1  0  0  0  0
  3 25  1  0  0  0  0
  4 13  1  0  0  0  0
  4  5  1  0  0  0  0
  5  6  2  0  0  0  0
  5  7  1  0  0  0  0
  7 12  1  0  0  0  0
  7  8  1  0  0  0  0
  7 26  1  0  0  0  0
  8  9  1  0  0  0  0
  8 27  1  0  0  0  0
  8 28  1  0  0  0  0
  9 10  2  0  0  0  0
  9 29  1  0  0  0  0
 10 11  1  0  0  0  0
 10 30  1  0  0  0  0
 11 12  1  0  0  0  0
 11 31  1  0  0  0  0
 11 32  1  0  0  0  0
 12 13  1  0  0  0  0
 12 33  1  0  0  0  0
 13 14  2  0  0  0  0
 15 16  1  0  0  0  0
 15 34  1  0  0  0  0
 16 17  1  0  0  0  0
 16 35  1  0  0  0  0
 16 36  1  0  0  0  0
 17 18  1  0  0  0  0
 17 37  1  0  0  0  0
 17 38  1  0  0  0  0
 18 23  1  0  0  0  0
 18 19  2  0  0  0  0
 19 20  1  0  0  0  0
 19 39  1  0  0  0  0
 20 21  2  0  0  0  0
 20 40  1  0  0  0  0
 21 22  1  0  0  0  0
 21 41  1  0  0  0  0
 22 23  2  0  0  0  0
 22 42  1  0  0  0  0
 23 43  1  0  0  0  0
M  CHG  1  23   1
M  END
> <s_m_source_file>
AV-unprocessed.smi

> <i_m_source_file_index>
2202

> <i_lp_mmshare_version>
43012

> <i_f3d_flags>
0

> <s_epik_input>
W0NIMl0xW0NIXT1bQ0hdW0NIMl1bQ0BIXShbQ0BIXTEyKUMoPU8pTihDMj1PKVtDSDJdQyg9TylbTkhdW0NIMl1bQ0gyXWMzW2NIXVtjSF1bY0hdW2NIXW4z

> <s_epik_cmdline>
J2VwaWtfcHl0aG9uJywgJy1waCcsICc3LjAnLCAnLXRuJywgJzgnLCAnLW1hJywgJzIwMCcsICctbWV0YWxfYmluZGluZycsICctaW1hZScsICc8aW5maWxlLm1hZT4nLCAnLW9tYWUnLCAnPG91dGZpbGUubWFlPic=

> <r_lp_tautomer_probability>
1

> <r_epik_Ionization_Penalty>
1.90039

> <r_epik_Ionization_Penalty_Charging>
1.90039

> <r_epik_Ionization_Penalty_Neutral>
1.50224e-07

> <r_epik_State_Penalty>
2.02162

> <r_epik_Charging_Adjusted_Penalty>
3.922

> <i_epik_Tot_Q>
1

> <i_epik_Tot_abs_Q>
1

> <r_epik_Metal_State_Penalty>
2.04542

> <b_epik_Metal_Only>
0

> <s_lp_Force_Field>
OPLS_2005

> <r_lp_Energy>
26.3593

> <b_lp_Chiralities_Consistent>
1

> <s_lp_Variant>
AV-unprocessed.smi:2202-5

> <Gold.Version>
5.8.1

> <Gold.Id.Protein>
6NUR|6NUR_protein|mol2

> <Gold.PLP.Fitness>
53.5804

> <Gold.PLP.PLP>
-42.9717

> <Gold.PLP.part.hbond>
-4.0000

> <Gold.PLP.part.metal>
0.0000

> <Gold.PLP.part.buried>
-1.7201

> <Gold.PLP.part.nonpolar>
-38.0901

> <Gold.PLP.part.repulsive>
0.8908

> <Gold.PLP.ligand.clash>
0.0000

> <Gold.PLP.ligand.torsion>
0.6264

> <Gold.PLP.Chemscore.Hbond>
3.9440

> <Gold.PLP.Chemscore.CHOScore>
0.0000

> <Gold.PLP.Chemscore.Metal>
0.0000

> <Gold.Chemscore.Hbonds>
donor molecule, donor type, donor heavy atom, donor atom, acceptor molecule, acceptor atom, score
      L1  H    15    34       P1  7957  0.94
      L1  H    23    43       P1 10175  2.00
      P1  H  7997  8009       L1     6  1.00

> <Gold.PLP.Chemscore.Internal.Correction>
0.0296

> <Gold.Rescore>
     Score         DG    S(hbond)    S(metal)    S(lipo)     H(rot)  DE(clash)    DE(int)     intcor
     17.11     -19.16       2.26        0.00      95.44       1.96       0.15       1.90       ----

> <Gold.Chemscore.Fitness>
17.1054

> <Gold.Chemscore.DG>
-19.1590

> <Gold.Chemscore.ZeroCoef>
-5.4800

> <Gold.Chemscore.Hbond>
2.2563

> <Gold.Chemscore.Metal>
0.0000

> <Gold.Chemscore.Lipo>
95.4447

> <Gold.Chemscore.Internal_Hbond>
0.0000

> <Gold.Chemscore.DEClash>
0.1539

> <Gold.Chemscore.DEInternal>
1.8996

> <Gold.Chemscore.Rot>
1.9625

> <Gold.Chemscore.Internal.Correction>
   9.000000E+99

> <Gold.Chemscore.Hbonds>
donor molecule, donor type, donor heavy atom, donor atom, acceptor molecule, acceptor atom, score
      L1  H    15    34       P1  7957  0.91
      L1  H    23    43       P1 10175  0.94
      P1  H  7997  8009       L1     6  0.25

> <Gold.Chemscore.Hbond.Weighted>
-7.5359

> <Gold.Chemscore.Metal.Weighted>
-0.0000

> <Gold.Chemscore.Lipo.Weighted>
-11.1670

> <Gold.Chemscore.Internal_Hbond.Weighted>
0.0000

> <Gold.Chemscore.DEClash.Weighted>
0.1539

> <Gold.Chemscore.DEInternal.Weighted>
1.8996

> <Gold.Chemscore.Rot.Weighted>
5.0240

> <Gold.Chemscore.Internal.Correction.Weighted>
   9.000000E+99

> <Gold.Protein.RotatedTorsions>
[ 6907 6896 6895 6894 ] final   41.47 input  -60.11 | X-H torsion
[ 7974 7965 7964 7962 ] final -134.51 input  175.53 | X-H torsion
[ 8008 7997 7996 7995 ] final  172.96 input   59.86 | X-H torsion
[ 10167 10162 10161 10158 ] final -149.85 input  -65.29 | X-H torsion
[ 10718 10713 10712 10709 ] final -111.39 input   66.30 | X-H torsion
[ 10763 10752 10751 10750 ] final    4.36 input  -60.55 | X-H torsion
[ 11005 11000 10999 10996 ] final -160.73 input  -57.11 | X-H torsion

> <Gold.Protein.ActiveResidues>
 VAL166  LYS551  ARG553  GLY616  TRP617  ASP618  TYR619  PRO620  LYS621  CYS622 
 ASP623  PHE694  ASN695  SER759  ASP760  ASP761  ALA762  ILE779  LEU786  VAL792 
 PHE793  MET794  SER795  GLU796  ALA797  LYS798  CYS799  TRP800  GLU811  SER814 

> <Gold.Protein.RotatedAtoms>
  152.1956  134.8633  160.0512 H   0  0  0  0  0  0  0  0  0  0  0  0  # atno 6907 bound_to 6896
  151.9506  133.3660  159.4007 H   0  0  0  0  0  0  0  0  0  0  0  0  # atno 6908 bound_to 6896
  150.6944  134.4268  159.5274 H   0  0  0  0  0  0  0  0  0  0  0  0  # atno 6909 bound_to 6896
  144.9096  140.6878  143.5033 H   0  0  0  0  0  0  0  0  0  0  0  0  # atno 7974 bound_to 7965
  156.1123  140.1472  156.9321 H   0  0  0  0  0  0  0  0  0  0  0  0  # atno 8008 bound_to 7997
  154.4775  140.0889  156.7342 H   0  0  0  0  0  0  0  0  0  0  0  0  # atno 8009 bound_to 7997
  155.4575  140.3437  155.4310 H   0  0  0  0  0  0  0  0  0  0  0  0  # atno 8010 bound_to 7997
  139.7406  143.8667  152.2561 H   0  0  0  0  0  0  0  0  0  0  0  0  # atno 10167 bound_to 10162
  156.0644  130.5865  150.8367 H   0  0  0  0  0  0  0  0  0  0  0  0  # atno 10718 bound_to 10713
  153.2722  135.6933  153.7469 H   0  0  0  0  0  0  0  0  0  0  0  0  # atno 10763 bound_to 10752
  153.6488  135.3380  155.3094 H   0  0  0  0  0  0  0  0  0  0  0  0  # atno 10764 bound_to 10752
  154.8467  135.4449  154.1748 H   0  0  0  0  0  0  0  0  0  0  0  0  # atno 10765 bound_to 10752
  140.6283  134.4678  157.5228 H   0  0  0  0  0  0  0  0  0  0  0  0  # atno 11005 bound_to 11000
  145.3476  139.1715  143.4452 LP  0  0  0  0  0  0  0  0  0  0  0  0  # atno 17320 bound_to 7965
  146.3152  140.3525  142.8657 LP  0  0  0  0  0  0  0  0  0  0  0  0  # atno 17321 bound_to 7965
  139.8617  144.7114  150.9092 LP  0  0  0  0  0  0  0  0  0  0  0  0  # atno 17342 bound_to 10162
  140.7785  143.3812  151.1474 LP  0  0  0  0  0  0  0  0  0  0  0  0  # atno 17343 bound_to 10162
  157.5676  131.0946  150.9466 LP  0  0  0  0  0  0  0  0  0  0  0  0  # atno 17370 bound_to 10713
  156.9689  130.5483  149.5289 LP  0  0  0  0  0  0  0  0  0  0  0  0  # atno 17371 bound_to 10713
  139.9126  134.8312  156.1475 LP  0  0  0  0  0  0  0  0  0  0  0  0  # atno 17394 bound_to 11000
  141.0694  133.6804  156.2109 LP  0  0  0  0  0  0  0  0  0  0  0  0  # atno 17395 bound_to 11000

$$$$
