AV-unprocessed.smi:2032|AV-procd|sdf|8242|dock8
  -GOLD-   2272010513D 1   1.00000     0.00000
 Structure written by MMmdl.
 43 44  0  0  0  0  0  0  0  0  2 V2000
  148.5153  133.3991  153.1882 C   0  0  0  0  0  0  0  0  0  0  0  0
  146.9860  133.3413  153.3537 C   0  0  1  0  0  0  0  0  0  0  0  0
  146.3478  134.7121  153.6586 C   0  0  0  0  0  0  0  0  0  0  0  0
  146.3064  135.5810  152.4501 N   0  3  2  0  0  0  0  0  0  0  0  0
  145.7573  136.9632  152.6480 C   0  0  2  0  0  0  0  0  0  0  0  0
  144.2125  136.9121  152.6634 C   0  0  0  0  0  0  0  0  0  0  0  0
  146.2675  137.9949  151.6033 C   0  0  0  0  0  0  0  0  0  0  0  0
  147.4702  138.7032  152.0365 N   0  0  0  0  0  0  0  0  0  0  0  0
  147.6211  139.3266  153.2148 C   0  0  0  0  0  0  0  0  0  0  0  0
  146.7484  139.3547  154.0832 O   0  0  0  0  0  0  0  0  0  0  0  0
  148.8349  139.8960  153.3135 N   0  0  0  0  0  0  0  0  0  0  0  0
  149.3815  140.6091  154.4127 C   0  0  0  0  0  0  0  0  0  0  0  0
  150.6637  140.5462  154.7904 N   0  0  0  0  0  0  0  0  0  0  0  0
  150.9240  141.3548  155.8995 C   0  0  0  0  0  0  0  0  0  0  0  0
  149.8206  142.0317  156.3561 C   0  0  0  0  0  0  0  0  0  0  0  0
  148.4021  141.6782  155.4061 S   0  0  0  0  0  0  0  0  0  0  0  0
  145.6295  134.8517  151.3456 C   0  0  0  0  0  0  0  0  0  0  0  0
  146.3360  133.5174  151.0540 C   0  0  2  0  0  0  0  0  0  0  0  0
  145.6211  132.7161  149.9603 C   0  0  0  0  0  0  0  0  0  0  0  0
  146.3467  132.7269  152.2372 O   0  0  0  0  0  0  0  0  0  0  0  0
  148.9913  133.7304  154.1114 H   0  0  0  0  0  0  0  0  0  0  0  0
  148.8221  134.0882  152.4018 H   0  0  0  0  0  0  0  0  0  0  0  0
  148.9174  132.4146  152.9476 H   0  0  0  0  0  0  0  0  0  0  0  0
  146.7896  132.6899  154.2058 H   0  0  0  0  0  0  0  0  0  0  0  0
  145.3316  134.5716  154.0305 H   0  0  0  0  0  0  0  0  0  0  0  0
  146.9242  135.1728  154.4603 H   0  0  0  0  0  0  0  0  0  0  0  0
  146.0959  137.3136  153.6246 H   0  0  0  0  0  0  0  0  0  0  0  0
  143.7793  137.8787  152.9181 H   0  0  0  0  0  0  0  0  0  0  0  0
  143.8194  136.2094  153.3956 H   0  0  0  0  0  0  0  0  0  0  0  0
  143.8209  136.6221  151.6880 H   0  0  0  0  0  0  0  0  0  0  0  0
  146.5486  137.4920  150.6784 H   0  0  0  0  0  0  0  0  0  0  0  0
  145.4754  138.7002  151.3453 H   0  0  0  0  0  0  0  0  0  0  0  0
  148.2410  138.7301  151.3847 H   0  0  0  0  0  0  0  0  0  0  0  0
  149.4444  139.7993  152.5149 H   0  0  0  0  0  0  0  0  0  0  0  0
  151.9265  141.3902  156.2998 H   0  0  0  0  0  0  0  0  0  0  0  0
  149.7571  142.7148  157.1901 H   0  0  0  0  0  0  0  0  0  0  0  0
  144.5872  134.6722  151.6151 H   0  0  0  0  0  0  0  0  0  0  0  0
  145.6169  135.4448  150.4329 H   0  0  0  0  0  0  0  0  0  0  0  0
  147.3572  133.7058  150.7214 H   0  0  0  0  0  0  0  0  0  0  0  0
  145.5876  133.2727  149.0231 H   0  0  0  0  0  0  0  0  0  0  0  0
  144.5958  132.4822  150.2477 H   0  0  0  0  0  0  0  0  0  0  0  0
  146.1360  131.7745  149.7680 H   0  0  0  0  0  0  0  0  0  0  0  0
  147.2699  135.7045  152.1730 H   0  0  0  0  0  0  0  0  0  0  0  0
  1  2  1  0  0  0  0
  1 21  1  0  0  0  0
  1 22  1  0  0  0  0
  1 23  1  0  0  0  0
  2 20  1  0  0  0  0
  2  3  1  0  0  0  0
  2 24  1  0  0  0  0
  3  4  1  0  0  0  0
  3 25  1  0  0  0  0
  3 26  1  0  0  0  0
  4  5  1  0  0  0  0
  4 17  1  0  0  0  0
  4 43  1  0  0  0  0
  5  6  1  0  0  0  0
  5  7  1  0  0  0  0
  5 27  1  0  0  0  0
  6 28  1  0  0  0  0
  6 29  1  0  0  0  0
  6 30  1  0  0  0  0
  7  8  1  0  0  0  0
  7 31  1  0  0  0  0
  7 32  1  0  0  0  0
  8  9  1  0  0  0  0
  8 33  1  0  0  0  0
  9 10  2  0  0  0  0
  9 11  1  0  0  0  0
 11 12  1  0  0  0  0
 11 34  1  0  0  0  0
 12 16  1  0  0  0  0
 12 13  2  0  0  0  0
 13 14  1  0  0  0  0
 14 15  2  0  0  0  0
 14 35  1  0  0  0  0
 15 16  1  0  0  0  0
 15 36  1  0  0  0  0
 17 18  1  0  0  0  0
 17 37  1  0  0  0  0
 17 38  1  0  0  0  0
 18 19  1  0  0  0  0
 18 20  1  0  0  0  0
 18 39  1  0  0  0  0
 19 40  1  0  0  0  0
 19 41  1  0  0  0  0
 19 42  1  0  0  0  0
M  CHG  1   4   1
M  END
> <s_m_source_file>
AV-unprocessed.smi

> <i_m_source_file_index>
2032

> <i_lp_mmshare_version>
43012

> <i_f3d_flags>
0

> <s_epik_input>
W0NIM11bQ0BASF0xW0NIMl1OKFtDSDJdW0NASF0oTzEpW0NIM10pW0NASF0oW0NIM10pW0NIMl1bTkhdQyg9TylbTkhdYzJuW2NIXVtjSF1zMg==

> <s_epik_cmdline>
J2VwaWtfcHl0aG9uJywgJy1waCcsICc3LjAnLCAnLXRuJywgJzgnLCAnLW1hJywgJzIwMCcsICctbWV0YWxfYmluZGluZycsICctaW1hZScsICc8aW5maWxlLm1hZT4nLCAnLW9tYWUnLCAnPG91dGZpbGUubWFlPic=

> <r_lp_tautomer_probability>
0.999

> <r_epik_Ionization_Penalty>
0.695838

> <r_epik_Ionization_Penalty_Charging>
0.695697

> <r_epik_Ionization_Penalty_Neutral>
0.000141198

> <r_epik_State_Penalty>
0.717972

> <r_epik_Charging_Adjusted_Penalty>
1.41367

> <i_epik_Tot_Q>
1

> <i_epik_Tot_abs_Q>
1

> <r_epik_Metal_State_Penalty>
0.756405

> <b_epik_Metal_Only>
0

> <s_lp_Force_Field>
OPLS_2005

> <r_lp_Energy>
21.4223

> <b_lp_Chiralities_Consistent>
1

> <s_lp_Variant>
AV-unprocessed.smi:2032-12

> <Gold.Version>
5.8.1

> <Gold.Id.Protein>
6NUR|6NUR_protein|mol2

> <Gold.PLP.Fitness>
46.9901

> <Gold.PLP.PLP>
-35.0042

> <Gold.PLP.part.hbond>
-4.8081

> <Gold.PLP.part.metal>
0.0000

> <Gold.PLP.part.buried>
-2.9768

> <Gold.PLP.part.nonpolar>
-27.5638

> <Gold.PLP.part.repulsive>
0.5174

> <Gold.PLP.ligand.clash>
0.0000

> <Gold.PLP.ligand.torsion>
1.1096

> <Gold.PLP.Chemscore.Hbond>
4.7200

> <Gold.PLP.Chemscore.CHOScore>
0.0000

> <Gold.PLP.Chemscore.Metal>
0.0000

> <Gold.Chemscore.Hbonds>
donor molecule, donor type, donor heavy atom, donor atom, acceptor molecule, acceptor atom, score
      L1  H     4    43       P1  7948  2.00
      L1  H     8    33       P1  7957  0.62
      L1  H    11    34       P1  7957  0.59
      P1  H  7989  7998       L1    13  1.00
      L1  C    15    36       P1  8028  0.18

> <Gold.PLP.Chemscore.Internal.Correction>
0.0452

> <Gold.Rescore>
     Score         DG    S(hbond)    S(metal)    S(lipo)     H(rot)  DE(clash)    DE(int)     intcor
     17.36     -19.87       3.27        0.00      64.79       1.61       0.14       2.36       ----

> <Gold.Chemscore.Fitness>
17.3607

> <Gold.Chemscore.DG>
-19.8679

> <Gold.Chemscore.ZeroCoef>
-5.4800

> <Gold.Chemscore.Hbond>
3.2731

> <Gold.Chemscore.Metal>
0.0000

> <Gold.Chemscore.Lipo>
64.7865

> <Gold.Chemscore.Internal_Hbond>
0.0000

> <Gold.Chemscore.DEClash>
0.1447

> <Gold.Chemscore.DEInternal>
2.3625

> <Gold.Chemscore.Rot>
1.6110

> <Gold.Chemscore.Internal.Correction>
   9.000000E+99

> <Gold.Chemscore.Hbonds>
donor molecule, donor type, donor heavy atom, donor atom, acceptor molecule, acceptor atom, score
      L1  H     4    43       P1  7948  1.00
      L1  H     8    33       P1  7957  0.22
      L1  H    11    34       P1  7957  0.56
      P1  H  7989  7998       L1    13  0.57

> <Gold.Chemscore.Hbond.Weighted>
-10.9321

> <Gold.Chemscore.Metal.Weighted>
-0.0000

> <Gold.Chemscore.Lipo.Weighted>
-7.5800

> <Gold.Chemscore.Internal_Hbond.Weighted>
0.0000

> <Gold.Chemscore.DEClash.Weighted>
0.1447

> <Gold.Chemscore.DEInternal.Weighted>
2.3625

> <Gold.Chemscore.Rot.Weighted>
4.1242

> <Gold.Chemscore.Internal.Correction.Weighted>
   9.000000E+99

> <Gold.Protein.RotatedTorsions>
[ 6907 6896 6895 6894 ] final   29.43 input  -60.11 | X-H torsion
[ 7974 7965 7964 7962 ] final    2.35 input  175.53 | X-H torsion
[ 8008 7997 7996 7995 ] final  162.92 input   59.86 | X-H torsion
[ 10167 10162 10161 10158 ] final -145.79 input  -65.29 | X-H torsion
[ 10718 10713 10712 10709 ] final -106.62 input   66.30 | X-H torsion
[ 10763 10752 10751 10750 ] final  118.03 input  -60.55 | X-H torsion
[ 11005 11000 10999 10996 ] final   -0.75 input  -57.11 | X-H torsion

> <Gold.Protein.ActiveResidues>
 VAL166  LYS551  ARG553  GLY616  TRP617  ASP618  TYR619  PRO620  LYS621  CYS622 
 ASP623  PHE694  ASN695  SER759  ASP760  ASP761  ALA762  ILE779  LEU786  VAL792 
 PHE793  MET794  SER795  GLU796  ALA797  LYS798  CYS799  TRP800  GLU811  SER814 

> <Gold.Protein.RotatedAtoms>
  152.0315  134.9765  160.0572 H   0  0  0  0  0  0  0  0  0  0  0  0  # atno 6907 bound_to 6896
  152.1240  133.4365  159.4697 H   0  0  0  0  0  0  0  0  0  0  0  0  # atno 6908 bound_to 6896
  150.6851  134.2419  159.4519 H   0  0  0  0  0  0  0  0  0  0  0  0  # atno 6909 bound_to 6896
  146.2443  140.0849  142.8355 H   0  0  0  0  0  0  0  0  0  0  0  0  # atno 7974 bound_to 7965
  156.1996  140.1737  156.7928 H   0  0  0  0  0  0  0  0  0  0  0  0  # atno 8008 bound_to 7997
  154.5574  140.0706  156.8795 H   0  0  0  0  0  0  0  0  0  0  0  0  # atno 8009 bound_to 7997
  155.2913  140.3355  155.4255 H   0  0  0  0  0  0  0  0  0  0  0  0  # atno 8010 bound_to 7997
  139.7773  143.8152  152.2633 H   0  0  0  0  0  0  0  0  0  0  0  0  # atno 10167 bound_to 10162
  156.0398  130.5622  150.7707 H   0  0  0  0  0  0  0  0  0  0  0  0  # atno 10718 bound_to 10713
  153.5614  135.3520  155.2800 H   0  0  0  0  0  0  0  0  0  0  0  0  # atno 10763 bound_to 10752
  154.8694  135.4137  154.2827 H   0  0  0  0  0  0  0  0  0  0  0  0  # atno 10764 bound_to 10752
  153.3573  135.7058  153.6809 H   0  0  0  0  0  0  0  0  0  0  0  0  # atno 10765 bound_to 10752
  140.6398  133.9500  155.8320 H   0  0  0  0  0  0  0  0  0  0  0  0  # atno 11005 bound_to 11000
  145.0700  140.9149  143.4887 LP  0  0  0  0  0  0  0  0  0  0  0  0  # atno 17320 bound_to 7965
  145.0981  139.2842  143.5700 LP  0  0  0  0  0  0  0  0  0  0  0  0  # atno 17321 bound_to 7965
  139.8204  144.7298  150.9580 LP  0  0  0  0  0  0  0  0  0  0  0  0  # atno 17342 bound_to 10162
  140.7817  143.4165  151.0910 LP  0  0  0  0  0  0  0  0  0  0  0  0  # atno 17343 bound_to 10162
  157.5201  131.0931  151.0089 LP  0  0  0  0  0  0  0  0  0  0  0  0  # atno 17370 bound_to 10713
  157.0422  130.5753  149.5358 LP  0  0  0  0  0  0  0  0  0  0  0  0  # atno 17371 bound_to 10713
  141.0615  134.0339  157.3652 LP  0  0  0  0  0  0  0  0  0  0  0  0  # atno 17394 bound_to 11000
  139.9084  135.0185  156.7588 LP  0  0  0  0  0  0  0  0  0  0  0  0  # atno 17395 bound_to 11000

$$$$
