AV-unprocessed.smi:390|AV-procd|sdf|2478|dock7
  -GOLD-   2262022423D 1   1.00000     0.00000
 Structure written by MMmdl.
 31 32  0  0  0  0  0  0  0  0  1 V2000
  152.3355  136.9948  159.7644 N   0  0  0  0  0  0  0  0  0  0  0  0
  152.0676  137.9365  159.1474 C   0  0  0  0  0  0  0  0  0  0  0  0
  151.7442  139.1140  158.4123 C   0  0  0  0  0  0  0  0  0  0  0  0
  151.8225  140.3427  158.9677 C   0  0  0  0  0  0  0  0  0  0  0  0
  151.5203  141.4977  158.2757 N   0  0  0  0  0  0  0  0  0  0  0  0
  151.4568  142.7701  158.9374 C   0  0  0  0  0  0  0  0  0  0  0  0
  152.2046  143.9636  158.3757 C   0  0  0  0  0  0  0  0  0  0  0  0
  152.6911  143.2945  159.6380 C   0  0  0  0  0  0  0  0  0  0  0  0
  151.0320  141.4268  156.9526 C   0  0  0  0  0  0  0  0  0  0  0  0
  150.6558  142.4375  156.3529 O   0  0  0  0  0  0  0  0  0  0  0  0
  150.9776  140.1423  156.3585 N   0  0  0  0  0  0  0  0  0  0  0  0
  150.4851  140.0459  154.9909 C   0  0  0  0  0  0  0  0  0  0  0  0
  149.0250  139.5803  154.8709 C   0  0  0  0  0  0  0  0  0  0  0  0
  148.3867  139.2629  155.8782 O   0  0  0  0  0  0  0  0  0  0  0  0
  148.5419  139.5579  153.6122 N   0  0  0  0  0  0  0  0  0  0  0  0
  147.3062  139.1969  153.2155 C   0  0  0  0  0  0  0  0  0  0  0  0
  147.2115  139.1441  151.8857 N   0  0  0  0  0  0  0  0  0  0  0  0
  146.3530  138.9386  153.9506 O   0  0  0  0  0  0  0  0  0  0  0  0
  151.3130  138.9372  157.0275 C   0  0  0  0  0  0  0  0  0  0  0  0
  151.2241  137.8390  156.4747 O   0  0  0  0  0  0  0  0  0  0  0  0
  152.1384  140.4289  159.9974 H   0  0  0  0  0  0  0  0  0  0  0  0
  150.5073  142.9931  159.4208 H   0  0  0  0  0  0  0  0  0  0  0  0
  152.8016  143.8215  157.4767 H   0  0  0  0  0  0  0  0  0  0  0  0
  151.7343  144.9401  158.4723 H   0  0  0  0  0  0  0  0  0  0  0  0
  152.5475  143.8264  160.5763 H   0  0  0  0  0  0  0  0  0  0  0  0
  153.6071  142.7106  159.5696 H   0  0  0  0  0  0  0  0  0  0  0  0
  150.6171  141.0199  154.5170 H   0  0  0  0  0  0  0  0  0  0  0  0
  151.1502  139.3763  154.4432 H   0  0  0  0  0  0  0  0  0  0  0  0
  149.1815  139.8444  152.8862 H   0  0  0  0  0  0  0  0  0  0  0  0
  148.0094  139.3619  151.3073 H   0  0  0  0  0  0  0  0  0  0  0  0
  146.3329  138.8840  151.4611 H   0  0  0  0  0  0  0  0  0  0  0  0
  1  2  3  0  0  0  0
  2  3  1  0  0  0  0
  3 19  1  0  0  0  0
  3  4  2  0  0  0  0
  4  5  1  0  0  0  0
  4 21  1  0  0  0  0
  5  6  1  0  0  0  0
  5  9  1  0  0  0  0
  6  8  1  0  0  0  0
  6  7  1  0  0  0  0
  6 22  1  0  0  0  0
  7  8  1  0  0  0  0
  7 23  1  0  0  0  0
  7 24  1  0  0  0  0
  8 25  1  0  0  0  0
  8 26  1  0  0  0  0
  9 10  2  0  0  0  0
  9 11  1  0  0  0  0
 11 12  1  0  0  0  0
 11 19  1  0  0  0  0
 12 13  1  0  0  0  0
 12 27  1  0  0  0  0
 12 28  1  0  0  0  0
 13 14  2  0  0  0  0
 13 15  1  0  0  0  0
 15 16  1  0  0  0  0
 15 29  1  0  0  0  0
 16 17  1  0  0  0  0
 16 18  2  0  0  0  0
 17 30  1  0  0  0  0
 17 31  1  0  0  0  0
 19 20  2  0  0  0  0
M  END
> <s_m_source_file>
AV-unprocessed.smi

> <i_m_source_file_index>
390

> <i_lp_mmshare_version>
43012

> <i_f3d_flags>
0

> <s_epik_input>
TiNDYzFbY0hdbihbQ0hdMltDSDJdW0NIMl0yKWMoPU8pbihjMT1PKVtDSDJdQyg9TylbTkhdQyg9TylbTkgyXQ==

> <s_epik_cmdline>
J2VwaWtfcHl0aG9uJywgJy1waCcsICc3LjAnLCAnLXRuJywgJzgnLCAnLW1hJywgJzIwMCcsICctbWV0YWxfYmluZGluZycsICctaW1hZScsICc8aW5maWxlLm1hZT4nLCAnLW9tYWUnLCAnPG91dGZpbGUubWFlPic=

> <r_lp_tautomer_probability>
1

> <r_epik_Ionization_Penalty>
3.12406e-05

> <r_epik_Ionization_Penalty_Charging>
4.21484e-11

> <r_epik_Ionization_Penalty_Neutral>
3.12406e-05

> <r_epik_State_Penalty>
-0

> <r_epik_Charging_Adjusted_Penalty>
4.21484e-11

> <i_epik_Tot_Q>
0

> <i_epik_Tot_abs_Q>
0

> <r_epik_Metal_State_Penalty>
-0

> <b_epik_Metal_Only>
0

> <s_lp_Force_Field>
OPLS_2005

> <r_lp_Energy>
30.8642

> <b_lp_Chiralities_Consistent>
1

> <s_lp_Variant>
AV-unprocessed.smi:390-1

> <Gold.Version>
5.8.1

> <Gold.Id.Protein>
6NUR|6NUR_protein|mol2

> <Gold.PLP.Fitness>
41.7249

> <Gold.PLP.PLP>
-33.3196

> <Gold.PLP.part.hbond>
-3.7287

> <Gold.PLP.part.metal>
0.0000

> <Gold.PLP.part.buried>
-4.3902

> <Gold.PLP.part.nonpolar>
-25.9986

> <Gold.PLP.part.repulsive>
0.8418

> <Gold.PLP.ligand.clash>
0.0000

> <Gold.PLP.ligand.torsion>
0.3683

> <Gold.PLP.Chemscore.Hbond>
2.9760

> <Gold.PLP.Chemscore.CHOScore>
0.0000

> <Gold.PLP.Chemscore.Metal>
0.0000

> <Gold.Chemscore.Hbonds>
donor molecule, donor type, donor heavy atom, donor atom, acceptor molecule, acceptor atom, score
      L1  H    15    29       P1  7957  1.00
      L1  H    17    30       P1  7957  1.00
      P1  H  6896  6909       L1     1  1.00

> <Gold.PLP.Chemscore.Internal.Correction>
0.2139

> <Gold.Rescore>
     Score         DG    S(hbond)    S(metal)    S(lipo)     H(rot)  DE(clash)    DE(int)     intcor
     14.28     -16.11       2.93        0.00      53.05       2.09       0.00       1.83       ----

> <Gold.Chemscore.Fitness>
14.2824

> <Gold.Chemscore.DG>
-16.1097

> <Gold.Chemscore.ZeroCoef>
-5.4800

> <Gold.Chemscore.Hbond>
2.9272

> <Gold.Chemscore.Metal>
0.0000

> <Gold.Chemscore.Lipo>
53.0477

> <Gold.Chemscore.Internal_Hbond>
0.0000

> <Gold.Chemscore.DEClash>
0.0015

> <Gold.Chemscore.DEInternal>
1.8258

> <Gold.Chemscore.Rot>
2.0913

> <Gold.Chemscore.Internal.Correction>
   9.000000E+99

> <Gold.Chemscore.Hbonds>
donor molecule, donor type, donor heavy atom, donor atom, acceptor molecule, acceptor atom, score
      L1  H    15    29       P1  7957  0.95
      L1  H    17    30       P1  7957  0.84
      P1  H  6896  6909       L1     1  0.97

> <Gold.Chemscore.Hbond.Weighted>
-9.7767

> <Gold.Chemscore.Metal.Weighted>
-0.0000

> <Gold.Chemscore.Lipo.Weighted>
-6.2066

> <Gold.Chemscore.Internal_Hbond.Weighted>
0.0000

> <Gold.Chemscore.DEClash.Weighted>
0.0015

> <Gold.Chemscore.DEInternal.Weighted>
1.8258

> <Gold.Chemscore.Rot.Weighted>
5.3537

> <Gold.Chemscore.Internal.Correction.Weighted>
   9.000000E+99

> <Gold.Protein.RotatedTorsions>
[ 6907 6896 6895 6894 ] final  147.02 input  -60.11 | X-H torsion
[ 7974 7965 7964 7962 ] final -161.35 input  175.53 | X-H torsion
[ 8008 7997 7996 7995 ] final   51.59 input   59.86 | X-H torsion
[ 10167 10162 10161 10158 ] final   81.48 input  -65.29 | X-H torsion
[ 10718 10713 10712 10709 ] final  -97.18 input   66.30 | X-H torsion
[ 10763 10752 10751 10750 ] final   73.08 input  -60.55 | X-H torsion
[ 11005 11000 10999 10996 ] final  -37.35 input  -57.11 | X-H torsion

> <Gold.Protein.ActiveResidues>
 VAL166  LYS551  ARG553  GLY616  TRP617  ASP618  TYR619  PRO620  LYS621  CYS622 
 ASP623  PHE694  ASN695  SER759  ASP760  ASP761  ALA762  ILE779  LEU786  VAL792 
 PHE793  MET794  SER795  GLU796  ALA797  LYS798  CYS799  TRP800  GLU811  SER814 

> <Gold.Protein.RotatedAtoms>
  152.1603  133.4577  159.4857 H   0  0  0  0  0  0  0  0  0  0  0  0  # atno 6907 bound_to 6896
  150.6906  134.2080  159.4357 H   0  0  0  0  0  0  0  0  0  0  0  0  # atno 6908 bound_to 6896
  151.9982  134.9942  160.0615 H   0  0  0  0  0  0  0  0  0  0  0  0  # atno 6909 bound_to 6896
  144.7394  140.3410  143.6134 H   0  0  0  0  0  0  0  0  0  0  0  0  # atno 7974 bound_to 7965
  155.4378  140.3453  155.4287 H   0  0  0  0  0  0  0  0  0  0  0  0  # atno 8008 bound_to 7997
  156.1297  140.1510  156.9114 H   0  0  0  0  0  0  0  0  0  0  0  0  # atno 8009 bound_to 7997
  154.4885  140.0848  156.7521 H   0  0  0  0  0  0  0  0  0  0  0  0  # atno 8010 bound_to 7997
  139.9388  144.6103  150.8272 H   0  0  0  0  0  0  0  0  0  0  0  0  # atno 10167 bound_to 10162
  156.0078  130.5183  150.6336 H   0  0  0  0  0  0  0  0  0  0  0  0  # atno 10718 bound_to 10713
  153.0499  135.5076  154.7840 H   0  0  0  0  0  0  0  0  0  0  0  0  # atno 10763 bound_to 10752
  154.6711  135.2953  154.9743 H   0  0  0  0  0  0  0  0  0  0  0  0  # atno 10764 bound_to 10752
  154.0561  135.6697  153.4859 H   0  0  0  0  0  0  0  0  0  0  0  0  # atno 10765 bound_to 10752
  140.9945  133.6987  156.1910 H   0  0  0  0  0  0  0  0  0  0  0  0  # atno 11005 bound_to 11000
  145.7374  139.1754  143.2396 LP  0  0  0  0  0  0  0  0  0  0  0  0  # atno 17320 bound_to 7965
  146.1160  140.7369  142.9480 LP  0  0  0  0  0  0  0  0  0  0  0  0  # atno 17321 bound_to 7965
  140.7617  143.3180  151.2688 LP  0  0  0  0  0  0  0  0  0  0  0  0  # atno 17342 bound_to 10162
  139.6721  144.0001  152.2759 LP  0  0  0  0  0  0  0  0  0  0  0  0  # atno 17343 bound_to 10162
  157.4129  131.0826  151.1204 LP  0  0  0  0  0  0  0  0  0  0  0  0  # atno 17370 bound_to 10713
  157.1829  130.6317  149.5678 LP  0  0  0  0  0  0  0  0  0  0  0  0  # atno 17371 bound_to 10713
  140.6987  134.4587  157.5587 LP  0  0  0  0  0  0  0  0  0  0  0  0  # atno 17394 bound_to 11000
  139.9008  134.8560  156.1904 LP  0  0  0  0  0  0  0  0  0  0  0  0  # atno 17395 bound_to 11000

$$$$
