AV-unprocessed.smi:232|AV-procd|sdf|1768|dock7
  -GOLD-   2262020303D 1   1.00000     0.00000
 Structure written by MMmdl.
 52 55  0  0  0  0  0  0  0  0  1 V2000
  150.7747  144.3552  159.5589 C   0  0  0  0  0  0  0  0  0  0  0  0
  151.3754  143.7971  158.2629 C   0  0  0  0  0  0  0  0  0  0  0  0
  152.5952  142.8824  158.5048 C   0  0  1  0  0  0  0  0  0  0  0  0
  153.3410  143.1748  159.8155 C   0  0  0  0  0  0  0  0  0  0  0  0
  153.8782  141.8144  160.2765 C   0  0  0  0  0  0  0  0  0  0  0  0
  153.4162  140.8308  159.1958 C   0  0  1  0  0  0  0  0  0  0  0  0
  153.1208  139.4215  159.7341 C   0  0  0  0  0  0  0  0  0  0  0  0
  152.2517  141.4673  158.5902 N   0  0  0  0  0  0  0  0  0  0  0  0
  151.7997  140.9233  157.4353 C   0  0  0  0  0  0  0  0  0  0  0  0
  152.5858  140.0815  156.7122 N   0  0  0  0  0  0  0  0  0  0  0  0
  152.1346  139.5688  155.5631 C   0  0  0  0  0  0  0  0  0  0  0  0
  150.9572  139.7663  154.9650 N   0  0  0  0  0  0  0  0  0  0  0  0
  150.1708  140.6132  155.6898 C   0  0  0  0  0  0  0  0  0  0  0  0
  150.5111  141.2288  156.9256 C   0  0  0  0  0  0  0  0  0  0  0  0
  149.4640  142.0277  157.3671 N   0  0  0  0  0  0  0  0  0  0  0  0
  148.5545  141.8954  156.4399 C   0  0  0  0  0  0  0  0  0  0  0  0
  148.8982  141.0666  155.3955 N   0  0  0  0  0  0  0  0  0  0  0  0
  148.0894  140.7478  154.2329 C   0  0  0  0  0  0  0  0  0  0  0  0
  147.7748  139.2423  154.1370 C   0  0  2  0  0  0  0  0  0  0  0  0
  148.7582  138.5768  153.3665 O   0  0  0  0  0  0  0  0  0  0  0  0
  146.3635  138.9596  153.5836 C   0  0  2  0  0  0  0  0  0  0  0  0
  145.4904  138.0016  154.3989 C   0  0  0  0  0  0  0  0  0  0  0  0
  144.5244  137.5128  153.3433 C   0  0  0  0  0  0  0  0  0  0  0  0
  145.4317  137.3998  152.1209 C   0  0  0  0  0  0  0  0  0  0  0  0
  146.4026  138.4336  152.2590 O   0  0  0  0  0  0  0  0  0  0  0  0
  149.9442  145.0271  159.3414 H   0  0  0  0  0  0  0  0  0  0  0  0
  151.5175  144.9176  160.1252 H   0  0  0  0  0  0  0  0  0  0  0  0
  150.3956  143.5587  160.1992 H   0  0  0  0  0  0  0  0  0  0  0  0
  150.6091  143.2548  157.7074 H   0  0  0  0  0  0  0  0  0  0  0  0
  151.6634  144.6416  157.6363 H   0  0  0  0  0  0  0  0  0  0  0  0
  153.2955  143.0069  157.6769 H   0  0  0  0  0  0  0  0  0  0  0  0
  154.1364  143.9059  159.6685 H   0  0  0  0  0  0  0  0  0  0  0  0
  152.6623  143.5718  160.5718 H   0  0  0  0  0  0  0  0  0  0  0  0
  154.9632  141.8105  160.3849 H   0  0  0  0  0  0  0  0  0  0  0  0
  153.4474  141.5612  161.2462 H   0  0  0  0  0  0  0  0  0  0  0  0
  154.2091  140.7610  158.4494 H   0  0  0  0  0  0  0  0  0  0  0  0
  154.0015  138.9978  160.2169 H   0  0  0  0  0  0  0  0  0  0  0  0
  152.8282  138.7430  158.9323 H   0  0  0  0  0  0  0  0  0  0  0  0
  152.3136  139.4385  160.4669 H   0  0  0  0  0  0  0  0  0  0  0  0
  152.8157  138.9077  155.0479 H   0  0  0  0  0  0  0  0  0  0  0  0
  147.6041  142.4068  156.4887 H   0  0  0  0  0  0  0  0  0  0  0  0
  147.1657  141.3246  154.2921 H   0  0  0  0  0  0  0  0  0  0  0  0
  148.6144  141.0886  153.3395 H   0  0  0  0  0  0  0  0  0  0  0  0
  147.8277  138.8143  155.1390 H   0  0  0  0  0  0  0  0  0  0  0  0
  149.2345  139.2218  152.8664 H   0  0  0  0  0  0  0  0  0  0  0  0
  145.8302  139.9091  153.5087 H   0  0  0  0  0  0  0  0  0  0  0  0
  146.0649  137.1587  154.7838 H   0  0  0  0  0  0  0  0  0  0  0  0
  144.9956  138.4892  155.2394 H   0  0  0  0  0  0  0  0  0  0  0  0
  144.0412  136.5710  153.6045 H   0  0  0  0  0  0  0  0  0  0  0  0
  143.7489  138.2600  153.1692 H   0  0  0  0  0  0  0  0  0  0  0  0
  145.9479  136.4390  152.1208 H   0  0  0  0  0  0  0  0  0  0  0  0
  144.8828  137.4898  151.1835 H   0  0  0  0  0  0  0  0  0  0  0  0
  1  2  1  0  0  0  0
  1 26  1  0  0  0  0
  1 27  1  0  0  0  0
  1 28  1  0  0  0  0
  2  3  1  0  0  0  0
  2 29  1  0  0  0  0
  2 30  1  0  0  0  0
  3  8  1  0  0  0  0
  3  4  1  0  0  0  0
  3 31  1  0  0  0  0
  4  5  1  0  0  0  0
  4 32  1  0  0  0  0
  4 33  1  0  0  0  0
  5  6  1  0  0  0  0
  5 34  1  0  0  0  0
  5 35  1  0  0  0  0
  6  7  1  0  0  0  0
  6  8  1  0  0  0  0
  6 36  1  0  0  0  0
  7 37  1  0  0  0  0
  7 38  1  0  0  0  0
  7 39  1  0  0  0  0
  8  9  1  0  0  0  0
  9 14  1  0  0  0  0
  9 10  2  0  0  0  0
 10 11  1  0  0  0  0
 11 12  2  0  0  0  0
 11 40  1  0  0  0  0
 12 13  1  0  0  0  0
 13 17  1  0  0  0  0
 13 14  2  0  0  0  0
 14 15  1  0  0  0  0
 15 16  2  0  0  0  0
 16 17  1  0  0  0  0
 16 41  1  0  0  0  0
 17 18  1  0  0  0  0
 18 19  1  0  0  0  0
 18 42  1  0  0  0  0
 18 43  1  0  0  0  0
 19 20  1  0  0  0  0
 19 21  1  0  0  0  0
 19 44  1  0  0  0  0
 20 45  1  0  0  0  0
 21 25  1  0  0  0  0
 21 22  1  0  0  0  0
 21 46  1  0  0  0  0
 22 23  1  0  0  0  0
 22 47  1  0  0  0  0
 22 48  1  0  0  0  0
 23 24  1  0  0  0  0
 23 49  1  0  0  0  0
 23 50  1  0  0  0  0
 24 25  1  0  0  0  0
 24 51  1  0  0  0  0
 24 52  1  0  0  0  0
M  END
> <s_m_source_file>
AV-unprocessed.smi

> <i_m_source_file_index>
232

> <i_lp_mmshare_version>
43012

> <i_f3d_flags>
0

> <s_epik_input>
W0NIM11bQ0gyXVtDQEBIXTFbQ0gyXVtDSDJdW0NAQEhdKFtDSDNdKU4xYyhuW2NIXW4yKWMoYzIzKW5bY0hdbjNbQ0gyXVtDQEhdKFtPSF0pW0NAQEhdNFtDSDJdW0NIMl1bQ0gyXU80

> <s_epik_cmdline>
J2VwaWtfcHl0aG9uJywgJy1waCcsICc3LjAnLCAnLXRuJywgJzgnLCAnLW1hJywgJzIwMCcsICctbWV0YWxfYmluZGluZycsICctaW1hZScsICc8aW5maWxlLm1hZT4nLCAnLW9tYWUnLCAnPG91dGZpbGUubWFlPic=

> <r_lp_tautomer_probability>
1

> <r_epik_Ionization_Penalty>
0.00258048

> <r_epik_Ionization_Penalty_Charging>
0

> <r_epik_Ionization_Penalty_Neutral>
0.00258048

> <r_epik_State_Penalty>
0.00168551

> <r_epik_Charging_Adjusted_Penalty>
0.00168551

> <i_epik_Tot_Q>
0

> <i_epik_Tot_abs_Q>
0

> <r_epik_Metal_State_Penalty>
-0

> <b_epik_Metal_Only>
0

> <s_lp_Force_Field>
OPLS_2005

> <r_lp_Energy>
54.3711

> <b_lp_Chiralities_Consistent>
1

> <s_lp_Variant>
AV-unprocessed.smi:232-2

> <Gold.Version>
5.8.1

> <Gold.Id.Protein>
6NUR|6NUR_protein|mol2

> <Gold.PLP.Fitness>
47.0684

> <Gold.PLP.PLP>
-43.2816

> <Gold.PLP.part.hbond>
-4.0000

> <Gold.PLP.part.metal>
0.0000

> <Gold.PLP.part.buried>
-0.9219

> <Gold.PLP.part.nonpolar>
-39.6015

> <Gold.PLP.part.repulsive>
0.8022

> <Gold.PLP.ligand.clash>
0.0000

> <Gold.PLP.ligand.torsion>
2.5927

> <Gold.PLP.Chemscore.Hbond>
2.8160

> <Gold.PLP.Chemscore.CHOScore>
0.1466

> <Gold.PLP.Chemscore.Metal>
0.0000

> <Gold.Chemscore.Hbonds>
donor molecule, donor type, donor heavy atom, donor atom, acceptor molecule, acceptor atom, score
      L1  H    20    45       P1  7957  0.96
      P1  H  7989  7998       L1    12  0.80
      P1  H  7997  8009       L1    10  1.00
      L1  C    16    41       P1  8028  0.09

> <Gold.PLP.Chemscore.Internal.Correction>
0.0844

> <Gold.Rescore>
     Score         DG    S(hbond)    S(metal)    S(lipo)     H(rot)  DE(clash)    DE(int)     intcor
     11.08     -17.53       1.79        0.00     104.97       2.43       1.47       4.98       ----

> <Gold.Chemscore.Fitness>
11.0792

> <Gold.Chemscore.DG>
-17.5302

> <Gold.Chemscore.ZeroCoef>
-5.4800

> <Gold.Chemscore.Hbond>
1.7901

> <Gold.Chemscore.Metal>
0.0000

> <Gold.Chemscore.Lipo>
104.9741

> <Gold.Chemscore.Internal_Hbond>
0.0000

> <Gold.Chemscore.DEClash>
1.4749

> <Gold.Chemscore.DEInternal>
4.9761

> <Gold.Chemscore.Rot>
2.4260

> <Gold.Chemscore.Internal.Correction>
   9.000000E+99

> <Gold.Chemscore.Hbonds>
donor molecule, donor type, donor heavy atom, donor atom, acceptor molecule, acceptor atom, score
      L1  H    20    45       P1  7957  0.92
      P1  H  7989  7998       L1    12  0.06
      P1  H  7997  8009       L1    10  0.49

> <Gold.Chemscore.Hbond.Weighted>
-5.9789

> <Gold.Chemscore.Metal.Weighted>
-0.0000

> <Gold.Chemscore.Lipo.Weighted>
-12.2820

> <Gold.Chemscore.Internal_Hbond.Weighted>
0.0000

> <Gold.Chemscore.DEClash.Weighted>
1.4749

> <Gold.Chemscore.DEInternal.Weighted>
4.9761

> <Gold.Chemscore.Rot.Weighted>
6.2107

> <Gold.Chemscore.Internal.Correction.Weighted>
   9.000000E+99

> <Gold.Protein.RotatedTorsions>
[ 6907 6896 6895 6894 ] final -147.10 input  -60.11 | X-H torsion
[ 7974 7965 7964 7962 ] final  -34.05 input  175.53 | X-H torsion
[ 8008 7997 7996 7995 ] final -173.81 input   59.86 | X-H torsion
[ 10167 10162 10161 10158 ] final -155.21 input  -65.29 | X-H torsion
[ 10718 10713 10712 10709 ] final   74.99 input   66.30 | X-H torsion
[ 10763 10752 10751 10750 ] final   50.42 input  -60.55 | X-H torsion
[ 11005 11000 10999 10996 ] final   20.44 input  -57.11 | X-H torsion

> <Gold.Protein.ActiveResidues>
 VAL166  LYS551  ARG553  GLY616  TRP617  ASP618  TYR619  PRO620  LYS621  CYS622 
 ASP623  PHE694  ASN695  SER759  ASP760  ASP761  ALA762  ILE779  LEU786  VAL792 
 PHE793  MET794  SER795  GLU796  ALA797  LYS798  CYS799  TRP800  GLU811  SER814 

> <Gold.Protein.RotatedAtoms>
  151.1510  133.4907  159.2595 H   0  0  0  0  0  0  0  0  0  0  0  0  # atno 6907 bound_to 6896
  151.1554  135.0247  159.8697 H   0  0  0  0  0  0  0  0  0  0  0  0  # atno 6908 bound_to 6896
  152.5463  134.1389  159.8524 H   0  0  0  0  0  0  0  0  0  0  0  0  # atno 6909 bound_to 6896
  146.0861  140.5991  142.8886 H   0  0  0  0  0  0  0  0  0  0  0  0  # atno 7974 bound_to 7965
  155.9621  140.1146  157.0886 H   0  0  0  0  0  0  0  0  0  0  0  0  # atno 8008 bound_to 7997
  154.4135  140.1180  156.5260 H   0  0  0  0  0  0  0  0  0  0  0  0  # atno 8009 bound_to 7997
  155.6706  140.3473  155.4819 H   0  0  0  0  0  0  0  0  0  0  0  0  # atno 8010 bound_to 7997
  139.6949  143.9358  152.2402 H   0  0  0  0  0  0  0  0  0  0  0  0  # atno 10167 bound_to 10162
  157.6616  130.9705  150.1290 H   0  0  0  0  0  0  0  0  0  0  0  0  # atno 10718 bound_to 10713
  152.9785  135.5879  154.4250 H   0  0  0  0  0  0  0  0  0  0  0  0  # atno 10763 bound_to 10752
  154.3870  135.2767  155.2179 H   0  0  0  0  0  0  0  0  0  0  0  0  # atno 10764 bound_to 10752
  154.4068  135.6091  153.5984 H   0  0  0  0  0  0  0  0  0  0  0  0  # atno 10765 bound_to 10752
  140.4026  134.1702  155.7664 H   0  0  0  0  0  0  0  0  0  0  0  0  # atno 11005 bound_to 11000
  144.7327  140.4718  143.6926 LP  0  0  0  0  0  0  0  0  0  0  0  0  # atno 17320 bound_to 7965
  145.6127  139.1515  143.3067 LP  0  0  0  0  0  0  0  0  0  0  0  0  # atno 17321 bound_to 7965
  139.9185  144.6814  150.8487 LP  0  0  0  0  0  0  0  0  0  0  0  0  # atno 17342 bound_to 10162
  140.7693  143.3392  151.2244 LP  0  0  0  0  0  0  0  0  0  0  0  0  # atno 17343 bound_to 10162
  156.2142  130.3669  149.8634 LP  0  0  0  0  0  0  0  0  0  0  0  0  # atno 17370 bound_to 10713
  156.6504  130.8741  151.3530 LP  0  0  0  0  0  0  0  0  0  0  0  0  # atno 17371 bound_to 10713
  141.1851  133.8330  157.1116 LP  0  0  0  0  0  0  0  0  0  0  0  0  # atno 17394 bound_to 11000
  140.0325  134.9894  157.0808 LP  0  0  0  0  0  0  0  0  0  0  0  0  # atno 17395 bound_to 11000

$$$$
