AV-unprocessed.smi:1047|AV-procd|sdf|4565|dock5
  -GOLD-   22720 3 13D 1   1.00000     0.00000
 Structure written by MMmdl.
 57 59  0  0  0  0  0  0  0  0  3 V2000
  143.7421  133.4425  151.0772 C   0  0  0  0  0  0  0  0  0  0  0  0
  144.0977  134.8826  150.6819 C   0  0  0  0  0  0  0  0  0  0  0  0
  145.5662  135.1116  150.6230 N   0  3  2  0  0  0  0  0  0  0  0  0
  146.3215  134.3792  151.6685 C   0  0  0  0  0  0  0  0  0  0  0  0
  146.2159  135.0887  153.0300 C   0  0  0  0  0  0  0  0  0  0  0  0
  146.6760  136.4289  152.9012 O   0  0  0  0  0  0  0  0  0  0  0  0
  145.8923  137.1936  151.9902 C   0  0  1  0  0  0  0  0  0  0  0  0
  146.4413  138.6285  151.9803 C   0  0  0  0  0  0  0  0  0  0  0  0
  147.7931  138.6918  152.5719 N   0  3  0  0  0  0  0  0  0  0  0  0
  147.8040  138.6935  154.0481 C   0  0  0  0  0  0  0  0  0  0  0  0
  149.2002  139.0412  154.5983 C   0  0  1  0  0  0  0  0  0  0  0  0
  149.9985  139.5115  153.5293 O   0  0  0  0  0  0  0  0  0  0  0  0
  149.1759  140.1033  155.7195 C   0  0  0  0  0  0  0  0  0  0  0  0
  150.4313  140.2133  156.4451 N   0  0  0  0  0  0  0  0  0  0  0  0
  151.5074  139.4102  156.3337 C   0  0  0  0  0  0  0  0  0  0  0  0
  152.5624  139.6962  157.0906 N   0  0  0  0  0  0  0  0  0  0  0  0
  152.1172  140.8102  157.7806 C   0  0  0  0  0  0  0  0  0  0  0  0
  152.7640  141.6066  158.7505 C   0  0  0  0  0  0  0  0  0  0  0  0
  152.1094  142.7159  159.3315 C   0  0  0  0  0  0  0  0  0  0  0  0
  152.8427  143.5442  160.3717 C   0  0  0  0  0  0  0  0  0  0  0  0
  150.7851  143.0423  158.9442 C   0  0  0  0  0  0  0  0  0  0  0  0
  150.0610  144.2281  159.5568 C   0  0  0  0  0  0  0  0  0  0  0  0
  150.1237  142.2567  157.9773 C   0  0  0  0  0  0  0  0  0  0  0  0
  150.7867  141.1568  157.4040 C   0  0  0  0  0  0  0  0  0  0  0  0
  145.9770  136.5396  150.5923 C   0  0  0  0  0  0  0  0  0  0  0  0
  142.6652  133.3384  151.2111 H   0  0  0  0  0  0  0  0  0  0  0  0
  144.2180  133.1624  152.0174 H   0  0  0  0  0  0  0  0  0  0  0  0
  144.0419  132.7208  150.3183 H   0  0  0  0  0  0  0  0  0  0  0  0
  143.6214  135.1464  149.7379 H   0  0  0  0  0  0  0  0  0  0  0  0
  143.6676  135.5445  151.4348 H   0  0  0  0  0  0  0  0  0  0  0  0
  145.9804  133.3457  151.7412 H   0  0  0  0  0  0  0  0  0  0  0  0
  147.3689  134.3339  151.3670 H   0  0  0  0  0  0  0  0  0  0  0  0
  145.1928  135.0734  153.4086 H   0  0  0  0  0  0  0  0  0  0  0  0
  146.8330  134.5754  153.7675 H   0  0  0  0  0  0  0  0  0  0  0  0
  144.8555  137.2172  152.3292 H   0  0  0  0  0  0  0  0  0  0  0  0
  146.4683  139.0152  150.9603 H   0  0  0  0  0  0  0  0  0  0  0  0
  145.7819  139.2815  152.5534 H   0  0  0  0  0  0  0  0  0  0  0  0
  148.3330  137.9027  152.2467 H   0  0  0  0  0  0  0  0  0  0  0  0
  147.0571  139.3991  154.4153 H   0  0  0  0  0  0  0  0  0  0  0  0
  147.5078  137.7031  154.3955 H   0  0  0  0  0  0  0  0  0  0  0  0
  149.6691  138.1391  154.9934 H   0  0  0  0  0  0  0  0  0  0  0  0
  149.4707  139.5338  152.7449 H   0  0  0  0  0  0  0  0  0  0  0  0
  148.9400  141.0804  155.2967 H   0  0  0  0  0  0  0  0  0  0  0  0
  148.3813  139.8829  156.4339 H   0  0  0  0  0  0  0  0  0  0  0  0
  151.5195  138.5713  155.6530 H   0  0  0  0  0  0  0  0  0  0  0  0
  153.7724  141.3569  159.0464 H   0  0  0  0  0  0  0  0  0  0  0  0
  152.2993  143.5387  161.3168 H   0  0  0  0  0  0  0  0  0  0  0  0
  152.9443  144.5764  160.0359 H   0  0  0  0  0  0  0  0  0  0  0  0
  153.8433  143.1535  160.5596 H   0  0  0  0  0  0  0  0  0  0  0  0
  149.0602  144.3425  159.1394 H   0  0  0  0  0  0  0  0  0  0  0  0
  150.6097  145.1513  159.3681 H   0  0  0  0  0  0  0  0  0  0  0  0
  149.9611  144.0985  160.6346 H   0  0  0  0  0  0  0  0  0  0  0  0
  149.1142  142.4940  157.6769 H   0  0  0  0  0  0  0  0  0  0  0  0
  147.0077  136.5817  150.2374 H   0  0  0  0  0  0  0  0  0  0  0  0
  145.3881  137.1002  149.8675 H   0  0  0  0  0  0  0  0  0  0  0  0
  148.2413  139.5415  152.2577 H   0  0  0  0  0  0  0  0  0  0  0  0
  145.8573  134.7090  149.7430 H   0  0  0  0  0  0  0  0  0  0  0  0
  1  2  1  0  0  0  0
  1 26  1  0  0  0  0
  1 27  1  0  0  0  0
  1 28  1  0  0  0  0
  2  3  1  0  0  0  0
  2 29  1  0  0  0  0
  2 30  1  0  0  0  0
  3 25  1  0  0  0  0
  3  4  1  0  0  0  0
  3 57  1  0  0  0  0
  4  5  1  0  0  0  0
  4 31  1  0  0  0  0
  4 32  1  0  0  0  0
  5  6  1  0  0  0  0
  5 33  1  0  0  0  0
  5 34  1  0  0  0  0
  6  7  1  0  0  0  0
  7  8  1  0  0  0  0
  7 25  1  0  0  0  0
  7 35  1  0  0  0  0
  8  9  1  0  0  0  0
  8 36  1  0  0  0  0
  8 37  1  0  0  0  0
  9 10  1  0  0  0  0
  9 38  1  0  0  0  0
  9 56  1  0  0  0  0
 10 11  1  0  0  0  0
 10 39  1  0  0  0  0
 10 40  1  0  0  0  0
 11 12  1  0  0  0  0
 11 13  1  0  0  0  0
 11 41  1  0  0  0  0
 12 42  1  0  0  0  0
 13 14  1  0  0  0  0
 13 43  1  0  0  0  0
 13 44  1  0  0  0  0
 14 24  1  0  0  0  0
 14 15  1  0  0  0  0
 15 16  2  0  0  0  0
 15 45  1  0  0  0  0
 16 17  1  0  0  0  0
 17 24  2  0  0  0  0
 17 18  1  0  0  0  0
 18 19  2  0  0  0  0
 18 46  1  0  0  0  0
 19 20  1  0  0  0  0
 19 21  1  0  0  0  0
 20 47  1  0  0  0  0
 20 48  1  0  0  0  0
 20 49  1  0  0  0  0
 21 22  1  0  0  0  0
 21 23  2  0  0  0  0
 22 50  1  0  0  0  0
 22 51  1  0  0  0  0
 22 52  1  0  0  0  0
 23 24  1  0  0  0  0
 23 53  1  0  0  0  0
 25 54  1  0  0  0  0
 25 55  1  0  0  0  0
M  CHG  1   3   1
M  CHG  1   9   1
M  END
> <s_m_source_file>
AV-unprocessed.smi

> <i_m_source_file_index>
1047

> <i_lp_mmshare_version>
43012

> <i_f3d_flags>
0

> <s_epik_input>
W0NIM11bQ0gyXU4xW0NIMl1bQ0gyXU9bQ0BIXShbQ0gyXTEpW0NIMl1bTkhdW0NIMl1bQ0BIXShbT0hdKVtDSDJdbihbY0hdbjIpYyhjMjMpW2NIXWMoW0NIM10pYyhbY0hdMylbQ0gzXQ==

> <s_epik_cmdline>
J2VwaWtfcHl0aG9uJywgJy1waCcsICc3LjAnLCAnLXRuJywgJzgnLCAnLW1hJywgJzIwMCcsICctbWV0YWxfYmluZGluZycsICctaW1hZScsICc8aW5maWxlLm1hZT4nLCAnLW9tYWUnLCAnPG91dGZpbGUubWFlPic=

> <r_epik_Ionization_Penalty>
0.528991

> <r_epik_Ionization_Penalty_Charging>
0.438567

> <r_epik_Ionization_Penalty_Neutral>
0.0904237

> <r_epik_State_Penalty>
0.533036

> <r_epik_Charging_Adjusted_Penalty>
0.971603

> <i_epik_Tot_Q>
2

> <i_epik_Tot_abs_Q>
2

> <r_epik_Metal_State_Penalty>
0.448985

> <b_epik_Metal_Only>
0

> <s_lp_Force_Field>
OPLS_2005

> <r_lp_Energy>
30.0062

> <b_lp_Chiralities_Consistent>
1

> <s_lp_Variant>
AV-unprocessed.smi:1047-6

> <Gold.Version>
5.8.1

> <Gold.Id.Protein>
6NUR|6NUR_protein|mol2

> <Gold.PLP.Fitness>
55.5518

> <Gold.PLP.PLP>
-39.8328

> <Gold.PLP.part.hbond>
-5.6674

> <Gold.PLP.part.metal>
0.0000

> <Gold.PLP.part.buried>
-0.4844

> <Gold.PLP.part.nonpolar>
-36.8773

> <Gold.PLP.part.repulsive>
4.3833

> <Gold.PLP.ligand.clash>
0.0000

> <Gold.PLP.ligand.torsion>
1.7302

> <Gold.PLP.Chemscore.Hbond>
6.3207

> <Gold.PLP.Chemscore.CHOScore>
0.0000

> <Gold.PLP.Chemscore.Metal>
0.0000

> <Gold.Chemscore.Hbonds>
donor molecule, donor type, donor heavy atom, donor atom, acceptor molecule, acceptor atom, score
      L1  H     3    57       P1  7921  0.76
      L1  H     9    38       P1  7948  2.00
      L1  H     9    56       P1  7957  0.77
      L1  H    12    42       P1  7957  0.77
      P1  H  7989  7998       L1    12  0.64
      P1  H  7997  8010       L1    16  1.00

> <Gold.PLP.Chemscore.Internal.Correction>
0.2172

> <Gold.Rescore>
     Score         DG    S(hbond)    S(metal)    S(lipo)     H(rot)  DE(clash)    DE(int)     intcor
     23.24     -29.06       4.79        0.00     123.88       2.70       2.71       3.11       ----

> <Gold.Chemscore.Fitness>
23.2432

> <Gold.Chemscore.DG>
-29.0564

> <Gold.Chemscore.ZeroCoef>
-5.4800

> <Gold.Chemscore.Hbond>
4.7878

> <Gold.Chemscore.Metal>
0.0000

> <Gold.Chemscore.Lipo>
123.8752

> <Gold.Chemscore.Internal_Hbond>
0.0000

> <Gold.Chemscore.DEClash>
2.7059

> <Gold.Chemscore.DEInternal>
3.1073

> <Gold.Chemscore.Rot>
2.6985

> <Gold.Chemscore.Internal.Correction>
   9.000000E+99

> <Gold.Chemscore.Hbonds>
donor molecule, donor type, donor heavy atom, donor atom, acceptor molecule, acceptor atom, score
      L1  H     3    57       P1  7921  0.58
      L1  H     9    38       P1  7948  1.00
      L1  H     9    56       P1  7957  0.76
      L1  H    12    42       P1  7957  0.76
      P1  H  7989  7998       L1    12  0.51
      P1  H  7997  8010       L1    16  0.50

> <Gold.Chemscore.Hbond.Weighted>
-15.9911

> <Gold.Chemscore.Metal.Weighted>
-0.0000

> <Gold.Chemscore.Lipo.Weighted>
-14.4934

> <Gold.Chemscore.Internal_Hbond.Weighted>
0.0000

> <Gold.Chemscore.DEClash.Weighted>
2.7059

> <Gold.Chemscore.DEInternal.Weighted>
3.1073

> <Gold.Chemscore.Rot.Weighted>
6.9081

> <Gold.Chemscore.Internal.Correction.Weighted>
   9.000000E+99

> <Gold.Protein.RotatedTorsions>
[ 6907 6896 6895 6894 ] final -158.96 input  -60.11 | X-H torsion
[ 7974 7965 7964 7962 ] final -176.23 input  175.53 | X-H torsion
[ 8008 7997 7996 7995 ] final   61.91 input   59.86 | X-H torsion
[ 10167 10162 10161 10158 ] final  111.15 input  -65.29 | X-H torsion
[ 10718 10713 10712 10709 ] final   10.28 input   66.30 | X-H torsion
[ 10763 10752 10751 10750 ] final    3.85 input  -60.55 | X-H torsion
[ 11005 11000 10999 10996 ] final  -45.10 input  -57.11 | X-H torsion

> <Gold.Protein.ActiveResidues>
 VAL166  LYS551  ARG553  GLY616  TRP617  ASP618  TYR619  PRO620  LYS621  CYS622 
 ASP623  PHE694  ASN695  SER759  ASP760  ASP761  ALA762  ILE779  LEU786  VAL792 
 PHE793  MET794  SER795  GLU796  ALA797  LYS798  CYS799  TRP800  GLU811  SER814 

> <Gold.Protein.RotatedAtoms>
  151.3262  133.4019  159.2658 H   0  0  0  0  0  0  0  0  0  0  0  0  # atno 6907 bound_to 6896
  150.9993  134.9310  159.7955 H   0  0  0  0  0  0  0  0  0  0  0  0  # atno 6908 bound_to 6896
  152.5270  134.3227  159.9206 H   0  0  0  0  0  0  0  0  0  0  0  0  # atno 6909 bound_to 6896
  144.7127  140.1202  143.6405 H   0  0  0  0  0  0  0  0  0  0  0  0  # atno 7974 bound_to 7965
  155.6059  140.3494  155.4608 H   0  0  0  0  0  0  0  0  0  0  0  0  # atno 8008 bound_to 7997
  156.0192  140.1250  157.0399 H   0  0  0  0  0  0  0  0  0  0  0  0  # atno 8009 bound_to 7997
  154.4309  140.1066  156.5925 H   0  0  0  0  0  0  0  0  0  0  0  0  # atno 8010 bound_to 7997
  139.6633  144.7128  151.1824 H   0  0  0  0  0  0  0  0  0  0  0  0  # atno 10167 bound_to 10162
  156.9787  130.5997  149.5675 H   0  0  0  0  0  0  0  0  0  0  0  0  # atno 10718 bound_to 10713
  153.2783  135.6938  153.7411 H   0  0  0  0  0  0  0  0  0  0  0  0  # atno 10763 bound_to 10752
  153.6408  135.3393  155.3071 H   0  0  0  0  0  0  0  0  0  0  0  0  # atno 10764 bound_to 10752
  154.8487  135.4431  154.1828 H   0  0  0  0  0  0  0  0  0  0  0  0  # atno 10765 bound_to 10752
  141.0493  133.6749  156.2965 H   0  0  0  0  0  0  0  0  0  0  0  0  # atno 11005 bound_to 11000
  145.9378  139.2648  143.1287 LP  0  0  0  0  0  0  0  0  0  0  0  0  # atno 17320 bound_to 7965
  145.9456  140.8947  143.0285 LP  0  0  0  0  0  0  0  0  0  0  0  0  # atno 17321 bound_to 7965
  140.7589  143.5959  150.8748 LP  0  0  0  0  0  0  0  0  0  0  0  0  # atno 17342 bound_to 10162
  139.9619  143.6154  152.3000 LP  0  0  0  0  0  0  0  0  0  0  0  0  # atno 17343 bound_to 10162
  156.0253  130.5347  150.8389 LP  0  0  0  0  0  0  0  0  0  0  0  0  # atno 17370 bound_to 10713
  157.5541  131.0944  150.9653 LP  0  0  0  0  0  0  0  0  0  0  0  0  # atno 17371 bound_to 10713
  140.6086  134.5482  157.5530 LP  0  0  0  0  0  0  0  0  0  0  0  0  # atno 17394 bound_to 11000
  139.9337  134.7915  156.0860 LP  0  0  0  0  0  0  0  0  0  0  0  0  # atno 17395 bound_to 11000

$$$$
