AV-unprocessed.smi:2009|AV-procd|sdf|8148|dock5
  -GOLD-   2272010393D 1   1.00000     0.00000
 Structure written by MMmdl.
 37 38  0  0  0  0  0  0  0  0  2 V2000
  151.2025  138.4056  155.3965 C   0  0  0  0  0  0  0  0  0  0  0  0
  151.1042  139.9295  155.2443 C   0  0  1  0  0  0  0  0  0  0  0  0
  149.6763  140.4514  155.5423 C   0  0  0  0  0  0  0  0  0  0  0  0
  148.6942  140.1307  154.5099 N   0  0  0  0  0  0  0  0  0  0  0  0
  147.7907  140.9737  153.8904 C   0  0  0  0  0  0  0  0  0  0  0  0
  147.0717  140.2254  153.0036 C   0  0  0  0  0  0  0  0  0  0  0  0
  147.6035  138.9153  153.1595 C   0  0  0  0  0  0  0  0  0  0  0  0
  148.5657  138.8579  154.0658 N   0  0  0  0  0  0  0  0  0  0  0  0
  152.0576  140.5549  156.1504 N   0  5  0  0  0  0  0  0  0  0  0  0
  151.9991  140.2067  157.7330 S   0  0  0  0  0  0  0  0  0  0  0  0
  150.6758  139.7518  158.1896 O   0  0  0  0  0  0  0  0  0  0  0  0
  153.1799  139.4592  158.1962 O   0  0  0  0  0  0  0  0  0  0  0  0
  152.1786  141.8312  158.3278 N   0  0  0  0  0  0  0  0  0  0  0  0
  152.4047  141.9919  159.7795 C   0  0  0  0  0  0  0  0  0  0  0  0
  152.9306  143.3969  160.1187 C   0  0  0  0  0  0  0  0  0  0  0  0
  152.0033  144.4857  159.5736 C   0  0  0  0  0  0  0  0  0  0  0  0
  151.8293  144.2883  158.0660 C   0  0  0  0  0  0  0  0  0  0  0  0
  151.3066  142.8783  157.7466 C   0  0  0  0  0  0  0  0  0  0  0  0
  150.5098  137.9010  154.7227 H   0  0  0  0  0  0  0  0  0  0  0  0
  150.9660  138.0899  156.4134 H   0  0  0  0  0  0  0  0  0  0  0  0
  152.2064  138.0501  155.1607 H   0  0  0  0  0  0  0  0  0  0  0  0
  151.3297  140.1610  154.2022 H   0  0  0  0  0  0  0  0  0  0  0  0
  149.3235  140.0326  156.4860 H   0  0  0  0  0  0  0  0  0  0  0  0
  149.6881  141.5338  155.6788 H   0  0  0  0  0  0  0  0  0  0  0  0
  147.7463  142.0273  154.1250 H   0  0  0  0  0  0  0  0  0  0  0  0
  146.2869  140.5635  152.3435 H   0  0  0  0  0  0  0  0  0  0  0  0
  147.3185  138.0092  152.6457 H   0  0  0  0  0  0  0  0  0  0  0  0
  151.4702  141.7958  160.3067 H   0  0  0  0  0  0  0  0  0  0  0  0
  153.1254  141.2527  160.1279 H   0  0  0  0  0  0  0  0  0  0  0  0
  153.0348  143.5031  161.1987 H   0  0  0  0  0  0  0  0  0  0  0  0
  153.9297  143.5225  159.6987 H   0  0  0  0  0  0  0  0  0  0  0  0
  151.0343  144.4351  160.0716 H   0  0  0  0  0  0  0  0  0  0  0  0
  152.4157  145.4733  159.7814 H   0  0  0  0  0  0  0  0  0  0  0  0
  151.1429  145.0366  157.6692 H   0  0  0  0  0  0  0  0  0  0  0  0
  152.7839  144.4450  157.5616 H   0  0  0  0  0  0  0  0  0  0  0  0
  151.2378  142.7623  156.6657 H   0  0  0  0  0  0  0  0  0  0  0  0
  150.2961  142.7515  158.1368 H   0  0  0  0  0  0  0  0  0  0  0  0
  1  2  1  0  0  0  0
  1 19  1  0  0  0  0
  1 20  1  0  0  0  0
  1 21  1  0  0  0  0
  2  3  1  0  0  0  0
  2  9  1  0  0  0  0
  2 22  1  0  0  0  0
  3  4  1  0  0  0  0
  3 23  1  0  0  0  0
  3 24  1  0  0  0  0
  4  8  1  0  0  0  0
  4  5  1  0  0  0  0
  5  6  2  0  0  0  0
  5 25  1  0  0  0  0
  6  7  1  0  0  0  0
  6 26  1  0  0  0  0
  7  8  2  0  0  0  0
  7 27  1  0  0  0  0
  9 10  1  0  0  0  0
 10 11  2  0  0  0  0
 10 12  2  0  0  0  0
 10 13  1  0  0  0  0
 13 18  1  0  0  0  0
 13 14  1  0  0  0  0
 14 15  1  0  0  0  0
 14 28  1  0  0  0  0
 14 29  1  0  0  0  0
 15 16  1  0  0  0  0
 15 30  1  0  0  0  0
 15 31  1  0  0  0  0
 16 17  1  0  0  0  0
 16 32  1  0  0  0  0
 16 33  1  0  0  0  0
 17 18  1  0  0  0  0
 17 34  1  0  0  0  0
 17 35  1  0  0  0  0
 18 36  1  0  0  0  0
 18 37  1  0  0  0  0
M  CHG  1   9  -1
M  END
> <s_m_source_file>
AV-unprocessed.smi

> <i_m_source_file_index>
2009

> <i_lp_mmshare_version>
43012

> <i_f3d_flags>
0

> <s_epik_input>
bjFbY0hdW2NIXVtjSF1uMVtDSDJdW0NAQEhdKFtDSDNdKVtOSF1TKD1PKSg9TylOMltDSDJdW0NIMl1bQ0gyXVtDSDJdW0NIMl0y

> <s_epik_cmdline>
J2VwaWtfcHl0aG9uJywgJy1waCcsICc3LjAnLCAnLXRuJywgJzgnLCAnLW1hJywgJzIwMCcsICctbWV0YWxfYmluZGluZycsICctaW1hZScsICc8aW5maWxlLm1hZT4nLCAnLW9tYWUnLCAnPG91dGZpbGUubWFlPic=

> <r_lp_tautomer_probability>
1

> <r_epik_Ionization_Penalty>
1.75622

> <r_epik_Ionization_Penalty_Charging>
1.7562

> <r_epik_Ionization_Penalty_Neutral>
2.38826e-05

> <r_epik_State_Penalty>
1.86645

> <r_epik_Charging_Adjusted_Penalty>
3.62264

> <i_epik_Tot_Q>
-1

> <i_epik_Tot_abs_Q>
1

> <r_epik_Metal_State_Penalty>
0.460135

> <b_epik_Metal_Only>
0

> <s_lp_Force_Field>
OPLS_2005

> <r_lp_Energy>
6.21629

> <b_lp_Chiralities_Consistent>
1

> <s_lp_Variant>
AV-unprocessed.smi:2009-4

> <Gold.Version>
5.8.1

> <Gold.Id.Protein>
6NUR|6NUR_protein|mol2

> <Gold.PLP.Fitness>
39.9665

> <Gold.PLP.PLP>
-34.9069

> <Gold.PLP.part.hbond>
-1.4263

> <Gold.PLP.part.metal>
0.0000

> <Gold.PLP.part.buried>
2.1397

> <Gold.PLP.part.nonpolar>
-35.5135

> <Gold.PLP.part.repulsive>
0.1950

> <Gold.PLP.ligand.clash>
0.0000

> <Gold.PLP.ligand.torsion>
1.0854

> <Gold.PLP.Chemscore.Hbond>
1.0000

> <Gold.PLP.Chemscore.CHOScore>
0.8769

> <Gold.PLP.Chemscore.Metal>
0.0000

> <Gold.Chemscore.Hbonds>
donor molecule, donor type, donor heavy atom, donor atom, acceptor molecule, acceptor atom, score
      P1  H  7997  8010       L1    12  1.00
      L1  C     7    27       P1  7948  0.89

> <Gold.PLP.Chemscore.Internal.Correction>
1.5996

> <Gold.Rescore>
     Score         DG    S(hbond)    S(metal)    S(lipo)     H(rot)  DE(clash)    DE(int)     intcor
     12.14     -15.70       0.78        0.00      99.35       1.57       0.64       2.92       ----

> <Gold.Chemscore.Fitness>
12.1392

> <Gold.Chemscore.DG>
-15.7014

> <Gold.Chemscore.ZeroCoef>
-5.4800

> <Gold.Chemscore.Hbond>
0.7811

> <Gold.Chemscore.Metal>
0.0000

> <Gold.Chemscore.Lipo>
99.3540

> <Gold.Chemscore.Internal_Hbond>
0.0000

> <Gold.Chemscore.DEClash>
0.6444

> <Gold.Chemscore.DEInternal>
2.9178

> <Gold.Chemscore.Rot>
1.5672

> <Gold.Chemscore.Internal.Correction>
   9.000000E+99

> <Gold.Chemscore.Hbonds>
donor molecule, donor type, donor heavy atom, donor atom, acceptor molecule, acceptor atom, score
      P1  H  7997  8010       L1    12  0.39

> <Gold.Chemscore.Hbond.Weighted>
-2.6089

> <Gold.Chemscore.Metal.Weighted>
-0.0000

> <Gold.Chemscore.Lipo.Weighted>
-11.6244

> <Gold.Chemscore.Internal_Hbond.Weighted>
0.0000

> <Gold.Chemscore.DEClash.Weighted>
0.6444

> <Gold.Chemscore.DEInternal.Weighted>
2.9178

> <Gold.Chemscore.Rot.Weighted>
4.0119

> <Gold.Chemscore.Internal.Correction.Weighted>
   9.000000E+99

> <Gold.Protein.RotatedTorsions>
[ 6907 6896 6895 6894 ] final  144.85 input  -60.11 | X-H torsion
[ 7974 7965 7964 7962 ] final -130.33 input  175.53 | X-H torsion
[ 8008 7997 7996 7995 ] final   37.41 input   59.86 | X-H torsion
[ 10167 10162 10161 10158 ] final  161.80 input  -65.29 | X-H torsion
[ 10718 10713 10712 10709 ] final   61.60 input   66.30 | X-H torsion
[ 10763 10752 10751 10750 ] final  -60.66 input  -60.55 | X-H torsion
[ 11005 11000 10999 10996 ] final -157.91 input  -57.11 | X-H torsion

> <Gold.Protein.ActiveResidues>
 VAL166  LYS551  ARG553  GLY616  TRP617  ASP618  TYR619  PRO620  LYS621  CYS622 
 ASP623  PHE694  ASN695  SER759  ASP760  ASP761  ALA762  ILE779  LEU786  VAL792 
 PHE793  MET794  SER795  GLU796  ALA797  LYS798  CYS799  TRP800  GLU811  SER814 

> <Gold.Protein.RotatedAtoms>
  152.1884  133.4756  159.4994 H   0  0  0  0  0  0  0  0  0  0  0  0  # atno 6907 bound_to 6896
  150.6946  134.1744  159.4233 H   0  0  0  0  0  0  0  0  0  0  0  0  # atno 6908 bound_to 6896
  151.9658  135.0101  160.0601 H   0  0  0  0  0  0  0  0  0  0  0  0  # atno 6909 bound_to 6896
  144.9486  140.7319  143.4802 H   0  0  0  0  0  0  0  0  0  0  0  0  # atno 7974 bound_to 7965
  155.2034  140.3317  155.4340 H   0  0  0  0  0  0  0  0  0  0  0  0  # atno 8008 bound_to 7997
  156.2398  140.1890  156.7069 H   0  0  0  0  0  0  0  0  0  0  0  0  # atno 8009 bound_to 7997
  154.6126  140.0607  156.9499 H   0  0  0  0  0  0  0  0  0  0  0  0  # atno 8010 bound_to 7997
  139.4853  144.4501  151.8841 H   0  0  0  0  0  0  0  0  0  0  0  0  # atno 10167 bound_to 10162
  157.5840  130.9003  149.9481 H   0  0  0  0  0  0  0  0  0  0  0  0  # atno 10718 bound_to 10713
  154.2726  135.6287  153.5316 H   0  0  0  0  0  0  0  0  0  0  0  0  # atno 10763 bound_to 10752
  152.9878  135.5614  154.5583 H   0  0  0  0  0  0  0  0  0  0  0  0  # atno 10764 bound_to 10752
  154.5156  135.2879  155.1281 H   0  0  0  0  0  0  0  0  0  0  0  0  # atno 10765 bound_to 10752
  140.6594  134.4366  157.5234 H   0  0  0  0  0  0  0  0  0  0  0  0  # atno 11005 bound_to 11000
  145.2880  139.1894  143.4756 LP  0  0  0  0  0  0  0  0  0  0  0  0  # atno 17320 bound_to 7965
  146.3312  140.2852  142.8612 LP  0  0  0  0  0  0  0  0  0  0  0  0  # atno 17321 bound_to 7965
  140.3957  144.2558  150.5896 LP  0  0  0  0  0  0  0  0  0  0  0  0  # atno 17342 bound_to 10162
  140.5104  143.2292  151.8543 LP  0  0  0  0  0  0  0  0  0  0  0  0  # atno 17343 bound_to 10162
  156.0887  130.3665  150.0437 LP  0  0  0  0  0  0  0  0  0  0  0  0  # atno 17370 bound_to 10713
  156.8571  130.9479  151.3621 LP  0  0  0  0  0  0  0  0  0  0  0  0  # atno 17371 bound_to 10713
  139.9018  134.8538  156.1864 LP  0  0  0  0  0  0  0  0  0  0  0  0  # atno 17394 bound_to 11000
  141.0477  133.6905  156.1713 LP  0  0  0  0  0  0  0  0  0  0  0  0  # atno 17395 bound_to 11000

$$$$
