AV-unprocessed.smi:2559|AV-procd|sdf|10035|dock3
  -GOLD-   2272014 83D 1   1.00000     0.00000
 Structure written by MMmdl.
 44 46  0  0  0  0  0  0  0  0  1 V2000
  154.0662  137.6058  159.2035 C   0  0  0  0  0  0  0  0  0  0  0  0
  153.2001  138.0374  158.1046 N   0  0  0  0  0  0  0  0  0  0  0  0
  152.7979  137.1379  157.1511 C   0  0  0  0  0  0  0  0  0  0  0  0
  153.1443  135.9570  157.1708 O   0  0  0  0  0  0  0  0  0  0  0  0
  151.9779  137.5923  156.1557 N   0  0  0  0  0  0  0  0  0  0  0  0
  151.4972  138.8486  155.9923 C   0  0  0  0  0  0  0  0  0  0  0  0
  150.7446  139.1649  155.0741 O   0  0  0  0  0  0  0  0  0  0  0  0
  151.9558  139.7835  157.0313 C   0  0  0  0  0  0  0  0  0  0  0  0
  152.7640  139.3919  158.0498 C   0  0  0  0  0  0  0  0  0  0  0  0
  153.0147  140.4449  158.9150 N   0  0  0  0  0  0  0  0  0  0  0  0
  152.3507  141.4607  158.3574 C   0  0  0  0  0  0  0  0  0  0  0  0
  152.3213  142.7433  158.9076 N   0  0  0  0  0  0  0  0  0  0  0  0
  152.6857  143.0364  160.2930 C   0  0  0  0  0  0  0  0  0  0  0  0
  151.6218  143.9089  160.9833 C   0  0  0  0  0  0  0  0  0  0  0  0
  151.4051  145.2185  160.2121 C   0  0  0  0  0  0  0  0  0  0  0  0
  151.1313  144.9188  158.7319 C   0  0  0  0  0  0  0  0  0  0  0  0
  152.2233  143.9977  158.1598 C   0  0  0  0  0  0  0  0  0  0  0  0
  151.6650  141.1376  157.2261 N   0  0  0  0  0  0  0  0  0  0  0  0
  150.7848  141.9904  156.4270 C   0  0  0  0  0  0  0  0  0  0  0  0
  149.3135  141.5281  156.4611 C   0  0  1  0  0  0  0  0  0  0  0  0
  148.5546  142.5821  157.0191 O   0  0  0  0  0  0  0  0  0  0  0  0
  148.7380  141.1778  155.0749 C   0  0  0  0  0  0  0  0  0  0  0  0
  148.8664  142.2776  154.1988 O   0  0  0  0  0  0  0  0  0  0  0  0
  151.6923  136.9112  155.4675 H   0  0  0  0  0  0  0  0  0  0  0  0
  154.9173  137.0329  158.8323 H   0  0  0  0  0  0  0  0  0  0  0  0
  153.5080  136.9770  159.8984 H   0  0  0  0  0  0  0  0  0  0  0  0
  154.4712  138.4458  159.7679 H   0  0  0  0  0  0  0  0  0  0  0  0
  152.8026  142.1030  160.8450 H   0  0  0  0  0  0  0  0  0  0  0  0
  153.6567  143.5330  160.3138 H   0  0  0  0  0  0  0  0  0  0  0  0
  150.6820  143.3588  161.0456 H   0  0  0  0  0  0  0  0  0  0  0  0
  151.9228  144.1251  162.0084 H   0  0  0  0  0  0  0  0  0  0  0  0
  150.5803  145.7848  160.6452 H   0  0  0  0  0  0  0  0  0  0  0  0
  152.2950  145.8433  160.2985 H   0  0  0  0  0  0  0  0  0  0  0  0
  150.1531  144.4492  158.6253 H   0  0  0  0  0  0  0  0  0  0  0  0
  151.0913  145.8489  158.1648 H   0  0  0  0  0  0  0  0  0  0  0  0
  153.1882  144.5043  158.2042 H   0  0  0  0  0  0  0  0  0  0  0  0
  152.0484  143.8001  157.1031 H   0  0  0  0  0  0  0  0  0  0  0  0
  150.8614  143.0150  156.7807 H   0  0  0  0  0  0  0  0  0  0  0  0
  151.1437  142.0340  155.4014 H   0  0  0  0  0  0  0  0  0  0  0  0
  149.2300  140.6621  157.1179 H   0  0  0  0  0  0  0  0  0  0  0  0
  148.4230  143.2420  156.3558 H   0  0  0  0  0  0  0  0  0  0  0  0
  149.2271  140.3000  154.6508 H   0  0  0  0  0  0  0  0  0  0  0  0
  147.6745  140.9513  155.1413 H   0  0  0  0  0  0  0  0  0  0  0  0
  148.8896  143.0706  154.7123 H   0  0  0  0  0  0  0  0  0  0  0  0
  1  2  1  0  0  0  0
  1 25  1  0  0  0  0
  1 26  1  0  0  0  0
  1 27  1  0  0  0  0
  2  9  1  0  0  0  0
  2  3  1  0  0  0  0
  3  4  2  0  0  0  0
  3  5  1  0  0  0  0
  5 24  1  0  0  0  0
  5  6  1  0  0  0  0
  6  7  2  0  0  0  0
  6  8  1  0  0  0  0
  8 18  1  0  0  0  0
  8  9  2  0  0  0  0
  9 10  1  0  0  0  0
 10 11  2  0  0  0  0
 11 12  1  0  0  0  0
 11 18  1  0  0  0  0
 12 17  1  0  0  0  0
 12 13  1  0  0  0  0
 13 14  1  0  0  0  0
 13 28  1  0  0  0  0
 13 29  1  0  0  0  0
 14 15  1  0  0  0  0
 14 30  1  0  0  0  0
 14 31  1  0  0  0  0
 15 16  1  0  0  0  0
 15 32  1  0  0  0  0
 15 33  1  0  0  0  0
 16 17  1  0  0  0  0
 16 34  1  0  0  0  0
 16 35  1  0  0  0  0
 17 36  1  0  0  0  0
 17 37  1  0  0  0  0
 18 19  1  0  0  0  0
 19 20  1  0  0  0  0
 19 38  1  0  0  0  0
 19 39  1  0  0  0  0
 20 21  1  0  0  0  0
 20 22  1  0  0  0  0
 20 40  1  0  0  0  0
 21 41  1  0  0  0  0
 22 23  1  0  0  0  0
 22 42  1  0  0  0  0
 22 43  1  0  0  0  0
 23 44  1  0  0  0  0
M  END
> <s_m_source_file>
AV-unprocessed.smi

> <i_m_source_file_index>
2559

> <i_lp_mmshare_version>
43012

> <i_f3d_flags>
0

> <s_epik_input>
Tz1jMVtuSF1jKD1PKW4oW0NIM10pYyhjMTIpbmMobjJbQ0gyXVtDQEhdKFtPSF0pW0NIMl1bT0hdKU4zW0NIMl1bQ0gyXVtDSDJdW0NIMl1bQ0gyXTM=

> <s_epik_cmdline>
J2VwaWtfcHl0aG9uJywgJy1waCcsICc3LjAnLCAnLXRuJywgJzgnLCAnLW1hJywgJzIwMCcsICctbWV0YWxfYmluZGluZycsICctaW1hZScsICc8aW5maWxlLm1hZT4nLCAnLW9tYWUnLCAnPG91dGZpbGUubWFlPic=

> <r_lp_tautomer_probability>
1

> <r_epik_Ionization_Penalty>
0.0023969

> <r_epik_Ionization_Penalty_Charging>
9.35512e-05

> <r_epik_Ionization_Penalty_Neutral>
0.00230335

> <r_epik_State_Penalty>
-0

> <r_epik_Charging_Adjusted_Penalty>
9.35512e-05

> <i_epik_Tot_Q>
0

> <i_epik_Tot_abs_Q>
0

> <r_epik_Metal_State_Penalty>
0.0757518

> <b_epik_Metal_Only>
0

> <s_lp_Force_Field>
OPLS_2005

> <r_lp_Energy>
42.4748

> <b_lp_Chiralities_Consistent>
1

> <s_lp_Variant>
AV-unprocessed.smi:2559-2

> <Gold.Version>
5.8.1

> <Gold.Id.Protein>
6NUR|6NUR_protein|mol2

> <Gold.PLP.Fitness>
52.2949

> <Gold.PLP.PLP>
-43.6446

> <Gold.PLP.part.hbond>
-4.5924

> <Gold.PLP.part.metal>
0.0000

> <Gold.PLP.part.buried>
-3.3064

> <Gold.PLP.part.nonpolar>
-33.8830

> <Gold.PLP.part.repulsive>
0.1796

> <Gold.PLP.ligand.clash>
0.0000

> <Gold.PLP.ligand.torsion>
1.0715

> <Gold.PLP.Chemscore.Hbond>
3.4021

> <Gold.PLP.Chemscore.CHOScore>
0.0000

> <Gold.PLP.Chemscore.Metal>
0.0000

> <Gold.Chemscore.Hbonds>
donor molecule, donor type, donor heavy atom, donor atom, acceptor molecule, acceptor atom, score
      L1  H    21    41       P1  8028  0.99
      L1  H    23    44       P1  8028  1.00
      P1  H  8011  8017       L1    23  0.23
      P1  H 10752 10764       L1     4  1.00

> <Gold.PLP.Chemscore.Internal.Correction>
0.5871

> <Gold.Rescore>
     Score         DG    S(hbond)    S(metal)    S(lipo)     H(rot)  DE(clash)    DE(int)     intcor
     16.96     -20.40       3.60        0.00      89.68       2.97       0.50       2.94       ----

> <Gold.Chemscore.Fitness>
16.9590

> <Gold.Chemscore.DG>
-20.3976

> <Gold.Chemscore.ZeroCoef>
-5.4800

> <Gold.Chemscore.Hbond>
3.6001

> <Gold.Chemscore.Metal>
0.0000

> <Gold.Chemscore.Lipo>
89.6798

> <Gold.Chemscore.Internal_Hbond>
0.0000

> <Gold.Chemscore.DEClash>
0.4989

> <Gold.Chemscore.DEInternal>
2.9397

> <Gold.Chemscore.Rot>
2.9685

> <Gold.Chemscore.Internal.Correction>
   9.000000E+99

> <Gold.Chemscore.Hbonds>
donor molecule, donor type, donor heavy atom, donor atom, acceptor molecule, acceptor atom, score
      L1  H    21    41       P1  8028  0.66
      L1  H    23    44       P1  8028  1.00
      P1  H  7989  7998       L1     7  0.02
      P1  H  8011  8017       L1    23  0.20
      P1  H 10752 10764       L1     4  0.77

> <Gold.Chemscore.Hbond.Weighted>
-12.0244

> <Gold.Chemscore.Metal.Weighted>
-0.0000

> <Gold.Chemscore.Lipo.Weighted>
-10.4925

> <Gold.Chemscore.Internal_Hbond.Weighted>
0.0000

> <Gold.Chemscore.DEClash.Weighted>
0.4989

> <Gold.Chemscore.DEInternal.Weighted>
2.9397

> <Gold.Chemscore.Rot.Weighted>
7.5994

> <Gold.Chemscore.Internal.Correction.Weighted>
   9.000000E+99

> <Gold.Protein.RotatedTorsions>
[ 6907 6896 6895 6894 ] final   37.37 input  -60.11 | X-H torsion
[ 7974 7965 7964 7962 ] final   -8.96 input  175.53 | X-H torsion
[ 8008 7997 7996 7995 ] final   21.10 input   59.86 | X-H torsion
[ 10167 10162 10161 10158 ] final  -73.63 input  -65.29 | X-H torsion
[ 10718 10713 10712 10709 ] final -111.05 input   66.30 | X-H torsion
[ 10763 10752 10751 10750 ] final    5.26 input  -60.55 | X-H torsion
[ 11005 11000 10999 10996 ] final  -90.46 input  -57.11 | X-H torsion

> <Gold.Protein.ActiveResidues>
 VAL166  LYS551  ARG553  GLY616  TRP617  ASP618  TYR619  PRO620  LYS621  CYS622 
 ASP623  PHE694  ASN695  SER759  ASP760  ASP761  ALA762  ILE779  LEU786  VAL792 
 PHE793  MET794  SER795  GLU796  ALA797  LYS798  CYS799  TRP800  GLU811  SER814 

> <Gold.Protein.RotatedAtoms>
  152.1423  134.9053  160.0552 H   0  0  0  0  0  0  0  0  0  0  0  0  # atno 6907 bound_to 6896
  152.0116  133.3859  159.4230 H   0  0  0  0  0  0  0  0  0  0  0  0  # atno 6908 bound_to 6896
  150.6866  134.3645  159.5009 H   0  0  0  0  0  0  0  0  0  0  0  0  # atno 6909 bound_to 6896
  146.2265  140.2546  142.8349 H   0  0  0  0  0  0  0  0  0  0  0  0  # atno 7974 bound_to 7965
  154.9455  140.3059  155.5100 H   0  0  0  0  0  0  0  0  0  0  0  0  # atno 8008 bound_to 7997
  156.2992  140.2328  156.4466 H   0  0  0  0  0  0  0  0  0  0  0  0  # atno 8009 bound_to 7997
  154.8104  140.0429  157.1327 H   0  0  0  0  0  0  0  0  0  0  0  0  # atno 8010 bound_to 7997
  140.5094  143.2347  151.7619 H   0  0  0  0  0  0  0  0  0  0  0  0  # atno 10167 bound_to 10162
  156.0625  130.5847  150.8320 H   0  0  0  0  0  0  0  0  0  0  0  0  # atno 10718 bound_to 10713
  153.2615  135.6923  153.7574 H   0  0  0  0  0  0  0  0  0  0  0  0  # atno 10763 bound_to 10752
  153.6631  135.3357  155.3133 H   0  0  0  0  0  0  0  0  0  0  0  0  # atno 10764 bound_to 10752
  154.8432  135.4482  154.1607 H   0  0  0  0  0  0  0  0  0  0  0  0  # atno 10765 bound_to 10752
  141.1565  133.7694  156.9741 H   0  0  0  0  0  0  0  0  0  0  0  0  # atno 11005 bound_to 11000
  144.9386  140.8053  143.5645 LP  0  0  0  0  0  0  0  0  0  0  0  0  # atno 17320 bound_to 7965
  145.2495  139.2037  143.4950 LP  0  0  0  0  0  0  0  0  0  0  0  0  # atno 17321 bound_to 7965
  139.4892  144.4412  151.9762 LP  0  0  0  0  0  0  0  0  0  0  0  0  # atno 17342 bound_to 10162
  140.3503  144.3096  150.5950 LP  0  0  0  0  0  0  0  0  0  0  0  0  # atno 17343 bound_to 10162
  157.5644  131.0946  150.9512 LP  0  0  0  0  0  0  0  0  0  0  0  0  # atno 17370 bound_to 10713
  156.9742  130.5502  149.5292 LP  0  0  0  0  0  0  0  0  0  0  0  0  # atno 17371 bound_to 10713
  140.1110  134.9477  157.2065 LP  0  0  0  0  0  0  0  0  0  0  0  0  # atno 17394 bound_to 11000
  140.3194  134.2933  155.7249 LP  0  0  0  0  0  0  0  0  0  0  0  0  # atno 17395 bound_to 11000

$$$$
