AV-unprocessed.smi:2966|AV-procd|sdf|11324|dock6
  -GOLD-   2272016233D 1   1.00000     0.00000
 Structure written by MMmdl.
 40 42  0  0  0  0  0  0  0  0  1 V2000
  151.4504  138.5769  154.6124 C   0  0  0  0  0  0  0  0  0  0  0  0
  151.0130  139.9138  154.7770 O   0  0  0  0  0  0  0  0  0  0  0  0
  151.6252  140.5558  155.8833 C   0  0  0  0  0  0  0  0  0  0  0  0
  151.1303  139.9247  157.1922 C   0  0  0  0  0  0  0  0  0  0  0  0
  151.8080  140.4763  158.3566 N   0  0  0  0  0  0  0  0  0  0  0  0
  152.4600  139.8123  159.3430 C   0  0  0  0  0  0  0  0  0  0  0  0
  152.5992  138.0578  159.3657 S   0  0  0  0  0  0  0  0  0  0  0  0
  153.2778  137.8964  161.0435 C   0  0  0  0  0  0  0  0  0  0  0  0
  153.9456  136.5488  161.3256 C   0  0  0  0  0  0  0  0  0  0  0  0
  154.0105  135.6782  160.4568 O   0  0  0  0  0  0  0  0  0  0  0  0
  154.4389  136.3915  162.5627 N   0  0  0  0  0  0  0  0  0  0  0  0
  155.0959  135.2215  163.0501 C   0  0  0  0  0  0  0  0  0  0  0  0
  154.3655  133.9017  162.9272 C   0  0  0  0  0  0  0  0  0  0  0  0
  154.5177  134.5483  164.2762 C   0  0  0  0  0  0  0  0  0  0  0  0
  152.9939  140.5728  160.2982 N   0  0  0  0  0  0  0  0  0  0  0  0
  152.6656  141.8506  159.8894 C   0  0  0  0  0  0  0  0  0  0  0  0
  152.9500  143.1049  160.4757 C   0  0  0  0  0  0  0  0  0  0  0  0
  152.5061  144.2958  159.8642 C   0  0  0  0  0  0  0  0  0  0  0  0
  151.7719  144.2499  158.6612 C   0  0  0  0  0  0  0  0  0  0  0  0
  151.4763  143.0107  158.0612 C   0  0  0  0  0  0  0  0  0  0  0  0
  151.9224  141.8252  158.6755 C   0  0  0  0  0  0  0  0  0  0  0  0
  150.9473  138.1309  153.7546 H   0  0  0  0  0  0  0  0  0  0  0  0
  151.2163  137.9744  155.4910 H   0  0  0  0  0  0  0  0  0  0  0  0
  152.5254  138.5329  154.4328 H   0  0  0  0  0  0  0  0  0  0  0  0
  152.7103  140.4640  155.8131 H   0  0  0  0  0  0  0  0  0  0  0  0
  151.3871  141.6203  155.8757 H   0  0  0  0  0  0  0  0  0  0  0  0
  150.0589  140.0945  157.3037 H   0  0  0  0  0  0  0  0  0  0  0  0
  151.2642  138.8435  157.1681 H   0  0  0  0  0  0  0  0  0  0  0  0
  154.0017  138.6958  161.2049 H   0  0  0  0  0  0  0  0  0  0  0  0
  152.4708  138.0428  161.7623 H   0  0  0  0  0  0  0  0  0  0  0  0
  154.3405  137.1598  163.2104 H   0  0  0  0  0  0  0  0  0  0  0  0
  156.1797  135.1781  162.9501 H   0  0  0  0  0  0  0  0  0  0  0  0
  153.3747  133.9074  162.4768 H   0  0  0  0  0  0  0  0  0  0  0  0
  154.9636  133.0157  162.7237 H   0  0  0  0  0  0  0  0  0  0  0  0
  155.2175  134.0943  164.9751 H   0  0  0  0  0  0  0  0  0  0  0  0
  153.6287  134.9855  164.7265 H   0  0  0  0  0  0  0  0  0  0  0  0
  153.5125  143.1509  161.3965 H   0  0  0  0  0  0  0  0  0  0  0  0
  152.7312  145.2490  160.3197 H   0  0  0  0  0  0  0  0  0  0  0  0
  151.4367  145.1667  158.1988 H   0  0  0  0  0  0  0  0  0  0  0  0
  150.9153  142.9723  157.1393 H   0  0  0  0  0  0  0  0  0  0  0  0
  1  2  1  0  0  0  0
  1 22  1  0  0  0  0
  1 23  1  0  0  0  0
  1 24  1  0  0  0  0
  2  3  1  0  0  0  0
  3  4  1  0  0  0  0
  3 25  1  0  0  0  0
  3 26  1  0  0  0  0
  4  5  1  0  0  0  0
  4 27  1  0  0  0  0
  4 28  1  0  0  0  0
  5 21  1  0  0  0  0
  5  6  1  0  0  0  0
  6  7  1  0  0  0  0
  6 15  2  0  0  0  0
  7  8  1  0  0  0  0
  8  9  1  0  0  0  0
  8 29  1  0  0  0  0
  8 30  1  0  0  0  0
  9 10  2  0  0  0  0
  9 11  1  0  0  0  0
 11 12  1  0  0  0  0
 11 31  1  0  0  0  0
 12 14  1  0  0  0  0
 12 13  1  0  0  0  0
 12 32  1  0  0  0  0
 13 14  1  0  0  0  0
 13 33  1  0  0  0  0
 13 34  1  0  0  0  0
 14 35  1  0  0  0  0
 14 36  1  0  0  0  0
 15 16  1  0  0  0  0
 16 21  2  0  0  0  0
 16 17  1  0  0  0  0
 17 18  2  0  0  0  0
 17 37  1  0  0  0  0
 18 19  1  0  0  0  0
 18 38  1  0  0  0  0
 19 20  2  0  0  0  0
 19 39  1  0  0  0  0
 20 21  1  0  0  0  0
 20 40  1  0  0  0  0
M  END
> <s_m_source_file>
AV-unprocessed.smi

> <i_m_source_file_index>
2966

> <i_lp_mmshare_version>
43012

> <i_f3d_flags>
0

> <s_epik_input>
W2NIXTFbY0hdW2NIXVtjSF1jKGMxMiluKFtDSDJdW0NIMl1PW0NIM10pYyhuMilTW0NIMl1DKD1PKVtOSF1bQ0hdM1tDSDJdW0NIMl0z

> <s_epik_cmdline>
J2VwaWtfcHl0aG9uJywgJy1waCcsICc3LjAnLCAnLXRuJywgJzgnLCAnLW1hJywgJzIwMCcsICctbWV0YWxfYmluZGluZycsICctaW1hZScsICc8aW5maWxlLm1hZT4nLCAnLW9tYWUnLCAnPG91dGZpbGUubWFlPic=

> <r_epik_Ionization_Penalty>
0.0369383

> <r_epik_Ionization_Penalty_Charging>
0

> <r_epik_Ionization_Penalty_Neutral>
0.0369383

> <r_epik_State_Penalty>
0.0308874

> <r_epik_Charging_Adjusted_Penalty>
0.0308874

> <i_epik_Tot_Q>
0

> <i_epik_Tot_abs_Q>
0

> <r_epik_Metal_State_Penalty>
0.0290633

> <b_epik_Metal_Only>
0

> <s_lp_Force_Field>
OPLS_2005

> <r_lp_Energy>
20.8616

> <b_lp_Chiralities_Consistent>
1

> <s_lp_Variant>
AV-unprocessed.smi:2966-1

> <Gold.Version>
5.8.1

> <Gold.Id.Protein>
6NUR|6NUR_protein|mol2

> <Gold.PLP.Fitness>
49.4133

> <Gold.PLP.PLP>
-43.7816

> <Gold.PLP.part.hbond>
-1.9899

> <Gold.PLP.part.metal>
0.0000

> <Gold.PLP.part.buried>
-6.2283

> <Gold.PLP.part.nonpolar>
-35.5818

> <Gold.PLP.part.repulsive>
0.0892

> <Gold.PLP.ligand.clash>
0.0000

> <Gold.PLP.ligand.torsion>
0.2537

> <Gold.PLP.Chemscore.Hbond>
2.0000

> <Gold.PLP.Chemscore.CHOScore>
0.0000

> <Gold.PLP.Chemscore.Metal>
0.0000

> <Gold.Chemscore.Hbonds>
donor molecule, donor type, donor heavy atom, donor atom, acceptor molecule, acceptor atom, score
      P1  H  6896  6908       L1    10  1.00
      P1  H  7989  7998       L1     2  1.00

> <Gold.PLP.Chemscore.Internal.Correction>
0.1392

> <Gold.Rescore>
     Score         DG    S(hbond)    S(metal)    S(lipo)     H(rot)  DE(clash)    DE(int)     intcor
     17.75     -18.11       1.20        0.00     120.25       2.13       0.09       0.28       ----

> <Gold.Chemscore.Fitness>
17.7484

> <Gold.Chemscore.DG>
-18.1092

> <Gold.Chemscore.ZeroCoef>
-5.4800

> <Gold.Chemscore.Hbond>
1.2044

> <Gold.Chemscore.Metal>
0.0000

> <Gold.Chemscore.Lipo>
120.2489

> <Gold.Chemscore.Internal_Hbond>
0.0000

> <Gold.Chemscore.DEClash>
0.0856

> <Gold.Chemscore.DEInternal>
0.2752

> <Gold.Chemscore.Rot>
2.1338

> <Gold.Chemscore.Internal.Correction>
   9.000000E+99

> <Gold.Chemscore.Hbonds>
donor molecule, donor type, donor heavy atom, donor atom, acceptor molecule, acceptor atom, score
      P1  H  6896  6908       L1    10  0.97
      P1  H  7989  7998       L1     2  0.18

> <Gold.Chemscore.Hbond.Weighted>
-4.0226

> <Gold.Chemscore.Metal.Weighted>
-0.0000

> <Gold.Chemscore.Lipo.Weighted>
-14.0691

> <Gold.Chemscore.Internal_Hbond.Weighted>
0.0000

> <Gold.Chemscore.DEClash.Weighted>
0.0856

> <Gold.Chemscore.DEInternal.Weighted>
0.2752

> <Gold.Chemscore.Rot.Weighted>
5.4626

> <Gold.Chemscore.Internal.Correction.Weighted>
   9.000000E+99

> <Gold.Protein.RotatedTorsions>
[ 6907 6896 6895 6894 ] final  -60.12 input  -60.11 | X-H torsion
[ 7974 7965 7964 7962 ] final   35.62 input  175.53 | X-H torsion
[ 8008 7997 7996 7995 ] final  -47.99 input   59.86 | X-H torsion
[ 10167 10162 10161 10158 ] final   33.51 input  -65.29 | X-H torsion
[ 10718 10713 10712 10709 ] final  -80.20 input   66.30 | X-H torsion
[ 10763 10752 10751 10750 ] final -172.57 input  -60.55 | X-H torsion
[ 11005 11000 10999 10996 ] final  151.95 input  -57.11 | X-H torsion

> <Gold.Protein.ActiveResidues>
 VAL166  LYS551  ARG553  GLY616  TRP617  ASP618  TYR619  PRO620  LYS621  CYS622 
 ASP623  PHE694  ASN695  SER759  ASP760  ASP761  ALA762  ILE779  LEU786  VAL792 
 PHE793  MET794  SER795  GLU796  ALA797  LYS798  CYS799  TRP800  GLU811  SER814 

> <Gold.Protein.RotatedAtoms>
  150.7879  134.6879  159.6479 H   0  0  0  0  0  0  0  0  0  0  0  0  # atno 6907 bound_to 6896
  152.3979  134.6331  160.0090 H   0  0  0  0  0  0  0  0  0  0  0  0  # atno 6908 bound_to 6896
  151.6612  133.3280  159.3210 H   0  0  0  0  0  0  0  0  0  0  0  0  # atno 6909 bound_to 6896
  146.1270  139.6120  142.9252 H   0  0  0  0  0  0  0  0  0  0  0  0  # atno 7974 bound_to 7965
  154.4023  140.1332  156.4266 H   0  0  0  0  0  0  0  0  0  0  0  0  # atno 8008 bound_to 7997
  155.7591  140.3486  155.5169 H   0  0  0  0  0  0  0  0  0  0  0  0  # atno 8009 bound_to 7997
  155.8876  140.0998  157.1431 H   0  0  0  0  0  0  0  0  0  0  0  0  # atno 8010 bound_to 7997
  140.4400  144.1201  150.6172 H   0  0  0  0  0  0  0  0  0  0  0  0  # atno 10167 bound_to 10162
  156.0075  130.4567  150.3763 H   0  0  0  0  0  0  0  0  0  0  0  0  # atno 10718 bound_to 10713
  154.6178  135.2872  155.0360 H   0  0  0  0  0  0  0  0  0  0  0  0  # atno 10763 bound_to 10752
  154.1566  135.6495  153.4980 H   0  0  0  0  0  0  0  0  0  0  0  0  # atno 10764 bound_to 10752
  153.0222  135.5368  154.6956 H   0  0  0  0  0  0  0  0  0  0  0  0  # atno 10765 bound_to 10752
  140.1264  134.8830  157.2144 H   0  0  0  0  0  0  0  0  0  0  0  0  # atno 11005 bound_to 11000
  145.5343  141.0425  143.2365 LP  0  0  0  0  0  0  0  0  0  0  0  0  # atno 17320 bound_to 7965
  144.7652  139.6862  143.7218 LP  0  0  0  0  0  0  0  0  0  0  0  0  # atno 17321 bound_to 7965
  140.4329  143.2560  151.9572 LP  0  0  0  0  0  0  0  0  0  0  0  0  # atno 17342 bound_to 10162
  139.4789  144.5727  151.8062 LP  0  0  0  0  0  0  0  0  0  0  0  0  # atno 17343 bound_to 10162
  157.1845  131.0400  151.2731 LP  0  0  0  0  0  0  0  0  0  0  0  0  # atno 17370 bound_to 10713
  157.4116  130.7388  149.6843 LP  0  0  0  0  0  0  0  0  0  0  0  0  # atno 17371 bound_to 10713
  140.2898  134.3253  155.7318 LP  0  0  0  0  0  0  0  0  0  0  0  0  # atno 17394 bound_to 11000
  141.2162  133.7528  156.9487 LP  0  0  0  0  0  0  0  0  0  0  0  0  # atno 17395 bound_to 11000

$$$$
