AV-unprocessed.smi:2256|AV-procd|sdf|9127|dock6
  -GOLD-   2272012333D 1   1.00000     0.00000
 Structure written by MMmdl.
 42 44  0  0  0  0  0  0  0  0  1 V2000
  150.2869  143.2099  157.8515 C   0  0  0  0  0  0  0  0  0  0  0  0
  150.9419  141.9367  157.3461 C   0  0  0  0  0  0  0  0  0  0  0  0
  150.4498  141.4443  156.1338 N   0  0  0  0  0  0  0  0  0  0  0  0
  150.9513  140.3670  155.6242 C   0  0  0  0  0  0  0  0  0  0  0  0
  151.9911  139.6665  156.2568 N   0  0  0  0  0  0  0  0  0  0  0  0
  152.4722  138.4557  155.5713 C   0  0  0  0  0  0  0  0  0  0  0  0
  151.3144  137.6419  154.9508 C   0  0  1  0  0  0  0  0  0  0  0  0
  151.8040  136.7749  153.9477 O   0  0  0  0  0  0  0  0  0  0  0  0
  150.5584  136.7842  155.9794 C   0  0  0  0  0  0  0  0  0  0  0  0
  149.8425  135.7511  155.3131 O   0  0  0  0  0  0  0  0  0  0  0  0
  150.2096  134.4418  155.5411 C   0  0  0  0  0  0  0  0  0  0  0  0
  151.1220  134.0423  156.5526 C   0  0  0  0  0  0  0  0  0  0  0  0
  151.4528  132.6854  156.7306 C   0  0  0  0  0  0  0  0  0  0  0  0
  150.8778  131.7076  155.9021 C   0  0  0  0  0  0  0  0  0  0  0  0
  149.9745  132.1015  154.9009 C   0  0  0  0  0  0  0  0  0  0  0  0
  149.2652  131.3859  153.9563 N   0  0  0  0  0  0  0  0  0  0  0  0
  148.4943  132.2325  153.1794 C   0  0  0  0  0  0  0  0  0  0  0  0
  148.6860  133.5215  153.6039 C   0  0  0  0  0  0  0  0  0  0  0  0
  149.6205  133.4679  154.6962 C   0  0  0  0  0  0  0  0  0  0  0  0
  152.5163  140.0669  157.4508 C   0  0  0  0  0  0  0  0  0  0  0  0
  153.4099  139.4293  158.0112 O   0  0  0  0  0  0  0  0  0  0  0  0
  151.9420  141.2994  158.0140 C   0  0  0  0  0  0  0  0  0  0  0  0
  152.5193  141.7892  159.3363 C   0  0  0  0  0  0  0  0  0  0  0  0
  149.2863  130.3843  153.8277 H   0  0  0  0  0  0  0  0  0  0  0  0
  151.0214  144.0112  157.9344 H   0  0  0  0  0  0  0  0  0  0  0  0
  149.8377  143.0449  158.8311 H   0  0  0  0  0  0  0  0  0  0  0  0
  149.4991  143.5470  157.1769 H   0  0  0  0  0  0  0  0  0  0  0  0
  150.5999  139.9378  154.6842 H   0  0  0  0  0  0  0  0  0  0  0  0
  153.2286  138.6842  154.8173 H   0  0  0  0  0  0  0  0  0  0  0  0
  153.0007  137.8351  156.2975 H   0  0  0  0  0  0  0  0  0  0  0  0
  150.5924  138.3099  154.4796 H   0  0  0  0  0  0  0  0  0  0  0  0
  151.3128  136.9286  153.1549 H   0  0  0  0  0  0  0  0  0  0  0  0
  151.2850  136.3332  156.6572 H   0  0  0  0  0  0  0  0  0  0  0  0
  149.8894  137.4065  156.5764 H   0  0  0  0  0  0  0  0  0  0  0  0
  151.5857  134.7617  157.2102 H   0  0  0  0  0  0  0  0  0  0  0  0
  152.1488  132.3965  157.5044 H   0  0  0  0  0  0  0  0  0  0  0  0
  151.1275  130.6651  156.0340 H   0  0  0  0  0  0  0  0  0  0  0  0
  147.8708  131.8473  152.3860 H   0  0  0  0  0  0  0  0  0  0  0  0
  148.2291  134.4143  153.2036 H   0  0  0  0  0  0  0  0  0  0  0  0
  152.3815  141.0329  160.1094 H   0  0  0  0  0  0  0  0  0  0  0  0
  152.0584  142.7090  159.6920 H   0  0  0  0  0  0  0  0  0  0  0  0
  153.5883  141.9774  159.2335 H   0  0  0  0  0  0  0  0  0  0  0  0
  1  2  1  0  0  0  0
  1 25  1  0  0  0  0
  1 26  1  0  0  0  0
  1 27  1  0  0  0  0
  2 22  2  0  0  0  0
  2  3  1  0  0  0  0
  3  4  2  0  0  0  0
  4  5  1  0  0  0  0
  4 28  1  0  0  0  0
  5  6  1  0  0  0  0
  5 20  1  0  0  0  0
  6  7  1  0  0  0  0
  6 29  1  0  0  0  0
  6 30  1  0  0  0  0
  7  8  1  0  0  0  0
  7  9  1  0  0  0  0
  7 31  1  0  0  0  0
  8 32  1  0  0  0  0
  9 10  1  0  0  0  0
  9 33  1  0  0  0  0
  9 34  1  0  0  0  0
 10 11  1  0  0  0  0
 11 19  1  0  0  0  0
 11 12  2  0  0  0  0
 12 13  1  0  0  0  0
 12 35  1  0  0  0  0
 13 14  2  0  0  0  0
 13 36  1  0  0  0  0
 14 15  1  0  0  0  0
 14 37  1  0  0  0  0
 15 19  2  0  0  0  0
 15 16  1  0  0  0  0
 16 24  1  0  0  0  0
 16 17  1  0  0  0  0
 17 18  2  0  0  0  0
 17 38  1  0  0  0  0
 18 19  1  0  0  0  0
 18 39  1  0  0  0  0
 20 21  2  0  0  0  0
 20 22  1  0  0  0  0
 22 23  1  0  0  0  0
 23 40  1  0  0  0  0
 23 41  1  0  0  0  0
 23 42  1  0  0  0  0
M  END
> <s_m_source_file>
AV-unprocessed.smi

> <i_m_source_file_index>
2256

> <i_lp_mmshare_version>
43012

> <i_f3d_flags>
0

> <s_epik_input>
W0NIM11jMW5bY0hdbihjKD1PKWMxW0NIM10pW0NIMl1bQ0BIXShbT0hdKVtDSDJdT2MoW2NIXVtjSF1bY0hdMiljKGMyMylbY0hdW2NIXVtuSF0z

> <s_epik_cmdline>
J2VwaWtfcHl0aG9uJywgJy1waCcsICc3LjAnLCAnLXRuJywgJzgnLCAnLW1hJywgJzIwMCcsICctbWV0YWxfYmluZGluZycsICctaW1hZScsICc8aW5maWxlLm1hZT4nLCAnLW9tYWUnLCAnPG91dGZpbGUubWFlPic=

> <r_lp_tautomer_probability>
1

> <r_epik_Ionization_Penalty>
4.18314e-05

> <r_epik_Ionization_Penalty_Charging>
1.04093e-07

> <r_epik_Ionization_Penalty_Neutral>
4.17273e-05

> <r_epik_State_Penalty>
-0

> <r_epik_Charging_Adjusted_Penalty>
1.04093e-07

> <i_epik_Tot_Q>
0

> <i_epik_Tot_abs_Q>
0

> <r_epik_Metal_State_Penalty>
-0

> <b_epik_Metal_Only>
0

> <s_lp_Force_Field>
OPLS_2005

> <r_lp_Energy>
26.3199

> <b_lp_Chiralities_Consistent>
1

> <s_lp_Variant>
AV-unprocessed.smi:2256-2

> <Gold.Version>
5.8.1

> <Gold.Id.Protein>
6NUR|6NUR_protein|mol2

> <Gold.PLP.Fitness>
48.1808

> <Gold.PLP.PLP>
-40.1439

> <Gold.PLP.part.hbond>
-3.0000

> <Gold.PLP.part.metal>
0.0000

> <Gold.PLP.part.buried>
-2.6853

> <Gold.PLP.part.nonpolar>
-34.8590

> <Gold.PLP.part.repulsive>
0.2013

> <Gold.PLP.ligand.clash>
0.0000

> <Gold.PLP.ligand.torsion>
1.1175

> <Gold.PLP.Chemscore.Hbond>
2.6400

> <Gold.PLP.Chemscore.CHOScore>
0.7736

> <Gold.PLP.Chemscore.Metal>
0.0000

> <Gold.Chemscore.Hbonds>
donor molecule, donor type, donor heavy atom, donor atom, acceptor molecule, acceptor atom, score
      L1  H     8    32       P1  7949  0.67
      P1  H  7997  8010       L1    21  1.00
      P1  H 10752 10763       L1     8  1.00
      L1  C    17    38       P1 10747  0.69

> <Gold.PLP.Chemscore.Internal.Correction>
0.0309

> <Gold.Rescore>
     Score         DG    S(hbond)    S(metal)    S(lipo)     H(rot)  DE(clash)    DE(int)     intcor
     15.14     -16.33       2.13        0.00      88.51       2.58       0.07       1.12       ----

> <Gold.Chemscore.Fitness>
15.1385

> <Gold.Chemscore.DG>
-16.3322

> <Gold.Chemscore.ZeroCoef>
-5.4800

> <Gold.Chemscore.Hbond>
2.1266

> <Gold.Chemscore.Metal>
0.0000

> <Gold.Chemscore.Lipo>
88.5077

> <Gold.Chemscore.Internal_Hbond>
0.0000

> <Gold.Chemscore.DEClash>
0.0701

> <Gold.Chemscore.DEInternal>
1.1236

> <Gold.Chemscore.Rot>
2.5804

> <Gold.Chemscore.Internal.Correction>
   9.000000E+99

> <Gold.Chemscore.Hbonds>
donor molecule, donor type, donor heavy atom, donor atom, acceptor molecule, acceptor atom, score
      L1  H     8    32       P1  7949  0.46
      P1  H  7997  8010       L1    21  0.33
      P1  H 10752 10763       L1     8  0.99

> <Gold.Chemscore.Hbond.Weighted>
-7.1027

> <Gold.Chemscore.Metal.Weighted>
-0.0000

> <Gold.Chemscore.Lipo.Weighted>
-10.3554

> <Gold.Chemscore.Internal_Hbond.Weighted>
0.0000

> <Gold.Chemscore.DEClash.Weighted>
0.0701

> <Gold.Chemscore.DEInternal.Weighted>
1.1236

> <Gold.Chemscore.Rot.Weighted>
6.6059

> <Gold.Chemscore.Internal.Correction.Weighted>
   9.000000E+99

> <Gold.Protein.RotatedTorsions>
[ 6907 6896 6895 6894 ] final -157.81 input  -60.11 | X-H torsion
[ 7974 7965 7964 7962 ] final  108.72 input  175.53 | X-H torsion
[ 8008 7997 7996 7995 ] final   16.41 input   59.86 | X-H torsion
[ 10167 10162 10161 10158 ] final   71.12 input  -65.29 | X-H torsion
[ 10718 10713 10712 10709 ] final   88.92 input   66.30 | X-H torsion
[ 10763 10752 10751 10750 ] final   30.36 input  -60.55 | X-H torsion
[ 11005 11000 10999 10996 ] final -179.21 input  -57.11 | X-H torsion

> <Gold.Protein.ActiveResidues>
 VAL166  LYS551  ARG553  GLY616  TRP617  ASP618  TYR619  PRO620  LYS621  CYS622 
 ASP623  PHE694  ASN695  SER759  ASP760  ASP761  ALA762  ILE779  LEU786  VAL792 
 PHE793  MET794  SER795  GLU796  ALA797  LYS798  CYS799  TRP800  GLU811  SER814 

> <Gold.Protein.RotatedAtoms>
  151.3085  133.4091  159.2644 H   0  0  0  0  0  0  0  0  0  0  0  0  # atno 6907 bound_to 6896
  151.0134  134.9415  159.8030 H   0  0  0  0  0  0  0  0  0  0  0  0  # atno 6908 bound_to 6896
  152.5306  134.3049  159.9145 H   0  0  0  0  0  0  0  0  0  0  0  0  # atno 6909 bound_to 6896
  145.2770  139.2646  143.3936 H   0  0  0  0  0  0  0  0  0  0  0  0  # atno 7974 bound_to 7965
  154.8766  140.2967  155.5449 H   0  0  0  0  0  0  0  0  0  0  0  0  # atno 8008 bound_to 7997
  156.3022  140.2450  156.3696 H   0  0  0  0  0  0  0  0  0  0  0  0  # atno 8009 bound_to 7997
  154.8761  140.0399  157.1743 H   0  0  0  0  0  0  0  0  0  0  0  0  # atno 8010 bound_to 7997
  140.0496  144.5323  150.7373 H   0  0  0  0  0  0  0  0  0  0  0  0  # atno 10167 bound_to 10162
  157.6952  131.0313  150.3348 H   0  0  0  0  0  0  0  0  0  0  0  0  # atno 10718 bound_to 10713
  153.0376  135.6466  154.1033 H   0  0  0  0  0  0  0  0  0  0  0  0  # atno 10763 bound_to 10752
  154.0745  135.2878  155.3303 H   0  0  0  0  0  0  0  0  0  0  0  0  # atno 10764 bound_to 10752
  154.6572  135.5404  153.8038 H   0  0  0  0  0  0  0  0  0  0  0  0  # atno 10765 bound_to 10752
  140.4212  134.6604  157.4664 H   0  0  0  0  0  0  0  0  0  0  0  0  # atno 11005 bound_to 11000
  146.3228  140.3228  142.8634 LP  0  0  0  0  0  0  0  0  0  0  0  0  # atno 17320 bound_to 7965
  144.9286  140.7949  143.5703 LP  0  0  0  0  0  0  0  0  0  0  0  0  # atno 17321 bound_to 7965
  140.7223  143.2601  151.4237 LP  0  0  0  0  0  0  0  0  0  0  0  0  # atno 17342 bound_to 10162
  139.5962  144.1393  152.2146 LP  0  0  0  0  0  0  0  0  0  0  0  0  # atno 17343 bound_to 10162
  156.3817  130.3881  149.7097 LP  0  0  0  0  0  0  0  0  0  0  0  0  # atno 17370 bound_to 10713
  156.4477  130.7891  151.2913 LP  0  0  0  0  0  0  0  0  0  0  0  0  # atno 17371 bound_to 10713
  140.0199  134.6563  155.9255 LP  0  0  0  0  0  0  0  0  0  0  0  0  # atno 17394 bound_to 11000
  141.1783  133.6543  156.4918 LP  0  0  0  0  0  0  0  0  0  0  0  0  # atno 17395 bound_to 11000

$$$$
