AV-unprocessed.smi:767|AV-procd|sdf|3660|dock7
  -GOLD-   22720 1 73D 1   1.00000     0.00000
 Structure written by MMmdl.
 47 49  0  0  0  0  0  0  0  0  1 V2000
  143.7482  132.7142  148.2332 C   0  0  0  0  0  0  0  0  0  0  0  0
  144.3654  132.8378  149.6106 C   0  0  0  0  0  0  0  0  0  0  0  0
  143.5665  133.1306  150.7358 C   0  0  0  0  0  0  0  0  0  0  0  0
  144.1920  133.2378  151.9925 C   0  0  0  0  0  0  0  0  0  0  0  0
  145.5874  133.0518  152.0759 C   0  0  0  0  0  0  0  0  0  0  0  0
  146.3181  133.1912  153.4003 C   0  0  0  0  0  0  0  0  0  0  0  0
  146.0968  134.5533  154.0863 C   0  0  0  0  0  0  0  0  0  0  0  0
  147.2185  135.4663  153.8794 N   0  0  0  0  0  0  0  0  0  0  0  0
  147.5909  136.4411  154.7214 C   0  0  0  0  0  0  0  0  0  0  0  0
  147.0071  136.7106  155.7712 O   0  0  0  0  0  0  0  0  0  0  0  0
  148.6865  137.0793  154.2907 N   0  0  0  0  0  0  0  0  0  0  0  0
  149.3531  138.1479  155.0270 C   0  0  1  0  0  0  0  0  0  0  0  0
  150.5935  138.6835  154.2954 C   0  0  2  0  0  0  0  0  0  0  0  0
  151.9592  138.4856  154.8944 C   0  0  0  0  0  0  0  0  0  0  0  0
  152.1896  139.7923  155.6589 C   0  0  0  0  0  0  0  0  0  0  0  0
  150.8834  140.3229  155.8727 O   0  0  0  0  0  0  0  0  0  0  0  0
  150.1195  140.0725  154.6954 C   0  0  2  0  0  0  0  0  0  0  0  0
  148.6851  139.5407  154.9009 C   0  0  0  0  0  0  0  0  0  0  0  0
  147.7492  139.7742  153.7061 C   0  0  0  0  0  0  0  0  0  0  0  0
  147.9513  140.0516  156.1418 C   0  0  0  0  0  0  0  0  0  0  0  0
  146.2934  132.7575  150.8904 C   0  0  0  0  0  0  0  0  0  0  0  0
  145.7015  132.6492  149.6815 N   0  0  0  0  0  0  0  0  0  0  0  0
  142.7499  133.1521  148.2099 H   0  0  0  0  0  0  0  0  0  0  0  0
  143.6685  131.6648  147.9490 H   0  0  0  0  0  0  0  0  0  0  0  0
  144.3589  133.2277  147.4897 H   0  0  0  0  0  0  0  0  0  0  0  0
  142.5002  133.2734  150.6401 H   0  0  0  0  0  0  0  0  0  0  0  0
  143.6108  133.4707  152.8724 H   0  0  0  0  0  0  0  0  0  0  0  0
  146.0014  132.3888  154.0679 H   0  0  0  0  0  0  0  0  0  0  0  0
  147.3839  133.0381  153.2276 H   0  0  0  0  0  0  0  0  0  0  0  0
  145.1997  135.0228  153.6826 H   0  0  0  0  0  0  0  0  0  0  0  0
  145.9094  134.4111  155.1521 H   0  0  0  0  0  0  0  0  0  0  0  0
  147.7674  135.3270  153.0439 H   0  0  0  0  0  0  0  0  0  0  0  0
  149.1017  136.7920  153.4166 H   0  0  0  0  0  0  0  0  0  0  0  0
  149.5777  137.8898  156.0648 H   0  0  0  0  0  0  0  0  0  0  0  0
  150.5424  138.5372  153.2148 H   0  0  0  0  0  0  0  0  0  0  0  0
  151.9671  137.6314  155.5722 H   0  0  0  0  0  0  0  0  0  0  0  0
  152.7287  138.3221  154.1394 H   0  0  0  0  0  0  0  0  0  0  0  0
  152.7196  139.6411  156.5994 H   0  0  0  0  0  0  0  0  0  0  0  0
  152.7619  140.4955  155.0522 H   0  0  0  0  0  0  0  0  0  0  0  0
  150.2484  140.8290  153.9196 H   0  0  0  0  0  0  0  0  0  0  0  0
  147.5152  140.8322  153.5856 H   0  0  0  0  0  0  0  0  0  0  0  0
  146.8039  139.2432  153.8238 H   0  0  0  0  0  0  0  0  0  0  0  0
  148.1959  139.4384  152.7699 H   0  0  0  0  0  0  0  0  0  0  0  0
  147.7466  141.1202  156.0737 H   0  0  0  0  0  0  0  0  0  0  0  0
  148.5346  139.8918  157.0487 H   0  0  0  0  0  0  0  0  0  0  0  0
  146.9990  139.5391  156.2818 H   0  0  0  0  0  0  0  0  0  0  0  0
  147.3638  132.6145  150.9102 H   0  0  0  0  0  0  0  0  0  0  0  0
  1  2  1  0  0  0  0
  1 23  1  0  0  0  0
  1 24  1  0  0  0  0
  1 25  1  0  0  0  0
  2 22  1  0  0  0  0
  2  3  2  0  0  0  0
  3  4  1  0  0  0  0
  3 26  1  0  0  0  0
  4  5  2  0  0  0  0
  4 27  1  0  0  0  0
  5  6  1  0  0  0  0
  5 21  1  0  0  0  0
  6  7  1  0  0  0  0
  6 28  1  0  0  0  0
  6 29  1  0  0  0  0
  7  8  1  0  0  0  0
  7 30  1  0  0  0  0
  7 31  1  0  0  0  0
  8  9  1  0  0  0  0
  8 32  1  0  0  0  0
  9 10  2  0  0  0  0
  9 11  1  0  0  0  0
 11 12  1  0  0  0  0
 11 33  1  0  0  0  0
 12 18  1  0  0  0  0
 12 13  1  0  0  0  0
 12 34  1  0  0  0  0
 13 17  1  0  0  0  0
 13 14  1  0  0  0  0
 13 35  1  0  0  0  0
 14 15  1  0  0  0  0
 14 36  1  0  0  0  0
 14 37  1  0  0  0  0
 15 16  1  0  0  0  0
 15 38  1  0  0  0  0
 15 39  1  0  0  0  0
 16 17  1  0  0  0  0
 17 18  1  0  0  0  0
 17 40  1  0  0  0  0
 18 19  1  0  0  0  0
 18 20  1  0  0  0  0
 19 41  1  0  0  0  0
 19 42  1  0  0  0  0
 19 43  1  0  0  0  0
 20 44  1  0  0  0  0
 20 45  1  0  0  0  0
 20 46  1  0  0  0  0
 21 22  2  0  0  0  0
 21 47  1  0  0  0  0
M  END
> <s_m_source_file>
AV-unprocessed.smi

> <i_m_source_file_index>
767

> <i_lp_mmshare_version>
43012

> <i_f3d_flags>
0

> <s_epik_input>
W0NIM11jMVtjSF1bY0hdYyhbY0hdbjEpW0NIMl1bQ0gyXVtOSF1DKD1PKVtOSF1bQ0BIXTJDKFtDSDNdKShbQ0gzXSlbQ0BIXShbQ0BASF0yMylPW0NIMl1bQ0gyXTM=

> <s_epik_cmdline>
J2VwaWtfcHl0aG9uJywgJy1waCcsICc3LjAnLCAnLXRuJywgJzgnLCAnLW1hJywgJzIwMCcsICctbWV0YWxfYmluZGluZycsICctaW1hZScsICc8aW5maWxlLm1hZT4nLCAnLW9tYWUnLCAnPG91dGZpbGUubWFlPic=

> <r_epik_Ionization_Penalty>
0.0567523

> <r_epik_Ionization_Penalty_Charging>
0

> <r_epik_Ionization_Penalty_Neutral>
0.0567523

> <r_epik_State_Penalty>
0.0489186

> <r_epik_Charging_Adjusted_Penalty>
0.0489186

> <i_epik_Tot_Q>
0

> <i_epik_Tot_abs_Q>
0

> <r_epik_Metal_State_Penalty>
0.044622

> <b_epik_Metal_Only>
0

> <s_lp_Force_Field>
OPLS_2005

> <r_lp_Energy>
33.1778

> <b_lp_Chiralities_Consistent>
1

> <s_lp_Variant>
AV-unprocessed.smi:767-4

> <Gold.Version>
5.8.1

> <Gold.Id.Protein>
6NUR|6NUR_protein|mol2

> <Gold.PLP.Fitness>
42.3772

> <Gold.PLP.PLP>
-34.7496

> <Gold.PLP.part.hbond>
-2.0000

> <Gold.PLP.part.metal>
0.0000

> <Gold.PLP.part.buried>
-0.6258

> <Gold.PLP.part.nonpolar>
-30.7291

> <Gold.PLP.part.repulsive>
1.5172

> <Gold.PLP.ligand.clash>
0.0000

> <Gold.PLP.ligand.torsion>
0.6212

> <Gold.PLP.Chemscore.Hbond>
1.8960

> <Gold.PLP.Chemscore.CHOScore>
1.0000

> <Gold.PLP.Chemscore.Metal>
0.0000

> <Gold.Chemscore.Hbonds>
donor molecule, donor type, donor heavy atom, donor atom, acceptor molecule, acceptor atom, score
      L1  H     8    32       P1  7948  0.86
      L1  H    11    33       P1  7948  1.00
      L1  C    21    47       P1 10747  1.00

> <Gold.PLP.Chemscore.Internal.Correction>
0.1820

> <Gold.Rescore>
     Score         DG    S(hbond)    S(metal)    S(lipo)     H(rot)  DE(clash)    DE(int)     intcor
     19.31     -20.10       1.85        0.00     103.87       1.45       0.12       0.68       ----

> <Gold.Chemscore.Fitness>
19.3122

> <Gold.Chemscore.DG>
-20.1045

> <Gold.Chemscore.ZeroCoef>
-5.4800

> <Gold.Chemscore.Hbond>
1.8512

> <Gold.Chemscore.Metal>
0.0000

> <Gold.Chemscore.Lipo>
103.8707

> <Gold.Chemscore.Internal_Hbond>
0.0000

> <Gold.Chemscore.DEClash>
0.1156

> <Gold.Chemscore.DEInternal>
0.6767

> <Gold.Chemscore.Rot>
1.4497

> <Gold.Chemscore.Internal.Correction>
   9.000000E+99

> <Gold.Chemscore.Hbonds>
donor molecule, donor type, donor heavy atom, donor atom, acceptor molecule, acceptor atom, score
      L1  H     8    32       P1  7948  0.85
      L1  H    11    33       P1  7948  0.95

> <Gold.Chemscore.Hbond.Weighted>
-6.1829

> <Gold.Chemscore.Metal.Weighted>
-0.0000

> <Gold.Chemscore.Lipo.Weighted>
-12.1529

> <Gold.Chemscore.Internal_Hbond.Weighted>
0.0000

> <Gold.Chemscore.DEClash.Weighted>
0.1156

> <Gold.Chemscore.DEInternal.Weighted>
0.6767

> <Gold.Chemscore.Rot.Weighted>
3.7112

> <Gold.Chemscore.Internal.Correction.Weighted>
   9.000000E+99

> <Gold.Protein.RotatedTorsions>
[ 6907 6896 6895 6894 ] final  168.03 input  -60.11 | X-H torsion
[ 7974 7965 7964 7962 ] final  -78.94 input  175.53 | X-H torsion
[ 8008 7997 7996 7995 ] final  169.64 input   59.86 | X-H torsion
[ 10167 10162 10161 10158 ] final  140.17 input  -65.29 | X-H torsion
[ 10718 10713 10712 10709 ] final   27.00 input   66.30 | X-H torsion
[ 10763 10752 10751 10750 ] final  125.18 input  -60.55 | X-H torsion
[ 11005 11000 10999 10996 ] final  102.10 input  -57.11 | X-H torsion

> <Gold.Protein.ActiveResidues>
 VAL166  LYS551  ARG553  GLY616  TRP617  ASP618  TYR619  PRO620  LYS621  CYS622 
 ASP623  PHE694  ASN695  SER759  ASP760  ASP761  ALA762  ILE779  LEU786  VAL792 
 PHE793  MET794  SER795  GLU796  ALA797  LYS798  CYS799  TRP800  GLU811  SER814 

> <Gold.Protein.RotatedAtoms>
  151.8540  133.3445  159.3682 H   0  0  0  0  0  0  0  0  0  0  0  0  # atno 6907 bound_to 6896
  150.7198  134.5271  159.5691 H   0  0  0  0  0  0  0  0  0  0  0  0  # atno 6908 bound_to 6896
  152.2771  134.7870  160.0454 H   0  0  0  0  0  0  0  0  0  0  0  0  # atno 6909 bound_to 6896
  145.5799  140.9450  143.1350 H   0  0  0  0  0  0  0  0  0  0  0  0  # atno 7974 bound_to 7965
  156.1439  140.1559  156.8877 H   0  0  0  0  0  0  0  0  0  0  0  0  # atno 8008 bound_to 7997
  154.5011  140.0825  156.7838 H   0  0  0  0  0  0  0  0  0  0  0  0  # atno 8009 bound_to 7997
  155.4026  140.3415  155.4260 H   0  0  0  0  0  0  0  0  0  0  0  0  # atno 8010 bound_to 7997
  139.5057  144.6250  151.5958 H   0  0  0  0  0  0  0  0  0  0  0  0  # atno 10167 bound_to 10162
  157.2144  130.6949  149.6242 H   0  0  0  0  0  0  0  0  0  0  0  0  # atno 10718 bound_to 10713
  153.6731  135.3327  155.3158 H   0  0  0  0  0  0  0  0  0  0  0  0  # atno 10763 bound_to 10752
  154.8485  135.4391  154.1684 H   0  0  0  0  0  0  0  0  0  0  0  0  # atno 10764 bound_to 10752
  153.2680  135.6997  153.7586 H   0  0  0  0  0  0  0  0  0  0  0  0  # atno 10765 bound_to 10752
  139.8776  134.9210  156.5006 H   0  0  0  0  0  0  0  0  0  0  0  0  # atno 11005 bound_to 11000
  144.7399  139.7479  143.7315 LP  0  0  0  0  0  0  0  0  0  0  0  0  # atno 17320 bound_to 7965
  146.1724  139.4880  142.9919 LP  0  0  0  0  0  0  0  0  0  0  0  0  # atno 17321 bound_to 7965
  140.5964  143.9687  150.6357 LP  0  0  0  0  0  0  0  0  0  0  0  0  # atno 17342 bound_to 10162
  140.2885  143.3340  152.1085 LP  0  0  0  0  0  0  0  0  0  0  0  0  # atno 17343 bound_to 10162
  155.9687  130.4540  150.5835 LP  0  0  0  0  0  0  0  0  0  0  0  0  # atno 17370 bound_to 10713
  157.3639  131.0754  151.1613 LP  0  0  0  0  0  0  0  0  0  0  0  0  # atno 17371 bound_to 10713
  140.8592  133.8073  155.9247 LP  0  0  0  0  0  0  0  0  0  0  0  0  # atno 17394 bound_to 11000
  140.9066  134.2312  157.5010 LP  0  0  0  0  0  0  0  0  0  0  0  0  # atno 17395 bound_to 11000

$$$$
