AV-unprocessed.smi:2748|AV-procd|sdf|10584|dock3
  -GOLD-   2272015 33D 1   1.00000     0.00000
 Structure written by MMmdl.
 29 31  0  0  0  0  0  0  0  0  2 V2000
  151.5509  137.1868  154.2299 O   0  0  0  0  0  0  0  0  0  0  0  0
  151.2616  138.2279  154.8181 C   0  0  0  0  0  0  0  0  0  0  0  0
  150.4834  139.1993  154.2565 N   0  5  0  0  0  0  0  0  0  0  0  0
  150.1491  140.3628  154.8958 C   0  0  0  0  0  0  0  0  0  0  0  0
  149.4529  141.2290  154.3657 O   0  0  0  0  0  0  0  0  0  0  0  0
  150.6059  140.5692  156.1665 N   0  0  0  0  0  0  0  0  0  0  0  0
  150.2975  141.7884  156.9258 C   0  0  0  0  0  0  0  0  0  0  0  0
  151.5763  142.5319  157.3551 C   0  0  1  0  0  0  0  0  0  0  0  0
  151.2740  143.9093  158.0037 C   0  0  0  0  0  0  0  0  0  0  0  0
  151.8731  143.7487  159.3568 C   0  0  0  0  0  0  0  0  0  0  0  0
  151.9118  144.6778  160.4105 C   0  0  0  0  0  0  0  0  0  0  0  0
  152.5404  144.2848  161.6127 C   0  0  0  0  0  0  0  0  0  0  0  0
  153.1068  142.9932  161.7367 C   0  0  0  0  0  0  0  0  0  0  0  0
  153.0523  142.0788  160.6604 C   0  0  0  0  0  0  0  0  0  0  0  0
  152.4241  142.4849  159.4699 C   0  0  0  0  0  0  0  0  0  0  0  0
  152.2820  141.7421  158.3328 O   0  0  0  0  0  0  0  0  0  0  0  0
  151.4170  139.6045  156.7875 C   0  0  0  0  0  0  0  0  0  0  0  0
  151.7603  138.4561  156.1727 C   0  0  0  0  0  0  0  0  0  0  0  0
  152.7619  137.2890  156.9602 Cl  0  0  0  0  0  0  0  0  0  0  0  0
  149.6665  142.4486  156.3282 H   0  0  0  0  0  0  0  0  0  0  0  0
  149.6995  141.5465  157.8057 H   0  0  0  0  0  0  0  0  0  0  0  0
  152.2342  142.6772  156.4973 H   0  0  0  0  0  0  0  0  0  0  0  0
  151.7547  144.7270  157.4660 H   0  0  0  0  0  0  0  0  0  0  0  0
  150.2062  144.1157  158.0833 H   0  0  0  0  0  0  0  0  0  0  0  0
  151.4748  145.6598  160.3049 H   0  0  0  0  0  0  0  0  0  0  0  0
  152.5890  144.9739  162.4430 H   0  0  0  0  0  0  0  0  0  0  0  0
  153.5846  142.7042  162.6611 H   0  0  0  0  0  0  0  0  0  0  0  0
  153.4831  141.0924  160.7492 H   0  0  0  0  0  0  0  0  0  0  0  0
  151.7454  139.8576  157.7850 H   0  0  0  0  0  0  0  0  0  0  0  0
  1  2  2  0  0  0  0
  2 18  1  0  0  0  0
  2  3  1  0  0  0  0
  3  4  1  0  0  0  0
  4  5  2  0  0  0  0
  4  6  1  0  0  0  0
  6  7  1  0  0  0  0
  6 17  1  0  0  0  0
  7  8  1  0  0  0  0
  7 20  1  0  0  0  0
  7 21  1  0  0  0  0
  8 16  1  0  0  0  0
  8  9  1  0  0  0  0
  8 22  1  0  0  0  0
  9 10  1  0  0  0  0
  9 23  1  0  0  0  0
  9 24  1  0  0  0  0
 10 15  2  0  0  0  0
 10 11  1  0  0  0  0
 11 12  2  0  0  0  0
 11 25  1  0  0  0  0
 12 13  1  0  0  0  0
 12 26  1  0  0  0  0
 13 14  2  0  0  0  0
 13 27  1  0  0  0  0
 14 15  1  0  0  0  0
 14 28  1  0  0  0  0
 15 16  1  0  0  0  0
 17 18  2  0  0  0  0
 17 29  1  0  0  0  0
 18 19  1  0  0  0  0
M  CHG  1   3  -1
M  END
> <s_m_source_file>
AV-unprocessed.smi

> <i_m_source_file_index>
2748

> <i_lp_mmshare_version>
43012

> <i_f3d_flags>
0

> <s_epik_input>
Tz1jMVtuSF1jKD1PKW4oW2NIXWMxQ2wpW0NIMl1bQ0BIXShbQ0gyXTIpT2MoYzIzKVtjSF1bY0hdW2NIXVtjSF0z

> <s_epik_cmdline>
J2VwaWtfcHl0aG9uJywgJy1waCcsICc3LjAnLCAnLXRuJywgJzgnLCAnLW1hJywgJzIwMCcsICctbWV0YWxfYmluZGluZycsICctaW1hZScsICc8aW5maWxlLm1hZT4nLCAnLW9tYWUnLCAnPG91dGZpbGUubWFlPic=

> <r_lp_tautomer_probability>
1

> <r_epik_Ionization_Penalty>
2.00749

> <r_epik_Ionization_Penalty_Charging>
2.26533e-08

> <r_epik_Ionization_Penalty_Neutral>
2.00749

> <r_epik_State_Penalty>
2.13675

> <r_epik_Charging_Adjusted_Penalty>
2.13675

> <i_epik_Tot_Q>
-1

> <i_epik_Tot_abs_Q>
1

> <r_epik_Metal_State_Penalty>
0.0208594

> <b_epik_Metal_Only>
0

> <s_lp_Force_Field>
OPLS_2005

> <r_lp_Energy>
29.9215

> <b_lp_Chiralities_Consistent>
1

> <s_lp_Variant>
AV-unprocessed.smi:2748-4

> <Gold.Version>
5.8.1

> <Gold.Id.Protein>
6NUR|6NUR_protein|mol2

> <Gold.PLP.Fitness>
46.5264

> <Gold.PLP.PLP>
-42.6384

> <Gold.PLP.part.hbond>
-3.9819

> <Gold.PLP.part.metal>
0.0000

> <Gold.PLP.part.buried>
-1.4387

> <Gold.PLP.part.nonpolar>
-37.4709

> <Gold.PLP.part.repulsive>
1.2204

> <Gold.PLP.ligand.clash>
0.0000

> <Gold.PLP.ligand.torsion>
0.0337

> <Gold.PLP.Chemscore.Hbond>
1.3182

> <Gold.PLP.Chemscore.CHOScore>
0.0000

> <Gold.PLP.Chemscore.Metal>
0.0000

> <Gold.Chemscore.Hbonds>
donor molecule, donor type, donor heavy atom, donor atom, acceptor molecule, acceptor atom, score
      P1  H  8011  8017       L1     5  0.09
      P1  H 10752 10764       L1     1  0.91

> <Gold.PLP.Chemscore.Internal.Correction>
0.0009

> <Gold.Rescore>
     Score         DG    S(hbond)    S(metal)    S(lipo)     H(rot)  DE(clash)    DE(int)     intcor
     16.28     -18.26       1.02        0.00     108.39       1.29       0.58       1.41       ----

> <Gold.Chemscore.Fitness>
16.2797

> <Gold.Chemscore.DG>
-18.2642

> <Gold.Chemscore.ZeroCoef>
-5.4800

> <Gold.Chemscore.Hbond>
1.0226

> <Gold.Chemscore.Metal>
0.0000

> <Gold.Chemscore.Lipo>
108.3920

> <Gold.Chemscore.Internal_Hbond>
0.0000

> <Gold.Chemscore.DEClash>
0.5776

> <Gold.Chemscore.DEInternal>
1.4069

> <Gold.Chemscore.Rot>
1.2942

> <Gold.Chemscore.Internal.Correction>
   9.000000E+99

> <Gold.Chemscore.Hbonds>
donor molecule, donor type, donor heavy atom, donor atom, acceptor molecule, acceptor atom, score
      P1  H  8011  8017       L1     5  0.11
      P1  H 10752 10764       L1     1  0.86

> <Gold.Chemscore.Hbond.Weighted>
-3.4154

> <Gold.Chemscore.Metal.Weighted>
-0.0000

> <Gold.Chemscore.Lipo.Weighted>
-12.6819

> <Gold.Chemscore.Internal_Hbond.Weighted>
0.0000

> <Gold.Chemscore.DEClash.Weighted>
0.5776

> <Gold.Chemscore.DEInternal.Weighted>
1.4069

> <Gold.Chemscore.Rot.Weighted>
3.3131

> <Gold.Chemscore.Internal.Correction.Weighted>
   9.000000E+99

> <Gold.Protein.RotatedTorsions>
[ 6907 6896 6895 6894 ] final   93.77 input  -60.11 | X-H torsion
[ 7974 7965 7964 7962 ] final -102.49 input  175.53 | X-H torsion
[ 8008 7997 7996 7995 ] final -128.93 input   59.86 | X-H torsion
[ 10167 10162 10161 10158 ] final   46.04 input  -65.29 | X-H torsion
[ 10718 10713 10712 10709 ] final  126.20 input   66.30 | X-H torsion
[ 10763 10752 10751 10750 ] final  -86.40 input  -60.55 | X-H torsion
[ 11005 11000 10999 10996 ] final  -66.89 input  -57.11 | X-H torsion

> <Gold.Protein.ActiveResidues>
 VAL166  LYS551  ARG553  GLY616  TRP617  ASP618  TYR619  PRO620  LYS621  CYS622 
 ASP623  PHE694  ASN695  SER759  ASP760  ASP761  ALA762  ILE779  LEU786  VAL792 
 PHE793  MET794  SER795  GLU796  ALA797  LYS798  CYS799  TRP800  GLU811  SER814 

> <Gold.Protein.RotatedAtoms>
  152.5452  134.1297  159.8433 H   0  0  0  0  0  0  0  0  0  0  0  0  # atno 6907 bound_to 6896
  151.1344  133.5007  159.2606 H   0  0  0  0  0  0  0  0  0  0  0  0  # atno 6908 bound_to 6896
  151.1640  135.0297  159.8777 H   0  0  0  0  0  0  0  0  0  0  0  0  # atno 6909 bound_to 6896
  145.2681  140.9290  143.3002 H   0  0  0  0  0  0  0  0  0  0  0  0  # atno 7974 bound_to 7965
  155.2707  140.0440  157.3006 H   0  0  0  0  0  0  0  0  0  0  0  0  # atno 8008 bound_to 7997
  154.5655  140.2358  155.8239 H   0  0  0  0  0  0  0  0  0  0  0  0  # atno 8009 bound_to 7997
  156.2081  140.3006  155.9680 H   0  0  0  0  0  0  0  0  0  0  0  0  # atno 8010 bound_to 7997
  140.3180  144.2740  150.6187 H   0  0  0  0  0  0  0  0  0  0  0  0  # atno 10167 bound_to 10162
  157.5439  131.1096  150.8813 H   0  0  0  0  0  0  0  0  0  0  0  0  # atno 10718 bound_to 10713
  154.6220  135.5450  153.7586 H   0  0  0  0  0  0  0  0  0  0  0  0  # atno 10763 bound_to 10752
  153.0243  135.6415  154.1426 H   0  0  0  0  0  0  0  0  0  0  0  0  # atno 10764 bound_to 10752
  154.1360  135.2911  155.3153 H   0  0  0  0  0  0  0  0  0  0  0  0  # atno 10765 bound_to 10752
  141.1494  133.6708  156.6208 H   0  0  0  0  0  0  0  0  0  0  0  0  # atno 11005 bound_to 11000
  144.9359  139.4244  143.6472 LP  0  0  0  0  0  0  0  0  0  0  0  0  # atno 17320 bound_to 7965
  146.3255  139.8294  142.8911 LP  0  0  0  0  0  0  0  0  0  0  0  0  # atno 17321 bound_to 7965
  140.5509  143.2206  151.7928 LP  0  0  0  0  0  0  0  0  0  0  0  0  # atno 17342 bound_to 10162
  139.4880  144.4478  151.9690 LP  0  0  0  0  0  0  0  0  0  0  0  0  # atno 17343 bound_to 10162
  156.9358  130.5366  149.5279 LP  0  0  0  0  0  0  0  0  0  0  0  0  # atno 17370 bound_to 10713
  156.0520  130.5587  150.9009 LP  0  0  0  0  0  0  0  0  0  0  0  0  # atno 17371 bound_to 10713
  140.3542  134.7743  157.4488 LP  0  0  0  0  0  0  0  0  0  0  0  0  # atno 17394 bound_to 11000
  140.0837  134.5696  155.8514 LP  0  0  0  0  0  0  0  0  0  0  0  0  # atno 17395 bound_to 11000

$$$$
