AV-unprocessed.smi:2866|AV-procd|sdf|11022|dock1
  -GOLD-   2272015483D 1   1.00000     0.00000
 Structure written by MMmdl.
 42 44  0  0  0  0  0  0  0  0  2 V2000
  151.9420  144.7853  160.4803 C   0  0  0  0  0  0  0  0  0  0  0  0
  151.8452  143.5553  159.5938 C   0  0  0  0  0  0  0  0  0  0  0  0
  151.0438  143.6229  158.4316 C   0  0  0  0  0  0  0  0  0  0  0  0
  150.9767  142.4825  157.6402 C   0  0  0  0  0  0  0  0  0  0  0  0
  150.2895  142.2354  156.4499 N   0  3  0  0  0  0  0  0  0  0  0  0
  150.5310  140.9588  156.0424 C   0  0  0  0  0  0  0  0  0  0  0  0
  151.3624  140.3869  156.9550 N   0  0  0  0  0  0  0  0  0  0  0  0
  151.9212  139.0281  156.9873 C   0  0  0  0  0  0  0  0  0  0  0  0
  150.8881  137.9681  157.4253 C   0  0  1  0  0  0  0  0  0  0  0  0
  151.4322  136.6710  157.2861 O   0  0  0  0  0  0  0  0  0  0  0  0
  150.4154  138.1367  158.8831 C   0  0  0  0  0  0  0  0  0  0  0  0
  149.3625  137.2069  159.2516 N   0  0  0  0  0  0  0  0  0  0  0  0
  148.6845  136.3170  158.4471 C   0  0  0  0  0  0  0  0  0  0  0  0
  147.7745  135.6715  159.2338 C   0  0  0  0  0  0  0  0  0  0  0  0
  147.9619  136.2459  160.5247 C   0  0  0  0  0  0  0  0  0  0  0  0
  147.2357  135.9273  161.8049 C   0  0  0  0  0  0  0  0  0  0  0  0
  145.9462  136.2477  161.6981 F   0  0  0  0  0  0  0  0  0  0  0  0
  147.3339  134.6241  162.0673 F   0  0  0  0  0  0  0  0  0  0  0  0
  147.7668  136.6157  162.8154 F   0  0  0  0  0  0  0  0  0  0  0  0
  148.9151  137.1682  160.5248 N   0  0  0  0  0  0  0  0  0  0  0  0
  151.6687  141.3008  157.9704 C   0  0  0  0  0  0  0  0  0  0  0  0
  152.4632  141.2179  159.1117 C   0  0  0  0  0  0  0  0  0  0  0  0
  152.5461  142.3679  159.9290 C   0  0  0  0  0  0  0  0  0  0  0  0
  153.4061  142.3073  161.1799 C   0  0  0  0  0  0  0  0  0  0  0  0
  151.3612  145.6151  160.0762 H   0  0  0  0  0  0  0  0  0  0  0  0
  152.9772  145.1161  160.5665 H   0  0  0  0  0  0  0  0  0  0  0  0
  151.5625  144.5677  161.4789 H   0  0  0  0  0  0  0  0  0  0  0  0
  150.5079  144.5235  158.1698 H   0  0  0  0  0  0  0  0  0  0  0  0
  150.1342  140.4848  155.1558 H   0  0  0  0  0  0  0  0  0  0  0  0
  152.3472  138.7874  156.0131 H   0  0  0  0  0  0  0  0  0  0  0  0
  152.7578  139.0521  157.6863 H   0  0  0  0  0  0  0  0  0  0  0  0
  150.0223  138.0261  156.7642 H   0  0  0  0  0  0  0  0  0  0  0  0
  152.0130  136.5110  158.0140 H   0  0  0  0  0  0  0  0  0  0  0  0
  151.2499  137.9951  159.5715 H   0  0  0  0  0  0  0  0  0  0  0  0
  150.0472  139.1512  159.0429 H   0  0  0  0  0  0  0  0  0  0  0  0
  148.9040  136.2164  157.3942 H   0  0  0  0  0  0  0  0  0  0  0  0
  147.0760  134.9051  158.9323 H   0  0  0  0  0  0  0  0  0  0  0  0
  153.0020  140.3170  159.3656 H   0  0  0  0  0  0  0  0  0  0  0  0
  153.8792  141.3314  161.2924 H   0  0  0  0  0  0  0  0  0  0  0  0
  152.8018  142.4891  162.0690 H   0  0  0  0  0  0  0  0  0  0  0  0
  154.1968  143.0568  161.1381 H   0  0  0  0  0  0  0  0  0  0  0  0
  149.6988  142.8880  155.9503 H   0  0  0  0  0  0  0  0  0  0  0  0
  1  2  1  0  0  0  0
  1 25  1  0  0  0  0
  1 26  1  0  0  0  0
  1 27  1  0  0  0  0
  2 23  1  0  0  0  0
  2  3  2  0  0  0  0
  3  4  1  0  0  0  0
  3 28  1  0  0  0  0
  4 21  2  0  0  0  0
  4  5  1  0  0  0  0
  5  6  2  0  0  0  0
  5 42  1  0  0  0  0
  6  7  1  0  0  0  0
  6 29  1  0  0  0  0
  7  8  1  0  0  0  0
  7 21  1  0  0  0  0
  8  9  1  0  0  0  0
  8 30  1  0  0  0  0
  8 31  1  0  0  0  0
  9 10  1  0  0  0  0
  9 11  1  0  0  0  0
  9 32  1  0  0  0  0
 10 33  1  0  0  0  0
 11 12  1  0  0  0  0
 11 34  1  0  0  0  0
 11 35  1  0  0  0  0
 12 20  1  0  0  0  0
 12 13  1  0  0  0  0
 13 14  2  0  0  0  0
 13 36  1  0  0  0  0
 14 15  1  0  0  0  0
 14 37  1  0  0  0  0
 15 16  1  0  0  0  0
 15 20  2  0  0  0  0
 16 17  1  0  0  0  0
 16 18  1  0  0  0  0
 16 19  1  0  0  0  0
 21 22  1  0  0  0  0
 22 23  2  0  0  0  0
 22 38  1  0  0  0  0
 23 24  1  0  0  0  0
 24 39  1  0  0  0  0
 24 40  1  0  0  0  0
 24 41  1  0  0  0  0
M  CHG  1   5   1
M  END
> <s_m_source_file>
AV-unprocessed.smi

> <i_m_source_file_index>
2866

> <i_lp_mmshare_version>
43012

> <i_f3d_flags>
0

> <s_epik_input>
W0NIM11jKFtjSF0xKWMoW0NIM10pW2NIXWMoYzEyKW4oW2NIXW4yKVtDSDJdW0NASF0oW09IXSlbQ0gyXW4zW2NIXVtjSF1jKG4zKUMoRikoRilG

> <s_epik_cmdline>
J2VwaWtfcHl0aG9uJywgJy1waCcsICc3LjAnLCAnLXRuJywgJzgnLCAnLW1hJywgJzIwMCcsICctbWV0YWxfYmluZGluZycsICctaW1hZScsICc8aW5maWxlLm1hZT4nLCAnLW9tYWUnLCAnPG91dGZpbGUubWFlPic=

> <r_lp_tautomer_probability>
1

> <r_epik_Ionization_Penalty>
1.09214

> <r_epik_Ionization_Penalty_Charging>
1.09214

> <r_epik_Ionization_Penalty_Neutral>
2.80082e-06

> <r_epik_State_Penalty>
1.14852

> <r_epik_Charging_Adjusted_Penalty>
2.24066

> <i_epik_Tot_Q>
1

> <i_epik_Tot_abs_Q>
1

> <r_epik_Metal_State_Penalty>
1.23687

> <b_epik_Metal_Only>
0

> <s_lp_Force_Field>
OPLS_2005

> <r_lp_Energy>
17.0764

> <b_lp_Chiralities_Consistent>
1

> <s_lp_Variant>
AV-unprocessed.smi:2866-4

> <Gold.Version>
5.8.1

> <Gold.Id.Protein>
6NUR|6NUR_protein|mol2

> <Gold.PLP.Fitness>
60.3034

> <Gold.PLP.PLP>
-52.6961

> <Gold.PLP.part.hbond>
-2.5123

> <Gold.PLP.part.metal>
0.0000

> <Gold.PLP.part.buried>
-6.5407

> <Gold.PLP.part.nonpolar>
-44.1876

> <Gold.PLP.part.repulsive>
0.0730

> <Gold.PLP.ligand.clash>
0.0000

> <Gold.PLP.ligand.torsion>
0.3198

> <Gold.PLP.Chemscore.Hbond>
2.6720

> <Gold.PLP.Chemscore.CHOScore>
0.0000

> <Gold.PLP.Chemscore.Metal>
0.0000

> <Gold.Chemscore.Hbonds>
donor molecule, donor type, donor heavy atom, donor atom, acceptor molecule, acceptor atom, score
      L1  H     5    42       P1  8028  2.00
      P1  H  6931  6943       L1    20  0.66

> <Gold.PLP.Chemscore.Internal.Correction>
0.2309

> <Gold.Rescore>
     Score         DG    S(hbond)    S(metal)    S(lipo)     H(rot)  DE(clash)    DE(int)     intcor
     16.64     -18.00       1.71        0.00     112.51       2.48       0.05       1.31       ----

> <Gold.Chemscore.Fitness>
16.6441

> <Gold.Chemscore.DG>
-18.0040

> <Gold.Chemscore.ZeroCoef>
-5.4800

> <Gold.Chemscore.Hbond>
1.7112

> <Gold.Chemscore.Metal>
0.0000

> <Gold.Chemscore.Lipo>
112.5105

> <Gold.Chemscore.Internal_Hbond>
0.0000

> <Gold.Chemscore.DEClash>
0.0498

> <Gold.Chemscore.DEInternal>
1.3102

> <Gold.Chemscore.Rot>
2.4825

> <Gold.Chemscore.Internal.Correction>
   9.000000E+99

> <Gold.Chemscore.Hbonds>
donor molecule, donor type, donor heavy atom, donor atom, acceptor molecule, acceptor atom, score
      L1  H     5    42       P1  8028  0.91
      P1  H  6931  6943       L1    20  0.64

> <Gold.Chemscore.Hbond.Weighted>
-5.7154

> <Gold.Chemscore.Metal.Weighted>
-0.0000

> <Gold.Chemscore.Lipo.Weighted>
-13.1637

> <Gold.Chemscore.Internal_Hbond.Weighted>
0.0000

> <Gold.Chemscore.DEClash.Weighted>
0.0498

> <Gold.Chemscore.DEInternal.Weighted>
1.3102

> <Gold.Chemscore.Rot.Weighted>
6.3551

> <Gold.Chemscore.Internal.Correction.Weighted>
   9.000000E+99

> <Gold.Protein.RotatedTorsions>
[ 6907 6896 6895 6894 ] final  -37.50 input  -60.11 | X-H torsion
[ 7974 7965 7964 7962 ] final -102.70 input  175.53 | X-H torsion
[ 8008 7997 7996 7995 ] final -101.79 input   59.86 | X-H torsion
[ 10167 10162 10161 10158 ] final -102.25 input  -65.29 | X-H torsion
[ 10718 10713 10712 10709 ] final   13.52 input   66.30 | X-H torsion
[ 10763 10752 10751 10750 ] final    6.29 input  -60.55 | X-H torsion
[ 11005 11000 10999 10996 ] final  -35.52 input  -57.11 | X-H torsion

> <Gold.Protein.ActiveResidues>
 VAL166  LYS551  ARG553  GLY616  TRP617  ASP618  TYR619  PRO620  LYS621  CYS622 
 ASP623  PHE694  ASN695  SER759  ASP760  ASP761  ALA762  ILE779  LEU786  VAL792 
 PHE793  MET794  SER795  GLU796  ALA797  LYS798  CYS799  TRP800  GLU811  SER814 

> <Gold.Protein.RotatedAtoms>
  151.0140  134.9418  159.8022 H   0  0  0  0  0  0  0  0  0  0  0  0  # atno 6907 bound_to 6896
  152.5309  134.2991  159.9082 H   0  0  0  0  0  0  0  0  0  0  0  0  # atno 6908 bound_to 6896
  151.2997  133.4086  159.2673 H   0  0  0  0  0  0  0  0  0  0  0  0  # atno 6909 bound_to 6896
  145.2654  140.9282  143.3017 H   0  0  0  0  0  0  0  0  0  0  0  0  # atno 7974 bound_to 7965
  154.8475  140.0432  157.1582 H   0  0  0  0  0  0  0  0  0  0  0  0  # atno 8008 bound_to 7997
  154.8979  140.2996  155.5313 H   0  0  0  0  0  0  0  0  0  0  0  0  # atno 8009 bound_to 7997
  156.2995  140.2381  156.4004 H   0  0  0  0  0  0  0  0  0  0  0  0  # atno 8010 bound_to 7997
  140.2327  143.3595  152.0872 H   0  0  0  0  0  0  0  0  0  0  0  0  # atno 10167 bound_to 10162
  157.0258  130.6173  149.5728 H   0  0  0  0  0  0  0  0  0  0  0  0  # atno 10718 bound_to 10713
  153.2495  135.6912  153.7695 H   0  0  0  0  0  0  0  0  0  0  0  0  # atno 10763 bound_to 10752
  153.6795  135.3331  155.3175 H   0  0  0  0  0  0  0  0  0  0  0  0  # atno 10764 bound_to 10752
  154.8388  135.4519  154.1446 H   0  0  0  0  0  0  0  0  0  0  0  0  # atno 10765 bound_to 10752
  140.9803  133.7060  156.1672 H   0  0  0  0  0  0  0  0  0  0  0  0  # atno 11005 bound_to 11000
  144.9382  139.4220  143.6462 LP  0  0  0  0  0  0  0  0  0  0  0  0  # atno 17320 bound_to 7965
  146.3263  139.8328  142.8905 LP  0  0  0  0  0  0  0  0  0  0  0  0  # atno 17321 bound_to 7965
  139.5104  144.6884  151.5826 LP  0  0  0  0  0  0  0  0  0  0  0  0  # atno 17342 bound_to 10162
  140.6173  143.9325  150.6498 LP  0  0  0  0  0  0  0  0  0  0  0  0  # atno 17343 bound_to 10162
  156.0086  130.5176  150.7914 LP  0  0  0  0  0  0  0  0  0  0  0  0  # atno 17370 bound_to 10713
  157.5215  131.0932  151.0072 LP  0  0  0  0  0  0  0  0  0  0  0  0  # atno 17371 bound_to 10713
  140.7197  134.4372  157.5576 LP  0  0  0  0  0  0  0  0  0  0  0  0  # atno 17394 bound_to 11000
  139.8947  134.8700  156.2164 LP  0  0  0  0  0  0  0  0  0  0  0  0  # atno 17395 bound_to 11000

$$$$
