AV-unprocessed.smi:3111|AV-procd|sdf|11834|dock10
  -GOLD-   2272017213D 1   1.00000     0.00000
 Structure written by MMmdl.
 30 30  0  0  0  0  0  0  0  0  2 V2000
  145.9035  135.7144  150.8603 C   0  0  0  0  0  0  0  0  0  0  0  0
  146.6111  135.9410  152.1110 N   0  0  0  0  0  0  0  0  0  0  0  0
  146.0376  136.4118  153.2271 C   0  0  0  0  0  0  0  0  0  0  0  0
  144.8399  136.6906  153.3024 O   0  0  0  0  0  0  0  0  0  0  0  0
  146.9578  136.5695  154.4443 C   0  0  0  0  0  0  0  0  0  0  0  0
  148.1380  137.3832  154.1613 N   0  0  0  0  0  0  0  0  0  0  0  0
  148.5314  138.4484  154.8779 C   0  0  0  0  0  0  0  0  0  0  0  0
  147.9057  138.8745  155.8492 O   0  0  0  0  0  0  0  0  0  0  0  0
  149.8248  139.1405  154.4210 C   0  0  2  0  0  0  0  0  0  0  0  0
  151.0524  138.2137  154.5069 C   0  0  0  0  0  0  0  0  0  0  0  0
  150.0348  140.3948  155.1628 N   0  0  0  0  0  0  0  0  0  0  0  0
  151.0853  140.6934  155.9939 C   0  0  0  0  0  0  0  0  0  0  0  0
  150.8731  141.9670  156.4555 C   0  0  0  0  0  0  0  0  0  0  0  0
  149.7050  142.3962  155.8856 N   0  3  0  0  0  0  0  0  0  0  0  0
  149.1973  141.4415  155.0996 C   0  0  0  0  0  0  0  0  0  0  0  0
  146.6022  135.3831  150.0918 H   0  0  0  0  0  0  0  0  0  0  0  0
  145.4234  136.6300  150.5119 H   0  0  0  0  0  0  0  0  0  0  0  0
  145.1400  134.9448  150.9821 H   0  0  0  0  0  0  0  0  0  0  0  0
  147.5985  135.7298  152.1283 H   0  0  0  0  0  0  0  0  0  0  0  0
  146.3938  137.0503  155.2435 H   0  0  0  0  0  0  0  0  0  0  0  0
  147.2574  135.5887  154.8183 H   0  0  0  0  0  0  0  0  0  0  0  0
  148.7111  137.0945  153.3818 H   0  0  0  0  0  0  0  0  0  0  0  0
  149.6989  139.4152  153.3721 H   0  0  0  0  0  0  0  0  0  0  0  0
  150.8986  137.3039  153.9252 H   0  0  0  0  0  0  0  0  0  0  0  0
  151.2716  137.9156  155.5329 H   0  0  0  0  0  0  0  0  0  0  0  0
  151.9402  138.7071  154.1104 H   0  0  0  0  0  0  0  0  0  0  0  0
  151.8860  139.9955  156.1917 H   0  0  0  0  0  0  0  0  0  0  0  0
  151.4515  142.5840  157.1278 H   0  0  0  0  0  0  0  0  0  0  0  0
  148.2904  141.5047  154.5244 H   0  0  0  0  0  0  0  0  0  0  0  0
  149.2843  143.3050  156.0340 H   0  0  0  0  0  0  0  0  0  0  0  0
  1  2  1  0  0  0  0
  1 16  1  0  0  0  0
  1 17  1  0  0  0  0
  1 18  1  0  0  0  0
  2  3  1  0  0  0  0
  2 19  1  0  0  0  0
  3  4  2  0  0  0  0
  3  5  1  0  0  0  0
  5  6  1  0  0  0  0
  5 20  1  0  0  0  0
  5 21  1  0  0  0  0
  6  7  1  0  0  0  0
  6 22  1  0  0  0  0
  7  8  2  0  0  0  0
  7  9  1  0  0  0  0
  9 10  1  0  0  0  0
  9 11  1  0  0  0  0
  9 23  1  0  0  0  0
 10 24  1  0  0  0  0
 10 25  1  0  0  0  0
 10 26  1  0  0  0  0
 11 15  1  0  0  0  0
 11 12  1  0  0  0  0
 12 13  2  0  0  0  0
 12 27  1  0  0  0  0
 13 14  1  0  0  0  0
 13 28  1  0  0  0  0
 14 15  2  0  0  0  0
 14 30  1  0  0  0  0
 15 29  1  0  0  0  0
M  CHG  1  14   1
M  END
> <s_m_source_file>
AV-unprocessed.smi

> <i_m_source_file_index>
3111

> <i_lp_mmshare_version>
43012

> <i_f3d_flags>
0

> <s_epik_input>
W0NIM11bTkhdQyg9TylbQ0gyXVtOSF1DKD1PKVtDQEhdKFtDSDNdKW4xW2NIXVtjSF1uW2NIXTE=

> <s_epik_cmdline>
J2VwaWtfcHl0aG9uJywgJy1waCcsICc3LjAnLCAnLXRuJywgJzgnLCAnLW1hJywgJzIwMCcsICctbWV0YWxfYmluZGluZycsICctaW1hZScsICc8aW5maWxlLm1hZT4nLCAnLW9tYWUnLCAnPG91dGZpbGUubWFlPic=

> <r_lp_tautomer_probability>
1

> <r_epik_Ionization_Penalty>
0.581414

> <r_epik_Ionization_Penalty_Charging>
0

> <r_epik_Ionization_Penalty_Neutral>
0.581414

> <r_epik_State_Penalty>
0.594207

> <r_epik_Charging_Adjusted_Penalty>
0.594207

> <i_epik_Tot_Q>
1

> <i_epik_Tot_abs_Q>
1

> <r_epik_Metal_State_Penalty>
0.784638

> <b_epik_Metal_Only>
0

> <s_lp_Force_Field>
OPLS_2005

> <r_lp_Energy>
6.41512

> <b_lp_Chiralities_Consistent>
1

> <s_lp_Variant>
AV-unprocessed.smi:3111-3

> <Gold.Version>
5.8.1

> <Gold.Id.Protein>
6NUR|6NUR_protein|mol2

> <Gold.PLP.Fitness>
37.2368

> <Gold.PLP.PLP>
-25.5815

> <Gold.PLP.part.hbond>
-3.0000

> <Gold.PLP.part.metal>
0.0000

> <Gold.PLP.part.buried>
-3.6047

> <Gold.PLP.part.nonpolar>
-19.7459

> <Gold.PLP.part.repulsive>
0.3050

> <Gold.PLP.ligand.clash>
0.0000

> <Gold.PLP.ligand.torsion>
0.2141

> <Gold.PLP.Chemscore.Hbond>
4.0000

> <Gold.PLP.Chemscore.CHOScore>
0.0000

> <Gold.PLP.Chemscore.Metal>
0.0000

> <Gold.Chemscore.Hbonds>
donor molecule, donor type, donor heavy atom, donor atom, acceptor molecule, acceptor atom, score
      L1  H     2    19       P1  7948  0.72
      L1  H     6    22       P1  7948  1.00
      L1  H    14    30       P1  8028  1.95

> <Gold.PLP.Chemscore.Internal.Correction>
0.0835

> <Gold.Rescore>
     Score         DG    S(hbond)    S(metal)    S(lipo)     H(rot)  DE(clash)    DE(int)     intcor
     13.46     -14.20       2.99        0.00      40.09       2.33       0.01       0.73       ----

> <Gold.Chemscore.Fitness>
13.4614

> <Gold.Chemscore.DG>
-14.1966

> <Gold.Chemscore.ZeroCoef>
-5.4800

> <Gold.Chemscore.Hbond>
2.9920

> <Gold.Chemscore.Metal>
0.0000

> <Gold.Chemscore.Lipo>
40.0935

> <Gold.Chemscore.Internal_Hbond>
0.0000

> <Gold.Chemscore.DEClash>
0.0085

> <Gold.Chemscore.DEInternal>
0.7267

> <Gold.Chemscore.Rot>
2.3311

> <Gold.Chemscore.Internal.Correction>
   9.000000E+99

> <Gold.Chemscore.Hbonds>
donor molecule, donor type, donor heavy atom, donor atom, acceptor molecule, acceptor atom, score
      L1  H     2    19       P1  7948  0.69
      L1  H     6    22       P1  7948  0.97
      L1  H    14    30       P1  8028  0.90

> <Gold.Chemscore.Hbond.Weighted>
-9.9932

> <Gold.Chemscore.Metal.Weighted>
-0.0000

> <Gold.Chemscore.Lipo.Weighted>
-4.6909

> <Gold.Chemscore.Internal_Hbond.Weighted>
0.0000

> <Gold.Chemscore.DEClash.Weighted>
0.0085

> <Gold.Chemscore.DEInternal.Weighted>
0.7267

> <Gold.Chemscore.Rot.Weighted>
5.9676

> <Gold.Chemscore.Internal.Correction.Weighted>
   9.000000E+99

> <Gold.Protein.RotatedTorsions>
[ 6907 6896 6895 6894 ] final  -54.73 input  -60.11 | X-H torsion
[ 7974 7965 7964 7962 ] final  -88.25 input  175.53 | X-H torsion
[ 8008 7997 7996 7995 ] final  169.47 input   59.86 | X-H torsion
[ 10167 10162 10161 10158 ] final -140.34 input  -65.29 | X-H torsion
[ 10718 10713 10712 10709 ] final   63.72 input   66.30 | X-H torsion
[ 10763 10752 10751 10750 ] final  179.97 input  -60.55 | X-H torsion
[ 11005 11000 10999 10996 ] final    2.62 input  -57.11 | X-H torsion

> <Gold.Protein.ActiveResidues>
 VAL166  LYS551  ARG553  GLY616  TRP617  ASP618  TYR619  PRO620  LYS621  CYS622 
 ASP623  PHE694  ASN695  SER759  ASP760  ASP761  ALA762  ILE779  LEU786  VAL792 
 PHE793  MET794  SER795  GLU796  ALA797  LYS798  CYS799  TRP800  GLU811  SER814 

> <Gold.Protein.RotatedAtoms>
  150.8312  134.7566  159.6855 H   0  0  0  0  0  0  0  0  0  0  0  0  # atno 6907 bound_to 6896
  152.4416  134.5575  159.9894 H   0  0  0  0  0  0  0  0  0  0  0  0  # atno 6908 bound_to 6896
  151.5735  133.3349  159.3030 H   0  0  0  0  0  0  0  0  0  0  0  0  # atno 6909 bound_to 6896
  145.4556  140.9561  143.1998 H   0  0  0  0  0  0  0  0  0  0  0  0  # atno 7974 bound_to 7965
  156.1454  140.1563  156.8855 H   0  0  0  0  0  0  0  0  0  0  0  0  # atno 8008 bound_to 7997
  154.5023  140.0822  156.7862 H   0  0  0  0  0  0  0  0  0  0  0  0  # atno 8009 bound_to 7997
  155.3999  140.3414  155.4258 H   0  0  0  0  0  0  0  0  0  0  0  0  # atno 8010 bound_to 7997
  139.8291  143.7471  152.2666 H   0  0  0  0  0  0  0  0  0  0  0  0  # atno 10167 bound_to 10162
  157.5991  130.9121  149.9753 H   0  0  0  0  0  0  0  0  0  0  0  0  # atno 10718 bound_to 10713
  154.5275  135.2797  155.1209 H   0  0  0  0  0  0  0  0  0  0  0  0  # atno 10763 bound_to 10752
  154.2742  135.6298  153.5325 H   0  0  0  0  0  0  0  0  0  0  0  0  # atno 10764 bound_to 10752
  152.9950  135.5635  154.5780 H   0  0  0  0  0  0  0  0  0  0  0  0  # atno 10765 bound_to 10752
  140.6022  133.9825  155.8137 H   0  0  0  0  0  0  0  0  0  0  0  0  # atno 11005 bound_to 11000
  144.8034  139.6097  143.7061 LP  0  0  0  0  0  0  0  0  0  0  0  0  # atno 17320 bound_to 7965
  146.2480  139.6138  142.9446 LP  0  0  0  0  0  0  0  0  0  0  0  0  # atno 17321 bound_to 7965
  139.7673  144.7488  151.0276 LP  0  0  0  0  0  0  0  0  0  0  0  0  # atno 17342 bound_to 10162
  140.7808  143.4684  151.0180 LP  0  0  0  0  0  0  0  0  0  0  0  0  # atno 17343 bound_to 10162
  156.1060  130.3652  150.0133 LP  0  0  0  0  0  0  0  0  0  0  0  0  # atno 17370 bound_to 10713
  156.8240  130.9369  151.3640 LP  0  0  0  0  0  0  0  0  0  0  0  0  # atno 17371 bound_to 10713
  141.0864  133.9983  157.3306 LP  0  0  0  0  0  0  0  0  0  0  0  0  # atno 17394 bound_to 11000
  139.9227  135.0201  156.8124 LP  0  0  0  0  0  0  0  0  0  0  0  0  # atno 17395 bound_to 11000

$$$$
