AV-unprocessed.smi:1047|AV-procd|sdf|4569|dock3
  -GOLD-   22720 3 23D 1   1.00000     0.00000
 Structure written by MMmdl.
 56 58  0  0  0  0  0  0  0  0  2 V2000
  145.8803  131.7208  150.7779 C   0  0  0  0  0  0  0  0  0  0  0  0
  146.0943  132.7036  151.9381 C   0  0  0  0  0  0  0  0  0  0  0  0
  147.4362  132.6894  152.5187 N   0  0  0  0  0  0  0  0  0  0  0  0
  147.7235  131.3995  153.1359 C   0  0  0  0  0  0  0  0  0  0  0  0
  149.1296  131.3616  153.7560 C   0  0  0  0  0  0  0  0  0  0  0  0
  149.2582  132.4182  154.7014 O   0  0  0  0  0  0  0  0  0  0  0  0
  149.0415  133.7066  154.1307 C   0  0  2  0  0  0  0  0  0  0  0  0
  149.2067  134.7544  155.2395 C   0  0  0  0  0  0  0  0  0  0  0  0
  149.0012  136.1209  154.7197 N   0  3  0  0  0  0  0  0  0  0  0  0
  149.6907  137.1660  155.5012 C   0  0  0  0  0  0  0  0  0  0  0  0
  150.8418  137.8046  154.7017 C   0  0  2  0  0  0  0  0  0  0  0  0
  151.5807  136.7783  154.0676 O   0  0  0  0  0  0  0  0  0  0  0  0
  151.7971  138.6551  155.5681 C   0  0  0  0  0  0  0  0  0  0  0  0
  151.2537  139.9551  155.9286 N   0  0  0  0  0  0  0  0  0  0  0  0
  150.2958  140.6429  155.2767 C   0  0  0  0  0  0  0  0  0  0  0  0
  149.9531  141.8284  155.7712 N   0  0  0  0  0  0  0  0  0  0  0  0
  150.7760  141.9170  156.8806 C   0  0  0  0  0  0  0  0  0  0  0  0
  150.9110  142.9422  157.8423 C   0  0  0  0  0  0  0  0  0  0  0  0
  151.8330  142.8213  158.9062 C   0  0  0  0  0  0  0  0  0  0  0  0
  151.9505  143.9515  159.9135 C   0  0  0  0  0  0  0  0  0  0  0  0
  152.6345  141.6574  159.0228 C   0  0  0  0  0  0  0  0  0  0  0  0
  153.6319  141.5055  160.1578 C   0  0  0  0  0  0  0  0  0  0  0  0
  152.5102  140.6225  158.0726 C   0  0  0  0  0  0  0  0  0  0  0  0
  151.5955  140.7579  157.0129 C   0  0  0  0  0  0  0  0  0  0  0  0
  147.6290  133.7435  153.5119 C   0  0  0  0  0  0  0  0  0  0  0  0
  144.8329  131.7092  150.4759 H   0  0  0  0  0  0  0  0  0  0  0  0
  146.1518  130.7052  151.0675 H   0  0  0  0  0  0  0  0  0  0  0  0
  146.4661  131.9910  149.8996 H   0  0  0  0  0  0  0  0  0  0  0  0
  145.8411  133.7133  151.6109 H   0  0  0  0  0  0  0  0  0  0  0  0
  145.3725  132.4511  152.7158 H   0  0  0  0  0  0  0  0  0  0  0  0
  146.9834  131.1858  153.9088 H   0  0  0  0  0  0  0  0  0  0  0  0
  147.6364  130.6050  152.3936 H   0  0  0  0  0  0  0  0  0  0  0  0
  149.2967  130.4096  154.2598 H   0  0  0  0  0  0  0  0  0  0  0  0
  149.8959  131.4571  152.9851 H   0  0  0  0  0  0  0  0  0  0  0  0
  149.7822  133.8864  153.3493 H   0  0  0  0  0  0  0  0  0  0  0  0
  148.4796  134.5720  156.0318 H   0  0  0  0  0  0  0  0  0  0  0  0
  150.1981  134.6747  155.6877 H   0  0  0  0  0  0  0  0  0  0  0  0
  149.3449  136.1574  153.7701 H   0  0  0  0  0  0  0  0  0  0  0  0
  148.9596  137.9314  155.7633 H   0  0  0  0  0  0  0  0  0  0  0  0
  150.0574  136.7381  156.4356 H   0  0  0  0  0  0  0  0  0  0  0  0
  150.4255  138.4456  153.9235 H   0  0  0  0  0  0  0  0  0  0  0  0
  151.2172  136.6305  153.2075 H   0  0  0  0  0  0  0  0  0  0  0  0
  152.0512  138.1206  156.4846 H   0  0  0  0  0  0  0  0  0  0  0  0
  152.7371  138.8128  155.0382 H   0  0  0  0  0  0  0  0  0  0  0  0
  149.8303  140.2547  154.3821 H   0  0  0  0  0  0  0  0  0  0  0  0
  150.2994  143.8281  157.7541 H   0  0  0  0  0  0  0  0  0  0  0  0
  151.7422  143.5909  160.9211 H   0  0  0  0  0  0  0  0  0  0  0  0
  151.2466  144.7548  159.6949 H   0  0  0  0  0  0  0  0  0  0  0  0
  152.9557  144.3737  159.8967 H   0  0  0  0  0  0  0  0  0  0  0  0
  154.1571  140.5516  160.1019 H   0  0  0  0  0  0  0  0  0  0  0  0
  153.1246  141.5508  161.1216 H   0  0  0  0  0  0  0  0  0  0  0  0
  154.3770  142.3006  160.1203 H   0  0  0  0  0  0  0  0  0  0  0  0
  153.1150  139.7317  158.1524 H   0  0  0  0  0  0  0  0  0  0  0  0
  147.4742  134.7208  153.0552 H   0  0  0  0  0  0  0  0  0  0  0  0
  146.8825  133.6461  154.3020 H   0  0  0  0  0  0  0  0  0  0  0  0
  148.0112  136.3207  154.7112 H   0  0  0  0  0  0  0  0  0  0  0  0
  1  2  1  0  0  0  0
  1 26  1  0  0  0  0
  1 27  1  0  0  0  0
  1 28  1  0  0  0  0
  2  3  1  0  0  0  0
  2 29  1  0  0  0  0
  2 30  1  0  0  0  0
  3 25  1  0  0  0  0
  3  4  1  0  0  0  0
  4  5  1  0  0  0  0
  4 31  1  0  0  0  0
  4 32  1  0  0  0  0
  5  6  1  0  0  0  0
  5 33  1  0  0  0  0
  5 34  1  0  0  0  0
  6  7  1  0  0  0  0
  7  8  1  0  0  0  0
  7 25  1  0  0  0  0
  7 35  1  0  0  0  0
  8  9  1  0  0  0  0
  8 36  1  0  0  0  0
  8 37  1  0  0  0  0
  9 10  1  0  0  0  0
  9 38  1  0  0  0  0
  9 56  1  0  0  0  0
 10 11  1  0  0  0  0
 10 39  1  0  0  0  0
 10 40  1  0  0  0  0
 11 12  1  0  0  0  0
 11 13  1  0  0  0  0
 11 41  1  0  0  0  0
 12 42  1  0  0  0  0
 13 14  1  0  0  0  0
 13 43  1  0  0  0  0
 13 44  1  0  0  0  0
 14 24  1  0  0  0  0
 14 15  1  0  0  0  0
 15 16  2  0  0  0  0
 15 45  1  0  0  0  0
 16 17  1  0  0  0  0
 17 24  2  0  0  0  0
 17 18  1  0  0  0  0
 18 19  2  0  0  0  0
 18 46  1  0  0  0  0
 19 20  1  0  0  0  0
 19 21  1  0  0  0  0
 20 47  1  0  0  0  0
 20 48  1  0  0  0  0
 20 49  1  0  0  0  0
 21 22  1  0  0  0  0
 21 23  2  0  0  0  0
 22 50  1  0  0  0  0
 22 51  1  0  0  0  0
 22 52  1  0  0  0  0
 23 24  1  0  0  0  0
 23 53  1  0  0  0  0
 25 54  1  0  0  0  0
 25 55  1  0  0  0  0
M  CHG  1   9   1
M  END
> <s_m_source_file>
AV-unprocessed.smi

> <i_m_source_file_index>
1047

> <i_lp_mmshare_version>
43012

> <i_f3d_flags>
0

> <s_epik_input>
W0NIM11bQ0gyXU4xW0NIMl1bQ0gyXU9bQ0BIXShbQ0gyXTEpW0NIMl1bTkhdW0NIMl1bQ0BIXShbT0hdKVtDSDJdbihbY0hdbjIpYyhjMjMpW2NIXWMoW0NIM10pYyhbY0hdMylbQ0gzXQ==

> <s_epik_cmdline>
J2VwaWtfcHl0aG9uJywgJy1waCcsICc3LjAnLCAnLXRuJywgJzgnLCAnLW1hJywgJzIwMCcsICctbWV0YWxfYmluZGluZycsICctaW1hZScsICc8aW5maWxlLm1hZT4nLCAnLW9tYWUnLCAnPG91dGZpbGUubWFlPic=

> <r_epik_Ionization_Penalty>
0.692425

> <r_epik_Ionization_Penalty_Charging>
0.0243549

> <r_epik_Ionization_Penalty_Neutral>
0.66807

> <r_epik_State_Penalty>
0.592789

> <r_epik_Charging_Adjusted_Penalty>
0.617144

> <i_epik_Tot_Q>
1

> <i_epik_Tot_abs_Q>
1

> <r_epik_Metal_State_Penalty>
0.508021

> <b_epik_Metal_Only>
0

> <s_lp_Force_Field>
OPLS_2005

> <r_lp_Energy>
30.0257

> <b_lp_Chiralities_Consistent>
1

> <s_lp_Variant>
AV-unprocessed.smi:1047-10

> <Gold.Version>
5.8.1

> <Gold.Id.Protein>
6NUR|6NUR_protein|mol2

> <Gold.PLP.Fitness>
58.6575

> <Gold.PLP.PLP>
-48.5244

> <Gold.PLP.part.hbond>
-3.0000

> <Gold.PLP.part.metal>
0.0000

> <Gold.PLP.part.buried>
-4.5836

> <Gold.PLP.part.nonpolar>
-41.2857

> <Gold.PLP.part.repulsive>
0.8003

> <Gold.PLP.ligand.clash>
0.0000

> <Gold.PLP.ligand.torsion>
1.0969

> <Gold.PLP.Chemscore.Hbond>
4.0000

> <Gold.PLP.Chemscore.CHOScore>
0.0000

> <Gold.PLP.Chemscore.Metal>
0.0000

> <Gold.Chemscore.Hbonds>
donor molecule, donor type, donor heavy atom, donor atom, acceptor molecule, acceptor atom, score
      L1  H     9    38       P1  7948  2.00
      L1  H    12    42       P1  7949  1.00
      P1  H 10752 10765       L1    12  1.00

> <Gold.PLP.Chemscore.Internal.Correction>
0.3269

> <Gold.Rescore>
     Score         DG    S(hbond)    S(metal)    S(lipo)     H(rot)  DE(clash)    DE(int)     intcor
     19.19     -20.51       2.07        0.00     126.48       2.60       0.24       1.08       ----

> <Gold.Chemscore.Fitness>
19.1947

> <Gold.Chemscore.DG>
-20.5121

> <Gold.Chemscore.ZeroCoef>
-5.4800

> <Gold.Chemscore.Hbond>
2.0666

> <Gold.Chemscore.Metal>
0.0000

> <Gold.Chemscore.Lipo>
126.4806

> <Gold.Chemscore.Internal_Hbond>
0.0000

> <Gold.Chemscore.DEClash>
0.2364

> <Gold.Chemscore.DEInternal>
1.0809

> <Gold.Chemscore.Rot>
2.6049

> <Gold.Chemscore.Internal.Correction>
   9.000000E+99

> <Gold.Chemscore.Hbonds>
donor molecule, donor type, donor heavy atom, donor atom, acceptor molecule, acceptor atom, score
      L1  H     9    38       P1  7948  0.74
      L1  H    12    42       P1  7949  0.54
      P1  H 10752 10765       L1    12  0.40

> <Gold.Chemscore.Hbond.Weighted>
-6.9023

> <Gold.Chemscore.Metal.Weighted>
-0.0000

> <Gold.Chemscore.Lipo.Weighted>
-14.7982

> <Gold.Chemscore.Internal_Hbond.Weighted>
0.0000

> <Gold.Chemscore.DEClash.Weighted>
0.2364

> <Gold.Chemscore.DEInternal.Weighted>
1.0809

> <Gold.Chemscore.Rot.Weighted>
6.6685

> <Gold.Chemscore.Internal.Correction.Weighted>
   9.000000E+99

> <Gold.Protein.RotatedTorsions>
[ 6907 6896 6895 6894 ] final   50.25 input  -60.11 | X-H torsion
[ 7974 7965 7964 7962 ] final   50.37 input  175.53 | X-H torsion
[ 8008 7997 7996 7995 ] final   57.98 input   59.86 | X-H torsion
[ 10167 10162 10161 10158 ] final   19.99 input  -65.29 | X-H torsion
[ 10718 10713 10712 10709 ] final -142.82 input   66.30 | X-H torsion
[ 10763 10752 10751 10750 ] final  149.33 input  -60.55 | X-H torsion
[ 11005 11000 10999 10996 ] final    2.18 input  -57.11 | X-H torsion

> <Gold.Protein.ActiveResidues>
 VAL166  LYS551  ARG553  GLY616  TRP617  ASP618  TYR619  PRO620  LYS621  CYS622 
 ASP623  PHE694  ASN695  SER759  ASP760  ASP761  ALA762  ILE779  LEU786  VAL792 
 PHE793  MET794  SER795  GLU796  ALA797  LYS798  CYS799  TRP800  GLU811  SER814 

> <Gold.Protein.RotatedAtoms>
  152.2998  134.7625  160.0360 H   0  0  0  0  0  0  0  0  0  0  0  0  # atno 6907 bound_to 6896
  151.8142  133.3380  159.3572 H   0  0  0  0  0  0  0  0  0  0  0  0  # atno 6908 bound_to 6896
  150.7268  134.5565  159.5865 H   0  0  0  0  0  0  0  0  0  0  0  0  # atno 6909 bound_to 6896
  146.0018  139.4447  143.0010 H   0  0  0  0  0  0  0  0  0  0  0  0  # atno 7974 bound_to 7965
  155.5426  140.3484  155.4450 H   0  0  0  0  0  0  0  0  0  0  0  0  # atno 8008 bound_to 7997
  156.0640  140.1347  156.9933 H   0  0  0  0  0  0  0  0  0  0  0  0  # atno 8009 bound_to 7997
  154.4494  140.0979  156.6545 H   0  0  0  0  0  0  0  0  0  0  0  0  # atno 8010 bound_to 7997
  140.5537  143.9463  150.6595 H   0  0  0  0  0  0  0  0  0  0  0  0  # atno 10167 bound_to 10162
  156.3505  130.7685  151.1837 H   0  0  0  0  0  0  0  0  0  0  0  0  # atno 10718 bound_to 10713
  154.0694  135.2868  155.3311 H   0  0  0  0  0  0  0  0  0  0  0  0  # atno 10763 bound_to 10752
  154.6756  135.5283  153.8198 H   0  0  0  0  0  0  0  0  0  0  0  0  # atno 10764 bound_to 10752
  153.0491  135.6568  154.0877 H   0  0  0  0  0  0  0  0  0  0  0  0  # atno 10765 bound_to 10752
  140.6071  133.9782  155.8159 H   0  0  0  0  0  0  0  0  0  0  0  0  # atno 11005 bound_to 11000
  145.7476  140.9985  143.1267 LP  0  0  0  0  0  0  0  0  0  0  0  0  # atno 17320 bound_to 7965
  144.6922  139.9175  143.7466 LP  0  0  0  0  0  0  0  0  0  0  0  0  # atno 17321 bound_to 7965
  140.2895  143.3334  152.1075 LP  0  0  0  0  0  0  0  0  0  0  0  0  # atno 17342 bound_to 10162
  139.5038  144.6763  151.6119 LP  0  0  0  0  0  0  0  0  0  0  0  0  # atno 17343 bound_to 10162
  157.7460  131.0429  150.4717 LP  0  0  0  0  0  0  0  0  0  0  0  0  # atno 17370 bound_to 10713
  156.4911  130.4095  149.6406 LP  0  0  0  0  0  0  0  0  0  0  0  0  # atno 17371 bound_to 10713
  141.0833  134.0029  157.3353 LP  0  0  0  0  0  0  0  0  0  0  0  0  # atno 17394 bound_to 11000
  139.9207  135.0200  156.8055 LP  0  0  0  0  0  0  0  0  0  0  0  0  # atno 17395 bound_to 11000

$$$$
