AV-unprocessed.smi:3132|AV-procd|sdf|11935|dock8
  -GOLD-   2272017323D 1   1.00000     0.00000
 Structure written by MMmdl.
 33 34  0  0  0  0  0  0  0  0  1 V2000
  152.1915  140.0781  157.6066 C   0  0  0  0  0  0  0  0  0  0  0  0
  151.4032  141.3847  157.4285 C   0  0  2  0  0  0  0  0  0  0  0  0
  150.8306  141.8865  158.7676 C   0  0  0  0  0  0  0  0  0  0  0  0
  151.2825  143.2272  159.0933 N   0  0  0  0  0  0  0  0  0  0  0  0
  151.9699  143.6274  160.2319 C   0  0  0  0  0  0  0  0  0  0  0  0
  152.1805  144.9820  160.1078 C   0  0  0  0  0  0  0  0  0  0  0  0
  151.6378  145.4329  158.9069 N   0  0  0  0  0  0  0  0  0  0  0  0
  151.1247  144.3380  158.3608 C   0  0  0  0  0  0  0  0  0  0  0  0
  150.3210  141.1852  156.4674 N   0  0  0  0  0  0  0  0  0  0  0  0
  150.4164  140.5191  155.3058 C   0  0  0  0  0  0  0  0  0  0  0  0
  151.4534  139.9736  154.9278 O   0  0  0  0  0  0  0  0  0  0  0  0
  149.1615  140.4743  154.4220 C   0  0  1  0  0  0  0  0  0  0  0  0
  147.9109  139.9173  155.1292 C   0  0  0  0  0  0  0  0  0  0  0  0
  146.8860  141.0312  155.0001 C   0  0  0  0  0  0  0  0  0  0  0  0
  147.4010  141.8256  153.8084 C   0  0  0  0  0  0  0  0  0  0  0  0
  148.8039  141.7913  154.0037 O   0  0  0  0  0  0  0  0  0  0  0  0
  153.0168  140.2111  158.3066 H   0  0  0  0  0  0  0  0  0  0  0  0
  152.6163  139.7406  156.6605 H   0  0  0  0  0  0  0  0  0  0  0  0
  151.5555  139.2796  157.9902 H   0  0  0  0  0  0  0  0  0  0  0  0
  152.0886  142.1447  157.0486 H   0  0  0  0  0  0  0  0  0  0  0  0
  149.7398  141.8781  158.7479 H   0  0  0  0  0  0  0  0  0  0  0  0
  151.1340  141.2233  159.5788 H   0  0  0  0  0  0  0  0  0  0  0  0
  152.2417  142.9356  161.0157 H   0  0  0  0  0  0  0  0  0  0  0  0
  152.6775  145.6613  160.7846 H   0  0  0  0  0  0  0  0  0  0  0  0
  150.6185  144.3445  157.4065 H   0  0  0  0  0  0  0  0  0  0  0  0
  149.4289  141.6017  156.6930 H   0  0  0  0  0  0  0  0  0  0  0  0
  149.3787  139.8777  153.5346 H   0  0  0  0  0  0  0  0  0  0  0  0
  147.5659  139.0190  154.6161 H   0  0  0  0  0  0  0  0  0  0  0  0
  148.0721  139.6547  156.1757 H   0  0  0  0  0  0  0  0  0  0  0  0
  145.8691  140.6635  154.8605 H   0  0  0  0  0  0  0  0  0  0  0  0
  146.9030  141.6561  155.8938 H   0  0  0  0  0  0  0  0  0  0  0  0
  147.1455  141.3356  152.8676 H   0  0  0  0  0  0  0  0  0  0  0  0
  147.0214  142.8471  153.7845 H   0  0  0  0  0  0  0  0  0  0  0  0
  1  2  1  0  0  0  0
  1 17  1  0  0  0  0
  1 18  1  0  0  0  0
  1 19  1  0  0  0  0
  2  3  1  0  0  0  0
  2  9  1  0  0  0  0
  2 20  1  0  0  0  0
  3  4  1  0  0  0  0
  3 21  1  0  0  0  0
  3 22  1  0  0  0  0
  4  8  1  0  0  0  0
  4  5  1  0  0  0  0
  5  6  2  0  0  0  0
  5 23  1  0  0  0  0
  6  7  1  0  0  0  0
  6 24  1  0  0  0  0
  7  8  2  0  0  0  0
  8 25  1  0  0  0  0
  9 10  1  0  0  0  0
  9 26  1  0  0  0  0
 10 11  2  0  0  0  0
 10 12  1  0  0  0  0
 12 16  1  0  0  0  0
 12 13  1  0  0  0  0
 12 27  1  0  0  0  0
 13 14  1  0  0  0  0
 13 28  1  0  0  0  0
 13 29  1  0  0  0  0
 14 15  1  0  0  0  0
 14 30  1  0  0  0  0
 14 31  1  0  0  0  0
 15 16  1  0  0  0  0
 15 32  1  0  0  0  0
 15 33  1  0  0  0  0
M  END
> <s_m_source_file>
AV-unprocessed.smi

> <i_m_source_file_index>
3132

> <i_lp_mmshare_version>
43012

> <i_f3d_flags>
0

> <s_epik_input>
W2NIXTFuW2NIXVtjSF1uMVtDSDJdW0NAQEhdKFtDSDNdKVtOSF1DKD1PKVtDQEBIXTJbQ0gyXVtDSDJdW0NIMl1PMg==

> <s_epik_cmdline>
J2VwaWtfcHl0aG9uJywgJy1waCcsICc3LjAnLCAnLXRuJywgJzgnLCAnLW1hJywgJzIwMCcsICctbWV0YWxfYmluZGluZycsICctaW1hZScsICc8aW5maWxlLm1hZT4nLCAnLW9tYWUnLCAnPG91dGZpbGUubWFlPic=

> <r_lp_tautomer_probability>
1

> <r_epik_Ionization_Penalty>
0.630322

> <r_epik_Ionization_Penalty_Charging>
0.630322

> <r_epik_Ionization_Penalty_Neutral>
3.82652e-08

> <r_epik_State_Penalty>
0.647117

> <r_epik_Charging_Adjusted_Penalty>
1.27744

> <i_epik_Tot_Q>
0

> <i_epik_Tot_abs_Q>
0

> <r_epik_Metal_State_Penalty>
0.309095

> <b_epik_Metal_Only>
0

> <s_lp_Force_Field>
OPLS_2005

> <r_lp_Energy>
19.804

> <b_lp_Chiralities_Consistent>
1

> <s_lp_Variant>
AV-unprocessed.smi:3132-7

> <Gold.Version>
5.8.1

> <Gold.Id.Protein>
6NUR|6NUR_protein|mol2

> <Gold.PLP.Fitness>
37.3338

> <Gold.PLP.PLP>
-32.0965

> <Gold.PLP.part.hbond>
-2.7240

> <Gold.PLP.part.metal>
0.0000

> <Gold.PLP.part.buried>
-5.3977

> <Gold.PLP.part.nonpolar>
-24.2169

> <Gold.PLP.part.repulsive>
0.4155

> <Gold.PLP.ligand.clash>
0.0000

> <Gold.PLP.ligand.torsion>
0.9808

> <Gold.PLP.Chemscore.Hbond>
1.3940

> <Gold.PLP.Chemscore.CHOScore>
1.0000

> <Gold.PLP.Chemscore.Metal>
0.0000

> <Gold.Chemscore.Hbonds>
donor molecule, donor type, donor heavy atom, donor atom, acceptor molecule, acceptor atom, score
      P1  H  7989  7998       L1    11  0.85
      P1  H  8011  8017       L1    16  0.52
      L1  C     8    25       P1  8028  1.00

> <Gold.PLP.Chemscore.Internal.Correction>
0.0169

> <Gold.Rescore>
     Score         DG    S(hbond)    S(metal)    S(lipo)     H(rot)  DE(clash)    DE(int)     intcor
      8.96     -11.63       1.13        0.00      61.09       1.86       0.07       2.61       ----

> <Gold.Chemscore.Fitness>
8.9588

> <Gold.Chemscore.DG>
-11.6291

> <Gold.Chemscore.ZeroCoef>
-5.4800

> <Gold.Chemscore.Hbond>
1.1294

> <Gold.Chemscore.Metal>
0.0000

> <Gold.Chemscore.Lipo>
61.0922

> <Gold.Chemscore.Internal_Hbond>
0.0000

> <Gold.Chemscore.DEClash>
0.0653

> <Gold.Chemscore.DEInternal>
2.6050

> <Gold.Chemscore.Rot>
1.8636

> <Gold.Chemscore.Internal.Correction>
   9.000000E+99

> <Gold.Chemscore.Hbonds>
donor molecule, donor type, donor heavy atom, donor atom, acceptor molecule, acceptor atom, score
      P1  H  7989  7998       L1    11  0.15
      P1  H  8011  8017       L1    16  0.33

> <Gold.Chemscore.Hbond.Weighted>
-3.7722

> <Gold.Chemscore.Metal.Weighted>
-0.0000

> <Gold.Chemscore.Lipo.Weighted>
-7.1478

> <Gold.Chemscore.Internal_Hbond.Weighted>
0.0000

> <Gold.Chemscore.DEClash.Weighted>
0.0653

> <Gold.Chemscore.DEInternal.Weighted>
2.6050

> <Gold.Chemscore.Rot.Weighted>
4.7709

> <Gold.Chemscore.Internal.Correction.Weighted>
   9.000000E+99

> <Gold.Protein.RotatedTorsions>
[ 6907 6896 6895 6894 ] final  127.07 input  -60.11 | X-H torsion
[ 7974 7965 7964 7962 ] final -101.70 input  175.53 | X-H torsion
[ 8008 7997 7996 7995 ] final   -4.69 input   59.86 | X-H torsion
[ 10167 10162 10161 10158 ] final -168.69 input  -65.29 | X-H torsion
[ 10718 10713 10712 10709 ] final  139.00 input   66.30 | X-H torsion
[ 10763 10752 10751 10750 ] final   -4.85 input  -60.55 | X-H torsion
[ 11005 11000 10999 10996 ] final -105.94 input  -57.11 | X-H torsion

> <Gold.Protein.ActiveResidues>
 VAL166  LYS551  ARG553  GLY616  TRP617  ASP618  TYR619  PRO620  LYS621  CYS622 
 ASP623  PHE694  ASN695  SER759  ASP760  ASP761  ALA762  ILE779  LEU786  VAL792 
 PHE793  MET794  SER795  GLU796  ALA797  LYS798  CYS799  TRP800  GLU811  SER814 

> <Gold.Protein.RotatedAtoms>
  152.3846  133.6594  159.6188 H   0  0  0  0  0  0  0  0  0  0  0  0  # atno 6907 bound_to 6896
  150.7768  133.9056  159.3363 H   0  0  0  0  0  0  0  0  0  0  0  0  # atno 6908 bound_to 6896
  151.6855  135.0956  160.0275 H   0  0  0  0  0  0  0  0  0  0  0  0  # atno 6909 bound_to 6896
  145.2782  140.9319  143.2947 H   0  0  0  0  0  0  0  0  0  0  0  0  # atno 7974 bound_to 7965
  154.6117  140.2477  155.7661 H   0  0  0  0  0  0  0  0  0  0  0  0  # atno 8008 bound_to 7997
  156.2374  140.2945  156.0301 H   0  0  0  0  0  0  0  0  0  0  0  0  # atno 8009 bound_to 7997
  155.2041  140.0395  157.2913 H   0  0  0  0  0  0  0  0  0  0  0  0  # atno 8010 bound_to 7997
  139.5969  144.1093  152.1699 H   0  0  0  0  0  0  0  0  0  0  0  0  # atno 10167 bound_to 10162
  157.4191  131.1036  151.0372 H   0  0  0  0  0  0  0  0  0  0  0  0  # atno 10718 bound_to 10713
  153.3905  135.7001  153.6498 H   0  0  0  0  0  0  0  0  0  0  0  0  # atno 10763 bound_to 10752
  153.5072  135.3639  155.2569 H   0  0  0  0  0  0  0  0  0  0  0  0  # atno 10764 bound_to 10752
  154.8702  135.4126  154.3221 H   0  0  0  0  0  0  0  0  0  0  0  0  # atno 10765 bound_to 10752
  141.1029  133.8851  157.1795 H   0  0  0  0  0  0  0  0  0  0  0  0  # atno 11005 bound_to 11000
  144.9276  139.4337  143.6511 LP  0  0  0  0  0  0  0  0  0  0  0  0  # atno 17320 bound_to 7965
  146.3225  139.8169  142.8934 LP  0  0  0  0  0  0  0  0  0  0  0  0  # atno 17321 bound_to 7965
  140.0680  144.5802  150.7213 LP  0  0  0  0  0  0  0  0  0  0  0  0  # atno 17342 bound_to 10162
  140.7219  143.2597  151.4250 LP  0  0  0  0  0  0  0  0  0  0  0  0  # atno 17343 bound_to 10162
  157.1309  130.6102  149.5529 LP  0  0  0  0  0  0  0  0  0  0  0  0  # atno 17370 bound_to 10713
  155.9875  130.4914  150.7127 LP  0  0  0  0  0  0  0  0  0  0  0  0  # atno 17371 bound_to 10713
  139.9887  135.0072  156.9924 LP  0  0  0  0  0  0  0  0  0  0  0  0  # atno 17394 bound_to 11000
  140.4976  134.1129  155.7244 LP  0  0  0  0  0  0  0  0  0  0  0  0  # atno 17395 bound_to 11000

$$$$
