AV-unprocessed.smi:1795|AV-procd|sdf|7246|dock4
  -GOLD-   22720 8493D 1   1.00000     0.00000
 Structure written by MMmdl.
 48 49  0  0  0  0  0  0  0  0  2 V2000
  148.5496  141.6206  154.2225 C   0  0  0  0  0  0  0  0  0  0  0  0
  149.0045  140.2272  154.6698 C   0  0  1  0  0  0  0  0  0  0  0  0
  148.4967  139.1204  153.7239 C   0  0  0  0  0  0  0  0  0  0  0  0
  148.9900  137.7808  154.1453 N   0  3  2  0  0  0  0  0  0  0  0  0
  148.3286  137.1437  155.3340 C   0  0  1  0  0  0  0  0  0  0  0  0
  146.7824  137.2010  155.2835 C   0  0  0  0  0  0  0  0  0  0  0  0
  148.7996  135.6752  155.4755 C   0  0  0  0  0  0  0  0  0  0  0  0
  148.6463  134.9238  154.2354 N   0  0  0  0  0  0  0  0  0  0  0  0
  147.9871  133.7611  154.1335 C   0  0  0  0  0  0  0  0  0  0  0  0
  147.4409  133.2140  155.0924 O   0  0  0  0  0  0  0  0  0  0  0  0
  147.9234  133.1452  152.7284 C   0  0  0  0  0  0  0  0  0  0  0  0
  146.5510  132.9953  152.2170 N   0  0  0  0  0  0  0  0  0  0  0  0
  146.1664  131.7114  151.7814 C   0  0  0  0  0  0  0  0  0  0  0  0
  144.9397  131.4643  151.2959 C   0  0  0  0  0  0  0  0  0  0  0  0
  143.9995  132.5579  151.2283 C   0  0  0  0  0  0  0  0  0  0  0  0
  144.3587  133.7909  151.6372 C   0  0  0  0  0  0  0  0  0  0  0  0
  145.7011  134.0670  152.1625 C   0  0  0  0  0  0  0  0  0  0  0  0
  146.0409  135.1918  152.5312 O   0  0  0  0  0  0  0  0  0  0  0  0
  150.4761  137.8235  154.2270 C   0  0  0  0  0  0  0  0  0  0  0  0
  150.9671  138.9760  155.1323 C   0  0  1  0  0  0  0  0  0  0  0  0
  152.4949  139.0959  155.1291 C   0  0  0  0  0  0  0  0  0  0  0  0
  150.4277  140.2074  154.6650 O   0  0  0  0  0  0  0  0  0  0  0  0
  147.4619  141.6947  154.2144 H   0  0  0  0  0  0  0  0  0  0  0  0
  148.9085  141.8508  153.2188 H   0  0  0  0  0  0  0  0  0  0  0  0
  148.9300  142.3894  154.8955 H   0  0  0  0  0  0  0  0  0  0  0  0
  148.6431  140.0542  155.6847 H   0  0  0  0  0  0  0  0  0  0  0  0
  147.4140  139.1488  153.6120 H   0  0  0  0  0  0  0  0  0  0  0  0
  148.8816  139.3128  152.7211 H   0  0  0  0  0  0  0  0  0  0  0  0
  148.6306  137.6861  156.2295 H   0  0  0  0  0  0  0  0  0  0  0  0
  146.3299  136.6966  156.1369 H   0  0  0  0  0  0  0  0  0  0  0  0
  146.3954  136.7244  154.3821 H   0  0  0  0  0  0  0  0  0  0  0  0
  146.4085  138.2241  155.3174 H   0  0  0  0  0  0  0  0  0  0  0  0
  149.8478  135.6511  155.7790 H   0  0  0  0  0  0  0  0  0  0  0  0
  148.2408  135.1481  156.2477 H   0  0  0  0  0  0  0  0  0  0  0  0
  149.0676  135.3102  153.4029 H   0  0  0  0  0  0  0  0  0  0  0  0
  148.5119  133.7712  152.0562 H   0  0  0  0  0  0  0  0  0  0  0  0
  148.4311  132.1788  152.7344 H   0  0  0  0  0  0  0  0  0  0  0  0
  146.9300  130.9508  151.8591 H   0  0  0  0  0  0  0  0  0  0  0  0
  144.6650  130.4749  150.9610 H   0  0  0  0  0  0  0  0  0  0  0  0
  143.0034  132.3861  150.8474 H   0  0  0  0  0  0  0  0  0  0  0  0
  143.6417  134.5968  151.5786 H   0  0  0  0  0  0  0  0  0  0  0  0
  150.8922  136.8765  154.5654 H   0  0  0  0  0  0  0  0  0  0  0  0
  150.8631  137.9704  153.2175 H   0  0  0  0  0  0  0  0  0  0  0  0
  150.6445  138.8161  156.1617 H   0  0  0  0  0  0  0  0  0  0  0  0
  152.9608  138.1820  155.4989 H   0  0  0  0  0  0  0  0  0  0  0  0
  152.8233  139.9163  155.7677 H   0  0  0  0  0  0  0  0  0  0  0  0
  152.8755  139.2834  154.1245 H   0  0  0  0  0  0  0  0  0  0  0  0
  148.7662  137.1667  153.3750 H   0  0  0  0  0  0  0  0  0  0  0  0
  1  2  1  0  0  0  0
  1 23  1  0  0  0  0
  1 24  1  0  0  0  0
  1 25  1  0  0  0  0
  2 22  1  0  0  0  0
  2  3  1  0  0  0  0
  2 26  1  0  0  0  0
  3  4  1  0  0  0  0
  3 27  1  0  0  0  0
  3 28  1  0  0  0  0
  4  5  1  0  0  0  0
  4 19  1  0  0  0  0
  4 48  1  0  0  0  0
  5  6  1  0  0  0  0
  5  7  1  0  0  0  0
  5 29  1  0  0  0  0
  6 30  1  0  0  0  0
  6 31  1  0  0  0  0
  6 32  1  0  0  0  0
  7  8  1  0  0  0  0
  7 33  1  0  0  0  0
  7 34  1  0  0  0  0
  8  9  1  0  0  0  0
  8 35  1  0  0  0  0
  9 10  2  0  0  0  0
  9 11  1  0  0  0  0
 11 12  1  0  0  0  0
 11 36  1  0  0  0  0
 11 37  1  0  0  0  0
 12 17  1  0  0  0  0
 12 13  1  0  0  0  0
 13 14  2  0  0  0  0
 13 38  1  0  0  0  0
 14 15  1  0  0  0  0
 14 39  1  0  0  0  0
 15 16  2  0  0  0  0
 15 40  1  0  0  0  0
 16 17  1  0  0  0  0
 16 41  1  0  0  0  0
 17 18  2  0  0  0  0
 19 20  1  0  0  0  0
 19 42  1  0  0  0  0
 19 43  1  0  0  0  0
 20 21  1  0  0  0  0
 20 22  1  0  0  0  0
 20 44  1  0  0  0  0
 21 45  1  0  0  0  0
 21 46  1  0  0  0  0
 21 47  1  0  0  0  0
M  CHG  1   4   1
M  END
> <s_m_source_file>
AV-unprocessed.smi

> <i_m_source_file_index>
1795

> <i_lp_mmshare_version>
43012

> <i_f3d_flags>
0

> <s_epik_input>
W0NIM11bQ0BASF0xW0NIMl1OKFtDSDJdW0NASF0oTzEpW0NIM10pW0NASF0oW0NIM10pW0NIMl1bTkhdQyg9TylbQ0gyXW4yW2NIXVtjSF1bY0hdW2NIXWMyPU8=

> <s_epik_cmdline>
J2VwaWtfcHl0aG9uJywgJy1waCcsICc3LjAnLCAnLXRuJywgJzgnLCAnLW1hJywgJzIwMCcsICctbWV0YWxfYmluZGluZycsICctaW1hZScsICc8aW5maWxlLm1hZT4nLCAnLW9tYWUnLCAnPG91dGZpbGUubWFlPic=

> <r_lp_tautomer_probability>
1

> <r_epik_Ionization_Penalty>
0.656654

> <r_epik_Ionization_Penalty_Charging>
0.656654

> <r_epik_Ionization_Penalty_Neutral>
8.90321e-08

> <r_epik_State_Penalty>
0.675641

> <r_epik_Charging_Adjusted_Penalty>
1.33229

> <i_epik_Tot_Q>
1

> <i_epik_Tot_abs_Q>
1

> <r_epik_Metal_State_Penalty>
0.675691

> <b_epik_Metal_Only>
0

> <s_lp_Force_Field>
OPLS_2005

> <r_lp_Energy>
32.8471

> <b_lp_Chiralities_Consistent>
1

> <s_lp_Variant>
AV-unprocessed.smi:1795-10

> <Gold.Version>
5.8.1

> <Gold.Id.Protein>
6NUR|6NUR_protein|mol2

> <Gold.PLP.Fitness>
52.0342

> <Gold.PLP.PLP>
-37.2877

> <Gold.PLP.part.hbond>
-3.0000

> <Gold.PLP.part.metal>
0.0000

> <Gold.PLP.part.buried>
-1.9706

> <Gold.PLP.part.nonpolar>
-32.8269

> <Gold.PLP.part.repulsive>
0.4079

> <Gold.PLP.ligand.clash>
0.0000

> <Gold.PLP.ligand.torsion>
0.1843

> <Gold.PLP.Chemscore.Hbond>
4.0000

> <Gold.PLP.Chemscore.CHOScore>
0.9992

> <Gold.PLP.Chemscore.Metal>
0.0000

> <Gold.Chemscore.Hbonds>
donor molecule, donor type, donor heavy atom, donor atom, acceptor molecule, acceptor atom, score
      L1  H     4    48       P1  7948  2.00
      L1  H     8    35       P1  7948  1.00
      P1  H  7989  7998       L1    22  1.00
      L1  C    13    38       P1 10747  0.74

> <Gold.PLP.Chemscore.Internal.Correction>
0.1175

> <Gold.Rescore>
     Score         DG    S(hbond)    S(metal)    S(lipo)     H(rot)  DE(clash)    DE(int)     intcor
     19.14     -19.52       2.75        0.00      82.83       1.89       0.11       0.28       ----

> <Gold.Chemscore.Fitness>
19.1375

> <Gold.Chemscore.DG>
-19.5244

> <Gold.Chemscore.ZeroCoef>
-5.4800

> <Gold.Chemscore.Hbond>
2.7497

> <Gold.Chemscore.Metal>
0.0000

> <Gold.Chemscore.Lipo>
82.8290

> <Gold.Chemscore.Internal_Hbond>
0.0000

> <Gold.Chemscore.DEClash>
0.1095

> <Gold.Chemscore.DEInternal>
0.2774

> <Gold.Chemscore.Rot>
1.8870

> <Gold.Chemscore.Internal.Correction>
   9.000000E+99

> <Gold.Chemscore.Hbonds>
donor molecule, donor type, donor heavy atom, donor atom, acceptor molecule, acceptor atom, score
      L1  H     4    48       P1  7948  0.99
      L1  H     8    35       P1  7948  0.43
      P1  H  7989  7998       L1    22  0.60

> <Gold.Chemscore.Hbond.Weighted>
-9.1841

> <Gold.Chemscore.Metal.Weighted>
-0.0000

> <Gold.Chemscore.Lipo.Weighted>
-9.6910

> <Gold.Chemscore.Internal_Hbond.Weighted>
0.0000

> <Gold.Chemscore.DEClash.Weighted>
0.1095

> <Gold.Chemscore.DEInternal.Weighted>
0.2774

> <Gold.Chemscore.Rot.Weighted>
4.8308

> <Gold.Chemscore.Internal.Correction.Weighted>
   9.000000E+99

> <Gold.Protein.RotatedTorsions>
[ 6907 6896 6895 6894 ] final  -77.07 input  -60.11 | X-H torsion
[ 7974 7965 7964 7962 ] final  113.14 input  175.53 | X-H torsion
[ 8008 7997 7996 7995 ] final  -44.66 input   59.86 | X-H torsion
[ 10167 10162 10161 10158 ] final  -34.26 input  -65.29 | X-H torsion
[ 10718 10713 10712 10709 ] final   73.27 input   66.30 | X-H torsion
[ 10763 10752 10751 10750 ] final -146.81 input  -60.55 | X-H torsion
[ 11005 11000 10999 10996 ] final   -5.49 input  -57.11 | X-H torsion

> <Gold.Protein.ActiveResidues>
 VAL166  LYS551  ARG553  GLY616  TRP617  ASP618  TYR619  PRO620  LYS621  CYS622 
 ASP623  PHE694  ASN695  SER759  ASP760  ASP761  ALA762  ILE779  LEU786  VAL792 
 PHE793  MET794  SER795  GLU796  ALA797  LYS798  CYS799  TRP800  GLU811  SER814 

> <Gold.Protein.RotatedAtoms>
  150.7009  134.4477  159.5321 H   0  0  0  0  0  0  0  0  0  0  0  0  # atno 6907 bound_to 6896
  152.2175  134.8441  160.0499 H   0  0  0  0  0  0  0  0  0  0  0  0  # atno 6908 bound_to 6896
  151.9303  133.3574  159.3965 H   0  0  0  0  0  0  0  0  0  0  0  0  # atno 6909 bound_to 6896
  145.2207  139.2863  143.4220 H   0  0  0  0  0  0  0  0  0  0  0  0  # atno 7974 bound_to 7965
  154.3998  140.1416  156.3719 H   0  0  0  0  0  0  0  0  0  0  0  0  # atno 8008 bound_to 7997
  155.8084  140.3473  155.5423 H   0  0  0  0  0  0  0  0  0  0  0  0  # atno 8009 bound_to 7997
  155.8411  140.0927  157.1724 H   0  0  0  0  0  0  0  0  0  0  0  0  # atno 8010 bound_to 7997
  140.7189  143.3561  151.2057 H   0  0  0  0  0  0  0  0  0  0  0  0  # atno 10167 bound_to 10162
  157.6540  130.9620  150.1046 H   0  0  0  0  0  0  0  0  0  0  0  0  # atno 10718 bound_to 10713
  154.8317  135.3377  154.6720 H   0  0  0  0  0  0  0  0  0  0  0  0  # atno 10763 bound_to 10752
  153.7339  135.6950  153.4987 H   0  0  0  0  0  0  0  0  0  0  0  0  # atno 10764 bound_to 10752
  153.2292  135.4422  155.0528 H   0  0  0  0  0  0  0  0  0  0  0  0  # atno 10765 bound_to 10752
  140.6917  133.9065  155.8623 H   0  0  0  0  0  0  0  0  0  0  0  0  # atno 11005 bound_to 11000
  146.3376  140.2512  142.8598 LP  0  0  0  0  0  0  0  0  0  0  0  0  # atno 17320 bound_to 7965
  144.9768  140.8421  143.5421 LP  0  0  0  0  0  0  0  0  0  0  0  0  # atno 17321 bound_to 7965
  139.7103  143.9388  152.2944 LP  0  0  0  0  0  0  0  0  0  0  0  0  # atno 17342 bound_to 10162
  139.9111  144.6856  150.8561 LP  0  0  0  0  0  0  0  0  0  0  0  0  # atno 17343 bound_to 10162
  156.1959  130.3657  149.8849 LP  0  0  0  0  0  0  0  0  0  0  0  0  # atno 17370 bound_to 10713
  156.6766  130.8841  151.3570 LP  0  0  0  0  0  0  0  0  0  0  0  0  # atno 17371 bound_to 10713
  141.0235  134.0855  157.4094 LP  0  0  0  0  0  0  0  0  0  0  0  0  # atno 17394 bound_to 11000
  139.8921  135.0123  156.6830 LP  0  0  0  0  0  0  0  0  0  0  0  0  # atno 17395 bound_to 11000

$$$$
