AV-unprocessed.smi:2499|AV-procd|sdf|9832|dock1
  -GOLD-   2272013463D 1   1.00000     0.00000
 Structure written by MMmdl.
 27 28  0  0  0  0  0  0  0  0  1 V2000
  152.3377  142.7621  159.0176 C   0  0  0  0  0  0  0  0  0  0  0  0
  152.0744  143.8328  157.9498 C   0  0  1  0  0  0  0  0  0  0  0  0
  151.0014  143.3665  157.0770 N   0  0  0  0  0  0  0  0  0  0  0  0
  150.9516  142.1671  156.4790 C   0  0  0  0  0  0  0  0  0  0  0  0
  151.8220  141.3056  156.6056 O   0  0  0  0  0  0  0  0  0  0  0  0
  149.8387  142.0388  155.7372 N   0  0  0  0  0  0  0  0  0  0  0  0
  149.4444  140.9217  154.9583 C   0  0  0  0  0  0  0  0  0  0  0  0
  150.2244  139.9160  154.5588 N   0  0  0  0  0  0  0  0  0  0  0  0
  149.3815  139.0872  153.8326 C   0  0  0  0  0  0  0  0  0  0  0  0
  148.1282  139.6433  153.8355 C   0  0  0  0  0  0  0  0  0  0  0  0
  148.1533  140.8124  154.5476 O   0  0  0  0  0  0  0  0  0  0  0  0
  151.7895  145.1797  158.5933 C   0  0  0  0  0  0  0  0  0  0  0  0
  152.1156  145.4448  160.0444 C   0  0  0  0  0  0  0  0  0  0  0  0
  150.6750  145.3385  159.6004 C   0  0  0  0  0  0  0  0  0  0  0  0
  153.1724  143.0450  159.6598 H   0  0  0  0  0  0  0  0  0  0  0  0
  152.5865  141.8033  158.5611 H   0  0  0  0  0  0  0  0  0  0  0  0
  151.4651  142.6126  159.6544 H   0  0  0  0  0  0  0  0  0  0  0  0
  152.9861  143.9281  157.3567 H   0  0  0  0  0  0  0  0  0  0  0  0
  150.2405  144.0096  156.9142 H   0  0  0  0  0  0  0  0  0  0  0  0
  149.2048  142.8239  155.7271 H   0  0  0  0  0  0  0  0  0  0  0  0
  149.7359  138.1754  153.3750 H   0  0  0  0  0  0  0  0  0  0  0  0
  147.1789  139.3551  153.4086 H   0  0  0  0  0  0  0  0  0  0  0  0
  151.9256  146.0207  157.9155 H   0  0  0  0  0  0  0  0  0  0  0  0
  152.5185  144.6245  160.6350 H   0  0  0  0  0  0  0  0  0  0  0  0
  152.4932  146.4324  160.3007 H   0  0  0  0  0  0  0  0  0  0  0  0
  150.0908  146.2555  159.5623 H   0  0  0  0  0  0  0  0  0  0  0  0
  150.1252  144.4467  159.8947 H   0  0  0  0  0  0  0  0  0  0  0  0
  1  2  1  0  0  0  0
  1 15  1  0  0  0  0
  1 16  1  0  0  0  0
  1 17  1  0  0  0  0
  2  3  1  0  0  0  0
  2 12  1  0  0  0  0
  2 18  1  0  0  0  0
  3  4  1  0  0  0  0
  3 19  1  0  0  0  0
  4  5  2  0  0  0  0
  4  6  1  0  0  0  0
  6  7  1  0  0  0  0
  6 20  1  0  0  0  0
  7 11  1  0  0  0  0
  7  8  2  0  0  0  0
  8  9  1  0  0  0  0
  9 10  2  0  0  0  0
  9 21  1  0  0  0  0
 10 11  1  0  0  0  0
 10 22  1  0  0  0  0
 12 14  1  0  0  0  0
 12 13  1  0  0  0  0
 12 23  1  0  0  0  0
 13 14  1  0  0  0  0
 13 24  1  0  0  0  0
 13 25  1  0  0  0  0
 14 26  1  0  0  0  0
 14 27  1  0  0  0  0
M  END
> <s_m_source_file>
AV-unprocessed.smi

> <i_m_source_file_index>
2499

> <i_lp_mmshare_version>
43012

> <i_f3d_flags>
0

> <s_epik_input>
W0NIMl0xW0NIMl1bQ0hdMVtDQEhdKFtDSDNdKVtOSF1DKD1PKVtOSF1jMm5bY0hdW2NIXW8y

> <s_epik_cmdline>
J2VwaWtfcHl0aG9uJywgJy1waCcsICc3LjAnLCAnLXRuJywgJzgnLCAnLW1hJywgJzIwMCcsICctbWV0YWxfYmluZGluZycsICctaW1hZScsICc8aW5maWxlLm1hZT4nLCAnLW9tYWUnLCAnPG91dGZpbGUubWFlPic=

> <r_lp_tautomer_probability>
0.785861

> <r_epik_Ionization_Penalty>
5.39182e-05

> <r_epik_Ionization_Penalty_Charging>
0

> <r_epik_Ionization_Penalty_Neutral>
5.39182e-05

> <r_epik_State_Penalty>
0.0482803

> <r_epik_Charging_Adjusted_Penalty>
0.0482803

> <i_epik_Tot_Q>
0

> <i_epik_Tot_abs_Q>
0

> <r_epik_Metal_State_Penalty>
0.0621274

> <b_epik_Metal_Only>
0

> <s_lp_Force_Field>
OPLS_2005

> <r_lp_Energy>
12.2154

> <b_lp_Chiralities_Consistent>
1

> <s_lp_Variant>
AV-unprocessed.smi:2499-2

> <Gold.Version>
5.8.1

> <Gold.Id.Protein>
6NUR|6NUR_protein|mol2

> <Gold.PLP.Fitness>
40.7106

> <Gold.PLP.PLP>
-29.1780

> <Gold.PLP.part.hbond>
-3.0000

> <Gold.PLP.part.metal>
0.0000

> <Gold.PLP.part.buried>
0.1990

> <Gold.PLP.part.nonpolar>
-26.0568

> <Gold.PLP.part.repulsive>
0.3733

> <Gold.PLP.ligand.clash>
0.0000

> <Gold.PLP.ligand.torsion>
0.7534

> <Gold.PLP.Chemscore.Hbond>
2.9920

> <Gold.PLP.Chemscore.CHOScore>
0.9984

> <Gold.PLP.Chemscore.Metal>
0.0000

> <Gold.Chemscore.Hbonds>
donor molecule, donor type, donor heavy atom, donor atom, acceptor molecule, acceptor atom, score
      L1  H     3    19       P1  8028  0.98
      L1  H     6    20       P1  8028  1.00
      P1  H  7989  7998       L1     8  1.00
      L1  C     9    21       P1  7948  0.96

> <Gold.PLP.Chemscore.Internal.Correction>
1.0682

> <Gold.Rescore>
     Score         DG    S(hbond)    S(metal)    S(lipo)     H(rot)  DE(clash)    DE(int)     intcor
     15.44     -19.26       2.56        0.00      73.02       1.29       2.17       1.65       ----

> <Gold.Chemscore.Fitness>
15.4378

> <Gold.Chemscore.DG>
-19.2599

> <Gold.Chemscore.ZeroCoef>
-5.4800

> <Gold.Chemscore.Hbond>
2.5576

> <Gold.Chemscore.Metal>
0.0000

> <Gold.Chemscore.Lipo>
73.0240

> <Gold.Chemscore.Internal_Hbond>
0.0000

> <Gold.Chemscore.DEClash>
2.1676

> <Gold.Chemscore.DEInternal>
1.6544

> <Gold.Chemscore.Rot>
1.2915

> <Gold.Chemscore.Internal.Correction>
   9.000000E+99

> <Gold.Chemscore.Hbonds>
donor molecule, donor type, donor heavy atom, donor atom, acceptor molecule, acceptor atom, score
      L1  H     3    19       P1  8028  0.91
      L1  H     6    20       P1  8028  0.95
      P1  H  7989  7998       L1     8  0.30

> <Gold.Chemscore.Hbond.Weighted>
-8.5423

> <Gold.Chemscore.Metal.Weighted>
-0.0000

> <Gold.Chemscore.Lipo.Weighted>
-8.5438

> <Gold.Chemscore.Internal_Hbond.Weighted>
0.0000

> <Gold.Chemscore.DEClash.Weighted>
2.1676

> <Gold.Chemscore.DEInternal.Weighted>
1.6544

> <Gold.Chemscore.Rot.Weighted>
3.3062

> <Gold.Chemscore.Internal.Correction.Weighted>
   9.000000E+99

> <Gold.Protein.RotatedTorsions>
[ 6907 6896 6895 6894 ] final -141.39 input  -60.11 | X-H torsion
[ 7974 7965 7964 7962 ] final -106.39 input  175.53 | X-H torsion
[ 8008 7997 7996 7995 ] final   87.40 input   59.86 | X-H torsion
[ 10167 10162 10161 10158 ] final   42.09 input  -65.29 | X-H torsion
[ 10718 10713 10712 10709 ] final   -4.96 input   66.30 | X-H torsion
[ 10763 10752 10751 10750 ] final  144.36 input  -60.55 | X-H torsion
[ 11005 11000 10999 10996 ] final    6.28 input  -57.11 | X-H torsion

> <Gold.Protein.ActiveResidues>
 VAL166  LYS551  ARG553  GLY616  TRP617  ASP618  TYR619  PRO620  LYS621  CYS622 
 ASP623  PHE694  ASN695  SER759  ASP760  ASP761  ALA762  ILE779  LEU786  VAL792 
 PHE793  MET794  SER795  GLU796  ALA797  LYS798  CYS799  TRP800  GLU811  SER814 

> <Gold.Protein.RotatedAtoms>
  151.0732  133.5449  159.2625 H   0  0  0  0  0  0  0  0  0  0  0  0  # atno 6907 bound_to 6896
  151.2381  135.0578  159.9024 H   0  0  0  0  0  0  0  0  0  0  0  0  # atno 6908 bound_to 6896
  152.5414  134.0511  159.8164 H   0  0  0  0  0  0  0  0  0  0  0  0  # atno 6909 bound_to 6896
  145.2185  140.9124  143.3273 H   0  0  0  0  0  0  0  0  0  0  0  0  # atno 7974 bound_to 7965
  155.9749  140.3382  155.6609 H   0  0  0  0  0  0  0  0  0  0  0  0  # atno 8008 bound_to 7997
  155.6626  140.0718  157.2567 H   0  0  0  0  0  0  0  0  0  0  0  0  # atno 8009 bound_to 7997
  154.4176  140.1706  156.1780 H   0  0  0  0  0  0  0  0  0  0  0  0  # atno 8010 bound_to 7997
  140.3578  144.2267  150.6140 H   0  0  0  0  0  0  0  0  0  0  0  0  # atno 10167 bound_to 10162
  156.7536  130.5247  149.5799 H   0  0  0  0  0  0  0  0  0  0  0  0  # atno 10718 bound_to 10713
  153.9875  135.2935  155.3415 H   0  0  0  0  0  0  0  0  0  0  0  0  # atno 10763 bound_to 10752
  154.7234  135.5099  153.8850 H   0  0  0  0  0  0  0  0  0  0  0  0  # atno 10764 bound_to 10752
  153.0825  135.6683  154.0131 H   0  0  0  0  0  0  0  0  0  0  0  0  # atno 10765 bound_to 10752
  140.5613  134.0190  155.7973 H   0  0  0  0  0  0  0  0  0  0  0  0  # atno 11005 bound_to 11000
  144.9788  139.3804  143.6272 LP  0  0  0  0  0  0  0  0  0  0  0  0  # atno 17320 bound_to 7965
  146.3381  139.8920  142.8807 LP  0  0  0  0  0  0  0  0  0  0  0  0  # atno 17321 bound_to 7965
  140.5157  143.2279  151.8467 LP  0  0  0  0  0  0  0  0  0  0  0  0  # atno 17342 bound_to 10162
  139.4818  144.4897  151.9200 LP  0  0  0  0  0  0  0  0  0  0  0  0  # atno 17343 bound_to 10162
  156.1385  130.6228  151.0434 LP  0  0  0  0  0  0  0  0  0  0  0  0  # atno 17370 bound_to 10713
  157.6766  131.0849  150.7479 LP  0  0  0  0  0  0  0  0  0  0  0  0  # atno 17371 bound_to 10713
  141.1113  133.9612  157.2905 LP  0  0  0  0  0  0  0  0  0  0  0  0  # atno 17394 bound_to 11000
  139.9406  135.0191  156.8697 LP  0  0  0  0  0  0  0  0  0  0  0  0  # atno 17395 bound_to 11000

$$$$
