AV-unprocessed.smi:1586|AV-procd|sdf|6374|dock4
  -GOLD-   22720 7 03D 1   1.00000     0.00000
 Structure written by MMmdl.
 47 48  0  0  0  0  0  0  0  0  2 V2000
  150.9986  142.3951  157.7948 C   0  0  0  0  0  0  0  0  0  0  0  0
  150.7600  141.7216  156.4359 C   0  0  0  0  0  0  0  0  0  0  0  0
  149.3657  141.8861  155.9548 N   0  3  0  0  0  0  0  0  0  0  0  0
  148.4057  141.0487  156.7137 C   0  0  0  0  0  0  0  0  0  0  0  0
  146.9650  141.2935  156.2184 C   0  0  0  0  0  0  0  0  0  0  0  0
  146.8178  140.9831  154.7898 N   0  0  0  0  0  0  0  0  0  0  0  0
  146.9261  139.5497  154.4390 C   0  0  1  0  0  0  0  0  0  0  0  0
  145.9169  138.6948  155.2365 C   0  0  0  0  0  0  0  0  0  0  0  0
  146.7281  139.3044  152.9231 C   0  0  0  0  0  0  0  0  0  0  0  0
  146.8984  137.8981  152.5746 N   0  0  0  0  0  0  0  0  0  0  0  0
  145.8928  137.0416  152.3562 C   0  0  0  0  0  0  0  0  0  0  0  0
  144.7060  137.3573  152.4393 O   0  0  0  0  0  0  0  0  0  0  0  0
  146.3564  135.8193  152.0461 N   0  0  0  0  0  0  0  0  0  0  0  0
  145.6186  134.6531  151.7182 C   0  0  0  0  0  0  0  0  0  0  0  0
  144.7513  134.4898  150.5990 C   0  0  0  0  0  0  0  0  0  0  0  0
  144.3073  133.2054  150.7411 C   0  0  0  0  0  0  0  0  0  0  0  0
  143.3783  132.3588  149.9407 C   0  0  0  0  0  0  0  0  0  0  0  0
  144.8568  132.6332  151.8460 O   0  0  0  0  0  0  0  0  0  0  0  0
  145.6967  133.5667  152.4643 N   0  0  0  0  0  0  0  0  0  0  0  0
  147.7383  141.8746  154.0699 C   0  0  0  0  0  0  0  0  0  0  0  0
  149.2069  141.6600  154.4958 C   0  0  0  0  0  0  0  0  0  0  0  0
  152.0017  142.1737  158.1596 H   0  0  0  0  0  0  0  0  0  0  0  0
  150.2904  142.0371  158.5428 H   0  0  0  0  0  0  0  0  0  0  0  0
  150.9094  143.4796  157.7359 H   0  0  0  0  0  0  0  0  0  0  0  0
  151.4617  142.0995  155.6906 H   0  0  0  0  0  0  0  0  0  0  0  0
  150.9731  140.6576  156.5490 H   0  0  0  0  0  0  0  0  0  0  0  0
  148.6783  139.9953  156.6352 H   0  0  0  0  0  0  0  0  0  0  0  0
  148.4645  141.3066  157.7716 H   0  0  0  0  0  0  0  0  0  0  0  0
  146.2509  140.7335  156.8199 H   0  0  0  0  0  0  0  0  0  0  0  0
  146.7048  142.3414  156.3746 H   0  0  0  0  0  0  0  0  0  0  0  0
  147.9223  139.1905  154.6932 H   0  0  0  0  0  0  0  0  0  0  0  0
  145.9023  137.6677  154.8710 H   0  0  0  0  0  0  0  0  0  0  0  0
  144.9018  139.0851  155.1537 H   0  0  0  0  0  0  0  0  0  0  0  0
  146.1736  138.6364  156.2938 H   0  0  0  0  0  0  0  0  0  0  0  0
  145.7536  139.6530  152.5819 H   0  0  0  0  0  0  0  0  0  0  0  0
  147.4553  139.8982  152.3666 H   0  0  0  0  0  0  0  0  0  0  0  0
  147.8463  137.5605  152.4916 H   0  0  0  0  0  0  0  0  0  0  0  0
  147.3596  135.7082  152.0419 H   0  0  0  0  0  0  0  0  0  0  0  0
  144.4894  135.1841  149.8152 H   0  0  0  0  0  0  0  0  0  0  0  0
  142.8293  132.9599  149.2156 H   0  0  0  0  0  0  0  0  0  0  0  0
  142.6529  131.8624  150.5856 H   0  0  0  0  0  0  0  0  0  0  0  0
  143.9285  131.5915  149.3960 H   0  0  0  0  0  0  0  0  0  0  0  0
  147.6320  141.7652  152.9921 H   0  0  0  0  0  0  0  0  0  0  0  0
  147.4525  142.9068  154.2782 H   0  0  0  0  0  0  0  0  0  0  0  0
  149.8322  142.3619  153.9455 H   0  0  0  0  0  0  0  0  0  0  0  0
  149.5532  140.6616  154.2266 H   0  0  0  0  0  0  0  0  0  0  0  0
  149.1046  142.8451  156.1346 H   0  0  0  0  0  0  0  0  0  0  0  0
  1  2  1  0  0  0  0
  1 22  1  0  0  0  0
  1 23  1  0  0  0  0
  1 24  1  0  0  0  0
  2  3  1  0  0  0  0
  2 25  1  0  0  0  0
  2 26  1  0  0  0  0
  3 21  1  0  0  0  0
  3  4  1  0  0  0  0
  3 47  1  0  0  0  0
  4  5  1  0  0  0  0
  4 27  1  0  0  0  0
  4 28  1  0  0  0  0
  5  6  1  0  0  0  0
  5 29  1  0  0  0  0
  5 30  1  0  0  0  0
  6  7  1  0  0  0  0
  6 20  1  0  0  0  0
  7  8  1  0  0  0  0
  7  9  1  0  0  0  0
  7 31  1  0  0  0  0
  8 32  1  0  0  0  0
  8 33  1  0  0  0  0
  8 34  1  0  0  0  0
  9 10  1  0  0  0  0
  9 35  1  0  0  0  0
  9 36  1  0  0  0  0
 10 11  1  0  0  0  0
 10 37  1  0  0  0  0
 11 12  2  0  0  0  0
 11 13  1  0  0  0  0
 13 14  1  0  0  0  0
 13 38  1  0  0  0  0
 14 19  2  0  0  0  0
 14 15  1  0  0  0  0
 15 16  2  0  0  0  0
 15 39  1  0  0  0  0
 16 17  1  0  0  0  0
 16 18  1  0  0  0  0
 17 40  1  0  0  0  0
 17 41  1  0  0  0  0
 17 42  1  0  0  0  0
 18 19  1  0  0  0  0
 20 21  1  0  0  0  0
 20 43  1  0  0  0  0
 20 44  1  0  0  0  0
 21 45  1  0  0  0  0
 21 46  1  0  0  0  0
M  CHG  1   3   1
M  END
> <s_m_source_file>
AV-unprocessed.smi

> <i_m_source_file_index>
1586

> <i_lp_mmshare_version>
43012

> <i_f3d_flags>
0

> <s_epik_input>
W0NIM11bQ0gyXU4xW0NIMl1bQ0gyXU4oW0NIMl1bQ0gyXTEpW0NASF0oW0NIM10pW0NIMl1bTkhdQyg9TylbTkhdYzJbY0hdYyhbQ0gzXSlvbjI=

> <s_epik_cmdline>
J2VwaWtfcHl0aG9uJywgJy1waCcsICc3LjAnLCAnLXRuJywgJzgnLCAnLW1hJywgJzIwMCcsICctbWV0YWxfYmluZGluZycsICctaW1hZScsICc8aW5maWxlLm1hZT4nLCAnLW9tYWUnLCAnPG91dGZpbGUubWFlPic=

> <r_epik_Ionization_Penalty>
0.0459786

> <r_epik_Ionization_Penalty_Charging>
0.0453654

> <r_epik_Ionization_Penalty_Neutral>
0.000613264

> <r_epik_State_Penalty>
0.163057

> <r_epik_Charging_Adjusted_Penalty>
0.208422

> <i_epik_Tot_Q>
1

> <i_epik_Tot_abs_Q>
1

> <r_epik_Metal_State_Penalty>
0.17399

> <b_epik_Metal_Only>
0

> <s_lp_Force_Field>
OPLS_2005

> <r_lp_Energy>
25.6668

> <b_lp_Chiralities_Consistent>
1

> <s_lp_Variant>
AV-unprocessed.smi:1586-2

> <Gold.Version>
5.8.1

> <Gold.Id.Protein>
6NUR|6NUR_protein|mol2

> <Gold.PLP.Fitness>
41.2871

> <Gold.PLP.PLP>
-31.1610

> <Gold.PLP.part.hbond>
-3.0000

> <Gold.PLP.part.metal>
0.0000

> <Gold.PLP.part.buried>
-3.3119

> <Gold.PLP.part.nonpolar>
-26.5565

> <Gold.PLP.part.repulsive>
1.0890

> <Gold.PLP.ligand.clash>
0.0000

> <Gold.PLP.ligand.torsion>
0.8553

> <Gold.PLP.Chemscore.Hbond>
3.9120

> <Gold.PLP.Chemscore.CHOScore>
0.0000

> <Gold.PLP.Chemscore.Metal>
0.0000

> <Gold.Chemscore.Hbonds>
donor molecule, donor type, donor heavy atom, donor atom, acceptor molecule, acceptor atom, score
      L1  H     3    47       P1  8028  2.00
      L1  H    10    37       P1  7948  0.93
      L1  H    13    38       P1  7948  1.00

> <Gold.PLP.Chemscore.Internal.Correction>
0.1006

> <Gold.Rescore>
     Score         DG    S(hbond)    S(metal)    S(lipo)     H(rot)  DE(clash)    DE(int)     intcor
     17.56     -18.84       2.89        0.00      70.18       1.76       0.45       0.83       ----

> <Gold.Chemscore.Fitness>
17.5644

> <Gold.Chemscore.DG>
-18.8410

> <Gold.Chemscore.ZeroCoef>
-5.4800

> <Gold.Chemscore.Hbond>
2.8938

> <Gold.Chemscore.Metal>
0.0000

> <Gold.Chemscore.Lipo>
70.1777

> <Gold.Chemscore.Internal_Hbond>
0.0000

> <Gold.Chemscore.DEClash>
0.4456

> <Gold.Chemscore.DEInternal>
0.8310

> <Gold.Chemscore.Rot>
1.7637

> <Gold.Chemscore.Internal.Correction>
   9.000000E+99

> <Gold.Chemscore.Hbonds>
donor molecule, donor type, donor heavy atom, donor atom, acceptor molecule, acceptor atom, score
      L1  H     3    47       P1  8028  0.97
      L1  H    10    37       P1  7948  0.91
      L1  H    13    38       P1  7948  0.98

> <Gold.Chemscore.Hbond.Weighted>
-9.6652

> <Gold.Chemscore.Metal.Weighted>
-0.0000

> <Gold.Chemscore.Lipo.Weighted>
-8.2108

> <Gold.Chemscore.Internal_Hbond.Weighted>
0.0000

> <Gold.Chemscore.DEClash.Weighted>
0.4456

> <Gold.Chemscore.DEInternal.Weighted>
0.8310

> <Gold.Chemscore.Rot.Weighted>
4.5150

> <Gold.Chemscore.Internal.Correction.Weighted>
   9.000000E+99

> <Gold.Protein.RotatedTorsions>
[ 6907 6896 6895 6894 ] final  -22.93 input  -60.11 | X-H torsion
[ 7974 7965 7964 7962 ] final  -98.26 input  175.53 | X-H torsion
[ 8008 7997 7996 7995 ] final  -86.50 input   59.86 | X-H torsion
[ 10167 10162 10161 10158 ] final   56.98 input  -65.29 | X-H torsion
[ 10718 10713 10712 10709 ] final  144.75 input   66.30 | X-H torsion
[ 10763 10752 10751 10750 ] final  -93.78 input  -60.55 | X-H torsion
[ 11005 11000 10999 10996 ] final   78.22 input  -57.11 | X-H torsion

> <Gold.Protein.ActiveResidues>
 VAL166  LYS551  ARG553  GLY616  TRP617  ASP618  TYR619  PRO620  LYS621  CYS622 
 ASP623  PHE694  ASN695  SER759  ASP760  ASP761  ALA762  ILE779  LEU786  VAL792 
 PHE793  MET794  SER795  GLU796  ALA797  LYS798  CYS799  TRP800  GLU811  SER814 

> <Gold.Protein.RotatedAtoms>
  151.2115  135.0483  159.8912 H   0  0  0  0  0  0  0  0  0  0  0  0  # atno 6907 bound_to 6896
  152.5424  134.0740  159.8216 H   0  0  0  0  0  0  0  0  0  0  0  0  # atno 6908 bound_to 6896
  151.0894  133.5280  159.2647 H   0  0  0  0  0  0  0  0  0  0  0  0  # atno 6909 bound_to 6896
  145.3230  140.9425  143.2705 H   0  0  0  0  0  0  0  0  0  0  0  0  # atno 7974 bound_to 7965
  154.6526  140.0577  156.9973 H   0  0  0  0  0  0  0  0  0  0  0  0  # atno 8008 bound_to 7997
  155.1348  140.3260  155.4447 H   0  0  0  0  0  0  0  0  0  0  0  0  # atno 8009 bound_to 7997
  156.2583  140.1974  156.6466 H   0  0  0  0  0  0  0  0  0  0  0  0  # atno 8010 bound_to 7997
  140.2029  144.3969  150.6521 H   0  0  0  0  0  0  0  0  0  0  0  0  # atno 10167 bound_to 10162
  157.3534  131.0954  151.0980 H   0  0  0  0  0  0  0  0  0  0  0  0  # atno 10718 bound_to 10713
  154.6992  135.5182  153.8501 H   0  0  0  0  0  0  0  0  0  0  0  0  # atno 10763 bound_to 10752
  153.0690  135.6595  154.0298 H   0  0  0  0  0  0  0  0  0  0  0  0  # atno 10764 bound_to 10752
  154.0160  135.2998  155.3366 H   0  0  0  0  0  0  0  0  0  0  0  0  # atno 10765 bound_to 10752
  139.9222  134.7746  156.1622 H   0  0  0  0  0  0  0  0  0  0  0  0  # atno 11005 bound_to 11000
  144.8924  139.4756  143.6671 LP  0  0  0  0  0  0  0  0  0  0  0  0  # atno 17320 bound_to 7965
  146.3075  139.7630  142.9045 LP  0  0  0  0  0  0  0  0  0  0  0  0  # atno 17321 bound_to 7965
  140.6378  143.2198  151.6357 LP  0  0  0  0  0  0  0  0  0  0  0  0  # atno 17342 bound_to 10162
  139.5210  144.3206  152.0914 LP  0  0  0  0  0  0  0  0  0  0  0  0  # atno 17343 bound_to 10162
  157.2147  130.6454  149.5787 LP  0  0  0  0  0  0  0  0  0  0  0  0  # atno 17370 bound_to 10713
  155.9725  130.4648  150.6233 LP  0  0  0  0  0  0  0  0  0  0  0  0  # atno 17371 bound_to 10713
  141.0751  133.6779  156.2220 LP  0  0  0  0  0  0  0  0  0  0  0  0  # atno 17394 bound_to 11000
  140.6442  134.5134  157.5572 LP  0  0  0  0  0  0  0  0  0  0  0  0  # atno 17395 bound_to 11000

$$$$
