AV-unprocessed.smi:1487|AV-procd|sdf|6010|dock6
  -GOLD-   22720 6113D 1   1.00000     0.00000
 Structure written by MMmdl.
 48 50  0  0  0  0  0  0  0  0  2 V2000
  152.8225  141.4177  159.3528 C   0  0  0  0  0  0  0  0  0  0  0  0
  151.8272  141.4078  158.2059 C   0  0  0  0  0  0  0  0  0  0  0  0
  151.9224  140.3967  157.2233 C   0  0  0  0  0  0  0  0  0  0  0  0
  151.0162  140.3504  156.1417 C   0  0  0  0  0  0  0  0  0  0  0  0
  150.9261  139.4648  155.0815 N   0  0  0  0  0  0  0  0  0  0  0  0
  149.8807  139.9472  154.4167 C   0  0  0  0  0  0  0  0  0  0  0  0
  149.2850  141.0464  154.9184 N   0  0  0  0  0  0  0  0  0  0  0  0
  148.1380  141.7485  154.3710 C   0  0  0  0  0  0  0  0  0  0  0  0
  146.8101  141.0179  154.6484 C   0  0  1  0  0  0  0  0  0  0  0  0
  145.7373  141.7887  154.1417 O   0  0  0  0  0  0  0  0  0  0  0  0
  146.7780  139.6292  153.9803 C   0  0  0  0  0  0  0  0  0  0  0  0
  145.4032  139.0777  153.8682 N   0  3  2  0  0  0  0  0  0  0  0  0
  144.6945  138.9883  155.1723 C   0  0  0  0  0  0  0  0  0  0  0  0
  143.2288  138.5714  154.9744 C   0  0  0  0  0  0  0  0  0  0  0  0
  143.1322  137.2381  154.2195 C   0  0  0  0  0  0  0  0  0  0  0  0
  143.9317  137.2882  152.9067 C   0  0  1  0  0  0  0  0  0  0  0  0
  143.2861  138.1225  151.9651 O   0  0  0  0  0  0  0  0  0  0  0  0
  145.3730  137.7847  153.1343 C   0  0  0  0  0  0  0  0  0  0  0  0
  150.0034  141.3513  156.0694 C   0  0  0  0  0  0  0  0  0  0  0  0
  149.8977  142.3620  157.0412 C   0  0  0  0  0  0  0  0  0  0  0  0
  150.8118  142.3936  158.1152 C   0  0  0  0  0  0  0  0  0  0  0  0
  150.6914  143.4894  159.1596 C   0  0  0  0  0  0  0  0  0  0  0  0
  153.5649  140.6268  159.2424 H   0  0  0  0  0  0  0  0  0  0  0  0
  152.3096  141.2655  160.3027 H   0  0  0  0  0  0  0  0  0  0  0  0
  153.3530  142.3693  159.3935 H   0  0  0  0  0  0  0  0  0  0  0  0
  152.6948  139.6449  157.2924 H   0  0  0  0  0  0  0  0  0  0  0  0
  149.5297  139.4769  153.5096 H   0  0  0  0  0  0  0  0  0  0  0  0
  148.1146  142.7563  154.7888 H   0  0  0  0  0  0  0  0  0  0  0  0
  148.2897  141.8601  153.2967 H   0  0  0  0  0  0  0  0  0  0  0  0
  146.6831  140.9272  155.7267 H   0  0  0  0  0  0  0  0  0  0  0  0
  145.2772  141.2746  153.4947 H   0  0  0  0  0  0  0  0  0  0  0  0
  147.2225  139.7178  152.9875 H   0  0  0  0  0  0  0  0  0  0  0  0
  147.4039  138.9238  154.5294 H   0  0  0  0  0  0  0  0  0  0  0  0
  145.2054  138.2717  155.8176 H   0  0  0  0  0  0  0  0  0  0  0  0
  144.7199  139.9475  155.6876 H   0  0  0  0  0  0  0  0  0  0  0  0
  142.7321  138.4862  155.9415 H   0  0  0  0  0  0  0  0  0  0  0  0
  142.6980  139.3486  154.4231 H   0  0  0  0  0  0  0  0  0  0  0  0
  143.5310  136.4428  154.8505 H   0  0  0  0  0  0  0  0  0  0  0  0
  142.0894  136.9831  154.0265 H   0  0  0  0  0  0  0  0  0  0  0  0
  143.9648  136.2887  152.4718 H   0  0  0  0  0  0  0  0  0  0  0  0
  143.7160  138.9647  151.9631 H   0  0  0  0  0  0  0  0  0  0  0  0
  145.8786  137.8870  152.1727 H   0  0  0  0  0  0  0  0  0  0  0  0
  145.9333  137.0417  153.7045 H   0  0  0  0  0  0  0  0  0  0  0  0
  149.1193  143.1062  156.9609 H   0  0  0  0  0  0  0  0  0  0  0  0
  149.8394  144.1393  158.9589 H   0  0  0  0  0  0  0  0  0  0  0  0
  151.5895  144.1074  159.1685 H   0  0  0  0  0  0  0  0  0  0  0  0
  150.5567  143.0592  160.1524 H   0  0  0  0  0  0  0  0  0  0  0  0
  144.8858  139.7298  153.2949 H   0  0  0  0  0  0  0  0  0  0  0  0
  1  2  1  0  0  0  0
  1 23  1  0  0  0  0
  1 24  1  0  0  0  0
  1 25  1  0  0  0  0
  2 21  1  0  0  0  0
  2  3  2  0  0  0  0
  3  4  1  0  0  0  0
  3 26  1  0  0  0  0
  4 19  2  0  0  0  0
  4  5  1  0  0  0  0
  5  6  2  0  0  0  0
  6  7  1  0  0  0  0
  6 27  1  0  0  0  0
  7  8  1  0  0  0  0
  7 19  1  0  0  0  0
  8  9  1  0  0  0  0
  8 28  1  0  0  0  0
  8 29  1  0  0  0  0
  9 10  1  0  0  0  0
  9 11  1  0  0  0  0
  9 30  1  0  0  0  0
 10 31  1  0  0  0  0
 11 12  1  0  0  0  0
 11 32  1  0  0  0  0
 11 33  1  0  0  0  0
 12 18  1  0  0  0  0
 12 13  1  0  0  0  0
 12 48  1  0  0  0  0
 13 14  1  0  0  0  0
 13 34  1  0  0  0  0
 13 35  1  0  0  0  0
 14 15  1  0  0  0  0
 14 36  1  0  0  0  0
 14 37  1  0  0  0  0
 15 16  1  0  0  0  0
 15 38  1  0  0  0  0
 15 39  1  0  0  0  0
 16 17  1  0  0  0  0
 16 18  1  0  0  0  0
 16 40  1  0  0  0  0
 17 41  1  0  0  0  0
 18 42  1  0  0  0  0
 18 43  1  0  0  0  0
 19 20  1  0  0  0  0
 20 21  2  0  0  0  0
 20 44  1  0  0  0  0
 21 22  1  0  0  0  0
 22 45  1  0  0  0  0
 22 46  1  0  0  0  0
 22 47  1  0  0  0  0
M  CHG  1  12   1
M  END
> <s_m_source_file>
AV-unprocessed.smi

> <i_m_source_file_index>
1487

> <i_lp_mmshare_version>
43012

> <i_f3d_flags>
0

> <s_epik_input>
W0NIM11jKFtjSF0xKWMoW0NIM10pW2NIXWMoYzEyKW4oW2NIXW4yKVtDSDJdW0NASF0oW09IXSlbQ0gyXU4zW0NIMl1bQ0gyXVtDSDJdW0NAQEhdKFtPSF0pW0NIMl0z

> <s_epik_cmdline>
J2VwaWtfcHl0aG9uJywgJy1waCcsICc3LjAnLCAnLXRuJywgJzgnLCAnLW1hJywgJzIwMCcsICctbWV0YWxfYmluZGluZycsICctaW1hZScsICc8aW5maWxlLm1hZT4nLCAnLW9tYWUnLCAnPG91dGZpbGUubWFlPic=

> <r_epik_Ionization_Penalty>
0.0940186

> <r_epik_Ionization_Penalty_Charging>
0.00679686

> <r_epik_Ionization_Penalty_Neutral>
0.0872218

> <r_epik_State_Penalty>
0.0799311

> <r_epik_Charging_Adjusted_Penalty>
0.086728

> <i_epik_Tot_Q>
1

> <i_epik_Tot_abs_Q>
1

> <r_epik_Metal_State_Penalty>
7.95545e-05

> <b_epik_Metal_Only>
0

> <s_lp_Force_Field>
OPLS_2005

> <r_lp_Energy>
21.7982

> <b_lp_Chiralities_Consistent>
1

> <s_lp_Variant>
AV-unprocessed.smi:1487-4

> <Gold.Version>
5.8.1

> <Gold.Id.Protein>
6NUR|6NUR_protein|mol2

> <Gold.PLP.Fitness>
48.0893

> <Gold.PLP.PLP>
-33.8192

> <Gold.PLP.part.hbond>
-4.3277

> <Gold.PLP.part.metal>
0.0000

> <Gold.PLP.part.buried>
-2.0251

> <Gold.PLP.part.nonpolar>
-28.5055

> <Gold.PLP.part.repulsive>
0.0468

> <Gold.PLP.ligand.clash>
0.0000

> <Gold.PLP.ligand.torsion>
0.3857

> <Gold.PLP.Chemscore.Hbond>
4.0000

> <Gold.PLP.Chemscore.CHOScore>
1.0000

> <Gold.PLP.Chemscore.Metal>
0.0000

> <Gold.Chemscore.Hbonds>
donor molecule, donor type, donor heavy atom, donor atom, acceptor molecule, acceptor atom, score
      L1  H    10    31       P1 10175  0.99
      L1  H    12    48       P1 10175  2.00
      L1  H    17    41       P1 10175  0.91
      L1  C     6    27       P1  7957  1.00

> <Gold.PLP.Chemscore.Internal.Correction>
0.0415

> <Gold.Rescore>
     Score         DG    S(hbond)    S(metal)    S(lipo)     H(rot)  DE(clash)    DE(int)     intcor
     16.17     -18.12       2.75        0.00      87.89       2.67       1.61       0.34       ----

> <Gold.Chemscore.Fitness>
16.1740

> <Gold.Chemscore.DG>
-18.1230

> <Gold.Chemscore.ZeroCoef>
-5.4800

> <Gold.Chemscore.Hbond>
2.7540

> <Gold.Chemscore.Metal>
0.0000

> <Gold.Chemscore.Lipo>
87.8891

> <Gold.Chemscore.Internal_Hbond>
0.0000

> <Gold.Chemscore.DEClash>
1.6055

> <Gold.Chemscore.DEInternal>
0.3434

> <Gold.Chemscore.Rot>
2.6712

> <Gold.Chemscore.Internal.Correction>
   9.000000E+99

> <Gold.Chemscore.Hbonds>
donor molecule, donor type, donor heavy atom, donor atom, acceptor molecule, acceptor atom, score
      L1  H    10    31       P1 10175  0.27
      L1  H    12    48       P1 10175  0.99
      L1  H    17    41       P1 10175  0.83

> <Gold.Chemscore.Hbond.Weighted>
-9.1983

> <Gold.Chemscore.Metal.Weighted>
-0.0000

> <Gold.Chemscore.Lipo.Weighted>
-10.2830

> <Gold.Chemscore.Internal_Hbond.Weighted>
0.0000

> <Gold.Chemscore.DEClash.Weighted>
1.6055

> <Gold.Chemscore.DEInternal.Weighted>
0.3434

> <Gold.Chemscore.Rot.Weighted>
6.8383

> <Gold.Chemscore.Internal.Correction.Weighted>
   9.000000E+99

> <Gold.Protein.RotatedTorsions>
[ 6907 6896 6895 6894 ] final  -34.77 input  -60.11 | X-H torsion
[ 7974 7965 7964 7962 ] final   87.22 input  175.53 | X-H torsion
[ 8008 7997 7996 7995 ] final -136.79 input   59.86 | X-H torsion
[ 10167 10162 10161 10158 ] final   93.23 input  -65.29 | X-H torsion
[ 10718 10713 10712 10709 ] final  -63.24 input   66.30 | X-H torsion
[ 10763 10752 10751 10750 ] final  101.04 input  -60.55 | X-H torsion
[ 11005 11000 10999 10996 ] final  105.28 input  -57.11 | X-H torsion

> <Gold.Protein.ActiveResidues>
 VAL166  LYS551  ARG553  GLY616  TRP617  ASP618  TYR619  PRO620  LYS621  CYS622 
 ASP623  PHE694  ASN695  SER759  ASP760  ASP761  ALA762  ILE779  LEU786  VAL792 
 PHE793  MET794  SER795  GLU796  ALA797  LYS798  CYS799  TRP800  GLU811  SER814 

> <Gold.Protein.RotatedAtoms>
  151.0483  134.9655  159.8197 H   0  0  0  0  0  0  0  0  0  0  0  0  # atno 6907 bound_to 6896
  152.5376  134.2569  159.8930 H   0  0  0  0  0  0  0  0  0  0  0  0  # atno 6908 bound_to 6896
  151.2584  133.4271  159.2648 H   0  0  0  0  0  0  0  0  0  0  0  0  # atno 6909 bound_to 6896
  145.5619  139.2305  143.2455 H   0  0  0  0  0  0  0  0  0  0  0  0  # atno 7974 bound_to 7965
  155.4011  140.0506  157.3036 H   0  0  0  0  0  0  0  0  0  0  0  0  # atno 8008 bound_to 7997
  154.4990  140.2149  155.9347 H   0  0  0  0  0  0  0  0  0  0  0  0  # atno 8009 bound_to 7997
  156.1443  140.3148  155.8550 H   0  0  0  0  0  0  0  0  0  0  0  0  # atno 8010 bound_to 7997
  139.8200  144.6735  150.9531 H   0  0  0  0  0  0  0  0  0  0  0  0  # atno 10167 bound_to 10162
  156.0803  130.4218  150.1249 H   0  0  0  0  0  0  0  0  0  0  0  0  # atno 10718 bound_to 10713
  153.3216  135.4058  155.1421 H   0  0  0  0  0  0  0  0  0  0  0  0  # atno 10763 bound_to 10752
  154.8602  135.3589  154.5589 H   0  0  0  0  0  0  0  0  0  0  0  0  # atno 10764 bound_to 10752
  153.6022  135.7070  153.5439 H   0  0  0  0  0  0  0  0  0  0  0  0  # atno 10765 bound_to 10752
  139.8800  134.9330  156.5490 H   0  0  0  0  0  0  0  0  0  0  0  0  # atno 11005 bound_to 11000
  146.1845  140.6444  142.9174 LP  0  0  0  0  0  0  0  0  0  0  0  0  # atno 17320 bound_to 7965
  144.7479  140.5115  143.6823 LP  0  0  0  0  0  0  0  0  0  0  0  0  # atno 17321 bound_to 7965
  140.7814  143.4101  151.1007 LP  0  0  0  0  0  0  0  0  0  0  0  0  # atno 17342 bound_to 10162
  139.7762  143.8422  152.3129 LP  0  0  0  0  0  0  0  0  0  0  0  0  # atno 17343 bound_to 10162
  156.9281  130.9705  151.3537 LP  0  0  0  0  0  0  0  0  0  0  0  0  # atno 17370 bound_to 10713
  157.5918  130.8449  149.8670 LP  0  0  0  0  0  0  0  0  0  0  0  0  # atno 17371 bound_to 10713
  140.8254  133.8321  155.8934 LP  0  0  0  0  0  0  0  0  0  0  0  0  # atno 17394 bound_to 11000
  140.9379  134.1938  157.4818 LP  0  0  0  0  0  0  0  0  0  0  0  0  # atno 17395 bound_to 11000

$$$$
