AV-unprocessed.smi:2871|AV-procd|sdf|11031|dock7
  -GOLD-   2272015493D 1   1.00000     0.00000
 Structure written by MMmdl.
 38 40  0  0  0  0  0  0  0  0  1 V2000
  152.3765  144.8608  158.6337 C   0  0  0  0  0  0  0  0  0  0  0  0
  152.3128  143.5312  159.2315 N   0  0  0  0  0  0  0  0  0  0  0  0
  152.8178  143.3088  160.5804 C   0  0  0  0  0  0  0  0  0  0  0  0
  151.7573  142.4600  158.4976 C   0  0  0  0  0  0  0  0  0  0  0  0
  152.1229  141.1132  158.7394 C   0  0  0  0  0  0  0  0  0  0  0  0
  151.4986  140.1264  157.9435 C   0  0  0  0  0  0  0  0  0  0  0  0
  151.8070  138.6452  158.1029 C   0  0  0  0  0  0  0  0  0  0  0  0
  152.3274  138.1716  156.9705 F   0  0  0  0  0  0  0  0  0  0  0  0
  152.6755  138.4269  159.0910 F   0  0  0  0  0  0  0  0  0  0  0  0
  150.6849  137.9777  158.3729 F   0  0  0  0  0  0  0  0  0  0  0  0
  150.5938  140.4526  156.9935 N   0  0  0  0  0  0  0  0  0  0  0  0
  150.3139  141.7463  156.8425 C   0  0  0  0  0  0  0  0  0  0  0  0
  149.3767  142.0427  155.8702 N   0  0  0  0  0  0  0  0  0  0  0  0
  148.9233  141.1064  154.8477 C   0  0  1  0  0  0  0  0  0  0  0  0
  148.1749  139.9021  155.4232 C   0  0  0  0  0  0  0  0  0  0  0  0
  146.8644  139.9352  154.6235 C   0  0  1  0  0  0  0  0  0  0  0  0
  145.9399  141.0615  155.1034 C   0  0  0  0  0  0  0  0  0  0  0  0
  146.6530  142.2994  154.5630 C   0  0  0  0  0  0  0  0  0  0  0  0
  147.8801  141.6831  153.8698 C   0  0  2  0  0  0  0  0  0  0  0  0
  147.3118  140.4759  153.3914 O   0  0  0  0  0  0  0  0  0  0  0  0
  150.8468  142.7548  157.5387 N   0  0  0  0  0  0  0  0  0  0  0  0
  152.9946  144.8474  157.7354 H   0  0  0  0  0  0  0  0  0  0  0  0
  152.8054  145.5877  159.3235 H   0  0  0  0  0  0  0  0  0  0  0  0
  151.3787  145.2074  158.3618 H   0  0  0  0  0  0  0  0  0  0  0  0
  153.6067  142.5560  160.5754 H   0  0  0  0  0  0  0  0  0  0  0  0
  152.0164  142.9704  161.2379 H   0  0  0  0  0  0  0  0  0  0  0  0
  153.2337  144.2227  161.0050 H   0  0  0  0  0  0  0  0  0  0  0  0
  152.8435  140.8374  159.4941 H   0  0  0  0  0  0  0  0  0  0  0  0
  149.0855  143.0061  155.7933 H   0  0  0  0  0  0  0  0  0  0  0  0
  149.7873  140.7483  154.2860 H   0  0  0  0  0  0  0  0  0  0  0  0
  148.7291  138.9840  155.2255 H   0  0  0  0  0  0  0  0  0  0  0  0
  147.9980  139.9651  156.4979 H   0  0  0  0  0  0  0  0  0  0  0  0
  146.3725  138.9661  154.5381 H   0  0  0  0  0  0  0  0  0  0  0  0
  144.9485  140.9673  154.6590 H   0  0  0  0  0  0  0  0  0  0  0  0
  145.8290  141.0750  156.1880 H   0  0  0  0  0  0  0  0  0  0  0  0
  146.0215  142.8119  153.8364 H   0  0  0  0  0  0  0  0  0  0  0  0
  146.9149  143.0155  155.3423 H   0  0  0  0  0  0  0  0  0  0  0  0
  148.3059  142.3119  153.0874 H   0  0  0  0  0  0  0  0  0  0  0  0
  1  2  1  0  0  0  0
  1 22  1  0  0  0  0
  1 23  1  0  0  0  0
  1 24  1  0  0  0  0
  2  3  1  0  0  0  0
  2  4  1  0  0  0  0
  3 25  1  0  0  0  0
  3 26  1  0  0  0  0
  3 27  1  0  0  0  0
  4 21  1  0  0  0  0
  4  5  2  0  0  0  0
  5  6  1  0  0  0  0
  5 28  1  0  0  0  0
  6  7  1  0  0  0  0
  6 11  2  0  0  0  0
  7  8  1  0  0  0  0
  7  9  1  0  0  0  0
  7 10  1  0  0  0  0
 11 12  1  0  0  0  0
 12 13  1  0  0  0  0
 12 21  2  0  0  0  0
 13 14  1  0  0  0  0
 13 29  1  0  0  0  0
 14 19  1  0  0  0  0
 14 15  1  0  0  0  0
 14 30  1  0  0  0  0
 15 16  1  0  0  0  0
 15 31  1  0  0  0  0
 15 32  1  0  0  0  0
 16 20  1  0  0  0  0
 16 17  1  0  0  0  0
 16 33  1  0  0  0  0
 17 18  1  0  0  0  0
 17 34  1  0  0  0  0
 17 35  1  0  0  0  0
 18 19  1  0  0  0  0
 18 36  1  0  0  0  0
 18 37  1  0  0  0  0
 19 20  1  0  0  0  0
 19 38  1  0  0  0  0
M  END
> <s_m_source_file>
AV-unprocessed.smi

> <i_m_source_file_index>
2871

> <i_lp_mmshare_version>
43012

> <i_f3d_flags>
0

> <s_epik_input>
W0NIM11OKFtDSDNdKWMxW2NIXWMoQyhGKShGKUYpbmMobjEpW05IXVtDQEhdKFtDSDJdW0NAQEhdMjMpW0NAQEhdKE8zKVtDSDJdW0NIMl0y

> <s_epik_cmdline>
J2VwaWtfcHl0aG9uJywgJy1waCcsICc3LjAnLCAnLXRuJywgJzgnLCAnLW1hJywgJzIwMCcsICctbWV0YWxfYmluZGluZycsICctaW1hZScsICc8aW5maWxlLm1hZT4nLCAnLW9tYWUnLCAnPG91dGZpbGUubWFlPic=

> <r_lp_tautomer_probability>
1

> <r_epik_Ionization_Penalty>
0.00695968

> <r_epik_Ionization_Penalty_Charging>
0

> <r_epik_Ionization_Penalty_Neutral>
0.00695968

> <r_epik_State_Penalty>
0.0050343

> <r_epik_Charging_Adjusted_Penalty>
0.0050343

> <i_epik_Tot_Q>
0

> <i_epik_Tot_abs_Q>
0

> <r_epik_Metal_State_Penalty>
-0

> <b_epik_Metal_Only>
0

> <s_lp_Force_Field>
OPLS_2005

> <r_lp_Energy>
32.958

> <b_lp_Chiralities_Consistent>
1

> <s_lp_Variant>
AV-unprocessed.smi:2871-2

> <Gold.Version>
5.8.1

> <Gold.Id.Protein>
6NUR|6NUR_protein|mol2

> <Gold.PLP.Fitness>
40.9015

> <Gold.PLP.PLP>
-38.5880

> <Gold.PLP.part.hbond>
-1.0000

> <Gold.PLP.part.metal>
0.0000

> <Gold.PLP.part.buried>
-6.8211

> <Gold.PLP.part.nonpolar>
-31.1287

> <Gold.PLP.part.repulsive>
0.5558

> <Gold.PLP.ligand.clash>
0.0000

> <Gold.PLP.ligand.torsion>
0.3539

> <Gold.PLP.Chemscore.Hbond>
1.0000

> <Gold.PLP.Chemscore.CHOScore>
0.0000

> <Gold.PLP.Chemscore.Metal>
0.0000

> <Gold.Chemscore.Hbonds>
donor molecule, donor type, donor heavy atom, donor atom, acceptor molecule, acceptor atom, score
      L1  H    13    29       P1  8028  1.00

> <Gold.PLP.Chemscore.Internal.Correction>
0.0213

> <Gold.Rescore>
     Score         DG    S(hbond)    S(metal)    S(lipo)     H(rot)  DE(clash)    DE(int)     intcor
     14.83     -15.24       1.00        0.00      76.74       1.00       0.08       0.32       ----

> <Gold.Chemscore.Fitness>
14.8341

> <Gold.Chemscore.DG>
-15.2391

> <Gold.Chemscore.ZeroCoef>
-5.4800

> <Gold.Chemscore.Hbond>
1.0000

> <Gold.Chemscore.Metal>
0.0000

> <Gold.Chemscore.Lipo>
76.7443

> <Gold.Chemscore.Internal_Hbond>
0.0000

> <Gold.Chemscore.DEClash>
0.0837

> <Gold.Chemscore.DEInternal>
0.3213

> <Gold.Chemscore.Rot>
1.0000

> <Gold.Chemscore.Internal.Correction>
   9.000000E+99

> <Gold.Chemscore.Hbonds>
donor molecule, donor type, donor heavy atom, donor atom, acceptor molecule, acceptor atom, score
      L1  H    13    29       P1  8028  1.00

> <Gold.Chemscore.Hbond.Weighted>
-3.3400

> <Gold.Chemscore.Metal.Weighted>
-0.0000

> <Gold.Chemscore.Lipo.Weighted>
-8.9791

> <Gold.Chemscore.Internal_Hbond.Weighted>
0.0000

> <Gold.Chemscore.DEClash.Weighted>
0.0837

> <Gold.Chemscore.DEInternal.Weighted>
0.3213

> <Gold.Chemscore.Rot.Weighted>
2.5600

> <Gold.Chemscore.Internal.Correction.Weighted>
   9.000000E+99

> <Gold.Protein.RotatedTorsions>
[ 6907 6896 6895 6894 ] final  147.99 input  -60.11 | X-H torsion
[ 7974 7965 7964 7962 ] final  -15.94 input  175.53 | X-H torsion
[ 8008 7997 7996 7995 ] final -173.04 input   59.86 | X-H torsion
[ 10167 10162 10161 10158 ] final -165.73 input  -65.29 | X-H torsion
[ 10718 10713 10712 10709 ] final   51.19 input   66.30 | X-H torsion
[ 10763 10752 10751 10750 ] final  -40.90 input  -60.55 | X-H torsion
[ 11005 11000 10999 10996 ] final  -53.16 input  -57.11 | X-H torsion

> <Gold.Protein.ActiveResidues>
 VAL166  LYS551  ARG553  GLY616  TRP617  ASP618  TYR619  PRO620  LYS621  CYS622 
 ASP623  PHE694  ASN695  SER759  ASP760  ASP761  ALA762  ILE779  LEU786  VAL792 
 PHE793  MET794  SER795  GLU796  ALA797  LYS798  CYS799  TRP800  GLU811  SER814 

> <Gold.Protein.RotatedAtoms>
  152.1475  133.4501  159.4796 H   0  0  0  0  0  0  0  0  0  0  0  0  # atno 6907 bound_to 6896
  150.6892  134.2230  159.4413 H   0  0  0  0  0  0  0  0  0  0  0  0  # atno 6908 bound_to 6896
  152.0125  134.9868  160.0619 H   0  0  0  0  0  0  0  0  0  0  0  0  # atno 6909 bound_to 6896
  146.2010  140.3565  142.8423 H   0  0  0  0  0  0  0  0  0  0  0  0  # atno 7974 bound_to 7965
  155.9523  140.1129  157.0966 H   0  0  0  0  0  0  0  0  0  0  0  0  # atno 8008 bound_to 7997
  154.4112  140.1198  156.5136 H   0  0  0  0  0  0  0  0  0  0  0  0  # atno 8009 bound_to 7997
  155.6826  140.3473  155.4863 H   0  0  0  0  0  0  0  0  0  0  0  0  # atno 8010 bound_to 7997
  139.6162  144.0715  152.1890 H   0  0  0  0  0  0  0  0  0  0  0  0  # atno 10167 bound_to 10162
  157.4957  130.8405  149.8256 H   0  0  0  0  0  0  0  0  0  0  0  0  # atno 10718 bound_to 10713
  153.9536  135.6748  153.4744 H   0  0  0  0  0  0  0  0  0  0  0  0  # atno 10763 bound_to 10752
  153.0872  135.4893  154.8617 H   0  0  0  0  0  0  0  0  0  0  0  0  # atno 10764 bound_to 10752
  154.7312  135.3138  154.8848 H   0  0  0  0  0  0  0  0  0  0  0  0  # atno 10765 bound_to 10752
  141.0962  133.6624  156.4131 H   0  0  0  0  0  0  0  0  0  0  0  0  # atno 11005 bound_to 11000
  144.8683  140.7237  143.6063 LP  0  0  0  0  0  0  0  0  0  0  0  0  # atno 17320 bound_to 7965
  145.3484  139.1713  143.4448 LP  0  0  0  0  0  0  0  0  0  0  0  0  # atno 17321 bound_to 7965
  140.0345  144.6055  150.7460 LP  0  0  0  0  0  0  0  0  0  0  0  0  # atno 17342 bound_to 10162
  140.7352  143.2738  151.3804 LP  0  0  0  0  0  0  0  0  0  0  0  0  # atno 17343 bound_to 10162
  156.0199  130.3799  150.1994 LP  0  0  0  0  0  0  0  0  0  0  0  0  # atno 17370 bound_to 10713
  157.0183  130.9971  151.3347 LP  0  0  0  0  0  0  0  0  0  0  0  0  # atno 17371 bound_to 10713
  140.5135  134.6372  157.5293 LP  0  0  0  0  0  0  0  0  0  0  0  0  # atno 17394 bound_to 11000
  139.9799  134.7154  155.9879 LP  0  0  0  0  0  0  0  0  0  0  0  0  # atno 17395 bound_to 11000

$$$$
