AV-unprocessed.smi:861|AV-procd|sdf|3970|dock1
  -GOLD-   22720 1443D 1   1.00000     0.00000
 Structure written by MMmdl.
 43 44  0  0  0  0  0  0  0  0  1 V2000
  152.8200  142.9099  160.7842 C   0  0  0  0  0  0  0  0  0  0  0  0
  152.3898  143.5111  159.4357 C   0  0  0  0  0  0  0  0  0  0  0  0
  152.2664  145.0385  159.5460 C   0  0  0  0  0  0  0  0  0  0  0  0
  151.0789  142.8936  158.9082 C   0  0  0  0  0  0  0  0  0  0  0  0
  151.2075  141.4100  158.5113 C   0  0  0  0  0  0  0  0  0  0  0  0
  151.3160  141.1623  157.0743 N   0  0  0  0  0  0  0  0  0  0  0  0
  151.7319  139.7892  156.8118 C   0  0  0  0  0  0  0  0  0  0  0  0
  151.8452  139.5002  155.3058 C   0  0  0  0  0  0  0  0  0  0  0  0
  150.6023  139.7864  154.6730 O   0  0  0  0  0  0  0  0  0  0  0  0
  150.1843  141.1366  154.8528 C   0  0  1  0  0  0  0  0  0  0  0  0
  148.8533  141.3233  154.1102 C   0  0  0  0  0  0  0  0  0  0  0  0
  148.3258  142.6708  154.2775 N   0  0  0  0  0  0  0  0  0  0  0  0
  146.9589  142.8880  154.4925 C   0  0  0  0  0  0  0  0  0  0  0  0
  146.3814  144.0895  154.0360 C   0  0  0  0  0  0  0  0  0  0  0  0
  145.0083  144.2820  154.2662 C   0  0  0  0  0  0  0  0  0  0  0  0
  144.3167  143.2563  154.9359 C   0  0  0  0  0  0  0  0  0  0  0  0
  144.9218  142.1212  155.3522 N   0  0  0  0  0  0  0  0  0  0  0  0
  146.2292  141.9397  155.1324 N   0  0  0  0  0  0  0  0  0  0  0  0
  150.0650  141.4209  156.3655 C   0  0  0  0  0  0  0  0  0  0  0  0
  152.0519  143.0524  161.5449 H   0  0  0  0  0  0  0  0  0  0  0  0
  153.7360  143.3775  161.1467 H   0  0  0  0  0  0  0  0  0  0  0  0
  153.0166  141.8412  160.7041 H   0  0  0  0  0  0  0  0  0  0  0  0
  153.1769  143.3032  158.7099 H   0  0  0  0  0  0  0  0  0  0  0  0
  151.4945  145.3228  160.2617 H   0  0  0  0  0  0  0  0  0  0  0  0
  152.0098  145.4843  158.5847 H   0  0  0  0  0  0  0  0  0  0  0  0
  153.2050  145.4866  159.8736 H   0  0  0  0  0  0  0  0  0  0  0  0
  150.2989  143.0203  159.6593 H   0  0  0  0  0  0  0  0  0  0  0  0
  150.7528  143.4563  158.0323 H   0  0  0  0  0  0  0  0  0  0  0  0
  152.0986  141.0129  158.9998 H   0  0  0  0  0  0  0  0  0  0  0  0
  150.3669  140.8441  158.9145 H   0  0  0  0  0  0  0  0  0  0  0  0
  152.6936  139.5961  157.2886 H   0  0  0  0  0  0  0  0  0  0  0  0
  151.0176  139.0950  157.2573 H   0  0  0  0  0  0  0  0  0  0  0  0
  152.6389  140.0980  154.8551 H   0  0  0  0  0  0  0  0  0  0  0  0
  152.0977  138.4532  155.1384 H   0  0  0  0  0  0  0  0  0  0  0  0
  150.9360  141.7925  154.4095 H   0  0  0  0  0  0  0  0  0  0  0  0
  149.0025  141.1420  153.0450 H   0  0  0  0  0  0  0  0  0  0  0  0
  148.1241  140.5918  154.4610 H   0  0  0  0  0  0  0  0  0  0  0  0
  148.9659  143.4516  154.2681 H   0  0  0  0  0  0  0  0  0  0  0  0
  146.9691  144.8398  153.5276 H   0  0  0  0  0  0  0  0  0  0  0  0
  144.5046  145.1805  153.9422 H   0  0  0  0  0  0  0  0  0  0  0  0
  143.2604  143.3464  155.1415 H   0  0  0  0  0  0  0  0  0  0  0  0
  149.2673  140.8084  156.7889 H   0  0  0  0  0  0  0  0  0  0  0  0
  149.7666  142.4595  156.5027 H   0  0  0  0  0  0  0  0  0  0  0  0
  1  2  1  0  0  0  0
  1 20  1  0  0  0  0
  1 21  1  0  0  0  0
  1 22  1  0  0  0  0
  2  3  1  0  0  0  0
  2  4  1  0  0  0  0
  2 23  1  0  0  0  0
  3 24  1  0  0  0  0
  3 25  1  0  0  0  0
  3 26  1  0  0  0  0
  4  5  1  0  0  0  0
  4 27  1  0  0  0  0
  4 28  1  0  0  0  0
  5  6  1  0  0  0  0
  5 29  1  0  0  0  0
  5 30  1  0  0  0  0
  6 19  1  0  0  0  0
  6  7  1  0  0  0  0
  7  8  1  0  0  0  0
  7 31  1  0  0  0  0
  7 32  1  0  0  0  0
  8  9  1  0  0  0  0
  8 33  1  0  0  0  0
  8 34  1  0  0  0  0
  9 10  1  0  0  0  0
 10 11  1  0  0  0  0
 10 19  1  0  0  0  0
 10 35  1  0  0  0  0
 11 12  1  0  0  0  0
 11 36  1  0  0  0  0
 11 37  1  0  0  0  0
 12 13  1  0  0  0  0
 12 38  1  0  0  0  0
 13 18  1  0  0  0  0
 13 14  2  0  0  0  0
 14 15  1  0  0  0  0
 14 39  1  0  0  0  0
 15 16  2  0  0  0  0
 15 40  1  0  0  0  0
 16 17  1  0  0  0  0
 16 41  1  0  0  0  0
 17 18  2  0  0  0  0
 19 42  1  0  0  0  0
 19 43  1  0  0  0  0
M  END
> <s_m_source_file>
AV-unprocessed.smi

> <i_m_source_file_index>
861

> <i_lp_mmshare_version>
43012

> <i_f3d_flags>
0

> <s_epik_input>
W0NIM11bQ0hdKFtDSDNdKVtDSDJdW0NIMl1OMVtDSDJdW0NIMl1PW0NASF0oW0NIMl0xKVtDSDJdW05IXWMyW2NIXVtjSF1bY0hdbm4y

> <s_epik_cmdline>
J2VwaWtfcHl0aG9uJywgJy1waCcsICc3LjAnLCAnLXRuJywgJzgnLCAnLW1hJywgJzIwMCcsICctbWV0YWxfYmluZGluZycsICctaW1hZScsICc8aW5maWxlLm1hZT4nLCAnLW9tYWUnLCAnPG91dGZpbGUubWFlPic=

> <r_lp_tautomer_probability>
0.999978

> <r_epik_Ionization_Penalty>
1.1508

> <r_epik_Ionization_Penalty_Charging>
0

> <r_epik_Ionization_Penalty_Neutral>
1.1508

> <r_epik_State_Penalty>
1.22808

> <r_epik_Charging_Adjusted_Penalty>
1.22808

> <i_epik_Tot_Q>
0

> <i_epik_Tot_abs_Q>
0

> <r_epik_Metal_State_Penalty>
1.22149

> <b_epik_Metal_Only>
0

> <s_lp_Force_Field>
OPLS_2005

> <r_lp_Energy>
29.6071

> <b_lp_Chiralities_Consistent>
1

> <s_lp_Variant>
AV-unprocessed.smi:861-5

> <Gold.Version>
5.8.1

> <Gold.Id.Protein>
6NUR|6NUR_protein|mol2

> <Gold.PLP.Fitness>
39.6989

> <Gold.PLP.PLP>
-38.7311

> <Gold.PLP.part.hbond>
-2.0000

> <Gold.PLP.part.metal>
0.0000

> <Gold.PLP.part.buried>
-3.4339

> <Gold.PLP.part.nonpolar>
-34.0706

> <Gold.PLP.part.repulsive>
0.5050

> <Gold.PLP.ligand.clash>
0.0000

> <Gold.PLP.ligand.torsion>
0.7259

> <Gold.PLP.Chemscore.Hbond>
0.7520

> <Gold.PLP.Chemscore.CHOScore>
0.0000

> <Gold.PLP.Chemscore.Metal>
0.0000

> <Gold.Chemscore.Hbonds>
donor molecule, donor type, donor heavy atom, donor atom, acceptor molecule, acceptor atom, score
      L1  H    12    38       P1  8028  0.40

> <Gold.PLP.Chemscore.Internal.Correction>
0.1636

> <Gold.Rescore>
     Score         DG    S(hbond)    S(metal)    S(lipo)     H(rot)  DE(clash)    DE(int)     intcor
     14.91     -15.81       0.95        0.00      97.47       1.66       0.06       0.85       ----

> <Gold.Chemscore.Fitness>
14.9076

> <Gold.Chemscore.DG>
-15.8112

> <Gold.Chemscore.ZeroCoef>
-5.4800

> <Gold.Chemscore.Hbond>
0.9506

> <Gold.Chemscore.Metal>
0.0000

> <Gold.Chemscore.Lipo>
97.4667

> <Gold.Chemscore.Internal_Hbond>
0.0000

> <Gold.Chemscore.DEClash>
0.0567

> <Gold.Chemscore.DEInternal>
0.8469

> <Gold.Chemscore.Rot>
1.6591

> <Gold.Chemscore.Internal.Correction>
   9.000000E+99

> <Gold.Chemscore.Hbonds>
donor molecule, donor type, donor heavy atom, donor atom, acceptor molecule, acceptor atom, score
      L1  H    12    38       P1  8028  0.40

> <Gold.Chemscore.Hbond.Weighted>
-3.1750

> <Gold.Chemscore.Metal.Weighted>
-0.0000

> <Gold.Chemscore.Lipo.Weighted>
-11.4036

> <Gold.Chemscore.Internal_Hbond.Weighted>
0.0000

> <Gold.Chemscore.DEClash.Weighted>
0.0567

> <Gold.Chemscore.DEInternal.Weighted>
0.8469

> <Gold.Chemscore.Rot.Weighted>
4.2474

> <Gold.Chemscore.Internal.Correction.Weighted>
   9.000000E+99

> <Gold.Protein.RotatedTorsions>
[ 6907 6896 6895 6894 ] final -124.51 input  -60.11 | X-H torsion
[ 7974 7965 7964 7962 ] final  -38.35 input  175.53 | X-H torsion
[ 8008 7997 7996 7995 ] final -130.02 input   59.86 | X-H torsion
[ 10167 10162 10161 10158 ] final   35.41 input  -65.29 | X-H torsion
[ 10718 10713 10712 10709 ] final  125.15 input   66.30 | X-H torsion
[ 10763 10752 10751 10750 ] final  -27.02 input  -60.55 | X-H torsion
[ 11005 11000 10999 10996 ] final  -77.66 input  -57.11 | X-H torsion

> <Gold.Protein.ActiveResidues>
 VAL166  LYS551  ARG553  GLY616  TRP617  ASP618  TYR619  PRO620  LYS621  CYS622 
 ASP623  PHE694  ASN695  SER759  ASP760  ASP761  ALA762  ILE779  LEU786  VAL792 
 PHE793  MET794  SER795  GLU796  ALA797  LYS798  CYS799  TRP800  GLU811  SER814 

> <Gold.Protein.RotatedAtoms>
  150.8776  133.7417  159.2941 H   0  0  0  0  0  0  0  0  0  0  0  0  # atno 6907 bound_to 6896
  151.5009  135.1060  159.9838 H   0  0  0  0  0  0  0  0  0  0  0  0  # atno 6908 bound_to 6896
  152.4738  133.8045  159.7026 H   0  0  0  0  0  0  0  0  0  0  0  0  # atno 6909 bound_to 6896
  146.0495  140.6501  142.9049 H   0  0  0  0  0  0  0  0  0  0  0  0  # atno 7974 bound_to 7965
  155.2889  140.0447  157.3021 H   0  0  0  0  0  0  0  0  0  0  0  0  # atno 8008 bound_to 7997
  154.5553  140.2330  155.8388 H   0  0  0  0  0  0  0  0  0  0  0  0  # atno 8009 bound_to 7997
  156.2002  140.3027  155.9517 H   0  0  0  0  0  0  0  0  0  0  0  0  # atno 8010 bound_to 7997
  140.4224  144.1440  150.6149 H   0  0  0  0  0  0  0  0  0  0  0  0  # atno 10167 bound_to 10162
  157.5527  131.1093  150.8675 H   0  0  0  0  0  0  0  0  0  0  0  0  # atno 10718 bound_to 10713
  153.7254  135.6942  153.5002 H   0  0  0  0  0  0  0  0  0  0  0  0  # atno 10763 bound_to 10752
  153.2174  135.4381  155.0449 H   0  0  0  0  0  0  0  0  0  0  0  0  # atno 10764 bound_to 10752
  154.8271  135.3452  154.6786 H   0  0  0  0  0  0  0  0  0  0  0  0  # atno 10765 bound_to 10752
  141.1661  133.7031  156.7854 H   0  0  0  0  0  0  0  0  0  0  0  0  # atno 11005 bound_to 11000
  144.7115  140.4055  143.7077 LP  0  0  0  0  0  0  0  0  0  0  0  0  # atno 17320 bound_to 7965
  145.6749  139.1606  143.2733 LP  0  0  0  0  0  0  0  0  0  0  0  0  # atno 17321 bound_to 7965
  140.4518  143.2483  151.9337 LP  0  0  0  0  0  0  0  0  0  0  0  0  # atno 17342 bound_to 10162
  139.4783  144.5554  151.8321 LP  0  0  0  0  0  0  0  0  0  0  0  0  # atno 17343 bound_to 10162
  156.9195  130.5310  149.5279 LP  0  0  0  0  0  0  0  0  0  0  0  0  # atno 17370 bound_to 10713
  156.0591  130.5647  150.9154 LP  0  0  0  0  0  0  0  0  0  0  0  0  # atno 17371 bound_to 10713
  140.2364  134.8647  157.3529 LP  0  0  0  0  0  0  0  0  0  0  0  0  # atno 17394 bound_to 11000
  140.1839  134.4455  155.7755 LP  0  0  0  0  0  0  0  0  0  0  0  0  # atno 17395 bound_to 11000

$$$$
