AV-unprocessed.smi:48|AV-procd|sdf|449|dock5
  -GOLD-   2262016313D 1   1.00000     0.00000
 Structure written by MMmdl.
 30 32  0  0  0  0  0  0  0  0  1 V2000
  148.3136  138.9324  152.8935 O   0  0  0  0  0  0  0  0  0  0  0  0
  147.9574  139.5000  154.1359 C   0  0  0  0  0  0  0  0  0  0  0  0
  149.2220  139.9022  154.9092 C   0  0  1  0  0  0  0  0  0  0  0  0
  148.9802  139.8121  156.3093 O   0  0  0  0  0  0  0  0  0  0  0  0
  150.1938  139.7044  156.9924 C   0  0  2  0  0  0  0  0  0  0  0  0
  150.5219  141.0415  157.5871 N   0  0  0  0  0  0  0  0  0  0  0  0
  149.9962  142.2550  157.3122 C   0  0  0  0  0  0  0  0  0  0  0  0
  150.4680  143.2966  157.9975 N   0  0  0  0  0  0  0  0  0  0  0  0
  151.4075  142.6885  158.8134 C   0  0  0  0  0  0  0  0  0  0  0  0
  152.2934  143.1869  159.7991 C   0  0  0  0  0  0  0  0  0  0  0  0
  152.3384  144.8679  160.1864 Cl  0  0  0  0  0  0  0  0  0  0  0  0
  153.1092  142.3112  160.4342 N   0  0  0  0  0  0  0  0  0  0  0  0
  153.0543  141.0121  160.1140 C   0  0  0  0  0  0  0  0  0  0  0  0
  152.2775  140.3997  159.2125 N   0  0  0  0  0  0  0  0  0  0  0  0
  151.4562  141.2862  158.5764 C   0  0  0  0  0  0  0  0  0  0  0  0
  151.2520  139.2304  155.9667 C   0  0  2  0  0  0  0  0  0  0  0  0
  152.2549  140.1958  155.6848 O   0  0  0  0  0  0  0  0  0  0  0  0
  150.3836  138.9220  154.7483 C   0  0  2  0  0  0  0  0  0  0  0  0
  151.0632  139.0670  153.5150 O   0  0  0  0  0  0  0  0  0  0  0  0
  149.5469  140.9101  154.6438 H   0  0  0  0  0  0  0  0  0  0  0  0
  150.0848  139.0410  157.8512 H   0  0  0  0  0  0  0  0  0  0  0  0
  151.7388  138.3282  156.3385 H   0  0  0  0  0  0  0  0  0  0  0  0
  150.0095  137.9001  154.8269 H   0  0  0  0  0  0  0  0  0  0  0  0
  148.7217  139.6006  152.3642 H   0  0  0  0  0  0  0  0  0  0  0  0
  147.2928  140.3517  153.9892 H   0  0  0  0  0  0  0  0  0  0  0  0
  147.4006  138.7458  154.6925 H   0  0  0  0  0  0  0  0  0  0  0  0
  149.2224  142.3862  156.5703 H   0  0  0  0  0  0  0  0  0  0  0  0
  153.7310  140.3698  160.6580 H   0  0  0  0  0  0  0  0  0  0  0  0
  151.8404  141.0399  155.5915 H   0  0  0  0  0  0  0  0  0  0  0  0
  150.4222  139.0981  152.8215 H   0  0  0  0  0  0  0  0  0  0  0  0
  1  2  1  0  0  0  0
  1 24  1  0  0  0  0
  2  3  1  0  0  0  0
  2 25  1  0  0  0  0
  2 26  1  0  0  0  0
  3 20  1  0  0  0  0
  3 18  1  0  0  0  0
  3  4  1  0  0  0  0
  4  5  1  0  0  0  0
  5 21  1  0  0  0  0
  5  6  1  0  0  0  0
  5 16  1  0  0  0  0
  6 15  1  0  0  0  0
  6  7  1  0  0  0  0
  7  8  2  0  0  0  0
  7 27  1  0  0  0  0
  8  9  1  0  0  0  0
  9 15  2  0  0  0  0
  9 10  1  0  0  0  0
 10 11  1  0  0  0  0
 10 12  2  0  0  0  0
 12 13  1  0  0  0  0
 13 14  2  0  0  0  0
 13 28  1  0  0  0  0
 14 15  1  0  0  0  0
 16 22  1  0  0  0  0
 16 17  1  0  0  0  0
 16 18  1  0  0  0  0
 17 29  1  0  0  0  0
 18 23  1  0  0  0  0
 18 19  1  0  0  0  0
 19 30  1  0  0  0  0
M  END
> <s_m_source_file>
AV-unprocessed.smi

> <i_m_source_file_index>
48

> <i_lp_mmshare_version>
43012

> <i_f3d_flags>
0

> <s_epik_input>
W09IXVtDSDJdW0NASF0xT1tDQEhdKFtDQEhdKFtPSF0pW0NAQEhdMVtPSF0pbihbY0hdbjIpYyhjMjMpbltjSF1uYzNDbA==

> <s_epik_cmdline>
J2VwaWtfcHl0aG9uJywgJy1waCcsICc3LjAnLCAnLXRuJywgJzgnLCAnLW1hJywgJzIwMCcsICctbWV0YWxfYmluZGluZycsICctaW1hZScsICc8aW5maWxlLm1hZT4nLCAnLW9tYWUnLCAnPG91dGZpbGUubWFlPic=

> <r_lp_tautomer_probability>
1

> <r_epik_Ionization_Penalty>
3.45505e-06

> <r_epik_Ionization_Penalty_Charging>
0

> <r_epik_Ionization_Penalty_Neutral>
3.45505e-06

> <r_epik_State_Penalty>
-0

> <r_epik_Charging_Adjusted_Penalty>
0

> <i_epik_Tot_Q>
0

> <i_epik_Tot_abs_Q>
0

> <r_epik_Metal_State_Penalty>
-0

> <b_epik_Metal_Only>
0

> <s_epik_Chemistry_Notes>
This compound contains an acetal/aminal-like group ( X-CH(R)-Y where X, Y are N, S, or O) that may be acid/base labile, releasing an aldehyde.

> <s_lp_Force_Field>
OPLS_2005

> <r_lp_Energy>
41.4935

> <b_lp_Chiralities_Consistent>
1

> <s_lp_Variant>
AV-unprocessed.smi:48-3

> <Gold.Version>
5.8.1

> <Gold.Id.Protein>
6NUR|6NUR_protein|mol2

> <Gold.PLP.Fitness>
37.7163

> <Gold.PLP.PLP>
-26.4048

> <Gold.PLP.part.hbond>
-5.1611

> <Gold.PLP.part.metal>
0.0000

> <Gold.PLP.part.buried>
1.5795

> <Gold.PLP.part.nonpolar>
-21.2414

> <Gold.PLP.part.repulsive>
0.1647

> <Gold.PLP.ligand.clash>
0.0000

> <Gold.PLP.ligand.torsion>
0.7292

> <Gold.PLP.Chemscore.Hbond>
3.4981

> <Gold.PLP.Chemscore.CHOScore>
0.7333

> <Gold.PLP.Chemscore.Metal>
0.0000

> <Gold.Chemscore.Hbonds>
donor molecule, donor type, donor heavy atom, donor atom, acceptor molecule, acceptor atom, score
      L1  H     1    24       P1  7957  1.00
      L1  H    19    30       P1  7957  0.94
      P1  H  7989  7998       L1    19  0.78
      P1  H  7997  8008       L1    17  0.70
      L1  C     7    27       P1  8028  0.74

> <Gold.PLP.Chemscore.Internal.Correction>
0.0757

> <Gold.Rescore>
     Score         DG    S(hbond)    S(metal)    S(lipo)     H(rot)  DE(clash)    DE(int)     intcor
      6.99      -9.97       2.30        0.00      56.00       3.80       2.28       0.71       ----

> <Gold.Chemscore.Fitness>
6.9868

> <Gold.Chemscore.DG>
-9.9744

> <Gold.Chemscore.ZeroCoef>
-5.4800

> <Gold.Chemscore.Hbond>
2.2977

> <Gold.Chemscore.Metal>
0.0000

> <Gold.Chemscore.Lipo>
56.0048

> <Gold.Chemscore.Internal_Hbond>
0.0000

> <Gold.Chemscore.DEClash>
2.2784

> <Gold.Chemscore.DEInternal>
0.7092

> <Gold.Chemscore.Rot>
3.8017

> <Gold.Chemscore.Internal.Correction>
   9.000000E+99

> <Gold.Chemscore.Hbonds>
donor molecule, donor type, donor heavy atom, donor atom, acceptor molecule, acceptor atom, score
      L1  H     1    24       P1  7957  0.91
      L1  H    19    30       P1  7957  0.47
      P1  H  7989  7998       L1    19  0.10
      P1  H  7997  8008       L1    17  0.66

> <Gold.Chemscore.Hbond.Weighted>
-7.6742

> <Gold.Chemscore.Metal.Weighted>
-0.0000

> <Gold.Chemscore.Lipo.Weighted>
-6.5526

> <Gold.Chemscore.Internal_Hbond.Weighted>
0.0000

> <Gold.Chemscore.DEClash.Weighted>
2.2784

> <Gold.Chemscore.DEInternal.Weighted>
0.7092

> <Gold.Chemscore.Rot.Weighted>
9.7324

> <Gold.Chemscore.Internal.Correction.Weighted>
   9.000000E+99

> <Gold.Protein.RotatedTorsions>
[ 6907 6896 6895 6894 ] final  -47.34 input  -60.11 | X-H torsion
[ 7974 7965 7964 7962 ] final  -57.28 input  175.53 | X-H torsion
[ 8008 7997 7996 7995 ] final  -32.63 input   59.86 | X-H torsion
[ 10167 10162 10161 10158 ] final   -2.02 input  -65.29 | X-H torsion
[ 10718 10713 10712 10709 ] final -121.82 input   66.30 | X-H torsion
[ 10763 10752 10751 10750 ] final  -77.90 input  -60.55 | X-H torsion
[ 11005 11000 10999 10996 ] final  143.19 input  -57.11 | X-H torsion

> <Gold.Protein.ActiveResidues>
 VAL166  LYS551  ARG553  GLY616  TRP617  ASP618  TYR619  PRO620  LYS621  CYS622 
 ASP623  PHE694  ASN695  SER759  ASP760  ASP761  ALA762  ILE779  LEU786  VAL792 
 PHE793  MET794  SER795  GLU796  ALA797  LYS798  CYS799  TRP800  GLU811  SER814 

> <Gold.Protein.RotatedAtoms>
  150.9018  134.8431  159.7364 H   0  0  0  0  0  0  0  0  0  0  0  0  # atno 6907 bound_to 6896
  152.4896  134.4491  159.9578 H   0  0  0  0  0  0  0  0  0  0  0  0  # atno 6908 bound_to 6896
  151.4542  133.3570  159.2835 H   0  0  0  0  0  0  0  0  0  0  0  0  # atno 6909 bound_to 6896
  145.8529  140.8339  142.9976 H   0  0  0  0  0  0  0  0  0  0  0  0  # atno 7974 bound_to 7965
  154.4174  140.1732  156.1758 H   0  0  0  0  0  0  0  0  0  0  0  0  # atno 8008 bound_to 7997
  155.9723  140.3384  155.6563 H   0  0  0  0  0  0  0  0  0  0  0  0  # atno 8009 bound_to 7997
  155.6609  140.0701  157.2545 H   0  0  0  0  0  0  0  0  0  0  0  0  # atno 8010 bound_to 7997
  140.6834  143.6706  150.8188 H   0  0  0  0  0  0  0  0  0  0  0  0  # atno 10167 bound_to 10162
  156.1368  130.6436  150.9708 H   0  0  0  0  0  0  0  0  0  0  0  0  # atno 10718 bound_to 10713
  154.5189  135.5748  153.6665 H   0  0  0  0  0  0  0  0  0  0  0  0  # atno 10763 bound_to 10752
  152.9913  135.6177  154.2780 H   0  0  0  0  0  0  0  0  0  0  0  0  # atno 10764 bound_to 10752
  154.2700  135.2853  155.2722 H   0  0  0  0  0  0  0  0  0  0  0  0  # atno 10765 bound_to 10752
  140.0535  134.9243  157.1058 H   0  0  0  0  0  0  0  0  0  0  0  0  # atno 11005 bound_to 11000
  144.6728  140.0981  143.7462 LP  0  0  0  0  0  0  0  0  0  0  0  0  # atno 17320 bound_to 7965
  145.9336  139.2622  143.1310 LP  0  0  0  0  0  0  0  0  0  0  0  0  # atno 17321 bound_to 7965
  140.0410  143.5346  152.2718 LP  0  0  0  0  0  0  0  0  0  0  0  0  # atno 17342 bound_to 10162
  139.6173  144.7622  151.2817 LP  0  0  0  0  0  0  0  0  0  0  0  0  # atno 17343 bound_to 10162
  157.6539  131.0892  150.7990 LP  0  0  0  0  0  0  0  0  0  0  0  0  # atno 17370 bound_to 10713
  156.8069  130.4939  149.5361 LP  0  0  0  0  0  0  0  0  0  0  0  0  # atno 17371 bound_to 10713
  140.3881  134.2214  155.7167 LP  0  0  0  0  0  0  0  0  0  0  0  0  # atno 17394 bound_to 11000
  141.1941  133.8136  157.0771 LP  0  0  0  0  0  0  0  0  0  0  0  0  # atno 17395 bound_to 11000

$$$$
