AV-unprocessed.smi:3110|AV-procd|sdf|11829|dock2
  -GOLD-   2272017203D 1   1.00000     0.00000
 Structure written by MMmdl.
 34 35  0  0  0  0  0  0  0  0  2 V2000
  150.1459  142.6123  158.7081 O   0  0  0  0  0  0  0  0  0  0  0  0
  150.8341  143.0023  157.7646 C   0  0  0  0  0  0  0  0  0  0  0  0
  151.7690  144.2047  157.9317 C   0  0  0  0  0  0  0  0  0  0  0  0
  152.7563  144.0473  159.1068 C   0  0  1  0  0  0  0  0  0  0  0  0
  152.1320  144.4077  160.4299 C   0  0  0  0  0  0  0  0  0  0  0  0
  152.3089  143.4678  161.3560 C   0  0  0  0  0  0  0  0  0  0  0  0
  153.0852  142.2890  160.8380 C   0  0  0  0  0  0  0  0  0  0  0  0
  153.2610  142.5967  159.3347 C   0  0  0  0  0  0  0  0  0  0  0  0
  150.8149  142.4234  156.5542 N   0  0  0  0  0  0  0  0  0  0  0  0
  149.9806  141.2851  156.1897 C   0  0  0  0  0  0  0  0  0  0  0  0
  149.5628  141.3444  154.7109 C   0  0  0  0  0  0  0  0  0  0  0  0
  148.1075  141.3690  154.5600 N   0  0  0  0  0  0  0  0  0  0  0  0
  147.2161  142.1852  155.2071 C   0  0  0  0  0  0  0  0  0  0  0  0
  145.9706  141.8483  154.7426 C   0  0  0  0  0  0  0  0  0  0  0  0
  146.1551  140.8429  153.8314 N   0  3  0  0  0  0  0  0  0  0  0  0
  147.4557  140.5527  153.7220 C   0  0  0  0  0  0  0  0  0  0  0  0
  152.3227  144.3295  157.0006 H   0  0  0  0  0  0  0  0  0  0  0  0
  151.1801  145.1138  158.0646 H   0  0  0  0  0  0  0  0  0  0  0  0
  153.6072  144.7161  158.9686 H   0  0  0  0  0  0  0  0  0  0  0  0
  151.6174  145.3442  160.5870 H   0  0  0  0  0  0  0  0  0  0  0  0
  151.9601  143.5247  162.3766 H   0  0  0  0  0  0  0  0  0  0  0  0
  154.0448  142.2254  161.3519 H   0  0  0  0  0  0  0  0  0  0  0  0
  152.5376  141.3604  161.0023 H   0  0  0  0  0  0  0  0  0  0  0  0
  152.6702  141.8870  158.7540 H   0  0  0  0  0  0  0  0  0  0  0  0
  154.2983  142.4805  159.0193 H   0  0  0  0  0  0  0  0  0  0  0  0
  151.4152  142.8026  155.8359 H   0  0  0  0  0  0  0  0  0  0  0  0
  150.5461  140.3727  156.3807 H   0  0  0  0  0  0  0  0  0  0  0  0
  149.1026  141.2471  156.8370 H   0  0  0  0  0  0  0  0  0  0  0  0
  149.9667  142.2324  154.2221 H   0  0  0  0  0  0  0  0  0  0  0  0
  149.9433  140.4786  154.1672 H   0  0  0  0  0  0  0  0  0  0  0  0
  147.5259  142.9255  155.9305 H   0  0  0  0  0  0  0  0  0  0  0  0
  144.9928  142.2391  154.9848 H   0  0  0  0  0  0  0  0  0  0  0  0
  147.8935  139.8069  153.0821 H   0  0  0  0  0  0  0  0  0  0  0  0
  145.4162  140.3833  153.3140 H   0  0  0  0  0  0  0  0  0  0  0  0
  1  2  2  0  0  0  0
  2  3  1  0  0  0  0
  2  9  1  0  0  0  0
  3  4  1  0  0  0  0
  3 17  1  0  0  0  0
  3 18  1  0  0  0  0
  4  8  1  0  0  0  0
  4  5  1  0  0  0  0
  4 19  1  0  0  0  0
  5  6  2  0  0  0  0
  5 20  1  0  0  0  0
  6  7  1  0  0  0  0
  6 21  1  0  0  0  0
  7  8  1  0  0  0  0
  7 22  1  0  0  0  0
  7 23  1  0  0  0  0
  8 24  1  0  0  0  0
  8 25  1  0  0  0  0
  9 10  1  0  0  0  0
  9 26  1  0  0  0  0
 10 11  1  0  0  0  0
 10 27  1  0  0  0  0
 10 28  1  0  0  0  0
 11 12  1  0  0  0  0
 11 29  1  0  0  0  0
 11 30  1  0  0  0  0
 12 16  1  0  0  0  0
 12 13  1  0  0  0  0
 13 14  2  0  0  0  0
 13 31  1  0  0  0  0
 14 15  1  0  0  0  0
 14 32  1  0  0  0  0
 15 16  2  0  0  0  0
 15 34  1  0  0  0  0
 16 33  1  0  0  0  0
M  CHG  1  15   1
M  END
> <s_m_source_file>
AV-unprocessed.smi

> <i_m_source_file_index>
3110

> <i_lp_mmshare_version>
43012

> <i_f3d_flags>
0

> <s_epik_input>
W0NIMl0xW0NIMl1bQ0hdPVtDSF1bQ0BIXTFbQ0gyXUMoPU8pW05IXVtDSDJdW0NIMl1uMltjSF1bY0hdbltjSF0y

> <s_epik_cmdline>
J2VwaWtfcHl0aG9uJywgJy1waCcsICc3LjAnLCAnLXRuJywgJzgnLCAnLW1hJywgJzIwMCcsICctbWV0YWxfYmluZGluZycsICctaW1hZScsICc8aW5maWxlLm1hZT4nLCAnLW9tYWUnLCAnPG91dGZpbGUubWFlPic=

> <r_lp_tautomer_probability>
1

> <r_epik_Ionization_Penalty>
0.271094

> <r_epik_Ionization_Penalty_Charging>
0

> <r_epik_Ionization_Penalty_Neutral>
0.271094

> <r_epik_State_Penalty>
0.263241

> <r_epik_Charging_Adjusted_Penalty>
0.263241

> <i_epik_Tot_Q>
1

> <i_epik_Tot_abs_Q>
1

> <r_epik_Metal_State_Penalty>
0.547832

> <b_epik_Metal_Only>
0

> <s_lp_Force_Field>
OPLS_2005

> <r_lp_Energy>
18.3702

> <b_lp_Chiralities_Consistent>
1

> <s_lp_Variant>
AV-unprocessed.smi:3110-2

> <Gold.Version>
5.8.1

> <Gold.Id.Protein>
6NUR|6NUR_protein|mol2

> <Gold.PLP.Fitness>
52.0852

> <Gold.PLP.PLP>
-42.0334

> <Gold.PLP.part.hbond>
-1.7098

> <Gold.PLP.part.metal>
0.0000

> <Gold.PLP.part.buried>
-1.6639

> <Gold.PLP.part.nonpolar>
-39.2979

> <Gold.PLP.part.repulsive>
0.1912

> <Gold.PLP.ligand.clash>
0.0000

> <Gold.PLP.ligand.torsion>
0.9407

> <Gold.PLP.Chemscore.Hbond>
2.0000

> <Gold.PLP.Chemscore.CHOScore>
1.9594

> <Gold.PLP.Chemscore.Metal>
0.0000

> <Gold.Chemscore.Hbonds>
donor molecule, donor type, donor heavy atom, donor atom, acceptor molecule, acceptor atom, score
      L1  H    15    34       P1 10175  1.92
      L1  C    13    31       P1  8028  0.93
      L1  C    16    33       P1  7957  0.88

> <Gold.PLP.Chemscore.Internal.Correction>
0.0551

> <Gold.Rescore>
     Score         DG    S(hbond)    S(metal)    S(lipo)     H(rot)  DE(clash)    DE(int)     intcor
     13.95     -14.86       0.95        0.00      98.89       2.10       0.08       0.83       ----

> <Gold.Chemscore.Fitness>
13.9479

> <Gold.Chemscore.DG>
-14.8624

> <Gold.Chemscore.ZeroCoef>
-5.4800

> <Gold.Chemscore.Hbond>
0.9516

> <Gold.Chemscore.Metal>
0.0000

> <Gold.Chemscore.Lipo>
98.8924

> <Gold.Chemscore.Internal_Hbond>
0.0000

> <Gold.Chemscore.DEClash>
0.0839

> <Gold.Chemscore.DEInternal>
0.8306

> <Gold.Chemscore.Rot>
2.0963

> <Gold.Chemscore.Internal.Correction>
   9.000000E+99

> <Gold.Chemscore.Hbonds>
donor molecule, donor type, donor heavy atom, donor atom, acceptor molecule, acceptor atom, score
      L1  H    15    34       P1 10175  0.90

> <Gold.Chemscore.Hbond.Weighted>
-3.1784

> <Gold.Chemscore.Metal.Weighted>
-0.0000

> <Gold.Chemscore.Lipo.Weighted>
-11.5704

> <Gold.Chemscore.Internal_Hbond.Weighted>
0.0000

> <Gold.Chemscore.DEClash.Weighted>
0.0839

> <Gold.Chemscore.DEInternal.Weighted>
0.8306

> <Gold.Chemscore.Rot.Weighted>
5.3665

> <Gold.Chemscore.Internal.Correction.Weighted>
   9.000000E+99

> <Gold.Protein.RotatedTorsions>
[ 6907 6896 6895 6894 ] final   65.49 input  -60.11 | X-H torsion
[ 7974 7965 7964 7962 ] final   61.40 input  175.53 | X-H torsion
[ 8008 7997 7996 7995 ] final  176.04 input   59.86 | X-H torsion
[ 10167 10162 10161 10158 ] final   72.85 input  -65.29 | X-H torsion
[ 10718 10713 10712 10709 ] final  119.35 input   66.30 | X-H torsion
[ 10763 10752 10751 10750 ] final -155.75 input  -60.55 | X-H torsion
[ 11005 11000 10999 10996 ] final  -46.41 input  -57.11 | X-H torsion

> <Gold.Protein.ActiveResidues>
 VAL166  LYS551  ARG553  GLY616  TRP617  ASP618  TYR619  PRO620  LYS621  CYS622 
 ASP623  PHE694  ASN695  SER759  ASP760  ASP761  ALA762  ILE779  LEU786  VAL792 
 PHE793  MET794  SER795  GLU796  ALA797  LYS798  CYS799  TRP800  GLU811  SER814 

> <Gold.Protein.RotatedAtoms>
  152.4411  134.5588  159.9888 H   0  0  0  0  0  0  0  0  0  0  0  0  # atno 6907 bound_to 6896
  151.5686  133.3387  159.2993 H   0  0  0  0  0  0  0  0  0  0  0  0  # atno 6908 bound_to 6896
  150.8318  134.7607  159.6923 H   0  0  0  0  0  0  0  0  0  0  0  0  # atno 6909 bound_to 6896
  145.8852  139.3471  143.0682 H   0  0  0  0  0  0  0  0  0  0  0  0  # atno 7974 bound_to 7965
  156.0807  140.1394  156.9716 H   0  0  0  0  0  0  0  0  0  0  0  0  # atno 8008 bound_to 7997
  154.4583  140.0952  156.6871 H   0  0  0  0  0  0  0  0  0  0  0  0  # atno 8009 bound_to 7997
  155.5080  140.3453  155.4385 H   0  0  0  0  0  0  0  0  0  0  0  0  # atno 8010 bound_to 7997
  140.0308  144.5467  150.7508 H   0  0  0  0  0  0  0  0  0  0  0  0  # atno 10167 bound_to 10162
  157.5968  131.1057  150.7884 H   0  0  0  0  0  0  0  0  0  0  0  0  # atno 10718 bound_to 10713
  154.7764  135.3161  154.8083 H   0  0  0  0  0  0  0  0  0  0  0  0  # atno 10763 bound_to 10752
  153.8806  135.6835  153.4771 H   0  0  0  0  0  0  0  0  0  0  0  0  # atno 10764 bound_to 10752
  153.1388  135.4748  154.9400 H   0  0  0  0  0  0  0  0  0  0  0  0  # atno 10765 bound_to 10752
  141.0577  133.6720  156.3151 H   0  0  0  0  0  0  0  0  0  0  0  0  # atno 11005 bound_to 11000
  145.8975  140.9264  143.0520 LP  0  0  0  0  0  0  0  0  0  0  0  0  # atno 17320 bound_to 7965
  144.6728  140.0988  143.7461 LP  0  0  0  0  0  0  0  0  0  0  0  0  # atno 17321 bound_to 7965
  140.7303  143.2681  151.3977 LP  0  0  0  0  0  0  0  0  0  0  0  0  # atno 17342 bound_to 10162
  139.6077  144.1163  152.2266 LP  0  0  0  0  0  0  0  0  0  0  0  0  # atno 17343 bound_to 10162
  156.8293  130.5010  149.5333 LP  0  0  0  0  0  0  0  0  0  0  0  0  # atno 17370 bound_to 10713
  156.1032  130.5984  150.9928 LP  0  0  0  0  0  0  0  0  0  0  0  0  # atno 17371 bound_to 10713
  140.5931  134.5630  157.5503 LP  0  0  0  0  0  0  0  0  0  0  0  0  # atno 17394 bound_to 11000
  139.9404  134.7797  156.0692 LP  0  0  0  0  0  0  0  0  0  0  0  0  # atno 17395 bound_to 11000

$$$$
