AV-unprocessed.smi:1433|AV-procd|sdf|5848|dock2
  -GOLD-   22720 5513D 1   1.00000     0.00000
 Structure written by MMmdl.
 45 46  0  0  0  0  0  0  0  0  2 V2000
  149.0640  139.7809  153.1736 C   0  0  0  0  0  0  0  0  0  0  0  0
  149.5203  139.5376  154.6233 C   0  0  1  0  0  0  0  0  0  0  0  0
  148.8997  138.2822  155.2635 C   0  0  0  0  0  0  0  0  0  0  0  0
  149.4833  137.0306  154.7085 N   0  3  2  0  0  0  0  0  0  0  0  0
  148.8128  135.8003  155.2442 C   0  0  1  0  0  0  0  0  0  0  0  0
  149.1217  135.6399  156.7514 C   0  0  0  0  0  0  0  0  0  0  0  0
  147.2767  135.7632  155.0029 C   0  0  0  0  0  0  0  0  0  0  0  0
  146.9323  135.6537  153.5893 N   0  0  0  0  0  0  0  0  0  0  0  0
  145.6851  135.5346  153.1082 C   0  0  0  0  0  0  0  0  0  0  0  0
  144.6888  135.4345  153.8236 O   0  0  0  0  0  0  0  0  0  0  0  0
  145.5386  135.5585  151.5871 C   0  0  0  0  0  0  0  0  0  0  0  0
  145.4297  134.2092  151.0614 N   0  0  0  0  0  0  0  0  0  0  0  0
  144.4127  133.6641  150.3052 C   0  0  0  0  0  0  0  0  0  0  0  0
  144.7570  132.3712  150.0327 C   0  0  0  0  0  0  0  0  0  0  0  0
  146.0184  132.2148  150.6723 C   0  0  0  0  0  0  0  0  0  0  0  0
  146.4202  133.3172  151.2846 N   0  0  0  0  0  0  0  0  0  0  0  0
  150.9638  137.0737  154.8498 C   0  0  0  0  0  0  0  0  0  0  0  0
  151.5496  138.3396  154.1972 C   0  0  2  0  0  0  0  0  0  0  0  0
  153.0612  138.4521  154.4249 C   0  0  0  0  0  0  0  0  0  0  0  0
  150.9389  139.4987  154.7520 O   0  0  0  0  0  0  0  0  0  0  0  0
  147.9869  139.9444  153.1307 H   0  0  0  0  0  0  0  0  0  0  0  0
  149.2880  138.9384  152.5198 H   0  0  0  0  0  0  0  0  0  0  0  0
  149.5468  140.6657  152.7581 H   0  0  0  0  0  0  0  0  0  0  0  0
  149.1920  140.4006  155.2035 H   0  0  0  0  0  0  0  0  0  0  0  0
  149.0739  138.3049  156.3406 H   0  0  0  0  0  0  0  0  0  0  0  0
  147.8205  138.3173  155.1259 H   0  0  0  0  0  0  0  0  0  0  0  0
  149.2392  134.9456  154.7166 H   0  0  0  0  0  0  0  0  0  0  0  0
  148.6816  134.7314  157.1625 H   0  0  0  0  0  0  0  0  0  0  0  0
  148.7307  136.4818  157.3236 H   0  0  0  0  0  0  0  0  0  0  0  0
  150.1881  135.5693  156.9574 H   0  0  0  0  0  0  0  0  0  0  0  0
  146.8340  134.9137  155.5240 H   0  0  0  0  0  0  0  0  0  0  0  0
  146.7885  136.6600  155.3868 H   0  0  0  0  0  0  0  0  0  0  0  0
  147.6900  135.7279  152.9250 H   0  0  0  0  0  0  0  0  0  0  0  0
  144.6587  136.1362  151.2994 H   0  0  0  0  0  0  0  0  0  0  0  0
  146.4049  136.0440  151.1355 H   0  0  0  0  0  0  0  0  0  0  0  0
  143.5402  134.2362  150.0255 H   0  0  0  0  0  0  0  0  0  0  0  0
  144.1934  131.6469  149.4633 H   0  0  0  0  0  0  0  0  0  0  0  0
  146.6504  131.3398  150.7084 H   0  0  0  0  0  0  0  0  0  0  0  0
  151.2307  137.0282  155.9070 H   0  0  0  0  0  0  0  0  0  0  0  0
  151.4253  136.2190  154.3563 H   0  0  0  0  0  0  0  0  0  0  0  0
  151.3739  138.3106  153.1216 H   0  0  0  0  0  0  0  0  0  0  0  0
  153.5866  137.5909  154.0112 H   0  0  0  0  0  0  0  0  0  0  0  0
  153.2975  138.5091  155.4879 H   0  0  0  0  0  0  0  0  0  0  0  0
  153.4620  139.3462  153.9467 H   0  0  0  0  0  0  0  0  0  0  0  0
  149.3035  137.0369  153.7146 H   0  0  0  0  0  0  0  0  0  0  0  0
  1  2  1  0  0  0  0
  1 21  1  0  0  0  0
  1 22  1  0  0  0  0
  1 23  1  0  0  0  0
  2 20  1  0  0  0  0
  2  3  1  0  0  0  0
  2 24  1  0  0  0  0
  3  4  1  0  0  0  0
  3 25  1  0  0  0  0
  3 26  1  0  0  0  0
  4  5  1  0  0  0  0
  4 17  1  0  0  0  0
  4 45  1  0  0  0  0
  5  6  1  0  0  0  0
  5  7  1  0  0  0  0
  5 27  1  0  0  0  0
  6 28  1  0  0  0  0
  6 29  1  0  0  0  0
  6 30  1  0  0  0  0
  7  8  1  0  0  0  0
  7 31  1  0  0  0  0
  7 32  1  0  0  0  0
  8  9  1  0  0  0  0
  8 33  1  0  0  0  0
  9 10  2  0  0  0  0
  9 11  1  0  0  0  0
 11 12  1  0  0  0  0
 11 34  1  0  0  0  0
 11 35  1  0  0  0  0
 12 16  1  0  0  0  0
 12 13  1  0  0  0  0
 13 14  2  0  0  0  0
 13 36  1  0  0  0  0
 14 15  1  0  0  0  0
 14 37  1  0  0  0  0
 15 16  2  0  0  0  0
 15 38  1  0  0  0  0
 17 18  1  0  0  0  0
 17 39  1  0  0  0  0
 17 40  1  0  0  0  0
 18 19  1  0  0  0  0
 18 20  1  0  0  0  0
 18 41  1  0  0  0  0
 19 42  1  0  0  0  0
 19 43  1  0  0  0  0
 19 44  1  0  0  0  0
M  CHG  1   4   1
M  END
> <s_m_source_file>
AV-unprocessed.smi

> <i_m_source_file_index>
1433

> <i_lp_mmshare_version>
43012

> <i_f3d_flags>
0

> <s_epik_input>
W0NIM11bQ0BASF0xW0NIMl1OKFtDSDJdW0NASF0oTzEpW0NIM10pW0NASF0oW0NIM10pW0NIMl1bTkhdQyg9TylbQ0gyXW4yW2NIXVtjSF1bY0hdbjI=

> <s_epik_cmdline>
J2VwaWtfcHl0aG9uJywgJy1waCcsICc3LjAnLCAnLXRuJywgJzgnLCAnLW1hJywgJzIwMCcsICctbWV0YWxfYmluZGluZycsICctaW1hZScsICc8aW5maWxlLm1hZT4nLCAnLW9tYWUnLCAnPG91dGZpbGUubWFlPic=

> <r_lp_tautomer_probability>
1

> <r_epik_Ionization_Penalty>
0.748405

> <r_epik_Ionization_Penalty_Charging>
0.748396

> <r_epik_Ionization_Penalty_Neutral>
8.54426e-06

> <r_epik_State_Penalty>
0.775162

> <r_epik_Charging_Adjusted_Penalty>
1.52356

> <i_epik_Tot_Q>
1

> <i_epik_Tot_abs_Q>
1

> <r_epik_Metal_State_Penalty>
0.775167

> <b_epik_Metal_Only>
0

> <s_lp_Force_Field>
OPLS_2005

> <r_lp_Energy>
21.4141

> <b_lp_Chiralities_Consistent>
1

> <s_lp_Variant>
AV-unprocessed.smi:1433-14

> <Gold.Version>
5.8.1

> <Gold.Id.Protein>
6NUR|6NUR_protein|mol2

> <Gold.PLP.Fitness>
44.1475

> <Gold.PLP.PLP>
-27.0115

> <Gold.PLP.part.hbond>
-3.0000

> <Gold.PLP.part.metal>
0.0000

> <Gold.PLP.part.buried>
-0.2885

> <Gold.PLP.part.nonpolar>
-24.4092

> <Gold.PLP.part.repulsive>
0.3112

> <Gold.PLP.ligand.clash>
0.0000

> <Gold.PLP.ligand.torsion>
0.3853

> <Gold.PLP.Chemscore.Hbond>
3.9500

> <Gold.PLP.Chemscore.CHOScore>
2.0000

> <Gold.PLP.Chemscore.Metal>
0.0000

> <Gold.Chemscore.Hbonds>
donor molecule, donor type, donor heavy atom, donor atom, acceptor molecule, acceptor atom, score
      L1  H     4    45       P1  7948  2.00
      L1  H     8    33       P1  7948  1.00
      P1  H  7989  7998       L1    20  0.95
      L1  C    13    36       P1 10186  0.88
      L1  C    15    38       P1 10747  1.00

> <Gold.PLP.Chemscore.Internal.Correction>
0.0565

> <Gold.Rescore>
     Score         DG    S(hbond)    S(metal)    S(lipo)     H(rot)  DE(clash)    DE(int)     intcor
     14.94     -17.47       2.07        0.00      84.28       1.87       2.23       0.30       ----

> <Gold.Chemscore.Fitness>
14.9371

> <Gold.Chemscore.DG>
-17.4722

> <Gold.Chemscore.ZeroCoef>
-5.4800

> <Gold.Chemscore.Hbond>
2.0682

> <Gold.Chemscore.Metal>
0.0000

> <Gold.Chemscore.Lipo>
84.2789

> <Gold.Chemscore.Internal_Hbond>
0.0000

> <Gold.Chemscore.DEClash>
2.2349

> <Gold.Chemscore.DEInternal>
0.3002

> <Gold.Chemscore.Rot>
1.8657

> <Gold.Chemscore.Internal.Correction>
   9.000000E+99

> <Gold.Chemscore.Hbonds>
donor molecule, donor type, donor heavy atom, donor atom, acceptor molecule, acceptor atom, score
      L1  H     4    45       P1  7948  0.90
      L1  H     8    33       P1  7948  1.00
      P1  H  7989  7998       L1    20  0.12

> <Gold.Chemscore.Hbond.Weighted>
-6.9077

> <Gold.Chemscore.Metal.Weighted>
-0.0000

> <Gold.Chemscore.Lipo.Weighted>
-9.8606

> <Gold.Chemscore.Internal_Hbond.Weighted>
0.0000

> <Gold.Chemscore.DEClash.Weighted>
2.2349

> <Gold.Chemscore.DEInternal.Weighted>
0.3002

> <Gold.Chemscore.Rot.Weighted>
4.7761

> <Gold.Chemscore.Internal.Correction.Weighted>
   9.000000E+99

> <Gold.Protein.RotatedTorsions>
[ 6907 6896 6895 6894 ] final  -51.10 input  -60.11 | X-H torsion
[ 7974 7965 7964 7962 ] final  -96.36 input  175.53 | X-H torsion
[ 8008 7997 7996 7995 ] final   84.58 input   59.86 | X-H torsion
[ 10167 10162 10161 10158 ] final   12.76 input  -65.29 | X-H torsion
[ 10718 10713 10712 10709 ] final   38.84 input   66.30 | X-H torsion
[ 10763 10752 10751 10750 ] final   76.29 input  -60.55 | X-H torsion
[ 11005 11000 10999 10996 ] final -173.35 input  -57.11 | X-H torsion

> <Gold.Protein.ActiveResidues>
 VAL166  LYS551  ARG553  GLY616  TRP617  ASP618  TYR619  PRO620  LYS621  CYS622 
 ASP623  PHE694  ASN695  SER759  ASP760  ASP761  ALA762  ILE779  LEU786  VAL792 
 PHE793  MET794  SER795  GLU796  ALA797  LYS798  CYS799  TRP800  GLU811  SER814 

> <Gold.Protein.RotatedAtoms>
  150.8643  134.8003  159.7106 H   0  0  0  0  0  0  0  0  0  0  0  0  # atno 6907 bound_to 6896
  152.4670  134.5049  159.9746 H   0  0  0  0  0  0  0  0  0  0  0  0  # atno 6908 bound_to 6896
  151.5147  133.3439  159.2926 H   0  0  0  0  0  0  0  0  0  0  0  0  # atno 6909 bound_to 6896
  145.3479  140.9471  143.2571 H   0  0  0  0  0  0  0  0  0  0  0  0  # atno 7974 bound_to 7965
  155.9389  140.3409  155.6310 H   0  0  0  0  0  0  0  0  0  0  0  0  # atno 8008 bound_to 7997
  155.7065  140.0766  157.2407 H   0  0  0  0  0  0  0  0  0  0  0  0  # atno 8009 bound_to 7997
  154.4099  140.1630  156.2236 H   0  0  0  0  0  0  0  0  0  0  0  0  # atno 8010 bound_to 7997
  140.6047  143.8533  150.7001 H   0  0  0  0  0  0  0  0  0  0  0  0  # atno 10167 bound_to 10162
  157.3635  130.7662  149.7065 H   0  0  0  0  0  0  0  0  0  0  0  0  # atno 10718 bound_to 10713
  153.0714  135.4957  154.8314 H   0  0  0  0  0  0  0  0  0  0  0  0  # atno 10763 bound_to 10752
  154.7028  135.3005  154.9317 H   0  0  0  0  0  0  0  0  0  0  0  0  # atno 10764 bound_to 10752
  154.0036  135.6763  153.4813 H   0  0  0  0  0  0  0  0  0  0  0  0  # atno 10765 bound_to 10752
  140.4867  134.6024  157.4939 H   0  0  0  0  0  0  0  0  0  0  0  0  # atno 11005 bound_to 11000
  144.8740  139.4997  143.6754 LP  0  0  0  0  0  0  0  0  0  0  0  0  # atno 17320 bound_to 7965
  146.2980  139.7338  142.9112 LP  0  0  0  0  0  0  0  0  0  0  0  0  # atno 17321 bound_to 7965
  140.2087  143.3901  152.1735 LP  0  0  0  0  0  0  0  0  0  0  0  0  # atno 17342 bound_to 10162
  139.5316  144.7165  151.5036 LP  0  0  0  0  0  0  0  0  0  0  0  0  # atno 17343 bound_to 10162
  155.9742  130.4107  150.3943 LP  0  0  0  0  0  0  0  0  0  0  0  0  # atno 17370 bound_to 10713
  157.2024  131.0441  151.2643 LP  0  0  0  0  0  0  0  0  0  0  0  0  # atno 17371 bound_to 10713
  139.9794  134.7162  155.9888 LP  0  0  0  0  0  0  0  0  0  0  0  0  # atno 17394 bound_to 11000
  141.1504  133.6549  156.3997 LP  0  0  0  0  0  0  0  0  0  0  0  0  # atno 17395 bound_to 11000

$$$$
