AV-unprocessed.smi:3303|AV-procd|sdf|12692|dock2
  -GOLD-   2272019 23D 1   1.00000     0.00000
 Structure written by MMmdl.
 44 45  0  0  0  0  0  0  0  0  2 V2000
  150.8270  139.0559  155.2605 C   0  0  0  0  0  0  0  0  0  0  0  0
  149.8172  139.8579  154.4212 C   0  0  1  0  0  0  0  0  0  0  0  0
  148.7077  138.9213  153.8981 C   0  0  0  0  0  0  0  0  0  0  0  0
  147.6924  139.6593  153.1058 N   0  3  1  0  0  0  0  0  0  0  0  0
  146.7391  138.7622  152.4140 C   0  0  0  0  0  0  0  0  0  0  0  0
  147.0470  140.7694  153.8615 C   0  0  1  0  0  0  0  0  0  0  0  0
  146.1103  140.2914  154.9922 C   0  0  0  0  0  0  0  0  0  0  0  0
  148.1242  141.7456  154.3690 C   0  0  0  0  0  0  0  0  0  0  0  0
  149.2069  141.0411  155.2091 C   0  0  2  0  0  0  0  0  0  0  0  0
  150.2400  142.0284  155.5017 N   0  0  0  0  0  0  0  0  0  0  0  0
  150.9749  141.6796  156.7077 C   0  0  0  0  0  0  0  0  0  0  0  0
  150.2511  142.2449  157.9372 C   0  0  0  0  0  0  0  0  0  0  0  0
  151.1862  142.4208  159.1181 C   0  0  0  0  0  0  0  0  0  0  0  0
  152.1610  141.4454  159.4185 C   0  0  0  0  0  0  0  0  0  0  0  0
  153.0010  141.6568  160.5290 C   0  0  0  0  0  0  0  0  0  0  0  0
  152.8335  142.8278  161.2930 C   0  0  0  0  0  0  0  0  0  0  0  0
  151.8294  143.7397  160.9108 C   0  0  0  0  0  0  0  0  0  0  0  0
  151.0192  143.5472  159.8474 N   0  0  0  0  0  0  0  0  0  0  0  0
  150.3630  138.6557  156.1626 H   0  0  0  0  0  0  0  0  0  0  0  0
  151.6730  139.6717  155.5666 H   0  0  0  0  0  0  0  0  0  0  0  0
  151.2293  138.2162  154.6932 H   0  0  0  0  0  0  0  0  0  0  0  0
  150.3461  140.2575  153.5541 H   0  0  0  0  0  0  0  0  0  0  0  0
  149.1571  138.1534  153.2664 H   0  0  0  0  0  0  0  0  0  0  0  0
  148.2263  138.3958  154.7237 H   0  0  0  0  0  0  0  0  0  0  0  0
  146.1897  138.1390  153.1202 H   0  0  0  0  0  0  0  0  0  0  0  0
  147.2713  138.1013  151.7293 H   0  0  0  0  0  0  0  0  0  0  0  0
  146.0210  139.3361  151.8274 H   0  0  0  0  0  0  0  0  0  0  0  0
  146.4300  141.3207  153.1502 H   0  0  0  0  0  0  0  0  0  0  0  0
  145.6618  141.1436  155.5031 H   0  0  0  0  0  0  0  0  0  0  0  0
  146.6331  139.7037  155.7462 H   0  0  0  0  0  0  0  0  0  0  0  0
  145.2885  139.6870  154.6096 H   0  0  0  0  0  0  0  0  0  0  0  0
  148.5896  142.2275  153.5072 H   0  0  0  0  0  0  0  0  0  0  0  0
  147.6599  142.5461  154.9469 H   0  0  0  0  0  0  0  0  0  0  0  0
  148.7548  140.6664  156.1294 H   0  0  0  0  0  0  0  0  0  0  0  0
  149.8191  142.9390  155.6210 H   0  0  0  0  0  0  0  0  0  0  0  0
  151.0526  140.5942  156.7861 H   0  0  0  0  0  0  0  0  0  0  0  0
  151.9881  142.0798  156.6522 H   0  0  0  0  0  0  0  0  0  0  0  0
  149.7950  143.2060  157.6945 H   0  0  0  0  0  0  0  0  0  0  0  0
  149.4355  141.5825  158.2316 H   0  0  0  0  0  0  0  0  0  0  0  0
  152.2642  140.5559  158.8145 H   0  0  0  0  0  0  0  0  0  0  0  0
  153.7595  140.9336  160.7904 H   0  0  0  0  0  0  0  0  0  0  0  0
  153.4590  143.0226  162.1516 H   0  0  0  0  0  0  0  0  0  0  0  0
  151.6725  144.6477  161.4738 H   0  0  0  0  0  0  0  0  0  0  0  0
  148.2110  140.1127  152.3668 H   0  0  0  0  0  0  0  0  0  0  0  0
  1  2  1  0  0  0  0
  1 19  1  0  0  0  0
  1 20  1  0  0  0  0
  1 21  1  0  0  0  0
  2  9  1  0  0  0  0
  2  3  1  0  0  0  0
  2 22  1  0  0  0  0
  3  4  1  0  0  0  0
  3 23  1  0  0  0  0
  3 24  1  0  0  0  0
  4  5  1  0  0  0  0
  4  6  1  0  0  0  0
  4 44  1  0  0  0  0
  5 25  1  0  0  0  0
  5 26  1  0  0  0  0
  5 27  1  0  0  0  0
  6  7  1  0  0  0  0
  6  8  1  0  0  0  0
  6 28  1  0  0  0  0
  7 29  1  0  0  0  0
  7 30  1  0  0  0  0
  7 31  1  0  0  0  0
  8  9  1  0  0  0  0
  8 32  1  0  0  0  0
  8 33  1  0  0  0  0
  9 10  1  0  0  0  0
  9 34  1  0  0  0  0
 10 11  1  0  0  0  0
 10 35  1  0  0  0  0
 11 12  1  0  0  0  0
 11 36  1  0  0  0  0
 11 37  1  0  0  0  0
 12 13  1  0  0  0  0
 12 38  1  0  0  0  0
 12 39  1  0  0  0  0
 13 18  1  0  0  0  0
 13 14  2  0  0  0  0
 14 15  1  0  0  0  0
 14 40  1  0  0  0  0
 15 16  2  0  0  0  0
 15 41  1  0  0  0  0
 16 17  1  0  0  0  0
 16 42  1  0  0  0  0
 17 18  2  0  0  0  0
 17 43  1  0  0  0  0
M  CHG  1   4   1
M  END
> <s_m_source_file>
AV-unprocessed.smi

> <i_m_source_file_index>
3303

> <i_lp_mmshare_version>
43012

> <i_f3d_flags>
0

> <s_epik_input>
W0NIM11bQ0BASF0xW0NIMl1OKFtDSDNdKVtDQEBIXShbQ0gzXSlbQ0gyXVtDQEhdMVtOSF1bQ0gyXVtDSDJdYzJbY0hdW2NIXVtjSF1bY0hdbjI=

> <s_epik_cmdline>
J2VwaWtfcHl0aG9uJywgJy1waCcsICc3LjAnLCAnLXRuJywgJzgnLCAnLW1hJywgJzIwMCcsICctbWV0YWxfYmluZGluZycsICctaW1hZScsICc8aW5maWxlLm1hZT4nLCAnLW9tYWUnLCAnPG91dGZpbGUubWFlPic=

> <r_epik_Ionization_Penalty>
2.31085

> <r_epik_Ionization_Penalty_Charging>
0.000313057

> <r_epik_Ionization_Penalty_Neutral>
2.31054

> <r_epik_State_Penalty>
2.4087

> <r_epik_Charging_Adjusted_Penalty>
2.40902

> <i_epik_Tot_Q>
1

> <i_epik_Tot_abs_Q>
1

> <r_epik_Metal_State_Penalty>
2.30979

> <b_epik_Metal_Only>
0

> <s_lp_Force_Field>
OPLS_2005

> <r_lp_Energy>
24.34

> <b_lp_Chiralities_Consistent>
1

> <s_lp_Variant>
AV-unprocessed.smi:3303-36

> <Gold.Version>
5.8.1

> <Gold.Id.Protein>
6NUR|6NUR_protein|mol2

> <Gold.PLP.Fitness>
43.4077

> <Gold.PLP.PLP>
-39.2044

> <Gold.PLP.part.hbond>
-2.4142

> <Gold.PLP.part.metal>
0.0000

> <Gold.PLP.part.buried>
-2.0711

> <Gold.PLP.part.nonpolar>
-35.0406

> <Gold.PLP.part.repulsive>
0.1141

> <Gold.PLP.ligand.clash>
0.0000

> <Gold.PLP.ligand.torsion>
0.8164

> <Gold.PLP.Chemscore.Hbond>
1.9440

> <Gold.PLP.Chemscore.CHOScore>
0.0000

> <Gold.PLP.Chemscore.Metal>
0.0000

> <Gold.Chemscore.Hbonds>
donor molecule, donor type, donor heavy atom, donor atom, acceptor molecule, acceptor atom, score
      L1  H     4    44       P1  7957  0.98
      L1  H    10    35       P1  8028  1.00

> <Gold.PLP.Chemscore.Internal.Correction>
0.0042

> <Gold.Rescore>
     Score         DG    S(hbond)    S(metal)    S(lipo)     H(rot)  DE(clash)    DE(int)     intcor
     20.93     -22.16       1.92        0.00     116.87       1.33       0.22       1.01       ----

> <Gold.Chemscore.Fitness>
20.9326

> <Gold.Chemscore.DG>
-22.1614

> <Gold.Chemscore.ZeroCoef>
-5.4800

> <Gold.Chemscore.Hbond>
1.9177

> <Gold.Chemscore.Metal>
0.0000

> <Gold.Chemscore.Lipo>
116.8714

> <Gold.Chemscore.Internal_Hbond>
0.0000

> <Gold.Chemscore.DEClash>
0.2206

> <Gold.Chemscore.DEInternal>
1.0082

> <Gold.Chemscore.Rot>
1.3272

> <Gold.Chemscore.Internal.Correction>
   9.000000E+99

> <Gold.Chemscore.Hbonds>
donor molecule, donor type, donor heavy atom, donor atom, acceptor molecule, acceptor atom, score
      L1  H     4    44       P1  7957  0.93
      L1  H    10    35       P1  8028  0.95

> <Gold.Chemscore.Hbond.Weighted>
-6.4051

> <Gold.Chemscore.Metal.Weighted>
-0.0000

> <Gold.Chemscore.Lipo.Weighted>
-13.6740

> <Gold.Chemscore.Internal_Hbond.Weighted>
0.0000

> <Gold.Chemscore.DEClash.Weighted>
0.2206

> <Gold.Chemscore.DEInternal.Weighted>
1.0082

> <Gold.Chemscore.Rot.Weighted>
3.3976

> <Gold.Chemscore.Internal.Correction.Weighted>
   9.000000E+99

> <Gold.Protein.RotatedTorsions>
[ 6907 6896 6895 6894 ] final   77.45 input  -60.11 | X-H torsion
[ 7974 7965 7964 7962 ] final   64.06 input  175.53 | X-H torsion
[ 8008 7997 7996 7995 ] final  176.34 input   59.86 | X-H torsion
[ 10167 10162 10161 10158 ] final -168.10 input  -65.29 | X-H torsion
[ 10718 10713 10712 10709 ] final -146.21 input   66.30 | X-H torsion
[ 10763 10752 10751 10750 ] final -141.27 input  -60.55 | X-H torsion
[ 11005 11000 10999 10996 ] final -106.20 input  -57.11 | X-H torsion

> <Gold.Protein.ActiveResidues>
 VAL166  LYS551  ARG553  GLY616  TRP617  ASP618  TYR619  PRO620  LYS621  CYS622 
 ASP623  PHE694  ASN695  SER759  ASP760  ASP761  ALA762  ILE779  LEU786  VAL792 
 PHE793  MET794  SER795  GLU796  ALA797  LYS798  CYS799  TRP800  GLU811  SER814 

> <Gold.Protein.RotatedAtoms>
  152.5118  134.3815  159.9352 H   0  0  0  0  0  0  0  0  0  0  0  0  # atno 6907 bound_to 6896
  151.3772  133.3827  159.2714 H   0  0  0  0  0  0  0  0  0  0  0  0  # atno 6908 bound_to 6896
  150.9532  134.8949  159.7743 H   0  0  0  0  0  0  0  0  0  0  0  0  # atno 6909 bound_to 6896
  145.8546  139.3276  143.0855 H   0  0  0  0  0  0  0  0  0  0  0  0  # atno 7974 bound_to 7965
  156.0775  140.1386  156.9754 H   0  0  0  0  0  0  0  0  0  0  0  0  # atno 8008 bound_to 7997
  154.4566  140.0959  156.6824 H   0  0  0  0  0  0  0  0  0  0  0  0  # atno 8009 bound_to 7997
  155.5130  140.3454  155.4394 H   0  0  0  0  0  0  0  0  0  0  0  0  # atno 8010 bound_to 7997
  139.6006  144.1018  152.1739 H   0  0  0  0  0  0  0  0  0  0  0  0  # atno 10167 bound_to 10162
  156.3921  130.7891  151.2094 H   0  0  0  0  0  0  0  0  0  0  0  0  # atno 10718 bound_to 10713
  154.8551  135.3529  154.5840 H   0  0  0  0  0  0  0  0  0  0  0  0  # atno 10763 bound_to 10752
  153.6451  135.6996  153.5233 H   0  0  0  0  0  0  0  0  0  0  0  0  # atno 10764 bound_to 10752
  153.2939  135.4226  155.1151 H   0  0  0  0  0  0  0  0  0  0  0  0  # atno 10765 bound_to 10752
  141.1016  133.8873  157.1826 H   0  0  0  0  0  0  0  0  0  0  0  0  # atno 11005 bound_to 11000
  145.9318  140.9043  143.0352 LP  0  0  0  0  0  0  0  0  0  0  0  0  # atno 17320 bound_to 7965
  144.6728  140.1429  143.7436 LP  0  0  0  0  0  0  0  0  0  0  0  0  # atno 17321 bound_to 7965
  140.0613  144.5854  150.7261 LP  0  0  0  0  0  0  0  0  0  0  0  0  # atno 17342 bound_to 10162
  140.7247  143.2624  151.4161 LP  0  0  0  0  0  0  0  0  0  0  0  0  # atno 17343 bound_to 10162
  157.7499  131.0312  150.4173 LP  0  0  0  0  0  0  0  0  0  0  0  0  # atno 17370 bound_to 10713
  156.4436  130.3997  149.6681 LP  0  0  0  0  0  0  0  0  0  0  0  0  # atno 17371 bound_to 10713
  139.9870  135.0078  156.9886 LP  0  0  0  0  0  0  0  0  0  0  0  0  # atno 17394 bound_to 11000
  140.5006  134.1101  155.7250 LP  0  0  0  0  0  0  0  0  0  0  0  0  # atno 17395 bound_to 11000

$$$$
