AV-unprocessed.smi:2784|AV-procd|sdf|10743|dock2
  -GOLD-   2272015183D 1   1.00000     0.00000
 Structure written by MMmdl.
 30 31  0  0  0  0  0  0  0  0  2 V2000
  149.4915  144.7830  160.3582 C   0  0  0  0  0  0  0  0  0  0  0  0
  150.2697  143.7839  159.7202 O   0  0  0  0  0  0  0  0  0  0  0  0
  151.6534  144.1095  159.6225 C   0  0  1  0  0  0  0  0  0  0  0  0
  152.1992  144.3663  161.0311 C   0  0  0  0  0  0  0  0  0  0  0  0
  152.4732  142.9702  161.5835 C   0  0  0  0  0  0  0  0  0  0  0  0
  152.9780  142.1665  160.3820 C   0  0  0  0  0  0  0  0  0  0  0  0
  152.4554  142.8857  159.1225 C   0  0  1  0  0  0  0  0  0  0  0  0
  151.6675  141.9835  158.2839 N   0  0  0  0  0  0  0  0  0  0  0  0
  152.0452  140.7622  157.8796 C   0  0  0  0  0  0  0  0  0  0  0  0
  153.1429  140.3148  158.2204 O   0  0  0  0  0  0  0  0  0  0  0  0
  151.1310  140.1383  157.1029 N   0  5  0  0  0  0  0  0  0  0  0  0
  151.5318  139.4418  156.0272 C   0  0  0  0  0  0  0  0  0  0  0  0
  150.7672  138.6643  155.2584 N   0  0  0  0  0  0  0  0  0  0  0  0
  151.6051  138.1634  154.2741 C   0  0  0  0  0  0  0  0  0  0  0  0
  152.8565  138.6728  154.4889 C   0  0  0  0  0  0  0  0  0  0  0  0
  152.8223  139.4830  155.5899 O   0  0  0  0  0  0  0  0  0  0  0  0
  148.4527  144.4575  160.4098 H   0  0  0  0  0  0  0  0  0  0  0  0
  149.5203  145.7181  159.7973 H   0  0  0  0  0  0  0  0  0  0  0  0
  149.8346  144.9743  161.3749 H   0  0  0  0  0  0  0  0  0  0  0  0
  151.8053  144.9623  158.9581 H   0  0  0  0  0  0  0  0  0  0  0  0
  153.1365  144.9201  160.9632 H   0  0  0  0  0  0  0  0  0  0  0  0
  151.5231  144.9416  161.6633 H   0  0  0  0  0  0  0  0  0  0  0  0
  153.1829  142.9779  162.4109 H   0  0  0  0  0  0  0  0  0  0  0  0
  151.5420  142.5351  161.9490 H   0  0  0  0  0  0  0  0  0  0  0  0
  154.0685  142.1593  160.3710 H   0  0  0  0  0  0  0  0  0  0  0  0
  152.6533  141.1268  160.4439 H   0  0  0  0  0  0  0  0  0  0  0  0
  153.3199  143.2345  158.5543 H   0  0  0  0  0  0  0  0  0  0  0  0
  150.7654  142.3160  157.9770 H   0  0  0  0  0  0  0  0  0  0  0  0
  151.2477  137.4935  153.5064 H   0  0  0  0  0  0  0  0  0  0  0  0
  153.8081  138.5681  153.9899 H   0  0  0  0  0  0  0  0  0  0  0  0
  1  2  1  0  0  0  0
  1 17  1  0  0  0  0
  1 18  1  0  0  0  0
  1 19  1  0  0  0  0
  2  3  1  0  0  0  0
  3  7  1  0  0  0  0
  3  4  1  0  0  0  0
  3 20  1  0  0  0  0
  4  5  1  0  0  0  0
  4 21  1  0  0  0  0
  4 22  1  0  0  0  0
  5  6  1  0  0  0  0
  5 23  1  0  0  0  0
  5 24  1  0  0  0  0
  6  7  1  0  0  0  0
  6 25  1  0  0  0  0
  6 26  1  0  0  0  0
  7  8  1  0  0  0  0
  7 27  1  0  0  0  0
  8 28  1  0  0  0  0
  8  9  1  0  0  0  0
  9 11  1  0  0  0  0
  9 10  2  0  0  0  0
 11 12  1  0  0  0  0
 12 16  1  0  0  0  0
 12 13  2  0  0  0  0
 13 14  1  0  0  0  0
 14 29  1  0  0  0  0
 14 15  2  0  0  0  0
 15 30  1  0  0  0  0
 15 16  1  0  0  0  0
M  CHG  1  11  -1
M  END
> <s_m_source_file>
AV-unprocessed.smi

> <i_m_source_file_index>
2784

> <i_lp_mmshare_version>
43012

> <i_f3d_flags>
0

> <s_epik_input>
W0NIM11PW0NAQEhdMVtDSDJdW0NIMl1bQ0gyXVtDQEhdMVtOSF1DKD1PKVtOSF1jMm5bY0hdW2NIXW8y

> <s_epik_cmdline>
J2VwaWtfcHl0aG9uJywgJy1waCcsICc3LjAnLCAnLXRuJywgJzgnLCAnLW1hJywgJzIwMCcsICctbWV0YWxfYmluZGluZycsICctaW1hZScsICc8aW5maWxlLm1hZT4nLCAnLW9tYWUnLCAnPG91dGZpbGUubWFlPic=

> <r_lp_tautomer_probability>
0.107061

> <r_epik_Ionization_Penalty>
10.8857

> <r_epik_Ionization_Penalty_Charging>
7.67908

> <r_epik_Ionization_Penalty_Neutral>
3.20665

> <r_epik_State_Penalty>
5.80296

> <r_epik_Charging_Adjusted_Penalty>
13.482

> <i_epik_Tot_Q>
-1

> <i_epik_Tot_abs_Q>
1

> <r_epik_Metal_State_Penalty>
1.73217

> <b_epik_Metal_Only>
1

> <s_lp_Force_Field>
OPLS_2005

> <r_lp_Energy>
16.6072

> <b_lp_Chiralities_Consistent>
1

> <s_lp_Variant>
AV-unprocessed.smi:2784-18

> <Gold.Version>
5.8.1

> <Gold.Id.Protein>
6NUR|6NUR_protein|mol2

> <Gold.PLP.Fitness>
41.6118

> <Gold.PLP.PLP>
-36.4281

> <Gold.PLP.part.hbond>
-2.2966

> <Gold.PLP.part.metal>
0.0000

> <Gold.PLP.part.buried>
-5.7037

> <Gold.PLP.part.nonpolar>
-28.2640

> <Gold.PLP.part.repulsive>
0.2529

> <Gold.PLP.ligand.clash>
0.0000

> <Gold.PLP.ligand.torsion>
0.4541

> <Gold.PLP.Chemscore.Hbond>
1.0272

> <Gold.PLP.Chemscore.CHOScore>
0.9988

> <Gold.PLP.Chemscore.Metal>
0.0000

> <Gold.Chemscore.Hbonds>
donor molecule, donor type, donor heavy atom, donor atom, acceptor molecule, acceptor atom, score
      P1  H  7997  8008       L1    16  0.98
      P1  H  7997  8010       L1    10  0.10
      L1  C    14    29       P1  7949  1.00

> <Gold.PLP.Chemscore.Internal.Correction>
0.0140

> <Gold.Rescore>
     Score         DG    S(hbond)    S(metal)    S(lipo)     H(rot)  DE(clash)    DE(int)     intcor
     12.23     -15.65       1.12        0.00      83.65       1.31       0.32       3.10       ----

> <Gold.Chemscore.Fitness>
12.2298

> <Gold.Chemscore.DG>
-15.6464

> <Gold.Chemscore.ZeroCoef>
-5.4800

> <Gold.Chemscore.Hbond>
1.1181

> <Gold.Chemscore.Metal>
0.0000

> <Gold.Chemscore.Lipo>
83.6509

> <Gold.Chemscore.Internal_Hbond>
0.0000

> <Gold.Chemscore.DEClash>
0.3193

> <Gold.Chemscore.DEInternal>
3.0973

> <Gold.Chemscore.Rot>
1.3106

> <Gold.Chemscore.Internal.Correction>
   9.000000E+99

> <Gold.Chemscore.Hbonds>
donor molecule, donor type, donor heavy atom, donor atom, acceptor molecule, acceptor atom, score
      P1  H  7997  8008       L1    16  0.56
      P1  H  7997  8010       L1    10  0.10

> <Gold.Chemscore.Hbond.Weighted>
-3.7343

> <Gold.Chemscore.Metal.Weighted>
-0.0000

> <Gold.Chemscore.Lipo.Weighted>
-9.7872

> <Gold.Chemscore.Internal_Hbond.Weighted>
0.0000

> <Gold.Chemscore.DEClash.Weighted>
0.3193

> <Gold.Chemscore.DEInternal.Weighted>
3.0973

> <Gold.Chemscore.Rot.Weighted>
3.3550

> <Gold.Chemscore.Internal.Correction.Weighted>
   9.000000E+99

> <Gold.Protein.RotatedTorsions>
[ 6907 6896 6895 6894 ] final  160.63 input  -60.11 | X-H torsion
[ 7974 7965 7964 7962 ] final  -43.92 input  175.53 | X-H torsion
[ 8008 7997 7996 7995 ] final   -7.73 input   59.86 | X-H torsion
[ 10167 10162 10161 10158 ] final  -87.81 input  -65.29 | X-H torsion
[ 10718 10713 10712 10709 ] final   32.24 input   66.30 | X-H torsion
[ 10763 10752 10751 10750 ] final  172.00 input  -60.55 | X-H torsion
[ 11005 11000 10999 10996 ] final  -74.89 input  -57.11 | X-H torsion

> <Gold.Protein.ActiveResidues>
 VAL166  LYS551  ARG553  GLY616  TRP617  ASP618  TYR619  PRO620  LYS621  CYS622 
 ASP623  PHE694  ASN695  SER759  ASP760  ASP761  ALA762  ILE779  LEU786  VAL792 
 PHE793  MET794  SER795  GLU796  ALA797  LYS798  CYS799  TRP800  GLU811  SER814 

> <Gold.Protein.RotatedAtoms>
  151.9677  133.3715  159.4058 H   0  0  0  0  0  0  0  0  0  0  0  0  # atno 6907 bound_to 6896
  150.6954  134.4173  159.5198 H   0  0  0  0  0  0  0  0  0  0  0  0  # atno 6908 bound_to 6896
  152.1872  134.8703  160.0571 H   0  0  0  0  0  0  0  0  0  0  0  0  # atno 6909 bound_to 6896
  145.9971  140.7116  142.9288 H   0  0  0  0  0  0  0  0  0  0  0  0  # atno 7974 bound_to 7965
  154.5809  140.2399  155.8055 H   0  0  0  0  0  0  0  0  0  0  0  0  # atno 8008 bound_to 7997
  156.2178  140.3007  155.9837 H   0  0  0  0  0  0  0  0  0  0  0  0  # atno 8009 bound_to 7997
  155.2542  140.0412  157.2980 H   0  0  0  0  0  0  0  0  0  0  0  0  # atno 8010 bound_to 7997
  140.3808  143.2750  151.9386 H   0  0  0  0  0  0  0  0  0  0  0  0  # atno 10167 bound_to 10162
  157.2828  130.7263  149.6566 H   0  0  0  0  0  0  0  0  0  0  0  0  # atno 10718 bound_to 10713
  154.4199  135.2757  155.1982 H   0  0  0  0  0  0  0  0  0  0  0  0  # atno 10763 bound_to 10752
  154.3933  135.6061  153.5859 H   0  0  0  0  0  0  0  0  0  0  0  0  # atno 10764 bound_to 10752
  152.9833  135.5908  154.4493 H   0  0  0  0  0  0  0  0  0  0  0  0  # atno 10765 bound_to 10752
  141.1640  133.6927  156.7434 H   0  0  0  0  0  0  0  0  0  0  0  0  # atno 11005 bound_to 11000
  144.6907  140.3170  143.7238 LP  0  0  0  0  0  0  0  0  0  0  0  0  # atno 17320 bound_to 7965
  145.7543  139.1804  143.2303 LP  0  0  0  0  0  0  0  0  0  0  0  0  # atno 17321 bound_to 7965
  139.4795  144.5820  151.7916 LP  0  0  0  0  0  0  0  0  0  0  0  0  # atno 17342 bound_to 10162
  140.4939  144.1269  150.5956 LP  0  0  0  0  0  0  0  0  0  0  0  0  # atno 17343 bound_to 10162
  155.9665  130.4333  150.5000 LP  0  0  0  0  0  0  0  0  0  0  0  0  # atno 17370 bound_to 10713
  157.2947  131.0633  151.2110 LP  0  0  0  0  0  0  0  0  0  0  0  0  # atno 17371 bound_to 10713
  140.2657  134.8431  157.3801 LP  0  0  0  0  0  0  0  0  0  0  0  0  # atno 17394 bound_to 11000
  140.1568  134.4779  155.7922 LP  0  0  0  0  0  0  0  0  0  0  0  0  # atno 17395 bound_to 11000

$$$$
