AV-unprocessed.smi:1422|AV-procd|sdf|5792|dock3
  -GOLD-   22720 5443D 1   1.00000     0.00000
 Structure written by MMmdl.
 31 32  0  0  0  0  0  0  0  0  1 V2000
  144.0114  132.1311  150.1928 C   0  0  0  0  0  0  0  0  0  0  0  0
  144.4970  133.2995  150.9800 C   0  0  0  0  0  0  0  0  0  0  0  0
  145.5312  134.1750  150.8032 C   0  0  0  0  0  0  0  0  0  0  0  0
  145.4182  135.0346  151.9281 C   0  0  0  0  0  0  0  0  0  0  0  0
  146.3305  136.1030  152.1210 N   0  0  0  0  0  0  0  0  0  0  0  0
  146.0496  137.3636  152.4928 C   0  0  0  0  0  0  0  0  0  0  0  0
  144.9215  137.8003  152.7226 O   0  0  0  0  0  0  0  0  0  0  0  0
  147.1642  138.1041  152.5814 N   0  0  0  0  0  0  0  0  0  0  0  0
  147.2174  139.5147  152.9532 C   0  0  0  0  0  0  0  0  0  0  0  0
  148.2075  139.7651  154.1058 C   0  0  2  0  0  0  0  0  0  0  0  0
  148.4213  141.2309  154.4226 C   0  0  0  0  0  0  0  0  0  0  0  0
  149.7169  141.1923  155.2274 C   0  0  0  0  0  0  0  0  0  0  0  0
  150.4630  140.0948  154.7090 O   0  0  0  0  0  0  0  0  0  0  0  0
  149.6462  139.3157  153.8400 C   0  0  0  0  0  0  0  0  0  0  0  0
  144.4056  134.7141  152.7189 N   0  0  0  0  0  0  0  0  0  0  0  0
  143.8104  133.5999  152.1157 O   0  0  0  0  0  0  0  0  0  0  0  0
  144.4564  132.1199  149.1977 H   0  0  0  0  0  0  0  0  0  0  0  0
  142.9279  132.1639  150.0775 H   0  0  0  0  0  0  0  0  0  0  0  0
  144.2711  131.1965  150.6903 H   0  0  0  0  0  0  0  0  0  0  0  0
  146.2512  134.1937  149.9986 H   0  0  0  0  0  0  0  0  0  0  0  0
  147.3022  135.8825  151.9614 H   0  0  0  0  0  0  0  0  0  0  0  0
  148.0461  137.6588  152.3736 H   0  0  0  0  0  0  0  0  0  0  0  0
  147.4620  140.1377  152.0910 H   0  0  0  0  0  0  0  0  0  0  0  0
  146.2155  139.8102  153.2657 H   0  0  0  0  0  0  0  0  0  0  0  0
  147.8462  139.2685  155.0082 H   0  0  0  0  0  0  0  0  0  0  0  0
  148.5687  141.8022  153.5047 H   0  0  0  0  0  0  0  0  0  0  0  0
  147.5927  141.6772  154.9733 H   0  0  0  0  0  0  0  0  0  0  0  0
  150.2781  142.1244  155.1598 H   0  0  0  0  0  0  0  0  0  0  0  0
  149.5051  140.9996  156.2798 H   0  0  0  0  0  0  0  0  0  0  0  0
  149.7895  138.2486  154.0114 H   0  0  0  0  0  0  0  0  0  0  0  0
  149.9358  139.5344  152.8114 H   0  0  0  0  0  0  0  0  0  0  0  0
  1  2  1  0  0  0  0
  1 17  1  0  0  0  0
  1 18  1  0  0  0  0
  1 19  1  0  0  0  0
  2 16  1  0  0  0  0
  2  3  2  0  0  0  0
  3  4  1  0  0  0  0
  3 20  1  0  0  0  0
  4  5  1  0  0  0  0
  4 15  2  0  0  0  0
  5  6  1  0  0  0  0
  5 21  1  0  0  0  0
  6  7  2  0  0  0  0
  6  8  1  0  0  0  0
  8  9  1  0  0  0  0
  8 22  1  0  0  0  0
  9 10  1  0  0  0  0
  9 23  1  0  0  0  0
  9 24  1  0  0  0  0
 10 14  1  0  0  0  0
 10 11  1  0  0  0  0
 10 25  1  0  0  0  0
 11 12  1  0  0  0  0
 11 26  1  0  0  0  0
 11 27  1  0  0  0  0
 12 13  1  0  0  0  0
 12 28  1  0  0  0  0
 12 29  1  0  0  0  0
 13 14  1  0  0  0  0
 14 30  1  0  0  0  0
 14 31  1  0  0  0  0
 15 16  1  0  0  0  0
M  END
> <s_m_source_file>
AV-unprocessed.smi

> <i_m_source_file_index>
1422

> <i_lp_mmshare_version>
43012

> <i_f3d_flags>
0

> <s_epik_input>
W0NIM11jMVtjSF1jKG5vMSlbTkhdQyg9TylbTkhdW0NIMl1bQ0BASF0yW0NIMl1bQ0gyXU9bQ0gyXTI=

> <s_epik_cmdline>
J2VwaWtfcHl0aG9uJywgJy1waCcsICc3LjAnLCAnLXRuJywgJzgnLCAnLW1hJywgJzIwMCcsICctbWV0YWxfYmluZGluZycsICctaW1hZScsICc8aW5maWxlLm1hZT4nLCAnLW9tYWUnLCAnPG91dGZpbGUubWFlPic=

> <r_lp_tautomer_probability>
1

> <r_epik_Ionization_Penalty>
2.27275e-05

> <r_epik_Ionization_Penalty_Charging>
0

> <r_epik_Ionization_Penalty_Neutral>
2.27275e-05

> <r_epik_State_Penalty>
-0

> <r_epik_Charging_Adjusted_Penalty>
0

> <i_epik_Tot_Q>
0

> <i_epik_Tot_abs_Q>
0

> <r_epik_Metal_State_Penalty>
-0

> <b_epik_Metal_Only>
0

> <s_lp_Force_Field>
OPLS_2005

> <r_lp_Energy>
16.1313

> <b_lp_Chiralities_Consistent>
1

> <s_lp_Variant>
AV-unprocessed.smi:1422-1

> <Gold.Version>
5.8.1

> <Gold.Id.Protein>
6NUR|6NUR_protein|mol2

> <Gold.PLP.Fitness>
33.4507

> <Gold.PLP.PLP>
-25.2428

> <Gold.PLP.part.hbond>
-3.0000

> <Gold.PLP.part.metal>
0.0000

> <Gold.PLP.part.buried>
-0.3370

> <Gold.PLP.part.nonpolar>
-23.1773

> <Gold.PLP.part.repulsive>
1.7906

> <Gold.PLP.ligand.clash>
0.0000

> <Gold.PLP.ligand.torsion>
0.3988

> <Gold.PLP.Chemscore.Hbond>
3.0000

> <Gold.PLP.Chemscore.CHOScore>
0.0000

> <Gold.PLP.Chemscore.Metal>
0.0000

> <Gold.Chemscore.Hbonds>
donor molecule, donor type, donor heavy atom, donor atom, acceptor molecule, acceptor atom, score
      L1  H     5    21       P1  7948  1.00
      L1  H     8    22       P1  7948  1.00
      P1  H  7989  7998       L1    13  1.00

> <Gold.PLP.Chemscore.Internal.Correction>
0.0055

> <Gold.Rescore>
     Score         DG    S(hbond)    S(metal)    S(lipo)     H(rot)  DE(clash)    DE(int)     intcor
     14.49     -15.10       2.04        0.00      52.45       1.30       0.14       0.48       ----

> <Gold.Chemscore.Fitness>
14.4880

> <Gold.Chemscore.DG>
-15.1045

> <Gold.Chemscore.ZeroCoef>
-5.4800

> <Gold.Chemscore.Hbond>
2.0381

> <Gold.Chemscore.Metal>
0.0000

> <Gold.Chemscore.Lipo>
52.4484

> <Gold.Chemscore.Internal_Hbond>
0.0000

> <Gold.Chemscore.DEClash>
0.1385

> <Gold.Chemscore.DEInternal>
0.4780

> <Gold.Chemscore.Rot>
1.2965

> <Gold.Chemscore.Internal.Correction>
   9.000000E+99

> <Gold.Chemscore.Hbonds>
donor molecule, donor type, donor heavy atom, donor atom, acceptor molecule, acceptor atom, score
      L1  H     5    21       P1  7948  0.98
      L1  H     8    22       P1  7948  0.95
      P1  H  7989  7998       L1    13  0.13

> <Gold.Chemscore.Hbond.Weighted>
-6.8072

> <Gold.Chemscore.Metal.Weighted>
-0.0000

> <Gold.Chemscore.Lipo.Weighted>
-6.1365

> <Gold.Chemscore.Internal_Hbond.Weighted>
0.0000

> <Gold.Chemscore.DEClash.Weighted>
0.1385

> <Gold.Chemscore.DEInternal.Weighted>
0.4780

> <Gold.Chemscore.Rot.Weighted>
3.3192

> <Gold.Chemscore.Internal.Correction.Weighted>
   9.000000E+99

> <Gold.Protein.RotatedTorsions>
[ 6907 6896 6895 6894 ] final  157.30 input  -60.11 | X-H torsion
[ 7974 7965 7964 7962 ] final   82.70 input  175.53 | X-H torsion
[ 8008 7997 7996 7995 ] final  158.74 input   59.86 | X-H torsion
[ 10167 10162 10161 10158 ] final  -34.68 input  -65.29 | X-H torsion
[ 10718 10713 10712 10709 ] final -139.29 input   66.30 | X-H torsion
[ 10763 10752 10751 10750 ] final  -72.14 input  -60.55 | X-H torsion
[ 11005 11000 10999 10996 ] final  -70.61 input  -57.11 | X-H torsion

> <Gold.Protein.ActiveResidues>
 VAL166  LYS551  ARG553  GLY616  TRP617  ASP618  TYR619  PRO620  LYS621  CYS622 
 ASP623  PHE694  ASN695  SER759  ASP760  ASP761  ALA762  ILE779  LEU786  VAL792 
 PHE793  MET794  SER795  GLU796  ALA797  LYS798  CYS799  TRP800  GLU811  SER814 

> <Gold.Protein.RotatedAtoms>
  152.0172  133.3884  159.4243 H   0  0  0  0  0  0  0  0  0  0  0  0  # atno 6907 bound_to 6896
  150.6893  134.3666  159.4983 H   0  0  0  0  0  0  0  0  0  0  0  0  # atno 6908 bound_to 6896
  152.1435  134.9044  160.0603 H   0  0  0  0  0  0  0  0  0  0  0  0  # atno 6909 bound_to 6896
  145.6216  139.2387  143.2135 H   0  0  0  0  0  0  0  0  0  0  0  0  # atno 7974 bound_to 7965
  156.2283  140.1850  156.7307 H   0  0  0  0  0  0  0  0  0  0  0  0  # atno 8008 bound_to 7997
  154.5979  140.0640  156.9356 H   0  0  0  0  0  0  0  0  0  0  0  0  # atno 8009 bound_to 7997
  155.2224  140.3308  155.4316 H   0  0  0  0  0  0  0  0  0  0  0  0  # atno 8010 bound_to 7997
  140.7180  143.3530  151.2116 H   0  0  0  0  0  0  0  0  0  0  0  0  # atno 10167 bound_to 10162
  156.3091  130.7471  151.1542 H   0  0  0  0  0  0  0  0  0  0  0  0  # atno 10718 bound_to 10713
  154.4415  135.5939  153.6132 H   0  0  0  0  0  0  0  0  0  0  0  0  # atno 10763 bound_to 10752
  152.9806  135.5999  154.3716 H   0  0  0  0  0  0  0  0  0  0  0  0  # atno 10764 bound_to 10752
  154.3567  135.2841  155.2321 H   0  0  0  0  0  0  0  0  0  0  0  0  # atno 10765 bound_to 10752
  141.1577  133.6795  156.6779 H   0  0  0  0  0  0  0  0  0  0  0  0  # atno 11005 bound_to 11000
  146.1426  140.7036  142.9360 LP  0  0  0  0  0  0  0  0  0  0  0  0  # atno 17320 bound_to 7965
  144.7229  140.4430  143.6995 LP  0  0  0  0  0  0  0  0  0  0  0  0  # atno 17321 bound_to 7965
  139.7065  143.9446  152.2929 LP  0  0  0  0  0  0  0  0  0  0  0  0  # atno 17342 bound_to 10162
  139.9157  144.6830  150.8515 LP  0  0  0  0  0  0  0  0  0  0  0  0  # atno 17343 bound_to 10162
  157.7386  131.0538  150.5281 LP  0  0  0  0  0  0  0  0  0  0  0  0  # atno 17370 bound_to 10713
  156.5418  130.4210  149.6150 LP  0  0  0  0  0  0  0  0  0  0  0  0  # atno 17371 bound_to 10713
  140.3125  134.8075  157.4187 LP  0  0  0  0  0  0  0  0  0  0  0  0  # atno 17394 bound_to 11000
  140.1167  134.5274  155.8219 LP  0  0  0  0  0  0  0  0  0  0  0  0  # atno 17395 bound_to 11000

$$$$
