AV-unprocessed.smi:2261|AV-procd|sdf|9137|dock5
  -GOLD-   2272012343D 1   1.00000     0.00000
 Structure written by MMmdl.
 41 42  0  0  0  0  0  0  0  0  1 V2000
  149.8959  131.1070  157.9114 C   0  0  0  0  0  0  0  0  0  0  0  0
  150.6292  131.9782  156.8770 C   0  0  0  0  0  0  0  0  0  0  0  0
  152.1414  131.7082  156.9018 C   0  0  0  0  0  0  0  0  0  0  0  0
  150.0337  131.8220  155.4719 C   0  0  0  0  0  0  0  0  0  0  0  0
  148.9720  132.9023  155.4288 C   0  0  2  0  0  0  0  0  0  0  0  0
  148.6655  133.3047  154.0590 N   0  0  0  0  0  0  0  0  0  0  0  0
  147.7637  132.7140  153.2607 C   0  0  0  0  0  0  0  0  0  0  0  0
  147.1394  131.6997  153.5699 O   0  0  0  0  0  0  0  0  0  0  0  0
  147.5085  133.3895  151.9140 C   0  0  0  0  0  0  0  0  0  0  0  0
  146.2506  132.8198  151.2828 C   0  0  0  0  0  0  0  0  0  0  0  0
  145.0003  132.9428  151.9238 C   0  0  0  0  0  0  0  0  0  0  0  0
  143.8585  132.4169  151.2896 C   0  0  0  0  0  0  0  0  0  0  0  0
  144.0158  131.7889  150.0379 C   0  0  0  0  0  0  0  0  0  0  0  0
  145.2077  131.6640  149.4153 N   0  0  0  0  0  0  0  0  0  0  0  0
  146.2979  132.1686  150.0314 C   0  0  0  0  0  0  0  0  0  0  0  0
  149.6093  134.0271  156.2726 C   0  0  0  0  0  0  0  0  0  0  0  0
  150.5665  134.9493  155.4866 C   0  0  0  0  0  0  0  0  0  0  0  0
  148.5581  134.8574  157.0253 C   0  0  0  0  0  0  0  0  0  0  0  0
  150.4056  133.3411  157.2375 O   0  0  0  0  0  0  0  0  0  0  0  0
  150.0116  130.0464  157.6871 H   0  0  0  0  0  0  0  0  0  0  0  0
  148.8283  131.3268  157.9344 H   0  0  0  0  0  0  0  0  0  0  0  0
  150.2855  131.2779  158.9153 H   0  0  0  0  0  0  0  0  0  0  0  0
  152.3635  130.6825  156.6062 H   0  0  0  0  0  0  0  0  0  0  0  0
  152.5528  131.8643  157.8993 H   0  0  0  0  0  0  0  0  0  0  0  0
  152.6727  132.3741  156.2211 H   0  0  0  0  0  0  0  0  0  0  0  0
  150.7944  132.0162  154.7139 H   0  0  0  0  0  0  0  0  0  0  0  0
  149.6323  130.8256  155.2829 H   0  0  0  0  0  0  0  0  0  0  0  0
  148.0786  132.5187  155.9258 H   0  0  0  0  0  0  0  0  0  0  0  0
  149.1284  134.1335  153.7158 H   0  0  0  0  0  0  0  0  0  0  0  0
  147.4063  134.4672  152.0502 H   0  0  0  0  0  0  0  0  0  0  0  0
  148.3603  133.2320  151.2509 H   0  0  0  0  0  0  0  0  0  0  0  0
  144.9163  133.4366  152.8810 H   0  0  0  0  0  0  0  0  0  0  0  0
  142.8847  132.4953  151.7499 H   0  0  0  0  0  0  0  0  0  0  0  0
  143.1613  131.3758  149.5228 H   0  0  0  0  0  0  0  0  0  0  0  0
  147.2340  132.0601  149.5036 H   0  0  0  0  0  0  0  0  0  0  0  0
  150.0306  135.5579  154.7577 H   0  0  0  0  0  0  0  0  0  0  0  0
  151.3271  134.3814  154.9508 H   0  0  0  0  0  0  0  0  0  0  0  0
  151.0858  135.6337  156.1579 H   0  0  0  0  0  0  0  0  0  0  0  0
  147.9184  135.4056  156.3331 H   0  0  0  0  0  0  0  0  0  0  0  0
  149.0307  135.5846  157.6859 H   0  0  0  0  0  0  0  0  0  0  0  0
  147.9178  134.2236  157.6393 H   0  0  0  0  0  0  0  0  0  0  0  0
  1  2  1  0  0  0  0
  1 20  1  0  0  0  0
  1 21  1  0  0  0  0
  1 22  1  0  0  0  0
  2 19  1  0  0  0  0
  2  3  1  0  0  0  0
  2  4  1  0  0  0  0
  3 23  1  0  0  0  0
  3 24  1  0  0  0  0
  3 25  1  0  0  0  0
  4  5  1  0  0  0  0
  4 26  1  0  0  0  0
  4 27  1  0  0  0  0
  5  6  1  0  0  0  0
  5 16  1  0  0  0  0
  5 28  1  0  0  0  0
  6  7  1  0  0  0  0
  6 29  1  0  0  0  0
  7  8  2  0  0  0  0
  7  9  1  0  0  0  0
  9 10  1  0  0  0  0
  9 30  1  0  0  0  0
  9 31  1  0  0  0  0
 10 15  1  0  0  0  0
 10 11  2  0  0  0  0
 11 12  1  0  0  0  0
 11 32  1  0  0  0  0
 12 13  2  0  0  0  0
 12 33  1  0  0  0  0
 13 14  1  0  0  0  0
 13 34  1  0  0  0  0
 14 15  2  0  0  0  0
 15 35  1  0  0  0  0
 16 17  1  0  0  0  0
 16 18  1  0  0  0  0
 16 19  1  0  0  0  0
 17 36  1  0  0  0  0
 17 37  1  0  0  0  0
 17 38  1  0  0  0  0
 18 39  1  0  0  0  0
 18 40  1  0  0  0  0
 18 41  1  0  0  0  0
M  END
> <s_m_source_file>
AV-unprocessed.smi

> <i_m_source_file_index>
2261

> <i_lp_mmshare_version>
43012

> <i_f3d_flags>
0

> <s_epik_input>
W0NIM11DMShbQ0gzXSlbQ0gyXVtDQEhdKEMoTzEpKFtDSDNdKVtDSDNdKVtOSF1DKD1PKVtDSDJdYzJbY0hdW2NIXVtjSF1uW2NIXTI=

> <s_epik_cmdline>
J2VwaWtfcHl0aG9uJywgJy1waCcsICc3LjAnLCAnLXRuJywgJzgnLCAnLW1hJywgJzIwMCcsICctbWV0YWxfYmluZGluZycsICctaW1hZScsICc8aW5maWxlLm1hZT4nLCAnLW9tYWUnLCAnPG91dGZpbGUubWFlPic=

> <r_epik_Ionization_Penalty>
0.00420617

> <r_epik_Ionization_Penalty_Charging>
0

> <r_epik_Ionization_Penalty_Neutral>
0.00420617

> <r_epik_State_Penalty>
0.0030219

> <r_epik_Charging_Adjusted_Penalty>
0.0030219

> <i_epik_Tot_Q>
0

> <i_epik_Tot_abs_Q>
0

> <r_epik_Metal_State_Penalty>
-0

> <b_epik_Metal_Only>
0

> <s_lp_Force_Field>
OPLS_2005

> <r_lp_Energy>
16.2034

> <b_lp_Chiralities_Consistent>
1

> <s_lp_Variant>
AV-unprocessed.smi:2261-2

> <Gold.Version>
5.8.1

> <Gold.Id.Protein>
6NUR|6NUR_protein|mol2

> <Gold.PLP.Fitness>
35.8476

> <Gold.PLP.PLP>
-28.0353

> <Gold.PLP.part.hbond>
-1.5172

> <Gold.PLP.part.metal>
0.0000

> <Gold.PLP.part.buried>
-3.5903

> <Gold.PLP.part.nonpolar>
-24.0022

> <Gold.PLP.part.repulsive>
0.2536

> <Gold.PLP.ligand.clash>
0.0000

> <Gold.PLP.ligand.torsion>
0.4902

> <Gold.PLP.Chemscore.Hbond>
0.9263

> <Gold.PLP.Chemscore.CHOScore>
2.0000

> <Gold.PLP.Chemscore.Metal>
0.0000

> <Gold.Chemscore.Hbonds>
donor molecule, donor type, donor heavy atom, donor atom, acceptor molecule, acceptor atom, score
      P1  H  6896  6907       L1    19  0.90
      L1  C    13    34       P1 10952  0.93
      L1  C    15    35       P1 10747  0.90

> <Gold.PLP.Chemscore.Internal.Correction>
0.0140

> <Gold.Rescore>
     Score         DG    S(hbond)    S(metal)    S(lipo)     H(rot)  DE(clash)    DE(int)     intcor
     12.84     -14.47       0.95        0.00      77.92       1.28       0.05       1.58       ----

> <Gold.Chemscore.Fitness>
12.8390

> <Gold.Chemscore.DG>
-14.4683

> <Gold.Chemscore.ZeroCoef>
-5.4800

> <Gold.Chemscore.Hbond>
0.9459

> <Gold.Chemscore.Metal>
0.0000

> <Gold.Chemscore.Lipo>
77.9205

> <Gold.Chemscore.Internal_Hbond>
0.0000

> <Gold.Chemscore.DEClash>
0.0526

> <Gold.Chemscore.DEInternal>
1.5767

> <Gold.Chemscore.Rot>
1.2842

> <Gold.Chemscore.Internal.Correction>
   9.000000E+99

> <Gold.Chemscore.Hbonds>
donor molecule, donor type, donor heavy atom, donor atom, acceptor molecule, acceptor atom, score
      P1  H  6896  6907       L1    19  0.49

> <Gold.Chemscore.Hbond.Weighted>
-3.1591

> <Gold.Chemscore.Metal.Weighted>
-0.0000

> <Gold.Chemscore.Lipo.Weighted>
-9.1167

> <Gold.Chemscore.Internal_Hbond.Weighted>
0.0000

> <Gold.Chemscore.DEClash.Weighted>
0.0526

> <Gold.Chemscore.DEInternal.Weighted>
1.5767

> <Gold.Chemscore.Rot.Weighted>
3.2875

> <Gold.Chemscore.Internal.Correction.Weighted>
   9.000000E+99

> <Gold.Protein.RotatedTorsions>
[ 6907 6896 6895 6894 ] final -139.23 input  -60.11 | X-H torsion
[ 7974 7965 7964 7962 ] final -101.68 input  175.53 | X-H torsion
[ 8008 7997 7996 7995 ] final  154.02 input   59.86 | X-H torsion
[ 10167 10162 10161 10158 ] final  157.31 input  -65.29 | X-H torsion
[ 10718 10713 10712 10709 ] final -169.73 input   66.30 | X-H torsion
[ 10763 10752 10751 10750 ] final -160.58 input  -60.55 | X-H torsion
[ 11005 11000 10999 10996 ] final   44.90 input  -57.11 | X-H torsion

> <Gold.Protein.ActiveResidues>
 VAL166  LYS551  ARG553  GLY616  TRP617  ASP618  TYR619  PRO620  LYS621  CYS622 
 ASP623  PHE694  ASN695  SER759  ASP760  ASP761  ALA762  ILE779  LEU786  VAL792 
 PHE793  MET794  SER795  GLU796  ALA797  LYS798  CYS799  TRP800  GLU811  SER814 

> <Gold.Protein.RotatedAtoms>
  151.0452  133.5672  159.2647 H   0  0  0  0  0  0  0  0  0  0  0  0  # atno 6907 bound_to 6896
  151.2703  135.0681  159.9141 H   0  0  0  0  0  0  0  0  0  0  0  0  # atno 6908 bound_to 6896
  152.5372  134.0183  159.8024 H   0  0  0  0  0  0  0  0  0  0  0  0  # atno 6909 bound_to 6896
  145.2785  140.9319  143.2945 H   0  0  0  0  0  0  0  0  0  0  0  0  # atno 7974 bound_to 7965
  156.2552  140.1978  156.6581 H   0  0  0  0  0  0  0  0  0  0  0  0  # atno 8008 bound_to 7997
  154.6486  140.0575  156.9954 H   0  0  0  0  0  0  0  0  0  0  0  0  # atno 8009 bound_to 7997
  155.1453  140.3246  155.4446 H   0  0  0  0  0  0  0  0  0  0  0  0  # atno 8010 bound_to 7997
  139.4823  144.4929  151.8282 H   0  0  0  0  0  0  0  0  0  0  0  0  # atno 10167 bound_to 10162
  156.7158  130.9251  151.3093 H   0  0  0  0  0  0  0  0  0  0  0  0  # atno 10718 bound_to 10713
  154.7377  135.3061  154.8782 H   0  0  0  0  0  0  0  0  0  0  0  0  # atno 10763 bound_to 10752
  153.9605  135.6753  153.4749 H   0  0  0  0  0  0  0  0  0  0  0  0  # atno 10764 bound_to 10752
  153.0979  135.4926  154.8736 H   0  0  0  0  0  0  0  0  0  0  0  0  # atno 10765 bound_to 10752
  140.1509  134.4462  155.8382 H   0  0  0  0  0  0  0  0  0  0  0  0  # atno 11005 bound_to 11000
  144.9273  139.4339  143.6512 LP  0  0  0  0  0  0  0  0  0  0  0  0  # atno 17320 bound_to 7965
  146.3224  139.8166  142.8935 LP  0  0  0  0  0  0  0  0  0  0  0  0  # atno 17321 bound_to 7965
  140.4415  144.1980  150.5891 LP  0  0  0  0  0  0  0  0  0  0  0  0  # atno 17342 bound_to 10162
  140.4678  143.2424  151.9131 LP  0  0  0  0  0  0  0  0  0  0  0  0  # atno 17343 bound_to 10162
  157.6918  130.9241  150.0534 LP  0  0  0  0  0  0  0  0  0  0  0  0  # atno 17370 bound_to 10713
  156.1629  130.3644  149.9274 LP  0  0  0  0  0  0  0  0  0  0  0  0  # atno 17371 bound_to 10713
  141.2199  133.6872  156.7420 LP  0  0  0  0  0  0  0  0  0  0  0  0  # atno 17394 bound_to 11000
  140.2606  134.8470  157.3754 LP  0  0  0  0  0  0  0  0  0  0  0  0  # atno 17395 bound_to 11000

$$$$
