AV-unprocessed.smi:2252|AV-procd|sdf|9104|dock1
  -GOLD-   2272012303D 1   1.00000     0.00000
 Structure written by MMmdl.
 46 48  0  0  0  0  0  0  0  0  3 V2000
  149.5452  141.0037  154.3305 C   0  0  0  0  0  0  0  0  0  0  0  0
  148.1426  141.3119  154.0428 N   0  0  0  0  0  0  0  0  0  0  0  0
  147.5098  142.5074  154.2689 C   0  0  0  0  0  0  0  0  0  0  0  0
  146.2117  142.3485  153.8602 C   0  0  0  0  0  0  0  0  0  0  0  0
  146.1060  141.0642  153.4003 N   0  3  0  0  0  0  0  0  0  0  0  0
  147.2800  140.4307  153.5081 C   0  0  0  0  0  0  0  0  0  0  0  0
  147.5324  139.0054  153.1118 C   0  0  0  0  0  0  0  0  0  0  0  0
  146.3517  138.3518  152.3753 C   0  0  0  0  0  0  0  0  0  0  0  0
  146.5330  136.9094  152.2398 N   0  0  0  0  0  0  0  0  0  0  0  0
  145.7013  135.9788  152.7333 C   0  0  0  0  0  0  0  0  0  0  0  0
  144.6804  136.2523  153.3650 O   0  0  0  0  0  0  0  0  0  0  0  0
  146.0907  134.5104  152.4980 C   0  0  1  0  0  0  0  0  0  0  0  0
  145.8018  134.1586  151.0218 C   0  0  0  0  0  0  0  0  0  0  0  0
  144.3896  133.8832  150.5504 C   0  0  0  0  0  0  0  0  0  0  0  0
  145.3928  132.7613  150.6070 C   0  0  0  0  0  0  0  0  0  0  0  0
  147.5176  134.2514  152.8458 N   0  3  0  0  0  0  0  0  0  0  0  0
  147.8789  134.4747  154.2630 C   0  0  0  0  0  0  0  0  0  0  0  0
  149.2109  133.7557  154.4412 C   0  0  0  0  0  0  0  0  0  0  0  0
  149.0728  132.5228  153.5517 C   0  0  0  0  0  0  0  0  0  0  0  0
  148.0234  132.9014  152.4959 C   0  0  0  0  0  0  0  0  0  0  0  0
  149.9948  141.8305  154.8816 H   0  0  0  0  0  0  0  0  0  0  0  0
  150.0811  140.8604  153.3917 H   0  0  0  0  0  0  0  0  0  0  0  0
  149.6037  140.0977  154.9342 H   0  0  0  0  0  0  0  0  0  0  0  0
  148.0160  143.3621  154.6943 H   0  0  0  0  0  0  0  0  0  0  0  0
  145.3775  143.0352  153.8619 H   0  0  0  0  0  0  0  0  0  0  0  0
  148.4196  139.0090  152.4780 H   0  0  0  0  0  0  0  0  0  0  0  0
  147.7887  138.4417  154.0088 H   0  0  0  0  0  0  0  0  0  0  0  0
  145.4310  138.5713  152.9189 H   0  0  0  0  0  0  0  0  0  0  0  0
  146.2421  138.7897  151.3828 H   0  0  0  0  0  0  0  0  0  0  0  0
  147.3480  136.5975  151.7315 H   0  0  0  0  0  0  0  0  0  0  0  0
  145.4705  133.8821  153.1406 H   0  0  0  0  0  0  0  0  0  0  0  0
  146.4264  134.7020  150.3141 H   0  0  0  0  0  0  0  0  0  0  0  0
  143.5959  133.8728  151.2931 H   0  0  0  0  0  0  0  0  0  0  0  0
  144.1051  134.2574  149.5689 H   0  0  0  0  0  0  0  0  0  0  0  0
  145.7810  132.3850  149.6628 H   0  0  0  0  0  0  0  0  0  0  0  0
  145.2600  132.0139  151.3870 H   0  0  0  0  0  0  0  0  0  0  0  0
  147.9519  135.5342  154.5104 H   0  0  0  0  0  0  0  0  0  0  0  0
  147.1253  134.0246  154.9117 H   0  0  0  0  0  0  0  0  0  0  0  0
  150.0217  134.3866  154.0742 H   0  0  0  0  0  0  0  0  0  0  0  0
  149.4233  133.5078  155.4817 H   0  0  0  0  0  0  0  0  0  0  0  0
  150.0253  132.2341  153.1057 H   0  0  0  0  0  0  0  0  0  0  0  0
  148.7152  131.6771  154.1403 H   0  0  0  0  0  0  0  0  0  0  0  0
  147.2184  132.1656  152.5127 H   0  0  0  0  0  0  0  0  0  0  0  0
  148.4453  132.9115  151.4903 H   0  0  0  0  0  0  0  0  0  0  0  0
  148.0745  134.9046  152.3127 H   0  0  0  0  0  0  0  0  0  0  0  0
  145.2600  140.6499  153.0288 H   0  0  0  0  0  0  0  0  0  0  0  0
  1  2  1  0  0  0  0
  1 21  1  0  0  0  0
  1 22  1  0  0  0  0
  1 23  1  0  0  0  0
  2  6  1  0  0  0  0
  2  3  1  0  0  0  0
  3  4  2  0  0  0  0
  3 24  1  0  0  0  0
  4  5  1  0  0  0  0
  4 25  1  0  0  0  0
  5  6  2  0  0  0  0
  5 46  1  0  0  0  0
  6  7  1  0  0  0  0
  7  8  1  0  0  0  0
  7 26  1  0  0  0  0
  7 27  1  0  0  0  0
  8  9  1  0  0  0  0
  8 28  1  0  0  0  0
  8 29  1  0  0  0  0
  9 10  1  0  0  0  0
  9 30  1  0  0  0  0
 10 11  2  0  0  0  0
 10 12  1  0  0  0  0
 12 13  1  0  0  0  0
 12 16  1  0  0  0  0
 12 31  1  0  0  0  0
 13 15  1  0  0  0  0
 13 14  1  0  0  0  0
 13 32  1  0  0  0  0
 14 15  1  0  0  0  0
 14 33  1  0  0  0  0
 14 34  1  0  0  0  0
 15 35  1  0  0  0  0
 15 36  1  0  0  0  0
 16 20  1  0  0  0  0
 16 17  1  0  0  0  0
 16 45  1  0  0  0  0
 17 18  1  0  0  0  0
 17 37  1  0  0  0  0
 17 38  1  0  0  0  0
 18 19  1  0  0  0  0
 18 39  1  0  0  0  0
 18 40  1  0  0  0  0
 19 20  1  0  0  0  0
 19 41  1  0  0  0  0
 19 42  1  0  0  0  0
 20 43  1  0  0  0  0
 20 44  1  0  0  0  0
M  CHG  1   5   1
M  CHG  1  16   1
M  END
> <s_m_source_file>
AV-unprocessed.smi

> <i_m_source_file_index>
2252

> <i_lp_mmshare_version>
43012

> <i_f3d_flags>
0

> <s_epik_input>
W0NIM11uMVtjSF1bY0hdbmMxW0NIMl1bQ0gyXVtOSF1DKD1PKVtDQEhdKFtDSF0yW0NIMl1bQ0gyXTIpTjNbQ0gyXVtDSDJdW0NIMl1bQ0gyXTM=

> <s_epik_cmdline>
J2VwaWtfcHl0aG9uJywgJy1waCcsICc3LjAnLCAnLXRuJywgJzgnLCAnLW1hJywgJzIwMCcsICctbWV0YWxfYmluZGluZycsICctaW1hZScsICc8aW5maWxlLm1hZT4nLCAnLW9tYWUnLCAnPG91dGZpbGUubWFlPic=

> <r_lp_tautomer_probability>
1

> <r_epik_Ionization_Penalty>
0.116886

> <r_epik_Ionization_Penalty_Charging>
0.00955009

> <r_epik_Ionization_Penalty_Neutral>
0.107336

> <r_epik_State_Penalty>
0.0956868

> <r_epik_Charging_Adjusted_Penalty>
0.105237

> <i_epik_Tot_Q>
2

> <i_epik_Tot_abs_Q>
2

> <r_epik_Metal_State_Penalty>
0.438836

> <b_epik_Metal_Only>
0

> <s_lp_Force_Field>
OPLS_2005

> <r_lp_Energy>
43.7014

> <b_lp_Chiralities_Consistent>
1

> <s_lp_Variant>
AV-unprocessed.smi:2252-2

> <Gold.Version>
5.8.1

> <Gold.Id.Protein>
6NUR|6NUR_protein|mol2

> <Gold.PLP.Fitness>
54.5478

> <Gold.PLP.PLP>
-38.7069

> <Gold.PLP.part.hbond>
-2.8838

> <Gold.PLP.part.metal>
0.0000

> <Gold.PLP.part.buried>
0.2269

> <Gold.PLP.part.nonpolar>
-37.2611

> <Gold.PLP.part.repulsive>
0.1674

> <Gold.PLP.ligand.clash>
0.0000

> <Gold.PLP.ligand.torsion>
0.9615

> <Gold.PLP.Chemscore.Hbond>
5.0000

> <Gold.PLP.Chemscore.CHOScore>
0.5413

> <Gold.PLP.Chemscore.Metal>
0.0000

> <Gold.Chemscore.Hbonds>
donor molecule, donor type, donor heavy atom, donor atom, acceptor molecule, acceptor atom, score
      L1  H     5    46       P1 10175  2.00
      L1  H     9    30       P1  7948  0.93
      L1  H    16    45       P1  7948  2.00
      L1  C     3    24       P1  8028  0.52

> <Gold.PLP.Chemscore.Internal.Correction>
1.1402

> <Gold.Rescore>
     Score         DG    S(hbond)    S(metal)    S(lipo)     H(rot)  DE(clash)    DE(int)     intcor
     17.04     -18.45       2.84        0.00      74.55       2.05       0.19       1.22       ----

> <Gold.Chemscore.Fitness>
17.0437

> <Gold.Chemscore.DG>
-18.4548

> <Gold.Chemscore.ZeroCoef>
-5.4800

> <Gold.Chemscore.Hbond>
2.8412

> <Gold.Chemscore.Metal>
0.0000

> <Gold.Chemscore.Lipo>
74.5457

> <Gold.Chemscore.Internal_Hbond>
0.0000

> <Gold.Chemscore.DEClash>
0.1937

> <Gold.Chemscore.DEInternal>
1.2174

> <Gold.Chemscore.Rot>
2.0456

> <Gold.Chemscore.Internal.Correction>
   9.000000E+99

> <Gold.Chemscore.Hbonds>
donor molecule, donor type, donor heavy atom, donor atom, acceptor molecule, acceptor atom, score
      L1  H     5    46       P1 10175  0.78
      L1  H     9    30       P1  7948  0.89
      L1  H    16    45       P1  7948  0.60

> <Gold.Chemscore.Hbond.Weighted>
-9.4897

> <Gold.Chemscore.Metal.Weighted>
-0.0000

> <Gold.Chemscore.Lipo.Weighted>
-8.7218

> <Gold.Chemscore.Internal_Hbond.Weighted>
0.0000

> <Gold.Chemscore.DEClash.Weighted>
0.1937

> <Gold.Chemscore.DEInternal.Weighted>
1.2174

> <Gold.Chemscore.Rot.Weighted>
5.2368

> <Gold.Chemscore.Internal.Correction.Weighted>
   9.000000E+99

> <Gold.Protein.RotatedTorsions>
[ 6907 6896 6895 6894 ] final -114.83 input  -60.11 | X-H torsion
[ 7974 7965 7964 7962 ] final -105.66 input  175.53 | X-H torsion
[ 8008 7997 7996 7995 ] final   51.06 input   59.86 | X-H torsion
[ 10167 10162 10161 10158 ] final   84.62 input  -65.29 | X-H torsion
[ 10718 10713 10712 10709 ] final  -78.93 input   66.30 | X-H torsion
[ 10763 10752 10751 10750 ] final -111.85 input  -60.55 | X-H torsion
[ 11005 11000 10999 10996 ] final  -88.23 input  -57.11 | X-H torsion

> <Gold.Protein.ActiveResidues>
 VAL166  LYS551  ARG553  GLY616  TRP617  ASP618  TYR619  PRO620  LYS621  CYS622 
 ASP623  PHE694  ASN695  SER759  ASP760  ASP761  ALA762  ILE779  LEU786  VAL792 
 PHE793  MET794  SER795  GLU796  ALA797  LYS798  CYS799  TRP800  GLU811  SER814 

> <Gold.Protein.RotatedAtoms>
  150.7931  133.8745  159.3267 H   0  0  0  0  0  0  0  0  0  0  0  0  # atno 6907 bound_to 6896
  151.6578  135.0991  160.0183 H   0  0  0  0  0  0  0  0  0  0  0  0  # atno 6908 bound_to 6896
  152.4009  133.6777  159.6351 H   0  0  0  0  0  0  0  0  0  0  0  0  # atno 6909 bound_to 6896
  145.2277  140.9159  143.3223 H   0  0  0  0  0  0  0  0  0  0  0  0  # atno 7974 bound_to 7965
  155.4291  140.3450  155.4278 H   0  0  0  0  0  0  0  0  0  0  0  0  # atno 8008 bound_to 7997
  156.1347  140.1524  156.9043 H   0  0  0  0  0  0  0  0  0  0  0  0  # atno 8009 bound_to 7997
  154.4922  140.0838  156.7600 H   0  0  0  0  0  0  0  0  0  0  0  0  # atno 8010 bound_to 7997
  139.9062  144.6299  150.8585 H   0  0  0  0  0  0  0  0  0  0  0  0  # atno 10167 bound_to 10162
  156.0105  130.4531  150.3571 H   0  0  0  0  0  0  0  0  0  0  0  0  # atno 10718 bound_to 10713
  154.8321  135.4512  154.1102 H   0  0  0  0  0  0  0  0  0  0  0  0  # atno 10763 bound_to 10752
  153.2367  135.6912  153.7835 H   0  0  0  0  0  0  0  0  0  0  0  0  # atno 10764 bound_to 10752
  153.7198  135.3343  155.3240 H   0  0  0  0  0  0  0  0  0  0  0  0  # atno 10765 bound_to 10752
  141.1605  133.7557  156.9421 H   0  0  0  0  0  0  0  0  0  0  0  0  # atno 11005 bound_to 11000
  144.9706  139.3884  143.6311 LP  0  0  0  0  0  0  0  0  0  0  0  0  # atno 17320 bound_to 7965
  146.3360  139.8801  142.8825 LP  0  0  0  0  0  0  0  0  0  0  0  0  # atno 17321 bound_to 7965
  140.7696  143.3399  151.2229 LP  0  0  0  0  0  0  0  0  0  0  0  0  # atno 17342 bound_to 10162
  139.6982  143.9577  152.2893 LP  0  0  0  0  0  0  0  0  0  0  0  0  # atno 17343 bound_to 10162
  157.1661  131.0357  151.2818 LP  0  0  0  0  0  0  0  0  0  0  0  0  # atno 17370 bound_to 10713
  157.4270  130.7469  149.6959 LP  0  0  0  0  0  0  0  0  0  0  0  0  # atno 17371 bound_to 10713
  140.1314  134.9353  157.2343 LP  0  0  0  0  0  0  0  0  0  0  0  0  # atno 17394 bound_to 11000
  140.2948  134.3199  155.7305 LP  0  0  0  0  0  0  0  0  0  0  0  0  # atno 17395 bound_to 11000

$$$$
