AV-unprocessed.smi:2943|AV-procd|sdf|11270|dock5
  -GOLD-   2272016163D 1   1.00000     0.00000
 Structure written by MMmdl.
 37 39  0  0  0  0  0  0  0  0  2 V2000
  152.9980  138.5700  157.6778 C   0  0  0  0  0  0  0  0  0  0  0  0
  152.1029  139.7622  157.5093 C   0  0  0  0  0  0  0  0  0  0  0  0
  151.8952  140.7638  158.4310 C   0  0  0  0  0  0  0  0  0  0  0  0
  152.5055  140.9111  159.7914 C   0  0  0  0  0  0  0  0  0  0  0  0
  150.9820  141.6921  157.9255 N   0  0  0  0  0  0  0  0  0  0  0  0
  150.4986  142.8823  158.6116 C   0  0  0  0  0  0  0  0  0  0  0  0
  151.6498  143.7275  159.1800 C   0  0  2  0  0  0  0  0  0  0  0  0
  151.7623  143.6766  160.7019 C   0  0  0  0  0  0  0  0  0  0  0  0
  152.5014  144.9627  160.9917 C   0  0  0  0  0  0  0  0  0  0  0  0
  151.8841  145.9164  159.9720 C   0  0  0  0  0  0  0  0  0  0  0  0
  151.4791  145.1084  158.8692 O   0  0  0  0  0  0  0  0  0  0  0  0
  150.6143  141.2963  156.6497 C   0  0  0  0  0  0  0  0  0  0  0  0
  149.7581  141.9090  155.7875 N   0  3  0  0  0  0  0  0  0  0  0  0
  149.5696  141.3290  154.5975 C   0  0  0  0  0  0  0  0  0  0  0  0
  150.1823  140.1909  154.2407 N   0  0  0  0  0  0  0  0  0  0  0  0
  151.0398  139.5532  155.0753 C   0  0  0  0  0  0  0  0  0  0  0  0
  151.6278  138.3806  154.6066 N   0  0  0  0  0  0  0  0  0  0  0  0
  151.3036  140.0934  156.3611 C   0  0  0  0  0  0  0  0  0  0  0  0
  153.0399  138.2424  158.7166 H   0  0  0  0  0  0  0  0  0  0  0  0
  154.0158  138.7954  157.3593 H   0  0  0  0  0  0  0  0  0  0  0  0
  152.6480  137.7194  157.0938 H   0  0  0  0  0  0  0  0  0  0  0  0
  153.3749  140.2651  159.9109 H   0  0  0  0  0  0  0  0  0  0  0  0
  151.7861  140.6515  160.5683 H   0  0  0  0  0  0  0  0  0  0  0  0
  152.8399  141.9336  159.9665 H   0  0  0  0  0  0  0  0  0  0  0  0
  149.9085  143.4728  157.9097 H   0  0  0  0  0  0  0  0  0  0  0  0
  149.8141  142.5867  159.4067 H   0  0  0  0  0  0  0  0  0  0  0  0
  152.5985  143.4101  158.7448 H   0  0  0  0  0  0  0  0  0  0  0  0
  150.7747  143.7019  161.1648 H   0  0  0  0  0  0  0  0  0  0  0  0
  152.2869  142.7907  161.0608 H   0  0  0  0  0  0  0  0  0  0  0  0
  152.3853  145.3039  162.0208 H   0  0  0  0  0  0  0  0  0  0  0  0
  153.5662  144.8354  160.7914 H   0  0  0  0  0  0  0  0  0  0  0  0
  150.9994  146.3994  160.3884 H   0  0  0  0  0  0  0  0  0  0  0  0
  152.5802  146.6955  159.6603 H   0  0  0  0  0  0  0  0  0  0  0  0
  148.8918  141.8218  153.9162 H   0  0  0  0  0  0  0  0  0  0  0  0
  151.4252  138.0198  153.6853 H   0  0  0  0  0  0  0  0  0  0  0  0
  152.2615  137.8431  155.1807 H   0  0  0  0  0  0  0  0  0  0  0  0
  149.2911  142.7785  156.0451 H   0  0  0  0  0  0  0  0  0  0  0  0
  1  2  1  0  0  0  0
  1 19  1  0  0  0  0
  1 20  1  0  0  0  0
  1 21  1  0  0  0  0
  2 18  1  0  0  0  0
  2  3  2  0  0  0  0
  3  4  1  0  0  0  0
  3  5  1  0  0  0  0
  4 22  1  0  0  0  0
  4 23  1  0  0  0  0
  4 24  1  0  0  0  0
  5  6  1  0  0  0  0
  5 12  1  0  0  0  0
  6  7  1  0  0  0  0
  6 25  1  0  0  0  0
  6 26  1  0  0  0  0
  7 11  1  0  0  0  0
  7  8  1  0  0  0  0
  7 27  1  0  0  0  0
  8  9  1  0  0  0  0
  8 28  1  0  0  0  0
  8 29  1  0  0  0  0
  9 10  1  0  0  0  0
  9 30  1  0  0  0  0
  9 31  1  0  0  0  0
 10 11  1  0  0  0  0
 10 32  1  0  0  0  0
 10 33  1  0  0  0  0
 12 18  1  0  0  0  0
 12 13  2  0  0  0  0
 13 14  1  0  0  0  0
 13 37  1  0  0  0  0
 14 15  2  0  0  0  0
 14 34  1  0  0  0  0
 15 16  1  0  0  0  0
 16 17  1  0  0  0  0
 16 18  2  0  0  0  0
 17 35  1  0  0  0  0
 17 36  1  0  0  0  0
M  CHG  1  13   1
M  END
> <s_m_source_file>
AV-unprocessed.smi

> <i_m_source_file_index>
2943

> <i_lp_mmshare_version>
43012

> <i_f3d_flags>
0

> <s_epik_input>
bjFbY0hdbmMoW05IMl0pYyhjMTIpYyhbQ0gzXSljKFtDSDNdKW4yW0NIMl1bQ0BASF0zW0NIMl1bQ0gyXVtDSDJdTzM=

> <s_epik_cmdline>
J2VwaWtfcHl0aG9uJywgJy1waCcsICc3LjAnLCAnLXRuJywgJzgnLCAnLW1hJywgJzIwMCcsICctbWV0YWxfYmluZGluZycsICctaW1hZScsICc8aW5maWxlLm1hZT4nLCAnLW9tYWUnLCAnPG91dGZpbGUubWFlPic=

> <r_epik_Ionization_Penalty>
2.35523

> <r_epik_Ionization_Penalty_Charging>
2.35518

> <r_epik_Ionization_Penalty_Neutral>
5.21205e-05

> <r_epik_State_Penalty>
2.50981

> <r_epik_Charging_Adjusted_Penalty>
4.86499

> <i_epik_Tot_Q>
1

> <i_epik_Tot_abs_Q>
1

> <r_epik_Metal_State_Penalty>
2.52087

> <b_epik_Metal_Only>
0

> <s_lp_Force_Field>
OPLS_2005

> <r_lp_Energy>
21.0086

> <b_lp_Chiralities_Consistent>
1

> <s_lp_Variant>
AV-unprocessed.smi:2943-3

> <Gold.Version>
5.8.1

> <Gold.Id.Protein>
6NUR|6NUR_protein|mol2

> <Gold.PLP.Fitness>
38.3905

> <Gold.PLP.PLP>
-32.9673

> <Gold.PLP.part.hbond>
-2.0000

> <Gold.PLP.part.metal>
0.0000

> <Gold.PLP.part.buried>
-2.7749

> <Gold.PLP.part.nonpolar>
-27.0245

> <Gold.PLP.part.repulsive>
0.5139

> <Gold.PLP.ligand.clash>
0.0000

> <Gold.PLP.ligand.torsion>
0.7597

> <Gold.PLP.Chemscore.Hbond>
2.3138

> <Gold.PLP.Chemscore.CHOScore>
0.0000

> <Gold.PLP.Chemscore.Metal>
0.0000

> <Gold.Chemscore.Hbonds>
donor molecule, donor type, donor heavy atom, donor atom, acceptor molecule, acceptor atom, score
      L1  H    13    37       P1  8028  1.98
      P1  H  7989  7998       L1    15  0.28

> <Gold.PLP.Chemscore.Internal.Correction>
0.0011

> <Gold.Rescore>
     Score         DG    S(hbond)    S(metal)    S(lipo)     H(rot)  DE(clash)    DE(int)     intcor
     11.95     -14.46       0.84        0.00      80.60       1.27       0.83       1.68       ----

> <Gold.Chemscore.Fitness>
11.9456

> <Gold.Chemscore.DG>
-14.4558

> <Gold.Chemscore.ZeroCoef>
-5.4800

> <Gold.Chemscore.Hbond>
0.8394

> <Gold.Chemscore.Metal>
0.0000

> <Gold.Chemscore.Lipo>
80.5955

> <Gold.Chemscore.Internal_Hbond>
0.0000

> <Gold.Chemscore.DEClash>
0.8310

> <Gold.Chemscore.DEInternal>
1.6793

> <Gold.Chemscore.Rot>
1.2725

> <Gold.Chemscore.Internal.Correction>
   9.000000E+99

> <Gold.Chemscore.Hbonds>
donor molecule, donor type, donor heavy atom, donor atom, acceptor molecule, acceptor atom, score
      L1  H    13    37       P1  8028  0.89

> <Gold.Chemscore.Hbond.Weighted>
-2.8037

> <Gold.Chemscore.Metal.Weighted>
-0.0000

> <Gold.Chemscore.Lipo.Weighted>
-9.4297

> <Gold.Chemscore.Internal_Hbond.Weighted>
0.0000

> <Gold.Chemscore.DEClash.Weighted>
0.8310

> <Gold.Chemscore.DEInternal.Weighted>
1.6793

> <Gold.Chemscore.Rot.Weighted>
3.2576

> <Gold.Chemscore.Internal.Correction.Weighted>
   9.000000E+99

> <Gold.Protein.RotatedTorsions>
[ 6907 6896 6895 6894 ] final -115.50 input  -60.11 | X-H torsion
[ 7974 7965 7964 7962 ] final  -51.85 input  175.53 | X-H torsion
[ 8008 7997 7996 7995 ] final   68.40 input   59.86 | X-H torsion
[ 10167 10162 10161 10158 ] final   47.21 input  -65.29 | X-H torsion
[ 10718 10713 10712 10709 ] final -159.80 input   66.30 | X-H torsion
[ 10763 10752 10751 10750 ] final -170.85 input  -60.55 | X-H torsion
[ 11005 11000 10999 10996 ] final  134.50 input  -57.11 | X-H torsion

> <Gold.Protein.ActiveResidues>
 VAL166  LYS551  ARG553  GLY616  TRP617  ASP618  TYR619  PRO620  LYS621  CYS622 
 ASP623  PHE694  ASN695  SER759  ASP760  ASP761  ALA762  ILE779  LEU786  VAL792 
 PHE793  MET794  SER795  GLU796  ALA797  LYS798  CYS799  TRP800  GLU811  SER814 

> <Gold.Protein.RotatedAtoms>
  150.7983  133.8649  159.3242 H   0  0  0  0  0  0  0  0  0  0  0  0  # atno 6907 bound_to 6896
  151.6468  135.1004  160.0162 H   0  0  0  0  0  0  0  0  0  0  0  0  # atno 6908 bound_to 6896
  152.4067  133.6861  159.6398 H   0  0  0  0  0  0  0  0  0  0  0  0  # atno 6909 bound_to 6896
  145.9145  140.7887  142.9678 H   0  0  0  0  0  0  0  0  0  0  0  0  # atno 7974 bound_to 7965
  155.7078  140.3494  155.4960 H   0  0  0  0  0  0  0  0  0  0  0  0  # atno 8008 bound_to 7997
  155.9383  140.1097  157.1098 H   0  0  0  0  0  0  0  0  0  0  0  0  # atno 8009 bound_to 7997
  154.4098  140.1218  156.4880 H   0  0  0  0  0  0  0  0  0  0  0  0  # atno 8010 bound_to 7997
  140.3060  144.2877  150.6209 H   0  0  0  0  0  0  0  0  0  0  0  0  # atno 10167 bound_to 10162
  156.5731  130.8697  151.2843 H   0  0  0  0  0  0  0  0  0  0  0  0  # atno 10718 bound_to 10713
  154.6370  135.2893  155.0149 H   0  0  0  0  0  0  0  0  0  0  0  0  # atno 10763 bound_to 10752
  154.1289  135.6536  153.4922 H   0  0  0  0  0  0  0  0  0  0  0  0  # atno 10764 bound_to 10752
  153.0307  135.5305  154.7221 H   0  0  0  0  0  0  0  0  0  0  0  0  # atno 10765 bound_to 10752
  139.9919  134.9512  156.9875 H   0  0  0  0  0  0  0  0  0  0  0  0  # atno 11005 bound_to 11000
  144.6746  140.1878  143.7399 LP  0  0  0  0  0  0  0  0  0  0  0  0  # atno 17320 bound_to 7965
  145.8629  139.2232  143.1706 LP  0  0  0  0  0  0  0  0  0  0  0  0  # atno 17321 bound_to 7965
  140.5610  143.2192  151.7765 LP  0  0  0  0  0  0  0  0  0  0  0  0  # atno 17342 bound_to 10162
  139.4904  144.4349  151.9831 LP  0  0  0  0  0  0  0  0  0  0  0  0  # atno 17343 bound_to 10162
  157.7343  130.9745  150.2025 LP  0  0  0  0  0  0  0  0  0  0  0  0  # atno 17370 bound_to 10713
  156.2697  130.3720  149.8044 LP  0  0  0  0  0  0  0  0  0  0  0  0  # atno 17371 bound_to 10713
  140.4892  134.1210  155.7230 LP  0  0  0  0  0  0  0  0  0  0  0  0  # atno 17394 bound_to 11000
  141.1573  133.8859  157.1944 LP  0  0  0  0  0  0  0  0  0  0  0  0  # atno 17395 bound_to 11000

$$$$
