AV-unprocessed.smi:1452|AV-procd|sdf|5910|dock3
  -GOLD-   22720 5593D 1   1.00000     0.00000
 Structure written by MMmdl.
 40 42  0  0  0  0  0  0  0  0  2 V2000
  142.6038  136.8482  153.9652 O   0  0  0  0  0  0  0  0  0  0  0  0
  142.5933  137.6931  153.0716 C   0  0  0  0  0  0  0  0  0  0  0  0
  141.4669  138.3736  152.7693 N   0  0  0  0  0  0  0  0  0  0  0  0
  140.1489  138.3122  153.3118 C   0  0  0  0  0  0  0  0  0  0  0  0
  139.8330  137.0871  153.9415 C   0  0  0  0  0  0  0  0  0  0  0  0
  138.5599  136.9064  154.5159 C   0  0  0  0  0  0  0  0  0  0  0  0
  137.6291  137.9577  154.4444 C   0  0  0  0  0  0  0  0  0  0  0  0
  138.0197  139.1448  153.7992 C   0  0  0  0  0  0  0  0  0  0  0  0
  139.2404  139.3198  153.2499 N   0  0  0  0  0  0  0  0  0  0  0  0
  143.6856  138.0007  152.3537 N   0  0  0  0  0  0  0  0  0  0  0  0
  145.0113  137.4176  152.5288 C   0  0  1  0  0  0  0  0  0  0  0  0
  145.4921  137.4544  153.9902 C   0  0  0  0  0  0  0  0  0  0  0  0
  146.2355  136.1221  154.2105 C   0  0  0  0  0  0  0  0  0  0  0  0
  146.2430  135.4563  152.8938 N   0  3  1  0  0  0  0  0  0  0  0  0
  146.3806  133.9835  152.8842 C   0  0  0  0  0  0  0  0  0  0  0  0
  146.4497  133.4886  151.4255 C   0  0  0  0  0  0  0  0  0  0  0  0
  145.2596  134.0026  150.5900 C   0  0  0  0  0  0  0  0  0  0  0  0
  145.1115  135.5314  150.7139 C   0  0  0  0  0  0  0  0  0  0  0  0
  145.0334  135.9228  152.1994 C   0  0  2  0  0  0  0  0  0  0  0  0
  141.5708  139.0300  152.0090 H   0  0  0  0  0  0  0  0  0  0  0  0
  140.5587  136.2877  153.9882 H   0  0  0  0  0  0  0  0  0  0  0  0
  138.3032  135.9767  155.0017 H   0  0  0  0  0  0  0  0  0  0  0  0
  136.6427  137.8571  154.8727 H   0  0  0  0  0  0  0  0  0  0  0  0
  137.3349  139.9763  153.7216 H   0  0  0  0  0  0  0  0  0  0  0  0
  143.5869  138.7051  151.6357 H   0  0  0  0  0  0  0  0  0  0  0  0
  145.7462  137.9393  151.9119 H   0  0  0  0  0  0  0  0  0  0  0  0
  146.1391  138.3141  154.1684 H   0  0  0  0  0  0  0  0  0  0  0  0
  144.6537  137.5273  154.6849 H   0  0  0  0  0  0  0  0  0  0  0  0
  147.2524  136.2678  154.5756 H   0  0  0  0  0  0  0  0  0  0  0  0
  145.6984  135.5109  154.9374 H   0  0  0  0  0  0  0  0  0  0  0  0
  147.2847  133.6963  153.4222 H   0  0  0  0  0  0  0  0  0  0  0  0
  145.5357  133.5276  153.4032 H   0  0  0  0  0  0  0  0  0  0  0  0
  147.3806  133.8316  150.9720 H   0  0  0  0  0  0  0  0  0  0  0  0
  146.4798  132.3989  151.4019 H   0  0  0  0  0  0  0  0  0  0  0  0
  145.3849  133.7207  149.5442 H   0  0  0  0  0  0  0  0  0  0  0  0
  144.3429  133.5209  150.9322 H   0  0  0  0  0  0  0  0  0  0  0  0
  145.9576  136.0281  150.2372 H   0  0  0  0  0  0  0  0  0  0  0  0
  144.2165  135.8607  150.1855 H   0  0  0  0  0  0  0  0  0  0  0  0
  144.1641  135.4431  152.6556 H   0  0  0  0  0  0  0  0  0  0  0  0
  147.0279  135.8363  152.3844 H   0  0  0  0  0  0  0  0  0  0  0  0
  1  2  2  0  0  0  0
  2  3  1  0  0  0  0
  2 10  1  0  0  0  0
  3  4  1  0  0  0  0
  3 20  1  0  0  0  0
  4  9  1  0  0  0  0
  4  5  2  0  0  0  0
  5  6  1  0  0  0  0
  5 21  1  0  0  0  0
  6  7  2  0  0  0  0
  6 22  1  0  0  0  0
  7  8  1  0  0  0  0
  7 23  1  0  0  0  0
  8  9  2  0  0  0  0
  8 24  1  0  0  0  0
 10 11  1  0  0  0  0
 10 25  1  0  0  0  0
 11 19  1  0  0  0  0
 11 12  1  0  0  0  0
 11 26  1  0  0  0  0
 12 13  1  0  0  0  0
 12 27  1  0  0  0  0
 12 28  1  0  0  0  0
 13 14  1  0  0  0  0
 13 29  1  0  0  0  0
 13 30  1  0  0  0  0
 14 19  1  0  0  0  0
 14 15  1  0  0  0  0
 14 40  1  0  0  0  0
 15 16  1  0  0  0  0
 15 31  1  0  0  0  0
 15 32  1  0  0  0  0
 16 17  1  0  0  0  0
 16 33  1  0  0  0  0
 16 34  1  0  0  0  0
 17 18  1  0  0  0  0
 17 35  1  0  0  0  0
 17 36  1  0  0  0  0
 18 19  1  0  0  0  0
 18 37  1  0  0  0  0
 18 38  1  0  0  0  0
 19 39  1  0  0  0  0
M  CHG  1  14   1
M  END
> <s_m_source_file>
AV-unprocessed.smi

> <i_m_source_file_index>
1452

> <i_lp_mmshare_version>
43012

> <i_f3d_flags>
0

> <s_epik_input>
W0NIMl0xW0NIMl1bQ0gyXVtDSDJdW0NASF0oTjEyKVtDQEBIXShbQ0gyXVtDSDJdMilbTkhdQyg9TylbTkhdYzNbY0hdW2NIXVtjSF1bY0hdbjM=

> <s_epik_cmdline>
J2VwaWtfcHl0aG9uJywgJy1waCcsICc3LjAnLCAnLXRuJywgJzgnLCAnLW1hJywgJzIwMCcsICctbWV0YWxfYmluZGluZycsICctaW1hZScsICc8aW5maWxlLm1hZT4nLCAnLW9tYWUnLCAnPG91dGZpbGUubWFlPic=

> <r_epik_Ionization_Penalty>
0.00100813

> <r_epik_Ionization_Penalty_Charging>
0.000974069

> <r_epik_Ionization_Penalty_Neutral>
3.40643e-05

> <r_epik_State_Penalty>
0.000633842

> <r_epik_Charging_Adjusted_Penalty>
0.00160791

> <i_epik_Tot_Q>
1

> <i_epik_Tot_abs_Q>
1

> <r_epik_Metal_State_Penalty>
-0

> <b_epik_Metal_Only>
0

> <s_lp_Force_Field>
OPLS_2005

> <r_lp_Energy>
38.162

> <b_lp_Chiralities_Consistent>
1

> <s_lp_Variant>
AV-unprocessed.smi:1452-8

> <Gold.Version>
5.8.1

> <Gold.Id.Protein>
6NUR|6NUR_protein|mol2

> <Gold.PLP.Fitness>
39.5704

> <Gold.PLP.PLP>
-30.2258

> <Gold.PLP.part.hbond>
-4.6832

> <Gold.PLP.part.metal>
0.0000

> <Gold.PLP.part.buried>
-2.2274

> <Gold.PLP.part.nonpolar>
-25.0634

> <Gold.PLP.part.repulsive>
1.5582

> <Gold.PLP.ligand.clash>
0.0000

> <Gold.PLP.ligand.torsion>
0.1740

> <Gold.PLP.Chemscore.Hbond>
3.2277

> <Gold.PLP.Chemscore.CHOScore>
0.0000

> <Gold.PLP.Chemscore.Metal>
0.0000

> <Gold.Chemscore.Hbonds>
donor molecule, donor type, donor heavy atom, donor atom, acceptor molecule, acceptor atom, score
      L1  H     3    20       P1 10160  0.60
      L1  H    10    25       P1 10171  0.62
      L1  H    14    40       P1  7948  2.00

> <Gold.PLP.Chemscore.Internal.Correction>
0.0096

> <Gold.Rescore>
     Score         DG    S(hbond)    S(metal)    S(lipo)     H(rot)  DE(clash)    DE(int)     intcor
     13.41     -16.76       1.88        0.00      64.59       1.00       0.68       2.67       ----

> <Gold.Chemscore.Fitness>
13.4140

> <Gold.Chemscore.DG>
-16.7642

> <Gold.Chemscore.ZeroCoef>
-5.4800

> <Gold.Chemscore.Hbond>
1.8825

> <Gold.Chemscore.Metal>
0.0000

> <Gold.Chemscore.Lipo>
64.5876

> <Gold.Chemscore.Internal_Hbond>
0.0000

> <Gold.Chemscore.DEClash>
0.6789

> <Gold.Chemscore.DEInternal>
2.6714

> <Gold.Chemscore.Rot>
1.0000

> <Gold.Chemscore.Internal.Correction>
   9.000000E+99

> <Gold.Chemscore.Hbonds>
donor molecule, donor type, donor heavy atom, donor atom, acceptor molecule, acceptor atom, score
      L1  H     3    20       P1 10160  0.58
      L1  H    10    25       P1 10171  0.34
      L1  H    14    40       P1  7948  0.94

> <Gold.Chemscore.Hbond.Weighted>
-6.2875

> <Gold.Chemscore.Metal.Weighted>
-0.0000

> <Gold.Chemscore.Lipo.Weighted>
-7.5568

> <Gold.Chemscore.Internal_Hbond.Weighted>
0.0000

> <Gold.Chemscore.DEClash.Weighted>
0.6789

> <Gold.Chemscore.DEInternal.Weighted>
2.6714

> <Gold.Chemscore.Rot.Weighted>
2.5600

> <Gold.Chemscore.Internal.Correction.Weighted>
   9.000000E+99

> <Gold.Protein.RotatedTorsions>
[ 6907 6896 6895 6894 ] final   43.16 input  -60.11 | X-H torsion
[ 7974 7965 7964 7962 ] final  167.97 input  175.53 | X-H torsion
[ 8008 7997 7996 7995 ] final  -13.76 input   59.86 | X-H torsion
[ 10167 10162 10161 10158 ] final   99.08 input  -65.29 | X-H torsion
[ 10718 10713 10712 10709 ] final   59.57 input   66.30 | X-H torsion
[ 10763 10752 10751 10750 ] final  102.38 input  -60.55 | X-H torsion
[ 11005 11000 10999 10996 ] final   72.18 input  -57.11 | X-H torsion

> <Gold.Protein.ActiveResidues>
 VAL166  LYS551  ARG553  GLY616  TRP617  ASP618  TYR619  PRO620  LYS621  CYS622 
 ASP623  PHE694  ASN695  SER759  ASP760  ASP761  ALA762  ILE779  LEU786  VAL792 
 PHE793  MET794  SER795  GLU796  ALA797  LYS798  CYS799  TRP800  GLU811  SER814 

> <Gold.Protein.RotatedAtoms>
  152.2168  134.8450  160.0490 H   0  0  0  0  0  0  0  0  0  0  0  0  # atno 6907 bound_to 6896
  151.9248  133.3590  159.3918 H   0  0  0  0  0  0  0  0  0  0  0  0  # atno 6908 bound_to 6896
  150.6990  134.4522  159.5386 H   0  0  0  0  0  0  0  0  0  0  0  0  # atno 6909 bound_to 6896
  144.7405  139.8839  143.6398 H   0  0  0  0  0  0  0  0  0  0  0  0  # atno 7974 bound_to 7965
  154.5266  140.2241  155.8879 H   0  0  0  0  0  0  0  0  0  0  0  0  # atno 8008 bound_to 7997
  156.1719  140.3120  155.8954 H   0  0  0  0  0  0  0  0  0  0  0  0  # atno 8009 bound_to 7997
  155.3539  140.0457  157.3037 H   0  0  0  0  0  0  0  0  0  0  0  0  # atno 8010 bound_to 7997
  139.7649  144.6942  151.0238 H   0  0  0  0  0  0  0  0  0  0  0  0  # atno 10167 bound_to 10162
  157.5685  130.8890  149.9228 H   0  0  0  0  0  0  0  0  0  0  0  0  # atno 10718 bound_to 10713
  153.3388  135.4012  155.1555 H   0  0  0  0  0  0  0  0  0  0  0  0  # atno 10763 bound_to 10752
  154.8639  135.3628  154.5373 H   0  0  0  0  0  0  0  0  0  0  0  0  # atno 10764 bound_to 10752
  153.5816  135.7076  153.5520 H   0  0  0  0  0  0  0  0  0  0  0  0  # atno 10765 bound_to 10752
  139.9504  134.7237  156.0876 H   0  0  0  0  0  0  0  0  0  0  0  0  # atno 11005 bound_to 11000
  146.1191  139.4206  143.0239 LP  0  0  0  0  0  0  0  0  0  0  0  0  # atno 17320 bound_to 7965
  145.7331  141.0035  143.1341 LP  0  0  0  0  0  0  0  0  0  0  0  0  # atno 17321 bound_to 7965
  140.7810  143.4654  151.0220 LP  0  0  0  0  0  0  0  0  0  0  0  0  # atno 17342 bound_to 10162
  139.8339  143.7654  152.3180 LP  0  0  0  0  0  0  0  0  0  0  0  0  # atno 17343 bound_to 10162
  156.0732  130.3682  150.0732 LP  0  0  0  0  0  0  0  0  0  0  0  0  # atno 17370 bound_to 10713
  156.8887  130.9581  151.3591 LP  0  0  0  0  0  0  0  0  0  0  0  0  # atno 17371 bound_to 10713
  141.1165  133.6626  156.3108 LP  0  0  0  0  0  0  0  0  0  0  0  0  # atno 17394 bound_to 11000
  140.5733  134.5819  157.5462 LP  0  0  0  0  0  0  0  0  0  0  0  0  # atno 17395 bound_to 11000

$$$$
