AV-unprocessed.smi:3064|AV-procd|sdf|11688|dock7
  -GOLD-   2272017 93D 1   1.00000     0.00000
 Structure written by MMmdl.
 22 23  0  0  0  0  0  0  0  0  2 V2000
  153.8112  140.6938  160.4389 C   0  0  0  0  0  0  0  0  0  0  0  0
  153.6888  142.0364  160.6915 C   0  0  0  0  0  0  0  0  0  0  0  0
  152.4377  142.7641  159.7218 S   0  0  0  0  0  0  0  0  0  0  0  0
  152.1117  141.1871  159.0095 C   0  0  0  0  0  0  0  0  0  0  0  0
  151.0830  140.9752  157.9450 C   0  0  1  0  0  0  0  0  0  0  0  0
  150.3495  142.2766  157.5698 C   0  0  0  0  0  0  0  0  0  0  0  0
  149.4096  142.0219  156.4611 N   0  3  0  0  0  0  0  0  0  0  0  0
  150.0916  141.4101  155.3035 C   0  0  0  0  0  0  0  0  0  0  0  0
  150.8480  140.1430  155.7409 C   0  0  0  0  0  0  0  0  0  0  0  0
  151.7513  140.4597  156.7954 O   0  0  0  0  0  0  0  0  0  0  0  0
  152.9171  140.2255  159.4731 N   0  0  0  0  0  0  0  0  0  0  0  0
  154.5046  140.0018  160.8938 H   0  0  0  0  0  0  0  0  0  0  0  0
  154.2579  142.6388  161.3842 H   0  0  0  0  0  0  0  0  0  0  0  0
  150.3696  140.2335  158.3088 H   0  0  0  0  0  0  0  0  0  0  0  0
  149.8011  142.6724  158.4250 H   0  0  0  0  0  0  0  0  0  0  0  0
  151.0636  143.0419  157.2620 H   0  0  0  0  0  0  0  0  0  0  0  0
  148.6909  141.3899  156.7846 H   0  0  0  0  0  0  0  0  0  0  0  0
  149.3562  141.1723  154.5348 H   0  0  0  0  0  0  0  0  0  0  0  0
  150.7848  142.1337  154.8727 H   0  0  0  0  0  0  0  0  0  0  0  0
  150.1529  139.3667  156.0650 H   0  0  0  0  0  0  0  0  0  0  0  0
  151.4125  139.7339  154.9029 H   0  0  0  0  0  0  0  0  0  0  0  0
  148.9802  142.8913  156.1776 H   0  0  0  0  0  0  0  0  0  0  0  0
  1 11  1  0  0  0  0
  1  2  2  0  0  0  0
  1 12  1  0  0  0  0
  2  3  1  0  0  0  0
  2 13  1  0  0  0  0
  3  4  1  0  0  0  0
  4  5  1  0  0  0  0
  4 11  2  0  0  0  0
  5 10  1  0  0  0  0
  5  6  1  0  0  0  0
  5 14  1  0  0  0  0
  6  7  1  0  0  0  0
  6 15  1  0  0  0  0
  6 16  1  0  0  0  0
  7  8  1  0  0  0  0
  7 17  1  0  0  0  0
  7 22  1  0  0  0  0
  8  9  1  0  0  0  0
  8 18  1  0  0  0  0
  8 19  1  0  0  0  0
  9 10  1  0  0  0  0
  9 20  1  0  0  0  0
  9 21  1  0  0  0  0
M  CHG  1   7   1
M  END
> <s_m_source_file>
AV-unprocessed.smi

> <i_m_source_file_index>
3064

> <i_lp_mmshare_version>
43012

> <i_f3d_flags>
0

> <s_epik_input>
bjFbY0hdW2NIXXNjMVtDQEBIXTJbQ0gyXVtOSF1bQ0gyXVtDSDJdTzI=

> <s_epik_cmdline>
J2VwaWtfcHl0aG9uJywgJy1waCcsICc3LjAnLCAnLXRuJywgJzgnLCAnLW1hJywgJzIwMCcsICctbWV0YWxfYmluZGluZycsICctaW1hZScsICc8aW5maWxlLm1hZT4nLCAnLW9tYWUnLCAnPG91dGZpbGUubWFlPic=

> <r_epik_Ionization_Penalty>
0.125708

> <r_epik_Ionization_Penalty_Charging>
0.125708

> <r_epik_Ionization_Penalty_Neutral>
1.25617e-07

> <r_epik_State_Penalty>
0.115169

> <r_epik_Charging_Adjusted_Penalty>
0.240877

> <i_epik_Tot_Q>
1

> <i_epik_Tot_abs_Q>
1

> <r_epik_Metal_State_Penalty>
0.115249

> <b_epik_Metal_Only>
0

> <s_lp_Force_Field>
OPLS_2005

> <r_lp_Energy>
7.58409

> <b_lp_Chiralities_Consistent>
1

> <s_lp_Variant>
AV-unprocessed.smi:3064-2

> <Gold.Version>
5.8.1

> <Gold.Id.Protein>
6NUR|6NUR_protein|mol2

> <Gold.PLP.Fitness>
29.8455

> <Gold.PLP.PLP>
-23.8519

> <Gold.PLP.part.hbond>
-1.0000

> <Gold.PLP.part.metal>
0.0000

> <Gold.PLP.part.buried>
-2.6316

> <Gold.PLP.part.nonpolar>
-19.4175

> <Gold.PLP.part.repulsive>
0.0438

> <Gold.PLP.ligand.clash>
0.0000

> <Gold.PLP.ligand.torsion>
0.0088

> <Gold.PLP.Chemscore.Hbond>
2.0000

> <Gold.PLP.Chemscore.CHOScore>
0.0000

> <Gold.PLP.Chemscore.Metal>
0.0000

> <Gold.Chemscore.Hbonds>
donor molecule, donor type, donor heavy atom, donor atom, acceptor molecule, acceptor atom, score
      L1  H     7    22       P1  8028  2.00

> <Gold.PLP.Chemscore.Internal.Correction>
0.0112

> <Gold.Rescore>
     Score         DG    S(hbond)    S(metal)    S(lipo)     H(rot)  DE(clash)    DE(int)     intcor
     14.04     -14.05       1.00        0.00      66.70       1.00       0.00       0.01       ----

> <Gold.Chemscore.Fitness>
14.0420

> <Gold.Chemscore.DG>
-14.0506

> <Gold.Chemscore.ZeroCoef>
-5.4800

> <Gold.Chemscore.Hbond>
0.9961

> <Gold.Chemscore.Metal>
0.0000

> <Gold.Chemscore.Lipo>
66.6974

> <Gold.Chemscore.Internal_Hbond>
0.0000

> <Gold.Chemscore.DEClash>
0.0025

> <Gold.Chemscore.DEInternal>
0.0060

> <Gold.Chemscore.Rot>
1.0000

> <Gold.Chemscore.Internal.Correction>
   9.000000E+99

> <Gold.Chemscore.Hbonds>
donor molecule, donor type, donor heavy atom, donor atom, acceptor molecule, acceptor atom, score
      L1  H     7    22       P1  8028  0.99

> <Gold.Chemscore.Hbond.Weighted>
-3.3270

> <Gold.Chemscore.Metal.Weighted>
-0.0000

> <Gold.Chemscore.Lipo.Weighted>
-7.8036

> <Gold.Chemscore.Internal_Hbond.Weighted>
0.0000

> <Gold.Chemscore.DEClash.Weighted>
0.0025

> <Gold.Chemscore.DEInternal.Weighted>
0.0060

> <Gold.Chemscore.Rot.Weighted>
2.5600

> <Gold.Chemscore.Internal.Correction.Weighted>
   9.000000E+99

> <Gold.Protein.RotatedTorsions>
[ 6907 6896 6895 6894 ] final  -97.84 input  -60.11 | X-H torsion
[ 7974 7965 7964 7962 ] final   46.40 input  175.53 | X-H torsion
[ 8008 7997 7996 7995 ] final  120.44 input   59.86 | X-H torsion
[ 10167 10162 10161 10158 ] final  -55.12 input  -65.29 | X-H torsion
[ 10718 10713 10712 10709 ] final  105.80 input   66.30 | X-H torsion
[ 10763 10752 10751 10750 ] final   -6.06 input  -60.55 | X-H torsion
[ 11005 11000 10999 10996 ] final -117.12 input  -57.11 | X-H torsion

> <Gold.Protein.ActiveResidues>
 VAL166  LYS551  ARG553  GLY616  TRP617  ASP618  TYR619  PRO620  LYS621  CYS622 
 ASP623  PHE694  ASN695  SER759  ASP760  ASP761  ALA762  ILE779  LEU786  VAL792 
 PHE793  MET794  SER795  GLU796  ALA797  LYS798  CYS799  TRP800  GLU811  SER814 

> <Gold.Protein.RotatedAtoms>
  150.7028  134.1286  159.4060 H   0  0  0  0  0  0  0  0  0  0  0  0  # atno 6907 bound_to 6896
  151.9272  135.0270  160.0536 H   0  0  0  0  0  0  0  0  0  0  0  0  # atno 6908 bound_to 6896
  152.2206  133.4946  159.5197 H   0  0  0  0  0  0  0  0  0  0  0  0  # atno 6909 bound_to 6896
  146.0393  139.4860  142.9788 H   0  0  0  0  0  0  0  0  0  0  0  0  # atno 7974 bound_to 7965
  156.2642  140.2830  156.1150 H   0  0  0  0  0  0  0  0  0  0  0  0  # atno 8008 bound_to 7997
  155.1216  140.0392  157.2769 H   0  0  0  0  0  0  0  0  0  0  0  0  # atno 8009 bound_to 7997
  154.6666  140.2578  155.7058 H   0  0  0  0  0  0  0  0  0  0  0  0  # atno 8010 bound_to 7997
  140.6392  143.2498  151.5035 H   0  0  0  0  0  0  0  0  0  0  0  0  # atno 10167 bound_to 10162
  157.6692  131.0836  150.5911 H   0  0  0  0  0  0  0  0  0  0  0  0  # atno 10718 bound_to 10713
  153.4071  135.7006  153.6385 H   0  0  0  0  0  0  0  0  0  0  0  0  # atno 10763 bound_to 10752
  153.4894  135.3676  155.2484 H   0  0  0  0  0  0  0  0  0  0  0  0  # atno 10764 bound_to 10752
  154.8714  135.4085  154.3417 H   0  0  0  0  0  0  0  0  0  0  0  0  # atno 10765 bound_to 10752
  141.0376  133.9886  157.3046 H   0  0  0  0  0  0  0  0  0  0  0  0  # atno 11005 bound_to 11000
  145.6910  141.0164  143.1555 LP  0  0  0  0  0  0  0  0  0  0  0  0  # atno 17320 bound_to 7965
  144.7067  139.8533  143.7428 LP  0  0  0  0  0  0  0  0  0  0  0  0  # atno 17321 bound_to 7965
  139.5602  144.2176  152.1678 LP  0  0  0  0  0  0  0  0  0  0  0  0  # atno 17342 bound_to 10162
  140.1442  144.5174  150.6726 LP  0  0  0  0  0  0  0  0  0  0  0  0  # atno 17343 bound_to 10162
  156.6211  130.4406  149.5822 LP  0  0  0  0  0  0  0  0  0  0  0  0  # atno 17370 bound_to 10713
  156.2355  130.6820  151.1505 LP  0  0  0  0  0  0  0  0  0  0  0  0  # atno 17371 bound_to 10713
  139.9252  135.0201  156.8208 LP  0  0  0  0  0  0  0  0  0  0  0  0  # atno 17394 bound_to 11000
  140.6294  133.9920  155.7655 LP  0  0  0  0  0  0  0  0  0  0  0  0  # atno 17395 bound_to 11000

$$$$
