AV-unprocessed.smi:3318|AV-procd|sdf|12764|dock4
  -GOLD-   2272019103D 1   1.00000     0.00000
 Structure written by MMmdl.
 44 45  0  0  0  0  0  0  0  0  2 V2000
  152.0542  140.9051  159.0987 C   0  0  0  0  0  0  0  0  0  0  0  0
  151.1839  140.5282  157.8925 C   0  0  0  0  0  0  0  0  0  0  0  0
  151.5566  141.2968  156.6096 C   0  0  0  0  0  0  0  0  0  0  0  0
  150.8553  140.8033  155.4233 N   0  0  0  0  0  0  0  0  0  0  0  0
  149.4127  140.9388  155.6370 C   0  0  0  0  0  0  0  0  0  0  0  0
  148.6448  140.5285  154.3688 C   0  0  0  0  0  0  0  0  0  0  0  0
  148.9572  139.0763  153.9795 C   0  0  0  0  0  0  0  0  0  0  0  0
  148.2775  138.7328  152.7109 N   0  3  0  0  0  0  0  0  0  0  0  0
  146.8569  138.3473  152.8402 C   0  0  0  0  0  0  0  0  0  0  0  0
  146.2837  137.9050  151.4868 C   0  0  0  0  0  0  0  0  0  0  0  0
  145.8716  136.4449  151.4852 C   0  0  0  0  0  0  0  0  0  0  0  0
  146.3531  135.5602  150.4966 C   0  0  0  0  0  0  0  0  0  0  0  0
  145.9369  134.2152  150.5403 C   0  0  0  0  0  0  0  0  0  0  0  0
  145.0593  133.8098  151.5642 C   0  0  0  0  0  0  0  0  0  0  0  0
  144.6353  134.7707  152.5035 C   0  0  0  0  0  0  0  0  0  0  0  0
  145.0280  136.0629  152.4704 N   0  0  0  0  0  0  0  0  0  0  0  0
  150.4841  138.9138  153.8778 C   0  0  0  0  0  0  0  0  0  0  0  0
  151.1796  139.3967  155.1630 C   0  0  0  0  0  0  0  0  0  0  0  0
  151.7226  140.3803  159.9949 H   0  0  0  0  0  0  0  0  0  0  0  0
  152.0038  141.9750  159.3023 H   0  0  0  0  0  0  0  0  0  0  0  0
  153.0994  140.6438  158.9312 H   0  0  0  0  0  0  0  0  0  0  0  0
  151.2127  139.4508  157.7355 H   0  0  0  0  0  0  0  0  0  0  0  0
  150.1462  140.7572  158.1364 H   0  0  0  0  0  0  0  0  0  0  0  0
  151.3628  142.3632  156.7362 H   0  0  0  0  0  0  0  0  0  0  0  0
  152.6331  141.1965  156.4627 H   0  0  0  0  0  0  0  0  0  0  0  0
  149.0976  140.3331  156.4883 H   0  0  0  0  0  0  0  0  0  0  0  0
  149.1728  141.9759  155.8762 H   0  0  0  0  0  0  0  0  0  0  0  0
  147.5736  140.6484  154.5351 H   0  0  0  0  0  0  0  0  0  0  0  0
  148.9088  141.2025  153.5521 H   0  0  0  0  0  0  0  0  0  0  0  0
  148.5758  138.4231  154.7658 H   0  0  0  0  0  0  0  0  0  0  0  0
  148.3154  139.5468  152.1141 H   0  0  0  0  0  0  0  0  0  0  0  0
  146.7602  137.5370  153.5628 H   0  0  0  0  0  0  0  0  0  0  0  0
  146.2863  139.1941  153.2240 H   0  0  0  0  0  0  0  0  0  0  0  0
  145.4210  138.5205  151.2277 H   0  0  0  0  0  0  0  0  0  0  0  0
  147.0208  138.0630  150.6980 H   0  0  0  0  0  0  0  0  0  0  0  0
  147.0251  135.9001  149.7222 H   0  0  0  0  0  0  0  0  0  0  0  0
  146.2848  133.5075  149.8022 H   0  0  0  0  0  0  0  0  0  0  0  0
  144.7196  132.7865  151.6287 H   0  0  0  0  0  0  0  0  0  0  0  0
  143.9621  134.4944  153.3016 H   0  0  0  0  0  0  0  0  0  0  0  0
  150.7481  137.8707  153.7036 H   0  0  0  0  0  0  0  0  0  0  0  0
  150.8661  139.4770  153.0247 H   0  0  0  0  0  0  0  0  0  0  0  0
  152.2541  139.2689  155.0413 H   0  0  0  0  0  0  0  0  0  0  0  0
  150.8796  138.7783  156.0108 H   0  0  0  0  0  0  0  0  0  0  0  0
  148.7856  137.9838  152.2625 H   0  0  0  0  0  0  0  0  0  0  0  0
  1  2  1  0  0  0  0
  1 19  1  0  0  0  0
  1 20  1  0  0  0  0
  1 21  1  0  0  0  0
  2  3  1  0  0  0  0
  2 22  1  0  0  0  0
  2 23  1  0  0  0  0
  3  4  1  0  0  0  0
  3 24  1  0  0  0  0
  3 25  1  0  0  0  0
  4 18  1  0  0  0  0
  4  5  1  0  0  0  0
  5  6  1  0  0  0  0
  5 26  1  0  0  0  0
  5 27  1  0  0  0  0
  6  7  1  0  0  0  0
  6 28  1  0  0  0  0
  6 29  1  0  0  0  0
  7  8  1  0  0  0  0
  7 17  1  0  0  0  0
  7 30  1  0  0  0  0
  8  9  1  0  0  0  0
  8 31  1  0  0  0  0
  8 44  1  0  0  0  0
  9 10  1  0  0  0  0
  9 32  1  0  0  0  0
  9 33  1  0  0  0  0
 10 11  1  0  0  0  0
 10 34  1  0  0  0  0
 10 35  1  0  0  0  0
 11 16  1  0  0  0  0
 11 12  2  0  0  0  0
 12 13  1  0  0  0  0
 12 36  1  0  0  0  0
 13 14  2  0  0  0  0
 13 37  1  0  0  0  0
 14 15  1  0  0  0  0
 14 38  1  0  0  0  0
 15 16  2  0  0  0  0
 15 39  1  0  0  0  0
 17 18  1  0  0  0  0
 17 40  1  0  0  0  0
 17 41  1  0  0  0  0
 18 42  1  0  0  0  0
 18 43  1  0  0  0  0
M  CHG  1   8   1
M  END
> <s_m_source_file>
AV-unprocessed.smi

> <i_m_source_file_index>
3318

> <i_lp_mmshare_version>
43012

> <i_f3d_flags>
0

> <s_epik_input>
W0NIM11bQ0gyXVtDSDJdTjFbQ0gyXVtDSDJdW0NIXShbQ0gyXVtDSDJdMSlbTkhdW0NIMl1bQ0gyXWMyW2NIXVtjSF1bY0hdW2NIXW4y

> <s_epik_cmdline>
J2VwaWtfcHl0aG9uJywgJy1waCcsICc3LjAnLCAnLXRuJywgJzgnLCAnLW1hJywgJzIwMCcsICctbWV0YWxfYmluZGluZycsICctaW1hZScsICc8aW5maWxlLm1hZT4nLCAnLW9tYWUnLCAnPG91dGZpbGUubWFlPic=

> <r_epik_Ionization_Penalty>
1.50803

> <r_epik_Ionization_Penalty_Charging>
0.000531593

> <r_epik_Ionization_Penalty_Neutral>
1.5075

> <r_epik_State_Penalty>
1.60727

> <r_epik_Charging_Adjusted_Penalty>
1.6078

> <i_epik_Tot_Q>
1

> <i_epik_Tot_abs_Q>
1

> <r_epik_Metal_State_Penalty>
1.6087

> <b_epik_Metal_Only>
0

> <s_lp_Force_Field>
OPLS_2005

> <r_lp_Energy>
19.6285

> <b_lp_Chiralities_Consistent>
1

> <s_lp_Variant>
AV-unprocessed.smi:3318-3

> <Gold.Version>
5.8.1

> <Gold.Id.Protein>
6NUR|6NUR_protein|mol2

> <Gold.PLP.Fitness>
45.5287

> <Gold.PLP.PLP>
-35.0411

> <Gold.PLP.part.hbond>
-2.8121

> <Gold.PLP.part.metal>
0.0000

> <Gold.PLP.part.buried>
-0.3079

> <Gold.PLP.part.nonpolar>
-32.2808

> <Gold.PLP.part.repulsive>
0.2970

> <Gold.PLP.ligand.clash>
0.0000

> <Gold.PLP.ligand.torsion>
0.6700

> <Gold.PLP.Chemscore.Hbond>
3.9280

> <Gold.PLP.Chemscore.CHOScore>
0.0000

> <Gold.PLP.Chemscore.Metal>
0.0000

> <Gold.Chemscore.Hbonds>
donor molecule, donor type, donor heavy atom, donor atom, acceptor molecule, acceptor atom, score
      L1  H     8    31       P1  7957  0.54
      L1  H     8    44       P1  7948  2.00

> <Gold.PLP.Chemscore.Internal.Correction>
0.0435

> <Gold.Rescore>
     Score         DG    S(hbond)    S(metal)    S(lipo)     H(rot)  DE(clash)    DE(int)     intcor
     16.02     -18.39       1.69        0.00      94.55       1.48       1.27       1.10       ----

> <Gold.Chemscore.Fitness>
16.0226

> <Gold.Chemscore.DG>
-18.3879

> <Gold.Chemscore.ZeroCoef>
-5.4800

> <Gold.Chemscore.Hbond>
1.6899

> <Gold.Chemscore.Metal>
0.0000

> <Gold.Chemscore.Lipo>
94.5525

> <Gold.Chemscore.Internal_Hbond>
0.0000

> <Gold.Chemscore.DEClash>
1.2687

> <Gold.Chemscore.DEInternal>
1.0966

> <Gold.Chemscore.Rot>
1.4840

> <Gold.Chemscore.Internal.Correction>
   9.000000E+99

> <Gold.Chemscore.Hbonds>
donor molecule, donor type, donor heavy atom, donor atom, acceptor molecule, acceptor atom, score
      L1  H     8    31       P1  7957  0.54
      L1  H     8    44       P1  7948  0.96

> <Gold.Chemscore.Hbond.Weighted>
-5.6444

> <Gold.Chemscore.Metal.Weighted>
-0.0000

> <Gold.Chemscore.Lipo.Weighted>
-11.0626

> <Gold.Chemscore.Internal_Hbond.Weighted>
0.0000

> <Gold.Chemscore.DEClash.Weighted>
1.2687

> <Gold.Chemscore.DEInternal.Weighted>
1.0966

> <Gold.Chemscore.Rot.Weighted>
3.7991

> <Gold.Chemscore.Internal.Correction.Weighted>
   9.000000E+99

> <Gold.Protein.RotatedTorsions>
[ 6907 6896 6895 6894 ] final  175.85 input  -60.11 | X-H torsion
[ 7974 7965 7964 7962 ] final  -79.91 input  175.53 | X-H torsion
[ 8008 7997 7996 7995 ] final  -41.67 input   59.86 | X-H torsion
[ 10167 10162 10161 10158 ] final   95.07 input  -65.29 | X-H torsion
[ 10718 10713 10712 10709 ] final  -34.47 input   66.30 | X-H torsion
[ 10763 10752 10751 10750 ] final   97.82 input  -60.55 | X-H torsion
[ 11005 11000 10999 10996 ] final   55.40 input  -57.11 | X-H torsion

> <Gold.Protein.ActiveResidues>
 VAL166  LYS551  ARG553  GLY616  TRP617  ASP618  TYR619  PRO620  LYS621  CYS622 
 ASP623  PHE694  ASN695  SER759  ASP760  ASP761  ALA762  ILE779  LEU786  VAL792 
 PHE793  MET794  SER795  GLU796  ALA797  LYS798  CYS799  TRP800  GLU811  SER814 

> <Gold.Protein.RotatedAtoms>
  151.7295  133.3317  159.3336 H   0  0  0  0  0  0  0  0  0  0  0  0  # atno 6907 bound_to 6896
  150.7618  134.6376  159.6229 H   0  0  0  0  0  0  0  0  0  0  0  0  # atno 6908 bound_to 6896
  152.3601  134.6887  160.0261 H   0  0  0  0  0  0  0  0  0  0  0  0  # atno 6909 bound_to 6896
  145.5670  140.9472  143.1416 H   0  0  0  0  0  0  0  0  0  0  0  0  # atno 7974 bound_to 7965
  154.4003  140.1493  156.3228 H   0  0  0  0  0  0  0  0  0  0  0  0  # atno 8008 bound_to 7997
  155.8514  140.3457  155.5674 H   0  0  0  0  0  0  0  0  0  0  0  0  # atno 8009 bound_to 7997
  155.7980  140.0866  157.1963 H   0  0  0  0  0  0  0  0  0  0  0  0  # atno 8010 bound_to 7997
  139.8023  144.6808  150.9749 H   0  0  0  0  0  0  0  0  0  0  0  0  # atno 10167 bound_to 10162
  156.3502  130.4307  149.7711 H   0  0  0  0  0  0  0  0  0  0  0  0  # atno 10718 bound_to 10713
  153.2816  135.4170  155.1084 H   0  0  0  0  0  0  0  0  0  0  0  0  # atno 10763 bound_to 10752
  154.8491  135.3496  154.6104 H   0  0  0  0  0  0  0  0  0  0  0  0  # atno 10764 bound_to 10752
  153.6525  135.7052  153.5262 H   0  0  0  0  0  0  0  0  0  0  0  0  # atno 10765 bound_to 10752
  140.0610  134.5602  155.9152 H   0  0  0  0  0  0  0  0  0  0  0  0  # atno 11005 bound_to 11000
  144.7456  139.7330  143.7294 LP  0  0  0  0  0  0  0  0  0  0  0  0  # atno 17320 bound_to 7965
  146.1811  139.5004  142.9866 LP  0  0  0  0  0  0  0  0  0  0  0  0  # atno 17321 bound_to 7965
  140.7820  143.4269  151.0755 LP  0  0  0  0  0  0  0  0  0  0  0  0  # atno 17342 bound_to 10162
  139.7940  143.8178  152.3155 LP  0  0  0  0  0  0  0  0  0  0  0  0  # atno 17343 bound_to 10162
  156.4915  130.8087  151.3096 LP  0  0  0  0  0  0  0  0  0  0  0  0  # atno 17370 bound_to 10713
  157.7460  130.9974  150.2814 LP  0  0  0  0  0  0  0  0  0  0  0  0  # atno 17371 bound_to 10713
  141.1973  133.6596  156.5735 LP  0  0  0  0  0  0  0  0  0  0  0  0  # atno 17394 bound_to 11000
  140.3770  134.7556  157.4636 LP  0  0  0  0  0  0  0  0  0  0  0  0  # atno 17395 bound_to 11000

$$$$
