AV-unprocessed.smi:1677|AV-procd|sdf|6727|dock5
  -GOLD-   22720 7473D 1   1.00000     0.00000
 Structure written by MMmdl.
 36 37  0  0  0  0  0  0  0  0  1 V2000
  147.5910  141.4711  155.0767 C   0  0  0  0  0  0  0  0  0  0  0  0
  148.9626  140.9356  155.5196 C   0  0  1  0  0  0  0  0  0  0  0  0
  149.9323  140.6940  154.3427 C   0  0  0  0  0  0  0  0  0  0  0  0
  150.8015  139.5524  154.5568 N   0  0  0  0  0  0  0  0  0  0  0  0
  151.7531  139.4027  155.5569 C   0  0  0  0  0  0  0  0  0  0  0  0
  152.3331  138.1689  155.3662 C   0  0  0  0  0  0  0  0  0  0  0  0
  151.7591  137.5470  154.2597 N   0  0  0  0  0  0  0  0  0  0  0  0
  150.8636  138.4272  153.8311 C   0  0  0  0  0  0  0  0  0  0  0  0
  149.5537  141.8709  156.4718 N   0  0  0  0  0  0  0  0  0  0  0  0
  150.2775  141.5320  157.5503 C   0  0  0  0  0  0  0  0  0  0  0  0
  150.5368  140.3664  157.8511 O   0  0  0  0  0  0  0  0  0  0  0  0
  150.7900  142.6885  158.4189 C   0  0  1  0  0  0  0  0  0  0  0  0
  151.7562  142.1782  159.5119 C   0  0  0  0  0  0  0  0  0  0  0  0
  152.4638  143.3166  160.2257 C   0  0  0  0  0  0  0  0  0  0  0  0
  152.5159  144.5709  159.7456 C   0  0  0  0  0  0  0  0  0  0  0  0
  151.8788  144.9906  158.4325 C   0  0  0  0  0  0  0  0  0  0  0  0
  151.4695  143.7815  157.5692 C   0  0  0  0  0  0  0  0  0  0  0  0
  147.0723  140.7602  154.4334 H   0  0  0  0  0  0  0  0  0  0  0  0
  147.6891  142.4081  154.5275 H   0  0  0  0  0  0  0  0  0  0  0  0
  146.9468  141.6554  155.9371 H   0  0  0  0  0  0  0  0  0  0  0  0
  148.7898  139.9845  156.0272 H   0  0  0  0  0  0  0  0  0  0  0  0
  149.3750  140.5373  153.4179 H   0  0  0  0  0  0  0  0  0  0  0  0
  150.5624  141.5699  154.1820 H   0  0  0  0  0  0  0  0  0  0  0  0
  151.9320  140.1651  156.3010 H   0  0  0  0  0  0  0  0  0  0  0  0
  153.1134  137.6852  155.9353 H   0  0  0  0  0  0  0  0  0  0  0  0
  150.2339  138.2468  152.9722 H   0  0  0  0  0  0  0  0  0  0  0  0
  149.3945  142.8532  156.3011 H   0  0  0  0  0  0  0  0  0  0  0  0
  149.9317  143.1466  158.9144 H   0  0  0  0  0  0  0  0  0  0  0  0
  151.2035  141.5956  160.2499 H   0  0  0  0  0  0  0  0  0  0  0  0
  152.5178  141.5191  159.0927 H   0  0  0  0  0  0  0  0  0  0  0  0
  152.9522  143.0780  161.1592 H   0  0  0  0  0  0  0  0  0  0  0  0
  153.0234  145.3404  160.3087 H   0  0  0  0  0  0  0  0  0  0  0  0
  151.0062  145.6030  158.6618 H   0  0  0  0  0  0  0  0  0  0  0  0
  152.5746  145.6226  157.8803 H   0  0  0  0  0  0  0  0  0  0  0  0
  152.3599  143.3698  157.0905 H   0  0  0  0  0  0  0  0  0  0  0  0
  150.8126  144.1114  156.7632 H   0  0  0  0  0  0  0  0  0  0  0  0
  1  2  1  0  0  0  0
  1 18  1  0  0  0  0
  1 19  1  0  0  0  0
  1 20  1  0  0  0  0
  2  3  1  0  0  0  0
  2  9  1  0  0  0  0
  2 21  1  0  0  0  0
  3  4  1  0  0  0  0
  3 22  1  0  0  0  0
  3 23  1  0  0  0  0
  4  8  1  0  0  0  0
  4  5  1  0  0  0  0
  5  6  2  0  0  0  0
  5 24  1  0  0  0  0
  6  7  1  0  0  0  0
  6 25  1  0  0  0  0
  7  8  2  0  0  0  0
  8 26  1  0  0  0  0
  9 10  1  0  0  0  0
  9 27  1  0  0  0  0
 10 11  2  0  0  0  0
 10 12  1  0  0  0  0
 12 17  1  0  0  0  0
 12 13  1  0  0  0  0
 12 28  1  0  0  0  0
 13 14  1  0  0  0  0
 13 29  1  0  0  0  0
 13 30  1  0  0  0  0
 14 15  2  0  0  0  0
 14 31  1  0  0  0  0
 15 16  1  0  0  0  0
 15 32  1  0  0  0  0
 16 17  1  0  0  0  0
 16 33  1  0  0  0  0
 16 34  1  0  0  0  0
 17 35  1  0  0  0  0
 17 36  1  0  0  0  0
M  END
> <s_m_source_file>
AV-unprocessed.smi

> <i_m_source_file_index>
1677

> <i_lp_mmshare_version>
43012

> <i_f3d_flags>
0

> <s_epik_input>
W2NIXTFuW2NIXVtjSF1uMVtDSDJdW0NAQEhdKFtDSDNdKVtOSF1DKD1PKVtDQEBIXTJbQ0gyXVtDSF09W0NIXVtDSDJdW0NIMl0y

> <s_epik_cmdline>
J2VwaWtfcHl0aG9uJywgJy1waCcsICc3LjAnLCAnLXRuJywgJzgnLCAnLW1hJywgJzIwMCcsICctbWV0YWxfYmluZGluZycsICctaW1hZScsICc8aW5maWxlLm1hZT4nLCAnLW9tYWUnLCAnPG91dGZpbGUubWFlPic=

> <r_lp_tautomer_probability>
1

> <r_epik_Ionization_Penalty>
0.640435

> <r_epik_Ionization_Penalty_Charging>
0.640435

> <r_epik_Ionization_Penalty_Neutral>
2.11108e-08

> <r_epik_State_Penalty>
0.658069

> <r_epik_Charging_Adjusted_Penalty>
1.2985

> <i_epik_Tot_Q>
0

> <i_epik_Tot_abs_Q>
0

> <r_epik_Metal_State_Penalty>
0.311689

> <b_epik_Metal_Only>
0

> <s_lp_Force_Field>
OPLS_2005

> <r_lp_Energy>
10.2331

> <b_lp_Chiralities_Consistent>
1

> <s_lp_Variant>
AV-unprocessed.smi:1677-8

> <Gold.Version>
5.8.1

> <Gold.Id.Protein>
6NUR|6NUR_protein|mol2

> <Gold.PLP.Fitness>
42.9527

> <Gold.PLP.PLP>
-35.4971

> <Gold.PLP.part.hbond>
-1.5920

> <Gold.PLP.part.metal>
0.0000

> <Gold.PLP.part.buried>
-1.1633

> <Gold.PLP.part.nonpolar>
-33.3385

> <Gold.PLP.part.repulsive>
0.2190

> <Gold.PLP.ligand.clash>
0.0000

> <Gold.PLP.ligand.torsion>
0.9564

> <Gold.PLP.Chemscore.Hbond>
1.5113

> <Gold.PLP.Chemscore.CHOScore>
1.5963

> <Gold.PLP.Chemscore.Metal>
0.0000

> <Gold.Chemscore.Hbonds>
donor molecule, donor type, donor heavy atom, donor atom, acceptor molecule, acceptor atom, score
      L1  H     9    27       P1  8028  0.98
      P1  H 10752 10763       L1     7  0.53
      L1  C     8    26       P1  7948  0.81
      L1  C     8    26       P1  7949  0.04
      L1  C     8    26       P1  7957  0.74

> <Gold.PLP.Chemscore.Internal.Correction>
0.0458

> <Gold.Rescore>
     Score         DG    S(hbond)    S(metal)    S(lipo)     H(rot)  DE(clash)    DE(int)     intcor
     13.97     -17.91       1.57        0.00      99.79       1.75       1.51       2.43       ----

> <Gold.Chemscore.Fitness>
13.9672

> <Gold.Chemscore.DG>
-17.9103

> <Gold.Chemscore.ZeroCoef>
-5.4800

> <Gold.Chemscore.Hbond>
1.5653

> <Gold.Chemscore.Metal>
0.0000

> <Gold.Chemscore.Lipo>
99.7912

> <Gold.Chemscore.Internal_Hbond>
0.0000

> <Gold.Chemscore.DEClash>
1.5107

> <Gold.Chemscore.DEInternal>
2.4323

> <Gold.Chemscore.Rot>
1.7475

> <Gold.Chemscore.Internal.Correction>
   9.000000E+99

> <Gold.Chemscore.Hbonds>
donor molecule, donor type, donor heavy atom, donor atom, acceptor molecule, acceptor atom, score
      L1  H     9    27       P1  8028  0.92
      P1  H 10752 10763       L1     7  0.12

> <Gold.Chemscore.Hbond.Weighted>
-5.2283

> <Gold.Chemscore.Metal.Weighted>
-0.0000

> <Gold.Chemscore.Lipo.Weighted>
-11.6756

> <Gold.Chemscore.Internal_Hbond.Weighted>
0.0000

> <Gold.Chemscore.DEClash.Weighted>
1.5107

> <Gold.Chemscore.DEInternal.Weighted>
2.4323

> <Gold.Chemscore.Rot.Weighted>
4.4735

> <Gold.Chemscore.Internal.Correction.Weighted>
   9.000000E+99

> <Gold.Protein.RotatedTorsions>
[ 6907 6896 6895 6894 ] final  -97.23 input  -60.11 | X-H torsion
[ 7974 7965 7964 7962 ] final  -54.79 input  175.53 | X-H torsion
[ 8008 7997 7996 7995 ] final -119.28 input   59.86 | X-H torsion
[ 10167 10162 10161 10158 ] final  153.49 input  -65.29 | X-H torsion
[ 10718 10713 10712 10709 ] final   47.17 input   66.30 | X-H torsion
[ 10763 10752 10751 10750 ] final   36.14 input  -60.55 | X-H torsion
[ 11005 11000 10999 10996 ] final  160.01 input  -57.11 | X-H torsion

> <Gold.Protein.ActiveResidues>
 VAL166  LYS551  ARG553  GLY616  TRP617  ASP618  TYR619  PRO620  LYS621  CYS622 
 ASP623  PHE694  ASN695  SER759  ASP760  ASP761  ALA762  ILE779  LEU786  VAL792 
 PHE793  MET794  SER795  GLU796  ALA797  LYS798  CYS799  TRP800  GLU811  SER814 

> <Gold.Protein.RotatedAtoms>
  150.7010  134.1380  159.4094 H   0  0  0  0  0  0  0  0  0  0  0  0  # atno 6907 bound_to 6896
  151.9365  135.0230  160.0542 H   0  0  0  0  0  0  0  0  0  0  0  0  # atno 6908 bound_to 6896
  152.2131  133.4891  159.5157 H   0  0  0  0  0  0  0  0  0  0  0  0  # atno 6909 bound_to 6896
  145.8815  140.8141  142.9837 H   0  0  0  0  0  0  0  0  0  0  0  0  # atno 7974 bound_to 7965
  155.1132  140.0397  157.2730 H   0  0  0  0  0  0  0  0  0  0  0  0  # atno 8008 bound_to 7997
  154.6669  140.2603  155.7023 H   0  0  0  0  0  0  0  0  0  0  0  0  # atno 8009 bound_to 7997
  156.2642  140.2805  156.1163 H   0  0  0  0  0  0  0  0  0  0  0  0  # atno 8010 bound_to 7997
  139.4827  144.5268  151.7787 H   0  0  0  0  0  0  0  0  0  0  0  0  # atno 10167 bound_to 10162
  157.4557  130.8166  149.7834 H   0  0  0  0  0  0  0  0  0  0  0  0  # atno 10718 bound_to 10713
  153.0089  135.6314  154.1938 H   0  0  0  0  0  0  0  0  0  0  0  0  # atno 10763 bound_to 10752
  154.1680  135.2820  155.3091 H   0  0  0  0  0  0  0  0  0  0  0  0  # atno 10764 bound_to 10752
  154.5930  135.5611  153.7358 H   0  0  0  0  0  0  0  0  0  0  0  0  # atno 10765 bound_to 10752
  140.2017  134.8333  157.3025 H   0  0  0  0  0  0  0  0  0  0  0  0  # atno 11005 bound_to 11000
  144.6727  140.1391  143.7438 LP  0  0  0  0  0  0  0  0  0  0  0  0  # atno 17320 bound_to 7965
  145.9018  139.2435  143.1489 LP  0  0  0  0  0  0  0  0  0  0  0  0  # atno 17321 bound_to 7965
  140.4789  144.1478  150.5929 LP  0  0  0  0  0  0  0  0  0  0  0  0  # atno 17342 bound_to 10162
  140.4300  143.2572  151.9608 LP  0  0  0  0  0  0  0  0  0  0  0  0  # atno 17343 bound_to 10162
  156.0006  130.3882  150.2620 LP  0  0  0  0  0  0  0  0  0  0  0  0  # atno 17370 bound_to 10713
  157.0794  131.0139  151.3162 LP  0  0  0  0  0  0  0  0  0  0  0  0  # atno 17371 bound_to 10713
  140.2047  134.4212  155.7644 LP  0  0  0  0  0  0  0  0  0  0  0  0  # atno 17394 bound_to 11000
  141.2227  133.7089  156.8240 LP  0  0  0  0  0  0  0  0  0  0  0  0  # atno 17395 bound_to 11000

$$$$
