AV-unprocessed.smi:754|AV-procd|sdf|3609|dock4
  -GOLD-   22720 1 03D 1   1.00000     0.00000
 Structure written by MMmdl.
 37 38  0  0  0  0  0  0  0  0  1 V2000
  153.3244  142.4383  160.6752 C   0  0  0  0  0  0  0  0  0  0  0  0
  152.0227  143.1017  160.2209 C   0  0  0  0  0  0  0  0  0  0  0  0
  151.2446  142.1483  159.5172 O   0  0  0  0  0  0  0  0  0  0  0  0
  151.6747  141.9650  158.1776 C   0  0  2  0  0  0  0  0  0  0  0  0
  151.1246  142.9942  157.1854 C   0  0  0  0  0  0  0  0  0  0  0  0
  151.0013  141.8243  156.2081 C   0  0  2  0  0  0  0  0  0  0  0  0
  149.8006  141.9045  155.3859 N   0  0  0  0  0  0  0  0  0  0  0  0
  149.4344  140.9784  154.4875 C   0  0  0  0  0  0  0  0  0  0  0  0
  150.1313  140.0089  154.1896 O   0  0  0  0  0  0  0  0  0  0  0  0
  148.0576  141.1580  153.8486 C   0  0  0  0  0  0  0  0  0  0  0  0
  147.2852  139.9329  153.9449 N   0  0  0  0  0  0  0  0  0  0  0  0
  147.4778  138.7295  153.4007 C   0  0  0  0  0  0  0  0  0  0  0  0
  146.5084  137.8866  153.7215 N   0  0  0  0  0  0  0  0  0  0  0  0
  145.6769  138.6535  154.5208 N   0  0  0  0  0  0  0  0  0  0  0  0
  146.1325  139.8685  154.6570 N   0  0  0  0  0  0  0  0  0  0  0  0
  150.8791  140.8692  157.4267 C   0  0  0  0  0  0  0  0  0  0  0  0
  151.5829  139.5196  157.2879 C   0  0  0  0  0  0  0  0  0  0  0  0
  149.4615  140.5810  157.9550 C   0  0  0  0  0  0  0  0  0  0  0  0
  153.9522  143.1439  161.2195 H   0  0  0  0  0  0  0  0  0  0  0  0
  153.8948  142.0715  159.8215 H   0  0  0  0  0  0  0  0  0  0  0  0
  153.1233  141.5924  161.3330 H   0  0  0  0  0  0  0  0  0  0  0  0
  151.4751  143.4756  161.0869 H   0  0  0  0  0  0  0  0  0  0  0  0
  152.2446  143.9537  159.5770 H   0  0  0  0  0  0  0  0  0  0  0  0
  152.7549  141.8267  158.0870 H   0  0  0  0  0  0  0  0  0  0  0  0
  150.1681  143.4207  157.4933 H   0  0  0  0  0  0  0  0  0  0  0  0
  151.8359  143.7653  156.8886 H   0  0  0  0  0  0  0  0  0  0  0  0
  151.9233  141.6748  155.6408 H   0  0  0  0  0  0  0  0  0  0  0  0
  149.1742  142.6760  155.5638 H   0  0  0  0  0  0  0  0  0  0  0  0
  147.5148  141.9616  154.3481 H   0  0  0  0  0  0  0  0  0  0  0  0
  148.1593  141.4372  152.7988 H   0  0  0  0  0  0  0  0  0  0  0  0
  148.3151  138.4761  152.7674 H   0  0  0  0  0  0  0  0  0  0  0  0
  151.0552  138.8628  156.5957 H   0  0  0  0  0  0  0  0  0  0  0  0
  151.6508  139.0041  158.2464 H   0  0  0  0  0  0  0  0  0  0  0  0
  152.5992  139.6347  156.9103 H   0  0  0  0  0  0  0  0  0  0  0  0
  148.9065  139.9252  157.2829 H   0  0  0  0  0  0  0  0  0  0  0  0
  148.8729  141.4909  158.0725 H   0  0  0  0  0  0  0  0  0  0  0  0
  149.4920  140.0938  158.9299 H   0  0  0  0  0  0  0  0  0  0  0  0
  1  2  1  0  0  0  0
  1 19  1  0  0  0  0
  1 20  1  0  0  0  0
  1 21  1  0  0  0  0
  2  3  1  0  0  0  0
  2 22  1  0  0  0  0
  2 23  1  0  0  0  0
  3  4  1  0  0  0  0
  4 16  1  0  0  0  0
  4  5  1  0  0  0  0
  4 24  1  0  0  0  0
  5  6  1  0  0  0  0
  5 25  1  0  0  0  0
  5 26  1  0  0  0  0
  6  7  1  0  0  0  0
  6 16  1  0  0  0  0
  6 27  1  0  0  0  0
  7  8  1  0  0  0  0
  7 28  1  0  0  0  0
  8  9  2  0  0  0  0
  8 10  1  0  0  0  0
 10 11  1  0  0  0  0
 10 29  1  0  0  0  0
 10 30  1  0  0  0  0
 11 15  1  0  0  0  0
 11 12  1  0  0  0  0
 12 13  2  0  0  0  0
 12 31  1  0  0  0  0
 13 14  1  0  0  0  0
 14 15  2  0  0  0  0
 16 17  1  0  0  0  0
 16 18  1  0  0  0  0
 17 32  1  0  0  0  0
 17 33  1  0  0  0  0
 17 34  1  0  0  0  0
 18 35  1  0  0  0  0
 18 36  1  0  0  0  0
 18 37  1  0  0  0  0
M  END
> <s_m_source_file>
AV-unprocessed.smi

> <i_m_source_file_index>
754

> <i_lp_mmshare_version>
43012

> <i_f3d_flags>
0

> <s_epik_input>
W0NIM11bQ0gyXU9bQ0BASF0oQzEoW0NIM10pW0NIM10pW0NIMl1bQ0BIXTFbTkhdQyg9TylbQ0gyXW4yW2NIXW5ubjI=

> <s_epik_cmdline>
J2VwaWtfcHl0aG9uJywgJy1waCcsICc3LjAnLCAnLXRuJywgJzgnLCAnLW1hJywgJzIwMCcsICctbWV0YWxfYmluZGluZycsICctaW1hZScsICc8aW5maWxlLm1hZT4nLCAnLW9tYWUnLCAnPG91dGZpbGUubWFlPic=

> <r_lp_tautomer_probability>
1

> <r_epik_Ionization_Penalty>
8.28422e-07

> <r_epik_Ionization_Penalty_Charging>
0

> <r_epik_Ionization_Penalty_Neutral>
8.28422e-07

> <r_epik_State_Penalty>
-0

> <r_epik_Charging_Adjusted_Penalty>
0

> <i_epik_Tot_Q>
0

> <i_epik_Tot_abs_Q>
0

> <r_epik_Metal_State_Penalty>
-0

> <b_epik_Metal_Only>
0

> <s_lp_Force_Field>
OPLS_2005

> <r_lp_Energy>
20.4803

> <b_lp_Chiralities_Consistent>
1

> <s_lp_Variant>
AV-unprocessed.smi:754-3

> <Gold.Version>
5.8.1

> <Gold.Id.Protein>
6NUR|6NUR_protein|mol2

> <Gold.PLP.Fitness>
42.3683

> <Gold.PLP.PLP>
-31.4113

> <Gold.PLP.part.hbond>
-2.6560

> <Gold.PLP.part.metal>
0.0000

> <Gold.PLP.part.buried>
-4.3747

> <Gold.PLP.part.nonpolar>
-24.7598

> <Gold.PLP.part.repulsive>
1.2359

> <Gold.PLP.ligand.clash>
0.0000

> <Gold.PLP.ligand.torsion>
0.4527

> <Gold.PLP.Chemscore.Hbond>
1.9920

> <Gold.PLP.Chemscore.CHOScore>
1.8497

> <Gold.PLP.Chemscore.Metal>
0.0000

> <Gold.Chemscore.Hbonds>
donor molecule, donor type, donor heavy atom, donor atom, acceptor molecule, acceptor atom, score
      L1  H     7    28       P1  8028  0.90
      P1  H  7989  7998       L1     9  1.00
      L1  C    12    31       P1  7948  0.99
      L1  C    12    31       P1  7957  0.87

> <Gold.PLP.Chemscore.Internal.Correction>
0.3373

> <Gold.Rescore>
     Score         DG    S(hbond)    S(metal)    S(lipo)     H(rot)  DE(clash)    DE(int)     intcor
     12.34     -12.92       1.66        0.00      70.22       2.46       0.16       0.43       ----

> <Gold.Chemscore.Fitness>
12.3362

> <Gold.Chemscore.DG>
-12.9231

> <Gold.Chemscore.ZeroCoef>
-5.4800

> <Gold.Chemscore.Hbond>
1.6555

> <Gold.Chemscore.Metal>
0.0000

> <Gold.Chemscore.Lipo>
70.2162

> <Gold.Chemscore.Internal_Hbond>
0.0000

> <Gold.Chemscore.DEClash>
0.1568

> <Gold.Chemscore.DEInternal>
0.4300

> <Gold.Chemscore.Rot>
2.4616

> <Gold.Chemscore.Internal.Correction>
   9.000000E+99

> <Gold.Chemscore.Hbonds>
donor molecule, donor type, donor heavy atom, donor atom, acceptor molecule, acceptor atom, score
      L1  H     7    28       P1  8028  0.82
      P1  H  7989  7998       L1     9  0.24

> <Gold.Chemscore.Hbond.Weighted>
-5.5294

> <Gold.Chemscore.Metal.Weighted>
-0.0000

> <Gold.Chemscore.Lipo.Weighted>
-8.2153

> <Gold.Chemscore.Internal_Hbond.Weighted>
0.0000

> <Gold.Chemscore.DEClash.Weighted>
0.1568

> <Gold.Chemscore.DEInternal.Weighted>
0.4300

> <Gold.Chemscore.Rot.Weighted>
6.3016

> <Gold.Chemscore.Internal.Correction.Weighted>
   9.000000E+99

> <Gold.Protein.RotatedTorsions>
[ 6907 6896 6895 6894 ] final  140.58 input  -60.11 | X-H torsion
[ 7974 7965 7964 7962 ] final  -34.64 input  175.53 | X-H torsion
[ 8008 7997 7996 7995 ] final -170.19 input   59.86 | X-H torsion
[ 10167 10162 10161 10158 ] final -146.81 input  -65.29 | X-H torsion
[ 10718 10713 10712 10709 ] final -169.25 input   66.30 | X-H torsion
[ 10763 10752 10751 10750 ] final  -56.30 input  -60.55 | X-H torsion
[ 11005 11000 10999 10996 ] final   23.16 input  -57.11 | X-H torsion

> <Gold.Protein.ActiveResidues>
 VAL166  LYS551  ARG553  GLY616  TRP617  ASP618  TYR619  PRO620  LYS621  CYS622 
 ASP623  PHE694  ASN695  SER759  ASP760  ASP761  ALA762  ILE779  LEU786  VAL792 
 PHE793  MET794  SER795  GLU796  ALA797  LYS798  CYS799  TRP800  GLU811  SER814 

> <Gold.Protein.RotatedAtoms>
  152.2414  133.5138  159.5271 H   0  0  0  0  0  0  0  0  0  0  0  0  # atno 6907 bound_to 6896
  150.7065  134.1084  159.4000 H   0  0  0  0  0  0  0  0  0  0  0  0  # atno 6908 bound_to 6896
  151.9005  135.0380  160.0556 H   0  0  0  0  0  0  0  0  0  0  0  0  # atno 6909 bound_to 6896
  146.0812  140.6063  142.8907 H   0  0  0  0  0  0  0  0  0  0  0  0  # atno 7974 bound_to 7965
  155.9150  140.1064  157.1250 H   0  0  0  0  0  0  0  0  0  0  0  0  # atno 8008 bound_to 7997
  154.4045  140.1267  156.4671 H   0  0  0  0  0  0  0  0  0  0  0  0  # atno 8009 bound_to 7997
  155.7264  140.3469  155.5042 H   0  0  0  0  0  0  0  0  0  0  0  0  # atno 8010 bound_to 7997
  139.7679  143.8280  152.2619 H   0  0  0  0  0  0  0  0  0  0  0  0  # atno 10167 bound_to 10162
  156.7089  130.9225  151.3087 H   0  0  0  0  0  0  0  0  0  0  0  0  # atno 10718 bound_to 10713
  154.2045  135.6405  153.5097 H   0  0  0  0  0  0  0  0  0  0  0  0  # atno 10763 bound_to 10752
  153.0004  135.5459  154.6280 H   0  0  0  0  0  0  0  0  0  0  0  0  # atno 10764 bound_to 10752
  154.5702  135.2916  155.0808 H   0  0  0  0  0  0  0  0  0  0  0  0  # atno 10765 bound_to 10752
  140.3726  134.2006  155.7666 H   0  0  0  0  0  0  0  0  0  0  0  0  # atno 11005 bound_to 11000
  144.7295  140.4627  143.6948 LP  0  0  0  0  0  0  0  0  0  0  0  0  # atno 17320 bound_to 7965
  145.6214  139.1524  143.3020 LP  0  0  0  0  0  0  0  0  0  0  0  0  # atno 17321 bound_to 7965
  139.8306  144.7255  150.9455 LP  0  0  0  0  0  0  0  0  0  0  0  0  # atno 17342 bound_to 10162
  140.7812  143.4073  151.1049 LP  0  0  0  0  0  0  0  0  0  0  0  0  # atno 17343 bound_to 10162
  157.6944  130.9266  150.0603 LP  0  0  0  0  0  0  0  0  0  0  0  0  # atno 17370 bound_to 10713
  156.1675  130.3645  149.9211 LP  0  0  0  0  0  0  0  0  0  0  0  0  # atno 17371 bound_to 10713
  141.1949  133.8117  157.0736 LP  0  0  0  0  0  0  0  0  0  0  0  0  # atno 17394 bound_to 11000
  140.0540  134.9790  157.1187 LP  0  0  0  0  0  0  0  0  0  0  0  0  # atno 17395 bound_to 11000

$$$$
