AV-unprocessed.smi:3316|AV-procd|sdf|12755|dock6
  -GOLD-   2272019 93D 1   1.00000     0.00000
 Structure written by MMmdl.
 41 43  0  0  0  0  0  0  0  0  2 V2000
  148.2937  140.7330  154.1035 C   0  0  0  0  0  0  0  0  0  0  0  0
  148.6018  140.1153  155.4763 C   0  0  2  0  0  0  0  0  0  0  0  0
  148.8136  141.2019  156.5489 C   0  0  0  0  0  0  0  0  0  0  0  0
  149.9703  142.0638  156.2289 N   0  3  0  0  0  0  0  0  0  0  0  0
  151.1212  141.8928  157.1371 C   0  0  0  0  0  0  0  0  0  0  0  0
  151.0106  142.8237  158.3678 C   0  0  1  0  0  0  0  0  0  0  0  0
  152.1277  142.5994  159.4400 C   0  0  0  0  0  0  0  0  0  0  0  0
  152.7696  143.9983  159.5812 C   0  0  2  0  0  0  0  0  0  0  0  0
  151.7347  144.9321  160.1706 C   0  0  0  0  0  0  0  0  0  0  0  0
  150.8029  145.1305  159.2371 C   0  0  0  0  0  0  0  0  0  0  0  0
  151.2056  144.3238  158.0198 C   0  0  1  0  0  0  0  0  0  0  0  0
  152.7317  144.4438  158.1169 C   0  0  0  0  0  0  0  0  0  0  0  0
  149.7812  139.1529  155.3949 C   0  0  0  0  0  0  0  0  0  0  0  0
  150.3797  138.8553  154.1521 C   0  0  0  0  0  0  0  0  0  0  0  0
  151.4613  137.9520  154.1227 C   0  0  0  0  0  0  0  0  0  0  0  0
  151.9547  137.3504  155.2260 N   0  0  0  0  0  0  0  0  0  0  0  0
  151.3810  137.6394  156.4130 C   0  0  0  0  0  0  0  0  0  0  0  0
  150.2966  138.5286  156.5518 C   0  0  0  0  0  0  0  0  0  0  0  0
  148.0892  139.9588  153.3633 H   0  0  0  0  0  0  0  0  0  0  0  0
  149.1268  141.3328  153.7357 H   0  0  0  0  0  0  0  0  0  0  0  0
  147.4171  141.3798  154.1515 H   0  0  0  0  0  0  0  0  0  0  0  0
  147.7235  139.5371  155.7675 H   0  0  0  0  0  0  0  0  0  0  0  0
  147.9192  141.8186  156.6460 H   0  0  0  0  0  0  0  0  0  0  0  0
  148.9832  140.7364  157.5207 H   0  0  0  0  0  0  0  0  0  0  0  0
  150.2709  141.8657  155.2851 H   0  0  0  0  0  0  0  0  0  0  0  0
  151.1718  140.8457  157.4360 H   0  0  0  0  0  0  0  0  0  0  0  0
  152.0379  142.0964  156.5818 H   0  0  0  0  0  0  0  0  0  0  0  0
  150.0320  142.6932  158.8346 H   0  0  0  0  0  0  0  0  0  0  0  0
  151.7197  142.2433  160.3869 H   0  0  0  0  0  0  0  0  0  0  0  0
  152.8769  141.8760  159.1167 H   0  0  0  0  0  0  0  0  0  0  0  0
  153.7487  144.0364  160.0592 H   0  0  0  0  0  0  0  0  0  0  0  0
  151.7582  145.3237  161.1770 H   0  0  0  0  0  0  0  0  0  0  0  0
  149.9000  145.7177  159.3177 H   0  0  0  0  0  0  0  0  0  0  0  0
  150.7641  144.6713  157.0854 H   0  0  0  0  0  0  0  0  0  0  0  0
  153.0893  145.4658  157.9737 H   0  0  0  0  0  0  0  0  0  0  0  0
  153.2759  143.7834  157.4390 H   0  0  0  0  0  0  0  0  0  0  0  0
  150.0243  139.3066  153.2372 H   0  0  0  0  0  0  0  0  0  0  0  0
  151.9408  137.7043  153.1874 H   0  0  0  0  0  0  0  0  0  0  0  0
  151.7962  137.1453  157.2790 H   0  0  0  0  0  0  0  0  0  0  0  0
  149.8759  138.7230  157.5274 H   0  0  0  0  0  0  0  0  0  0  0  0
  149.6699  143.0273  156.2757 H   0  0  0  0  0  0  0  0  0  0  0  0
  1  2  1  0  0  0  0
  1 19  1  0  0  0  0
  1 20  1  0  0  0  0
  1 21  1  0  0  0  0
  2  3  1  0  0  0  0
  2 13  1  0  0  0  0
  2 22  1  0  0  0  0
  3  4  1  0  0  0  0
  3 23  1  0  0  0  0
  3 24  1  0  0  0  0
  4  5  1  0  0  0  0
  4 25  1  0  0  0  0
  4 41  1  0  0  0  0
  5  6  1  0  0  0  0
  5 26  1  0  0  0  0
  5 27  1  0  0  0  0
  6 11  1  0  0  0  0
  6  7  1  0  0  0  0
  6 28  1  0  0  0  0
  7  8  1  0  0  0  0
  7 29  1  0  0  0  0
  7 30  1  0  0  0  0
  8 12  1  0  0  0  0
  8  9  1  0  0  0  0
  8 31  1  0  0  0  0
  9 10  2  0  0  0  0
  9 32  1  0  0  0  0
 10 11  1  0  0  0  0
 10 33  1  0  0  0  0
 11 12  1  0  0  0  0
 11 34  1  0  0  0  0
 12 35  1  0  0  0  0
 12 36  1  0  0  0  0
 13 18  1  0  0  0  0
 13 14  2  0  0  0  0
 14 15  1  0  0  0  0
 14 37  1  0  0  0  0
 15 16  2  0  0  0  0
 15 38  1  0  0  0  0
 16 17  1  0  0  0  0
 17 18  2  0  0  0  0
 17 39  1  0  0  0  0
 18 40  1  0  0  0  0
M  CHG  1   4   1
M  END
> <s_m_source_file>
AV-unprocessed.smi

> <i_m_source_file_index>
3316

> <i_lp_mmshare_version>
43012

> <i_f3d_flags>
0

> <s_epik_input>
W2NIXTFbY0hdbltjSF1bY0hdYzFbQ0BIXShbQ0gzXSlbQ0gyXVtOSF1bQ0gyXVtDQEhdKFtDSDJdW0NASF0yMylbQ0BIXShbQ0gyXTMpW0NIXT1bQ0hdMg==

> <s_epik_cmdline>
J2VwaWtfcHl0aG9uJywgJy1waCcsICc3LjAnLCAnLXRuJywgJzgnLCAnLW1hJywgJzIwMCcsICctbWV0YWxfYmluZGluZycsICctaW1hZScsICc8aW5maWxlLm1hZT4nLCAnLW9tYWUnLCAnPG91dGZpbGUubWFlPic=

> <r_lp_tautomer_probability>
1

> <r_epik_Ionization_Penalty>
0.00280406

> <r_epik_Ionization_Penalty_Charging>
0.000446589

> <r_epik_Ionization_Penalty_Neutral>
0.00235747

> <r_epik_State_Penalty>
-0

> <r_epik_Charging_Adjusted_Penalty>
0.000446589

> <i_epik_Tot_Q>
1

> <i_epik_Tot_abs_Q>
1

> <r_epik_Metal_State_Penalty>
-0

> <b_epik_Metal_Only>
0

> <s_lp_Force_Field>
OPLS_2005

> <r_lp_Energy>
68.7939

> <b_lp_Chiralities_Consistent>
1

> <s_lp_Variant>
AV-unprocessed.smi:3316-3

> <Gold.Version>
5.8.1

> <Gold.Id.Protein>
6NUR|6NUR_protein|mol2

> <Gold.PLP.Fitness>
50.9376

> <Gold.PLP.PLP>
-40.8500

> <Gold.PLP.part.hbond>
-2.0000

> <Gold.PLP.part.metal>
0.0000

> <Gold.PLP.part.buried>
-6.2341

> <Gold.PLP.part.nonpolar>
-34.6977

> <Gold.PLP.part.repulsive>
0.1539

> <Gold.PLP.ligand.clash>
0.0000

> <Gold.PLP.ligand.torsion>
0.6685

> <Gold.PLP.Chemscore.Hbond>
2.7956

> <Gold.PLP.Chemscore.CHOScore>
0.9922

> <Gold.PLP.Chemscore.Metal>
0.0000

> <Gold.Chemscore.Hbonds>
donor molecule, donor type, donor heavy atom, donor atom, acceptor molecule, acceptor atom, score
      L1  H     4    41       P1  8028  2.00
      P1  H 10752 10765       L1    16  0.74
      L1  C    15    38       P1  7949  0.95

> <Gold.PLP.Chemscore.Internal.Correction>
0.0612

> <Gold.Rescore>
     Score         DG    S(hbond)    S(metal)    S(lipo)     H(rot)  DE(clash)    DE(int)     intcor
     22.78     -23.54       1.77        0.00     133.73       1.36       0.18       0.59       ----

> <Gold.Chemscore.Fitness>
22.7762

> <Gold.Chemscore.DG>
-23.5404

> <Gold.Chemscore.ZeroCoef>
-5.4800

> <Gold.Chemscore.Hbond>
1.7683

> <Gold.Chemscore.Metal>
0.0000

> <Gold.Chemscore.Lipo>
133.7285

> <Gold.Chemscore.Internal_Hbond>
0.0000

> <Gold.Chemscore.DEClash>
0.1789

> <Gold.Chemscore.DEInternal>
0.5853

> <Gold.Chemscore.Rot>
1.3640

> <Gold.Chemscore.Internal.Correction>
   9.000000E+99

> <Gold.Chemscore.Hbonds>
donor molecule, donor type, donor heavy atom, donor atom, acceptor molecule, acceptor atom, score
      L1  H     4    41       P1  8028  0.97
      P1  H 10752 10765       L1    16  0.54

> <Gold.Chemscore.Hbond.Weighted>
-5.9061

> <Gold.Chemscore.Metal.Weighted>
-0.0000

> <Gold.Chemscore.Lipo.Weighted>
-15.6462

> <Gold.Chemscore.Internal_Hbond.Weighted>
0.0000

> <Gold.Chemscore.DEClash.Weighted>
0.1789

> <Gold.Chemscore.DEInternal.Weighted>
0.5853

> <Gold.Chemscore.Rot.Weighted>
3.4919

> <Gold.Chemscore.Internal.Correction.Weighted>
   9.000000E+99

> <Gold.Protein.RotatedTorsions>
[ 6907 6896 6895 6894 ] final   38.48 input  -60.11 | X-H torsion
[ 7974 7965 7964 7962 ] final  134.15 input  175.53 | X-H torsion
[ 8008 7997 7996 7995 ] final   62.46 input   59.86 | X-H torsion
[ 10167 10162 10161 10158 ] final   84.25 input  -65.29 | X-H torsion
[ 10718 10713 10712 10709 ] final  138.63 input   66.30 | X-H torsion
[ 10763 10752 10751 10750 ] final -173.85 input  -60.55 | X-H torsion
[ 11005 11000 10999 10996 ] final  161.01 input  -57.11 | X-H torsion

> <Gold.Protein.ActiveResidues>
 VAL166  LYS551  ARG553  GLY616  TRP617  ASP618  TYR619  PRO620  LYS621  CYS622 
 ASP623  PHE694  ASN695  SER759  ASP760  ASP761  ALA762  ILE779  LEU786  VAL792 
 PHE793  MET794  SER795  GLU796  ALA797  LYS798  CYS799  TRP800  GLU811  SER814 

> <Gold.Protein.RotatedAtoms>
  152.1570  134.8942  160.0544 H   0  0  0  0  0  0  0  0  0  0  0  0  # atno 6907 bound_to 6896
  151.9953  133.3800  159.4168 H   0  0  0  0  0  0  0  0  0  0  0  0  # atno 6908 bound_to 6896
  150.6883  134.3815  159.5080 H   0  0  0  0  0  0  0  0  0  0  0  0  # atno 6909 bound_to 6896
  144.9793  139.4522  143.5394 H   0  0  0  0  0  0  0  0  0  0  0  0  # atno 7974 bound_to 7965
  155.6147  140.3495  155.4633 H   0  0  0  0  0  0  0  0  0  0  0  0  # atno 8008 bound_to 7997
  156.0126  140.1236  157.0462 H   0  0  0  0  0  0  0  0  0  0  0  0  # atno 8009 bound_to 7997
  154.4286  140.1078  156.5838 H   0  0  0  0  0  0  0  0  0  0  0  0  # atno 8010 bound_to 7997
  139.9100  144.6277  150.8547 H   0  0  0  0  0  0  0  0  0  0  0  0  # atno 10167 bound_to 10162
  157.4232  131.1041  151.0330 H   0  0  0  0  0  0  0  0  0  0  0  0  # atno 10718 bound_to 10713
  154.6031  135.2856  155.0514 H   0  0  0  0  0  0  0  0  0  0  0  0  # atno 10763 bound_to 10752
  154.1771  135.6463  153.5028 H   0  0  0  0  0  0  0  0  0  0  0  0  # atno 10764 bound_to 10752
  153.0165  135.5415  154.6757 H   0  0  0  0  0  0  0  0  0  0  0  0  # atno 10765 bound_to 10752
  140.2116  134.8263  157.3126 H   0  0  0  0  0  0  0  0  0  0  0  0  # atno 11005 bound_to 11000
  146.3404  139.9055  142.8788 LP  0  0  0  0  0  0  0  0  0  0  0  0  # atno 17320 bound_to 7965
  145.2445  141.0021  143.3917 LP  0  0  0  0  0  0  0  0  0  0  0  0  # atno 17321 bound_to 7965
  140.7687  143.3373  151.2282 LP  0  0  0  0  0  0  0  0  0  0  0  0  # atno 17342 bound_to 10162
  139.6951  143.9627  152.2878 LP  0  0  0  0  0  0  0  0  0  0  0  0  # atno 17343 bound_to 10162
  157.1253  130.6079  149.5515 LP  0  0  0  0  0  0  0  0  0  0  0  0  # atno 17370 bound_to 10713
  155.9888  130.4932  150.7185 LP  0  0  0  0  0  0  0  0  0  0  0  0  # atno 17371 bound_to 10713
  140.1945  134.4331  155.7697 LP  0  0  0  0  0  0  0  0  0  0  0  0  # atno 17394 bound_to 11000
  141.2226  133.7042  156.8082 LP  0  0  0  0  0  0  0  0  0  0  0  0  # atno 17395 bound_to 11000

$$$$
