AV-unprocessed.smi:3015|AV-procd|sdf|11470|dock6
  -GOLD-   2272016403D 1   1.00000     0.00000
 Structure written by MMmdl.
 24 24  0  0  0  0  0  0  0  0  2 V2000
  148.9867  142.0384  156.2147 N   0  3  0  0  0  0  0  0  0  0  0  0
  150.2255  141.4017  155.7281 C   0  0  2  0  0  0  0  0  0  0  0  0
  149.8953  140.3260  154.6789 C   0  0  0  0  0  0  0  0  0  0  0  0
  149.6815  140.9240  153.4173 O   0  0  0  0  0  0  0  0  0  0  0  0
  151.0274  140.8134  156.9049 C   0  0  0  0  0  0  0  0  0  0  0  0
  151.6051  141.8764  157.8231 C   0  0  0  0  0  0  0  0  0  0  0  0
  152.3689  141.5179  158.9535 C   0  0  0  0  0  0  0  0  0  0  0  0
  152.8875  142.5381  159.7738 C   0  0  0  0  0  0  0  0  0  0  0  0
  152.6185  143.8779  159.4298 C   0  0  0  0  0  0  0  0  0  0  0  0
  151.8877  144.2328  158.3508 N   0  0  0  0  0  0  0  0  0  0  0  0
  151.3909  143.2488  157.5716 C   0  0  0  0  0  0  0  0  0  0  0  0
  148.9603  143.0021  155.9149 H   0  0  0  0  0  0  0  0  0  0  0  0
  148.9677  141.9989  157.2239 H   0  0  0  0  0  0  0  0  0  0  0  0
  150.8308  142.1746  155.2521 H   0  0  0  0  0  0  0  0  0  0  0  0
  150.7237  139.6234  154.5813 H   0  0  0  0  0  0  0  0  0  0  0  0
  149.0155  139.7489  154.9664 H   0  0  0  0  0  0  0  0  0  0  0  0
  149.6180  140.2419  152.7654 H   0  0  0  0  0  0  0  0  0  0  0  0
  150.4017  140.1337  157.4853 H   0  0  0  0  0  0  0  0  0  0  0  0
  151.8544  140.2117  156.5252 H   0  0  0  0  0  0  0  0  0  0  0  0
  152.5571  140.4803  159.1879 H   0  0  0  0  0  0  0  0  0  0  0  0
  153.4769  142.3001  160.6470 H   0  0  0  0  0  0  0  0  0  0  0  0
  153.0010  144.6852  160.0368 H   0  0  0  0  0  0  0  0  0  0  0  0
  150.8123  143.5675  156.7170 H   0  0  0  0  0  0  0  0  0  0  0  0
  148.1873  141.5463  155.8420 H   0  0  0  0  0  0  0  0  0  0  0  0
  1  2  1  0  0  0  0
  1 12  1  0  0  0  0
  1 13  1  0  0  0  0
  1 24  1  0  0  0  0
  2  3  1  0  0  0  0
  2  5  1  0  0  0  0
  2 14  1  0  0  0  0
  3  4  1  0  0  0  0
  3 15  1  0  0  0  0
  3 16  1  0  0  0  0
  4 17  1  0  0  0  0
  5  6  1  0  0  0  0
  5 18  1  0  0  0  0
  5 19  1  0  0  0  0
  6 11  1  0  0  0  0
  6  7  2  0  0  0  0
  7  8  1  0  0  0  0
  7 20  1  0  0  0  0
  8  9  2  0  0  0  0
  8 21  1  0  0  0  0
  9 10  1  0  0  0  0
  9 22  1  0  0  0  0
 10 11  2  0  0  0  0
 11 23  1  0  0  0  0
M  CHG  1   1   1
M  END
> <s_m_source_file>
AV-unprocessed.smi

> <i_m_source_file_index>
3015

> <i_lp_mmshare_version>
43012

> <i_f3d_flags>
0

> <s_epik_input>
W09IXVtDSDJdW0NAQEhdKFtOSDJdKVtDSDJdYzFbY0hdW2NIXVtjSF1uW2NIXTE=

> <s_epik_cmdline>
J2VwaWtfcHl0aG9uJywgJy1waCcsICc3LjAnLCAnLXRuJywgJzgnLCAnLW1hJywgJzIwMCcsICctbWV0YWxfYmluZGluZycsICctaW1hZScsICc8aW5maWxlLm1hZT4nLCAnLW9tYWUnLCAnPG91dGZpbGUubWFlPic=

> <r_epik_Ionization_Penalty>
0.0193991

> <r_epik_Ionization_Penalty_Charging>
0.0188044

> <r_epik_Ionization_Penalty_Neutral>
0.000594726

> <r_epik_State_Penalty>
0.00921718

> <r_epik_Charging_Adjusted_Penalty>
0.0280216

> <i_epik_Tot_Q>
1

> <i_epik_Tot_abs_Q>
1

> <r_epik_Metal_State_Penalty>
0.00867471

> <b_epik_Metal_Only>
0

> <s_lp_Force_Field>
OPLS_2005

> <r_lp_Energy>
6.76442

> <b_lp_Chiralities_Consistent>
1

> <s_lp_Variant>
AV-unprocessed.smi:3015-1

> <Gold.Version>
5.8.1

> <Gold.Id.Protein>
6NUR|6NUR_protein|mol2

> <Gold.PLP.Fitness>
41.4428

> <Gold.PLP.PLP>
-27.6840

> <Gold.PLP.part.hbond>
-3.8481

> <Gold.PLP.part.metal>
0.0000

> <Gold.PLP.part.buried>
-3.8712

> <Gold.PLP.part.nonpolar>
-20.3414

> <Gold.PLP.part.repulsive>
0.1199

> <Gold.PLP.ligand.clash>
0.0000

> <Gold.PLP.ligand.torsion>
0.2828

> <Gold.PLP.Chemscore.Hbond>
3.7720

> <Gold.PLP.Chemscore.CHOScore>
1.0000

> <Gold.PLP.Chemscore.Metal>
0.0000

> <Gold.Chemscore.Hbonds>
donor molecule, donor type, donor heavy atom, donor atom, acceptor molecule, acceptor atom, score
      L1  H     1    12       P1  8028  2.00
      L1  H     4    17       P1  7957  0.80
      P1  H  8011  8017       L1     4  1.00
      L1  C    11    23       P1  8028  1.00

> <Gold.PLP.Chemscore.Internal.Correction>
0.0084

> <Gold.Rescore>
     Score         DG    S(hbond)    S(metal)    S(lipo)     H(rot)  DE(clash)    DE(int)     intcor
     15.11     -15.60       2.12        0.00      72.89       2.14       0.07       0.43       ----

> <Gold.Chemscore.Fitness>
15.1104

> <Gold.Chemscore.DG>
-15.6036

> <Gold.Chemscore.ZeroCoef>
-5.4800

> <Gold.Chemscore.Hbond>
2.1182

> <Gold.Chemscore.Metal>
0.0000

> <Gold.Chemscore.Lipo>
72.8937

> <Gold.Chemscore.Internal_Hbond>
0.0000

> <Gold.Chemscore.DEClash>
0.0664

> <Gold.Chemscore.DEInternal>
0.4268

> <Gold.Chemscore.Rot>
2.1405

> <Gold.Chemscore.Internal.Correction>
   9.000000E+99

> <Gold.Chemscore.Hbonds>
donor molecule, donor type, donor heavy atom, donor atom, acceptor molecule, acceptor atom, score
      L1  H     1    12       P1  8028  1.00
      L1  H     4    17       P1  7957  0.79
      P1  H  8011  8017       L1     4  0.25

> <Gold.Chemscore.Hbond.Weighted>
-7.0748

> <Gold.Chemscore.Metal.Weighted>
-0.0000

> <Gold.Chemscore.Lipo.Weighted>
-8.5286

> <Gold.Chemscore.Internal_Hbond.Weighted>
0.0000

> <Gold.Chemscore.DEClash.Weighted>
0.0664

> <Gold.Chemscore.DEInternal.Weighted>
0.4268

> <Gold.Chemscore.Rot.Weighted>
5.4797

> <Gold.Chemscore.Internal.Correction.Weighted>
   9.000000E+99

> <Gold.Protein.RotatedTorsions>
[ 6907 6896 6895 6894 ] final   -6.80 input  -60.11 | X-H torsion
[ 7974 7965 7964 7962 ] final   96.30 input  175.53 | X-H torsion
[ 8008 7997 7996 7995 ] final  114.04 input   59.86 | X-H torsion
[ 10167 10162 10161 10158 ] final  104.93 input  -65.29 | X-H torsion
[ 10718 10713 10712 10709 ] final  131.02 input   66.30 | X-H torsion
[ 10763 10752 10751 10750 ] final   41.77 input  -60.55 | X-H torsion
[ 11005 11000 10999 10996 ] final  -65.27 input  -57.11 | X-H torsion

> <Gold.Protein.ActiveResidues>
 VAL166  LYS551  ARG553  GLY616  TRP617  ASP618  TYR619  PRO620  LYS621  CYS622 
 ASP623  PHE694  ASN695  SER759  ASP760  ASP761  ALA762  ILE779  LEU786  VAL792 
 PHE793  MET794  SER795  GLU796  ALA797  LYS798  CYS799  TRP800  GLU811  SER814 

> <Gold.Protein.RotatedAtoms>
  151.4597  135.1037  159.9721 H   0  0  0  0  0  0  0  0  0  0  0  0  # atno 6907 bound_to 6896
  152.4857  133.8363  159.7140 H   0  0  0  0  0  0  0  0  0  0  0  0  # atno 6908 bound_to 6896
  150.8965  133.7114  159.2917 H   0  0  0  0  0  0  0  0  0  0  0  0  # atno 6909 bound_to 6896
  145.4406  139.2301  143.3094 H   0  0  0  0  0  0  0  0  0  0  0  0  # atno 7974 bound_to 7965
  156.2296  140.2967  156.0155 H   0  0  0  0  0  0  0  0  0  0  0  0  # atno 8008 bound_to 7997
  155.2260  140.0417  157.2972 H   0  0  0  0  0  0  0  0  0  0  0  0  # atno 8009 bound_to 7997
  154.5974  140.2418  155.7846 H   0  0  0  0  0  0  0  0  0  0  0  0  # atno 8010 bound_to 7997
  139.7135  144.7073  151.0987 H   0  0  0  0  0  0  0  0  0  0  0  0  # atno 10167 bound_to 10162
  157.5007  131.1094  150.9431 H   0  0  0  0  0  0  0  0  0  0  0  0  # atno 10718 bound_to 10713
  152.9900  135.6152  154.2840 H   0  0  0  0  0  0  0  0  0  0  0  0  # atno 10763 bound_to 10752
  154.2568  135.2783  155.2796 H   0  0  0  0  0  0  0  0  0  0  0  0  # atno 10764 bound_to 10752
  154.5240  135.5807  153.6761 H   0  0  0  0  0  0  0  0  0  0  0  0  # atno 10765 bound_to 10752
  141.1449  133.6679  156.5961 H   0  0  0  0  0  0  0  0  0  0  0  0  # atno 11005 bound_to 11000
  146.2558  140.5154  142.8874 LP  0  0  0  0  0  0  0  0  0  0  0  0  # atno 17320 bound_to 7965
  144.8124  140.6408  143.6407 LP  0  0  0  0  0  0  0  0  0  0  0  0  # atno 17321 bound_to 7965
  140.7738  143.5260  150.9479 LP  0  0  0  0  0  0  0  0  0  0  0  0  # atno 17342 bound_to 10162
  139.8946  143.6911  152.3140 LP  0  0  0  0  0  0  0  0  0  0  0  0  # atno 17343 bound_to 10162
  157.0103  130.5634  149.5320 LP  0  0  0  0  0  0  0  0  0  0  0  0  # atno 17370 bound_to 10713
  156.0227  130.5322  150.8321 LP  0  0  0  0  0  0  0  0  0  0  0  0  # atno 17371 bound_to 10713
  140.3725  134.7593  157.4608 LP  0  0  0  0  0  0  0  0  0  0  0  0  # atno 17394 bound_to 11000
  140.0699  134.5877  155.8653 LP  0  0  0  0  0  0  0  0  0  0  0  0  # atno 17395 bound_to 11000

$$$$
