AV-unprocessed.smi:2768|AV-procd|sdf|10655|dock9
  -GOLD-   2272015103D 1   1.00000     0.00000
 Structure written by MMmdl.
 34 35  0  0  0  0  0  0  0  0  2 V2000
  153.7293  139.6916  158.4462 O   0  0  0  0  0  0  0  0  0  0  0  0
  153.0057  140.3662  159.1881 C   0  0  0  0  0  0  0  0  0  0  0  0
  151.6480  140.3576  159.3230 N   0  5  0  0  0  0  0  0  0  0  0  0
  150.7098  140.2336  158.2050 C   0  0  1  0  0  0  0  0  0  0  0  0
  150.9804  141.3483  157.1620 C   0  0  0  0  0  0  0  0  0  0  0  0
  150.1322  141.2034  155.8734 C   0  0  0  0  0  0  0  0  0  0  0  0
  150.3155  139.8295  155.1956 C   0  0  0  0  0  0  0  0  0  0  0  0
  150.0351  138.7089  156.2183 C   0  0  0  0  0  0  0  0  0  0  0  0
  150.8827  138.8554  157.5099 C   0  0  2  0  0  0  0  0  0  0  0  0
  150.5187  137.8252  158.4067 O   0  0  0  0  0  0  0  0  0  0  0  0
  153.6829  141.3723  160.1436 C   0  0  0  0  0  0  0  0  0  0  0  0
  153.5297  140.9345  161.3959 F   0  0  0  0  0  0  0  0  0  0  0  0
  154.9981  141.4354  159.9050 F   0  0  0  0  0  0  0  0  0  0  0  0
  153.0399  142.7517  160.0110 C   0  0  0  0  0  0  0  0  0  0  0  0
  152.9901  143.4079  158.7595 C   0  0  0  0  0  0  0  0  0  0  0  0
  152.3959  144.6824  158.6866 C   0  0  0  0  0  0  0  0  0  0  0  0
  151.8743  145.2562  159.8614 C   0  0  0  0  0  0  0  0  0  0  0  0
  151.9740  144.5271  161.0626 C   0  0  0  0  0  0  0  0  0  0  0  0
  152.5406  143.3047  161.1428 N   0  0  0  0  0  0  0  0  0  0  0  0
  149.6717  140.3203  158.5316 H   0  0  0  0  0  0  0  0  0  0  0  0
  151.9334  138.7144  157.2515 H   0  0  0  0  0  0  0  0  0  0  0  0
  150.7916  142.3253  157.6086 H   0  0  0  0  0  0  0  0  0  0  0  0
  152.0364  141.3414  156.8865 H   0  0  0  0  0  0  0  0  0  0  0  0
  149.0755  141.3586  156.1007 H   0  0  0  0  0  0  0  0  0  0  0  0
  150.4037  141.9921  155.1714 H   0  0  0  0  0  0  0  0  0  0  0  0
  149.6524  139.7362  154.3354 H   0  0  0  0  0  0  0  0  0  0  0  0
  151.3356  139.7374  154.8206 H   0  0  0  0  0  0  0  0  0  0  0  0
  148.9702  138.7043  156.4619 H   0  0  0  0  0  0  0  0  0  0  0  0
  150.2380  137.7424  155.7554 H   0  0  0  0  0  0  0  0  0  0  0  0
  149.7055  137.4547  158.0967 H   0  0  0  0  0  0  0  0  0  0  0  0
  153.4048  142.9472  157.8751 H   0  0  0  0  0  0  0  0  0  0  0  0
  152.3424  145.2110  157.7462 H   0  0  0  0  0  0  0  0  0  0  0  0
  151.4106  146.2314  159.8432 H   0  0  0  0  0  0  0  0  0  0  0  0
  151.5858  144.9360  161.9837 H   0  0  0  0  0  0  0  0  0  0  0  0
  1  2  2  0  0  0  0
  2  3  1  0  0  0  0
  2 11  1  0  0  0  0
  3  4  1  0  0  0  0
  4 20  1  0  0  0  0
  4  9  1  0  0  0  0
  4  5  1  0  0  0  0
  5  6  1  0  0  0  0
  5 22  1  0  0  0  0
  5 23  1  0  0  0  0
  6  7  1  0  0  0  0
  6 24  1  0  0  0  0
  6 25  1  0  0  0  0
  7  8  1  0  0  0  0
  7 26  1  0  0  0  0
  7 27  1  0  0  0  0
  8  9  1  0  0  0  0
  8 28  1  0  0  0  0
  8 29  1  0  0  0  0
  9 21  1  0  0  0  0
  9 10  1  0  0  0  0
 10 30  1  0  0  0  0
 11 12  1  0  0  0  0
 11 13  1  0  0  0  0
 11 14  1  0  0  0  0
 14 19  1  0  0  0  0
 14 15  2  0  0  0  0
 15 16  1  0  0  0  0
 15 31  1  0  0  0  0
 16 17  2  0  0  0  0
 16 32  1  0  0  0  0
 17 18  1  0  0  0  0
 17 33  1  0  0  0  0
 18 19  2  0  0  0  0
 18 34  1  0  0  0  0
M  CHG  1   3  -1
M  END
> <s_m_source_file>
AV-unprocessed.smi

> <i_m_source_file_index>
2768

> <i_lp_mmshare_version>
43012

> <i_f3d_flags>
0

> <s_epik_input>
bjFbY0hdW2NIXVtjSF1bY0hdYzFDKEYpKEYpQyg9TylbTkhdW0NAQEhdMltDSDJdW0NIMl1bQ0gyXVtDSDJdW0NASF0yW09IXQ==

> <s_epik_cmdline>
J2VwaWtfcHl0aG9uJywgJy1waCcsICc3LjAnLCAnLXRuJywgJzgnLCAnLW1hJywgJzIwMCcsICctbWV0YWxfYmluZGluZycsICctaW1hZScsICc8aW5maWxlLm1hZT4nLCAnLW9tYWUnLCAnPG91dGZpbGUubWFlPic=

> <r_lp_tautomer_probability>
1

> <r_epik_Ionization_Penalty>
5.70553

> <r_epik_Ionization_Penalty_Charging>
5.70553

> <r_epik_Ionization_Penalty_Neutral>
5.5493e-06

> <r_epik_State_Penalty>
5.70549

> <r_epik_Charging_Adjusted_Penalty>
11.411

> <i_epik_Tot_Q>
-1

> <i_epik_Tot_abs_Q>
1

> <r_epik_Metal_State_Penalty>
1.6859

> <b_epik_Metal_Only>
1

> <s_lp_Force_Field>
OPLS_2005

> <r_lp_Energy>
26.4517

> <b_lp_Chiralities_Consistent>
1

> <s_lp_Variant>
AV-unprocessed.smi:2768-8

> <Gold.Version>
5.8.1

> <Gold.Id.Protein>
6NUR|6NUR_protein|mol2

> <Gold.PLP.Fitness>
43.4447

> <Gold.PLP.PLP>
-41.5199

> <Gold.PLP.part.hbond>
-1.0000

> <Gold.PLP.part.metal>
0.0000

> <Gold.PLP.part.buried>
-4.9484

> <Gold.PLP.part.nonpolar>
-35.0375

> <Gold.PLP.part.repulsive>
0.0792

> <Gold.PLP.ligand.clash>
0.0000

> <Gold.PLP.ligand.torsion>
0.5556

> <Gold.PLP.Chemscore.Hbond>
1.0000

> <Gold.PLP.Chemscore.CHOScore>
0.0000

> <Gold.PLP.Chemscore.Metal>
0.0000

> <Gold.Chemscore.Hbonds>
donor molecule, donor type, donor heavy atom, donor atom, acceptor molecule, acceptor atom, score
      P1  H  7997  8010       L1     1  1.00

> <Gold.PLP.Chemscore.Internal.Correction>
0.0360

> <Gold.Rescore>
     Score         DG    S(hbond)    S(metal)    S(lipo)     H(rot)  DE(clash)    DE(int)     intcor
     15.73     -16.16       1.00        0.00     105.45       1.95       0.06       0.37       ----

> <Gold.Chemscore.Fitness>
15.7250

> <Gold.Chemscore.DG>
-16.1570

> <Gold.Chemscore.ZeroCoef>
-5.4800

> <Gold.Chemscore.Hbond>
0.9977

> <Gold.Chemscore.Metal>
0.0000

> <Gold.Chemscore.Lipo>
105.4482

> <Gold.Chemscore.Internal_Hbond>
0.0000

> <Gold.Chemscore.DEClash>
0.0648

> <Gold.Chemscore.DEInternal>
0.3672

> <Gold.Chemscore.Rot>
1.9503

> <Gold.Chemscore.Internal.Correction>
   9.000000E+99

> <Gold.Chemscore.Hbonds>
donor molecule, donor type, donor heavy atom, donor atom, acceptor molecule, acceptor atom, score
      P1  H  7997  8010       L1     1  1.00

> <Gold.Chemscore.Hbond.Weighted>
-3.3324

> <Gold.Chemscore.Metal.Weighted>
-0.0000

> <Gold.Chemscore.Lipo.Weighted>
-12.3374

> <Gold.Chemscore.Internal_Hbond.Weighted>
0.0000

> <Gold.Chemscore.DEClash.Weighted>
0.0648

> <Gold.Chemscore.DEInternal.Weighted>
0.3672

> <Gold.Chemscore.Rot.Weighted>
4.9928

> <Gold.Chemscore.Internal.Correction.Weighted>
   9.000000E+99

> <Gold.Protein.RotatedTorsions>
[ 6907 6896 6895 6894 ] final   15.32 input  -60.11 | X-H torsion
[ 7974 7965 7964 7962 ] final  -77.24 input  175.53 | X-H torsion
[ 8008 7997 7996 7995 ] final   24.57 input   59.86 | X-H torsion
[ 10167 10162 10161 10158 ] final  128.61 input  -65.29 | X-H torsion
[ 10718 10713 10712 10709 ] final  174.76 input   66.30 | X-H torsion
[ 10763 10752 10751 10750 ] final -123.15 input  -60.55 | X-H torsion
[ 11005 11000 10999 10996 ] final   70.64 input  -57.11 | X-H torsion

> <Gold.Protein.ActiveResidues>
 VAL166  LYS551  ARG553  GLY616  TRP617  ASP618  TYR619  PRO620  LYS621  CYS622 
 ASP623  PHE694  ASN695  SER759  ASP760  ASP761  ALA762  ILE779  LEU786  VAL792 
 PHE793  MET794  SER795  GLU796  ALA797  LYS798  CYS799  TRP800  GLU811  SER814 

> <Gold.Protein.RotatedAtoms>
  151.8162  135.0666  160.0418 H   0  0  0  0  0  0  0  0  0  0  0  0  # atno 6907 bound_to 6896
  152.2984  133.5627  159.5611 H   0  0  0  0  0  0  0  0  0  0  0  0  # atno 6908 bound_to 6896
  150.7262  134.0243  159.3754 H   0  0  0  0  0  0  0  0  0  0  0  0  # atno 6909 bound_to 6896
  145.6024  140.9406  143.1234 H   0  0  0  0  0  0  0  0  0  0  0  0  # atno 7974 bound_to 7965
  154.9983  140.3122  155.4878 H   0  0  0  0  0  0  0  0  0  0  0  0  # atno 8008 bound_to 7997
  156.2929  140.2236  156.5032 H   0  0  0  0  0  0  0  0  0  0  0  0  # atno 8009 bound_to 7997
  154.7641  140.0457  157.0986 H   0  0  0  0  0  0  0  0  0  0  0  0  # atno 8010 bound_to 7997
  139.5519  144.6819  151.4299 H   0  0  0  0  0  0  0  0  0  0  0  0  # atno 10167 bound_to 10162
  156.9448  131.0013  151.2961 H   0  0  0  0  0  0  0  0  0  0  0  0  # atno 10718 bound_to 10713
  154.8703  135.4108  154.2897 H   0  0  0  0  0  0  0  0  0  0  0  0  # atno 10763 bound_to 10752
  153.3775  135.7010  153.6596 H   0  0  0  0  0  0  0  0  0  0  0  0  # atno 10764 bound_to 10752
  153.5432  135.3644  155.2699 H   0  0  0  0  0  0  0  0  0  0  0  0  # atno 10765 bound_to 10752
  139.9587  134.7099  156.0695 H   0  0  0  0  0  0  0  0  0  0  0  0  # atno 11005 bound_to 11000
  144.7304  139.7742  143.7349 LP  0  0  0  0  0  0  0  0  0  0  0  0  # atno 17320 bound_to 7965
  146.1566  139.4666  143.0014 LP  0  0  0  0  0  0  0  0  0  0  0  0  # atno 17321 bound_to 7965
  140.6783  143.8140  150.7087 LP  0  0  0  0  0  0  0  0  0  0  0  0  # atno 17342 bound_to 10162
  140.1585  143.4296  152.2083 LP  0  0  0  0  0  0  0  0  0  0  0  0  # atno 17343 bound_to 10162
  157.5761  130.8344  149.8457 LP  0  0  0  0  0  0  0  0  0  0  0  0  # atno 17370 bound_to 10713
  156.0388  130.3744  150.1489 LP  0  0  0  0  0  0  0  0  0  0  0  0  # atno 17371 bound_to 10713
  141.1261  133.6599  156.3341 LP  0  0  0  0  0  0  0  0  0  0  0  0  # atno 17394 bound_to 11000
  140.5550  134.5990  157.5418 LP  0  0  0  0  0  0  0  0  0  0  0  0  # atno 17395 bound_to 11000

$$$$
