AV-unprocessed.smi:72|AV-procd|sdf|740|dock1
  -GOLD-   2262017 73D 1   1.00000     0.00000
 Structure written by MMmdl.
 28 29  0  0  0  0  0  0  0  0  2 V2000
  152.8002  140.0521  159.4062 N   0  0  0  0  0  0  0  0  0  0  0  0
  152.1445  139.8171  158.3553 C   0  0  0  0  0  0  0  0  0  0  0  0
  150.7329  139.5130  158.4363 N   0  0  0  0  0  0  0  0  0  0  0  0
  150.0918  139.3131  157.3259 C   0  0  0  0  0  0  0  0  0  0  0  0
  150.7502  139.4057  156.0267 N   0  0  0  0  0  0  0  0  0  0  0  0
  150.0144  139.1765  154.7141 C   0  0  1  0  0  0  0  0  0  0  0  0
  149.2041  138.0392  154.8110 O   0  0  0  0  0  0  0  0  0  0  0  0
  147.8630  138.4246  155.0984 C   0  0  2  0  0  0  0  0  0  0  0  0
  146.8780  137.2821  154.7966 C   0  0  0  0  0  0  0  0  0  0  0  0
  146.9593  136.9260  153.4330 O   0  0  0  0  0  0  0  0  0  0  0  0
  147.7065  139.6846  154.2424 C   0  0  2  0  0  0  0  0  0  0  0  0
  147.4195  139.3392  152.8966 O   0  0  0  0  0  0  0  0  0  0  0  0
  149.0698  140.3582  154.3993 C   0  0  2  0  0  0  0  0  0  0  0  0
  149.4482  141.0903  153.2483 O   0  0  0  0  0  0  0  0  0  0  0  0
  152.1485  139.6583  155.9845 C   0  0  0  0  0  0  0  0  0  0  0  0
  152.7005  139.6828  154.8840 O   0  0  0  0  0  0  0  0  0  0  0  0
  152.8162  139.8605  157.1542 N   0  5  0  0  0  0  0  0  0  0  0  0
  150.7957  139.0057  153.9713 H   0  0  0  0  0  0  0  0  0  0  0  0
  147.7833  138.7169  156.1471 H   0  0  0  0  0  0  0  0  0  0  0  0
  146.9013  140.3234  154.6065 H   0  0  0  0  0  0  0  0  0  0  0  0
  149.0369  141.0330  155.2562 H   0  0  0  0  0  0  0  0  0  0  0  0
  153.7731  140.2497  159.2234 H   0  0  0  0  0  0  0  0  0  0  0  0
  149.0307  139.0655  157.3059 H   0  0  0  0  0  0  0  0  0  0  0  0
  147.1357  136.3990  155.3819 H   0  0  0  0  0  0  0  0  0  0  0  0
  145.8547  137.5580  155.0538 H   0  0  0  0  0  0  0  0  0  0  0  0
  147.8664  136.9617  153.1697 H   0  0  0  0  0  0  0  0  0  0  0  0
  148.2333  139.3310  152.4156 H   0  0  0  0  0  0  0  0  0  0  0  0
  149.7623  140.4771  152.6001 H   0  0  0  0  0  0  0  0  0  0  0  0
  1  2  2  0  0  0  0
  1 22  1  0  0  0  0
  2 17  1  0  0  0  0
  2  3  1  0  0  0  0
  3  4  2  0  0  0  0
  4  5  1  0  0  0  0
  4 23  1  0  0  0  0
  5  6  1  0  0  0  0
  5 15  1  0  0  0  0
  6 18  1  0  0  0  0
  6 13  1  0  0  0  0
  6  7  1  0  0  0  0
  7  8  1  0  0  0  0
  8 19  1  0  0  0  0
  8  9  1  0  0  0  0
  8 11  1  0  0  0  0
  9 10  1  0  0  0  0
  9 24  1  0  0  0  0
  9 25  1  0  0  0  0
 10 26  1  0  0  0  0
 11 20  1  0  0  0  0
 11 12  1  0  0  0  0
 11 13  1  0  0  0  0
 12 27  1  0  0  0  0
 13 21  1  0  0  0  0
 13 14  1  0  0  0  0
 14 28  1  0  0  0  0
 15 16  2  0  0  0  0
 15 17  1  0  0  0  0
M  CHG  1  17  -1
M  END
> <s_m_source_file>
AV-unprocessed.smi

> <i_m_source_file_index>
72

> <i_lp_mmshare_version>
43012

> <i_f3d_flags>
0

> <s_epik_input>
W05IMl1jMW5bY0hdbihjKD1PKW4xKVtDQEBIXTJPW0NASF0oW0NIMl1bT0hdKVtDQEBIXShbT0hdKVtDQEhdMltPSF0=

> <s_epik_cmdline>
J2VwaWtfcHl0aG9uJywgJy1waCcsICc3LjAnLCAnLXRuJywgJzgnLCAnLW1hJywgJzIwMCcsICctbWV0YWxfYmluZGluZycsICctaW1hZScsICc8aW5maWxlLm1hZT4nLCAnLW9tYWUnLCAnPG91dGZpbGUubWFlPic=

> <r_lp_tautomer_probability>
7.17554e-07

> <r_epik_Ionization_Penalty>
12.8705

> <r_epik_Ionization_Penalty_Charging>
5.64144

> <r_epik_Ionization_Penalty_Neutral>
7.22905

> <r_epik_State_Penalty>
3.30104

> <r_epik_Charging_Adjusted_Penalty>
8.94249

> <i_epik_Tot_Q>
-1

> <i_epik_Tot_abs_Q>
1

> <r_epik_Metal_State_Penalty>
0.529074

> <b_epik_Metal_Only>
1

> <s_epik_Chemistry_Notes>
This compound contains an acetal/aminal-like group ( X-CH(R)-Y where X, Y are N, S, or O) that may be acid/base labile, releasing an aldehyde.

> <s_lp_Force_Field>
OPLS_2005

> <r_lp_Energy>
36.2844

> <b_lp_Chiralities_Consistent>
1

> <s_lp_Variant>
AV-unprocessed.smi:72-78

> <Gold.Version>
5.8.1

> <Gold.Id.Protein>
6NUR|6NUR_protein|mol2

> <Gold.PLP.Fitness>
39.6890

> <Gold.PLP.PLP>
-22.8898

> <Gold.PLP.part.hbond>
-7.1496

> <Gold.PLP.part.metal>
0.0000

> <Gold.PLP.part.buried>
-3.8273

> <Gold.PLP.part.nonpolar>
-11.8663

> <Gold.PLP.part.repulsive>
0.1810

> <Gold.PLP.ligand.clash>
0.0000

> <Gold.PLP.ligand.torsion>
0.2733

> <Gold.PLP.Chemscore.Hbond>
5.7748

> <Gold.PLP.Chemscore.CHOScore>
0.0000

> <Gold.PLP.Chemscore.Metal>
0.0000

> <Gold.Chemscore.Hbonds>
donor molecule, donor type, donor heavy atom, donor atom, acceptor molecule, acceptor atom, score
      L1  H    10    26       P1  7948  0.77
      L1  H    12    27       P1  7957  1.00
      L1  H    14    28       P1  7957  0.83
      P1  H  7989  7998       L1    16  0.48
      P1  H  7997  8008       L1    17  2.00
      P1  H  8011  8017       L1    14  0.70

> <Gold.PLP.Chemscore.Internal.Correction>
0.0215

> <Gold.Rescore>
     Score         DG    S(hbond)    S(metal)    S(lipo)     H(rot)  DE(clash)    DE(int)     intcor
     10.37     -10.80       4.18        0.00      14.42       4.04       0.01       0.42       ----

> <Gold.Chemscore.Fitness>
10.3662

> <Gold.Chemscore.DG>
-10.7962

> <Gold.Chemscore.ZeroCoef>
-5.4800

> <Gold.Chemscore.Hbond>
4.1832

> <Gold.Chemscore.Metal>
0.0000

> <Gold.Chemscore.Lipo>
14.4221

> <Gold.Chemscore.Internal_Hbond>
0.0000

> <Gold.Chemscore.DEClash>
0.0073

> <Gold.Chemscore.DEInternal>
0.4227

> <Gold.Chemscore.Rot>
4.0403

> <Gold.Chemscore.Internal.Correction>
   9.000000E+99

> <Gold.Chemscore.Hbonds>
donor molecule, donor type, donor heavy atom, donor atom, acceptor molecule, acceptor atom, score
      L1  H    10    26       P1  7948  0.76
      L1  H    12    27       P1  7957  0.96
      L1  H    14    28       P1  7957  0.78
      P1  H  7989  7998       L1    16  0.39
      P1  H  7997  8008       L1    17  0.78
      P1  H  8011  8017       L1    14  0.07

> <Gold.Chemscore.Hbond.Weighted>
-13.9719

> <Gold.Chemscore.Metal.Weighted>
-0.0000

> <Gold.Chemscore.Lipo.Weighted>
-1.6874

> <Gold.Chemscore.Internal_Hbond.Weighted>
0.0000

> <Gold.Chemscore.DEClash.Weighted>
0.0073

> <Gold.Chemscore.DEInternal.Weighted>
0.4227

> <Gold.Chemscore.Rot.Weighted>
10.3431

> <Gold.Chemscore.Internal.Correction.Weighted>
   9.000000E+99

> <Gold.Protein.RotatedTorsions>
[ 6907 6896 6895 6894 ] final   95.08 input  -60.11 | X-H torsion
[ 7974 7965 7964 7962 ] final   75.11 input  175.53 | X-H torsion
[ 8008 7997 7996 7995 ] final  -77.87 input   59.86 | X-H torsion
[ 10167 10162 10161 10158 ] final  -53.36 input  -65.29 | X-H torsion
[ 10718 10713 10712 10709 ] final -148.47 input   66.30 | X-H torsion
[ 10763 10752 10751 10750 ] final   -5.19 input  -60.55 | X-H torsion
[ 11005 11000 10999 10996 ] final  -49.65 input  -57.11 | X-H torsion

> <Gold.Protein.ActiveResidues>
 VAL166  LYS551  ARG553  GLY616  TRP617  ASP618  TYR619  PRO620  LYS621  CYS622 
 ASP623  PHE694  ASN695  SER759  ASP760  ASP761  ALA762  ILE779  LEU786  VAL792 
 PHE793  MET794  SER795  GLU796  ALA797  LYS798  CYS799  TRP800  GLU811  SER814 

> <Gold.Protein.RotatedAtoms>
  152.5446  134.1095  159.8352 H   0  0  0  0  0  0  0  0  0  0  0  0  # atno 6907 bound_to 6896
  151.1164  133.5128  159.2611 H   0  0  0  0  0  0  0  0  0  0  0  0  # atno 6908 bound_to 6896
  151.1828  135.0378  159.8854 H   0  0  0  0  0  0  0  0  0  0  0  0  # atno 6909 bound_to 6896
  145.7198  139.2644  143.1603 H   0  0  0  0  0  0  0  0  0  0  0  0  # atno 7974 bound_to 7965
  154.5636  140.0703  156.8857 H   0  0  0  0  0  0  0  0  0  0  0  0  # atno 8008 bound_to 7997
  155.2764  140.3368  155.4243 H   0  0  0  0  0  0  0  0  0  0  0  0  # atno 8009 bound_to 7997
  156.2062  140.1741  156.7779 H   0  0  0  0  0  0  0  0  0  0  0  0  # atno 8010 bound_to 7997
  140.6489  143.2553  151.4781 H   0  0  0  0  0  0  0  0  0  0  0  0  # atno 10167 bound_to 10162
  156.4207  130.8027  151.2250 H   0  0  0  0  0  0  0  0  0  0  0  0  # atno 10718 bound_to 10713
  153.3951  135.7003  153.6466 H   0  0  0  0  0  0  0  0  0  0  0  0  # atno 10763 bound_to 10752
  153.5023  135.3649  155.2546 H   0  0  0  0  0  0  0  0  0  0  0  0  # atno 10764 bound_to 10752
  154.8706  135.4115  154.3275 H   0  0  0  0  0  0  0  0  0  0  0  0  # atno 10765 bound_to 10752
  141.0771  133.6663  156.3617 H   0  0  0  0  0  0  0  0  0  0  0  0  # atno 11005 bound_to 11000
  146.0636  140.7944  142.9722 LP  0  0  0  0  0  0  0  0  0  0  0  0  # atno 17320 bound_to 7965
  144.6920  140.3235  143.7228 LP  0  0  0  0  0  0  0  0  0  0  0  0  # atno 17321 bound_to 7965
  139.5702  144.1947  152.1825 LP  0  0  0  0  0  0  0  0  0  0  0  0  # atno 17342 bound_to 10162
  140.1241  144.5347  150.6844 LP  0  0  0  0  0  0  0  0  0  0  0  0  # atno 17343 bound_to 10162
  157.7508  131.0229  150.3811 LP  0  0  0  0  0  0  0  0  0  0  0  0  # atno 17370 bound_to 10713
  156.4128  130.3937  149.6879 LP  0  0  0  0  0  0  0  0  0  0  0  0  # atno 17371 bound_to 10713
  140.5549  134.5991  157.5418 LP  0  0  0  0  0  0  0  0  0  0  0  0  # atno 17394 bound_to 11000
  139.9584  134.7495  156.0291 LP  0  0  0  0  0  0  0  0  0  0  0  0  # atno 17395 bound_to 11000

$$$$
