AV-unprocessed.smi:99|AV-procd|sdf|865|dock10
  -GOLD-   2262017313D 1   1.00000     0.00000
 Structure written by MMmdl.
 53 56  0  0  0  0  0  0  0  0  1 V2000
  151.9755  137.1929  154.9209 O   0  0  0  0  0  0  0  0  0  0  0  0
  150.8341  137.4910  155.2769 C   0  0  0  0  0  0  0  0  0  0  0  0
  149.8610  136.5873  155.5025 O   0  0  0  0  0  0  0  0  0  0  0  0
  150.0126  135.2400  155.0845 C   0  0  0  0  0  0  0  0  0  0  0  0
  149.0484  134.3599  155.8900 C   0  0  2  0  0  0  0  0  0  0  0  0
  149.5947  134.0919  157.1781 O   0  0  0  0  0  0  0  0  0  0  0  0
  149.0831  132.8868  157.6779 C   0  0  1  0  0  0  0  0  0  0  0  0
  148.2333  133.1681  158.9012 N   0  0  0  0  0  0  0  0  0  0  0  0
  147.8906  134.4585  159.2862 C   0  0  0  0  0  0  0  0  0  0  0  0
  147.1255  134.7255  160.3712 C   0  0  0  0  0  0  0  0  0  0  0  0
  146.6123  133.6408  161.2019 C   0  0  0  0  0  0  0  0  0  0  0  0
  145.9159  133.7842  162.2044 O   0  0  0  0  0  0  0  0  0  0  0  0
  146.9725  132.3606  160.7719 N   0  0  0  0  0  0  0  0  0  0  0  0
  147.7566  132.0729  159.6538 C   0  0  0  0  0  0  0  0  0  0  0  0
  148.0022  130.9046  159.3554 O   0  0  0  0  0  0  0  0  0  0  0  0
  148.2942  132.2063  156.5340 C   0  0  1  0  0  0  0  0  0  0  0  0
  146.8889  132.3772  156.6534 O   0  0  0  0  0  0  0  0  0  0  0  0
  148.8446  132.9532  155.3295 C   0  0  1  0  0  0  0  0  0  0  0  0
  147.9708  132.8767  154.2055 O   0  0  0  0  0  0  0  0  0  0  0  0
  147.5309  131.6872  153.7378 C   0  0  0  0  0  0  0  0  0  0  0  0
  147.8612  130.5984  154.2112 O   0  0  0  0  0  0  0  0  0  0  0  0
  146.6341  131.8281  152.5559 C   0  0  0  0  0  0  0  0  0  0  0  0
  146.6943  133.0082  151.7786 C   0  0  0  0  0  0  0  0  0  0  0  0
  145.8412  133.1818  150.6716 C   0  0  0  0  0  0  0  0  0  0  0  0
  144.9198  132.1763  150.3270 C   0  0  0  0  0  0  0  0  0  0  0  0
  144.8524  130.9964  151.0904 C   0  0  0  0  0  0  0  0  0  0  0  0
  145.7035  130.8215  152.1990 C   0  0  0  0  0  0  0  0  0  0  0  0
  150.3713  138.8951  155.4753 C   0  0  0  0  0  0  0  0  0  0  0  0
  149.1911  139.3342  154.8318 C   0  0  0  0  0  0  0  0  0  0  0  0
  148.7172  140.6470  155.0208 C   0  0  0  0  0  0  0  0  0  0  0  0
  149.4185  141.5375  155.8543 C   0  0  0  0  0  0  0  0  0  0  0  0
  150.5966  141.1145  156.4964 C   0  0  0  0  0  0  0  0  0  0  0  0
  151.0723  139.8024  156.3079 C   0  0  0  0  0  0  0  0  0  0  0  0
  146.6331  131.5787  161.3133 H   0  0  0  0  0  0  0  0  0  0  0  0
  149.8130  135.1279  154.0177 H   0  0  0  0  0  0  0  0  0  0  0  0
  151.0437  134.9325  155.2608 H   0  0  0  0  0  0  0  0  0  0  0  0
  148.0888  134.8639  156.0177 H   0  0  0  0  0  0  0  0  0  0  0  0
  149.9343  132.2981  158.0255 H   0  0  0  0  0  0  0  0  0  0  0  0
  148.2340  135.3019  158.7069 H   0  0  0  0  0  0  0  0  0  0  0  0
  146.8896  135.7487  160.6259 H   0  0  0  0  0  0  0  0  0  0  0  0
  148.5240  131.1410  156.4992 H   0  0  0  0  0  0  0  0  0  0  0  0
  146.6088  133.0088  156.0088 H   0  0  0  0  0  0  0  0  0  0  0  0
  149.8223  132.5264  155.1005 H   0  0  0  0  0  0  0  0  0  0  0  0
  147.3874  133.7981  152.0293 H   0  0  0  0  0  0  0  0  0  0  0  0
  145.8921  134.0899  150.0891 H   0  0  0  0  0  0  0  0  0  0  0  0
  144.2648  132.3101  149.4787 H   0  0  0  0  0  0  0  0  0  0  0  0
  144.1454  130.2238  150.8270 H   0  0  0  0  0  0  0  0  0  0  0  0
  145.6238  129.9055  152.7656 H   0  0  0  0  0  0  0  0  0  0  0  0
  148.6319  138.6664  154.1922 H   0  0  0  0  0  0  0  0  0  0  0  0
  147.8123  140.9700  154.5273 H   0  0  0  0  0  0  0  0  0  0  0  0
  149.0529  142.5431  156.0014 H   0  0  0  0  0  0  0  0  0  0  0  0
  151.1345  141.7954  157.1397 H   0  0  0  0  0  0  0  0  0  0  0  0
  151.9756  139.5086  156.8222 H   0  0  0  0  0  0  0  0  0  0  0  0
  1  2  2  0  0  0  0
  2  3  1  0  0  0  0
  2 28  1  0  0  0  0
  3  4  1  0  0  0  0
  4  5  1  0  0  0  0
  4 35  1  0  0  0  0
  4 36  1  0  0  0  0
  5 18  1  0  0  0  0
  5  6  1  0  0  0  0
  5 37  1  0  0  0  0
  6  7  1  0  0  0  0
  7  8  1  0  0  0  0
  7 16  1  0  0  0  0
  7 38  1  0  0  0  0
  8 14  1  0  0  0  0
  8  9  1  0  0  0  0
  9 10  2  0  0  0  0
  9 39  1  0  0  0  0
 10 11  1  0  0  0  0
 10 40  1  0  0  0  0
 11 12  2  0  0  0  0
 11 13  1  0  0  0  0
 13 34  1  0  0  0  0
 13 14  1  0  0  0  0
 14 15  2  0  0  0  0
 16 17  1  0  0  0  0
 16 18  1  0  0  0  0
 16 41  1  0  0  0  0
 17 42  1  0  0  0  0
 18 19  1  0  0  0  0
 18 43  1  0  0  0  0
 19 20  1  0  0  0  0
 20 21  2  0  0  0  0
 20 22  1  0  0  0  0
 22 27  1  0  0  0  0
 22 23  2  0  0  0  0
 23 24  1  0  0  0  0
 23 44  1  0  0  0  0
 24 25  2  0  0  0  0
 24 45  1  0  0  0  0
 25 26  1  0  0  0  0
 25 46  1  0  0  0  0
 26 27  2  0  0  0  0
 26 47  1  0  0  0  0
 27 48  1  0  0  0  0
 28 33  1  0  0  0  0
 28 29  2  0  0  0  0
 29 30  1  0  0  0  0
 29 49  1  0  0  0  0
 30 31  2  0  0  0  0
 30 50  1  0  0  0  0
 31 32  1  0  0  0  0
 31 51  1  0  0  0  0
 32 33  2  0  0  0  0
 32 52  1  0  0  0  0
 33 53  1  0  0  0  0
M  END
> <s_m_source_file>
AV-unprocessed.smi

> <i_m_source_file_index>
99

> <i_lp_mmshare_version>
43012

> <i_f3d_flags>
0

> <s_epik_input>
W2NIXTFbY0hdW2NIXVtjSF1bY0hdYzFDKD1PKU9bQ0gyXVtDQEBIXTJPW0NAQEhdKG4zW2NIXVtjSF1jKD1PKVtuSF1jMz1PKVtDQEBIXShbT0hdKVtDQEhdMk9DKD1PKWM0W2NIXVtjSF1bY0hdW2NIXVtjSF00

> <s_epik_cmdline>
J2VwaWtfcHl0aG9uJywgJy1waCcsICc3LjAnLCAnLXRuJywgJzgnLCAnLW1hJywgJzIwMCcsICctbWV0YWxfYmluZGluZycsICctaW1hZScsICc8aW5maWxlLm1hZT4nLCAnLW9tYWUnLCAnPG91dGZpbGUubWFlPic=

> <r_lp_tautomer_probability>
1

> <r_epik_Ionization_Penalty>
0.00454555

> <r_epik_Ionization_Penalty_Charging>
0.0045191

> <r_epik_Ionization_Penalty_Neutral>
2.64449e-05

> <r_epik_State_Penalty>
-0

> <r_epik_Charging_Adjusted_Penalty>
0.0045191

> <i_epik_Tot_Q>
0

> <i_epik_Tot_abs_Q>
0

> <r_epik_Metal_State_Penalty>
1.27877

> <b_epik_Metal_Only>
0

> <s_epik_Chemistry_Notes>
This compound has an ester and may undergo hydrolysis at high or low pH. This compound contains an acetal/aminal-like group ( X-CH(R)-Y where X, Y are N, S, or O) that may be acid/base labile, releasing an aldehyde.

> <s_lp_Force_Field>
OPLS_2005

> <r_lp_Energy>
44.6164

> <b_lp_Chiralities_Consistent>
1

> <s_lp_Variant>
AV-unprocessed.smi:99-1

> <Gold.Version>
5.8.1

> <Gold.Id.Protein>
6NUR|6NUR_protein|mol2

> <Gold.PLP.Fitness>
48.4954

> <Gold.PLP.PLP>
-49.1268

> <Gold.PLP.part.hbond>
-1.0000

> <Gold.PLP.part.metal>
0.0000

> <Gold.PLP.part.buried>
-7.0523

> <Gold.PLP.part.nonpolar>
-42.1997

> <Gold.PLP.part.repulsive>
0.4593

> <Gold.PLP.ligand.clash>
0.0000

> <Gold.PLP.ligand.torsion>
1.7309

> <Gold.PLP.Chemscore.Hbond>
0.8640

> <Gold.PLP.Chemscore.CHOScore>
0.0000

> <Gold.PLP.Chemscore.Metal>
0.0000

> <Gold.Chemscore.Hbonds>
donor molecule, donor type, donor heavy atom, donor atom, acceptor molecule, acceptor atom, score
      P1  H 10752 10765       L1     1  0.86

> <Gold.PLP.Chemscore.Internal.Correction>
0.2384

> <Gold.Rescore>
     Score         DG    S(hbond)    S(metal)    S(lipo)     H(rot)  DE(clash)    DE(int)     intcor
     12.08     -13.92       0.91        0.00     115.96       3.19       0.08       1.76       ----

> <Gold.Chemscore.Fitness>
12.0751

> <Gold.Chemscore.DG>
-13.9173

> <Gold.Chemscore.ZeroCoef>
-5.4800

> <Gold.Chemscore.Hbond>
0.9093

> <Gold.Chemscore.Metal>
0.0000

> <Gold.Chemscore.Lipo>
115.9614

> <Gold.Chemscore.Internal_Hbond>
0.0000

> <Gold.Chemscore.DEClash>
0.0782

> <Gold.Chemscore.DEInternal>
1.7641

> <Gold.Chemscore.Rot>
3.1903

> <Gold.Chemscore.Internal.Correction>
   9.000000E+99

> <Gold.Chemscore.Hbonds>
donor molecule, donor type, donor heavy atom, donor atom, acceptor molecule, acceptor atom, score
      P1  H 10752 10765       L1     1  0.85

> <Gold.Chemscore.Hbond.Weighted>
-3.0369

> <Gold.Chemscore.Metal.Weighted>
-0.0000

> <Gold.Chemscore.Lipo.Weighted>
-13.5675

> <Gold.Chemscore.Internal_Hbond.Weighted>
0.0000

> <Gold.Chemscore.DEClash.Weighted>
0.0782

> <Gold.Chemscore.DEInternal.Weighted>
1.7641

> <Gold.Chemscore.Rot.Weighted>
8.1671

> <Gold.Chemscore.Internal.Correction.Weighted>
   9.000000E+99

> <Gold.Protein.RotatedTorsions>
[ 6907 6896 6895 6894 ] final   -2.10 input  -60.11 | X-H torsion
[ 7974 7965 7964 7962 ] final  101.85 input  175.53 | X-H torsion
[ 8008 7997 7996 7995 ] final  -81.53 input   59.86 | X-H torsion
[ 10167 10162 10161 10158 ] final  -41.55 input  -65.29 | X-H torsion
[ 10718 10713 10712 10709 ] final    1.25 input   66.30 | X-H torsion
[ 10763 10752 10751 10750 ] final  162.47 input  -60.55 | X-H torsion
[ 11005 11000 10999 10996 ] final   58.60 input  -57.11 | X-H torsion

> <Gold.Protein.ActiveResidues>
 VAL166  LYS551  ARG553  GLY616  TRP617  ASP618  TYR619  PRO620  LYS621  CYS622 
 ASP623  PHE694  ASN695  SER759  ASP760  ASP761  ALA762  ILE779  LEU786  VAL792 
 PHE793  MET794  SER795  GLU796  ALA797  LYS798  CYS799  TRP800  GLU811  SER814 

> <Gold.Protein.RotatedAtoms>
  151.5353  135.1068  159.9912 H   0  0  0  0  0  0  0  0  0  0  0  0  # atno 6907 bound_to 6896
  152.4560  133.7719  159.6814 H   0  0  0  0  0  0  0  0  0  0  0  0  # atno 6908 bound_to 6896
  150.8503  133.7731  159.3052 H   0  0  0  0  0  0  0  0  0  0  0  0  # atno 6909 bound_to 6896
  145.3669  139.2406  143.3476 H   0  0  0  0  0  0  0  0  0  0  0  0  # atno 7974 bound_to 7965
  154.5993  140.0646  156.9347 H   0  0  0  0  0  0  0  0  0  0  0  0  # atno 8008 bound_to 7997
  155.2159  140.3326  155.4304 H   0  0  0  0  0  0  0  0  0  0  0  0  # atno 8009 bound_to 7997
  156.2308  140.1840  156.7231 H   0  0  0  0  0  0  0  0  0  0  0  0  # atno 8010 bound_to 7997
  140.6999  143.3088  151.3082 H   0  0  0  0  0  0  0  0  0  0  0  0  # atno 10167 bound_to 10162
  156.8454  130.5535  149.5674 H   0  0  0  0  0  0  0  0  0  0  0  0  # atno 10718 bound_to 10713
  154.2789  135.2764  155.2706 H   0  0  0  0  0  0  0  0  0  0  0  0  # atno 10763 bound_to 10752
  154.5236  135.5749  153.6704 H   0  0  0  0  0  0  0  0  0  0  0  0  # atno 10764 bound_to 10752
  152.9932  135.6210  154.2947 H   0  0  0  0  0  0  0  0  0  0  0  0  # atno 10765 bound_to 10752
  140.0365  134.5935  155.9437 H   0  0  0  0  0  0  0  0  0  0  0  0  # atno 11005 bound_to 11000
  146.2903  140.4313  142.8742 LP  0  0  0  0  0  0  0  0  0  0  0  0  # atno 17320 bound_to 7965
  144.8605  140.7133  143.6110 LP  0  0  0  0  0  0  0  0  0  0  0  0  # atno 17321 bound_to 7965
  139.6504  144.0373  152.2622 LP  0  0  0  0  0  0  0  0  0  0  0  0  # atno 17342 bound_to 10162
  139.9908  144.6363  150.7816 LP  0  0  0  0  0  0  0  0  0  0  0  0  # atno 17343 bound_to 10162
  156.0857  130.5856  150.9644 LP  0  0  0  0  0  0  0  0  0  0  0  0  # atno 17370 bound_to 10713
  157.6333  131.0919  150.8399 LP  0  0  0  0  0  0  0  0  0  0  0  0  # atno 17371 bound_to 10713
  141.1860  133.6556  156.5222 LP  0  0  0  0  0  0  0  0  0  0  0  0  # atno 17394 bound_to 11000
  140.4139  134.7248  157.4851 LP  0  0  0  0  0  0  0  0  0  0  0  0  # atno 17395 bound_to 11000

$$$$
