AV-unprocessed.smi:1240|AV-procd|sdf|5214|dock5
  -GOLD-   22720 4313D 1   1.00000     0.00000
 Structure written by MMmdl.
 48 50  0  0  0  0  0  0  0  0  4 V2000
  152.4918  140.2088  157.1987 O   0  0  0  0  0  0  0  0  0  0  0  0
  151.7151  140.7994  156.4397 C   0  0  0  0  0  0  0  0  0  0  0  0
  151.2333  140.3661  155.2441 N   0  5  0  0  0  0  0  0  0  0  0  0
  150.3988  139.1788  155.0500 C   0  0  0  0  0  0  0  0  0  0  0  0
  149.0749  139.2768  155.8882 C   0  0  1  0  0  0  0  0  0  0  0  0
  147.8920  139.9961  155.1590 C   0  0  1  0  0  0  0  0  0  0  0  0
  148.1725  141.4527  154.8170 C   0  0  0  0  0  0  0  0  0  0  0  0
  147.0931  141.7622  153.7879 C   0  0  0  0  0  0  0  0  0  0  0  0
  146.9090  140.5538  153.0632 O   0  0  0  0  0  0  0  0  0  0  0  0
  147.5223  139.4726  153.7588 C   0  0  0  0  0  0  0  0  0  0  0  0
  148.5960  137.9617  156.4443 N   0  3  0  0  0  0  0  0  0  0  0  0
  148.1301  136.9205  155.4849 C   0  0  0  0  0  0  0  0  0  0  0  0
  147.4139  135.7942  156.2471 C   0  0  0  0  0  0  0  0  0  0  0  0
  148.2873  135.2499  157.2298 O   0  0  0  0  0  0  0  0  0  0  0  0
  148.6743  136.2166  158.1995 C   0  0  0  0  0  0  0  0  0  0  0  0
  149.4364  137.3636  157.5158 C   0  0  0  0  0  0  0  0  0  0  0  0
  151.2607  142.0263  156.7525 N   0  0  0  0  0  0  0  0  0  0  0  0
  151.5680  142.8294  157.8836 C   0  0  0  0  0  0  0  0  0  0  0  0
  151.9687  142.1707  159.0668 C   0  0  0  0  0  0  0  0  0  0  0  0
  152.2947  142.9305  160.2083 C   0  0  0  0  0  0  0  0  0  0  0  0
  152.2353  144.2787  160.1583 N   0  3  0  0  0  0  0  0  0  0  0  0
  151.8785  144.9530  159.0439 C   0  0  0  0  0  0  0  0  0  0  0  0
  151.5412  144.2468  157.8713 C   0  0  0  0  0  0  0  0  0  0  0  0
  150.1427  139.0376  154.0000 H   0  0  0  0  0  0  0  0  0  0  0  0
  150.9238  138.2664  155.3339 H   0  0  0  0  0  0  0  0  0  0  0  0
  149.2992  139.8826  156.7681 H   0  0  0  0  0  0  0  0  0  0  0  0
  146.9918  139.9696  155.7768 H   0  0  0  0  0  0  0  0  0  0  0  0
  148.1220  142.1175  155.6798 H   0  0  0  0  0  0  0  0  0  0  0  0
  149.1601  141.5550  154.3646 H   0  0  0  0  0  0  0  0  0  0  0  0
  146.1559  142.0163  154.2844 H   0  0  0  0  0  0  0  0  0  0  0  0
  147.3647  142.5880  153.1299 H   0  0  0  0  0  0  0  0  0  0  0  0
  148.4154  139.1793  153.2054 H   0  0  0  0  0  0  0  0  0  0  0  0
  146.8527  138.6130  153.7971 H   0  0  0  0  0  0  0  0  0  0  0  0
  147.4483  137.3500  154.7515 H   0  0  0  0  0  0  0  0  0  0  0  0
  148.9723  136.4995  154.9342 H   0  0  0  0  0  0  0  0  0  0  0  0
  146.5005  136.1621  156.7174 H   0  0  0  0  0  0  0  0  0  0  0  0
  147.1200  135.0022  155.5581 H   0  0  0  0  0  0  0  0  0  0  0  0
  147.7949  136.5929  158.7251 H   0  0  0  0  0  0  0  0  0  0  0  0
  149.3087  135.7357  158.9442 H   0  0  0  0  0  0  0  0  0  0  0  0
  150.3712  136.9837  157.1018 H   0  0  0  0  0  0  0  0  0  0  0  0
  149.6966  138.1206  158.2565 H   0  0  0  0  0  0  0  0  0  0  0  0
  150.7042  142.4732  156.0385 H   0  0  0  0  0  0  0  0  0  0  0  0
  152.0166  141.0918  159.1039 H   0  0  0  0  0  0  0  0  0  0  0  0
  152.5999  142.5032  161.1521 H   0  0  0  0  0  0  0  0  0  0  0  0
  151.8786  146.0306  159.1204 H   0  0  0  0  0  0  0  0  0  0  0  0
  151.2784  144.8004  156.9825 H   0  0  0  0  0  0  0  0  0  0  0  0
  147.7552  138.2295  156.9345 H   0  0  0  0  0  0  0  0  0  0  0  0
  152.4748  144.8102  160.9955 H   0  0  0  0  0  0  0  0  0  0  0  0
  1  2  2  0  0  0  0
  2  3  1  0  0  0  0
  2 17  1  0  0  0  0
  3  4  1  0  0  0  0
  4  5  1  0  0  0  0
  4 24  1  0  0  0  0
  4 25  1  0  0  0  0
  5  6  1  0  0  0  0
  5 11  1  0  0  0  0
  5 26  1  0  0  0  0
  6 10  1  0  0  0  0
  6  7  1  0  0  0  0
  6 27  1  0  0  0  0
  7  8  1  0  0  0  0
  7 28  1  0  0  0  0
  7 29  1  0  0  0  0
  8  9  1  0  0  0  0
  8 30  1  0  0  0  0
  8 31  1  0  0  0  0
  9 10  1  0  0  0  0
 10 32  1  0  0  0  0
 10 33  1  0  0  0  0
 11 16  1  0  0  0  0
 11 12  1  0  0  0  0
 11 47  1  0  0  0  0
 12 13  1  0  0  0  0
 12 34  1  0  0  0  0
 12 35  1  0  0  0  0
 13 14  1  0  0  0  0
 13 36  1  0  0  0  0
 13 37  1  0  0  0  0
 14 15  1  0  0  0  0
 15 16  1  0  0  0  0
 15 38  1  0  0  0  0
 15 39  1  0  0  0  0
 16 40  1  0  0  0  0
 16 41  1  0  0  0  0
 17 18  1  0  0  0  0
 17 42  1  0  0  0  0
 18 23  1  0  0  0  0
 18 19  2  0  0  0  0
 19 20  1  0  0  0  0
 19 43  1  0  0  0  0
 20 21  2  0  0  0  0
 20 44  1  0  0  0  0
 21 22  1  0  0  0  0
 21 48  1  0  0  0  0
 22 23  2  0  0  0  0
 22 45  1  0  0  0  0
 23 46  1  0  0  0  0
M  CHG  1   3  -1
M  CHG  1  11   1
M  CHG  1  21   1
M  END
> <s_m_source_file>
AV-unprocessed.smi

> <i_m_source_file_index>
1240

> <i_lp_mmshare_version>
43012

> <i_f3d_flags>
0

> <s_epik_input>
W2NIXTFbY0hdbltjSF1bY0hdYzFbTkhdQyg9TylbTkhdW0NIMl1bQ0BIXShbQ0BASF0yW0NIMl1bQ0gyXU9bQ0gyXTIpTjNbQ0gyXVtDSDJdT1tDSDJdW0NIMl0z

> <s_epik_cmdline>
J2VwaWtfcHl0aG9uJywgJy1waCcsICc3LjAnLCAnLXRuJywgJzgnLCAnLW1hJywgJzIwMCcsICctbWV0YWxfYmluZGluZycsICctaW1hZScsICc8aW5maWxlLm1hZT4nLCAnLW9tYWUnLCAnPG91dGZpbGUubWFlPic=

> <r_epik_Ionization_Penalty>
8.41087

> <r_epik_Ionization_Penalty_Charging>
8.41087

> <r_epik_Ionization_Penalty_Neutral>
3.12936e-06

> <r_epik_State_Penalty>
8.81894

> <r_epik_Charging_Adjusted_Penalty>
17.2298

> <i_epik_Tot_Q>
1

> <i_epik_Tot_abs_Q>
3

> <r_epik_Metal_State_Penalty>
4.82983

> <b_epik_Metal_Only>
1

> <s_lp_Force_Field>
OPLS_2005

> <r_lp_Energy>
49.5446

> <b_lp_Chiralities_Consistent>
1

> <s_lp_Variant>
AV-unprocessed.smi:1240-20

> <Gold.Version>
5.8.1

> <Gold.Id.Protein>
6NUR|6NUR_protein|mol2

> <Gold.PLP.Fitness>
37.5436

> <Gold.PLP.PLP>
-33.8221

> <Gold.PLP.part.hbond>
-2.0000

> <Gold.PLP.part.metal>
0.0000

> <Gold.PLP.part.buried>
-5.5981

> <Gold.PLP.part.nonpolar>
-26.1359

> <Gold.PLP.part.repulsive>
0.3583

> <Gold.PLP.ligand.clash>
0.0000

> <Gold.PLP.ligand.torsion>
1.3966

> <Gold.PLP.Chemscore.Hbond>
2.0000

> <Gold.PLP.Chemscore.CHOScore>
0.0000

> <Gold.PLP.Chemscore.Metal>
0.0000

> <Gold.Chemscore.Hbonds>
donor molecule, donor type, donor heavy atom, donor atom, acceptor molecule, acceptor atom, score
      P1  H  7989  7998       L1     3  0.99
      P1  H  7997  8009       L1     1  1.00

> <Gold.PLP.Chemscore.Internal.Correction>
0.5147

> <Gold.Rescore>
     Score         DG    S(hbond)    S(metal)    S(lipo)     H(rot)  DE(clash)    DE(int)     intcor
     15.26     -18.15       1.85        0.00      92.63       1.70       0.07       2.82       ----

> <Gold.Chemscore.Fitness>
15.2626

> <Gold.Chemscore.DG>
-18.1546

> <Gold.Chemscore.ZeroCoef>
-5.4800

> <Gold.Chemscore.Hbond>
1.8547

> <Gold.Chemscore.Metal>
0.0000

> <Gold.Chemscore.Lipo>
92.6276

> <Gold.Chemscore.Internal_Hbond>
0.0000

> <Gold.Chemscore.DEClash>
0.0732

> <Gold.Chemscore.DEInternal>
2.8188

> <Gold.Chemscore.Rot>
1.7021

> <Gold.Chemscore.Internal.Correction>
   9.000000E+99

> <Gold.Chemscore.Hbonds>
donor molecule, donor type, donor heavy atom, donor atom, acceptor molecule, acceptor atom, score
      P1  H  7989  7998       L1     3  0.37
      P1  H  7997  8009       L1     1  0.88

> <Gold.Chemscore.Hbond.Weighted>
-6.1947

> <Gold.Chemscore.Metal.Weighted>
-0.0000

> <Gold.Chemscore.Lipo.Weighted>
-10.8374

> <Gold.Chemscore.Internal_Hbond.Weighted>
0.0000

> <Gold.Chemscore.DEClash.Weighted>
0.0732

> <Gold.Chemscore.DEInternal.Weighted>
2.8188

> <Gold.Chemscore.Rot.Weighted>
4.3575

> <Gold.Chemscore.Internal.Correction.Weighted>
   9.000000E+99

> <Gold.Protein.RotatedTorsions>
[ 6907 6896 6895 6894 ] final  -93.75 input  -60.11 | X-H torsion
[ 7974 7965 7964 7962 ] final -166.33 input  175.53 | X-H torsion
[ 8008 7997 7996 7995 ] final -178.46 input   59.86 | X-H torsion
[ 10167 10162 10161 10158 ] final   17.35 input  -65.29 | X-H torsion
[ 10718 10713 10712 10709 ] final    8.91 input   66.30 | X-H torsion
[ 10763 10752 10751 10750 ] final  129.59 input  -60.55 | X-H torsion
[ 11005 11000 10999 10996 ] final  144.71 input  -57.11 | X-H torsion

> <Gold.Protein.ActiveResidues>
 VAL166  LYS551  ARG553  GLY616  TRP617  ASP618  TYR619  PRO620  LYS621  CYS622 
 ASP623  PHE694  ASN695  SER759  ASP760  ASP761  ALA762  ILE779  LEU786  VAL792 
 PHE793  MET794  SER795  GLU796  ALA797  LYS798  CYS799  TRP800  GLU811  SER814 

> <Gold.Protein.RotatedAtoms>
  150.6928  134.1919  159.4288 H   0  0  0  0  0  0  0  0  0  0  0  0  # atno 6907 bound_to 6896
  151.9889  134.9987  160.0570 H   0  0  0  0  0  0  0  0  0  0  0  0  # atno 6908 bound_to 6896
  152.1685  133.4593  159.4934 H   0  0  0  0  0  0  0  0  0  0  0  0  # atno 6909 bound_to 6896
  144.7248  140.2682  143.6254 H   0  0  0  0  0  0  0  0  0  0  0  0  # atno 7974 bound_to 7965
  156.0191  140.1257  157.0376 H   0  0  0  0  0  0  0  0  0  0  0  0  # atno 8008 bound_to 7997
  154.4304  140.1072  156.6008 H   0  0  0  0  0  0  0  0  0  0  0  0  # atno 8009 bound_to 7997
  155.5971  140.3470  155.4585 H   0  0  0  0  0  0  0  0  0  0  0  0  # atno 8010 bound_to 7997
  140.5732  143.9122  150.6729 H   0  0  0  0  0  0  0  0  0  0  0  0  # atno 10167 bound_to 10162
  156.9586  130.5924  149.5661 H   0  0  0  0  0  0  0  0  0  0  0  0  # atno 10718 bound_to 10713
  153.7443  135.3219  155.3309 H   0  0  0  0  0  0  0  0  0  0  0  0  # atno 10763 bound_to 10752
  154.8285  135.4552  154.0996 H   0  0  0  0  0  0  0  0  0  0  0  0  # atno 10764 bound_to 10752
  153.2179  135.6944  153.8117 H   0  0  0  0  0  0  0  0  0  0  0  0  # atno 10765 bound_to 10752
  140.0654  134.9181  157.1255 H   0  0  0  0  0  0  0  0  0  0  0  0  # atno 11005 bound_to 11000
  145.8068  139.1987  143.2016 LP  0  0  0  0  0  0  0  0  0  0  0  0  # atno 17320 bound_to 7965
  146.0629  140.7951  142.9726 LP  0  0  0  0  0  0  0  0  0  0  0  0  # atno 17321 bound_to 7965
  140.2602  143.3529  152.1329 LP  0  0  0  0  0  0  0  0  0  0  0  0  # atno 17342 bound_to 10162
  139.5128  144.6923  151.5725 LP  0  0  0  0  0  0  0  0  0  0  0  0  # atno 17343 bound_to 10162
  156.0332  130.5421  150.8587 LP  0  0  0  0  0  0  0  0  0  0  0  0  # atno 17370 bound_to 10713
  157.5673  131.0946  150.9470 LP  0  0  0  0  0  0  0  0  0  0  0  0  # atno 17371 bound_to 10713
  140.3707  134.2393  155.7178 LP  0  0  0  0  0  0  0  0  0  0  0  0  # atno 17394 bound_to 11000
  141.1990  133.8021  157.0554 LP  0  0  0  0  0  0  0  0  0  0  0  0  # atno 17395 bound_to 11000

$$$$
