AV-unprocessed.smi:2605|AV-procd|sdf|10193|dock4
  -GOLD-   2272014203D 1   1.00000     0.00000
 Structure written by MMmdl.
 26 27  0  0  0  0  0  0  0  0  2 V2000
  150.9225  139.5464  155.1715 C   0  0  0  0  0  0  0  0  0  0  0  0
  149.7611  139.1054  154.5059 C   0  0  0  0  0  0  0  0  0  0  0  0
  148.7179  140.0288  154.2860 C   0  0  0  0  0  0  0  0  0  0  0  0
  147.4508  139.5976  153.5647 C   0  0  2  0  0  0  0  0  0  0  0  0
  146.5099  138.8114  154.5058 C   0  0  0  0  0  0  0  0  0  0  0  0
  145.2672  138.4358  153.8004 N   0  3  0  0  0  0  0  0  0  0  0  0
  145.5628  137.6814  152.5664 C   0  0  0  0  0  0  0  0  0  0  0  0
  146.5097  138.4954  151.6661 C   0  0  0  0  0  0  0  0  0  0  0  0
  147.7465  138.7842  152.3852 N   0  0  0  0  0  0  0  0  0  0  0  0
  148.8900  141.3552  154.7385 C   0  0  0  0  0  0  0  0  0  0  0  0
  150.0909  141.6934  155.3937 C   0  0  0  0  0  0  0  0  0  0  0  0
  151.0909  140.8125  155.6090 N   0  0  0  0  0  0  0  0  0  0  0  0
  151.7383  138.8633  155.3568 H   0  0  0  0  0  0  0  0  0  0  0  0
  149.6783  138.0803  154.1756 H   0  0  0  0  0  0  0  0  0  0  0  0
  146.9424  140.5025  153.2274 H   0  0  0  0  0  0  0  0  0  0  0  0
  146.9980  137.9100  154.8801 H   0  0  0  0  0  0  0  0  0  0  0  0
  146.2483  139.4164  155.3745 H   0  0  0  0  0  0  0  0  0  0  0  0
  144.6904  137.8738  154.4099 H   0  0  0  0  0  0  0  0  0  0  0  0
  146.0095  136.7199  152.8240 H   0  0  0  0  0  0  0  0  0  0  0  0
  144.6290  137.4718  152.0443 H   0  0  0  0  0  0  0  0  0  0  0  0
  146.7491  137.9289  150.7658 H   0  0  0  0  0  0  0  0  0  0  0  0
  146.0390  139.4252  151.3433 H   0  0  0  0  0  0  0  0  0  0  0  0
  148.3873  139.2830  151.7833 H   0  0  0  0  0  0  0  0  0  0  0  0
  148.1219  142.1000  154.5903 H   0  0  0  0  0  0  0  0  0  0  0  0
  150.2524  142.6987  155.7534 H   0  0  0  0  0  0  0  0  0  0  0  0
  144.7673  139.2778  153.5532 H   0  0  0  0  0  0  0  0  0  0  0  0
  1 12  1  0  0  0  0
  1  2  2  0  0  0  0
  1 13  1  0  0  0  0
  2  3  1  0  0  0  0
  2 14  1  0  0  0  0
  3  4  1  0  0  0  0
  3 10  2  0  0  0  0
  4  9  1  0  0  0  0
  4  5  1  0  0  0  0
  4 15  1  0  0  0  0
  5  6  1  0  0  0  0
  5 16  1  0  0  0  0
  5 17  1  0  0  0  0
  6  7  1  0  0  0  0
  6 18  1  0  0  0  0
  6 26  1  0  0  0  0
  7  8  1  0  0  0  0
  7 19  1  0  0  0  0
  7 20  1  0  0  0  0
  8  9  1  0  0  0  0
  8 21  1  0  0  0  0
  8 22  1  0  0  0  0
  9 23  1  0  0  0  0
 10 11  1  0  0  0  0
 10 24  1  0  0  0  0
 11 12  2  0  0  0  0
 11 25  1  0  0  0  0
M  CHG  1   6   1
M  END
> <s_m_source_file>
AV-unprocessed.smi

> <i_m_source_file_index>
2605

> <i_lp_mmshare_version>
43012

> <i_f3d_flags>
0

> <s_epik_input>
W2NIXTFbY0hdbltjSF1bY0hdYzFbQ0BASF0yW0NIMl1bTkhdW0NIMl1bQ0gyXVtOSF0y

> <s_epik_cmdline>
J2VwaWtfcHl0aG9uJywgJy1waCcsICc3LjAnLCAnLXRuJywgJzgnLCAnLW1hJywgJzIwMCcsICctbWV0YWxfYmluZGluZycsICctaW1hZScsICc8aW5maWxlLm1hZT4nLCAnLW9tYWUnLCAnPG91dGZpbGUubWFlPic=

> <r_epik_Ionization_Penalty>
0.0197506

> <r_epik_Ionization_Penalty_Charging>
0.010317

> <r_epik_Ionization_Penalty_Neutral>
0.00943359

> <r_epik_State_Penalty>
0.319455

> <r_epik_Charging_Adjusted_Penalty>
0.329772

> <i_epik_Tot_Q>
1

> <i_epik_Tot_abs_Q>
1

> <r_epik_Metal_State_Penalty>
0.318246

> <b_epik_Metal_Only>
0

> <s_lp_Force_Field>
OPLS_2005

> <r_lp_Energy>
9.79217

> <b_lp_Chiralities_Consistent>
1

> <s_lp_Variant>
AV-unprocessed.smi:2605-1

> <Gold.Version>
5.8.1

> <Gold.Id.Protein>
6NUR|6NUR_protein|mol2

> <Gold.PLP.Fitness>
35.9409

> <Gold.PLP.PLP>
-24.8274

> <Gold.PLP.part.hbond>
-4.0000

> <Gold.PLP.part.metal>
0.0000

> <Gold.PLP.part.buried>
-0.6835

> <Gold.PLP.part.nonpolar>
-20.4409

> <Gold.PLP.part.repulsive>
0.0359

> <Gold.PLP.ligand.clash>
0.0000

> <Gold.PLP.ligand.torsion>
0.4469

> <Gold.PLP.Chemscore.Hbond>
3.0000

> <Gold.PLP.Chemscore.CHOScore>
1.0000

> <Gold.PLP.Chemscore.Metal>
0.0000

> <Gold.Chemscore.Hbonds>
donor molecule, donor type, donor heavy atom, donor atom, acceptor molecule, acceptor atom, score
      L1  H     6    26       P1 10175  2.00
      L1  H     9    23       P1  7957  1.00
      L1  C    11    25       P1  8028  1.00

> <Gold.PLP.Chemscore.Internal.Correction>
0.0074

> <Gold.Rescore>
     Score         DG    S(hbond)    S(metal)    S(lipo)     H(rot)  DE(clash)    DE(int)     intcor
     16.02     -16.38       1.94        0.00      59.65       1.00       0.07       0.29       ----

> <Gold.Chemscore.Fitness>
16.0201

> <Gold.Chemscore.DG>
-16.3828

> <Gold.Chemscore.ZeroCoef>
-5.4800

> <Gold.Chemscore.Hbond>
1.9412

> <Gold.Chemscore.Metal>
0.0000

> <Gold.Chemscore.Lipo>
59.6509

> <Gold.Chemscore.Internal_Hbond>
0.0000

> <Gold.Chemscore.DEClash>
0.0701

> <Gold.Chemscore.DEInternal>
0.2925

> <Gold.Chemscore.Rot>
1.0000

> <Gold.Chemscore.Internal.Correction>
   9.000000E+99

> <Gold.Chemscore.Hbonds>
donor molecule, donor type, donor heavy atom, donor atom, acceptor molecule, acceptor atom, score
      L1  H     6    26       P1 10175  0.98
      L1  H     9    23       P1  7957  0.92

> <Gold.Chemscore.Hbond.Weighted>
-6.4836

> <Gold.Chemscore.Metal.Weighted>
-0.0000

> <Gold.Chemscore.Lipo.Weighted>
-6.9792

> <Gold.Chemscore.Internal_Hbond.Weighted>
0.0000

> <Gold.Chemscore.DEClash.Weighted>
0.0701

> <Gold.Chemscore.DEInternal.Weighted>
0.2925

> <Gold.Chemscore.Rot.Weighted>
2.5600

> <Gold.Chemscore.Internal.Correction.Weighted>
   9.000000E+99

> <Gold.Protein.RotatedTorsions>
[ 6907 6896 6895 6894 ] final    6.53 input  -60.11 | X-H torsion
[ 7974 7965 7964 7962 ] final  -54.47 input  175.53 | X-H torsion
[ 8008 7997 7996 7995 ] final -128.22 input   59.86 | X-H torsion
[ 10167 10162 10161 10158 ] final  173.07 input  -65.29 | X-H torsion
[ 10718 10713 10712 10709 ] final -132.61 input   66.30 | X-H torsion
[ 10763 10752 10751 10750 ] final  -95.93 input  -60.55 | X-H torsion
[ 11005 11000 10999 10996 ] final   -4.66 input  -57.11 | X-H torsion

> <Gold.Protein.ActiveResidues>
 VAL166  LYS551  ARG553  GLY616  TRP617  ASP618  TYR619  PRO620  LYS621  CYS622 
 ASP623  PHE694  ASN695  SER759  ASP760  ASP761  ALA762  ILE779  LEU786  VAL792 
 PHE793  MET794  SER795  GLU796  ALA797  LYS798  CYS799  TRP800  GLU811  SER814 

> <Gold.Protein.RotatedAtoms>
  151.6751  135.0970  160.0205 H   0  0  0  0  0  0  0  0  0  0  0  0  # atno 6907 bound_to 6896
  152.3868  133.6619  159.6214 H   0  0  0  0  0  0  0  0  0  0  0  0  # atno 6908 bound_to 6896
  150.7792  133.8938  159.3362 H   0  0  0  0  0  0  0  0  0  0  0  0  # atno 6909 bound_to 6896
  145.8852  140.8114  142.9820 H   0  0  0  0  0  0  0  0  0  0  0  0  # atno 7974 bound_to 7965
  155.2591  140.0435  157.2995 H   0  0  0  0  0  0  0  0  0  0  0  0  # atno 8008 bound_to 7997
  154.5722  140.2377  155.8144 H   0  0  0  0  0  0  0  0  0  0  0  0  # atno 8009 bound_to 7997
  156.2131  140.2993  155.9785 H   0  0  0  0  0  0  0  0  0  0  0  0  # atno 8010 bound_to 7997
  139.5096  144.3303  152.0118 H   0  0  0  0  0  0  0  0  0  0  0  0  # atno 10167 bound_to 10162
  156.2364  130.7069  151.0911 H   0  0  0  0  0  0  0  0  0  0  0  0  # atno 10718 bound_to 10713
  154.7193  135.5102  153.8787 H   0  0  0  0  0  0  0  0  0  0  0  0  # atno 10763 bound_to 10752
  153.0848  135.6642  153.9980 H   0  0  0  0  0  0  0  0  0  0  0  0  # atno 10764 bound_to 10752
  153.9806  135.3029  155.3400 H   0  0  0  0  0  0  0  0  0  0  0  0  # atno 10765 bound_to 10752
  140.6826  133.9140  155.8565 H   0  0  0  0  0  0  0  0  0  0  0  0  # atno 11005 bound_to 11000
  144.6728  140.1444  143.7434 LP  0  0  0  0  0  0  0  0  0  0  0  0  # atno 17320 bound_to 7965
  145.8976  139.2411  143.1513 LP  0  0  0  0  0  0  0  0  0  0  0  0  # atno 17321 bound_to 7965
  140.2743  144.3930  150.6140 LP  0  0  0  0  0  0  0  0  0  0  0  0  # atno 17342 bound_to 10162
  140.6066  143.2168  151.6969 LP  0  0  0  0  0  0  0  0  0  0  0  0  # atno 17343 bound_to 10162
  157.7156  131.0711  150.6339 LP  0  0  0  0  0  0  0  0  0  0  0  0  # atno 17370 bound_to 10713
  156.6410  130.4458  149.5752 LP  0  0  0  0  0  0  0  0  0  0  0  0  # atno 17371 bound_to 10713
  141.0305  134.0763  157.4019 LP  0  0  0  0  0  0  0  0  0  0  0  0  # atno 17394 bound_to 11000
  139.8947  135.0137  156.6964 LP  0  0  0  0  0  0  0  0  0  0  0  0  # atno 17395 bound_to 11000

$$$$
