AV-unprocessed.smi:33|AV-procd|sdf|214|dock5
  -GOLD-   2262015523D 1   1.00000     0.00000
 Structure written by MMmdl.
 67 72  0  0  0  0  0  0  0  0  1 V2000
  147.7377  142.8603  159.6342 O   0  0  0  0  0  0  0  0  0  0  0  0
  148.6004  142.9187  158.7559 C   0  0  0  0  0  0  0  0  0  0  0  0
  148.4703  142.3526  157.5440 O   0  0  0  0  0  0  0  0  0  0  0  0
  147.2223  141.8320  157.1185 C   0  0  0  0  0  0  0  0  0  0  0  0
  147.5067  140.8150  156.0100 C   0  0  1  0  0  0  0  0  0  0  0  0
  146.3766  139.9751  155.8004 O   0  0  0  0  0  0  0  0  0  0  0  0
  146.4499  139.4050  154.5289 C   0  0  2  0  0  0  0  0  0  0  0  0
  146.7645  137.9391  154.6411 N   0  0  0  0  0  0  0  0  0  0  0  0
  146.0679  136.9082  154.0491 C   0  0  0  0  0  0  0  0  0  0  0  0
  146.5189  135.7082  154.2924 N   0  0  0  0  0  0  0  0  0  0  0  0
  147.6092  135.9254  155.1224 C   0  0  0  0  0  0  0  0  0  0  0  0
  148.5466  135.0683  155.7570 C   0  0  0  0  0  0  0  0  0  0  0  0
  148.5027  133.7234  155.6344 N   0  0  0  0  0  0  0  0  0  0  0  0
  147.6509  132.9994  156.5879 C   0  0  0  0  0  0  0  0  0  0  0  0
  147.1929  131.8971  156.2807 O   0  0  0  0  0  0  0  0  0  0  0  0
  147.3040  133.6109  157.9151 C   0  0  0  0  0  0  0  0  0  0  0  0
  146.0136  133.4333  158.4607 C   0  0  0  0  0  0  0  0  0  0  0  0
  145.6900  133.9918  159.7125 C   0  0  0  0  0  0  0  0  0  0  0  0
  146.6596  134.7133  160.4348 C   0  0  0  0  0  0  0  0  0  0  0  0
  147.9562  134.8696  159.9092 C   0  0  0  0  0  0  0  0  0  0  0  0
  148.2801  134.3136  158.6568 C   0  0  0  0  0  0  0  0  0  0  0  0
  149.3000  133.1225  154.5555 C   0  0  0  0  0  0  0  0  0  0  0  0
  149.6194  133.8079  153.5822 O   0  0  0  0  0  0  0  0  0  0  0  0
  149.6829  131.6705  154.6045 C   0  0  0  0  0  0  0  0  0  0  0  0
  149.0486  130.7449  153.7470 C   0  0  0  0  0  0  0  0  0  0  0  0
  149.4096  129.3839  153.7792 C   0  0  0  0  0  0  0  0  0  0  0  0
  150.4203  128.9433  154.6545 C   0  0  0  0  0  0  0  0  0  0  0  0
  151.0774  129.8657  155.4909 C   0  0  0  0  0  0  0  0  0  0  0  0
  150.7161  131.2267  155.4605 C   0  0  0  0  0  0  0  0  0  0  0  0
  149.5205  135.6293  156.5171 N   0  0  0  0  0  0  0  0  0  0  0  0
  149.5647  136.9567  156.6549 C   0  0  0  0  0  0  0  0  0  0  0  0
  148.7535  137.8767  156.1283 N   0  0  0  0  0  0  0  0  0  0  0  0
  147.7775  137.3189  155.3531 C   0  0  0  0  0  0  0  0  0  0  0  0
  147.5135  140.1927  153.7288 C   0  0  2  0  0  0  0  0  0  0  0  0
  148.7223  139.4870  153.5049 O   0  0  0  0  0  0  0  0  0  0  0  0
  147.7588  141.3984  154.6229 C   0  0  1  0  0  0  0  0  0  0  0  0
  146.8688  142.3534  154.3452 F   0  0  0  0  0  0  0  0  0  0  0  0
  149.9034  143.6258  158.9207 C   0  0  0  0  0  0  0  0  0  0  0  0
  150.9705  143.3322  158.0402 C   0  0  0  0  0  0  0  0  0  0  0  0
  152.2103  143.9876  158.1732 C   0  0  0  0  0  0  0  0  0  0  0  0
  152.3976  144.9453  159.1870 C   0  0  0  0  0  0  0  0  0  0  0  0
  151.3431  145.2480  160.0680 C   0  0  0  0  0  0  0  0  0  0  0  0
  150.1032  144.5933  159.9368 C   0  0  0  0  0  0  0  0  0  0  0  0
  146.6919  141.3627  157.9482 H   0  0  0  0  0  0  0  0  0  0  0  0
  146.6024  142.6449  156.7386 H   0  0  0  0  0  0  0  0  0  0  0  0
  148.3720  140.2114  156.2855 H   0  0  0  0  0  0  0  0  0  0  0  0
  145.4619  139.4319  154.0679 H   0  0  0  0  0  0  0  0  0  0  0  0
  145.2047  137.0779  153.4220 H   0  0  0  0  0  0  0  0  0  0  0  0
  145.2621  132.8811  157.9149 H   0  0  0  0  0  0  0  0  0  0  0  0
  144.6975  133.8653  160.1194 H   0  0  0  0  0  0  0  0  0  0  0  0
  146.4109  135.1408  161.3948 H   0  0  0  0  0  0  0  0  0  0  0  0
  148.7034  135.4147  160.4666 H   0  0  0  0  0  0  0  0  0  0  0  0
  149.2800  134.4351  158.2648 H   0  0  0  0  0  0  0  0  0  0  0  0
  148.2712  131.0718  153.0714 H   0  0  0  0  0  0  0  0  0  0  0  0
  148.9110  128.6784  153.1311 H   0  0  0  0  0  0  0  0  0  0  0  0
  150.6959  127.8993  154.6795 H   0  0  0  0  0  0  0  0  0  0  0  0
  151.8590  129.5295  156.1561 H   0  0  0  0  0  0  0  0  0  0  0  0
  151.2296  131.9262  156.1045 H   0  0  0  0  0  0  0  0  0  0  0  0
  150.3631  137.3366  157.2751 H   0  0  0  0  0  0  0  0  0  0  0  0
  147.1023  140.4825  152.7611 H   0  0  0  0  0  0  0  0  0  0  0  0
  148.9526  139.5678  152.5920 H   0  0  0  0  0  0  0  0  0  0  0  0
  148.7516  141.8365  154.5106 H   0  0  0  0  0  0  0  0  0  0  0  0
  150.8498  142.6010  157.2540 H   0  0  0  0  0  0  0  0  0  0  0  0
  153.0184  143.7548  157.4956 H   0  0  0  0  0  0  0  0  0  0  0  0
  153.3480  145.4481  159.2876 H   0  0  0  0  0  0  0  0  0  0  0  0
  151.4832  145.9849  160.8453 H   0  0  0  0  0  0  0  0  0  0  0  0
  149.3136  144.8524  160.6265 H   0  0  0  0  0  0  0  0  0  0  0  0
  1  2  2  0  0  0  0
  2  3  1  0  0  0  0
  2 38  1  0  0  0  0
  3  4  1  0  0  0  0
  4  5  1  0  0  0  0
  4 44  1  0  0  0  0
  4 45  1  0  0  0  0
  5 36  1  0  0  0  0
  5  6  1  0  0  0  0
  5 46  1  0  0  0  0
  6  7  1  0  0  0  0
  7  8  1  0  0  0  0
  7 34  1  0  0  0  0
  7 47  1  0  0  0  0
  8 33  1  0  0  0  0
  8  9  1  0  0  0  0
  9 10  2  0  0  0  0
  9 48  1  0  0  0  0
 10 11  1  0  0  0  0
 11 33  2  0  0  0  0
 11 12  1  0  0  0  0
 12 13  1  0  0  0  0
 12 30  2  0  0  0  0
 13 14  1  0  0  0  0
 13 22  1  0  0  0  0
 14 15  2  0  0  0  0
 14 16  1  0  0  0  0
 16 21  1  0  0  0  0
 16 17  2  0  0  0  0
 17 18  1  0  0  0  0
 17 49  1  0  0  0  0
 18 19  2  0  0  0  0
 18 50  1  0  0  0  0
 19 20  1  0  0  0  0
 19 51  1  0  0  0  0
 20 21  2  0  0  0  0
 20 52  1  0  0  0  0
 21 53  1  0  0  0  0
 22 23  2  0  0  0  0
 22 24  1  0  0  0  0
 24 29  1  0  0  0  0
 24 25  2  0  0  0  0
 25 26  1  0  0  0  0
 25 54  1  0  0  0  0
 26 27  2  0  0  0  0
 26 55  1  0  0  0  0
 27 28  1  0  0  0  0
 27 56  1  0  0  0  0
 28 29  2  0  0  0  0
 28 57  1  0  0  0  0
 29 58  1  0  0  0  0
 30 31  1  0  0  0  0
 31 32  2  0  0  0  0
 31 59  1  0  0  0  0
 32 33  1  0  0  0  0
 34 35  1  0  0  0  0
 34 36  1  0  0  0  0
 34 60  1  0  0  0  0
 35 61  1  0  0  0  0
 36 37  1  0  0  0  0
 36 62  1  0  0  0  0
 38 43  1  0  0  0  0
 38 39  2  0  0  0  0
 39 40  1  0  0  0  0
 39 63  1  0  0  0  0
 40 41  2  0  0  0  0
 40 64  1  0  0  0  0
 41 42  1  0  0  0  0
 41 65  1  0  0  0  0
 42 43  2  0  0  0  0
 42 66  1  0  0  0  0
 43 67  1  0  0  0  0
M  END
> <s_m_source_file>
AV-unprocessed.smi

> <i_m_source_file_index>
33

> <i_lp_mmshare_version>
43012

> <i_f3d_flags>
0

> <s_epik_input>
W2NIXTFbY0hdW2NIXVtjSF1bY0hdYzFDKD1PKU9bQ0gyXVtDQEBIXTJPW0NASF0oW0NAQEhdKFtPSF0pW0NAQEhdMkYpbihbY0hdbjMpYyhjMzQpbltjSF1uYzROKEMoPU8pYzVbY0hdW2NIXVtjSF1bY0hdW2NIXTUpQyg9TyljNltjSF1bY0hdW2NIXVtjSF1bY0hdNg==

> <s_epik_cmdline>
J2VwaWtfcHl0aG9uJywgJy1waCcsICc3LjAnLCAnLXRuJywgJzgnLCAnLW1hJywgJzIwMCcsICctbWV0YWxfYmluZGluZycsICctaW1hZScsICc8aW5maWxlLm1hZT4nLCAnLW9tYWUnLCAnPG91dGZpbGUubWFlPic=

> <r_lp_tautomer_probability>
1

> <r_epik_Ionization_Penalty>
0.00067664

> <r_epik_Ionization_Penalty_Charging>
0

> <r_epik_Ionization_Penalty_Neutral>
0.00067664

> <r_epik_State_Penalty>
0.000428095

> <r_epik_Charging_Adjusted_Penalty>
0.000428095

> <i_epik_Tot_Q>
0

> <i_epik_Tot_abs_Q>
0

> <r_epik_Metal_State_Penalty>
-0

> <b_epik_Metal_Only>
0

> <s_epik_Chemistry_Notes>
This compound has an ester and may undergo hydrolysis at high or low pH. This compound contains an acetal/aminal-like group ( X-CH(R)-Y where X, Y are N, S, or O) that may be acid/base labile, releasing an aldehyde.

> <s_lp_Force_Field>
OPLS_2005

> <r_lp_Energy>
71.2242

> <b_lp_Chiralities_Consistent>
1

> <s_lp_Variant>
AV-unprocessed.smi:33-16

> <Gold.Version>
5.8.1

> <Gold.Id.Protein>
6NUR|6NUR_protein|mol2

> <Gold.PLP.Fitness>
51.3459

> <Gold.PLP.PLP>
-51.3185

> <Gold.PLP.part.hbond>
-2.4890

> <Gold.PLP.part.metal>
0.0000

> <Gold.PLP.part.buried>
-7.6877

> <Gold.PLP.part.nonpolar>
-44.9534

> <Gold.PLP.part.repulsive>
2.3641

> <Gold.PLP.ligand.clash>
0.0000

> <Gold.PLP.ligand.torsion>
4.5860

> <Gold.PLP.Chemscore.Hbond>
1.6521

> <Gold.PLP.Chemscore.CHOScore>
0.0000

> <Gold.PLP.Chemscore.Metal>
0.0000

> <Gold.Chemscore.Hbonds>
donor molecule, donor type, donor heavy atom, donor atom, acceptor molecule, acceptor atom, score
      L1  H    35    61       P1  7957  1.00
      P1  H  6933  6944       L1     1  0.69
      P1  H  6934  6946       L1     1  0.04

> <Gold.PLP.Chemscore.Internal.Correction>
4.2431

> <Gold.Rescore>
     Score         DG    S(hbond)    S(metal)    S(lipo)     H(rot)  DE(clash)    DE(int)     intcor
      9.76     -19.71       1.67        0.00     129.14       2.52       1.14       8.81       ----

> <Gold.Chemscore.Fitness>
9.7618

> <Gold.Chemscore.DG>
-19.7108

> <Gold.Chemscore.ZeroCoef>
-5.4800

> <Gold.Chemscore.Hbond>
1.6721

> <Gold.Chemscore.Metal>
0.0000

> <Gold.Chemscore.Lipo>
129.1382

> <Gold.Chemscore.Internal_Hbond>
0.0000

> <Gold.Chemscore.DEClash>
1.1413

> <Gold.Chemscore.DEInternal>
8.8076

> <Gold.Chemscore.Rot>
2.5247

> <Gold.Chemscore.Internal.Correction>
   9.000000E+99

> <Gold.Chemscore.Hbonds>
donor molecule, donor type, donor heavy atom, donor atom, acceptor molecule, acceptor atom, score
      L1  H    35    61       P1  7957  1.00
      P1  H  6933  6944       L1     1  0.53
      P1  H  6934  6946       L1     1  0.06

> <Gold.Chemscore.Hbond.Weighted>
-5.5848

> <Gold.Chemscore.Metal.Weighted>
-0.0000

> <Gold.Chemscore.Lipo.Weighted>
-15.1092

> <Gold.Chemscore.Internal_Hbond.Weighted>
0.0000

> <Gold.Chemscore.DEClash.Weighted>
1.1413

> <Gold.Chemscore.DEInternal.Weighted>
8.8076

> <Gold.Chemscore.Rot.Weighted>
6.4633

> <Gold.Chemscore.Internal.Correction.Weighted>
   9.000000E+99

> <Gold.Protein.RotatedTorsions>
[ 6907 6896 6895 6894 ] final  142.32 input  -60.11 | X-H torsion
[ 7974 7965 7964 7962 ] final -157.76 input  175.53 | X-H torsion
[ 8008 7997 7996 7995 ] final   -6.77 input   59.86 | X-H torsion
[ 10167 10162 10161 10158 ] final  -87.13 input  -65.29 | X-H torsion
[ 10718 10713 10712 10709 ] final   12.62 input   66.30 | X-H torsion
[ 10763 10752 10751 10750 ] final  128.10 input  -60.55 | X-H torsion
[ 11005 11000 10999 10996 ] final   41.29 input  -57.11 | X-H torsion

> <Gold.Protein.ActiveResidues>
 VAL166  LYS551  ARG553  GLY616  TRP617  ASP618  TYR619  PRO620  LYS621  CYS622 
 ASP623  PHE694  ASN695  SER759  ASP760  ASP761  ALA762  ILE779  LEU786  VAL792 
 PHE793  MET794  SER795  GLU796  ALA797  LYS798  CYS799  TRP800  GLU811  SER814 

> <Gold.Protein.RotatedAtoms>
  152.2202  133.4977  159.5157 H   0  0  0  0  0  0  0  0  0  0  0  0  # atno 6907 bound_to 6896
  150.7011  134.1353  159.4094 H   0  0  0  0  0  0  0  0  0  0  0  0  # atno 6908 bound_to 6896
  151.9273  135.0272  160.0577 H   0  0  0  0  0  0  0  0  0  0  0  0  # atno 6909 bound_to 6896
  144.7534  140.3923  143.6030 H   0  0  0  0  0  0  0  0  0  0  0  0  # atno 7974 bound_to 7965
  154.5904  140.2424  155.7929 H   0  0  0  0  0  0  0  0  0  0  0  0  # atno 8008 bound_to 7997
  156.2243  140.2987  155.9982 H   0  0  0  0  0  0  0  0  0  0  0  0  # atno 8009 bound_to 7997
  155.2384  140.0406  157.2962 H   0  0  0  0  0  0  0  0  0  0  0  0  # atno 8010 bound_to 7997
  140.3874  143.2720  151.9307 H   0  0  0  0  0  0  0  0  0  0  0  0  # atno 10167 bound_to 10162
  157.0128  130.6124  149.5710 H   0  0  0  0  0  0  0  0  0  0  0  0  # atno 10718 bound_to 10713
  153.7201  135.3255  155.3265 H   0  0  0  0  0  0  0  0  0  0  0  0  # atno 10763 bound_to 10752
  154.8358  135.4497  154.1226 H   0  0  0  0  0  0  0  0  0  0  0  0  # atno 10764 bound_to 10752
  153.2344  135.6964  153.7933 H   0  0  0  0  0  0  0  0  0  0  0  0  # atno 10765 bound_to 10752
  140.1849  134.4058  155.8179 H   0  0  0  0  0  0  0  0  0  0  0  0  # atno 11005 bound_to 11000
  145.6863  139.1629  143.2672 LP  0  0  0  0  0  0  0  0  0  0  0  0  # atno 17320 bound_to 7965
  146.1514  140.6919  142.9320 LP  0  0  0  0  0  0  0  0  0  0  0  0  # atno 17321 bound_to 7965
  139.4791  144.5760  151.8011 LP  0  0  0  0  0  0  0  0  0  0  0  0  # atno 17342 bound_to 10162
  140.4875  144.1360  150.5944 LP  0  0  0  0  0  0  0  0  0  0  0  0  # atno 17343 bound_to 10162
  156.0130  130.5223  150.8048 LP  0  0  0  0  0  0  0  0  0  0  0  0  # atno 17370 bound_to 10713
  157.5308  131.0936  150.9958 LP  0  0  0  0  0  0  0  0  0  0  0  0  # atno 17371 bound_to 10713
  141.2224  133.7018  156.7994 LP  0  0  0  0  0  0  0  0  0  0  0  0  # atno 17394 bound_to 11000
  140.2225  134.8746  157.3392 LP  0  0  0  0  0  0  0  0  0  0  0  0  # atno 17395 bound_to 11000

$$$$
