AV-unprocessed.smi:2855|AV-procd|sdf|10992|dock2
  -GOLD-   2272015443D 1   1.00000     0.00000
 Structure written by MMmdl.
 46 47  0  0  0  0  0  0  0  0  2 V2000
  151.5972  142.4573  159.2454 C   0  0  0  0  0  0  0  0  0  0  0  0
  151.0327  141.3616  158.3302 C   0  0  1  0  0  0  0  0  0  0  0  0
  151.1883  141.7295  156.8466 C   0  0  0  0  0  0  0  0  0  0  0  0
  150.6262  140.6351  155.9260 C   0  0  0  0  0  0  0  0  0  0  0  0
  151.2744  139.2498  156.1812 C   0  0  2  0  0  0  0  0  0  0  0  0
  150.7142  138.1548  155.2199 C   0  0  0  0  0  0  0  0  0  0  0  0
  151.2487  136.7449  155.5387 C   0  0  0  0  0  0  0  0  0  0  0  0
  150.9989  138.4690  153.7385 C   0  0  0  0  0  0  0  0  0  0  0  0
  151.1549  138.8827  157.6886 C   0  0  2  0  0  0  0  0  0  0  0  0
  149.7709  138.5610  158.0240 N   0  0  0  0  0  0  0  0  0  0  0  0
  149.3430  137.5475  158.7935 C   0  0  0  0  0  0  0  0  0  0  0  0
  150.1069  136.7656  159.3584 O   0  0  0  0  0  0  0  0  0  0  0  0
  147.8232  137.3739  158.9589 C   0  0  0  0  0  0  0  0  0  0  0  0
  147.4285  136.1521  159.6855 N   0  0  0  0  0  0  0  0  0  0  0  0
  147.4886  134.9324  158.9885 C   0  0  0  0  0  0  0  0  0  0  0  0
  147.1867  133.7607  159.5797 C   0  0  0  0  0  0  0  0  0  0  0  0
  146.7878  133.7774  160.9816 C   0  0  0  0  0  0  0  0  0  0  0  0
  146.5104  132.7169  161.5381 O   0  0  0  0  0  0  0  0  0  0  0  0
  146.7440  134.9862  161.6146 N   0  5  0  0  0  0  0  0  0  0  0  0
  147.0575  136.1696  161.0020 C   0  0  0  0  0  0  0  0  0  0  0  0
  147.0289  137.2473  161.5966 O   0  0  0  0  0  0  0  0  0  0  0  0
  151.6995  140.0015  158.6023 C   0  0  0  0  0  0  0  0  0  0  0  0
  152.6647  142.6033  159.0788 H   0  0  0  0  0  0  0  0  0  0  0  0
  151.4558  142.2011  160.2959 H   0  0  0  0  0  0  0  0  0  0  0  0
  151.0985  143.4108  159.0695 H   0  0  0  0  0  0  0  0  0  0  0  0
  149.9673  141.2725  158.5478 H   0  0  0  0  0  0  0  0  0  0  0  0
  150.6792  142.6719  156.6421 H   0  0  0  0  0  0  0  0  0  0  0  0
  152.2418  141.8919  156.6143 H   0  0  0  0  0  0  0  0  0  0  0  0
  149.5450  140.5686  156.0572 H   0  0  0  0  0  0  0  0  0  0  0  0
  150.7883  140.9543  154.8978 H   0  0  0  0  0  0  0  0  0  0  0  0
  152.3398  139.3499  155.9673 H   0  0  0  0  0  0  0  0  0  0  0  0
  149.6297  138.1180  155.3323 H   0  0  0  0  0  0  0  0  0  0  0  0
  152.3387  136.7224  155.5308 H   0  0  0  0  0  0  0  0  0  0  0  0
  150.8964  136.0169  154.8077 H   0  0  0  0  0  0  0  0  0  0  0  0
  150.9092  136.3911  156.5120 H   0  0  0  0  0  0  0  0  0  0  0  0
  152.0653  138.6103  153.5607 H   0  0  0  0  0  0  0  0  0  0  0  0
  150.4779  139.3638  153.4007 H   0  0  0  0  0  0  0  0  0  0  0  0
  150.6621  137.6566  153.0939 H   0  0  0  0  0  0  0  0  0  0  0  0
  151.7644  137.9984  157.8781 H   0  0  0  0  0  0  0  0  0  0  0  0
  149.0632  139.1435  157.5996 H   0  0  0  0  0  0  0  0  0  0  0  0
  147.4227  138.2581  159.4576 H   0  0  0  0  0  0  0  0  0  0  0  0
  147.3723  137.3800  157.9655 H   0  0  0  0  0  0  0  0  0  0  0  0
  147.8020  135.0071  157.9575 H   0  0  0  0  0  0  0  0  0  0  0  0
  147.2426  132.8316  159.0317 H   0  0  0  0  0  0  0  0  0  0  0  0
  152.7756  140.0910  158.4476 H   0  0  0  0  0  0  0  0  0  0  0  0
  151.5710  139.7252  159.6495 H   0  0  0  0  0  0  0  0  0  0  0  0
  1  2  1  0  0  0  0
  1 23  1  0  0  0  0
  1 24  1  0  0  0  0
  1 25  1  0  0  0  0
  2 22  1  0  0  0  0
  2  3  1  0  0  0  0
  2 26  1  0  0  0  0
  3  4  1  0  0  0  0
  3 27  1  0  0  0  0
  3 28  1  0  0  0  0
  4  5  1  0  0  0  0
  4 29  1  0  0  0  0
  4 30  1  0  0  0  0
  5  6  1  0  0  0  0
  5  9  1  0  0  0  0
  5 31  1  0  0  0  0
  6  7  1  0  0  0  0
  6  8  1  0  0  0  0
  6 32  1  0  0  0  0
  7 33  1  0  0  0  0
  7 34  1  0  0  0  0
  7 35  1  0  0  0  0
  8 36  1  0  0  0  0
  8 37  1  0  0  0  0
  8 38  1  0  0  0  0
  9 10  1  0  0  0  0
  9 22  1  0  0  0  0
  9 39  1  0  0  0  0
 10 11  1  0  0  0  0
 10 40  1  0  0  0  0
 11 12  2  0  0  0  0
 11 13  1  0  0  0  0
 13 14  1  0  0  0  0
 13 41  1  0  0  0  0
 13 42  1  0  0  0  0
 14 20  1  0  0  0  0
 14 15  1  0  0  0  0
 15 16  2  0  0  0  0
 15 43  1  0  0  0  0
 16 17  1  0  0  0  0
 16 44  1  0  0  0  0
 17 18  2  0  0  0  0
 17 19  1  0  0  0  0
 19 20  1  0  0  0  0
 20 21  2  0  0  0  0
 22 45  1  0  0  0  0
 22 46  1  0  0  0  0
M  CHG  1  19  -1
M  END
> <s_m_source_file>
AV-unprocessed.smi

> <i_m_source_file_index>
2855

> <i_lp_mmshare_version>
43012

> <i_f3d_flags>
0

> <s_epik_input>
W0NIM11bQ0BASF0xW0NIMl1bQ0gyXVtDQEBIXShbQ0hdKFtDSDNdKVtDSDNdKVtDQEhdKFtDSDJdMSlbTkhdQyg9TylbQ0gyXW4yW2NIXVtjSF1jKD1PKVtuSF1jMj1P

> <s_epik_cmdline>
J2VwaWtfcHl0aG9uJywgJy1waCcsICc3LjAnLCAnLXRuJywgJzgnLCAnLW1hJywgJzIwMCcsICctbWV0YWxfYmluZGluZycsICctaW1hZScsICc8aW5maWxlLm1hZT4nLCAnLW9tYWUnLCAnPG91dGZpbGUubWFlPic=

> <r_lp_tautomer_probability>
0.999537

> <r_epik_Ionization_Penalty>
3.12102

> <r_epik_Ionization_Penalty_Charging>
2.9581e-08

> <r_epik_Ionization_Penalty_Neutral>
3.12102

> <r_epik_State_Penalty>
3.12011

> <r_epik_Charging_Adjusted_Penalty>
3.12011

> <i_epik_Tot_Q>
-1

> <i_epik_Tot_abs_Q>
1

> <r_epik_Metal_State_Penalty>
0.463583

> <b_epik_Metal_Only>
1

> <s_lp_Force_Field>
OPLS_2005

> <r_lp_Energy>
20.8659

> <b_lp_Chiralities_Consistent>
1

> <s_lp_Variant>
AV-unprocessed.smi:2855-16

> <Gold.Version>
5.8.1

> <Gold.Id.Protein>
6NUR|6NUR_protein|mol2

> <Gold.PLP.Fitness>
39.5133

> <Gold.PLP.PLP>
-32.6847

> <Gold.PLP.part.hbond>
-3.0000

> <Gold.PLP.part.metal>
0.0000

> <Gold.PLP.part.buried>
-6.0017

> <Gold.PLP.part.nonpolar>
-24.5824

> <Gold.PLP.part.repulsive>
0.1266

> <Gold.PLP.ligand.clash>
0.0000

> <Gold.PLP.ligand.torsion>
0.6008

> <Gold.PLP.Chemscore.Hbond>
2.6608

> <Gold.PLP.Chemscore.CHOScore>
0.0000

> <Gold.PLP.Chemscore.Metal>
0.0000

> <Gold.Chemscore.Hbonds>
donor molecule, donor type, donor heavy atom, donor atom, acceptor molecule, acceptor atom, score
      P1  H  6896  6907       L1    12  1.00
      P1  H  6931  6943       L1    21  0.35
      P1  H  6934  6947       L1    21  0.98

> <Gold.PLP.Chemscore.Internal.Correction>
0.0479

> <Gold.Rescore>
     Score         DG    S(hbond)    S(metal)    S(lipo)     H(rot)  DE(clash)    DE(int)     intcor
     17.08     -17.76       2.54        0.00      71.99       1.81       0.11       0.56       ----

> <Gold.Chemscore.Fitness>
17.0778

> <Gold.Chemscore.DG>
-17.7558

> <Gold.Chemscore.ZeroCoef>
-5.4800

> <Gold.Chemscore.Hbond>
2.5410

> <Gold.Chemscore.Metal>
0.0000

> <Gold.Chemscore.Lipo>
71.9872

> <Gold.Chemscore.Internal_Hbond>
0.0000

> <Gold.Chemscore.DEClash>
0.1135

> <Gold.Chemscore.DEInternal>
0.5644

> <Gold.Chemscore.Rot>
1.8100

> <Gold.Chemscore.Internal.Correction>
   9.000000E+99

> <Gold.Chemscore.Hbonds>
donor molecule, donor type, donor heavy atom, donor atom, acceptor molecule, acceptor atom, score
      P1  H  6896  6907       L1    12  0.93
      P1  H  6931  6943       L1    21  0.32
      P1  H  6934  6947       L1    21  0.93

> <Gold.Chemscore.Hbond.Weighted>
-8.4868

> <Gold.Chemscore.Metal.Weighted>
-0.0000

> <Gold.Chemscore.Lipo.Weighted>
-8.4225

> <Gold.Chemscore.Internal_Hbond.Weighted>
0.0000

> <Gold.Chemscore.DEClash.Weighted>
0.1135

> <Gold.Chemscore.DEInternal.Weighted>
0.5644

> <Gold.Chemscore.Rot.Weighted>
4.6335

> <Gold.Chemscore.Internal.Correction.Weighted>
   9.000000E+99

> <Gold.Protein.RotatedTorsions>
[ 6907 6896 6895 6894 ] final  -42.90 input  -60.11 | X-H torsion
[ 7974 7965 7964 7962 ] final  -32.60 input  175.53 | X-H torsion
[ 8008 7997 7996 7995 ] final -115.09 input   59.86 | X-H torsion
[ 10167 10162 10161 10158 ] final  -43.69 input  -65.29 | X-H torsion
[ 10718 10713 10712 10709 ] final   22.31 input   66.30 | X-H torsion
[ 10763 10752 10751 10750 ] final   -6.12 input  -60.55 | X-H torsion
[ 11005 11000 10999 10996 ] final   37.51 input  -57.11 | X-H torsion

> <Gold.Protein.ActiveResidues>
 VAL166  LYS551  ARG553  GLY616  TRP617  ASP618  TYR619  PRO620  LYS621  CYS622 
 ASP623  PHE694  ASN695  SER759  ASP760  ASP761  ALA762  ILE779  LEU786  VAL792 
 PHE793  MET794  SER795  GLU796  ALA797  LYS798  CYS799  TRP800  GLU811  SER814 

> <Gold.Protein.RotatedAtoms>
  150.9499  134.8900  159.7665 H   0  0  0  0  0  0  0  0  0  0  0  0  # atno 6907 bound_to 6896
  152.5115  134.3821  159.9364 H   0  0  0  0  0  0  0  0  0  0  0  0  # atno 6908 bound_to 6896
  151.3837  133.3772  159.2748 H   0  0  0  0  0  0  0  0  0  0  0  0  # atno 6909 bound_to 6896
  146.0977  140.5813  142.8835 H   0  0  0  0  0  0  0  0  0  0  0  0  # atno 7974 bound_to 7965
  155.0466  140.0392  157.2529 H   0  0  0  0  0  0  0  0  0  0  0  0  # atno 8008 bound_to 7997
  154.7172  140.2704  155.6551 H   0  0  0  0  0  0  0  0  0  0  0  0  # atno 8009 bound_to 7997
  156.2806  140.2710  156.1832 H   0  0  0  0  0  0  0  0  0  0  0  0  # atno 8010 bound_to 7997
  140.6924  143.2969  151.3389 H   0  0  0  0  0  0  0  0  0  0  0  0  # atno 10167 bound_to 10162
  157.1505  130.6672  149.6010 H   0  0  0  0  0  0  0  0  0  0  0  0  # atno 10718 bound_to 10713
  153.4080  135.7007  153.6379 H   0  0  0  0  0  0  0  0  0  0  0  0  # atno 10763 bound_to 10752
  153.4885  135.3678  155.2480 H   0  0  0  0  0  0  0  0  0  0  0  0  # atno 10764 bound_to 10752
  154.8715  135.4083  154.3427 H   0  0  0  0  0  0  0  0  0  0  0  0  # atno 10765 bound_to 10752
  140.2219  134.3631  155.8001 H   0  0  0  0  0  0  0  0  0  0  0  0  # atno 11005 bound_to 11000
  144.7408  140.4936  143.6871 LP  0  0  0  0  0  0  0  0  0  0  0  0  # atno 17320 bound_to 7965
  145.5916  139.1496  143.3179 LP  0  0  0  0  0  0  0  0  0  0  0  0  # atno 17321 bound_to 7965
  139.6342  144.0663  152.2501 LP  0  0  0  0  0  0  0  0  0  0  0  0  # atno 17342 bound_to 10162
  140.0147  144.6197  150.7617 LP  0  0  0  0  0  0  0  0  0  0  0  0  # atno 17343 bound_to 10162
  155.9771  130.4746  150.6573 LP  0  0  0  0  0  0  0  0  0  0  0  0  # atno 17370 bound_to 10713
  157.4224  131.0838  151.1118 LP  0  0  0  0  0  0  0  0  0  0  0  0  # atno 17371 bound_to 10713
  141.2222  133.7198  156.8589 LP  0  0  0  0  0  0  0  0  0  0  0  0  # atno 17394 bound_to 11000
  140.1841  134.9012  157.2983 LP  0  0  0  0  0  0  0  0  0  0  0  0  # atno 17395 bound_to 11000

$$$$
