AV-unprocessed.smi:460|AV-procd|sdf|2627|dock4
  -GOLD-   2262023 33D 1   1.00000     0.00000
 Structure written by MMmdl.
 46 48  0  0  0  0  0  0  0  0  1 V2000
  150.9563  137.4380  158.0975 C   0  0  0  0  0  0  0  0  0  0  0  0
  152.0907  137.9227  157.1807 C   0  0  0  0  0  0  0  0  0  0  0  0
  151.8474  137.7066  155.6713 C   0  0  1  0  0  0  0  0  0  0  0  0
  151.6983  136.3201  155.4327 O   0  0  0  0  0  0  0  0  0  0  0  0
  150.6970  138.5134  155.1267 C   0  0  0  0  0  0  0  0  0  0  0  0
  149.6791  137.9541  154.4667 N   0  0  0  0  0  0  0  0  0  0  0  0
  148.8735  139.0345  154.1685 C   0  0  0  0  0  0  0  0  0  0  0  0
  147.6486  139.1011  153.4668 C   0  0  0  0  0  0  0  0  0  0  0  0
  147.0012  140.3396  153.2766 C   0  0  0  0  0  0  0  0  0  0  0  0
  147.5666  141.5259  153.7871 C   0  0  0  0  0  0  0  0  0  0  0  0
  148.7838  141.4801  154.4930 C   0  0  0  0  0  0  0  0  0  0  0  0
  149.4284  140.2420  154.6765 C   0  0  0  0  0  0  0  0  0  0  0  0
  150.6147  139.8585  155.2963 N   0  0  0  0  0  0  0  0  0  0  0  0
  151.5560  140.7486  155.9641 C   0  0  0  0  0  0  0  0  0  0  0  0
  150.8684  141.6173  157.0278 C   0  0  0  0  0  0  0  0  0  0  0  0
  151.6178  141.5326  158.2314 O   0  0  0  0  0  0  0  0  0  0  0  0
  151.7848  142.6649  158.9976 C   0  0  0  0  0  0  0  0  0  0  0  0
  151.2153  143.9224  158.6776 C   0  0  0  0  0  0  0  0  0  0  0  0
  151.4354  145.0354  159.5094 C   0  0  0  0  0  0  0  0  0  0  0  0
  152.2235  144.9036  160.6658 C   0  0  0  0  0  0  0  0  0  0  0  0
  152.7920  143.6588  160.9920 C   0  0  0  0  0  0  0  0  0  0  0  0
  152.5773  142.5307  160.1604 C   0  0  0  0  0  0  0  0  0  0  0  0
  153.0990  141.2790  160.4162 O   0  0  0  0  0  0  0  0  0  0  0  0
  153.9724  141.1257  161.5244 C   0  0  0  0  0  0  0  0  0  0  0  0
  151.2204  137.5828  159.1452 H   0  0  0  0  0  0  0  0  0  0  0  0
  150.7536  136.3767  157.9519 H   0  0  0  0  0  0  0  0  0  0  0  0
  150.0315  137.9857  157.9156 H   0  0  0  0  0  0  0  0  0  0  0  0
  152.2495  138.9845  157.3691 H   0  0  0  0  0  0  0  0  0  0  0  0
  153.0193  137.4289  157.4697 H   0  0  0  0  0  0  0  0  0  0  0  0
  152.7511  137.9903  155.1324 H   0  0  0  0  0  0  0  0  0  0  0  0
  150.8652  136.1780  155.0103 H   0  0  0  0  0  0  0  0  0  0  0  0
  147.2084  138.1979  153.0709 H   0  0  0  0  0  0  0  0  0  0  0  0
  146.0672  140.3799  152.7354 H   0  0  0  0  0  0  0  0  0  0  0  0
  147.0673  142.4715  153.6346 H   0  0  0  0  0  0  0  0  0  0  0  0
  149.2224  142.3880  154.8796 H   0  0  0  0  0  0  0  0  0  0  0  0
  152.3329  140.1407  156.4289 H   0  0  0  0  0  0  0  0  0  0  0  0
  152.0625  141.3720  155.2284 H   0  0  0  0  0  0  0  0  0  0  0  0
  150.8200  142.6510  156.6834 H   0  0  0  0  0  0  0  0  0  0  0  0
  149.8486  141.2649  157.1898 H   0  0  0  0  0  0  0  0  0  0  0  0
  150.6078  144.0587  157.7958 H   0  0  0  0  0  0  0  0  0  0  0  0
  150.9997  145.9913  159.2589 H   0  0  0  0  0  0  0  0  0  0  0  0
  152.3933  145.7586  161.3038 H   0  0  0  0  0  0  0  0  0  0  0  0
  153.3919  143.5953  161.8869 H   0  0  0  0  0  0  0  0  0  0  0  0
  154.2729  140.0807  161.6010 H   0  0  0  0  0  0  0  0  0  0  0  0
  153.4811  141.3967  162.4598 H   0  0  0  0  0  0  0  0  0  0  0  0
  154.8780  141.7216  161.4036 H   0  0  0  0  0  0  0  0  0  0  0  0
  1  2  1  0  0  0  0
  1 25  1  0  0  0  0
  1 26  1  0  0  0  0
  1 27  1  0  0  0  0
  2  3  1  0  0  0  0
  2 28  1  0  0  0  0
  2 29  1  0  0  0  0
  3  4  1  0  0  0  0
  3  5  1  0  0  0  0
  3 30  1  0  0  0  0
  4 31  1  0  0  0  0
  5 13  1  0  0  0  0
  5  6  2  0  0  0  0
  6  7  1  0  0  0  0
  7 12  2  0  0  0  0
  7  8  1  0  0  0  0
  8  9  2  0  0  0  0
  8 32  1  0  0  0  0
  9 10  1  0  0  0  0
  9 33  1  0  0  0  0
 10 11  2  0  0  0  0
 10 34  1  0  0  0  0
 11 12  1  0  0  0  0
 11 35  1  0  0  0  0
 12 13  1  0  0  0  0
 13 14  1  0  0  0  0
 14 15  1  0  0  0  0
 14 36  1  0  0  0  0
 14 37  1  0  0  0  0
 15 16  1  0  0  0  0
 15 38  1  0  0  0  0
 15 39  1  0  0  0  0
 16 17  1  0  0  0  0
 17 22  1  0  0  0  0
 17 18  2  0  0  0  0
 18 19  1  0  0  0  0
 18 40  1  0  0  0  0
 19 20  2  0  0  0  0
 19 41  1  0  0  0  0
 20 21  1  0  0  0  0
 20 42  1  0  0  0  0
 21 22  2  0  0  0  0
 21 43  1  0  0  0  0
 22 23  1  0  0  0  0
 23 24  1  0  0  0  0
 24 44  1  0  0  0  0
 24 45  1  0  0  0  0
 24 46  1  0  0  0  0
M  END
> <s_m_source_file>
AV-unprocessed.smi

> <i_m_source_file_index>
460

> <i_lp_mmshare_version>
43012

> <i_f3d_flags>
0

> <s_epik_input>
W2NIXTFbY0hdW2NIXVtjSF1jKGMxMiluKGMobjIpW0NAQEhdKFtPSF0pW0NIMl1bQ0gzXSlbQ0gyXVtDSDJdT2MzW2NIXVtjSF1bY0hdW2NIXWMzT1tDSDNd

> <s_epik_cmdline>
J2VwaWtfcHl0aG9uJywgJy1waCcsICc3LjAnLCAnLXRuJywgJzgnLCAnLW1hJywgJzIwMCcsICctbWV0YWxfYmluZGluZycsICctaW1hZScsICc8aW5maWxlLm1hZT4nLCAnLW9tYWUnLCAnPG91dGZpbGUubWFlPic=

> <r_lp_tautomer_probability>
1

> <r_epik_Ionization_Penalty>
0.0507825

> <r_epik_Ionization_Penalty_Charging>
0

> <r_epik_Ionization_Penalty_Neutral>
0.0507825

> <r_epik_State_Penalty>
0.0434615

> <r_epik_Charging_Adjusted_Penalty>
0.0434615

> <i_epik_Tot_Q>
0

> <i_epik_Tot_abs_Q>
0

> <r_epik_Metal_State_Penalty>
4.50935e-05

> <b_epik_Metal_Only>
0

> <s_lp_Force_Field>
OPLS_2005

> <r_lp_Energy>
20.6013

> <b_lp_Chiralities_Consistent>
1

> <s_lp_Variant>
AV-unprocessed.smi:460-2

> <Gold.Version>
5.8.1

> <Gold.Id.Protein>
6NUR|6NUR_protein|mol2

> <Gold.PLP.Fitness>
53.8152

> <Gold.PLP.PLP>
-52.1290

> <Gold.PLP.part.hbond>
-1.0000

> <Gold.PLP.part.metal>
0.0000

> <Gold.PLP.part.buried>
-4.4699

> <Gold.PLP.part.nonpolar>
-44.4278

> <Gold.PLP.part.repulsive>
0.2248

> <Gold.PLP.ligand.clash>
0.0000

> <Gold.PLP.ligand.torsion>
0.7401

> <Gold.PLP.Chemscore.Hbond>
1.0000

> <Gold.PLP.Chemscore.CHOScore>
0.0000

> <Gold.PLP.Chemscore.Metal>
0.0000

> <Gold.Chemscore.Hbonds>
donor molecule, donor type, donor heavy atom, donor atom, acceptor molecule, acceptor atom, score
      P1  H 10752 10764       L1     4  0.96

> <Gold.PLP.Chemscore.Internal.Correction>
0.1664

> <Gold.Rescore>
     Score         DG    S(hbond)    S(metal)    S(lipo)     H(rot)  DE(clash)    DE(int)     intcor
     18.84     -19.66       0.86        0.00     148.16       2.36       0.16       0.67       ----

> <Gold.Chemscore.Fitness>
18.8379

> <Gold.Chemscore.DG>
-19.6649

> <Gold.Chemscore.ZeroCoef>
-5.4800

> <Gold.Chemscore.Hbond>
0.8647

> <Gold.Chemscore.Metal>
0.0000

> <Gold.Chemscore.Lipo>
148.1628

> <Gold.Chemscore.Internal_Hbond>
0.0000

> <Gold.Chemscore.DEClash>
0.1551

> <Gold.Chemscore.DEInternal>
0.6719

> <Gold.Chemscore.Rot>
2.3587

> <Gold.Chemscore.Internal.Correction>
   9.000000E+99

> <Gold.Chemscore.Hbonds>
donor molecule, donor type, donor heavy atom, donor atom, acceptor molecule, acceptor atom, score
      P1  H 10752 10764       L1     4  0.83

> <Gold.Chemscore.Hbond.Weighted>
-2.8883

> <Gold.Chemscore.Metal.Weighted>
-0.0000

> <Gold.Chemscore.Lipo.Weighted>
-17.3350

> <Gold.Chemscore.Internal_Hbond.Weighted>
0.0000

> <Gold.Chemscore.DEClash.Weighted>
0.1551

> <Gold.Chemscore.DEInternal.Weighted>
0.6719

> <Gold.Chemscore.Rot.Weighted>
6.0384

> <Gold.Chemscore.Internal.Correction.Weighted>
   9.000000E+99

> <Gold.Protein.RotatedTorsions>
[ 6907 6896 6895 6894 ] final -101.70 input  -60.11 | X-H torsion
[ 7974 7965 7964 7962 ] final   52.58 input  175.53 | X-H torsion
[ 8008 7997 7996 7995 ] final  -55.98 input   59.86 | X-H torsion
[ 10167 10162 10161 10158 ] final   95.72 input  -65.29 | X-H torsion
[ 10718 10713 10712 10709 ] final  -36.79 input   66.30 | X-H torsion
[ 10763 10752 10751 10750 ] final  -26.88 input  -60.55 | X-H torsion
[ 11005 11000 10999 10996 ] final -171.44 input  -57.11 | X-H torsion

> <Gold.Protein.ActiveResidues>
 VAL166  LYS551  ARG553  GLY616  TRP617  ASP618  TYR619  PRO620  LYS621  CYS622 
 ASP623  PHE694  ASN695  SER759  ASP760  ASP761  ALA762  ILE779  LEU786  VAL792 
 PHE793  MET794  SER795  GLU796  ALA797  LYS798  CYS799  TRP800  GLU811  SER814 

> <Gold.Protein.RotatedAtoms>
  150.7165  134.0694  159.3858 H   0  0  0  0  0  0  0  0  0  0  0  0  # atno 6907 bound_to 6896
  151.8675  135.0499  160.0485 H   0  0  0  0  0  0  0  0  0  0  0  0  # atno 6908 bound_to 6896
  152.2669  133.5311  159.5452 H   0  0  0  0  0  0  0  0  0  0  0  0  # atno 6909 bound_to 6896
  145.9798  139.4231  143.0139 H   0  0  0  0  0  0  0  0  0  0  0  0  # atno 7974 bound_to 7965
  154.4214  140.1140  156.5564 H   0  0  0  0  0  0  0  0  0  0  0  0  # atno 8008 bound_to 7997
  155.6357  140.3496  155.4678 H   0  0  0  0  0  0  0  0  0  0  0  0  # atno 8009 bound_to 7997
  155.9912  140.1180  157.0626 H   0  0  0  0  0  0  0  0  0  0  0  0  # atno 8010 bound_to 7997
  139.7961  144.6832  150.9827 H   0  0  0  0  0  0  0  0  0  0  0  0  # atno 10167 bound_to 10162
  156.3228  130.4268  149.7944 H   0  0  0  0  0  0  0  0  0  0  0  0  # atno 10718 bound_to 10713
  153.7231  135.6943  153.5008 H   0  0  0  0  0  0  0  0  0  0  0  0  # atno 10763 bound_to 10752
  153.2189  135.4376  155.0466 H   0  0  0  0  0  0  0  0  0  0  0  0  # atno 10764 bound_to 10752
  154.8278  135.3455  154.6764 H   0  0  0  0  0  0  0  0  0  0  0  0  # atno 10765 bound_to 10752
  140.5082  134.5827  157.5010 H   0  0  0  0  0  0  0  0  0  0  0  0  # atno 11005 bound_to 11000
  145.7785  140.9866  143.1111 LP  0  0  0  0  0  0  0  0  0  0  0  0  # atno 17320 bound_to 7965
  144.6858  139.9535  143.7478 LP  0  0  0  0  0  0  0  0  0  0  0  0  # atno 17321 bound_to 7965
  140.7820  143.4330  151.0666 LP  0  0  0  0  0  0  0  0  0  0  0  0  # atno 17342 bound_to 10162
  139.8004  143.8092  152.3162 LP  0  0  0  0  0  0  0  0  0  0  0  0  # atno 17343 bound_to 10162
  156.5246  130.8230  151.3216 LP  0  0  0  0  0  0  0  0  0  0  0  0  # atno 17370 bound_to 10713
  157.7415  130.9871  150.2451 LP  0  0  0  0  0  0  0  0  0  0  0  0  # atno 17371 bound_to 10713
  139.9674  134.7350  156.0111 LP  0  0  0  0  0  0  0  0  0  0  0  0  # atno 17394 bound_to 11000
  141.1399  133.6567  156.3701 LP  0  0  0  0  0  0  0  0  0  0  0  0  # atno 17395 bound_to 11000

$$$$
