AV-unprocessed.smi:767|AV-procd|sdf|3662|dock7
  -GOLD-   22720 1 73D 1   1.00000     0.00000
 Structure written by MMmdl.
 47 49  0  0  0  0  0  0  0  0  1 V2000
  152.0854  142.1248  159.2856 C   0  0  0  0  0  0  0  0  0  0  0  0
  151.6086  141.4356  158.0244 C   0  0  0  0  0  0  0  0  0  0  0  0
  152.0531  140.1362  157.7041 C   0  0  0  0  0  0  0  0  0  0  0  0
  151.5762  139.5371  156.5227 C   0  0  0  0  0  0  0  0  0  0  0  0
  150.6734  140.2545  155.7115 C   0  0  0  0  0  0  0  0  0  0  0  0
  150.1025  139.6350  154.4464 C   0  0  0  0  0  0  0  0  0  0  0  0
  148.5936  139.3247  154.5341 C   0  0  0  0  0  0  0  0  0  0  0  0
  148.2528  138.0036  154.0156 N   0  0  0  0  0  0  0  0  0  0  0  0
  147.4356  137.1252  154.6108 C   0  0  0  0  0  0  0  0  0  0  0  0
  146.9006  137.3071  155.7043 O   0  0  0  0  0  0  0  0  0  0  0  0
  147.2516  136.0372  153.8532 N   0  0  0  0  0  0  0  0  0  0  0  0
  146.3699  134.9166  154.1844 C   0  0  1  0  0  0  0  0  0  0  0  0
  145.1828  134.7599  153.2030 C   0  0  1  0  0  0  0  0  0  0  0  0
  144.7987  135.8185  152.1992 C   0  0  0  0  0  0  0  0  0  0  0  0
  145.5276  135.3707  150.9286 C   0  0  0  0  0  0  0  0  0  0  0  0
  146.5420  134.4738  151.3789 O   0  0  0  0  0  0  0  0  0  0  0  0
  146.0126  133.7203  152.4683 C   0  0  1  0  0  0  0  0  0  0  0  0
  146.9295  133.5532  153.6987 C   0  0  0  0  0  0  0  0  0  0  0  0
  148.4334  133.4296  153.4181 C   0  0  0  0  0  0  0  0  0  0  0  0
  146.5613  132.3676  154.5961 C   0  0  0  0  0  0  0  0  0  0  0  0
  150.3009  141.5535  156.1165 C   0  0  0  0  0  0  0  0  0  0  0  0
  150.7534  142.1366  157.2475 N   0  0  0  0  0  0  0  0  0  0  0  0
  152.3505  141.3941  160.0504 H   0  0  0  0  0  0  0  0  0  0  0  0
  151.3091  142.7730  159.6938 H   0  0  0  0  0  0  0  0  0  0  0  0
  152.9644  142.7330  159.0716 H   0  0  0  0  0  0  0  0  0  0  0  0
  152.7380  139.6067  158.3498 H   0  0  0  0  0  0  0  0  0  0  0  0
  151.8884  138.5384  156.2544 H   0  0  0  0  0  0  0  0  0  0  0  0
  150.2936  140.3053  153.6079 H   0  0  0  0  0  0  0  0  0  0  0  0
  150.6472  138.7159  154.2265 H   0  0  0  0  0  0  0  0  0  0  0  0
  148.2826  139.3432  155.5788 H   0  0  0  0  0  0  0  0  0  0  0  0
  148.0126  140.0962  154.0268 H   0  0  0  0  0  0  0  0  0  0  0  0
  148.6370  137.7572  153.1152 H   0  0  0  0  0  0  0  0  0  0  0  0
  147.7296  135.9886  152.9652 H   0  0  0  0  0  0  0  0  0  0  0  0
  146.0602  134.8956  155.2310 H   0  0  0  0  0  0  0  0  0  0  0  0
  144.3283  134.3000  153.7021 H   0  0  0  0  0  0  0  0  0  0  0  0
  143.7214  135.8601  152.0372 H   0  0  0  0  0  0  0  0  0  0  0  0
  145.1159  136.8112  152.5112 H   0  0  0  0  0  0  0  0  0  0  0  0
  144.8472  134.8322  150.2677 H   0  0  0  0  0  0  0  0  0  0  0  0
  145.9520  136.2074  150.3732 H   0  0  0  0  0  0  0  0  0  0  0  0
  145.4512  132.8375  152.1587 H   0  0  0  0  0  0  0  0  0  0  0  0
  148.6833  132.4543  152.9994 H   0  0  0  0  0  0  0  0  0  0  0  0
  149.0193  133.5562  154.3290 H   0  0  0  0  0  0  0  0  0  0  0  0
  148.7831  134.1745  152.7032 H   0  0  0  0  0  0  0  0  0  0  0  0
  146.7623  131.4149  154.1052 H   0  0  0  0  0  0  0  0  0  0  0  0
  145.5032  132.3739  154.8595 H   0  0  0  0  0  0  0  0  0  0  0  0
  147.1242  132.3833  155.5299 H   0  0  0  0  0  0  0  0  0  0  0  0
  149.6118  142.1364  155.5235 H   0  0  0  0  0  0  0  0  0  0  0  0
  1  2  1  0  0  0  0
  1 23  1  0  0  0  0
  1 24  1  0  0  0  0
  1 25  1  0  0  0  0
  2 22  1  0  0  0  0
  2  3  2  0  0  0  0
  3  4  1  0  0  0  0
  3 26  1  0  0  0  0
  4  5  2  0  0  0  0
  4 27  1  0  0  0  0
  5  6  1  0  0  0  0
  5 21  1  0  0  0  0
  6  7  1  0  0  0  0
  6 28  1  0  0  0  0
  6 29  1  0  0  0  0
  7  8  1  0  0  0  0
  7 30  1  0  0  0  0
  7 31  1  0  0  0  0
  8  9  1  0  0  0  0
  8 32  1  0  0  0  0
  9 10  2  0  0  0  0
  9 11  1  0  0  0  0
 11 12  1  0  0  0  0
 11 33  1  0  0  0  0
 12 18  1  0  0  0  0
 12 13  1  0  0  0  0
 12 34  1  0  0  0  0
 13 17  1  0  0  0  0
 13 14  1  0  0  0  0
 13 35  1  0  0  0  0
 14 15  1  0  0  0  0
 14 36  1  0  0  0  0
 14 37  1  0  0  0  0
 15 16  1  0  0  0  0
 15 38  1  0  0  0  0
 15 39  1  0  0  0  0
 16 17  1  0  0  0  0
 17 18  1  0  0  0  0
 17 40  1  0  0  0  0
 18 19  1  0  0  0  0
 18 20  1  0  0  0  0
 19 41  1  0  0  0  0
 19 42  1  0  0  0  0
 19 43  1  0  0  0  0
 20 44  1  0  0  0  0
 20 45  1  0  0  0  0
 20 46  1  0  0  0  0
 21 22  2  0  0  0  0
 21 47  1  0  0  0  0
M  END
> <s_m_source_file>
AV-unprocessed.smi

> <i_m_source_file_index>
767

> <i_lp_mmshare_version>
43012

> <i_f3d_flags>
0

> <s_epik_input>
W0NIM11jMVtjSF1bY0hdYyhbY0hdbjEpW0NIMl1bQ0gyXVtOSF1DKD1PKVtOSF1bQ0BIXTJDKFtDSDNdKShbQ0gzXSlbQ0BIXShbQ0BASF0yMylPW0NIMl1bQ0gyXTM=

> <s_epik_cmdline>
J2VwaWtfcHl0aG9uJywgJy1waCcsICc3LjAnLCAnLXRuJywgJzgnLCAnLW1hJywgJzIwMCcsICctbWV0YWxfYmluZGluZycsICctaW1hZScsICc8aW5maWxlLm1hZT4nLCAnLW9tYWUnLCAnPG91dGZpbGUubWFlPic=

> <r_epik_Ionization_Penalty>
0.0567523

> <r_epik_Ionization_Penalty_Charging>
0

> <r_epik_Ionization_Penalty_Neutral>
0.0567523

> <r_epik_State_Penalty>
0.0489186

> <r_epik_Charging_Adjusted_Penalty>
0.0489186

> <i_epik_Tot_Q>
0

> <i_epik_Tot_abs_Q>
0

> <r_epik_Metal_State_Penalty>
0.044622

> <b_epik_Metal_Only>
0

> <s_lp_Force_Field>
OPLS_2005

> <r_lp_Energy>
33.3409

> <b_lp_Chiralities_Consistent>
1

> <s_lp_Variant>
AV-unprocessed.smi:767-6

> <Gold.Version>
5.8.1

> <Gold.Id.Protein>
6NUR|6NUR_protein|mol2

> <Gold.PLP.Fitness>
38.1000

> <Gold.PLP.PLP>
-30.8287

> <Gold.PLP.part.hbond>
-2.0000

> <Gold.PLP.part.metal>
0.0000

> <Gold.PLP.part.buried>
-3.0117

> <Gold.PLP.part.nonpolar>
-26.5162

> <Gold.PLP.part.repulsive>
1.2543

> <Gold.PLP.ligand.clash>
0.0000

> <Gold.PLP.ligand.torsion>
0.6663

> <Gold.PLP.Chemscore.Hbond>
1.9120

> <Gold.PLP.Chemscore.CHOScore>
0.8894

> <Gold.PLP.Chemscore.Metal>
0.0000

> <Gold.Chemscore.Hbonds>
donor molecule, donor type, donor heavy atom, donor atom, acceptor molecule, acceptor atom, score
      L1  H     8    32       P1  7948  0.90
      L1  H    11    33       P1  7948  1.00
      L1  C    21    47       P1  8028  0.61

> <Gold.PLP.Chemscore.Internal.Correction>
0.1997

> <Gold.Rescore>
     Score         DG    S(hbond)    S(metal)    S(lipo)     H(rot)  DE(clash)    DE(int)     intcor
     17.26     -18.08       1.92        0.00      84.78       1.45       0.15       0.68       ----

> <Gold.Chemscore.Fitness>
17.2571

> <Gold.Chemscore.DG>
-18.0848

> <Gold.Chemscore.ZeroCoef>
-5.4800

> <Gold.Chemscore.Hbond>
1.9153

> <Gold.Chemscore.Metal>
0.0000

> <Gold.Chemscore.Lipo>
84.7779

> <Gold.Chemscore.Internal_Hbond>
0.0000

> <Gold.Chemscore.DEClash>
0.1463

> <Gold.Chemscore.DEInternal>
0.6814

> <Gold.Chemscore.Rot>
1.4497

> <Gold.Chemscore.Internal.Correction>
   9.000000E+99

> <Gold.Chemscore.Hbonds>
donor molecule, donor type, donor heavy atom, donor atom, acceptor molecule, acceptor atom, score
      L1  H     8    32       P1  7948  0.86
      L1  H    11    33       P1  7948  0.99

> <Gold.Chemscore.Hbond.Weighted>
-6.3970

> <Gold.Chemscore.Metal.Weighted>
-0.0000

> <Gold.Chemscore.Lipo.Weighted>
-9.9190

> <Gold.Chemscore.Internal_Hbond.Weighted>
0.0000

> <Gold.Chemscore.DEClash.Weighted>
0.1463

> <Gold.Chemscore.DEInternal.Weighted>
0.6814

> <Gold.Chemscore.Rot.Weighted>
3.7112

> <Gold.Chemscore.Internal.Correction.Weighted>
   9.000000E+99

> <Gold.Protein.RotatedTorsions>
[ 6907 6896 6895 6894 ] final   12.77 input  -60.11 | X-H torsion
[ 7974 7965 7964 7962 ] final  -27.37 input  175.53 | X-H torsion
[ 8008 7997 7996 7995 ] final  145.46 input   59.86 | X-H torsion
[ 10167 10162 10161 10158 ] final  -39.98 input  -65.29 | X-H torsion
[ 10718 10713 10712 10709 ] final  155.43 input   66.30 | X-H torsion
[ 10763 10752 10751 10750 ] final  -55.01 input  -60.55 | X-H torsion
[ 11005 11000 10999 10996 ] final -107.68 input  -57.11 | X-H torsion

> <Gold.Protein.ActiveResidues>
 VAL166  LYS551  ARG553  GLY616  TRP617  ASP618  TYR619  PRO620  LYS621  CYS622 
 ASP623  PHE694  ASN695  SER759  ASP760  ASP761  ALA762  ILE779  LEU786  VAL792 
 PHE793  MET794  SER795  GLU796  ALA797  LYS798  CYS799  TRP800  GLU811  SER814 

> <Gold.Protein.RotatedAtoms>
  151.7757  135.0775  160.0366 H   0  0  0  0  0  0  0  0  0  0  0  0  # atno 6907 bound_to 6896
  152.3258  133.5899  159.5784 H   0  0  0  0  0  0  0  0  0  0  0  0  # atno 6908 bound_to 6896
  150.7394  133.9859  159.3633 H   0  0  0  0  0  0  0  0  0  0  0  0  # atno 6909 bound_to 6896
  146.1362  140.5143  142.8671 H   0  0  0  0  0  0  0  0  0  0  0  0  # atno 7974 bound_to 7965
  156.2882  140.2208  156.5218 H   0  0  0  0  0  0  0  0  0  0  0  0  # atno 8008 bound_to 7997
  154.7522  140.0479  157.0925 H   0  0  0  0  0  0  0  0  0  0  0  0  # atno 8009 bound_to 7997
  155.0096  140.3111  155.4838 H   0  0  0  0  0  0  0  0  0  0  0  0  # atno 8010 bound_to 7997
  140.7048  143.3181  151.2859 H   0  0  0  0  0  0  0  0  0  0  0  0  # atno 10167 bound_to 10162
  157.2184  131.0713  151.1927 H   0  0  0  0  0  0  0  0  0  0  0  0  # atno 10718 bound_to 10713
  154.1840  135.6438  153.5042 H   0  0  0  0  0  0  0  0  0  0  0  0  # atno 10763 bound_to 10752
  153.0052  135.5413  154.6485 H   0  0  0  0  0  0  0  0  0  0  0  0  # atno 10764 bound_to 10752
  154.5856  135.2929  155.0661 H   0  0  0  0  0  0  0  0  0  0  0  0  # atno 10765 bound_to 10752
  141.0941  133.9002  157.2005 H   0  0  0  0  0  0  0  0  0  0  0  0  # atno 11005 bound_to 11000
  144.7743  140.5705  143.6649 LP  0  0  0  0  0  0  0  0  0  0  0  0  # atno 17320 bound_to 7965
  145.5150  139.1478  143.3584 LP  0  0  0  0  0  0  0  0  0  0  0  0  # atno 17321 bound_to 7965
  139.6626  144.0161  152.2702 LP  0  0  0  0  0  0  0  0  0  0  0  0  # atno 17342 bound_to 10162
  139.9734  144.6478  150.7968 LP  0  0  0  0  0  0  0  0  0  0  0  0  # atno 17343 bound_to 10162
  157.3601  130.7127  149.6496 LP  0  0  0  0  0  0  0  0  0  0  0  0  # atno 17370 bound_to 10713
  155.9684  130.4228  150.4532 LP  0  0  0  0  0  0  0  0  0  0  0  0  # atno 17371 bound_to 10713
  139.9774  135.0109  156.9664 LP  0  0  0  0  0  0  0  0  0  0  0  0  # atno 17394 bound_to 11000
  140.5181  134.0934  155.7285 LP  0  0  0  0  0  0  0  0  0  0  0  0  # atno 17395 bound_to 11000

$$$$
