AV-unprocessed.smi:284|AV-procd|sdf|2164|dock2
  -GOLD-   2262021523D 1   1.00000     0.00000
 Structure written by MMmdl.
 60 62  0  0  0  0  0  0  0  0  1 V2000
  149.3259  134.1748  155.7485 C   0  0  0  0  0  0  0  0  0  0  0  0
  149.2801  135.6267  155.2988 C   0  0  0  0  0  0  0  0  0  0  0  0
  148.1150  136.2597  155.0287 C   0  0  0  0  0  0  0  0  0  0  0  0
  148.0397  137.5792  154.6195 N   0  0  0  0  0  0  0  0  0  0  0  0
  146.7198  138.2569  154.3172 C   0  0  1  0  0  0  0  0  0  0  0  0
  146.0346  137.5912  153.1137 C   0  0  0  0  0  0  0  0  0  0  0  0
  144.6004  137.4396  153.5836 C   0  0  2  0  0  0  0  0  0  0  0  0
  143.8421  138.5881  153.2520 O   0  0  0  0  0  0  0  0  0  0  0  0
  144.7748  137.2748  155.0977 C   0  0  2  0  0  0  0  0  0  0  0  0
  143.5482  137.5680  155.9789 C   0  0  0  0  0  0  0  0  0  0  0  0
  142.5132  136.6512  155.6943 O   0  0  0  0  0  0  0  0  0  0  0  0
  145.8593  138.1421  155.4143 O   0  0  0  0  0  0  0  0  0  0  0  0
  149.2236  138.3247  154.4517 C   0  0  0  0  0  0  0  0  0  0  0  0
  149.1806  139.4990  154.0770 O   0  0  0  0  0  0  0  0  0  0  0  0
  150.4575  137.6923  154.7226 N   0  0  0  0  0  0  0  0  0  0  0  0
  151.7001  138.4821  154.5728 C   0  0  0  0  0  0  0  0  0  0  0  0
  152.0492  139.3082  155.8208 C   0  0  0  0  0  0  0  0  0  0  0  0
  152.9875  138.9724  156.5440 O   0  0  0  0  0  0  0  0  0  0  0  0
  151.2889  140.4022  156.0106 N   0  0  0  0  0  0  0  0  0  0  0  0
  151.3306  141.3585  157.0629 C   0  0  0  0  0  0  0  0  0  0  0  0
  150.6520  142.5742  156.8501 C   0  0  0  0  0  0  0  0  0  0  0  0
  150.6245  143.5689  157.8461 C   0  0  0  0  0  0  0  0  0  0  0  0
  151.2722  143.3687  159.0897 C   0  0  0  0  0  0  0  0  0  0  0  0
  151.2632  144.4303  160.2066 C   0  0  0  0  0  0  0  0  0  0  0  0
  151.9654  145.7123  159.7114 C   0  0  0  0  0  0  0  0  0  0  0  0
  151.9914  143.9644  161.4877 C   0  0  0  0  0  0  0  0  0  0  0  0
  149.8065  144.7635  160.5906 C   0  0  0  0  0  0  0  0  0  0  0  0
  151.9440  142.1414  159.2993 C   0  0  0  0  0  0  0  0  0  0  0  0
  151.9712  141.1445  158.3056 C   0  0  0  0  0  0  0  0  0  0  0  0
  150.5476  136.3477  155.1587 C   0  0  0  0  0  0  0  0  0  0  0  0
  151.6429  135.8391  155.4046 O   0  0  0  0  0  0  0  0  0  0  0  0
  148.3295  133.7364  155.8103 H   0  0  0  0  0  0  0  0  0  0  0  0
  149.7861  134.0959  156.7339 H   0  0  0  0  0  0  0  0  0  0  0  0
  149.9098  133.5772  155.0475 H   0  0  0  0  0  0  0  0  0  0  0  0
  147.2049  135.6916  155.1431 H   0  0  0  0  0  0  0  0  0  0  0  0
  146.9430  139.3148  154.1694 H   0  0  0  0  0  0  0  0  0  0  0  0
  146.1520  138.1880  152.2083 H   0  0  0  0  0  0  0  0  0  0  0  0
  146.4727  136.6064  152.9422 H   0  0  0  0  0  0  0  0  0  0  0  0
  144.1180  136.5696  153.1369 H   0  0  0  0  0  0  0  0  0  0  0  0
  144.3469  139.1206  152.6565 H   0  0  0  0  0  0  0  0  0  0  0  0
  145.1127  136.2559  155.2940 H   0  0  0  0  0  0  0  0  0  0  0  0
  143.8149  137.4621  157.0308 H   0  0  0  0  0  0  0  0  0  0  0  0
  143.1875  138.5878  155.8453 H   0  0  0  0  0  0  0  0  0  0  0  0
  142.9001  135.8103  155.5037 H   0  0  0  0  0  0  0  0  0  0  0  0
  152.5533  137.8444  154.3379 H   0  0  0  0  0  0  0  0  0  0  0  0
  151.6272  139.1481  153.7109 H   0  0  0  0  0  0  0  0  0  0  0  0
  150.6125  140.5930  155.2858 H   0  0  0  0  0  0  0  0  0  0  0  0
  150.1460  142.7530  155.9123 H   0  0  0  0  0  0  0  0  0  0  0  0
  150.0925  144.4806  157.6249 H   0  0  0  0  0  0  0  0  0  0  0  0
  151.9942  146.4750  160.4905 H   0  0  0  0  0  0  0  0  0  0  0  0
  151.4593  146.1545  158.8532 H   0  0  0  0  0  0  0  0  0  0  0  0
  152.9951  145.5085  159.4156 H   0  0  0  0  0  0  0  0  0  0  0  0
  153.0405  143.7364  161.2951 H   0  0  0  0  0  0  0  0  0  0  0  0
  151.5245  143.0776  161.9182 H   0  0  0  0  0  0  0  0  0  0  0  0
  151.9708  144.7377  162.2567 H   0  0  0  0  0  0  0  0  0  0  0  0
  149.7664  145.4997  161.3942 H   0  0  0  0  0  0  0  0  0  0  0  0
  149.2767  143.8746  160.9350 H   0  0  0  0  0  0  0  0  0  0  0  0
  149.2449  145.1755  159.7520 H   0  0  0  0  0  0  0  0  0  0  0  0
  152.4452  141.9479  160.2356 H   0  0  0  0  0  0  0  0  0  0  0  0
  152.4800  140.2209  158.5313 H   0  0  0  0  0  0  0  0  0  0  0  0
  1  2  1  0  0  0  0
  1 32  1  0  0  0  0
  1 33  1  0  0  0  0
  1 34  1  0  0  0  0
  2 30  1  0  0  0  0
  2  3  2  0  0  0  0
  3  4  1  0  0  0  0
  3 35  1  0  0  0  0
  4  5  1  0  0  0  0
  4 13  1  0  0  0  0
  5 12  1  0  0  0  0
  5  6  1  0  0  0  0
  5 36  1  0  0  0  0
  6  7  1  0  0  0  0
  6 37  1  0  0  0  0
  6 38  1  0  0  0  0
  7  8  1  0  0  0  0
  7  9  1  0  0  0  0
  7 39  1  0  0  0  0
  8 40  1  0  0  0  0
  9 10  1  0  0  0  0
  9 12  1  0  0  0  0
  9 41  1  0  0  0  0
 10 11  1  0  0  0  0
 10 42  1  0  0  0  0
 10 43  1  0  0  0  0
 11 44  1  0  0  0  0
 13 14  2  0  0  0  0
 13 15  1  0  0  0  0
 15 16  1  0  0  0  0
 15 30  1  0  0  0  0
 16 17  1  0  0  0  0
 16 45  1  0  0  0  0
 16 46  1  0  0  0  0
 17 18  2  0  0  0  0
 17 19  1  0  0  0  0
 19 20  1  0  0  0  0
 19 47  1  0  0  0  0
 20 29  1  0  0  0  0
 20 21  2  0  0  0  0
 21 22  1  0  0  0  0
 21 48  1  0  0  0  0
 22 23  2  0  0  0  0
 22 49  1  0  0  0  0
 23 24  1  0  0  0  0
 23 28  1  0  0  0  0
 24 25  1  0  0  0  0
 24 26  1  0  0  0  0
 24 27  1  0  0  0  0
 25 50  1  0  0  0  0
 25 51  1  0  0  0  0
 25 52  1  0  0  0  0
 26 53  1  0  0  0  0
 26 54  1  0  0  0  0
 26 55  1  0  0  0  0
 27 56  1  0  0  0  0
 27 57  1  0  0  0  0
 27 58  1  0  0  0  0
 28 29  2  0  0  0  0
 28 59  1  0  0  0  0
 29 60  1  0  0  0  0
 30 31  2  0  0  0  0
M  END
> <s_m_source_file>
AV-unprocessed.smi

> <i_m_source_file_index>
284

> <i_lp_mmshare_version>
43012

> <i_f3d_flags>
0

> <s_epik_input>
W09IXVtDSDJdW0NAQEhdKE8xKVtDQEhdKFtPSF0pW0NIMl1bQ0BIXTFuKFtjSF1jMltDSDNdKWMoPU8pbihjMj1PKVtDSDJdQyg9TylbTkhdYzNbY0hdW2NIXWMoQyhbQ0gzXSkoW0NIM10pW0NIM10pW2NIXVtjSF0z

> <s_epik_cmdline>
J2VwaWtfcHl0aG9uJywgJy1waCcsICc3LjAnLCAnLXRuJywgJzgnLCAnLW1hJywgJzIwMCcsICctbWV0YWxfYmluZGluZycsICctaW1hZScsICc8aW5maWxlLm1hZT4nLCAnLW9tYWUnLCAnPG91dGZpbGUubWFlPic=

> <r_lp_tautomer_probability>
1

> <r_epik_Ionization_Penalty>
4.92358e-06

> <r_epik_Ionization_Penalty_Charging>
1.29777e-07

> <r_epik_Ionization_Penalty_Neutral>
4.79381e-06

> <r_epik_State_Penalty>
-0

> <r_epik_Charging_Adjusted_Penalty>
1.29777e-07

> <i_epik_Tot_Q>
0

> <i_epik_Tot_abs_Q>
0

> <r_epik_Metal_State_Penalty>
-0

> <b_epik_Metal_Only>
0

> <s_epik_Chemistry_Notes>
This compound contains an acetal/aminal-like group ( X-CH(R)-Y where X, Y are N, S, or O) that may be acid/base labile, releasing an aldehyde.

> <s_lp_Force_Field>
OPLS_2005

> <r_lp_Energy>
40.7373

> <b_lp_Chiralities_Consistent>
1

> <s_lp_Variant>
AV-unprocessed.smi:284-8

> <Gold.Version>
5.8.1

> <Gold.Id.Protein>
6NUR|6NUR_protein|mol2

> <Gold.PLP.Fitness>
49.6963

> <Gold.PLP.PLP>
-43.3673

> <Gold.PLP.part.hbond>
-2.9961

> <Gold.PLP.part.metal>
0.0000

> <Gold.PLP.part.buried>
-5.9556

> <Gold.PLP.part.nonpolar>
-36.1360

> <Gold.PLP.part.repulsive>
0.3575

> <Gold.PLP.ligand.clash>
0.0000

> <Gold.PLP.ligand.torsion>
0.6529

> <Gold.PLP.Chemscore.Hbond>
2.4960

> <Gold.PLP.Chemscore.CHOScore>
0.0000

> <Gold.PLP.Chemscore.Metal>
0.0000

> <Gold.Chemscore.Hbonds>
donor molecule, donor type, donor heavy atom, donor atom, acceptor molecule, acceptor atom, score
      L1  H     8    40       P1 10175  0.18
      P1  H  7997  8009       L1    18  1.00
      P1  H 10752 10763       L1    31  0.96

> <Gold.PLP.Chemscore.Internal.Correction>
0.1467

> <Gold.Rescore>
     Score         DG    S(hbond)    S(metal)    S(lipo)     H(rot)  DE(clash)    DE(int)     intcor
     18.35     -20.09       2.87        0.00     114.72       3.27       0.06       1.68       ----

> <Gold.Chemscore.Fitness>
18.3541

> <Gold.Chemscore.DG>
-20.0943

> <Gold.Chemscore.ZeroCoef>
-5.4800

> <Gold.Chemscore.Hbond>
2.8659

> <Gold.Chemscore.Metal>
0.0000

> <Gold.Chemscore.Lipo>
114.7194

> <Gold.Chemscore.Internal_Hbond>
0.0000

> <Gold.Chemscore.DEClash>
0.0554

> <Gold.Chemscore.DEInternal>
1.6848

> <Gold.Chemscore.Rot>
3.2735

> <Gold.Chemscore.Internal.Correction>
   9.000000E+99

> <Gold.Chemscore.Hbonds>
donor molecule, donor type, donor heavy atom, donor atom, acceptor molecule, acceptor atom, score
      L1  H     8    40       P1 10175  0.18
      P1  H  7997  8009       L1    18  0.94
      P1  H 10752 10763       L1    31  0.91

> <Gold.Chemscore.Hbond.Weighted>
-9.5722

> <Gold.Chemscore.Metal.Weighted>
-0.0000

> <Gold.Chemscore.Lipo.Weighted>
-13.4222

> <Gold.Chemscore.Internal_Hbond.Weighted>
0.0000

> <Gold.Chemscore.DEClash.Weighted>
0.0554

> <Gold.Chemscore.DEInternal.Weighted>
1.6848

> <Gold.Chemscore.Rot.Weighted>
8.3801

> <Gold.Chemscore.Internal.Correction.Weighted>
   9.000000E+99

> <Gold.Protein.RotatedTorsions>
[ 6907 6896 6895 6894 ] final   55.55 input  -60.11 | X-H torsion
[ 7974 7965 7964 7962 ] final  -96.32 input  175.53 | X-H torsion
[ 8008 7997 7996 7995 ] final -178.61 input   59.86 | X-H torsion
[ 10167 10162 10161 10158 ] final  -53.08 input  -65.29 | X-H torsion
[ 10718 10713 10712 10709 ] final  -73.96 input   66.30 | X-H torsion
[ 10763 10752 10751 10750 ] final   65.18 input  -60.55 | X-H torsion
[ 11005 11000 10999 10996 ] final    4.02 input  -57.11 | X-H torsion

> <Gold.Protein.ActiveResidues>
 VAL166  LYS551  ARG553  GLY616  TRP617  ASP618  TYR619  PRO620  LYS621  CYS622 
 ASP623  PHE694  ASN695  SER759  ASP760  ASP761  ALA762  ILE779  LEU786  VAL792 
 PHE793  MET794  SER795  GLU796  ALA797  LYS798  CYS799  TRP800  GLU811  SER814 

> <Gold.Protein.RotatedAtoms>
  152.3550  134.6953  160.0224 H   0  0  0  0  0  0  0  0  0  0  0  0  # atno 6907 bound_to 6896
  151.7294  133.3312  159.3344 H   0  0  0  0  0  0  0  0  0  0  0  0  # atno 6908 bound_to 6896
  150.7565  134.6310  159.6231 H   0  0  0  0  0  0  0  0  0  0  0  0  # atno 6909 bound_to 6896
  145.3484  140.9472  143.2568 H   0  0  0  0  0  0  0  0  0  0  0  0  # atno 7974 bound_to 7965
  156.0209  140.1261  157.0359 H   0  0  0  0  0  0  0  0  0  0  0  0  # atno 8008 bound_to 7997
  154.4311  140.1069  156.6032 H   0  0  0  0  0  0  0  0  0  0  0  0  # atno 8009 bound_to 7997
  155.5946  140.3470  155.4578 H   0  0  0  0  0  0  0  0  0  0  0  0  # atno 8010 bound_to 7997
  140.6503  143.2562  151.4741 H   0  0  0  0  0  0  0  0  0  0  0  0  # atno 10167 bound_to 10162
  156.0260  130.4406  150.2821 H   0  0  0  0  0  0  0  0  0  0  0  0  # atno 10718 bound_to 10713
  153.0086  135.5366  154.6627 H   0  0  0  0  0  0  0  0  0  0  0  0  # atno 10763 bound_to 10752
  154.5831  135.2852  155.0714 H   0  0  0  0  0  0  0  0  0  0  0  0  # atno 10764 bound_to 10752
  154.1836  135.6512  153.5093 H   0  0  0  0  0  0  0  0  0  0  0  0  # atno 10765 bound_to 10752
  140.5866  133.9963  155.8070 H   0  0  0  0  0  0  0  0  0  0  0  0  # atno 11005 bound_to 11000
  144.8736  139.5003  143.6756 LP  0  0  0  0  0  0  0  0  0  0  0  0  # atno 17320 bound_to 7965
  146.2978  139.7332  142.9114 LP  0  0  0  0  0  0  0  0  0  0  0  0  # atno 17321 bound_to 7965
  139.5718  144.1911  152.1847 LP  0  0  0  0  0  0  0  0  0  0  0  0  # atno 17342 bound_to 10162
  140.1210  144.5374  150.6863 LP  0  0  0  0  0  0  0  0  0  0  0  0  # atno 17343 bound_to 10162
  157.0924  131.0173  151.3116 LP  0  0  0  0  0  0  0  0  0  0  0  0  # atno 17370 bound_to 10713
  157.4843  130.7784  149.7445 LP  0  0  0  0  0  0  0  0  0  0  0  0  # atno 17371 bound_to 10713
  141.0962  133.9840  157.3156 LP  0  0  0  0  0  0  0  0  0  0  0  0  # atno 17394 bound_to 11000
  139.9293  135.0200  156.8344 LP  0  0  0  0  0  0  0  0  0  0  0  0  # atno 17395 bound_to 11000

$$$$
