AV-unprocessed.smi:31|AV-procd|sdf|195|dock8
  -GOLD-   2262015463D 1   1.00000     0.00000
 Structure written by MMmdl.
 49 52  0  0  0  0  0  0  0  0  1 V2000
  153.2530  138.9736  157.9832 O   0  0  0  0  0  0  0  0  0  0  0  0
  154.1436  138.7961  158.8156 C   0  0  0  0  0  0  0  0  0  0  0  0
  154.9778  137.5051  158.8024 C   0  0  0  0  0  0  0  0  0  0  0  0
  154.7522  136.6686  157.6031 N   0  0  0  0  0  0  0  0  0  0  0  0
  154.1413  135.3997  157.7613 C   0  0  0  0  0  0  0  0  0  0  0  0
  153.8169  134.9808  158.8735 O   0  0  0  0  0  0  0  0  0  0  0  0
  153.9204  134.6493  156.5302 C   0  0  0  0  0  0  0  0  0  0  0  0
  153.3418  133.4374  156.5839 F   0  0  0  0  0  0  0  0  0  0  0  0
  154.2826  135.1554  155.3336 C   0  0  0  0  0  0  0  0  0  0  0  0
  154.8795  136.3951  155.1946 N   0  0  0  0  0  0  0  0  0  0  0  0
  155.2495  136.9435  153.8343 C   0  0  2  0  0  0  0  0  0  0  0  0
  154.4371  138.2084  153.5355 C   0  0  0  0  0  0  0  0  0  0  0  0
  153.2627  137.6483  152.7636 C   0  0  0  0  0  0  0  0  0  0  0  0
  153.9195  136.5108  151.9901 C   0  0  0  0  0  0  0  0  0  0  0  0
  154.9287  135.9966  152.8556 O   0  0  0  0  0  0  0  0  0  0  0  0
  155.1172  137.1879  156.3381 C   0  0  0  0  0  0  0  0  0  0  0  0
  155.6186  138.3096  156.2339 O   0  0  0  0  0  0  0  0  0  0  0  0
  154.4787  139.6817  159.7714 N   0  0  0  0  0  0  0  0  0  0  0  0
  153.9122  140.9592  160.0289 C   0  0  0  0  0  0  0  0  0  0  0  0
  154.1690  141.5408  161.2846 C   0  0  0  0  0  0  0  0  0  0  0  0
  153.6427  142.8057  161.6022 C   0  0  0  0  0  0  0  0  0  0  0  0
  152.8436  143.5089  160.6789 C   0  0  0  0  0  0  0  0  0  0  0  0
  152.5171  142.8951  159.4340 C   0  0  0  0  0  0  0  0  0  0  0  0
  153.0719  141.6386  159.1162 C   0  0  0  0  0  0  0  0  0  0  0  0
  151.6615  143.4396  158.5011 O   0  0  0  0  0  0  0  0  0  0  0  0
  150.5762  144.1982  159.0139 C   0  0  0  0  0  0  0  0  0  0  0  0
  150.9956  145.6424  159.2961 C   0  0  0  0  0  0  0  0  0  0  0  0
  152.3479  145.7299  160.0064 C   0  0  0  0  0  0  0  0  0  0  0  0
  152.4409  144.7726  161.0512 O   0  0  0  0  0  0  0  0  0  0  0  0
  156.0329  137.7690  158.8923 H   0  0  0  0  0  0  0  0  0  0  0  0
  154.7661  136.9508  159.7180 H   0  0  0  0  0  0  0  0  0  0  0  0
  154.0861  134.5582  154.4557 H   0  0  0  0  0  0  0  0  0  0  0  0
  156.3288  137.1022  153.8518 H   0  0  0  0  0  0  0  0  0  0  0  0
  154.1585  138.7500  154.4404 H   0  0  0  0  0  0  0  0  0  0  0  0
  155.0341  138.8638  152.9002 H   0  0  0  0  0  0  0  0  0  0  0  0
  152.5112  137.2566  153.4500 H   0  0  0  0  0  0  0  0  0  0  0  0
  152.7841  138.3840  152.1168 H   0  0  0  0  0  0  0  0  0  0  0  0
  153.2102  135.7365  151.6978 H   0  0  0  0  0  0  0  0  0  0  0  0
  154.3966  136.8933  151.0868 H   0  0  0  0  0  0  0  0  0  0  0  0
  155.2867  139.4450  160.3286 H   0  0  0  0  0  0  0  0  0  0  0  0
  154.7899  141.0280  162.0050 H   0  0  0  0  0  0  0  0  0  0  0  0
  153.8763  143.2535  162.5569 H   0  0  0  0  0  0  0  0  0  0  0  0
  152.8077  141.1931  158.1697 H   0  0  0  0  0  0  0  0  0  0  0  0
  149.7678  144.1881  158.2826 H   0  0  0  0  0  0  0  0  0  0  0  0
  150.1737  143.7281  159.9135 H   0  0  0  0  0  0  0  0  0  0  0  0
  151.0496  146.2043  158.3633 H   0  0  0  0  0  0  0  0  0  0  0  0
  150.2253  146.1221  159.9005 H   0  0  0  0  0  0  0  0  0  0  0  0
  153.1681  145.6012  159.2973 H   0  0  0  0  0  0  0  0  0  0  0  0
  152.4738  146.7252  160.4328 H   0  0  0  0  0  0  0  0  0  0  0  0
  1  2  2  0  0  0  0
  2  3  1  0  0  0  0
  2 18  1  0  0  0  0
  3  4  1  0  0  0  0
  3 30  1  0  0  0  0
  3 31  1  0  0  0  0
  4 16  1  0  0  0  0
  4  5  1  0  0  0  0
  5  6  2  0  0  0  0
  5  7  1  0  0  0  0
  7  8  1  0  0  0  0
  7  9  2  0  0  0  0
  9 10  1  0  0  0  0
  9 32  1  0  0  0  0
 10 11  1  0  0  0  0
 10 16  1  0  0  0  0
 11 15  1  0  0  0  0
 11 12  1  0  0  0  0
 11 33  1  0  0  0  0
 12 13  1  0  0  0  0
 12 34  1  0  0  0  0
 12 35  1  0  0  0  0
 13 14  1  0  0  0  0
 13 36  1  0  0  0  0
 13 37  1  0  0  0  0
 14 15  1  0  0  0  0
 14 38  1  0  0  0  0
 14 39  1  0  0  0  0
 16 17  2  0  0  0  0
 18 19  1  0  0  0  0
 18 40  1  0  0  0  0
 19 24  1  0  0  0  0
 19 20  2  0  0  0  0
 20 21  1  0  0  0  0
 20 41  1  0  0  0  0
 21 22  2  0  0  0  0
 21 42  1  0  0  0  0
 22 29  1  0  0  0  0
 22 23  1  0  0  0  0
 23 24  2  0  0  0  0
 23 25  1  0  0  0  0
 24 43  1  0  0  0  0
 25 26  1  0  0  0  0
 26 27  1  0  0  0  0
 26 44  1  0  0  0  0
 26 45  1  0  0  0  0
 27 28  1  0  0  0  0
 27 46  1  0  0  0  0
 27 47  1  0  0  0  0
 28 29  1  0  0  0  0
 28 48  1  0  0  0  0
 28 49  1  0  0  0  0
M  END
> <s_m_source_file>
AV-unprocessed.smi

> <i_m_source_file_index>
31

> <i_lp_mmshare_version>
43012

> <i_f3d_flags>
0

> <s_epik_input>
TzFbQ0gyXVtDSDJdW0NIMl1PYyhjMTIpW2NIXWMoW2NIXVtjSF0yKVtOSF1DKD1PKVtDSDJdbjNjKD1PKWMoRilbY0hdbihjMz1PKVtDQEBIXTRbQ0gyXVtDSDJdW0NIMl1PNA==

> <s_epik_cmdline>
J2VwaWtfcHl0aG9uJywgJy1waCcsICc3LjAnLCAnLXRuJywgJzgnLCAnLW1hJywgJzIwMCcsICctbWV0YWxfYmluZGluZycsICctaW1hZScsICc8aW5maWxlLm1hZT4nLCAnLW9tYWUnLCAnPG91dGZpbGUubWFlPic=

> <r_lp_tautomer_probability>
1

> <r_epik_Ionization_Penalty>
1.0483e-05

> <r_epik_Ionization_Penalty_Charging>
3.88729e-08

> <r_epik_Ionization_Penalty_Neutral>
1.04441e-05

> <r_epik_State_Penalty>
-0

> <r_epik_Charging_Adjusted_Penalty>
3.88729e-08

> <i_epik_Tot_Q>
0

> <i_epik_Tot_abs_Q>
0

> <r_epik_Metal_State_Penalty>
-0

> <b_epik_Metal_Only>
0

> <s_epik_Chemistry_Notes>
This compound contains an acetal/aminal-like group ( X-CH(R)-Y where X, Y are N, S, or O) that may be acid/base labile, releasing an aldehyde.

> <s_lp_Force_Field>
OPLS_2005

> <r_lp_Energy>
45.2544

> <b_lp_Chiralities_Consistent>
1

> <s_lp_Variant>
AV-unprocessed.smi:31-1

> <Gold.Version>
5.8.1

> <Gold.Id.Protein>
6NUR|6NUR_protein|mol2

> <Gold.PLP.Fitness>
53.0348

> <Gold.PLP.PLP>
-47.9698

> <Gold.PLP.part.hbond>
-2.0000

> <Gold.PLP.part.metal>
0.0000

> <Gold.PLP.part.buried>
-7.9386

> <Gold.PLP.part.nonpolar>
-39.9973

> <Gold.PLP.part.repulsive>
2.0124

> <Gold.PLP.ligand.clash>
0.0000

> <Gold.PLP.ligand.torsion>
0.1909

> <Gold.PLP.Chemscore.Hbond>
1.8080

> <Gold.PLP.Chemscore.CHOScore>
0.0000

> <Gold.PLP.Chemscore.Metal>
0.0000

> <Gold.Chemscore.Hbonds>
donor molecule, donor type, donor heavy atom, donor atom, acceptor molecule, acceptor atom, score
      P1  H  6896  6908       L1     6  0.69
      P1  H  7997  8010       L1     1  0.20

> <Gold.PLP.Chemscore.Internal.Correction>
0.0228

> <Gold.Rescore>
     Score         DG    S(hbond)    S(metal)    S(lipo)     H(rot)  DE(clash)    DE(int)     intcor
     14.69     -21.52       1.32        0.00     135.23       1.64       0.11       6.71       ----

> <Gold.Chemscore.Fitness>
14.6934

> <Gold.Chemscore.DG>
-21.5166

> <Gold.Chemscore.ZeroCoef>
-5.4800

> <Gold.Chemscore.Hbond>
1.3233

> <Gold.Chemscore.Metal>
0.0000

> <Gold.Chemscore.Lipo>
135.2331

> <Gold.Chemscore.Internal_Hbond>
0.0000

> <Gold.Chemscore.DEClash>
0.1096

> <Gold.Chemscore.DEInternal>
6.7136

> <Gold.Chemscore.Rot>
1.6427

> <Gold.Chemscore.Internal.Correction>
   9.000000E+99

> <Gold.Chemscore.Hbonds>
donor molecule, donor type, donor heavy atom, donor atom, acceptor molecule, acceptor atom, score
      P1  H  6896  6908       L1     6  0.68

> <Gold.Chemscore.Hbond.Weighted>
-4.4197

> <Gold.Chemscore.Metal.Weighted>
-0.0000

> <Gold.Chemscore.Lipo.Weighted>
-15.8223

> <Gold.Chemscore.Internal_Hbond.Weighted>
0.0000

> <Gold.Chemscore.DEClash.Weighted>
0.1096

> <Gold.Chemscore.DEInternal.Weighted>
6.7136

> <Gold.Chemscore.Rot.Weighted>
4.2053

> <Gold.Chemscore.Internal.Correction.Weighted>
   9.000000E+99

> <Gold.Protein.RotatedTorsions>
[ 6907 6896 6895 6894 ] final  -16.57 input  -60.11 | X-H torsion
[ 7974 7965 7964 7962 ] final  168.52 input  175.53 | X-H torsion
[ 8008 7997 7996 7995 ] final   31.56 input   59.86 | X-H torsion
[ 10167 10162 10161 10158 ] final  -73.36 input  -65.29 | X-H torsion
[ 10718 10713 10712 10709 ] final -178.45 input   66.30 | X-H torsion
[ 10763 10752 10751 10750 ] final -106.05 input  -60.55 | X-H torsion
[ 11005 11000 10999 10996 ] final  166.89 input  -57.11 | X-H torsion

> <Gold.Protein.ActiveResidues>
 VAL166  LYS551  ARG553  GLY616  TRP617  ASP618  TYR619  PRO620  LYS621  CYS622 
 ASP623  PHE694  ASN695  SER759  ASP760  ASP761  ALA762  ILE779  LEU786  VAL792 
 PHE793  MET794  SER795  GLU796  ALA797  LYS798  CYS799  TRP800  GLU811  SER814 

> <Gold.Protein.RotatedAtoms>
  151.3065  135.0783  159.9256 H   0  0  0  0  0  0  0  0  0  0  0  0  # atno 6907 bound_to 6896
  152.5287  133.9780  159.7803 H   0  0  0  0  0  0  0  0  0  0  0  0  # atno 6908 bound_to 6896
  151.0075  133.5945  159.2717 H   0  0  0  0  0  0  0  0  0  0  0  0  # atno 6909 bound_to 6896
  144.7386  139.8920  143.6404 H   0  0  0  0  0  0  0  0  0  0  0  0  # atno 7974 bound_to 7965
  155.1084  140.3236  155.4528 H   0  0  0  0  0  0  0  0  0  0  0  0  # atno 8008 bound_to 7997
  156.2697  140.2048  156.6156 H   0  0  0  0  0  0  0  0  0  0  0  0  # atno 8009 bound_to 7997
  154.6775  140.0530  157.0218 H   0  0  0  0  0  0  0  0  0  0  0  0  # atno 8010 bound_to 7997
  140.5117  143.2344  151.7582 H   0  0  0  0  0  0  0  0  0  0  0  0  # atno 10167 bound_to 10162
  156.8445  130.9697  151.3097 H   0  0  0  0  0  0  0  0  0  0  0  0  # atno 10718 bound_to 10713
  154.7987  135.4726  154.0223 H   0  0  0  0  0  0  0  0  0  0  0  0  # atno 10763 bound_to 10752
  153.1745  135.6830  153.8569 H   0  0  0  0  0  0  0  0  0  0  0  0  # atno 10764 bound_to 10752
  153.8140  135.3213  155.3381 H   0  0  0  0  0  0  0  0  0  0  0  0  # atno 10765 bound_to 10752
  140.2712  134.7825  157.3676 H   0  0  0  0  0  0  0  0  0  0  0  0  # atno 11005 bound_to 11000
  146.1135  139.4143  143.0273 LP  0  0  0  0  0  0  0  0  0  0  0  0  # atno 17320 bound_to 7965
  145.7409  141.0008  143.1301 LP  0  0  0  0  0  0  0  0  0  0  0  0  # atno 17321 bound_to 7965
  139.4898  144.4381  151.9796 LP  0  0  0  0  0  0  0  0  0  0  0  0  # atno 17342 bound_to 10162
  140.3474  144.3130  150.5955 LP  0  0  0  0  0  0  0  0  0  0  0  0  # atno 17343 bound_to 10162
  157.6338  130.8750  149.9321 LP  0  0  0  0  0  0  0  0  0  0  0  0  # atno 17370 bound_to 10713
  156.0862  130.3668  150.0482 LP  0  0  0  0  0  0  0  0  0  0  0  0  # atno 17371 bound_to 10713
  140.1372  134.5019  155.8059 LP  0  0  0  0  0  0  0  0  0  0  0  0  # atno 17394 bound_to 11000
  141.2177  133.6811  156.7145 LP  0  0  0  0  0  0  0  0  0  0  0  0  # atno 17395 bound_to 11000

$$$$
