AV-unprocessed.smi:3354|AV-procd|sdf|12961|dock3
  -GOLD-   2272019393D 1   1.00000     0.00000
 Structure written by MMmdl.
 38 40  0  0  0  0  0  0  0  0  1 V2000
  146.0509  131.8663  151.6811 C   0  0  0  0  0  0  0  0  0  0  0  0
  144.6934  131.8038  151.0085 C   0  0  2  0  0  0  0  0  0  0  0  0
  144.4741  132.4372  149.6543 C   0  0  0  0  0  0  0  0  0  0  0  0
  143.7961  133.0194  150.8790 C   0  0  2  0  0  0  0  0  0  0  0  0
  144.2196  134.2786  151.4188 N   0  0  0  0  0  0  0  0  0  0  0  0
  145.3723  134.9981  150.8941 C   0  0  0  0  0  0  0  0  0  0  0  0
  145.2383  136.4357  151.4263 C   0  0  2  0  0  0  0  0  0  0  0  0
  146.5148  136.9312  151.9340 N   0  0  0  0  0  0  0  0  0  0  0  0
  146.6670  138.0489  152.6575 C   0  0  0  0  0  0  0  0  0  0  0  0
  145.7315  138.7839  152.9730 O   0  0  0  0  0  0  0  0  0  0  0  0
  147.9527  138.2353  153.0016 N   0  0  0  0  0  0  0  0  0  0  0  0
  148.5186  139.2983  153.7557 C   0  0  0  0  0  0  0  0  0  0  0  0
  147.8130  140.4637  154.1419 C   0  0  0  0  0  0  0  0  0  0  0  0
  148.4913  141.4578  154.8731 C   0  0  0  0  0  0  0  0  0  0  0  0
  149.8496  141.2546  155.1851 C   0  0  0  0  0  0  0  0  0  0  0  0
  150.5381  140.1553  154.8121 N   0  0  0  0  0  0  0  0  0  0  0  0
  149.8814  139.2070  154.1102 C   0  0  0  0  0  0  0  0  0  0  0  0
  144.1572  136.3672  152.5161 C   0  0  0  0  0  0  0  0  0  0  0  0
  143.5170  135.0086  152.2922 C   0  0  0  0  0  0  0  0  0  0  0  0
  142.4752  134.6652  152.8490 O   0  0  0  0  0  0  0  0  0  0  0  0
  146.5814  132.7807  151.4167 H   0  0  0  0  0  0  0  0  0  0  0  0
  146.6588  131.0159  151.3724 H   0  0  0  0  0  0  0  0  0  0  0  0
  145.9320  131.8334  152.7642 H   0  0  0  0  0  0  0  0  0  0  0  0
  144.1744  130.8635  151.1838 H   0  0  0  0  0  0  0  0  0  0  0  0
  145.3149  132.9662  149.2111 H   0  0  0  0  0  0  0  0  0  0  0  0
  143.8484  131.8966  148.9470 H   0  0  0  0  0  0  0  0  0  0  0  0
  142.7269  132.8250  150.9492 H   0  0  0  0  0  0  0  0  0  0  0  0
  146.2841  134.5181  151.2529 H   0  0  0  0  0  0  0  0  0  0  0  0
  145.3877  134.9800  149.8035 H   0  0  0  0  0  0  0  0  0  0  0  0
  144.8904  137.0789  150.6153 H   0  0  0  0  0  0  0  0  0  0  0  0
  147.3352  136.3818  151.7235 H   0  0  0  0  0  0  0  0  0  0  0  0
  148.5936  137.4991  152.7435 H   0  0  0  0  0  0  0  0  0  0  0  0
  146.7778  140.6215  153.8819 H   0  0  0  0  0  0  0  0  0  0  0  0
  147.9826  142.3585  155.1837 H   0  0  0  0  0  0  0  0  0  0  0  0
  150.3989  141.9979  155.7438 H   0  0  0  0  0  0  0  0  0  0  0  0
  150.4645  138.3426  153.8268 H   0  0  0  0  0  0  0  0  0  0  0  0
  144.5789  136.3981  153.5216 H   0  0  0  0  0  0  0  0  0  0  0  0
  143.4282  137.1724  152.4203 H   0  0  0  0  0  0  0  0  0  0  0  0
  1  2  1  0  0  0  0
  1 21  1  0  0  0  0
  1 22  1  0  0  0  0
  1 23  1  0  0  0  0
  2  4  1  0  0  0  0
  2  3  1  0  0  0  0
  2 24  1  0  0  0  0
  3  4  1  0  0  0  0
  3 25  1  0  0  0  0
  3 26  1  0  0  0  0
  4  5  1  0  0  0  0
  4 27  1  0  0  0  0
  5 19  1  0  0  0  0
  5  6  1  0  0  0  0
  6  7  1  0  0  0  0
  6 28  1  0  0  0  0
  6 29  1  0  0  0  0
  7  8  1  0  0  0  0
  7 18  1  0  0  0  0
  7 30  1  0  0  0  0
  8  9  1  0  0  0  0
  8 31  1  0  0  0  0
  9 10  2  0  0  0  0
  9 11  1  0  0  0  0
 11 12  1  0  0  0  0
 11 32  1  0  0  0  0
 12 17  1  0  0  0  0
 12 13  2  0  0  0  0
 13 14  1  0  0  0  0
 13 33  1  0  0  0  0
 14 15  2  0  0  0  0
 14 34  1  0  0  0  0
 15 16  1  0  0  0  0
 15 35  1  0  0  0  0
 16 17  2  0  0  0  0
 17 36  1  0  0  0  0
 18 19  1  0  0  0  0
 18 37  1  0  0  0  0
 18 38  1  0  0  0  0
 19 20  2  0  0  0  0
M  END
> <s_m_source_file>
AV-unprocessed.smi

> <i_m_source_file_index>
3354

> <i_lp_mmshare_version>
43012

> <i_f3d_flags>
0

> <s_epik_input>
W0NIM11bQ0BASF0xW0NIMl1bQ0BIXTFOMltDSDJdW0NASF0oW0NIMl1DMj1PKVtOSF1DKD1PKVtOSF1jM1tjSF1bY0hdW2NIXW5bY0hdMw==

> <s_epik_cmdline>
J2VwaWtfcHl0aG9uJywgJy1waCcsICc3LjAnLCAnLXRuJywgJzgnLCAnLW1hJywgJzIwMCcsICctbWV0YWxfYmluZGluZycsICctaW1hZScsICc8aW5maWxlLm1hZT4nLCAnLW9tYWUnLCAnPG91dGZpbGUubWFlPic=

> <r_epik_Ionization_Penalty>
0.00456191

> <r_epik_Ionization_Penalty_Charging>
0

> <r_epik_Ionization_Penalty_Neutral>
0.00456191

> <r_epik_State_Penalty>
0.00327094

> <r_epik_Charging_Adjusted_Penalty>
0.00327094

> <i_epik_Tot_Q>
0

> <i_epik_Tot_abs_Q>
0

> <r_epik_Metal_State_Penalty>
-0

> <b_epik_Metal_Only>
0

> <s_lp_Force_Field>
OPLS_2005

> <r_lp_Energy>
41.6225

> <b_lp_Chiralities_Consistent>
1

> <s_lp_Variant>
AV-unprocessed.smi:3354-7

> <Gold.Version>
5.8.1

> <Gold.Id.Protein>
6NUR|6NUR_protein|mol2

> <Gold.PLP.Fitness>
44.3190

> <Gold.PLP.PLP>
-35.6952

> <Gold.PLP.part.hbond>
-3.7179

> <Gold.PLP.part.metal>
0.0000

> <Gold.PLP.part.buried>
-2.4445

> <Gold.PLP.part.nonpolar>
-33.2028

> <Gold.PLP.part.repulsive>
3.1104

> <Gold.PLP.ligand.clash>
0.0000

> <Gold.PLP.ligand.torsion>
0.2552

> <Gold.PLP.Chemscore.Hbond>
2.9760

> <Gold.PLP.Chemscore.CHOScore>
0.0000

> <Gold.PLP.Chemscore.Metal>
0.0000

> <Gold.Chemscore.Hbonds>
donor molecule, donor type, donor heavy atom, donor atom, acceptor molecule, acceptor atom, score
      L1  H     8    31       P1  7948  0.96
      L1  H    11    32       P1  7948  1.00
      P1  H  7989  7998       L1    16  1.00

> <Gold.PLP.Chemscore.Internal.Correction>
0.2062

> <Gold.Rescore>
     Score         DG    S(hbond)    S(metal)    S(lipo)     H(rot)  DE(clash)    DE(int)     intcor
     15.16     -18.83       2.04        0.00      82.99       1.24       1.02       2.66       ----

> <Gold.Chemscore.Fitness>
15.1559

> <Gold.Chemscore.DG>
-18.8344

> <Gold.Chemscore.ZeroCoef>
-5.4800

> <Gold.Chemscore.Hbond>
2.0387

> <Gold.Chemscore.Metal>
0.0000

> <Gold.Chemscore.Lipo>
82.9873

> <Gold.Chemscore.Internal_Hbond>
0.0000

> <Gold.Chemscore.DEClash>
1.0163

> <Gold.Chemscore.DEInternal>
2.6621

> <Gold.Chemscore.Rot>
1.2361

> <Gold.Chemscore.Internal.Correction>
   9.000000E+99

> <Gold.Chemscore.Hbonds>
donor molecule, donor type, donor heavy atom, donor atom, acceptor molecule, acceptor atom, score
      L1  H     8    31       P1  7948  0.91
      L1  H    11    32       P1  7948  0.92
      P1  H  7989  7998       L1    16  0.08

> <Gold.Chemscore.Hbond.Weighted>
-6.8092

> <Gold.Chemscore.Metal.Weighted>
-0.0000

> <Gold.Chemscore.Lipo.Weighted>
-9.7095

> <Gold.Chemscore.Internal_Hbond.Weighted>
0.0000

> <Gold.Chemscore.DEClash.Weighted>
1.0163

> <Gold.Chemscore.DEInternal.Weighted>
2.6621

> <Gold.Chemscore.Rot.Weighted>
3.1643

> <Gold.Chemscore.Internal.Correction.Weighted>
   9.000000E+99

> <Gold.Protein.RotatedTorsions>
[ 6907 6896 6895 6894 ] final  148.83 input  -60.11 | X-H torsion
[ 7974 7965 7964 7962 ] final  177.61 input  175.53 | X-H torsion
[ 8008 7997 7996 7995 ] final  172.08 input   59.86 | X-H torsion
[ 10167 10162 10161 10158 ] final  173.41 input  -65.29 | X-H torsion
[ 10718 10713 10712 10709 ] final  -81.73 input   66.30 | X-H torsion
[ 10763 10752 10751 10750 ] final  -35.03 input  -60.55 | X-H torsion
[ 11005 11000 10999 10996 ] final -101.79 input  -57.11 | X-H torsion

> <Gold.Protein.ActiveResidues>
 VAL166  LYS551  ARG553  GLY616  TRP617  ASP618  TYR619  PRO620  LYS621  CYS622 
 ASP623  PHE694  ASN695  SER759  ASP760  ASP761  ALA762  ILE779  LEU786  VAL792 
 PHE793  MET794  SER795  GLU796  ALA797  LYS798  CYS799  TRP800  GLU811  SER814 

> <Gold.Protein.RotatedAtoms>
  152.1362  133.4437  159.4744 H   0  0  0  0  0  0  0  0  0  0  0  0  # atno 6907 bound_to 6896
  150.6882  134.2360  159.4463 H   0  0  0  0  0  0  0  0  0  0  0  0  # atno 6908 bound_to 6896
  152.0248  134.9801  160.0622 H   0  0  0  0  0  0  0  0  0  0  0  0  # atno 6909 bound_to 6896
  144.7167  140.0273  143.6439 H   0  0  0  0  0  0  0  0  0  0  0  0  # atno 7974 bound_to 7965
  156.1209  140.1495  156.9206 H   0  0  0  0  0  0  0  0  0  0  0  0  # atno 8008 bound_to 7997
  154.4835  140.0872  156.7474 H   0  0  0  0  0  0  0  0  0  0  0  0  # atno 8009 bound_to 7997
  155.4430  140.3432  155.4294 H   0  0  0  0  0  0  0  0  0  0  0  0  # atno 8010 bound_to 7997
  139.5107  144.3263  152.0154 H   0  0  0  0  0  0  0  0  0  0  0  0  # atno 10167 bound_to 10162
  156.0045  130.4612  150.3997 H   0  0  0  0  0  0  0  0  0  0  0  0  # atno 10718 bound_to 10713
  153.8565  135.6844  153.4787 H   0  0  0  0  0  0  0  0  0  0  0  0  # atno 10763 bound_to 10752
  153.1366  135.4675  154.9430 H   0  0  0  0  0  0  0  0  0  0  0  0  # atno 10764 bound_to 10752
  154.7778  135.3259  154.8003 H   0  0  0  0  0  0  0  0  0  0  0  0  # atno 10765 bound_to 10752
  141.1216  133.8506  157.1277 H   0  0  0  0  0  0  0  0  0  0  0  0  # atno 11005 bound_to 11000
  146.0132  139.3187  143.0858 LP  0  0  0  0  0  0  0  0  0  0  0  0  # atno 17320 bound_to 7965
  145.8657  140.9449  143.0677 LP  0  0  0  0  0  0  0  0  0  0  0  0  # atno 17321 bound_to 7965
  140.2704  144.3970  150.6153 LP  0  0  0  0  0  0  0  0  0  0  0  0  # atno 17342 bound_to 10162
  140.6092  143.2169  151.6919 LP  0  0  0  0  0  0  0  0  0  0  0  0  # atno 17343 bound_to 10162
  157.2066  131.0450  151.2622 LP  0  0  0  0  0  0  0  0  0  0  0  0  # atno 17370 bound_to 10713
  157.3927  130.7290  149.6709 LP  0  0  0  0  0  0  0  0  0  0  0  0  # atno 17371 bound_to 10713
  140.0178  134.9959  157.0530 LP  0  0  0  0  0  0  0  0  0  0  0  0  # atno 17394 bound_to 11000
  140.4490  134.1602  155.7180 LP  0  0  0  0  0  0  0  0  0  0  0  0  # atno 17395 bound_to 11000

$$$$
