AV-unprocessed.smi:3028|AV-procd|sdf|11517|dock6
  -GOLD-   2272016453D 1   1.00000     0.00000
 Structure written by MMmdl.
 48 49  0  0  0  0  0  0  0  0  2 V2000
  143.2206  132.2651  150.2022 C   0  0  0  0  0  0  0  0  0  0  0  0
  144.1737  133.2612  150.7969 C   0  0  0  0  0  0  0  0  0  0  0  0
  145.2927  133.8824  150.1736 C   0  0  0  0  0  0  0  0  0  0  0  0
  145.9291  134.7191  150.9766 N   0  0  0  0  0  0  0  0  0  0  0  0
  145.2460  134.6612  152.1398 N   0  0  0  0  0  0  0  0  0  0  0  0
  145.6748  135.4741  153.2710 C   0  0  2  0  0  0  0  0  0  0  0  0
  144.8862  135.0672  154.5291 C   0  0  0  0  0  0  0  0  0  0  0  0
  145.5860  136.9918  152.9571 C   0  0  2  0  0  0  0  0  0  0  0  0
  144.1378  137.5069  152.8692 C   0  0  0  0  0  0  0  0  0  0  0  0
  146.2765  137.2987  151.6845 N   0  3  0  0  0  0  0  0  0  0  0  0
  146.6347  138.7210  151.4936 C   0  0  0  0  0  0  0  0  0  0  0  0
  147.3134  139.3230  152.7309 C   0  0  0  0  0  0  0  0  0  0  0  0
  146.8416  140.3263  153.2635 O   0  0  0  0  0  0  0  0  0  0  0  0
  148.4237  138.7452  153.2199 N   0  0  0  0  0  0  0  0  0  0  0  0
  149.2207  139.1512  154.3771 C   0  0  0  0  0  0  0  0  0  0  0  0
  149.3284  140.6829  154.4263 C   0  0  0  0  0  0  0  0  0  0  0  0
  150.3106  141.1250  155.5233 C   0  0  0  0  0  0  0  0  0  0  0  0
  151.5811  140.5184  155.3139 O   0  0  0  0  0  0  0  0  0  0  0  0
  151.5376  139.0975  155.3889 C   0  0  0  0  0  0  0  0  0  0  0  0
  150.6276  138.5413  154.2816 C   0  0  0  0  0  0  0  0  0  0  0  0
  144.1801  133.7876  152.0573 C   0  0  0  0  0  0  0  0  0  0  0  0
  143.4237  132.0908  149.1454 H   0  0  0  0  0  0  0  0  0  0  0  0
  142.1866  132.6021  150.2788 H   0  0  0  0  0  0  0  0  0  0  0  0
  143.2830  131.2997  150.7047 H   0  0  0  0  0  0  0  0  0  0  0  0
  145.6586  133.7514  149.1657 H   0  0  0  0  0  0  0  0  0  0  0  0
  146.7241  135.2367  153.4585 H   0  0  0  0  0  0  0  0  0  0  0  0
  145.2828  135.5480  155.4231 H   0  0  0  0  0  0  0  0  0  0  0  0
  144.9442  133.9905  154.6938 H   0  0  0  0  0  0  0  0  0  0  0  0
  143.8321  135.3335  154.4456 H   0  0  0  0  0  0  0  0  0  0  0  0
  146.0690  137.5430  153.7659 H   0  0  0  0  0  0  0  0  0  0  0  0
  143.6122  137.4079  153.8192 H   0  0  0  0  0  0  0  0  0  0  0  0
  143.5681  136.9617  152.1160 H   0  0  0  0  0  0  0  0  0  0  0  0
  144.1146  138.5640  152.6026 H   0  0  0  0  0  0  0  0  0  0  0  0
  147.1171  136.7411  151.6304 H   0  0  0  0  0  0  0  0  0  0  0  0
  147.3068  138.8031  150.6384 H   0  0  0  0  0  0  0  0  0  0  0  0
  145.7348  139.2938  151.2683 H   0  0  0  0  0  0  0  0  0  0  0  0
  148.7587  137.9291  152.7276 H   0  0  0  0  0  0  0  0  0  0  0  0
  148.7758  138.8141  155.3130 H   0  0  0  0  0  0  0  0  0  0  0  0
  149.6752  141.0626  153.4640 H   0  0  0  0  0  0  0  0  0  0  0  0
  148.3475  141.1263  154.6016 H   0  0  0  0  0  0  0  0  0  0  0  0
  150.4305  142.2084  155.5034 H   0  0  0  0  0  0  0  0  0  0  0  0
  149.9308  140.8655  156.5127 H   0  0  0  0  0  0  0  0  0  0  0  0
  152.5491  138.7076  155.2735 H   0  0  0  0  0  0  0  0  0  0  0  0
  151.1874  138.7853  156.3741 H   0  0  0  0  0  0  0  0  0  0  0  0
  150.5748  137.4542  154.3518 H   0  0  0  0  0  0  0  0  0  0  0  0
  151.0685  138.7708  153.3102 H   0  0  0  0  0  0  0  0  0  0  0  0
  143.5188  133.6148  152.8938 H   0  0  0  0  0  0  0  0  0  0  0  0
  145.6714  137.0308  150.9213 H   0  0  0  0  0  0  0  0  0  0  0  0
  1  2  1  0  0  0  0
  1 22  1  0  0  0  0
  1 23  1  0  0  0  0
  1 24  1  0  0  0  0
  2 21  2  0  0  0  0
  2  3  1  0  0  0  0
  3  4  2  0  0  0  0
  3 25  1  0  0  0  0
  4  5  1  0  0  0  0
  5  6  1  0  0  0  0
  5 21  1  0  0  0  0
  6  7  1  0  0  0  0
  6  8  1  0  0  0  0
  6 26  1  0  0  0  0
  7 27  1  0  0  0  0
  7 28  1  0  0  0  0
  7 29  1  0  0  0  0
  8  9  1  0  0  0  0
  8 10  1  0  0  0  0
  8 30  1  0  0  0  0
  9 31  1  0  0  0  0
  9 32  1  0  0  0  0
  9 33  1  0  0  0  0
 10 11  1  0  0  0  0
 10 34  1  0  0  0  0
 10 48  1  0  0  0  0
 11 12  1  0  0  0  0
 11 35  1  0  0  0  0
 11 36  1  0  0  0  0
 12 13  2  0  0  0  0
 12 14  1  0  0  0  0
 14 15  1  0  0  0  0
 14 37  1  0  0  0  0
 15 20  1  0  0  0  0
 15 16  1  0  0  0  0
 15 38  1  0  0  0  0
 16 17  1  0  0  0  0
 16 39  1  0  0  0  0
 16 40  1  0  0  0  0
 17 18  1  0  0  0  0
 17 41  1  0  0  0  0
 17 42  1  0  0  0  0
 18 19  1  0  0  0  0
 19 20  1  0  0  0  0
 19 43  1  0  0  0  0
 19 44  1  0  0  0  0
 20 45  1  0  0  0  0
 20 46  1  0  0  0  0
 21 47  1  0  0  0  0
M  CHG  1  10   1
M  END
> <s_m_source_file>
AV-unprocessed.smi

> <i_m_source_file_index>
3028

> <i_lp_mmshare_version>
43012

> <i_f3d_flags>
0

> <s_epik_input>
W0NIM11jMVtjSF1ubihbY0hdMSlbQ0BIXShbQ0gzXSlbQ0BIXShbQ0gzXSlbTkhdW0NIMl1DKD1PKVtOSF1bQ0hdMltDSDJdW0NIMl1PW0NIMl1bQ0gyXTI=

> <s_epik_cmdline>
J2VwaWtfcHl0aG9uJywgJy1waCcsICc3LjAnLCAnLXRuJywgJzgnLCAnLW1hJywgJzIwMCcsICctbWV0YWxfYmluZGluZycsICctaW1hZScsICc8aW5maWxlLm1hZT4nLCAnLW9tYWUnLCAnPG91dGZpbGUubWFlPic=

> <r_lp_tautomer_probability>
1

> <r_epik_Ionization_Penalty>
0.151514

> <r_epik_Ionization_Penalty_Charging>
0.151494

> <r_epik_Ionization_Penalty_Neutral>
1.95502e-05

> <r_epik_State_Penalty>
0.141395

> <r_epik_Charging_Adjusted_Penalty>
0.292889

> <i_epik_Tot_Q>
1

> <i_epik_Tot_abs_Q>
1

> <r_epik_Metal_State_Penalty>
0.141632

> <b_epik_Metal_Only>
0

> <s_lp_Force_Field>
OPLS_2005

> <r_lp_Energy>
18.1204

> <b_lp_Chiralities_Consistent>
1

> <s_lp_Variant>
AV-unprocessed.smi:3028-1

> <Gold.Version>
5.8.1

> <Gold.Id.Protein>
6NUR|6NUR_protein|mol2

> <Gold.PLP.Fitness>
52.7690

> <Gold.PLP.PLP>
-36.5000

> <Gold.PLP.part.hbond>
-4.0000

> <Gold.PLP.part.metal>
0.0000

> <Gold.PLP.part.buried>
-1.4321

> <Gold.PLP.part.nonpolar>
-32.4712

> <Gold.PLP.part.repulsive>
0.4967

> <Gold.PLP.ligand.clash>
0.0000

> <Gold.PLP.ligand.torsion>
0.6227

> <Gold.PLP.Chemscore.Hbond>
3.8000

> <Gold.PLP.Chemscore.CHOScore>
1.9993

> <Gold.PLP.Chemscore.Metal>
0.0000

> <Gold.Chemscore.Hbonds>
donor molecule, donor type, donor heavy atom, donor atom, acceptor molecule, acceptor atom, score
      L1  H    10    34       P1  7948  2.00
      L1  H    14    37       P1  7948  1.00
      P1  H  7989  7998       L1    18  0.64
      L1  C     3    25       P1  7921  0.71
      L1  C    21    47       P1 10957  0.40

> <Gold.PLP.Chemscore.Internal.Correction>
0.1164

> <Gold.Rescore>
     Score         DG    S(hbond)    S(metal)    S(lipo)     H(rot)  DE(clash)    DE(int)     intcor
     15.26     -17.42       2.13        0.00      84.73       1.99       0.12       2.04       ----

> <Gold.Chemscore.Fitness>
15.2564

> <Gold.Chemscore.DG>
-17.4203

> <Gold.Chemscore.ZeroCoef>
-5.4800

> <Gold.Chemscore.Hbond>
2.1317

> <Gold.Chemscore.Metal>
0.0000

> <Gold.Chemscore.Lipo>
84.7346

> <Gold.Chemscore.Internal_Hbond>
0.0000

> <Gold.Chemscore.DEClash>
0.1208

> <Gold.Chemscore.DEInternal>
2.0431

> <Gold.Chemscore.Rot>
1.9897

> <Gold.Chemscore.Internal.Correction>
   9.000000E+99

> <Gold.Chemscore.Hbonds>
donor molecule, donor type, donor heavy atom, donor atom, acceptor molecule, acceptor atom, score
      L1  H    10    34       P1  7948  0.99
      L1  H    14    37       P1  7948  1.00
      P1  H  7989  7998       L1    18  0.05

> <Gold.Chemscore.Hbond.Weighted>
-7.1199

> <Gold.Chemscore.Metal.Weighted>
-0.0000

> <Gold.Chemscore.Lipo.Weighted>
-9.9139

> <Gold.Chemscore.Internal_Hbond.Weighted>
0.0000

> <Gold.Chemscore.DEClash.Weighted>
0.1208

> <Gold.Chemscore.DEInternal.Weighted>
2.0431

> <Gold.Chemscore.Rot.Weighted>
5.0936

> <Gold.Chemscore.Internal.Correction.Weighted>
   9.000000E+99

> <Gold.Protein.RotatedTorsions>
[ 6907 6896 6895 6894 ] final   64.45 input  -60.11 | X-H torsion
[ 7974 7965 7964 7962 ] final -141.61 input  175.53 | X-H torsion
[ 8008 7997 7996 7995 ] final   95.77 input   59.86 | X-H torsion
[ 10167 10162 10161 10158 ] final    2.18 input  -65.29 | X-H torsion
[ 10718 10713 10712 10709 ] final  -10.47 input   66.30 | X-H torsion
[ 10763 10752 10751 10750 ] final  133.13 input  -60.55 | X-H torsion
[ 11005 11000 10999 10996 ] final  131.46 input  -57.11 | X-H torsion

> <Gold.Protein.ActiveResidues>
 VAL166  LYS551  ARG553  GLY616  TRP617  ASP618  TYR619  PRO620  LYS621  CYS622 
 ASP623  PHE694  ASN695  SER759  ASP760  ASP761  ALA762  ILE779  LEU786  VAL792 
 PHE793  MET794  SER795  GLU796  ALA797  LYS798  CYS799  TRP800  GLU811  SER814 

> <Gold.Protein.RotatedAtoms>
  152.4333  134.5736  159.9927 H   0  0  0  0  0  0  0  0  0  0  0  0  # atno 6907 bound_to 6896
  151.5853  133.3367  159.3024 H   0  0  0  0  0  0  0  0  0  0  0  0  # atno 6908 bound_to 6896
  150.8228  134.7479  159.6851 H   0  0  0  0  0  0  0  0  0  0  0  0  # atno 6909 bound_to 6896
  144.8506  140.6059  143.5392 H   0  0  0  0  0  0  0  0  0  0  0  0  # atno 7974 bound_to 7965
  156.0724  140.3282  155.7593 H   0  0  0  0  0  0  0  0  0  0  0  0  # atno 8008 bound_to 7997
  155.5283  140.0591  157.2911 H   0  0  0  0  0  0  0  0  0  0  0  0  # atno 8009 bound_to 7997
  154.4537  140.1932  156.0459 H   0  0  0  0  0  0  0  0  0  0  0  0  # atno 8010 bound_to 7997
  140.6647  143.7211  150.7805 H   0  0  0  0  0  0  0  0  0  0  0  0  # atno 10167 bound_to 10162
  156.6730  130.5015  149.5994 H   0  0  0  0  0  0  0  0  0  0  0  0  # atno 10718 bound_to 10713
  153.8021  135.3140  155.3391 H   0  0  0  0  0  0  0  0  0  0  0  0  # atno 10763 bound_to 10752
  154.8085  135.4682  154.0457 H   0  0  0  0  0  0  0  0  0  0  0  0  # atno 10764 bound_to 10752
  153.1808  135.6893  153.8568 H   0  0  0  0  0  0  0  0  0  0  0  0  # atno 10765 bound_to 10752
  139.9732  134.9571  156.9441 H   0  0  0  0  0  0  0  0  0  0  0  0  # atno 11005 bound_to 11000
  145.4508  139.1524  143.3919 LP  0  0  0  0  0  0  0  0  0  0  0  0  # atno 17320 bound_to 7965
  146.2781  140.4633  142.8787 LP  0  0  0  0  0  0  0  0  0  0  0  0  # atno 17321 bound_to 7965
  140.0886  143.4900  152.2491 LP  0  0  0  0  0  0  0  0  0  0  0  0  # atno 17342 bound_to 10162
  139.5892  144.7543  151.3443 LP  0  0  0  0  0  0  0  0  0  0  0  0  # atno 17343 bound_to 10162
  156.1924  130.6568  151.1076 LP  0  0  0  0  0  0  0  0  0  0  0  0  # atno 17370 bound_to 10713
  157.7070  131.0751  150.6631 LP  0  0  0  0  0  0  0  0  0  0  0  0  # atno 17371 bound_to 10713
  140.5250  134.0869  155.7301 LP  0  0  0  0  0  0  0  0  0  0  0  0  # atno 17394 bound_to 11000
  141.1410  133.9138  157.2325 LP  0  0  0  0  0  0  0  0  0  0  0  0  # atno 17395 bound_to 11000

$$$$
