AV-unprocessed.smi:868|AV-procd|sdf|4002|dock5
  -GOLD-   22720 1483D 1   1.00000     0.00000
 Structure written by MMmdl.
 47 49  0  0  0  0  0  0  0  0  1 V2000
  149.1383  131.7105  153.6695 C   0  0  0  0  0  0  0  0  0  0  0  0
  148.7174  133.0692  154.2534 C   0  0  0  0  0  0  0  0  0  0  0  0
  147.6033  133.6941  153.4001 C   0  0  0  0  0  0  0  0  0  0  0  0
  149.8964  134.0654  154.4125 C   0  0  0  0  0  0  0  0  0  0  0  0
  149.6978  135.2564  155.3767 C   0  0  0  0  0  0  0  0  0  0  0  0
  151.0296  136.0254  155.5647 C   0  0  0  0  0  0  0  0  0  0  0  0
  151.9743  135.5223  156.1737 O   0  0  0  0  0  0  0  0  0  0  0  0
  151.0801  137.2631  155.0461 N   0  0  0  0  0  0  0  0  0  0  0  0
  152.2061  138.1798  155.1709 C   0  0  0  0  0  0  0  0  0  0  0  0
  151.8495  139.3829  156.0583 C   0  0  0  0  0  0  0  0  0  0  0  0
  150.8314  140.2791  155.4256 C   0  0  0  0  0  0  0  0  0  0  0  0
  150.4462  140.1706  154.1482 N   0  0  0  0  0  0  0  0  0  0  0  0
  149.4667  141.1271  153.9727 N   0  0  0  0  0  0  0  0  0  0  0  0
  149.3523  141.7115  155.1643 C   0  0  0  0  0  0  0  0  0  0  0  0
  150.1832  141.2446  156.1100 N   0  0  0  0  0  0  0  0  0  0  0  0
  150.2774  141.6217  157.5106 C   0  0  0  0  0  0  0  0  0  0  0  0
  150.6696  143.0606  157.7633 C   0  0  0  0  0  0  0  0  0  0  0  0
  151.6772  141.9530  157.9741 C   0  0  0  0  0  0  0  0  0  0  0  0
  148.4793  136.1845  155.1264 C   0  0  0  0  0  0  0  0  0  0  0  0
  148.1482  136.1644  156.6178 C   0  0  0  0  0  0  0  0  0  0  0  0
  149.0548  134.9409  156.7490 C   0  0  0  0  0  0  0  0  0  0  0  0
  149.6484  131.8296  152.7131 H   0  0  0  0  0  0  0  0  0  0  0  0
  148.2716  131.0696  153.5053 H   0  0  0  0  0  0  0  0  0  0  0  0
  149.8040  131.1731  154.3436 H   0  0  0  0  0  0  0  0  0  0  0  0
  148.2820  132.8813  155.2350 H   0  0  0  0  0  0  0  0  0  0  0  0
  147.9496  133.9042  152.3876 H   0  0  0  0  0  0  0  0  0  0  0  0
  147.2530  134.6311  153.8339 H   0  0  0  0  0  0  0  0  0  0  0  0
  146.7433  133.0279  153.3259 H   0  0  0  0  0  0  0  0  0  0  0  0
  150.7729  133.4994  154.7306 H   0  0  0  0  0  0  0  0  0  0  0  0
  150.1632  134.4467  153.4257 H   0  0  0  0  0  0  0  0  0  0  0  0
  150.2661  137.6034  154.5549 H   0  0  0  0  0  0  0  0  0  0  0  0
  153.0790  137.6561  155.5647 H   0  0  0  0  0  0  0  0  0  0  0  0
  152.4734  138.5222  154.1709 H   0  0  0  0  0  0  0  0  0  0  0  0
  151.4854  139.0422  157.0273 H   0  0  0  0  0  0  0  0  0  0  0  0
  152.7437  139.9732  156.2633 H   0  0  0  0  0  0  0  0  0  0  0  0
  148.6379  142.4995  155.3523 H   0  0  0  0  0  0  0  0  0  0  0  0
  149.5754  141.1014  158.1591 H   0  0  0  0  0  0  0  0  0  0  0  0
  150.8308  143.7198  156.9124 H   0  0  0  0  0  0  0  0  0  0  0  0
  150.2636  143.5411  158.6510 H   0  0  0  0  0  0  0  0  0  0  0  0
  151.9378  141.7015  159.0000 H   0  0  0  0  0  0  0  0  0  0  0  0
  152.4902  141.8723  157.2547 H   0  0  0  0  0  0  0  0  0  0  0  0
  148.6886  137.1821  154.7396 H   0  0  0  0  0  0  0  0  0  0  0  0
  147.7052  135.7029  154.5271 H   0  0  0  0  0  0  0  0  0  0  0  0
  148.5353  137.0357  157.1480 H   0  0  0  0  0  0  0  0  0  0  0  0
  147.0986  135.9805  156.8483 H   0  0  0  0  0  0  0  0  0  0  0  0
  148.4944  134.0047  156.7428 H   0  0  0  0  0  0  0  0  0  0  0  0
  149.7203  134.9833  157.6126 H   0  0  0  0  0  0  0  0  0  0  0  0
  1  2  1  0  0  0  0
  1 22  1  0  0  0  0
  1 23  1  0  0  0  0
  1 24  1  0  0  0  0
  2  3  1  0  0  0  0
  2  4  1  0  0  0  0
  2 25  1  0  0  0  0
  3 26  1  0  0  0  0
  3 27  1  0  0  0  0
  3 28  1  0  0  0  0
  4  5  1  0  0  0  0
  4 29  1  0  0  0  0
  4 30  1  0  0  0  0
  5 21  1  0  0  0  0
  5  6  1  0  0  0  0
  5 19  1  0  0  0  0
  6  7  2  0  0  0  0
  6  8  1  0  0  0  0
  8  9  1  0  0  0  0
  8 31  1  0  0  0  0
  9 10  1  0  0  0  0
  9 32  1  0  0  0  0
  9 33  1  0  0  0  0
 10 11  1  0  0  0  0
 10 34  1  0  0  0  0
 10 35  1  0  0  0  0
 11 15  1  0  0  0  0
 11 12  2  0  0  0  0
 12 13  1  0  0  0  0
 13 14  2  0  0  0  0
 14 15  1  0  0  0  0
 14 36  1  0  0  0  0
 15 16  1  0  0  0  0
 16 18  1  0  0  0  0
 16 17  1  0  0  0  0
 16 37  1  0  0  0  0
 17 18  1  0  0  0  0
 17 38  1  0  0  0  0
 17 39  1  0  0  0  0
 18 40  1  0  0  0  0
 18 41  1  0  0  0  0
 19 20  1  0  0  0  0
 19 42  1  0  0  0  0
 19 43  1  0  0  0  0
 20 21  1  0  0  0  0
 20 44  1  0  0  0  0
 20 45  1  0  0  0  0
 21 46  1  0  0  0  0
 21 47  1  0  0  0  0
M  END
> <s_m_source_file>
AV-unprocessed.smi

> <i_m_source_file_index>
868

> <i_lp_mmshare_version>
43012

> <i_f3d_flags>
0

> <s_epik_input>
W0NIM11bQ0hdKFtDSDNdKVtDSDJdQzEoW0NIMl1bQ0gyXVtDSDJdMSlDKD1PKVtOSF1bQ0gyXVtDSDJdYzJubltjSF1uMltDSF0zW0NIMl1bQ0gyXTM=

> <s_epik_cmdline>
J2VwaWtfcHl0aG9uJywgJy1waCcsICc3LjAnLCAnLXRuJywgJzgnLCAnLW1hJywgJzIwMCcsICctbWV0YWxfYmluZGluZycsICctaW1hZScsICc8aW5maWxlLm1hZT4nLCAnLW9tYWUnLCAnPG91dGZpbGUubWFlPic=

> <r_lp_tautomer_probability>
1

> <r_epik_Ionization_Penalty>
0.000232087

> <r_epik_Ionization_Penalty_Charging>
0

> <r_epik_Ionization_Penalty_Neutral>
0.000232087

> <r_epik_State_Penalty>
-0

> <r_epik_Charging_Adjusted_Penalty>
0

> <i_epik_Tot_Q>
0

> <i_epik_Tot_abs_Q>
0

> <r_epik_Metal_State_Penalty>
-0

> <b_epik_Metal_Only>
0

> <s_lp_Force_Field>
OPLS_2005

> <r_lp_Energy>
30.4352

> <b_lp_Chiralities_Consistent>
1

> <s_lp_Variant>
AV-unprocessed.smi:868-1

> <Gold.Version>
5.8.1

> <Gold.Id.Protein>
6NUR|6NUR_protein|mol2

> <Gold.PLP.Fitness>
43.5077

> <Gold.PLP.PLP>
-33.5276

> <Gold.PLP.part.hbond>
-3.8219

> <Gold.PLP.part.metal>
0.0000

> <Gold.PLP.part.buried>
-1.3622

> <Gold.PLP.part.nonpolar>
-29.0046

> <Gold.PLP.part.repulsive>
0.6573

> <Gold.PLP.ligand.clash>
0.0000

> <Gold.PLP.ligand.torsion>
0.8582

> <Gold.PLP.Chemscore.Hbond>
2.6100

> <Gold.PLP.Chemscore.CHOScore>
1.0000

> <Gold.PLP.Chemscore.Metal>
0.0000

> <Gold.Chemscore.Hbonds>
donor molecule, donor type, donor heavy atom, donor atom, acceptor molecule, acceptor atom, score
      P1  H  7989  7998       L1    12  0.91
      P1  H  8011  8017       L1    13  0.68
      P1  H 10752 10765       L1     7  1.00
      L1  C    14    36       P1  8028  1.00

> <Gold.PLP.Chemscore.Internal.Correction>
0.8666

> <Gold.Rescore>
     Score         DG    S(hbond)    S(metal)    S(lipo)     H(rot)  DE(clash)    DE(int)     intcor
     10.16     -12.09       1.31        0.00      66.58       2.17       0.85       1.07       ----

> <Gold.Chemscore.Fitness>
10.1650

> <Gold.Chemscore.DG>
-12.0885

> <Gold.Chemscore.ZeroCoef>
-5.4800

> <Gold.Chemscore.Hbond>
1.3066

> <Gold.Chemscore.Metal>
0.0000

> <Gold.Chemscore.Lipo>
66.5845

> <Gold.Chemscore.Internal_Hbond>
0.0000

> <Gold.Chemscore.DEClash>
0.8528

> <Gold.Chemscore.DEInternal>
1.0708

> <Gold.Chemscore.Rot>
2.1664

> <Gold.Chemscore.Internal.Correction>
   9.000000E+99

> <Gold.Chemscore.Hbonds>
donor molecule, donor type, donor heavy atom, donor atom, acceptor molecule, acceptor atom, score
      P1  H  7989  7998       L1    12  0.05
      P1  H  8011  8017       L1    13  0.55
      P1  H 10752 10765       L1     7  0.77

> <Gold.Chemscore.Hbond.Weighted>
-4.3642

> <Gold.Chemscore.Metal.Weighted>
-0.0000

> <Gold.Chemscore.Lipo.Weighted>
-7.7904

> <Gold.Chemscore.Internal_Hbond.Weighted>
0.0000

> <Gold.Chemscore.DEClash.Weighted>
0.8528

> <Gold.Chemscore.DEInternal.Weighted>
1.0708

> <Gold.Chemscore.Rot.Weighted>
5.5461

> <Gold.Chemscore.Internal.Correction.Weighted>
   9.000000E+99

> <Gold.Protein.RotatedTorsions>
[ 6907 6896 6895 6894 ] final    3.77 input  -60.11 | X-H torsion
[ 7974 7965 7964 7962 ] final   45.63 input  175.53 | X-H torsion
[ 8008 7997 7996 7995 ] final  -10.17 input   59.86 | X-H torsion
[ 10167 10162 10161 10158 ] final   99.94 input  -65.29 | X-H torsion
[ 10718 10713 10712 10709 ] final  125.74 input   66.30 | X-H torsion
[ 10763 10752 10751 10750 ] final -135.39 input  -60.55 | X-H torsion
[ 11005 11000 10999 10996 ] final -158.36 input  -57.11 | X-H torsion

> <Gold.Protein.ActiveResidues>
 VAL166  LYS551  ARG553  GLY616  TRP617  ASP618  TYR619  PRO620  LYS621  CYS622 
 ASP623  PHE694  ASN695  SER759  ASP760  ASP761  ALA762  ILE779  LEU786  VAL792 
 PHE793  MET794  SER795  GLU796  ALA797  LYS798  CYS799  TRP800  GLU811  SER814 

> <Gold.Protein.RotatedAtoms>
  151.6304  135.1023  160.0120 H   0  0  0  0  0  0  0  0  0  0  0  0  # atno 6907 bound_to 6896
  152.4109  133.6958  159.6405 H   0  0  0  0  0  0  0  0  0  0  0  0  # atno 6908 bound_to 6896
  150.8000  133.8542  159.3255 H   0  0  0  0  0  0  0  0  0  0  0  0  # atno 6909 bound_to 6896
  146.0463  139.4943  142.9747 H   0  0  0  0  0  0  0  0  0  0  0  0  # atno 7974 bound_to 7965
  154.5579  140.2336  155.8382 H   0  0  0  0  0  0  0  0  0  0  0  0  # atno 8008 bound_to 7997
  156.2004  140.3054  155.9474 H   0  0  0  0  0  0  0  0  0  0  0  0  # atno 8009 bound_to 7997
  155.2945  140.0428  157.3016 H   0  0  0  0  0  0  0  0  0  0  0  0  # atno 8010 bound_to 7997
  139.7572  144.6966  151.0345 H   0  0  0  0  0  0  0  0  0  0  0  0  # atno 10167 bound_to 10162
  157.5478  131.1095  150.8753 H   0  0  0  0  0  0  0  0  0  0  0  0  # atno 10718 bound_to 10713
  154.8704  135.3705  154.4890 H   0  0  0  0  0  0  0  0  0  0  0  0  # atno 10763 bound_to 10752
  153.5538  135.7024  153.5584 H   0  0  0  0  0  0  0  0  0  0  0  0  # atno 10764 bound_to 10752
  153.3690  135.4026  155.1739 H   0  0  0  0  0  0  0  0  0  0  0  0  # atno 10765 bound_to 10752
  140.6545  134.4415  157.5235 H   0  0  0  0  0  0  0  0  0  0  0  0  # atno 11005 bound_to 11000
  145.6801  141.0193  143.1611 LP  0  0  0  0  0  0  0  0  0  0  0  0  # atno 17320 bound_to 7965
  144.7099  139.8411  143.7418 LP  0  0  0  0  0  0  0  0  0  0  0  0  # atno 17321 bound_to 7965
  140.7804  143.4739  151.0109 LP  0  0  0  0  0  0  0  0  0  0  0  0  # atno 17342 bound_to 10162
  139.8426  143.7544  152.3180 LP  0  0  0  0  0  0  0  0  0  0  0  0  # atno 17343 bound_to 10162
  156.9286  130.5341  149.5279 LP  0  0  0  0  0  0  0  0  0  0  0  0  # atno 17370 bound_to 10713
  156.0550  130.5613  150.9073 LP  0  0  0  0  0  0  0  0  0  0  0  0  # atno 17371 bound_to 10713
  139.9034  134.8504  156.1802 LP  0  0  0  0  0  0  0  0  0  0  0  0  # atno 17394 bound_to 11000
  141.0512  133.6888  156.1775 LP  0  0  0  0  0  0  0  0  0  0  0  0  # atno 17395 bound_to 11000

$$$$
