AV-unprocessed.smi:1244|AV-procd|sdf|5225|dock2
  -GOLD-   22720 4323D 1   1.00000     0.00000
 Structure written by MMmdl.
 55 57  0  0  0  0  0  0  0  0  2 V2000
  144.6498  132.5009  150.3228 C   0  0  0  0  0  0  0  0  0  0  0  0
  145.8007  131.7011  150.9431 C   0  0  1  0  0  0  0  0  0  0  0  0
  146.5785  132.5193  151.9909 C   0  0  0  0  0  0  0  0  0  0  0  0
  147.6355  131.6909  152.6173 N   0  3  1  0  0  0  0  0  0  0  0  0
  148.4509  132.4535  153.5945 C   0  0  0  0  0  0  0  0  0  0  0  0
  147.5865  133.3491  154.5008 C   0  0  0  0  0  0  0  0  0  0  0  0
  148.0030  134.7440  154.4174 N   0  0  0  0  0  0  0  0  0  0  0  0
  148.9597  135.3018  155.1725 C   0  0  0  0  0  0  0  0  0  0  0  0
  149.6022  134.6797  156.0183 O   0  0  0  0  0  0  0  0  0  0  0  0
  149.1190  136.6017  154.8724 N   0  0  0  0  0  0  0  0  0  0  0  0
  150.0682  137.5248  155.3974 C   0  0  0  0  0  0  0  0  0  0  0  0
  151.2104  137.0948  156.1174 C   0  0  0  0  0  0  0  0  0  0  0  0
  152.0801  138.0510  156.6690 C   0  0  0  0  0  0  0  0  0  0  0  0
  151.7689  139.4097  156.4974 C   0  0  0  0  0  0  0  0  0  0  0  0
  150.6791  139.8358  155.8292 N   0  0  0  0  0  0  0  0  0  0  0  0
  149.8384  138.9262  155.2776 C   0  0  0  0  0  0  0  0  0  0  0  0
  148.7194  139.4353  154.5783 N   0  0  0  0  0  0  0  0  0  0  0  0
  147.3669  139.0429  154.9601 C   0  0  0  0  0  0  0  0  0  0  0  0
  146.4530  140.0520  154.2711 C   0  0  0  0  0  0  0  0  0  0  0  0
  147.2758  141.3350  154.3368 C   0  0  0  0  0  0  0  0  0  0  0  0
  148.7225  140.8467  154.2044 C   0  0  0  0  0  0  0  0  0  0  0  0
  147.0502  130.4499  153.1820 C   0  0  0  0  0  0  0  0  0  0  0  0
  146.2541  129.6878  152.1056 C   0  0  1  0  0  0  0  0  0  0  0  0
  145.5614  128.4440  152.6726 C   0  0  0  0  0  0  0  0  0  0  0  0
  145.2531  130.5470  151.5704 O   0  0  0  0  0  0  0  0  0  0  0  0
  145.0196  133.3939  149.8187 H   0  0  0  0  0  0  0  0  0  0  0  0
  143.9336  132.8169  151.0819 H   0  0  0  0  0  0  0  0  0  0  0  0
  144.1123  131.9029  149.5864 H   0  0  0  0  0  0  0  0  0  0  0  0
  146.4752  131.3893  150.1437 H   0  0  0  0  0  0  0  0  0  0  0  0
  147.0290  133.3904  151.5136 H   0  0  0  0  0  0  0  0  0  0  0  0
  145.9010  132.8894  152.7624 H   0  0  0  0  0  0  0  0  0  0  0  0
  148.9953  131.7552  154.2323 H   0  0  0  0  0  0  0  0  0  0  0  0
  149.2059  133.0380  153.0660 H   0  0  0  0  0  0  0  0  0  0  0  0
  146.5283  133.2713  154.2485 H   0  0  0  0  0  0  0  0  0  0  0  0
  147.6812  133.0288  155.5387 H   0  0  0  0  0  0  0  0  0  0  0  0
  147.5288  135.3249  153.7413 H   0  0  0  0  0  0  0  0  0  0  0  0
  148.5685  136.9489  154.1006 H   0  0  0  0  0  0  0  0  0  0  0  0
  151.4247  136.0497  156.2778 H   0  0  0  0  0  0  0  0  0  0  0  0
  152.9574  137.7491  157.2216 H   0  0  0  0  0  0  0  0  0  0  0  0
  152.4075  140.1754  156.9122 H   0  0  0  0  0  0  0  0  0  0  0  0
  147.1478  138.0205  154.6521 H   0  0  0  0  0  0  0  0  0  0  0  0
  147.2338  139.1128  156.0404 H   0  0  0  0  0  0  0  0  0  0  0  0
  146.2940  139.7634  153.2311 H   0  0  0  0  0  0  0  0  0  0  0  0
  145.4792  140.1422  154.7528 H   0  0  0  0  0  0  0  0  0  0  0  0
  147.0002  142.0581  153.5686 H   0  0  0  0  0  0  0  0  0  0  0  0
  147.1362  141.8089  155.3094 H   0  0  0  0  0  0  0  0  0  0  0  0
  149.3999  141.4352  154.8247 H   0  0  0  0  0  0  0  0  0  0  0  0
  149.0486  140.9349  153.1681 H   0  0  0  0  0  0  0  0  0  0  0  0
  147.8365  129.8057  153.5748 H   0  0  0  0  0  0  0  0  0  0  0  0
  146.3987  130.7037  154.0199 H   0  0  0  0  0  0  0  0  0  0  0  0
  146.9253  129.3755  151.3035 H   0  0  0  0  0  0  0  0  0  0  0  0
  146.2872  127.7459  153.0901 H   0  0  0  0  0  0  0  0  0  0  0  0
  145.0050  127.9192  151.8959 H   0  0  0  0  0  0  0  0  0  0  0  0
  144.8586  128.7093  153.4631 H   0  0  0  0  0  0  0  0  0  0  0  0
  148.2578  131.4159  151.8706 H   0  0  0  0  0  0  0  0  0  0  0  0
  1  2  1  0  0  0  0
  1 26  1  0  0  0  0
  1 27  1  0  0  0  0
  1 28  1  0  0  0  0
  2 25  1  0  0  0  0
  2  3  1  0  0  0  0
  2 29  1  0  0  0  0
  3  4  1  0  0  0  0
  3 30  1  0  0  0  0
  3 31  1  0  0  0  0
  4  5  1  0  0  0  0
  4 22  1  0  0  0  0
  4 55  1  0  0  0  0
  5  6  1  0  0  0  0
  5 32  1  0  0  0  0
  5 33  1  0  0  0  0
  6  7  1  0  0  0  0
  6 34  1  0  0  0  0
  6 35  1  0  0  0  0
  7  8  1  0  0  0  0
  7 36  1  0  0  0  0
  8  9  2  0  0  0  0
  8 10  1  0  0  0  0
 10 11  1  0  0  0  0
 10 37  1  0  0  0  0
 11 16  1  0  0  0  0
 11 12  2  0  0  0  0
 12 13  1  0  0  0  0
 12 38  1  0  0  0  0
 13 14  2  0  0  0  0
 13 39  1  0  0  0  0
 14 15  1  0  0  0  0
 14 40  1  0  0  0  0
 15 16  2  0  0  0  0
 16 17  1  0  0  0  0
 17 21  1  0  0  0  0
 17 18  1  0  0  0  0
 18 19  1  0  0  0  0
 18 41  1  0  0  0  0
 18 42  1  0  0  0  0
 19 20  1  0  0  0  0
 19 43  1  0  0  0  0
 19 44  1  0  0  0  0
 20 21  1  0  0  0  0
 20 45  1  0  0  0  0
 20 46  1  0  0  0  0
 21 47  1  0  0  0  0
 21 48  1  0  0  0  0
 22 23  1  0  0  0  0
 22 49  1  0  0  0  0
 22 50  1  0  0  0  0
 23 24  1  0  0  0  0
 23 25  1  0  0  0  0
 23 51  1  0  0  0  0
 24 52  1  0  0  0  0
 24 53  1  0  0  0  0
 24 54  1  0  0  0  0
M  CHG  1   4   1
M  END
> <s_m_source_file>
AV-unprocessed.smi

> <i_m_source_file_index>
1244

> <i_lp_mmshare_version>
43012

> <i_f3d_flags>
0

> <s_epik_input>
W0NIM11bQ0BASF0xW0NIMl1OKFtDSDJdW0NASF0oTzEpW0NIM10pW0NIMl1bQ0gyXVtOSF1DKD1PKVtOSF1jMltjSF1bY0hdW2NIXW5jMk4zW0NIMl1bQ0gyXVtDSDJdW0NIMl0z

> <s_epik_cmdline>
J2VwaWtfcHl0aG9uJywgJy1waCcsICc3LjAnLCAnLXRuJywgJzgnLCAnLW1hJywgJzIwMCcsICctbWV0YWxfYmluZGluZycsICctaW1hZScsICc8aW5maWxlLm1hZT4nLCAnLW9tYWUnLCAnPG91dGZpbGUubWFlPic=

> <r_lp_tautomer_probability>
1

> <r_epik_Ionization_Penalty>
0.684913

> <r_epik_Ionization_Penalty_Charging>
0.602531

> <r_epik_Ionization_Penalty_Neutral>
0.0823829

> <r_epik_State_Penalty>
0.678827

> <r_epik_Charging_Adjusted_Penalty>
1.28136

> <i_epik_Tot_Q>
1

> <i_epik_Tot_abs_Q>
1

> <r_epik_Metal_State_Penalty>
0.67806

> <b_epik_Metal_Only>
0

> <s_lp_Force_Field>
OPLS_2005

> <r_lp_Energy>
42.8464

> <b_lp_Chiralities_Consistent>
1

> <s_lp_Variant>
AV-unprocessed.smi:1244-5

> <Gold.Version>
5.8.1

> <Gold.Id.Protein>
6NUR|6NUR_protein|mol2

> <Gold.PLP.Fitness>
46.9253

> <Gold.PLP.PLP>
-42.4239

> <Gold.PLP.part.hbond>
-4.0000

> <Gold.PLP.part.metal>
0.0000

> <Gold.PLP.part.buried>
-1.9338

> <Gold.PLP.part.nonpolar>
-37.1033

> <Gold.PLP.part.repulsive>
0.4575

> <Gold.PLP.ligand.clash>
0.0000

> <Gold.PLP.ligand.torsion>
1.0089

> <Gold.PLP.Chemscore.Hbond>
2.0220

> <Gold.PLP.Chemscore.CHOScore>
0.0000

> <Gold.PLP.Chemscore.Metal>
0.0000

> <Gold.Chemscore.Hbonds>
donor molecule, donor type, donor heavy atom, donor atom, acceptor molecule, acceptor atom, score
      L1  H     4    55       P1 10747  1.00
      L1  H    10    37       P1  7948  0.06

> <Gold.PLP.Chemscore.Internal.Correction>
0.4534

> <Gold.Rescore>
     Score         DG    S(hbond)    S(metal)    S(lipo)     H(rot)  DE(clash)    DE(int)     intcor
     15.13     -18.65       1.41        0.00     107.12       1.60       0.64       2.88       ----

> <Gold.Chemscore.Fitness>
15.1268

> <Gold.Chemscore.DG>
-18.6468

> <Gold.Chemscore.ZeroCoef>
-5.4800

> <Gold.Chemscore.Hbond>
1.4145

> <Gold.Chemscore.Metal>
0.0000

> <Gold.Chemscore.Lipo>
107.1191

> <Gold.Chemscore.Internal_Hbond>
0.0000

> <Gold.Chemscore.DEClash>
0.6356

> <Gold.Chemscore.DEInternal>
2.8844

> <Gold.Chemscore.Rot>
1.5978

> <Gold.Chemscore.Internal.Correction>
   9.000000E+99

> <Gold.Chemscore.Hbonds>
donor molecule, donor type, donor heavy atom, donor atom, acceptor molecule, acceptor atom, score
      L1  H     4    55       P1 10747  1.00
      L1  H    10    37       P1  7948  0.07

> <Gold.Chemscore.Hbond.Weighted>
-4.7244

> <Gold.Chemscore.Metal.Weighted>
-0.0000

> <Gold.Chemscore.Lipo.Weighted>
-12.5329

> <Gold.Chemscore.Internal_Hbond.Weighted>
0.0000

> <Gold.Chemscore.DEClash.Weighted>
0.6356

> <Gold.Chemscore.DEInternal.Weighted>
2.8844

> <Gold.Chemscore.Rot.Weighted>
4.0905

> <Gold.Chemscore.Internal.Correction.Weighted>
   9.000000E+99

> <Gold.Protein.RotatedTorsions>
[ 6907 6896 6895 6894 ] final  -53.15 input  -60.11 | X-H torsion
[ 7974 7965 7964 7962 ] final   -3.73 input  175.53 | X-H torsion
[ 8008 7997 7996 7995 ] final   19.55 input   59.86 | X-H torsion
[ 10167 10162 10161 10158 ] final   77.74 input  -65.29 | X-H torsion
[ 10718 10713 10712 10709 ] final  -40.56 input   66.30 | X-H torsion
[ 10763 10752 10751 10750 ] final -163.94 input  -60.55 | X-H torsion
[ 11005 11000 10999 10996 ] final  140.16 input  -57.11 | X-H torsion

> <Gold.Protein.ActiveResidues>
 VAL166  LYS551  ARG553  GLY616  TRP617  ASP618  TYR619  PRO620  LYS621  CYS622 
 ASP623  PHE694  ASN695  SER759  ASP760  ASP761  ALA762  ILE779  LEU786  VAL792 
 PHE793  MET794  SER795  GLU796  ALA797  LYS798  CYS799  TRP800  GLU811  SER814 

> <Gold.Protein.RotatedAtoms>
  150.8453  134.7759  159.6964 H   0  0  0  0  0  0  0  0  0  0  0  0  # atno 6907 bound_to 6896
  152.4531  134.5348  159.9831 H   0  0  0  0  0  0  0  0  0  0  0  0  # atno 6908 bound_to 6896
  151.5479  133.3384  159.2983 H   0  0  0  0  0  0  0  0  0  0  0  0  # atno 6909 bound_to 6896
  146.2384  140.1766  142.8332 H   0  0  0  0  0  0  0  0  0  0  0  0  # atno 7974 bound_to 7965
  154.9224  140.3029  155.5209 H   0  0  0  0  0  0  0  0  0  0  0  0  # atno 8008 bound_to 7997
  156.3009  140.2369  156.4211 H   0  0  0  0  0  0  0  0  0  0  0  0  # atno 8009 bound_to 7997
  154.8318  140.0418  157.1470 H   0  0  0  0  0  0  0  0  0  0  0  0  # atno 8010 bound_to 7997
  139.9783  144.5845  150.7923 H   0  0  0  0  0  0  0  0  0  0  0  0  # atno 10167 bound_to 10162
  156.2800  130.4216  149.8346 H   0  0  0  0  0  0  0  0  0  0  0  0  # atno 10718 bound_to 10713
  154.7075  135.3000  154.9247 H   0  0  0  0  0  0  0  0  0  0  0  0  # atno 10763 bound_to 10752
  154.0160  135.6689  153.4773 H   0  0  0  0  0  0  0  0  0  0  0  0  # atno 10764 bound_to 10752
  153.0729  135.5051  154.8255 H   0  0  0  0  0  0  0  0  0  0  0  0  # atno 10765 bound_to 10752
  140.0307  134.9353  157.0657 H   0  0  0  0  0  0  0  0  0  0  0  0  # atno 11005 bound_to 11000
  144.9968  140.8597  143.5305 LP  0  0  0  0  0  0  0  0  0  0  0  0  # atno 17320 bound_to 7965
  145.1779  139.2368  143.5307 LP  0  0  0  0  0  0  0  0  0  0  0  0  # atno 17321 bound_to 7965
  140.7498  143.2944  151.3243 LP  0  0  0  0  0  0  0  0  0  0  0  0  # atno 17342 bound_to 10162
  139.6429  144.0506  152.2568 LP  0  0  0  0  0  0  0  0  0  0  0  0  # atno 17343 bound_to 10162
  156.5797  130.8460  151.3379 LP  0  0  0  0  0  0  0  0  0  0  0  0  # atno 17370 bound_to 10713
  157.7311  130.9696  150.1866 LP  0  0  0  0  0  0  0  0  0  0  0  0  # atno 17371 bound_to 10713
  140.4230  134.1860  155.7165 LP  0  0  0  0  0  0  0  0  0  0  0  0  # atno 17394 bound_to 11000
  141.1829  133.8375  157.1192 LP  0  0  0  0  0  0  0  0  0  0  0  0  # atno 17395 bound_to 11000

$$$$
