AV-unprocessed.smi:3321|AV-procd|sdf|12772|dock10
  -GOLD-   2272019113D 1   1.00000     0.00000
 Structure written by MMmdl.
 40 41  0  0  0  0  0  0  0  0  1 V2000
  152.6974  137.3841  158.3343 C   0  0  0  0  0  0  0  0  0  0  0  0
  151.9738  138.7399  158.3228 C   0  0  1  0  0  0  0  0  0  0  0  0
  152.7089  139.6904  159.1773 N   0  0  0  0  0  0  0  0  0  0  0  0
  151.9803  140.9262  159.4504 C   0  0  0  0  0  0  0  0  0  0  0  0
  152.8696  141.9032  160.2378 C   0  0  0  0  0  0  0  0  0  0  0  0
  152.4598  143.2865  160.0714 N   0  0  0  0  0  0  0  0  0  0  0  0
  152.0031  144.1655  161.0309 C   0  0  0  0  0  0  0  0  0  0  0  0
  151.7356  145.3485  160.4037 C   0  0  0  0  0  0  0  0  0  0  0  0
  152.0668  145.0918  159.0438 C   0  0  0  0  0  0  0  0  0  0  0  0
  152.5015  143.8573  158.8481 N   0  0  0  0  0  0  0  0  0  0  0  0
  151.7953  139.2310  156.8666 C   0  0  0  0  0  0  0  0  0  0  0  0
  152.8090  139.4109  156.1884 O   0  0  0  0  0  0  0  0  0  0  0  0
  150.5526  139.4496  156.3662 N   0  0  0  0  0  0  0  0  0  0  0  0
  150.3318  140.0496  155.0431 C   0  0  0  0  0  0  0  0  0  0  0  0
  149.7720  141.4716  155.2373 C   0  0  0  0  0  0  0  0  0  0  0  0
  148.4903  141.4524  156.0934 C   0  0  0  0  0  0  0  0  0  0  0  0
  148.6784  140.6364  157.3875 C   0  0  0  0  0  0  0  0  0  0  0  0
  149.2797  139.2549  157.0742 C   0  0  0  0  0  0  0  0  0  0  0  0
  152.1691  136.6408  157.7363 H   0  0  0  0  0  0  0  0  0  0  0  0
  152.7719  136.9904  159.3485 H   0  0  0  0  0  0  0  0  0  0  0  0
  153.7099  137.4690  157.9373 H   0  0  0  0  0  0  0  0  0  0  0  0
  150.9974  138.6117  158.7879 H   0  0  0  0  0  0  0  0  0  0  0  0
  153.6215  139.9011  158.7989 H   0  0  0  0  0  0  0  0  0  0  0  0
  151.6756  141.4004  158.5174 H   0  0  0  0  0  0  0  0  0  0  0  0
  151.0701  140.7108  160.0122 H   0  0  0  0  0  0  0  0  0  0  0  0
  152.8625  141.6586  161.3009 H   0  0  0  0  0  0  0  0  0  0  0  0
  153.9046  141.8114  159.9057 H   0  0  0  0  0  0  0  0  0  0  0  0
  151.9042  143.8771  162.0669 H   0  0  0  0  0  0  0  0  0  0  0  0
  151.3594  146.2578  160.8482 H   0  0  0  0  0  0  0  0  0  0  0  0
  152.0045  145.7613  158.1986 H   0  0  0  0  0  0  0  0  0  0  0  0
  151.2363  140.0896  154.4352 H   0  0  0  0  0  0  0  0  0  0  0  0
  149.6248  139.4400  154.4785 H   0  0  0  0  0  0  0  0  0  0  0  0
  150.5250  142.0937  155.7231 H   0  0  0  0  0  0  0  0  0  0  0  0
  149.5682  141.9311  154.2698 H   0  0  0  0  0  0  0  0  0  0  0  0
  148.1786  142.4699  156.3301 H   0  0  0  0  0  0  0  0  0  0  0  0
  147.6814  141.0106  155.5100 H   0  0  0  0  0  0  0  0  0  0  0  0
  149.3371  141.1747  158.0704 H   0  0  0  0  0  0  0  0  0  0  0  0
  147.7228  140.5242  157.9003 H   0  0  0  0  0  0  0  0  0  0  0  0
  148.5979  138.6954  156.4321 H   0  0  0  0  0  0  0  0  0  0  0  0
  149.3591  138.6559  157.9788 H   0  0  0  0  0  0  0  0  0  0  0  0
  1  2  1  0  0  0  0
  1 19  1  0  0  0  0
  1 20  1  0  0  0  0
  1 21  1  0  0  0  0
  2  3  1  0  0  0  0
  2 11  1  0  0  0  0
  2 22  1  0  0  0  0
  3  4  1  0  0  0  0
  3 23  1  0  0  0  0
  4  5  1  0  0  0  0
  4 24  1  0  0  0  0
  4 25  1  0  0  0  0
  5  6  1  0  0  0  0
  5 26  1  0  0  0  0
  5 27  1  0  0  0  0
  6 10  1  0  0  0  0
  6  7  1  0  0  0  0
  7  8  2  0  0  0  0
  7 28  1  0  0  0  0
  8  9  1  0  0  0  0
  8 29  1  0  0  0  0
  9 10  2  0  0  0  0
  9 30  1  0  0  0  0
 11 12  2  0  0  0  0
 11 13  1  0  0  0  0
 13 18  1  0  0  0  0
 13 14  1  0  0  0  0
 14 15  1  0  0  0  0
 14 31  1  0  0  0  0
 14 32  1  0  0  0  0
 15 16  1  0  0  0  0
 15 33  1  0  0  0  0
 15 34  1  0  0  0  0
 16 17  1  0  0  0  0
 16 35  1  0  0  0  0
 16 36  1  0  0  0  0
 17 18  1  0  0  0  0
 17 37  1  0  0  0  0
 17 38  1  0  0  0  0
 18 39  1  0  0  0  0
 18 40  1  0  0  0  0
M  END
> <s_m_source_file>
AV-unprocessed.smi

> <i_m_source_file_index>
3321

> <i_lp_mmshare_version>
43012

> <i_f3d_flags>
0

> <s_epik_input>
W0NIMl0xW0NIMl1bQ0gyXVtDSDJdW0NIMl1OMUMoPU8pW0NASF0oW0NIM10pW05IXVtDSDJdW0NIMl1uMltjSF1bY0hdW2NIXW4y

> <s_epik_cmdline>
J2VwaWtfcHl0aG9uJywgJy1waCcsICc3LjAnLCAnLXRuJywgJzgnLCAnLW1hJywgJzIwMCcsICctbWV0YWxfYmluZGluZycsICctaW1hZScsICc8aW5maWxlLm1hZT4nLCAnLW9tYWUnLCAnPG91dGZpbGUubWFlPic=

> <r_lp_tautomer_probability>
1

> <r_epik_Ionization_Penalty>
0.736446

> <r_epik_Ionization_Penalty_Charging>
0

> <r_epik_Ionization_Penalty_Neutral>
0.736446

> <r_epik_State_Penalty>
0.761204

> <r_epik_Charging_Adjusted_Penalty>
0.761204

> <i_epik_Tot_Q>
0

> <i_epik_Tot_abs_Q>
0

> <r_epik_Metal_State_Penalty>
0.760551

> <b_epik_Metal_Only>
0

> <s_lp_Force_Field>
OPLS_2005

> <r_lp_Energy>
28.7251

> <b_lp_Chiralities_Consistent>
1

> <s_lp_Variant>
AV-unprocessed.smi:3321-4

> <Gold.Version>
5.8.1

> <Gold.Id.Protein>
6NUR|6NUR_protein|mol2

> <Gold.PLP.Fitness>
40.8645

> <Gold.PLP.PLP>
-38.2077

> <Gold.PLP.part.hbond>
-1.0000

> <Gold.PLP.part.metal>
0.0000

> <Gold.PLP.part.buried>
-5.8010

> <Gold.PLP.part.nonpolar>
-31.1423

> <Gold.PLP.part.repulsive>
0.0073

> <Gold.PLP.ligand.clash>
0.0000

> <Gold.PLP.ligand.torsion>
0.2077

> <Gold.PLP.Chemscore.Hbond>
1.0000

> <Gold.PLP.Chemscore.CHOScore>
0.0000

> <Gold.PLP.Chemscore.Metal>
0.0000

> <Gold.Chemscore.Hbonds>
donor molecule, donor type, donor heavy atom, donor atom, acceptor molecule, acceptor atom, score
      P1  H  7997  8009       L1    12  1.00

> <Gold.PLP.Chemscore.Internal.Correction>
0.0723

> <Gold.Rescore>
     Score         DG    S(hbond)    S(metal)    S(lipo)     H(rot)  DE(clash)    DE(int)     intcor
     14.69     -14.90       1.00        0.00      89.73       1.73       0.01       0.20       ----

> <Gold.Chemscore.Fitness>
14.6911

> <Gold.Chemscore.DG>
-14.8961

> <Gold.Chemscore.ZeroCoef>
-5.4800

> <Gold.Chemscore.Hbond>
1.0000

> <Gold.Chemscore.Metal>
0.0000

> <Gold.Chemscore.Lipo>
89.7338

> <Gold.Chemscore.Internal_Hbond>
0.0000

> <Gold.Chemscore.DEClash>
0.0090

> <Gold.Chemscore.DEInternal>
0.1959

> <Gold.Chemscore.Rot>
1.7277

> <Gold.Chemscore.Internal.Correction>
   9.000000E+99

> <Gold.Chemscore.Hbonds>
donor molecule, donor type, donor heavy atom, donor atom, acceptor molecule, acceptor atom, score
      P1  H  7997  8009       L1    12  1.00

> <Gold.Chemscore.Hbond.Weighted>
-3.3400

> <Gold.Chemscore.Metal.Weighted>
-0.0000

> <Gold.Chemscore.Lipo.Weighted>
-10.4989

> <Gold.Chemscore.Internal_Hbond.Weighted>
0.0000

> <Gold.Chemscore.DEClash.Weighted>
0.0090

> <Gold.Chemscore.DEInternal.Weighted>
0.1959

> <Gold.Chemscore.Rot.Weighted>
4.4228

> <Gold.Chemscore.Internal.Correction.Weighted>
   9.000000E+99

> <Gold.Protein.RotatedTorsions>
[ 6907 6896 6895 6894 ] final   40.88 input  -60.11 | X-H torsion
[ 7974 7965 7964 7962 ] final  138.37 input  175.53 | X-H torsion
[ 8008 7997 7996 7995 ] final -163.57 input   59.86 | X-H torsion
[ 10167 10162 10161 10158 ] final   30.95 input  -65.29 | X-H torsion
[ 10718 10713 10712 10709 ] final  -88.91 input   66.30 | X-H torsion
[ 10763 10752 10751 10750 ] final  -59.22 input  -60.55 | X-H torsion
[ 11005 11000 10999 10996 ] final   59.68 input  -57.11 | X-H torsion

> <Gold.Protein.ActiveResidues>
 VAL166  LYS551  ARG553  GLY616  TRP617  ASP618  TYR619  PRO620  LYS621  CYS622 
 ASP623  PHE694  ASN695  SER759  ASP760  ASP761  ALA762  ILE779  LEU786  VAL792 
 PHE793  MET794  SER795  GLU796  ALA797  LYS798  CYS799  TRP800  GLU811  SER814 

> <Gold.Protein.RotatedAtoms>
  152.1881  134.8696  160.0519 H   0  0  0  0  0  0  0  0  0  0  0  0  # atno 6907 bound_to 6896
  151.9595  133.3685  159.4038 H   0  0  0  0  0  0  0  0  0  0  0  0  # atno 6908 bound_to 6896
  150.6930  134.4179  159.5235 H   0  0  0  0  0  0  0  0  0  0  0  0  # atno 6909 bound_to 6896
  144.9379  139.4967  143.5586 H   0  0  0  0  0  0  0  0  0  0  0  0  # atno 7974 bound_to 7965
  155.8232  140.0922  157.1837 H   0  0  0  0  0  0  0  0  0  0  0  0  # atno 8008 bound_to 7997
  154.3979  140.1433  156.3585 H   0  0  0  0  0  0  0  0  0  0  0  0  # atno 8009 bound_to 7997
  155.8244  140.3445  155.5536 H   0  0  0  0  0  0  0  0  0  0  0  0  # atno 8010 bound_to 7997
  140.4632  144.0875  150.6218 H   0  0  0  0  0  0  0  0  0  0  0  0  # atno 10167 bound_to 10162
  155.9984  130.4853  150.5092 H   0  0  0  0  0  0  0  0  0  0  0  0  # atno 10718 bound_to 10713
  154.2504  135.6327  153.5238 H   0  0  0  0  0  0  0  0  0  0  0  0  # atno 10763 bound_to 10752
  152.9913  135.5563  154.5814 H   0  0  0  0  0  0  0  0  0  0  0  0  # atno 10764 bound_to 10752
  154.5340  135.2890  155.1130 H   0  0  0  0  0  0  0  0  0  0  0  0  # atno 10765 bound_to 10752
  140.0286  134.6045  155.9538 H   0  0  0  0  0  0  0  0  0  0  0  0  # atno 11005 bound_to 11000
  146.3274  139.8376  142.8896 LP  0  0  0  0  0  0  0  0  0  0  0  0  # atno 17320 bound_to 7965
  145.3038  141.0201  143.3593 LP  0  0  0  0  0  0  0  0  0  0  0  0  # atno 17321 bound_to 7965
  140.4068  143.2676  151.9881 LP  0  0  0  0  0  0  0  0  0  0  0  0  # atno 17342 bound_to 10162
  139.4809  144.5950  151.7706 LP  0  0  0  0  0  0  0  0  0  0  0  0  # atno 17343 bound_to 10162
  157.3067  131.0656  151.2030 LP  0  0  0  0  0  0  0  0  0  0  0  0  # atno 17370 bound_to 10713
  157.2991  130.6834  149.6154 LP  0  0  0  0  0  0  0  0  0  0  0  0  # atno 17371 bound_to 10713
  141.1818  133.6548  156.5050 LP  0  0  0  0  0  0  0  0  0  0  0  0  # atno 17394 bound_to 11000
  140.4264  134.7141  157.4918 LP  0  0  0  0  0  0  0  0  0  0  0  0  # atno 17395 bound_to 11000

$$$$
