AV-unprocessed.smi:2247|AV-procd|sdf|9090|dock2
  -GOLD-   2272012293D 1   1.00000     0.00000
 Structure written by MMmdl.
 34 35  0  0  0  0  0  0  0  0  1 V2000
  152.5089  143.4049  161.7313 C   0  0  0  0  0  0  0  0  0  0  0  0
  152.3099  144.1306  160.3882 C   0  0  0  0  0  0  0  0  0  0  0  0
  151.1597  145.1479  160.4492 C   0  0  0  0  0  0  0  0  0  0  0  0
  152.1113  143.2003  159.2686 N   0  0  0  0  0  0  0  0  0  0  0  0
  152.2829  141.7631  159.4095 C   0  0  0  0  0  0  0  0  0  0  0  0
  151.6685  141.1751  158.1359 C   0  0  0  0  0  0  0  0  0  0  0  0
  151.6521  142.3187  157.1094 C   0  0  1  0  0  0  0  0  0  0  0  0
  150.4024  142.2937  156.3508 N   0  0  0  0  0  0  0  0  0  0  0  0
  150.0312  141.3358  155.4876 C   0  0  0  0  0  0  0  0  0  0  0  0
  150.7540  140.3620  155.2530 O   0  0  0  0  0  0  0  0  0  0  0  0
  148.7732  141.6178  154.9747 N   0  0  0  0  0  0  0  0  0  0  0  0
  148.1594  140.7355  154.2467 C   0  0  0  0  0  0  0  0  0  0  0  0
  148.4932  139.4486  153.8321 N   0  0  0  0  0  0  0  0  0  0  0  0
  147.4617  138.9621  153.0790 C   0  0  0  0  0  0  0  0  0  0  0  0
  146.5190  139.8977  153.0189 C   0  0  0  0  0  0  0  0  0  0  0  0
  146.9177  140.9939  153.7233 O   0  0  0  0  0  0  0  0  0  0  0  0
  151.7326  143.5389  158.0281 C   0  0  0  0  0  0  0  0  0  0  0  0
  151.4954  144.6828  157.6390 O   0  0  0  0  0  0  0  0  0  0  0  0
  152.7469  144.1158  162.5228 H   0  0  0  0  0  0  0  0  0  0  0  0
  153.3319  142.6917  161.6767 H   0  0  0  0  0  0  0  0  0  0  0  0
  151.6135  142.8644  162.0395 H   0  0  0  0  0  0  0  0  0  0  0  0
  153.2302  144.6862  160.1985 H   0  0  0  0  0  0  0  0  0  0  0  0
  151.3204  145.8725  161.2477 H   0  0  0  0  0  0  0  0  0  0  0  0
  150.2046  144.6551  160.6343 H   0  0  0  0  0  0  0  0  0  0  0  0
  151.0724  145.7042  159.5153 H   0  0  0  0  0  0  0  0  0  0  0  0
  153.3464  141.5280  159.4685 H   0  0  0  0  0  0  0  0  0  0  0  0
  151.7928  141.3805  160.3057 H   0  0  0  0  0  0  0  0  0  0  0  0
  152.2256  140.3094  157.7765 H   0  0  0  0  0  0  0  0  0  0  0  0
  150.6539  140.8369  158.3553 H   0  0  0  0  0  0  0  0  0  0  0  0
  152.5337  142.2818  156.4674 H   0  0  0  0  0  0  0  0  0  0  0  0
  149.7669  143.0645  156.4970 H   0  0  0  0  0  0  0  0  0  0  0  0
  149.3367  138.9285  154.0270 H   0  0  0  0  0  0  0  0  0  0  0  0
  147.5145  137.9699  152.6553 H   0  0  0  0  0  0  0  0  0  0  0  0
  145.5525  139.9349  152.5385 H   0  0  0  0  0  0  0  0  0  0  0  0
  1  2  1  0  0  0  0
  1 19  1  0  0  0  0
  1 20  1  0  0  0  0
  1 21  1  0  0  0  0
  2  3  1  0  0  0  0
  2  4  1  0  0  0  0
  2 22  1  0  0  0  0
  3 23  1  0  0  0  0
  3 24  1  0  0  0  0
  3 25  1  0  0  0  0
  4 17  1  0  0  0  0
  4  5  1  0  0  0  0
  5  6  1  0  0  0  0
  5 26  1  0  0  0  0
  5 27  1  0  0  0  0
  6  7  1  0  0  0  0
  6 28  1  0  0  0  0
  6 29  1  0  0  0  0
  7  8  1  0  0  0  0
  7 17  1  0  0  0  0
  7 30  1  0  0  0  0
  8 31  1  0  0  0  0
  8  9  1  0  0  0  0
  9 11  1  0  0  0  0
  9 10  2  0  0  0  0
 11 12  2  0  0  0  0
 12 16  1  0  0  0  0
 12 13  1  0  0  0  0
 13 32  1  0  0  0  0
 13 14  1  0  0  0  0
 14 33  1  0  0  0  0
 14 15  2  0  0  0  0
 15 34  1  0  0  0  0
 15 16  1  0  0  0  0
 17 18  2  0  0  0  0
M  END
> <s_m_source_file>
AV-unprocessed.smi

> <i_m_source_file_index>
2247

> <i_lp_mmshare_version>
43012

> <i_f3d_flags>
0

> <s_epik_input>
W0NIM11bQ0hdKFtDSDNdKU4xW0NIMl1bQ0gyXVtDQEhdKEMxPU8pW05IXUMoPU8pW05IXWMybltjSF1bY0hdbzI=

> <s_epik_cmdline>
J2VwaWtfcHl0aG9uJywgJy1waCcsICc3LjAnLCAnLXRuJywgJzgnLCAnLW1hJywgJzIwMCcsICctbWV0YWxfYmluZGluZycsICctaW1hZScsICc8aW5maWxlLm1hZT4nLCAnLW9tYWUnLCAnPG91dGZpbGUubWFlPic=

> <r_lp_tautomer_probability>
0.107061

> <r_epik_Ionization_Penalty>
0.180736

> <r_epik_Ionization_Penalty_Charging>
0.180388

> <r_epik_Ionization_Penalty_Neutral>
0.000348501

> <r_epik_State_Penalty>
2.44396

> <r_epik_Charging_Adjusted_Penalty>
2.62435

> <i_epik_Tot_Q>
0

> <i_epik_Tot_abs_Q>
0

> <r_epik_Metal_State_Penalty>
4.38331

> <b_epik_Metal_Only>
0

> <s_lp_Force_Field>
OPLS_2005

> <r_lp_Energy>
45.5374

> <b_lp_Chiralities_Consistent>
1

> <s_lp_Variant>
AV-unprocessed.smi:2247-5

> <Gold.Version>
5.8.1

> <Gold.Id.Protein>
6NUR|6NUR_protein|mol2

> <Gold.PLP.Fitness>
44.8817

> <Gold.PLP.PLP>
-33.4379

> <Gold.PLP.part.hbond>
-3.0000

> <Gold.PLP.part.metal>
0.0000

> <Gold.PLP.part.buried>
-1.5787

> <Gold.PLP.part.nonpolar>
-29.5147

> <Gold.PLP.part.repulsive>
0.6914

> <Gold.PLP.ligand.clash>
0.0000

> <Gold.PLP.ligand.torsion>
0.3033

> <Gold.PLP.Chemscore.Hbond>
1.9913

> <Gold.PLP.Chemscore.CHOScore>
2.0000

> <Gold.PLP.Chemscore.Metal>
0.0000

> <Gold.Chemscore.Hbonds>
donor molecule, donor type, donor heavy atom, donor atom, acceptor molecule, acceptor atom, score
      L1  H     8    31       P1  8028  0.86
      P1  H  7989  7998       L1    10  1.00
      L1  C    14    33       P1  7948  1.00
      L1  C    15    34       P1 10175  0.78

> <Gold.PLP.Chemscore.Internal.Correction>
0.0767

> <Gold.Rescore>
     Score         DG    S(hbond)    S(metal)    S(lipo)     H(rot)  DE(clash)    DE(int)     intcor
     11.70     -16.02       1.57        0.00      74.38       1.33       2.55       1.78       ----

> <Gold.Chemscore.Fitness>
11.7017

> <Gold.Chemscore.DG>
-16.0228

> <Gold.Chemscore.ZeroCoef>
-5.4800

> <Gold.Chemscore.Hbond>
1.5733

> <Gold.Chemscore.Metal>
0.0000

> <Gold.Chemscore.Lipo>
74.3796

> <Gold.Chemscore.Internal_Hbond>
0.0000

> <Gold.Chemscore.DEClash>
2.5454

> <Gold.Chemscore.DEInternal>
1.7757

> <Gold.Chemscore.Rot>
1.3338

> <Gold.Chemscore.Internal.Correction>
   9.000000E+99

> <Gold.Chemscore.Hbonds>
donor molecule, donor type, donor heavy atom, donor atom, acceptor molecule, acceptor atom, score
      L1  H     8    31       P1  8028  0.81
      P1  H  7989  7998       L1    10  0.31

> <Gold.Chemscore.Hbond.Weighted>
-5.2549

> <Gold.Chemscore.Metal.Weighted>
-0.0000

> <Gold.Chemscore.Lipo.Weighted>
-8.7024

> <Gold.Chemscore.Internal_Hbond.Weighted>
0.0000

> <Gold.Chemscore.DEClash.Weighted>
2.5454

> <Gold.Chemscore.DEInternal.Weighted>
1.7757

> <Gold.Chemscore.Rot.Weighted>
3.4145

> <Gold.Chemscore.Internal.Correction.Weighted>
   9.000000E+99

> <Gold.Protein.RotatedTorsions>
[ 6907 6896 6895 6894 ] final  -21.65 input  -60.11 | X-H torsion
[ 7974 7965 7964 7962 ] final  -47.67 input  175.53 | X-H torsion
[ 8008 7997 7996 7995 ] final   92.81 input   59.86 | X-H torsion
[ 10167 10162 10161 10158 ] final  -91.15 input  -65.29 | X-H torsion
[ 10718 10713 10712 10709 ] final -115.05 input   66.30 | X-H torsion
[ 10763 10752 10751 10750 ] final   11.55 input  -60.55 | X-H torsion
[ 11005 11000 10999 10996 ] final  132.11 input  -57.11 | X-H torsion

> <Gold.Protein.ActiveResidues>
 VAL166  LYS551  ARG553  GLY616  TRP617  ASP618  TYR619  PRO620  LYS621  CYS622 
 ASP623  PHE694  ASN695  SER759  ASP760  ASP761  ALA762  ILE779  LEU786  VAL792 
 PHE793  MET794  SER795  GLU796  ALA797  LYS798  CYS799  TRP800  GLU811  SER814 

> <Gold.Protein.RotatedAtoms>
  151.2303  135.0552  159.8984 H   0  0  0  0  0  0  0  0  0  0  0  0  # atno 6907 bound_to 6896
  152.5405  134.0545  159.8135 H   0  0  0  0  0  0  0  0  0  0  0  0  # atno 6908 bound_to 6896
  151.0723  133.5407  159.2658 H   0  0  0  0  0  0  0  0  0  0  0  0  # atno 6909 bound_to 6896
  145.9592  140.7496  142.9466 H   0  0  0  0  0  0  0  0  0  0  0  0  # atno 7974 bound_to 7965
  156.0396  140.3321  155.7229 H   0  0  0  0  0  0  0  0  0  0  0  0  # atno 8008 bound_to 7997
  155.5764  140.0633  157.2811 H   0  0  0  0  0  0  0  0  0  0  0  0  # atno 8009 bound_to 7997
  154.4387  140.1851  156.0920 H   0  0  0  0  0  0  0  0  0  0  0  0  # atno 8010 bound_to 7997
  140.3477  143.2908  151.9762 H   0  0  0  0  0  0  0  0  0  0  0  0  # atno 10167 bound_to 10162
  156.0870  130.6060  150.8855 H   0  0  0  0  0  0  0  0  0  0  0  0  # atno 10718 bound_to 10713
  153.1915  135.6843  153.8347 H   0  0  0  0  0  0  0  0  0  0  0  0  # atno 10763 bound_to 10752
  153.7644  135.3205  155.3343 H   0  0  0  0  0  0  0  0  0  0  0  0  # atno 10764 bound_to 10752
  154.8120  135.4711  154.0639 H   0  0  0  0  0  0  0  0  0  0  0  0  # atno 10765 bound_to 10752
  139.9770  134.9560  156.9535 H   0  0  0  0  0  0  0  0  0  0  0  0  # atno 11005 bound_to 11000
  144.6811  140.2563  143.7325 LP  0  0  0  0  0  0  0  0  0  0  0  0  # atno 17320 bound_to 7965
  145.8063  139.1985  143.2018 LP  0  0  0  0  0  0  0  0  0  0  0  0  # atno 17321 bound_to 7965
  139.4831  144.6102  151.7447 LP  0  0  0  0  0  0  0  0  0  0  0  0  # atno 17342 bound_to 10162
  140.5248  144.0822  150.6034 LP  0  0  0  0  0  0  0  0  0  0  0  0  # atno 17343 bound_to 10162
  157.6008  131.0941  150.8964 LP  0  0  0  0  0  0  0  0  0  0  0  0  # atno 17370 bound_to 10713
  156.9122  130.5284  149.5280 LP  0  0  0  0  0  0  0  0  0  0  0  0  # atno 17371 bound_to 10713
  140.5174  134.0942  155.7284 LP  0  0  0  0  0  0  0  0  0  0  0  0  # atno 17394 bound_to 11000
  141.1446  133.9077  157.2245 LP  0  0  0  0  0  0  0  0  0  0  0  0  # atno 17395 bound_to 11000

$$$$
