AV-unprocessed.smi:1076|AV-procd|sdf|4697|dock10
  -GOLD-   22720 3213D 1   1.00000     0.00000
 Structure written by MMmdl.
 45 46  0  0  0  0  0  0  0  0  2 V2000
  152.2903  142.9788  159.3637 C   0  0  0  0  0  0  0  0  0  0  0  0
  151.5620  142.2532  158.2702 C   0  0  0  0  0  0  0  0  0  0  0  0
  151.3211  140.8546  158.1614 C   0  0  0  0  0  0  0  0  0  0  0  0
  150.6610  140.5314  157.0615 N   0  0  0  0  0  0  0  0  0  0  0  0
  150.4511  141.7090  156.4348 N   0  0  0  0  0  0  0  0  0  0  0  0
  149.7703  141.7318  155.1504 C   0  0  0  0  0  0  0  0  0  0  0  0
  148.3413  141.1636  155.2513 C   0  0  2  0  0  0  0  0  0  0  0  0
  147.7851  140.7766  153.8733 C   0  0  0  0  0  0  0  0  0  0  0  0
  147.4596  142.1464  155.9178 N   0  3  0  0  0  0  0  0  0  0  0  0
  147.4092  142.0736  157.3944 C   0  0  0  0  0  0  0  0  0  0  0  0
  146.5007  143.1794  157.9691 C   0  0  0  0  0  0  0  0  0  0  0  0
  146.5932  143.3285  159.5022 C   0  0  0  0  0  0  0  0  0  0  0  0
  147.4937  142.7393  160.1026 O   0  0  0  0  0  0  0  0  0  0  0  0
  145.7029  144.1196  160.1457 N   0  0  0  0  0  0  0  0  0  0  0  0
  144.5222  144.6905  159.4924 C   0  0  0  0  0  0  0  0  0  0  0  0
  143.2729  144.0450  160.1199 C   0  0  0  0  0  0  0  0  0  0  0  0
  143.2684  144.2718  161.5281 O   0  0  0  0  0  0  0  0  0  0  0  0
  144.4281  143.7647  162.1856 C   0  0  0  0  0  0  0  0  0  0  0  0
  145.6852  144.4141  161.5808 C   0  0  0  0  0  0  0  0  0  0  0  0
  150.9819  142.7652  157.1442 C   0  0  0  0  0  0  0  0  0  0  0  0
  152.3315  142.3917  160.2815 H   0  0  0  0  0  0  0  0  0  0  0  0
  151.8101  143.9258  159.6105 H   0  0  0  0  0  0  0  0  0  0  0  0
  153.3185  143.2029  159.0792 H   0  0  0  0  0  0  0  0  0  0  0  0
  151.6121  140.0687  158.8426 H   0  0  0  0  0  0  0  0  0  0  0  0
  149.7540  142.7561  154.7740 H   0  0  0  0  0  0  0  0  0  0  0  0
  150.3603  141.1477  154.4432 H   0  0  0  0  0  0  0  0  0  0  0  0
  148.3928  140.2661  155.8697 H   0  0  0  0  0  0  0  0  0  0  0  0
  148.4310  140.0483  153.3821 H   0  0  0  0  0  0  0  0  0  0  0  0
  147.7066  141.6452  153.2184 H   0  0  0  0  0  0  0  0  0  0  0  0
  146.7940  140.3299  153.9558 H   0  0  0  0  0  0  0  0  0  0  0  0
  147.8399  143.0555  155.6916 H   0  0  0  0  0  0  0  0  0  0  0  0
  147.0414  141.0897  157.6860 H   0  0  0  0  0  0  0  0  0  0  0  0
  148.4096  142.1683  157.8196 H   0  0  0  0  0  0  0  0  0  0  0  0
  146.7699  144.1222  157.4920 H   0  0  0  0  0  0  0  0  0  0  0  0
  145.4629  142.9713  157.7067 H   0  0  0  0  0  0  0  0  0  0  0  0
  144.5067  145.7709  159.6435 H   0  0  0  0  0  0  0  0  0  0  0  0
  144.5126  144.5350  158.4128 H   0  0  0  0  0  0  0  0  0  0  0  0
  142.3680  144.4736  159.6891 H   0  0  0  0  0  0  0  0  0  0  0  0
  143.2470  142.9731  159.9178 H   0  0  0  0  0  0  0  0  0  0  0  0
  144.3586  143.9919  163.2494 H   0  0  0  0  0  0  0  0  0  0  0  0
  144.4668  142.6782  162.0909 H   0  0  0  0  0  0  0  0  0  0  0  0
  146.5771  144.0823  162.1099 H   0  0  0  0  0  0  0  0  0  0  0  0
  145.6485  145.4951  161.7235 H   0  0  0  0  0  0  0  0  0  0  0  0
  150.9140  143.7823  156.7871 H   0  0  0  0  0  0  0  0  0  0  0  0
  146.5271  142.0918  155.5341 H   0  0  0  0  0  0  0  0  0  0  0  0
  1  2  1  0  0  0  0
  1 21  1  0  0  0  0
  1 22  1  0  0  0  0
  1 23  1  0  0  0  0
  2 20  2  0  0  0  0
  2  3  1  0  0  0  0
  3  4  2  0  0  0  0
  3 24  1  0  0  0  0
  4  5  1  0  0  0  0
  5  6  1  0  0  0  0
  5 20  1  0  0  0  0
  6  7  1  0  0  0  0
  6 25  1  0  0  0  0
  6 26  1  0  0  0  0
  7  8  1  0  0  0  0
  7  9  1  0  0  0  0
  7 27  1  0  0  0  0
  8 28  1  0  0  0  0
  8 29  1  0  0  0  0
  8 30  1  0  0  0  0
  9 10  1  0  0  0  0
  9 31  1  0  0  0  0
  9 45  1  0  0  0  0
 10 11  1  0  0  0  0
 10 32  1  0  0  0  0
 10 33  1  0  0  0  0
 11 12  1  0  0  0  0
 11 34  1  0  0  0  0
 11 35  1  0  0  0  0
 12 13  2  0  0  0  0
 12 14  1  0  0  0  0
 14 19  1  0  0  0  0
 14 15  1  0  0  0  0
 15 16  1  0  0  0  0
 15 36  1  0  0  0  0
 15 37  1  0  0  0  0
 16 17  1  0  0  0  0
 16 38  1  0  0  0  0
 16 39  1  0  0  0  0
 17 18  1  0  0  0  0
 18 19  1  0  0  0  0
 18 40  1  0  0  0  0
 18 41  1  0  0  0  0
 19 42  1  0  0  0  0
 19 43  1  0  0  0  0
 20 44  1  0  0  0  0
M  CHG  1   9   1
M  END
> <s_m_source_file>
AV-unprocessed.smi

> <i_m_source_file_index>
1076

> <i_lp_mmshare_version>
43012

> <i_f3d_flags>
0

> <s_epik_input>
W0NIM11jMVtjSF1ubihbY0hdMSlbQ0gyXVtDQEhdKFtDSDNdKVtOSF1bQ0gyXVtDSDJdQyg9TylOMltDSDJdW0NIMl1PW0NIMl1bQ0gyXTI=

> <s_epik_cmdline>
J2VwaWtfcHl0aG9uJywgJy1waCcsICc3LjAnLCAnLXRuJywgJzgnLCAnLW1hJywgJzIwMCcsICctbWV0YWxfYmluZGluZycsICctaW1hZScsICc8aW5maWxlLm1hZT4nLCAnLW9tYWUnLCAnPG91dGZpbGUubWFlPic=

> <r_lp_tautomer_probability>
1

> <r_epik_Ionization_Penalty>
0.00797518

> <r_epik_Ionization_Penalty_Charging>
0.0079672

> <r_epik_Ionization_Penalty_Neutral>
7.97619e-06

> <r_epik_State_Penalty>
0.00597998

> <r_epik_Charging_Adjusted_Penalty>
0.0139472

> <i_epik_Tot_Q>
1

> <i_epik_Tot_abs_Q>
1

> <r_epik_Metal_State_Penalty>
0.00598062

> <b_epik_Metal_Only>
0

> <s_lp_Force_Field>
OPLS_2005

> <r_lp_Energy>
21.8291

> <b_lp_Chiralities_Consistent>
1

> <s_lp_Variant>
AV-unprocessed.smi:1076-1

> <Gold.Version>
5.8.1

> <Gold.Id.Protein>
6NUR|6NUR_protein|mol2

> <Gold.PLP.Fitness>
43.8718

> <Gold.PLP.PLP>
-32.2356

> <Gold.PLP.part.hbond>
-3.0000

> <Gold.PLP.part.metal>
0.0000

> <Gold.PLP.part.buried>
-1.9286

> <Gold.PLP.part.nonpolar>
-27.6533

> <Gold.PLP.part.repulsive>
0.1699

> <Gold.PLP.ligand.clash>
0.0000

> <Gold.PLP.ligand.torsion>
0.6464

> <Gold.PLP.Chemscore.Hbond>
3.3600

> <Gold.PLP.Chemscore.CHOScore>
0.8946

> <Gold.PLP.Chemscore.Metal>
0.0000

> <Gold.Chemscore.Hbonds>
donor molecule, donor type, donor heavy atom, donor atom, acceptor molecule, acceptor atom, score
      L1  H     9    31       P1  8028  2.00
      P1  H  6933  6944       L1    13  0.78
      P1  H  6934  6946       L1    13  0.59
      L1  C    20    44       P1  8028  0.89

> <Gold.PLP.Chemscore.Internal.Correction>
0.1650

> <Gold.Rescore>
     Score         DG    S(hbond)    S(metal)    S(lipo)     H(rot)  DE(clash)    DE(int)     intcor
     17.44     -18.07       2.63        0.00      76.05       1.98       0.00       0.63       ----

> <Gold.Chemscore.Fitness>
17.4441

> <Gold.Chemscore.DG>
-18.0743

> <Gold.Chemscore.ZeroCoef>
-5.4800

> <Gold.Chemscore.Hbond>
2.6270

> <Gold.Chemscore.Metal>
0.0000

> <Gold.Chemscore.Lipo>
76.0530

> <Gold.Chemscore.Internal_Hbond>
0.0000

> <Gold.Chemscore.DEClash>
0.0000

> <Gold.Chemscore.DEInternal>
0.6302

> <Gold.Chemscore.Rot>
1.9837

> <Gold.Chemscore.Internal.Correction>
   9.000000E+99

> <Gold.Chemscore.Hbonds>
donor molecule, donor type, donor heavy atom, donor atom, acceptor molecule, acceptor atom, score
      L1  H     9    31       P1  8028  0.55
      P1  H  6933  6944       L1    13  0.78
      P1  H  6934  6946       L1    13  0.47

> <Gold.Chemscore.Hbond.Weighted>
-8.7743

> <Gold.Chemscore.Metal.Weighted>
-0.0000

> <Gold.Chemscore.Lipo.Weighted>
-8.8982

> <Gold.Chemscore.Internal_Hbond.Weighted>
0.0000

> <Gold.Chemscore.DEClash.Weighted>
0.0000

> <Gold.Chemscore.DEInternal.Weighted>
0.6302

> <Gold.Chemscore.Rot.Weighted>
5.0782

> <Gold.Chemscore.Internal.Correction.Weighted>
   9.000000E+99

> <Gold.Protein.RotatedTorsions>
[ 6907 6896 6895 6894 ] final  -27.10 input  -60.11 | X-H torsion
[ 7974 7965 7964 7962 ] final  152.95 input  175.53 | X-H torsion
[ 8008 7997 7996 7995 ] final -134.29 input   59.86 | X-H torsion
[ 10167 10162 10161 10158 ] final  -94.01 input  -65.29 | X-H torsion
[ 10718 10713 10712 10709 ] final   78.59 input   66.30 | X-H torsion
[ 10763 10752 10751 10750 ] final   69.37 input  -60.55 | X-H torsion
[ 11005 11000 10999 10996 ] final   50.43 input  -57.11 | X-H torsion

> <Gold.Protein.ActiveResidues>
 VAL166  LYS551  ARG553  GLY616  TRP617  ASP618  TYR619  PRO620  LYS621  CYS622 
 ASP623  PHE694  ASN695  SER759  ASP760  ASP761  ALA762  ILE779  LEU786  VAL792 
 PHE793  MET794  SER795  GLU796  ALA797  LYS798  CYS799  TRP800  GLU811  SER814 

> <Gold.Protein.RotatedAtoms>
  151.1517  135.0230  159.8670 H   0  0  0  0  0  0  0  0  0  0  0  0  # atno 6907 bound_to 6896
  152.5452  134.1381  159.8477 H   0  0  0  0  0  0  0  0  0  0  0  0  # atno 6908 bound_to 6896
  151.1467  133.4889  159.2628 H   0  0  0  0  0  0  0  0  0  0  0  0  # atno 6909 bound_to 6896
  144.8188  139.6736  143.6110 H   0  0  0  0  0  0  0  0  0  0  0  0  # atno 7974 bound_to 7965
  155.3597  140.0482  157.3046 H   0  0  0  0  0  0  0  0  0  0  0  0  # atno 8008 bound_to 7997
  154.5184  140.2216  155.8985 H   0  0  0  0  0  0  0  0  0  0  0  0  # atno 8009 bound_to 7997
  156.1663  140.3105  155.8899 H   0  0  0  0  0  0  0  0  0  0  0  0  # atno 8010 bound_to 7997
  140.3188  143.3061  152.0069 H   0  0  0  0  0  0  0  0  0  0  0  0  # atno 10167 bound_to 10162
  157.6750  130.9875  150.1808 H   0  0  0  0  0  0  0  0  0  0  0  0  # atno 10718 bound_to 10713
  153.0284  135.5213  154.7278 H   0  0  0  0  0  0  0  0  0  0  0  0  # atno 10763 bound_to 10752
  154.6314  135.2901  155.0214 H   0  0  0  0  0  0  0  0  0  0  0  0  # atno 10764 bound_to 10752
  154.1164  135.6614  153.4947 H   0  0  0  0  0  0  0  0  0  0  0  0  # atno 10765 bound_to 10752
  140.1018  134.5071  155.8756 H   0  0  0  0  0  0  0  0  0  0  0  0  # atno 11005 bound_to 11000
  146.2492  139.6163  142.9439 LP  0  0  0  0  0  0  0  0  0  0  0  0  # atno 17320 bound_to 7965
  145.5154  141.0434  143.2465 LP  0  0  0  0  0  0  0  0  0  0  0  0  # atno 17321 bound_to 7965
  139.4878  144.6327  151.7038 LP  0  0  0  0  0  0  0  0  0  0  0  0  # atno 17342 bound_to 10162
  140.5502  144.0438  150.6124 LP  0  0  0  0  0  0  0  0  0  0  0  0  # atno 17343 bound_to 10162
  156.2541  130.3703  149.8200 LP  0  0  0  0  0  0  0  0  0  0  0  0  # atno 17370 bound_to 10713
  156.5965  130.8528  151.3421 LP  0  0  0  0  0  0  0  0  0  0  0  0  # atno 17371 bound_to 10713
  141.2107  133.6698  156.6532 LP  0  0  0  0  0  0  0  0  0  0  0  0  # atno 17394 bound_to 11000
  140.3210  134.8008  157.4252 LP  0  0  0  0  0  0  0  0  0  0  0  0  # atno 17395 bound_to 11000

$$$$
