AV-unprocessed.smi:2521|AV-procd|sdf|9917|dock1
  -GOLD-   2272013553D 1   1.00000     0.00000
 Structure written by MMmdl.
 35 36  0  0  0  0  0  0  0  0  2 V2000
  149.2350  141.4723  154.5873 C   0  0  0  0  0  0  0  0  0  0  0  0
  149.9925  141.0152  155.8426 C   0  0  0  0  0  0  0  0  0  0  0  0
  150.9473  142.0843  156.3936 C   0  0  0  0  0  0  0  0  0  0  0  0
  150.6750  139.6980  155.6427 C   0  0  0  0  0  0  0  0  0  0  0  0
  151.6558  139.5098  154.7570 N   0  0  0  0  0  0  0  0  0  0  0  0
  152.1257  138.2061  154.7669 N   0  0  0  0  0  0  0  0  0  0  0  0
  151.4998  137.4132  155.6564 C   0  0  0  0  0  0  0  0  0  0  0  0
  151.7539  136.1046  155.8829 N   0  5  0  0  0  0  0  0  0  0  0  0
  150.8872  135.2184  156.4368 C   0  0  0  0  0  0  0  0  0  0  0  0
  150.3695  135.2718  157.5541 O   0  0  0  0  0  0  0  0  0  0  0  0
  150.5986  134.1883  155.6299 N   0  0  0  0  0  0  0  0  0  0  0  0
  149.7000  133.0884  155.9583 C   0  0  0  0  0  0  0  0  0  0  0  0
  148.5372  133.0094  154.9559 C   0  0  2  0  0  0  0  0  0  0  0  0
  148.9528  132.7380  153.5233 C   0  0  0  0  0  0  0  0  0  0  0  0
  147.7218  133.1948  152.7460 C   0  0  0  0  0  0  0  0  0  0  0  0
  147.1348  134.2387  153.5186 O   0  0  0  0  0  0  0  0  0  0  0  0
  147.7666  134.3187  154.7929 C   0  0  0  0  0  0  0  0  0  0  0  0
  150.2493  138.2648  156.5622 S   0  0  0  0  0  0  0  0  0  0  0  0
  148.5054  140.7240  154.2764 H   0  0  0  0  0  0  0  0  0  0  0  0
  149.9159  141.6414  153.7523 H   0  0  0  0  0  0  0  0  0  0  0  0
  148.6970  142.4027  154.7705 H   0  0  0  0  0  0  0  0  0  0  0  0
  149.2374  140.8544  156.6129 H   0  0  0  0  0  0  0  0  0  0  0  0
  151.4014  141.7581  157.3297 H   0  0  0  0  0  0  0  0  0  0  0  0
  150.4201  143.0184  156.5896 H   0  0  0  0  0  0  0  0  0  0  0  0
  151.7520  142.2986  155.6897 H   0  0  0  0  0  0  0  0  0  0  0  0
  151.0365  134.1694  154.7206 H   0  0  0  0  0  0  0  0  0  0  0  0
  150.2610  132.1529  155.9490 H   0  0  0  0  0  0  0  0  0  0  0  0
  149.3178  133.2237  156.9715 H   0  0  0  0  0  0  0  0  0  0  0  0
  147.8377  132.2328  155.2707 H   0  0  0  0  0  0  0  0  0  0  0  0
  149.8141  133.3513  153.2541 H   0  0  0  0  0  0  0  0  0  0  0  0
  149.2065  131.6938  153.3389 H   0  0  0  0  0  0  0  0  0  0  0  0
  147.9689  133.5341  151.7398 H   0  0  0  0  0  0  0  0  0  0  0  0
  147.0014  132.3804  152.6612 H   0  0  0  0  0  0  0  0  0  0  0  0
  147.0385  134.4763  155.5890 H   0  0  0  0  0  0  0  0  0  0  0  0
  148.4474  135.1711  154.7850 H   0  0  0  0  0  0  0  0  0  0  0  0
  1  2  1  0  0  0  0
  1 19  1  0  0  0  0
  1 20  1  0  0  0  0
  1 21  1  0  0  0  0
  2  3  1  0  0  0  0
  2  4  1  0  0  0  0
  2 22  1  0  0  0  0
  3 23  1  0  0  0  0
  3 24  1  0  0  0  0
  3 25  1  0  0  0  0
  4 18  1  0  0  0  0
  4  5  2  0  0  0  0
  5  6  1  0  0  0  0
  6  7  2  0  0  0  0
  7  8  1  0  0  0  0
  7 18  1  0  0  0  0
  8  9  1  0  0  0  0
  9 10  2  0  0  0  0
  9 11  1  0  0  0  0
 11 12  1  0  0  0  0
 11 26  1  0  0  0  0
 12 13  1  0  0  0  0
 12 27  1  0  0  0  0
 12 28  1  0  0  0  0
 13 17  1  0  0  0  0
 13 14  1  0  0  0  0
 13 29  1  0  0  0  0
 14 15  1  0  0  0  0
 14 30  1  0  0  0  0
 14 31  1  0  0  0  0
 15 16  1  0  0  0  0
 15 32  1  0  0  0  0
 15 33  1  0  0  0  0
 16 17  1  0  0  0  0
 17 34  1  0  0  0  0
 17 35  1  0  0  0  0
M  CHG  1   8  -1
M  END
> <s_m_source_file>
AV-unprocessed.smi

> <i_m_source_file_index>
2521

> <i_lp_mmshare_version>
43012

> <i_f3d_flags>
0

> <s_epik_input>
W0NIM11bQ0hdKFtDSDNdKWMxbm5jKHMxKVtOSF1DKD1PKVtOSF1bQ0gyXVtDQEBIXTJbQ0gyXVtDSDJdT1tDSDJdMg==

> <s_epik_cmdline>
J2VwaWtfcHl0aG9uJywgJy1waCcsICc3LjAnLCAnLXRuJywgJzgnLCAnLW1hJywgJzIwMCcsICctbWV0YWxfYmluZGluZycsICctaW1hZScsICc8aW5maWxlLm1hZT4nLCAnLW9tYWUnLCAnPG91dGZpbGUubWFlPic=

> <r_lp_tautomer_probability>
1

> <r_epik_Ionization_Penalty>
4.4451

> <r_epik_Ionization_Penalty_Charging>
4.28522

> <r_epik_Ionization_Penalty_Neutral>
0.159875

> <r_epik_State_Penalty>
4.28479

> <r_epik_Charging_Adjusted_Penalty>
8.57002

> <i_epik_Tot_Q>
-1

> <i_epik_Tot_abs_Q>
1

> <r_epik_Metal_State_Penalty>
0.721771

> <b_epik_Metal_Only>
1

> <s_lp_Force_Field>
OPLS_2005

> <r_lp_Energy>
14.6033

> <b_lp_Chiralities_Consistent>
1

> <s_lp_Variant>
AV-unprocessed.smi:2521-3

> <Gold.Version>
5.8.1

> <Gold.Id.Protein>
6NUR|6NUR_protein|mol2

> <Gold.PLP.Fitness>
36.5628

> <Gold.PLP.PLP>
-27.4359

> <Gold.PLP.part.hbond>
-3.0000

> <Gold.PLP.part.metal>
0.0000

> <Gold.PLP.part.buried>
-4.1112

> <Gold.PLP.part.nonpolar>
-20.6467

> <Gold.PLP.part.repulsive>
0.7100

> <Gold.PLP.ligand.clash>
0.0000

> <Gold.PLP.ligand.torsion>
0.7213

> <Gold.PLP.Chemscore.Hbond>
3.4940

> <Gold.PLP.Chemscore.CHOScore>
0.0000

> <Gold.PLP.Chemscore.Metal>
0.0000

> <Gold.Chemscore.Hbonds>
donor molecule, donor type, donor heavy atom, donor atom, acceptor molecule, acceptor atom, score
      P1  H  6896  6909       L1    10  0.50
      P1  H  7989  7998       L1     5  1.00
      P1  H 10752 10764       L1     8  2.00

> <Gold.PLP.Chemscore.Internal.Correction>
0.0875

> <Gold.Rescore>
     Score         DG    S(hbond)    S(metal)    S(lipo)     H(rot)  DE(clash)    DE(int)     intcor
     15.51     -16.27       2.40        0.00      54.73       1.42       0.00       0.76       ----

> <Gold.Chemscore.Fitness>
15.5131

> <Gold.Chemscore.DG>
-16.2738

> <Gold.Chemscore.ZeroCoef>
-5.4800

> <Gold.Chemscore.Hbond>
2.4022

> <Gold.Chemscore.Metal>
0.0000

> <Gold.Chemscore.Lipo>
54.7334

> <Gold.Chemscore.Internal_Hbond>
0.0000

> <Gold.Chemscore.DEClash>
0.0000

> <Gold.Chemscore.DEInternal>
0.7608

> <Gold.Chemscore.Rot>
1.4193

> <Gold.Chemscore.Internal.Correction>
   9.000000E+99

> <Gold.Chemscore.Hbonds>
donor molecule, donor type, donor heavy atom, donor atom, acceptor molecule, acceptor atom, score
      P1  H  6896  6909       L1    10  0.48
      P1  H  7989  7998       L1     5  0.77
      P1  H 10752 10764       L1     8  0.87

> <Gold.Chemscore.Hbond.Weighted>
-8.0234

> <Gold.Chemscore.Metal.Weighted>
-0.0000

> <Gold.Chemscore.Lipo.Weighted>
-6.4038

> <Gold.Chemscore.Internal_Hbond.Weighted>
0.0000

> <Gold.Chemscore.DEClash.Weighted>
0.0000

> <Gold.Chemscore.DEInternal.Weighted>
0.7608

> <Gold.Chemscore.Rot.Weighted>
3.6333

> <Gold.Chemscore.Internal.Correction.Weighted>
   9.000000E+99

> <Gold.Protein.RotatedTorsions>
[ 6907 6896 6895 6894 ] final   36.26 input  -60.11 | X-H torsion
[ 7974 7965 7964 7962 ] final -154.79 input  175.53 | X-H torsion
[ 8008 7997 7996 7995 ] final  -15.52 input   59.86 | X-H torsion
[ 10167 10162 10161 10158 ] final   90.38 input  -65.29 | X-H torsion
[ 10718 10713 10712 10709 ] final  131.88 input   66.30 | X-H torsion
[ 10763 10752 10751 10750 ] final  -24.35 input  -60.55 | X-H torsion
[ 11005 11000 10999 10996 ] final   43.60 input  -57.11 | X-H torsion

> <Gold.Protein.ActiveResidues>
 VAL166  LYS551  ARG553  GLY616  TRP617  ASP618  TYR619  PRO620  LYS621  CYS622 
 ASP623  PHE694  ASN695  SER759  ASP760  ASP761  ALA762  ILE779  LEU786  VAL792 
 PHE793  MET794  SER795  GLU796  ALA797  LYS798  CYS799  TRP800  GLU811  SER814 

> <Gold.Protein.RotatedAtoms>
  152.1273  134.9161  160.0560 H   0  0  0  0  0  0  0  0  0  0  0  0  # atno 6907 bound_to 6896
  152.0279  133.3920  159.4293 H   0  0  0  0  0  0  0  0  0  0  0  0  # atno 6908 bound_to 6896
  150.6853  134.3475  159.4938 H   0  0  0  0  0  0  0  0  0  0  0  0  # atno 6909 bound_to 6896
  144.7672  140.4340  143.5933 H   0  0  0  0  0  0  0  0  0  0  0  0  # atno 7974 bound_to 7965
  154.5124  140.2194  155.9131 H   0  0  0  0  0  0  0  0  0  0  0  0  # atno 8008 bound_to 7997
  156.1568  140.3150  155.8705 H   0  0  0  0  0  0  0  0  0  0  0  0  # atno 8009 bound_to 7997
  155.3831  140.0473  157.3033 H   0  0  0  0  0  0  0  0  0  0  0  0  # atno 8010 bound_to 7997
  139.8479  144.6608  150.9205 H   0  0  0  0  0  0  0  0  0  0  0  0  # atno 10167 bound_to 10162
  157.4925  131.1091  150.9537 H   0  0  0  0  0  0  0  0  0  0  0  0  # atno 10718 bound_to 10713
  153.6825  135.6966  153.5114 H   0  0  0  0  0  0  0  0  0  0  0  0  # atno 10763 bound_to 10752
  153.2474  135.4286  155.0761 H   0  0  0  0  0  0  0  0  0  0  0  0  # atno 10764 bound_to 10752
  154.8396  135.3523  154.6367 H   0  0  0  0  0  0  0  0  0  0  0  0  # atno 10765 bound_to 10752
  140.1630  134.4318  155.8305 H   0  0  0  0  0  0  0  0  0  0  0  0  # atno 11005 bound_to 11000
  145.6434  139.1553  143.2903 LP  0  0  0  0  0  0  0  0  0  0  0  0  # atno 17320 bound_to 7965
  146.1789  140.6529  142.9198 LP  0  0  0  0  0  0  0  0  0  0  0  0  # atno 17321 bound_to 7965
  140.7791  143.3854  151.1403 LP  0  0  0  0  0  0  0  0  0  0  0  0  # atno 17342 bound_to 10162
  139.7494  143.8801  152.3072 LP  0  0  0  0  0  0  0  0  0  0  0  0  # atno 17343 bound_to 10162
  157.0234  130.5683  149.5334 LP  0  0  0  0  0  0  0  0  0  0  0  0  # atno 17370 bound_to 10713
  156.0181  130.5276  150.8196 LP  0  0  0  0  0  0  0  0  0  0  0  0  # atno 17371 bound_to 10713
  141.2211  133.6921  156.7627 LP  0  0  0  0  0  0  0  0  0  0  0  0  # atno 17394 bound_to 11000
  140.2467  134.8572  157.3627 LP  0  0  0  0  0  0  0  0  0  0  0  0  # atno 17395 bound_to 11000

$$$$
