AV-unprocessed.smi:945|AV-procd|sdf|4233|dock1
  -GOLD-   22720 2143D 1   1.00000     0.00000
 Structure written by MMmdl.
 31 32  0  0  0  0  0  0  0  0  1 V2000
  153.1089  142.7445  162.3089 C   0  0  0  0  0  0  0  0  0  0  0  0
  152.5338  144.0924  161.8605 C   0  0  0  0  0  0  0  0  0  0  0  0
  151.8943  144.0219  160.5144 C   0  0  0  0  0  0  0  0  0  0  0  0
  151.5285  142.8763  159.9329 N   0  0  0  0  0  0  0  0  0  0  0  0
  150.9856  143.0682  158.6586 C   0  0  0  0  0  0  0  0  0  0  0  0
  150.5252  141.8890  157.8568 C   0  0  0  0  0  0  0  0  0  0  0  0
  150.9547  141.9901  156.3838 C   0  0  0  0  0  0  0  0  0  0  0  0
  149.8464  141.7172  155.4761 N   0  0  0  0  0  0  0  0  0  0  0  0
  149.8175  140.7309  154.5670 C   0  0  0  0  0  0  0  0  0  0  0  0
  150.7531  139.9475  154.3968 O   0  0  0  0  0  0  0  0  0  0  0  0
  148.5478  140.6674  153.7825 C   0  0  0  0  0  0  0  0  0  0  0  0
  147.4418  141.6314  154.1610 C   0  0  0  0  0  0  0  0  0  0  0  0
  147.3055  140.1663  154.4904 C   0  0  0  0  0  0  0  0  0  0  0  0
  150.9545  144.3863  158.2767 C   0  0  0  0  0  0  0  0  0  0  0  0
  151.6119  145.4343  159.5032 S   0  0  0  0  0  0  0  0  0  0  0  0
  153.5681  142.8262  163.2941 H   0  0  0  0  0  0  0  0  0  0  0  0
  153.8705  142.3904  161.6135 H   0  0  0  0  0  0  0  0  0  0  0  0
  152.3289  141.9847  162.3671 H   0  0  0  0  0  0  0  0  0  0  0  0
  151.7963  144.4420  162.5838 H   0  0  0  0  0  0  0  0  0  0  0  0
  153.3244  144.8427  161.8329 H   0  0  0  0  0  0  0  0  0  0  0  0
  150.9215  140.9694  158.2895 H   0  0  0  0  0  0  0  0  0  0  0  0
  149.4398  141.8038  157.9185 H   0  0  0  0  0  0  0  0  0  0  0  0
  151.3751  142.9757  156.1757 H   0  0  0  0  0  0  0  0  0  0  0  0
  151.7440  141.2669  156.1765 H   0  0  0  0  0  0  0  0  0  0  0  0
  149.0373  142.3167  155.5517 H   0  0  0  0  0  0  0  0  0  0  0  0
  148.6407  140.4222  152.7255 H   0  0  0  0  0  0  0  0  0  0  0  0
  147.6098  142.3166  154.9901 H   0  0  0  0  0  0  0  0  0  0  0  0
  146.8362  142.0312  153.3503 H   0  0  0  0  0  0  0  0  0  0  0  0
  146.6084  139.5732  153.9022 H   0  0  0  0  0  0  0  0  0  0  0  0
  147.3819  139.8804  155.5380 H   0  0  0  0  0  0  0  0  0  0  0  0
  150.5928  144.8017  157.3476 H   0  0  0  0  0  0  0  0  0  0  0  0
  1  2  1  0  0  0  0
  1 16  1  0  0  0  0
  1 17  1  0  0  0  0
  1 18  1  0  0  0  0
  2  3  1  0  0  0  0
  2 19  1  0  0  0  0
  2 20  1  0  0  0  0
  3 15  1  0  0  0  0
  3  4  2  0  0  0  0
  4  5  1  0  0  0  0
  5  6  1  0  0  0  0
  5 14  2  0  0  0  0
  6  7  1  0  0  0  0
  6 21  1  0  0  0  0
  6 22  1  0  0  0  0
  7  8  1  0  0  0  0
  7 23  1  0  0  0  0
  7 24  1  0  0  0  0
  8  9  1  0  0  0  0
  8 25  1  0  0  0  0
  9 10  2  0  0  0  0
  9 11  1  0  0  0  0
 11 13  1  0  0  0  0
 11 12  1  0  0  0  0
 11 26  1  0  0  0  0
 12 13  1  0  0  0  0
 12 27  1  0  0  0  0
 12 28  1  0  0  0  0
 13 29  1  0  0  0  0
 13 30  1  0  0  0  0
 14 15  1  0  0  0  0
 14 31  1  0  0  0  0
M  END
> <s_m_source_file>
AV-unprocessed.smi

> <i_m_source_file_index>
945

> <i_lp_mmshare_version>
43012

> <i_f3d_flags>
0

> <s_epik_input>
W0NIM11bQ0gyXWMxbmMoW2NIXXMxKVtDSDJdW0NIMl1bTkhdQyg9TylbQ0hdMltDSDJdW0NIMl0y

> <s_epik_cmdline>
J2VwaWtfcHl0aG9uJywgJy1waCcsICc3LjAnLCAnLXRuJywgJzgnLCAnLW1hJywgJzIwMCcsICctbWV0YWxfYmluZGluZycsICctaW1hZScsICc8aW5maWxlLm1hZT4nLCAnLW9tYWUnLCAnPG91dGZpbGUubWFlPic=

> <r_epik_Ionization_Penalty>
0.00109668

> <r_epik_Ionization_Penalty_Charging>
0

> <r_epik_Ionization_Penalty_Neutral>
0.00109668

> <r_epik_State_Penalty>
0.000719322

> <r_epik_Charging_Adjusted_Penalty>
0.000719322

> <i_epik_Tot_Q>
0

> <i_epik_Tot_abs_Q>
0

> <r_epik_Metal_State_Penalty>
-0

> <b_epik_Metal_Only>
0

> <s_lp_Force_Field>
OPLS_2005

> <r_lp_Energy>
-3.93776

> <b_lp_Chiralities_Consistent>
1

> <s_lp_Variant>
AV-unprocessed.smi:945-1

> <Gold.Version>
5.8.1

> <Gold.Id.Protein>
6NUR|6NUR_protein|mol2

> <Gold.PLP.Fitness>
47.6725

> <Gold.PLP.PLP>
-41.5233

> <Gold.PLP.part.hbond>
-2.5899

> <Gold.PLP.part.metal>
0.0000

> <Gold.PLP.part.buried>
-4.6995

> <Gold.PLP.part.nonpolar>
-33.9705

> <Gold.PLP.part.repulsive>
0.2857

> <Gold.PLP.ligand.clash>
0.2902

> <Gold.PLP.ligand.torsion>
0.9882

> <Gold.PLP.Chemscore.Hbond>
1.7680

> <Gold.PLP.Chemscore.CHOScore>
1.0000

> <Gold.PLP.Chemscore.Metal>
0.0000

> <Gold.Chemscore.Hbonds>
donor molecule, donor type, donor heavy atom, donor atom, acceptor molecule, acceptor atom, score
      L1  H     8    25       P1  8028  0.04
      P1  H  7989  7998       L1    10  0.90
      L1  C    14    31       P1  8028  1.00

> <Gold.PLP.Chemscore.Internal.Correction>
0.1118

> <Gold.Rescore>
     Score         DG    S(hbond)    S(metal)    S(lipo)     H(rot)  DE(clash)    DE(int)     intcor
     17.44     -18.29       1.43        0.00     103.17       1.58       0.13       0.71       ----

> <Gold.Chemscore.Fitness>
17.4448

> <Gold.Chemscore.DG>
-18.2879

> <Gold.Chemscore.ZeroCoef>
-5.4800

> <Gold.Chemscore.Hbond>
1.4287

> <Gold.Chemscore.Metal>
0.0000

> <Gold.Chemscore.Lipo>
103.1681

> <Gold.Chemscore.Internal_Hbond>
0.0000

> <Gold.Chemscore.DEClash>
0.1343

> <Gold.Chemscore.DEInternal>
0.7088

> <Gold.Chemscore.Rot>
1.5760

> <Gold.Chemscore.Internal.Correction>
   9.000000E+99

> <Gold.Chemscore.Hbonds>
donor molecule, donor type, donor heavy atom, donor atom, acceptor molecule, acceptor atom, score
      L1  H     8    25       P1  8028  0.06
      P1  H  7989  7998       L1    10  0.17

> <Gold.Chemscore.Hbond.Weighted>
-4.7718

> <Gold.Chemscore.Metal.Weighted>
-0.0000

> <Gold.Chemscore.Lipo.Weighted>
-12.0707

> <Gold.Chemscore.Internal_Hbond.Weighted>
0.0000

> <Gold.Chemscore.DEClash.Weighted>
0.1343

> <Gold.Chemscore.DEInternal.Weighted>
0.7088

> <Gold.Chemscore.Rot.Weighted>
4.0346

> <Gold.Chemscore.Internal.Correction.Weighted>
   9.000000E+99

> <Gold.Protein.RotatedTorsions>
[ 6907 6896 6895 6894 ] final  132.44 input  -60.11 | X-H torsion
[ 7974 7965 7964 7962 ] final  100.51 input  175.53 | X-H torsion
[ 8008 7997 7996 7995 ] final  121.84 input   59.86 | X-H torsion
[ 10167 10162 10161 10158 ] final -117.75 input  -65.29 | X-H torsion
[ 10718 10713 10712 10709 ] final   44.77 input   66.30 | X-H torsion
[ 10763 10752 10751 10750 ] final -121.75 input  -60.55 | X-H torsion
[ 11005 11000 10999 10996 ] final  -84.77 input  -57.11 | X-H torsion

> <Gold.Protein.ActiveResidues>
 VAL166  LYS551  ARG553  GLY616  TRP617  ASP618  TYR619  PRO620  LYS621  CYS622 
 ASP623  PHE694  ASN695  SER759  ASP760  ASP761  ALA762  ILE779  LEU786  VAL792 
 PHE793  MET794  SER795  GLU796  ALA797  LYS798  CYS799  TRP800  GLU811  SER814 

> <Gold.Protein.RotatedAtoms>
  152.3323  133.5972  159.5818 H   0  0  0  0  0  0  0  0  0  0  0  0  # atno 6907 bound_to 6896
  150.7430  133.9849  159.3597 H   0  0  0  0  0  0  0  0  0  0  0  0  # atno 6908 bound_to 6896
  151.7722  135.0784  160.0412 H   0  0  0  0  0  0  0  0  0  0  0  0  # atno 6909 bound_to 6896
  145.3847  139.2373  143.3384 H   0  0  0  0  0  0  0  0  0  0  0  0  # atno 7974 bound_to 7965
  156.2703  140.2799  156.1373 H   0  0  0  0  0  0  0  0  0  0  0  0  # atno 8008 bound_to 7997
  155.0991  140.0389  157.2709 H   0  0  0  0  0  0  0  0  0  0  0  0  # atno 8009 bound_to 7997
  154.6829  140.2612  155.6895 H   0  0  0  0  0  0  0  0  0  0  0  0  # atno 8010 bound_to 7997
  140.0649  143.4932  152.2011 H   0  0  0  0  0  0  0  0  0  0  0  0  # atno 10167 bound_to 10162
  157.4304  130.8021  149.7598 H   0  0  0  0  0  0  0  0  0  0  0  0  # atno 10718 bound_to 10713
  154.8675  135.4157  154.2670 H   0  0  0  0  0  0  0  0  0  0  0  0  # atno 10763 bound_to 10752
  153.3587  135.7002  153.6735 H   0  0  0  0  0  0  0  0  0  0  0  0  # atno 10764 bound_to 10752
  153.5645  135.3603  155.2785 H   0  0  0  0  0  0  0  0  0  0  0  0  # atno 10765 bound_to 10752
  141.1647  133.7363  156.8917 H   0  0  0  0  0  0  0  0  0  0  0  0  # atno 11005 bound_to 11000
  146.2826  140.4520  142.8770 LP  0  0  0  0  0  0  0  0  0  0  0  0  # atno 17320 bound_to 7965
  144.8483  140.6962  143.6185 LP  0  0  0  0  0  0  0  0  0  0  0  0  # atno 17321 bound_to 7965
  139.5871  144.7535  151.3493 LP  0  0  0  0  0  0  0  0  0  0  0  0  # atno 17342 bound_to 10162
  140.7154  143.7281  150.7644 LP  0  0  0  0  0  0  0  0  0  0  0  0  # atno 17343 bound_to 10162
  155.9911  130.3940  150.2998 LP  0  0  0  0  0  0  0  0  0  0  0  0  # atno 17370 bound_to 10713
  157.1154  131.0232  151.3031 LP  0  0  0  0  0  0  0  0  0  0  0  0  # atno 17371 bound_to 10713
  140.1644  134.9143  157.2755 LP  0  0  0  0  0  0  0  0  0  0  0  0  # atno 17394 bound_to 11000
  140.2574  134.3611  155.7419 LP  0  0  0  0  0  0  0  0  0  0  0  0  # atno 17395 bound_to 11000

$$$$
