AV-unprocessed.smi:1470|AV-procd|sdf|5961|dock3
  -GOLD-   22720 6 43D 1   1.00000     0.00000
 Structure written by MMmdl.
 43 44  0  0  0  0  0  0  0  0  2 V2000
  145.5535  135.8535  150.7929 C   0  0  0  0  0  0  0  0  0  0  0  0
  145.8643  136.2165  152.1263 O   0  0  0  0  0  0  0  0  0  0  0  0
  145.4983  137.5539  152.4241 C   0  0  0  0  0  0  0  0  0  0  0  0
  146.4994  138.5109  151.7608 C   0  0  0  0  0  0  0  0  0  0  0  0
  147.7296  138.6272  152.5363 N   0  0  0  0  0  0  0  0  0  0  0  0
  147.9903  139.5965  153.4239 C   0  0  0  0  0  0  0  0  0  0  0  0
  147.1982  140.4982  153.6965 O   0  0  0  0  0  0  0  0  0  0  0  0
  149.2065  139.4383  153.9734 N   0  0  0  0  0  0  0  0  0  0  0  0
  149.8518  140.2515  154.9434 C   0  0  0  0  0  0  0  0  0  0  0  0
  150.9053  139.8054  155.7808 C   0  0  0  0  0  0  0  0  0  0  0  0
  151.4660  140.6926  156.7225 C   0  0  0  0  0  0  0  0  0  0  0  0
  150.9617  142.0092  156.8232 C   0  0  0  0  0  0  0  0  0  0  0  0
  151.4566  142.9574  157.7280 N   0  0  0  0  0  0  0  0  0  0  0  0
  150.4050  143.7187  158.3977 C   0  0  0  0  0  0  0  0  0  0  0  0
  151.0059  144.8687  159.2241 C   0  0  0  0  0  0  0  0  0  0  0  0
  152.0606  144.3412  160.2100 C   0  0  0  0  0  0  0  0  0  0  0  0
  153.1235  143.5200  159.4621 C   0  0  0  0  0  0  0  0  0  0  0  0
  152.4711  142.4071  158.6235 C   0  0  0  0  0  0  0  0  0  0  0  0
  149.9491  142.3909  156.0147 N   0  3  0  0  0  0  0  0  0  0  0  0
  149.3840  141.5728  155.1008 C   0  0  0  0  0  0  0  0  0  0  0  0
  145.8413  134.8168  150.6194 H   0  0  0  0  0  0  0  0  0  0  0  0
  146.0937  136.4770  150.0792 H   0  0  0  0  0  0  0  0  0  0  0  0
  144.4840  135.9437  150.5981 H   0  0  0  0  0  0  0  0  0  0  0  0
  144.4830  137.7590  152.0803 H   0  0  0  0  0  0  0  0  0  0  0  0
  145.5111  137.7047  153.5046 H   0  0  0  0  0  0  0  0  0  0  0  0
  146.7306  138.1717  150.7498 H   0  0  0  0  0  0  0  0  0  0  0  0
  146.0566  139.5021  151.6603 H   0  0  0  0  0  0  0  0  0  0  0  0
  148.4355  137.9242  152.3734 H   0  0  0  0  0  0  0  0  0  0  0  0
  149.7072  138.6038  153.7048 H   0  0  0  0  0  0  0  0  0  0  0  0
  151.2874  138.7977  155.7311 H   0  0  0  0  0  0  0  0  0  0  0  0
  152.2719  140.3595  157.3601 H   0  0  0  0  0  0  0  0  0  0  0  0
  149.7109  144.1177  157.6566 H   0  0  0  0  0  0  0  0  0  0  0  0
  149.8325  143.0580  159.0501 H   0  0  0  0  0  0  0  0  0  0  0  0
  151.4640  145.5986  158.5553 H   0  0  0  0  0  0  0  0  0  0  0  0
  150.2173  145.3940  159.7636 H   0  0  0  0  0  0  0  0  0  0  0  0
  152.5289  145.1703  160.7412 H   0  0  0  0  0  0  0  0  0  0  0  0
  151.5789  143.7182  160.9648 H   0  0  0  0  0  0  0  0  0  0  0  0
  153.6992  144.1779  158.8097 H   0  0  0  0  0  0  0  0  0  0  0  0
  153.8316  143.0890  160.1705 H   0  0  0  0  0  0  0  0  0  0  0  0
  152.0124  141.6686  159.2824 H   0  0  0  0  0  0  0  0  0  0  0  0
  153.2335  141.8867  158.0419 H   0  0  0  0  0  0  0  0  0  0  0  0
  148.5801  142.0034  154.5212 H   0  0  0  0  0  0  0  0  0  0  0  0
  149.5917  143.3427  156.0998 H   0  0  0  0  0  0  0  0  0  0  0  0
  1  2  1  0  0  0  0
  1 21  1  0  0  0  0
  1 22  1  0  0  0  0
  1 23  1  0  0  0  0
  2  3  1  0  0  0  0
  3  4  1  0  0  0  0
  3 24  1  0  0  0  0
  3 25  1  0  0  0  0
  4  5  1  0  0  0  0
  4 26  1  0  0  0  0
  4 27  1  0  0  0  0
  5  6  1  0  0  0  0
  5 28  1  0  0  0  0
  6  7  2  0  0  0  0
  6  8  1  0  0  0  0
  8  9  1  0  0  0  0
  8 29  1  0  0  0  0
  9 20  1  0  0  0  0
  9 10  2  0  0  0  0
 10 11  1  0  0  0  0
 10 30  1  0  0  0  0
 11 12  2  0  0  0  0
 11 31  1  0  0  0  0
 12 13  1  0  0  0  0
 12 19  1  0  0  0  0
 13 18  1  0  0  0  0
 13 14  1  0  0  0  0
 14 15  1  0  0  0  0
 14 32  1  0  0  0  0
 14 33  1  0  0  0  0
 15 16  1  0  0  0  0
 15 34  1  0  0  0  0
 15 35  1  0  0  0  0
 16 17  1  0  0  0  0
 16 36  1  0  0  0  0
 16 37  1  0  0  0  0
 17 18  1  0  0  0  0
 17 38  1  0  0  0  0
 17 39  1  0  0  0  0
 18 40  1  0  0  0  0
 18 41  1  0  0  0  0
 19 20  2  0  0  0  0
 19 43  1  0  0  0  0
 20 42  1  0  0  0  0
M  CHG  1  19   1
M  END
> <s_m_source_file>
AV-unprocessed.smi

> <i_m_source_file_index>
1470

> <i_lp_mmshare_version>
43012

> <i_f3d_flags>
0

> <s_epik_input>
W0NIM11PW0NIMl1bQ0gyXVtOSF1DKD1PKVtOSF1jMVtjSF1bY0hdYyhuW2NIXTEpTjJbQ0gyXVtDSDJdW0NIMl1bQ0gyXVtDSDJdMg==

> <s_epik_cmdline>
J2VwaWtfcHl0aG9uJywgJy1waCcsICc3LjAnLCAnLXRuJywgJzgnLCAnLW1hJywgJzIwMCcsICctbWV0YWxfYmluZGluZycsICctaW1hZScsICc8aW5maWxlLm1hZT4nLCAnLW9tYWUnLCAnPG91dGZpbGUubWFlPic=

> <r_lp_tautomer_probability>
0.999994

> <r_epik_Ionization_Penalty>
1.11549

> <r_epik_Ionization_Penalty_Charging>
1.11547

> <r_epik_Ionization_Penalty_Neutral>
1.91766e-05

> <r_epik_State_Penalty>
1.17384

> <r_epik_Charging_Adjusted_Penalty>
2.28931

> <i_epik_Tot_Q>
1

> <i_epik_Tot_abs_Q>
1

> <r_epik_Metal_State_Penalty>
1.25929

> <b_epik_Metal_Only>
0

> <s_lp_Force_Field>
OPLS_2005

> <r_lp_Energy>
26.3413

> <b_lp_Chiralities_Consistent>
1

> <s_lp_Variant>
AV-unprocessed.smi:1470-2

> <Gold.Version>
5.8.1

> <Gold.Id.Protein>
6NUR|6NUR_protein|mol2

> <Gold.PLP.Fitness>
49.8974

> <Gold.PLP.PLP>
-42.0244

> <Gold.PLP.part.hbond>
-4.0000

> <Gold.PLP.part.metal>
0.0000

> <Gold.PLP.part.buried>
-3.4677

> <Gold.PLP.part.nonpolar>
-36.5807

> <Gold.PLP.part.repulsive>
1.2560

> <Gold.PLP.ligand.clash>
0.0000

> <Gold.PLP.ligand.torsion>
0.6546

> <Gold.PLP.Chemscore.Hbond>
3.0000

> <Gold.PLP.Chemscore.CHOScore>
0.0000

> <Gold.PLP.Chemscore.Metal>
0.0000

> <Gold.Chemscore.Hbonds>
donor molecule, donor type, donor heavy atom, donor atom, acceptor molecule, acceptor atom, score
      L1  H     5    28       P1  7948  1.00
      L1  H    19    43       P1  8028  2.00

> <Gold.PLP.Chemscore.Internal.Correction>
0.1821

> <Gold.Rescore>
     Score         DG    S(hbond)    S(metal)    S(lipo)     H(rot)  DE(clash)    DE(int)     intcor
     17.74     -20.13       1.98        0.00     104.59       1.64       0.41       1.99       ----

> <Gold.Chemscore.Fitness>
17.7406

> <Gold.Chemscore.DG>
-20.1322

> <Gold.Chemscore.ZeroCoef>
-5.4800

> <Gold.Chemscore.Hbond>
1.9811

> <Gold.Chemscore.Metal>
0.0000

> <Gold.Chemscore.Lipo>
104.5906

> <Gold.Chemscore.Internal_Hbond>
0.0000

> <Gold.Chemscore.DEClash>
0.4057

> <Gold.Chemscore.DEInternal>
1.9859

> <Gold.Chemscore.Rot>
1.6413

> <Gold.Chemscore.Internal.Correction>
   9.000000E+99

> <Gold.Chemscore.Hbonds>
donor molecule, donor type, donor heavy atom, donor atom, acceptor molecule, acceptor atom, score
      L1  H     5    28       P1  7948  0.97
      L1  H    19    43       P1  8028  0.98

> <Gold.Chemscore.Hbond.Weighted>
-6.6168

> <Gold.Chemscore.Metal.Weighted>
-0.0000

> <Gold.Chemscore.Lipo.Weighted>
-12.2371

> <Gold.Chemscore.Internal_Hbond.Weighted>
0.0000

> <Gold.Chemscore.DEClash.Weighted>
0.4057

> <Gold.Chemscore.DEInternal.Weighted>
1.9859

> <Gold.Chemscore.Rot.Weighted>
4.2017

> <Gold.Chemscore.Internal.Correction.Weighted>
   9.000000E+99

> <Gold.Protein.RotatedTorsions>
[ 6907 6896 6895 6894 ] final -103.72 input  -60.11 | X-H torsion
[ 7974 7965 7964 7962 ] final -173.92 input  175.53 | X-H torsion
[ 8008 7997 7996 7995 ] final  -75.45 input   59.86 | X-H torsion
[ 10167 10162 10161 10158 ] final   60.97 input  -65.29 | X-H torsion
[ 10718 10713 10712 10709 ] final   42.88 input   66.30 | X-H torsion
[ 10763 10752 10751 10750 ] final   82.50 input  -60.55 | X-H torsion
[ 11005 11000 10999 10996 ] final -163.31 input  -57.11 | X-H torsion

> <Gold.Protein.ActiveResidues>
 VAL166  LYS551  ARG553  GLY616  TRP617  ASP618  TYR619  PRO620  LYS621  CYS622 
 ASP623  PHE694  ASN695  SER759  ASP760  ASP761  ALA762  ILE779  LEU786  VAL792 
 PHE793  MET794  SER795  GLU796  ALA797  LYS798  CYS799  TRP800  GLU811  SER814 

> <Gold.Protein.RotatedAtoms>
  150.7253  134.0386  159.3757 H   0  0  0  0  0  0  0  0  0  0  0  0  # atno 6907 bound_to 6896
  151.8358  135.0604  160.0451 H   0  0  0  0  0  0  0  0  0  0  0  0  # atno 6908 bound_to 6896
  152.2899  133.5515  159.5587 H   0  0  0  0  0  0  0  0  0  0  0  0  # atno 6909 bound_to 6896
  144.7135  140.1549  143.6381 H   0  0  0  0  0  0  0  0  0  0  0  0  # atno 7974 bound_to 7965
  154.5418  140.0744  156.8522 H   0  0  0  0  0  0  0  0  0  0  0  0  # atno 8008 bound_to 7997
  155.3166  140.3393  155.4224 H   0  0  0  0  0  0  0  0  0  0  0  0  # atno 8009 bound_to 7997
  156.1881  140.1676  156.8132 H   0  0  0  0  0  0  0  0  0  0  0  0  # atno 8010 bound_to 7997
  140.1598  144.4381  150.6715 H   0  0  0  0  0  0  0  0  0  0  0  0  # atno 10167 bound_to 10162
  157.4097  130.7907  149.7420 H   0  0  0  0  0  0  0  0  0  0  0  0  # atno 10718 bound_to 10713
  153.1208  135.4726  154.9192 H   0  0  0  0  0  0  0  0  0  0  0  0  # atno 10763 bound_to 10752
  154.7573  135.3122  154.8447 H   0  0  0  0  0  0  0  0  0  0  0  0  # atno 10764 bound_to 10752
  153.9012  135.6875  153.4809 H   0  0  0  0  0  0  0  0  0  0  0  0  # atno 10765 bound_to 10752
  140.5995  134.4962  157.5203 H   0  0  0  0  0  0  0  0  0  0  0  0  # atno 11005 bound_to 11000
  145.9083  139.2472  143.1452 LP  0  0  0  0  0  0  0  0  0  0  0  0  # atno 17320 bound_to 7965
  145.9742  140.8736  143.0147 LP  0  0  0  0  0  0  0  0  0  0  0  0  # atno 17321 bound_to 7965
  140.6650  143.2265  151.5765 LP  0  0  0  0  0  0  0  0  0  0  0  0  # atno 17342 bound_to 10162
  139.5386  144.2710  152.1304 LP  0  0  0  0  0  0  0  0  0  0  0  0  # atno 17343 bound_to 10162
  155.9847  130.3989  150.3299 LP  0  0  0  0  0  0  0  0  0  0  0  0  # atno 17370 bound_to 10713
  157.1435  131.0302  151.2917 LP  0  0  0  0  0  0  0  0  0  0  0  0  # atno 17371 bound_to 10713
  139.9239  134.8095  156.1128 LP  0  0  0  0  0  0  0  0  0  0  0  0  # atno 17394 bound_to 11000
  141.0882  133.6725  156.2482 LP  0  0  0  0  0  0  0  0  0  0  0  0  # atno 17395 bound_to 11000

$$$$
