AV-unprocessed.smi:1446|AV-procd|sdf|5890|dock6
  -GOLD-   22720 5573D 1   1.00000     0.00000
 Structure written by MMmdl.
 47 48  0  0  0  0  0  0  0  0  1 V2000
  155.5750  133.4912  158.7282 C   0  0  0  0  0  0  0  0  0  0  0  0
  155.5805  134.6878  159.6730 C   0  0  0  0  0  0  0  0  0  0  0  0
  156.1003  135.7480  159.3263 O   0  0  0  0  0  0  0  0  0  0  0  0
  154.9984  134.5023  160.8681 N   0  0  0  0  0  0  0  0  0  0  0  0
  154.8818  135.5117  161.9231 C   0  0  1  0  0  0  0  0  0  0  0  0
  154.1354  136.7378  161.3614 C   0  0  0  0  0  0  0  0  0  0  0  0
  153.0593  136.5898  160.7792 O   0  0  0  0  0  0  0  0  0  0  0  0
  154.7310  137.9265  161.5743 N   0  0  0  0  0  0  0  0  0  0  0  0
  154.2676  139.2206  161.2192 C   0  0  0  0  0  0  0  0  0  0  0  0
  153.5037  139.2782  160.0347 C   0  0  0  0  0  0  0  0  0  0  0  0
  153.0097  140.5185  159.5885 C   0  0  0  0  0  0  0  0  0  0  0  0
  153.2866  141.6896  160.3292 C   0  0  0  0  0  0  0  0  0  0  0  0
  152.8058  142.9443  159.8952 N   0  0  0  0  0  0  0  0  0  0  0  0
  152.3252  143.0606  158.5215 C   0  0  0  0  0  0  0  0  0  0  0  0
  152.1324  144.5394  158.1444 C   0  0  0  0  0  0  0  0  0  0  0  0
  151.2645  145.1643  159.0840 O   0  0  0  0  0  0  0  0  0  0  0  0
  151.8050  145.1383  160.4009 C   0  0  0  0  0  0  0  0  0  0  0  0
  151.9930  143.6815  160.8599 C   0  0  0  0  0  0  0  0  0  0  0  0
  154.0531  141.5264  161.5089 C   0  0  0  0  0  0  0  0  0  0  0  0
  154.5288  140.3385  161.9376 N   0  0  0  0  0  0  0  0  0  0  0  0
  154.0850  134.9025  163.1152 C   0  0  0  0  0  0  0  0  0  0  0  0
  153.7822  135.9264  164.2293 C   0  0  0  0  0  0  0  0  0  0  0  0
  154.8122  133.6909  163.7311 C   0  0  0  0  0  0  0  0  0  0  0  0
  154.5534  133.1618  158.5364 H   0  0  0  0  0  0  0  0  0  0  0  0
  156.1309  132.6603  159.1632 H   0  0  0  0  0  0  0  0  0  0  0  0
  156.0356  133.7482  157.7738 H   0  0  0  0  0  0  0  0  0  0  0  0
  154.5916  133.5985  161.0609 H   0  0  0  0  0  0  0  0  0  0  0  0
  155.8775  135.8034  162.2643 H   0  0  0  0  0  0  0  0  0  0  0  0
  155.6164  137.8997  162.0585 H   0  0  0  0  0  0  0  0  0  0  0  0
  153.2944  138.3825  159.4682 H   0  0  0  0  0  0  0  0  0  0  0  0
  152.4141  140.5544  158.6886 H   0  0  0  0  0  0  0  0  0  0  0  0
  153.0356  142.6031  157.8326 H   0  0  0  0  0  0  0  0  0  0  0  0
  151.3789  142.5272  158.4231 H   0  0  0  0  0  0  0  0  0  0  0  0
  153.0904  145.0613  158.1136 H   0  0  0  0  0  0  0  0  0  0  0  0
  151.6946  144.6189  157.1493 H   0  0  0  0  0  0  0  0  0  0  0  0
  152.7525  145.6791  160.4276 H   0  0  0  0  0  0  0  0  0  0  0  0
  151.1237  145.6585  161.0742 H   0  0  0  0  0  0  0  0  0  0  0  0
  151.0223  143.1916  160.9485 H   0  0  0  0  0  0  0  0  0  0  0  0
  152.4408  143.6788  161.8527 H   0  0  0  0  0  0  0  0  0  0  0  0
  154.3170  142.3646  162.1357 H   0  0  0  0  0  0  0  0  0  0  0  0
  153.1251  134.5417  162.7408 H   0  0  0  0  0  0  0  0  0  0  0  0
  154.6996  136.3698  164.6175 H   0  0  0  0  0  0  0  0  0  0  0  0
  153.2648  135.4541  165.0647 H   0  0  0  0  0  0  0  0  0  0  0  0
  153.1400  136.7363  163.8829 H   0  0  0  0  0  0  0  0  0  0  0  0
  155.8015  133.9691  164.0960 H   0  0  0  0  0  0  0  0  0  0  0  0
  154.9381  132.8808  163.0128 H   0  0  0  0  0  0  0  0  0  0  0  0
  154.2524  133.2822  164.5729 H   0  0  0  0  0  0  0  0  0  0  0  0
  1  2  1  0  0  0  0
  1 24  1  0  0  0  0
  1 25  1  0  0  0  0
  1 26  1  0  0  0  0
  2  3  2  0  0  0  0
  2  4  1  0  0  0  0
  4  5  1  0  0  0  0
  4 27  1  0  0  0  0
  5  6  1  0  0  0  0
  5 21  1  0  0  0  0
  5 28  1  0  0  0  0
  6  7  2  0  0  0  0
  6  8  1  0  0  0  0
  8  9  1  0  0  0  0
  8 29  1  0  0  0  0
  9 20  1  0  0  0  0
  9 10  2  0  0  0  0
 10 11  1  0  0  0  0
 10 30  1  0  0  0  0
 11 12  2  0  0  0  0
 11 31  1  0  0  0  0
 12 13  1  0  0  0  0
 12 19  1  0  0  0  0
 13 18  1  0  0  0  0
 13 14  1  0  0  0  0
 14 15  1  0  0  0  0
 14 32  1  0  0  0  0
 14 33  1  0  0  0  0
 15 16  1  0  0  0  0
 15 34  1  0  0  0  0
 15 35  1  0  0  0  0
 16 17  1  0  0  0  0
 17 18  1  0  0  0  0
 17 36  1  0  0  0  0
 17 37  1  0  0  0  0
 18 38  1  0  0  0  0
 18 39  1  0  0  0  0
 19 20  2  0  0  0  0
 19 40  1  0  0  0  0
 21 22  1  0  0  0  0
 21 23  1  0  0  0  0
 21 41  1  0  0  0  0
 22 42  1  0  0  0  0
 22 43  1  0  0  0  0
 22 44  1  0  0  0  0
 23 45  1  0  0  0  0
 23 46  1  0  0  0  0
 23 47  1  0  0  0  0
M  END
> <s_m_source_file>
AV-unprocessed.smi

> <i_m_source_file_index>
1446

> <i_lp_mmshare_version>
43012

> <i_f3d_flags>
0

> <s_epik_input>
W0NIM11DKD1PKVtOSF1bQ0BASF0oW0NIXShbQ0gzXSlbQ0gzXSlDKD1PKVtOSF1jMVtjSF1bY0hdYyhbY0hdbjEpTjJbQ0gyXVtDSDJdT1tDSDJdW0NIMl0y

> <s_epik_cmdline>
J2VwaWtfcHl0aG9uJywgJy1waCcsICc3LjAnLCAnLXRuJywgJzgnLCAnLW1hJywgJzIwMCcsICctbWV0YWxfYmluZGluZycsICctaW1hZScsICc8aW5maWxlLm1hZT4nLCAnLW9tYWUnLCAnPG91dGZpbGUubWFlPic=

> <r_lp_tautomer_probability>
1

> <r_epik_Ionization_Penalty>
0.00298315

> <r_epik_Ionization_Penalty_Charging>
0

> <r_epik_Ionization_Penalty_Neutral>
0.00298315

> <r_epik_State_Penalty>
0.0038483

> <r_epik_Charging_Adjusted_Penalty>
0.0038483

> <i_epik_Tot_Q>
0

> <i_epik_Tot_abs_Q>
0

> <r_epik_Metal_State_Penalty>
-0

> <b_epik_Metal_Only>
0

> <s_lp_Force_Field>
OPLS_2005

> <r_lp_Energy>
27.8209

> <b_lp_Chiralities_Consistent>
1

> <s_lp_Variant>
AV-unprocessed.smi:1446-2

> <Gold.Version>
5.8.1

> <Gold.Id.Protein>
6NUR|6NUR_protein|mol2

> <Gold.PLP.Fitness>
42.7016

> <Gold.PLP.PLP>
-40.6938

> <Gold.PLP.part.hbond>
-0.9852

> <Gold.PLP.part.metal>
0.0000

> <Gold.PLP.part.buried>
-4.4891

> <Gold.PLP.part.nonpolar>
-35.8584

> <Gold.PLP.part.repulsive>
0.2078

> <Gold.PLP.ligand.clash>
0.0000

> <Gold.PLP.ligand.torsion>
0.5981

> <Gold.PLP.Chemscore.Hbond>
0.9425

> <Gold.PLP.Chemscore.CHOScore>
0.0000

> <Gold.PLP.Chemscore.Metal>
0.0000

> <Gold.Chemscore.Hbonds>
donor molecule, donor type, donor heavy atom, donor atom, acceptor molecule, acceptor atom, score
      P1  H  6896  6908       L1     7  1.00

> <Gold.PLP.Chemscore.Internal.Correction>
0.3767

> <Gold.Rescore>
     Score         DG    S(hbond)    S(metal)    S(lipo)     H(rot)  DE(clash)    DE(int)     intcor
     15.33     -17.25       1.00        0.00     110.11       1.74       0.04       1.88       ----

> <Gold.Chemscore.Fitness>
15.3322

> <Gold.Chemscore.DG>
-17.2486

> <Gold.Chemscore.ZeroCoef>
-5.4800

> <Gold.Chemscore.Hbond>
0.9994

> <Gold.Chemscore.Metal>
0.0000

> <Gold.Chemscore.Lipo>
110.1139

> <Gold.Chemscore.Internal_Hbond>
0.0000

> <Gold.Chemscore.DEClash>
0.0382

> <Gold.Chemscore.DEInternal>
1.8782

> <Gold.Chemscore.Rot>
1.7394

> <Gold.Chemscore.Internal.Correction>
   9.000000E+99

> <Gold.Chemscore.Hbonds>
donor molecule, donor type, donor heavy atom, donor atom, acceptor molecule, acceptor atom, score
      P1  H  6896  6908       L1     7  0.98

> <Gold.Chemscore.Hbond.Weighted>
-3.3381

> <Gold.Chemscore.Metal.Weighted>
-0.0000

> <Gold.Chemscore.Lipo.Weighted>
-12.8833

> <Gold.Chemscore.Internal_Hbond.Weighted>
0.0000

> <Gold.Chemscore.DEClash.Weighted>
0.0382

> <Gold.Chemscore.DEInternal.Weighted>
1.8782

> <Gold.Chemscore.Rot.Weighted>
4.4528

> <Gold.Chemscore.Internal.Correction.Weighted>
   9.000000E+99

> <Gold.Protein.RotatedTorsions>
[ 6907 6896 6895 6894 ] final  -88.19 input  -60.11 | X-H torsion
[ 7974 7965 7964 7962 ] final   35.73 input  175.53 | X-H torsion
[ 8008 7997 7996 7995 ] final   33.94 input   59.86 | X-H torsion
[ 10167 10162 10161 10158 ] final  153.93 input  -65.29 | X-H torsion
[ 10718 10713 10712 10709 ] final   -1.76 input   66.30 | X-H torsion
[ 10763 10752 10751 10750 ] final  -53.98 input  -60.55 | X-H torsion
[ 11005 11000 10999 10996 ] final -100.11 input  -57.11 | X-H torsion

> <Gold.Protein.ActiveResidues>
 VAL166  LYS551  ARG553  GLY616  TRP617  ASP618  TYR619  PRO620  LYS621  CYS622 
 ASP623  PHE694  ASN695  SER759  ASP760  ASP761  ALA762  ILE779  LEU786  VAL792 
 PHE793  MET794  SER795  GLU796  ALA797  LYS798  CYS799  TRP800  GLU811  SER814 

> <Gold.Protein.RotatedAtoms>
  150.6868  134.2780  159.4615 H   0  0  0  0  0  0  0  0  0  0  0  0  # atno 6907 bound_to 6896
  152.0696  134.9539  160.0584 H   0  0  0  0  0  0  0  0  0  0  0  0  # atno 6908 bound_to 6896
  152.0934  133.4177  159.4591 H   0  0  0  0  0  0  0  0  0  0  0  0  # atno 6909 bound_to 6896
  146.1262  139.6106  142.9257 H   0  0  0  0  0  0  0  0  0  0  0  0  # atno 7974 bound_to 7965
  155.1468  140.3271  155.4440 H   0  0  0  0  0  0  0  0  0  0  0  0  # atno 8008 bound_to 7997
  156.2587  140.1984  156.6531 H   0  0  0  0  0  0  0  0  0  0  0  0  # atno 8009 bound_to 7997
  154.6502  140.0559  156.9933 H   0  0  0  0  0  0  0  0  0  0  0  0  # atno 8010 bound_to 7997
  139.4825  144.5231  151.7844 H   0  0  0  0  0  0  0  0  0  0  0  0  # atno 10167 bound_to 10162
  156.8009  130.5392  149.5722 H   0  0  0  0  0  0  0  0  0  0  0  0  # atno 10718 bound_to 10713
  154.1675  135.6464  153.5001 H   0  0  0  0  0  0  0  0  0  0  0  0  # atno 10763 bound_to 10752
  153.0093  135.5375  154.6647 H   0  0  0  0  0  0  0  0  0  0  0  0  # atno 10764 bound_to 10752
  154.5977  135.2940  155.0540 H   0  0  0  0  0  0  0  0  0  0  0  0  # atno 10765 bound_to 10752
  141.1283  133.8373  157.1060 H   0  0  0  0  0  0  0  0  0  0  0  0  # atno 11005 bound_to 11000
  145.5360  141.0424  143.2357 LP  0  0  0  0  0  0  0  0  0  0  0  0  # atno 17320 bound_to 7965
  144.7645  139.6878  143.7221 LP  0  0  0  0  0  0  0  0  0  0  0  0  # atno 17321 bound_to 7965
  140.4747  144.1535  150.5923 LP  0  0  0  0  0  0  0  0  0  0  0  0  # atno 17342 bound_to 10162
  140.4343  143.2554  151.9555 LP  0  0  0  0  0  0  0  0  0  0  0  0  # atno 17343 bound_to 10162
  156.1102  130.6034  151.0035 LP  0  0  0  0  0  0  0  0  0  0  0  0  # atno 17370 bound_to 10713
  157.6554  131.0890  150.7958 LP  0  0  0  0  0  0  0  0  0  0  0  0  # atno 17371 bound_to 10713
  140.0304  134.9904  157.0769 LP  0  0  0  0  0  0  0  0  0  0  0  0  # atno 17394 bound_to 11000
  140.4294  134.1796  155.7167 LP  0  0  0  0  0  0  0  0  0  0  0  0  # atno 17395 bound_to 11000

$$$$
