AV-unprocessed.smi:1586|AV-procd|sdf|6385|dock10
  -GOLD-   22720 7 23D 1   1.00000     0.00000
 Structure written by MMmdl.
 45 46  0  0  0  0  0  0  0  0  2 V2000
  151.7717  145.5946  159.7662 C   0  0  0  0  0  0  0  0  0  0  0  0
  151.5648  144.3905  160.6961 C   0  0  0  0  0  0  0  0  0  0  0  0
  151.4589  143.0992  160.0191 N   0  0  0  0  0  0  0  0  0  0  0  0
  150.5716  143.1903  158.8619 C   0  0  0  0  0  0  0  0  0  0  0  0
  150.4329  141.8380  158.1395 C   0  0  0  0  0  0  0  0  0  0  0  0
  151.7271  141.3265  157.6679 N   0  0  0  0  0  0  0  0  0  0  0  0
  151.6027  140.0336  156.9603 C   0  0  2  0  0  0  0  0  0  0  0  0
  150.4049  139.9784  155.9851 C   0  0  0  0  0  0  0  0  0  0  0  0
  151.5122  138.8067  157.9023 C   0  0  0  0  0  0  0  0  0  0  0  0
  150.1513  138.5972  158.3855 N   0  0  0  0  0  0  0  0  0  0  0  0
  149.6912  137.4680  158.9390 C   0  0  0  0  0  0  0  0  0  0  0  0
  150.4441  136.5003  159.0734 O   0  0  0  0  0  0  0  0  0  0  0  0
  148.3886  137.5291  159.2998 N   0  5  0  0  0  0  0  0  0  0  0  0
  147.9193  136.7371  160.2761 C   0  0  0  0  0  0  0  0  0  0  0  0
  147.8286  135.3188  160.2322 C   0  0  0  0  0  0  0  0  0  0  0  0
  147.2817  135.0033  161.4435 C   0  0  0  0  0  0  0  0  0  0  0  0
  146.9131  133.7071  162.0810 C   0  0  0  0  0  0  0  0  0  0  0  0
  147.0460  136.1330  162.1635 O   0  0  0  0  0  0  0  0  0  0  0  0
  147.4518  137.2389  161.4071 N   0  0  0  0  0  0  0  0  0  0  0  0
  152.6215  141.2508  158.8307 C   0  0  0  0  0  0  0  0  0  0  0  0
  152.7546  142.6045  159.5530 C   0  0  0  0  0  0  0  0  0  0  0  0
  151.9460  146.5002  160.3473 H   0  0  0  0  0  0  0  0  0  0  0  0
  150.9015  145.7783  159.1366 H   0  0  0  0  0  0  0  0  0  0  0  0
  152.6352  145.4464  159.1168 H   0  0  0  0  0  0  0  0  0  0  0  0
  152.4127  144.3585  161.3816 H   0  0  0  0  0  0  0  0  0  0  0  0
  150.6836  144.5575  161.3173 H   0  0  0  0  0  0  0  0  0  0  0  0
  149.5841  143.5254  159.1809 H   0  0  0  0  0  0  0  0  0  0  0  0
  150.9433  143.9406  158.1619 H   0  0  0  0  0  0  0  0  0  0  0  0
  149.9610  141.1112  158.8025 H   0  0  0  0  0  0  0  0  0  0  0  0
  149.7537  141.9882  157.3021 H   0  0  0  0  0  0  0  0  0  0  0  0
  152.5013  139.8936  156.3576 H   0  0  0  0  0  0  0  0  0  0  0  0
  150.2818  138.9790  155.5668 H   0  0  0  0  0  0  0  0  0  0  0  0
  150.5354  140.6478  155.1356 H   0  0  0  0  0  0  0  0  0  0  0  0
  149.4716  140.2425  156.4833 H   0  0  0  0  0  0  0  0  0  0  0  0
  151.8362  137.9088  157.3739 H   0  0  0  0  0  0  0  0  0  0  0  0
  152.1951  138.9038  158.7463 H   0  0  0  0  0  0  0  0  0  0  0  0
  149.5107  139.3725  158.2981 H   0  0  0  0  0  0  0  0  0  0  0  0
  148.1224  134.6443  159.4422 H   0  0  0  0  0  0  0  0  0  0  0  0
  147.7740  133.0399  162.1229 H   0  0  0  0  0  0  0  0  0  0  0  0
  146.1259  133.2096  161.5145 H   0  0  0  0  0  0  0  0  0  0  0  0
  146.5530  133.8570  163.0992 H   0  0  0  0  0  0  0  0  0  0  0  0
  152.2647  140.4926  159.5295 H   0  0  0  0  0  0  0  0  0  0  0  0
  153.6214  140.9498  158.5223 H   0  0  0  0  0  0  0  0  0  0  0  0
  153.2154  143.3327  158.8835 H   0  0  0  0  0  0  0  0  0  0  0  0
  153.4346  142.4796  160.3952 H   0  0  0  0  0  0  0  0  0  0  0  0
  1  2  1  0  0  0  0
  1 22  1  0  0  0  0
  1 23  1  0  0  0  0
  1 24  1  0  0  0  0
  2  3  1  0  0  0  0
  2 25  1  0  0  0  0
  2 26  1  0  0  0  0
  3 21  1  0  0  0  0
  3  4  1  0  0  0  0
  4  5  1  0  0  0  0
  4 27  1  0  0  0  0
  4 28  1  0  0  0  0
  5  6  1  0  0  0  0
  5 29  1  0  0  0  0
  5 30  1  0  0  0  0
  6  7  1  0  0  0  0
  6 20  1  0  0  0  0
  7  8  1  0  0  0  0
  7  9  1  0  0  0  0
  7 31  1  0  0  0  0
  8 32  1  0  0  0  0
  8 33  1  0  0  0  0
  8 34  1  0  0  0  0
  9 10  1  0  0  0  0
  9 35  1  0  0  0  0
  9 36  1  0  0  0  0
 10 11  1  0  0  0  0
 10 37  1  0  0  0  0
 11 12  2  0  0  0  0
 11 13  1  0  0  0  0
 13 14  1  0  0  0  0
 14 19  2  0  0  0  0
 14 15  1  0  0  0  0
 15 16  2  0  0  0  0
 15 38  1  0  0  0  0
 16 17  1  0  0  0  0
 16 18  1  0  0  0  0
 17 39  1  0  0  0  0
 17 40  1  0  0  0  0
 17 41  1  0  0  0  0
 18 19  1  0  0  0  0
 20 21  1  0  0  0  0
 20 42  1  0  0  0  0
 20 43  1  0  0  0  0
 21 44  1  0  0  0  0
 21 45  1  0  0  0  0
M  CHG  1  13  -1
M  END
> <s_m_source_file>
AV-unprocessed.smi

> <i_m_source_file_index>
1586

> <i_lp_mmshare_version>
43012

> <i_f3d_flags>
0

> <s_epik_input>
W0NIM11bQ0gyXU4xW0NIMl1bQ0gyXU4oW0NIMl1bQ0gyXTEpW0NASF0oW0NIM10pW0NIMl1bTkhdQyg9TylbTkhdYzJbY0hdYyhbQ0gzXSlvbjI=

> <s_epik_cmdline>
J2VwaWtfcHl0aG9uJywgJy1waCcsICc3LjAnLCAnLXRuJywgJzgnLCAnLW1hJywgJzIwMCcsICctbWV0YWxfYmluZGluZycsICctaW1hZScsICc8aW5maWxlLm1hZT4nLCAnLW9tYWUnLCAnPG91dGZpbGUubWFlPic=

> <r_epik_Ionization_Penalty>
9.09031

> <r_epik_Ionization_Penalty_Charging>
6.65437

> <r_epik_Ionization_Penalty_Neutral>
2.43594

> <r_epik_State_Penalty>
8.41762

> <r_epik_Charging_Adjusted_Penalty>
15.072

> <i_epik_Tot_Q>
-1

> <i_epik_Tot_abs_Q>
1

> <r_epik_Metal_State_Penalty>
4.3436

> <b_epik_Metal_Only>
1

> <s_lp_Force_Field>
OPLS_2005

> <r_lp_Energy>
37.6489

> <b_lp_Chiralities_Consistent>
1

> <s_lp_Variant>
AV-unprocessed.smi:1586-13

> <Gold.Version>
5.8.1

> <Gold.Id.Protein>
6NUR|6NUR_protein|mol2

> <Gold.PLP.Fitness>
45.2801

> <Gold.PLP.PLP>
-39.9166

> <Gold.PLP.part.hbond>
-4.0912

> <Gold.PLP.part.metal>
0.0000

> <Gold.PLP.part.buried>
-6.3144

> <Gold.PLP.part.nonpolar>
-29.6504

> <Gold.PLP.part.repulsive>
0.1771

> <Gold.PLP.ligand.clash>
0.0000

> <Gold.PLP.ligand.torsion>
1.4781

> <Gold.PLP.Chemscore.Hbond>
2.7432

> <Gold.PLP.Chemscore.CHOScore>
0.0000

> <Gold.PLP.Chemscore.Metal>
0.0000

> <Gold.Chemscore.Hbonds>
donor molecule, donor type, donor heavy atom, donor atom, acceptor molecule, acceptor atom, score
      P1  H  6896  6909       L1    12  1.00
      P1  H  6931  6943       L1    19  0.81
      P1  H  6934  6947       L1    19  0.90

> <Gold.PLP.Chemscore.Internal.Correction>
0.0901

> <Gold.Rescore>
     Score         DG    S(hbond)    S(metal)    S(lipo)     H(rot)  DE(clash)    DE(int)     intcor
     18.16     -19.63       2.35        0.00      90.61       1.68       0.00       1.47       ----

> <Gold.Chemscore.Fitness>
18.1556

> <Gold.Chemscore.DG>
-19.6298

> <Gold.Chemscore.ZeroCoef>
-5.4800

> <Gold.Chemscore.Hbond>
2.3492

> <Gold.Chemscore.Metal>
0.0000

> <Gold.Chemscore.Lipo>
90.6105

> <Gold.Chemscore.Internal_Hbond>
0.0000

> <Gold.Chemscore.DEClash>
0.0048

> <Gold.Chemscore.DEInternal>
1.4693

> <Gold.Chemscore.Rot>
1.6788

> <Gold.Chemscore.Internal.Correction>
   9.000000E+99

> <Gold.Chemscore.Hbonds>
donor molecule, donor type, donor heavy atom, donor atom, acceptor molecule, acceptor atom, score
      P1  H  6896  6909       L1    12  0.98
      P1  H  6931  6943       L1    19  0.15
      P1  H  6934  6947       L1    19  0.31

> <Gold.Chemscore.Hbond.Weighted>
-7.8462

> <Gold.Chemscore.Metal.Weighted>
-0.0000

> <Gold.Chemscore.Lipo.Weighted>
-10.6014

> <Gold.Chemscore.Internal_Hbond.Weighted>
0.0000

> <Gold.Chemscore.DEClash.Weighted>
0.0048

> <Gold.Chemscore.DEInternal.Weighted>
1.4693

> <Gold.Chemscore.Rot.Weighted>
4.2978

> <Gold.Chemscore.Internal.Correction.Weighted>
   9.000000E+99

> <Gold.Protein.RotatedTorsions>
[ 6907 6896 6895 6894 ] final   73.21 input  -60.11 | X-H torsion
[ 7974 7965 7964 7962 ] final  -12.07 input  175.53 | X-H torsion
[ 8008 7997 7996 7995 ] final  153.17 input   59.86 | X-H torsion
[ 10167 10162 10161 10158 ] final  147.02 input  -65.29 | X-H torsion
[ 10718 10713 10712 10709 ] final   26.99 input   66.30 | X-H torsion
[ 10763 10752 10751 10750 ] final  -79.46 input  -60.55 | X-H torsion
[ 11005 11000 10999 10996 ] final  -75.87 input  -57.11 | X-H torsion

> <Gold.Protein.ActiveResidues>
 VAL166  LYS551  ARG553  GLY616  TRP617  ASP618  TYR619  PRO620  LYS621  CYS622 
 ASP623  PHE694  ASN695  SER759  ASP760  ASP761  ALA762  ILE779  LEU786  VAL792 
 PHE793  MET794  SER795  GLU796  ALA797  LYS798  CYS799  TRP800  GLU811  SER814 

> <Gold.Protein.RotatedAtoms>
  152.4911  134.4456  159.9557 H   0  0  0  0  0  0  0  0  0  0  0  0  # atno 6907 bound_to 6896
  151.4443  133.3628  159.2794 H   0  0  0  0  0  0  0  0  0  0  0  0  # atno 6908 bound_to 6896
  150.9066  134.8505  159.7456 H   0  0  0  0  0  0  0  0  0  0  0  0  # atno 6909 bound_to 6896
  146.2165  140.3003  142.8375 H   0  0  0  0  0  0  0  0  0  0  0  0  # atno 7974 bound_to 7965
  156.2594  140.2001  156.6448 H   0  0  0  0  0  0  0  0  0  0  0  0  # atno 8008 bound_to 7997
  154.6582  140.0564  157.0057 H   0  0  0  0  0  0  0  0  0  0  0  0  # atno 8009 bound_to 7997
  155.1316  140.3234  155.4475 H   0  0  0  0  0  0  0  0  0  0  0  0  # atno 8010 bound_to 7997
  139.4897  144.5786  151.6916 H   0  0  0  0  0  0  0  0  0  0  0  0  # atno 10167 bound_to 10162
  157.2142  130.6948  149.6242 H   0  0  0  0  0  0  0  0  0  0  0  0  # atno 10718 bound_to 10713
  154.5389  135.5695  153.6822 H   0  0  0  0  0  0  0  0  0  0  0  0  # atno 10763 bound_to 10752
  152.9958  135.6223  154.2529 H   0  0  0  0  0  0  0  0  0  0  0  0  # atno 10764 bound_to 10752
  154.2459  135.2861  155.2815 H   0  0  0  0  0  0  0  0  0  0  0  0  # atno 10765 bound_to 10752
  141.1649  133.6962  156.7583 H   0  0  0  0  0  0  0  0  0  0  0  0  # atno 11005 bound_to 11000
  144.9062  140.7702  143.5836 LP  0  0  0  0  0  0  0  0  0  0  0  0  # atno 17320 bound_to 7965
  145.2932  139.1876  143.4729 LP  0  0  0  0  0  0  0  0  0  0  0  0  # atno 17321 bound_to 7965
  140.5388  144.0613  150.6080 LP  0  0  0  0  0  0  0  0  0  0  0  0  # atno 17342 bound_to 10162
  140.3628  143.2898  152.0365 LP  0  0  0  0  0  0  0  0  0  0  0  0  # atno 17343 bound_to 10162
  155.9688  130.4541  150.5837 LP  0  0  0  0  0  0  0  0  0  0  0  0  # atno 17370 bound_to 10713
  157.3641  131.0755  151.1612 LP  0  0  0  0  0  0  0  0  0  0  0  0  # atno 17371 bound_to 10713
  140.2553  134.8509  157.3707 LP  0  0  0  0  0  0  0  0  0  0  0  0  # atno 17394 bound_to 11000
  140.1663  134.4665  155.7861 LP  0  0  0  0  0  0  0  0  0  0  0  0  # atno 17395 bound_to 11000

$$$$
