AV-unprocessed.smi:49|AV-procd|sdf|484|dock1
  -GOLD-   2262016343D 1   1.00000     0.00000
 Structure written by MMmdl.
 27 28  0  0  0  0  0  0  0  0  3 V2000
  152.5183  142.2466  159.3004 C   0  0  0  0  0  0  0  0  0  0  0  0
  152.2018  140.8066  158.8844 C   0  0  0  0  0  0  0  0  0  0  0  0
  151.6582  140.7273  157.4746 C   0  0  0  0  0  0  0  0  0  0  0  0
  150.5512  141.3156  157.0322 N   0  0  0  0  0  0  0  0  0  0  0  0
  150.4683  141.0067  155.7316 C   0  0  0  0  0  0  0  0  0  0  0  0
  149.3660  141.4868  154.8113 C   0  0  1  0  0  0  0  0  0  0  0  0
  148.6290  140.3503  154.0994 C   0  0  0  0  0  0  0  0  0  0  0  0
  147.2834  140.9886  153.7716 C   0  0  1  0  0  0  0  0  0  0  0  0
  146.2719  140.0248  153.5664 O   0  0  0  0  0  0  0  0  0  0  0  0
  147.0070  141.8697  154.9945 C   0  0  0  0  0  0  0  0  0  0  0  0
  148.3281  142.2455  155.5367 N   0  3  0  0  0  0  0  0  0  0  0  0
  151.5175  140.2601  155.3522 N   0  0  0  0  0  0  0  0  0  0  0  0
  152.2405  140.0954  156.4400 N   0  5  0  0  0  0  0  0  0  0  0  0
  149.7951  142.1561  154.0645 H   0  0  0  0  0  0  0  0  0  0  0  0
  147.3800  141.6105  152.8805 H   0  0  0  0  0  0  0  0  0  0  0  0
  152.9081  142.2809  160.3177 H   0  0  0  0  0  0  0  0  0  0  0  0
  151.6250  142.8707  159.2630 H   0  0  0  0  0  0  0  0  0  0  0  0
  153.2652  142.6898  158.6408 H   0  0  0  0  0  0  0  0  0  0  0  0
  153.1009  140.1930  158.9500 H   0  0  0  0  0  0  0  0  0  0  0  0
  151.4733  140.3718  159.5692 H   0  0  0  0  0  0  0  0  0  0  0  0
  149.1623  139.9757  153.2251 H   0  0  0  0  0  0  0  0  0  0  0  0
  148.4821  139.5151  154.7873 H   0  0  0  0  0  0  0  0  0  0  0  0
  145.4729  140.4711  153.3295 H   0  0  0  0  0  0  0  0  0  0  0  0
  146.4086  142.7472  154.7487 H   0  0  0  0  0  0  0  0  0  0  0  0
  146.4791  141.3076  155.7663 H   0  0  0  0  0  0  0  0  0  0  0  0
  148.3645  141.9939  156.5146 H   0  0  0  0  0  0  0  0  0  0  0  0
  148.4963  143.2357  155.4340 H   0  0  0  0  0  0  0  0  0  0  0  0
  1  2  1  0  0  0  0
  1 16  1  0  0  0  0
  1 17  1  0  0  0  0
  1 18  1  0  0  0  0
  2  3  1  0  0  0  0
  2 19  1  0  0  0  0
  2 20  1  0  0  0  0
  3 13  1  0  0  0  0
  3  4  2  0  0  0  0
  4  5  1  0  0  0  0
  5  6  1  0  0  0  0
  5 12  2  0  0  0  0
  6 14  1  0  0  0  0
  6 11  1  0  0  0  0
  6  7  1  0  0  0  0
  7  8  1  0  0  0  0
  7 21  1  0  0  0  0
  7 22  1  0  0  0  0
  8 15  1  0  0  0  0
  8  9  1  0  0  0  0
  8 10  1  0  0  0  0
  9 23  1  0  0  0  0
 10 11  1  0  0  0  0
 10 24  1  0  0  0  0
 10 25  1  0  0  0  0
 11 26  1  0  0  0  0
 11 27  1  0  0  0  0
 12 13  1  0  0  0  0
M  CHG  1  11   1
M  CHG  1  13  -1
M  END
> <s_m_source_file>
AV-unprocessed.smi

> <i_m_source_file_index>
49

> <i_lp_mmshare_version>
43012

> <i_f3d_flags>
0

> <s_epik_input>
W0NIM11bQ0gyXWMxbmMobltuSF0xKVtDQEBIXTJbQ0gyXVtDQEBIXShbT0hdKVtDSDJdW05IXTI=

> <s_epik_cmdline>
J2VwaWtfcHl0aG9uJywgJy1waCcsICc3LjAnLCAnLXRuJywgJzgnLCAnLW1hJywgJzIwMCcsICctbWV0YWxfYmluZGluZycsICctaW1hZScsICc8aW5maWxlLm1hZT4nLCAnLW9tYWUnLCAnPG91dGZpbGUubWFlPic=

> <r_lp_tautomer_probability>
0.948284

> <r_epik_Ionization_Penalty>
3.22013

> <r_epik_Ionization_Penalty_Charging>
3.22013

> <r_epik_Ionization_Penalty_Neutral>
3.9133e-08

> <r_epik_State_Penalty>
2.79459

> <r_epik_Charging_Adjusted_Penalty>
6.01472

> <i_epik_Tot_Q>
0

> <i_epik_Tot_abs_Q>
2

> <r_epik_Metal_State_Penalty>
0.589377

> <b_epik_Metal_Only>
1

> <s_lp_Force_Field>
OPLS_2005

> <r_lp_Energy>
9.67699

> <b_lp_Chiralities_Consistent>
1

> <s_lp_Variant>
AV-unprocessed.smi:49-22

> <Gold.Version>
5.8.1

> <Gold.Id.Protein>
6NUR|6NUR_protein|mol2

> <Gold.PLP.Fitness>
42.5779

> <Gold.PLP.PLP>
-24.7922

> <Gold.PLP.part.hbond>
-3.9697

> <Gold.PLP.part.metal>
0.0000

> <Gold.PLP.part.buried>
-1.4001

> <Gold.PLP.part.nonpolar>
-19.2059

> <Gold.PLP.part.repulsive>
0.1948

> <Gold.PLP.ligand.clash>
0.0000

> <Gold.PLP.ligand.torsion>
0.0290

> <Gold.PLP.Chemscore.Hbond>
5.9440

> <Gold.PLP.Chemscore.CHOScore>
0.0000

> <Gold.PLP.Chemscore.Metal>
0.0000

> <Gold.Chemscore.Hbonds>
donor molecule, donor type, donor heavy atom, donor atom, acceptor molecule, acceptor atom, score
      L1  H     9    23       P1 10175  1.00
      L1  H    11    27       P1  8028  2.00
      P1  H  7989  7998       L1    12  0.85
      P1  H  7997  8010       L1    13  1.69

> <Gold.PLP.Chemscore.Internal.Correction>
0.0116

> <Gold.Rescore>
     Score         DG    S(hbond)    S(metal)    S(lipo)     H(rot)  DE(clash)    DE(int)     intcor
     16.29     -16.89       3.31        0.00      43.55       1.86       0.59       0.01       ----

> <Gold.Chemscore.Fitness>
16.2931

> <Gold.Chemscore.DG>
-16.8941

> <Gold.Chemscore.ZeroCoef>
-5.4800

> <Gold.Chemscore.Hbond>
3.3150

> <Gold.Chemscore.Metal>
0.0000

> <Gold.Chemscore.Lipo>
43.5489

> <Gold.Chemscore.Internal_Hbond>
0.0000

> <Gold.Chemscore.DEClash>
0.5937

> <Gold.Chemscore.DEInternal>
0.0073

> <Gold.Chemscore.Rot>
1.8567

> <Gold.Chemscore.Internal.Correction>
   9.000000E+99

> <Gold.Chemscore.Hbonds>
donor molecule, donor type, donor heavy atom, donor atom, acceptor molecule, acceptor atom, score
      L1  H     9    23       P1 10175  0.90
      L1  H    11    27       P1  8028  0.93
      P1  H  7989  7998       L1    12  0.16
      P1  H  7997  8010       L1    13  0.75

> <Gold.Chemscore.Hbond.Weighted>
-11.0719

> <Gold.Chemscore.Metal.Weighted>
-0.0000

> <Gold.Chemscore.Lipo.Weighted>
-5.0952

> <Gold.Chemscore.Internal_Hbond.Weighted>
0.0000

> <Gold.Chemscore.DEClash.Weighted>
0.5937

> <Gold.Chemscore.DEInternal.Weighted>
0.0073

> <Gold.Chemscore.Rot.Weighted>
4.7531

> <Gold.Chemscore.Internal.Correction.Weighted>
   9.000000E+99

> <Gold.Protein.RotatedTorsions>
[ 6907 6896 6895 6894 ] final  151.89 input  -60.11 | X-H torsion
[ 7974 7965 7964 7962 ] final   36.00 input  175.53 | X-H torsion
[ 8008 7997 7996 7995 ] final   77.64 input   59.86 | X-H torsion
[ 10167 10162 10161 10158 ] final  -99.03 input  -65.29 | X-H torsion
[ 10718 10713 10712 10709 ] final  -80.40 input   66.30 | X-H torsion
[ 10763 10752 10751 10750 ] final   13.03 input  -60.55 | X-H torsion
[ 11005 11000 10999 10996 ] final -159.53 input  -57.11 | X-H torsion

> <Gold.Protein.ActiveResidues>
 VAL166  LYS551  ARG553  GLY616  TRP617  ASP618  TYR619  PRO620  LYS621  CYS622 
 ASP623  PHE694  ASN695  SER759  ASP760  ASP761  ALA762  ILE779  LEU786  VAL792 
 PHE793  MET794  SER795  GLU796  ALA797  LYS798  CYS799  TRP800  GLU811  SER814 

> <Gold.Protein.RotatedAtoms>
  152.0943  133.4217  159.4557 H   0  0  0  0  0  0  0  0  0  0  0  0  # atno 6907 bound_to 6896
  150.6863  134.2835  159.4646 H   0  0  0  0  0  0  0  0  0  0  0  0  # atno 6908 bound_to 6896
  152.0689  134.9546  160.0625 H   0  0  0  0  0  0  0  0  0  0  0  0  # atno 6909 bound_to 6896
  146.1242  139.6072  142.9269 H   0  0  0  0  0  0  0  0  0  0  0  0  # atno 7974 bound_to 7965
  155.8445  140.3461  155.5653 H   0  0  0  0  0  0  0  0  0  0  0  0  # atno 8008 bound_to 7997
  155.8104  140.0898  157.1926 H   0  0  0  0  0  0  0  0  0  0  0  0  # atno 8009 bound_to 7997
  154.4006  140.1449  156.3368 H   0  0  0  0  0  0  0  0  0  0  0  0  # atno 8010 bound_to 7997
  140.2667  143.3371  152.0574 H   0  0  0  0  0  0  0  0  0  0  0  0  # atno 10167 bound_to 10162
  156.0071  130.4573  150.3794 H   0  0  0  0  0  0  0  0  0  0  0  0  # atno 10718 bound_to 10713
  153.1762  135.6820  153.8540 H   0  0  0  0  0  0  0  0  0  0  0  0  # atno 10763 bound_to 10752
  153.7887  135.3172  155.3376 H   0  0  0  0  0  0  0  0  0  0  0  0  # atno 10764 bound_to 10752
  154.8030  135.4766  154.0417 H   0  0  0  0  0  0  0  0  0  0  0  0  # atno 10765 bound_to 10752
  140.6415  134.4546  157.5233 H   0  0  0  0  0  0  0  0  0  0  0  0  # atno 11005 bound_to 11000
  145.5400  141.0421  143.2336 LP  0  0  0  0  0  0  0  0  0  0  0  0  # atno 17320 bound_to 7965
  144.7627  139.6919  143.7228 LP  0  0  0  0  0  0  0  0  0  0  0  0  # atno 17321 bound_to 7965
  139.5000  144.6683  151.6303 LP  0  0  0  0  0  0  0  0  0  0  0  0  # atno 17342 bound_to 10162
  140.5922  143.9759  150.6332 LP  0  0  0  0  0  0  0  0  0  0  0  0  # atno 17343 bound_to 10162
  157.1875  131.0407  151.2717 LP  0  0  0  0  0  0  0  0  0  0  0  0  # atno 17370 bound_to 10713
  157.4091  130.7375  149.6825 LP  0  0  0  0  0  0  0  0  0  0  0  0  # atno 17371 bound_to 10713
  139.9078  134.8410  156.1639 LP  0  0  0  0  0  0  0  0  0  0  0  0  # atno 17394 bound_to 11000
  141.0603  133.6845  156.1940 LP  0  0  0  0  0  0  0  0  0  0  0  0  # atno 17395 bound_to 11000

$$$$
