AV-unprocessed.smi:2588|AV-procd|sdf|10148|dock8
  -GOLD-   2272014163D 1   1.00000     0.00000
 Structure written by MMmdl.
 40 41  0  0  0  0  0  0  0  0  2 V2000
  152.4852  143.2213  161.8150 C   0  0  0  0  0  0  0  0  0  0  0  0
  152.4486  143.7598  160.3689 C   0  0  0  0  0  0  0  0  0  0  0  0
  151.6700  145.0929  160.3673 C   0  0  0  0  0  0  0  0  0  0  0  0
  151.8893  142.7577  159.4022 N   0  3  2  0  0  0  0  0  0  0  0  0
  152.5825  141.4367  159.4626 C   0  0  0  0  0  0  0  0  0  0  0  0
  151.9308  140.3946  158.5384 C   0  0  0  0  0  0  0  0  0  0  0  0
  151.8927  140.8870  157.0875 C   0  0  1  0  0  0  0  0  0  0  0  0
  151.2205  139.9043  156.2430 N   0  0  0  0  0  0  0  0  0  0  0  0
  151.7678  139.3001  155.1769 C   0  0  0  0  0  0  0  0  0  0  0  0
  152.9108  139.5369  154.7832 O   0  0  0  0  0  0  0  0  0  0  0  0
  150.8718  138.2949  154.4403 C   0  0  0  0  0  0  0  0  0  0  0  0
  150.5657  137.1026  155.2325 N   0  0  0  0  0  0  0  0  0  0  0  0
  150.9715  135.8939  154.7588 N   0  0  0  0  0  0  0  0  0  0  0  0
  150.6394  134.9434  155.5518 C   0  0  0  0  0  0  0  0  0  0  0  0
  149.7637  135.4168  157.0135 S   0  0  0  0  0  0  0  0  0  0  0  0
  149.8810  137.1049  156.4448 C   0  0  0  0  0  0  0  0  0  0  0  0
  149.4180  138.0632  157.0607 O   0  0  0  0  0  0  0  0  0  0  0  0
  151.1678  142.2399  157.0472 C   0  0  0  0  0  0  0  0  0  0  0  0
  151.8259  143.2555  157.9959 C   0  0  0  0  0  0  0  0  0  0  0  0
  152.7749  144.0033  162.5176 H   0  0  0  0  0  0  0  0  0  0  0  0
  153.2137  142.4221  161.9448 H   0  0  0  0  0  0  0  0  0  0  0  0
  151.5083  142.8488  162.1256 H   0  0  0  0  0  0  0  0  0  0  0  0
  153.4747  143.9787  160.0688 H   0  0  0  0  0  0  0  0  0  0  0  0
  152.0146  145.7502  161.1663 H   0  0  0  0  0  0  0  0  0  0  0  0
  150.6015  144.9318  160.5148 H   0  0  0  0  0  0  0  0  0  0  0  0
  151.8091  145.6518  159.4423 H   0  0  0  0  0  0  0  0  0  0  0  0
  153.6339  141.5647  159.1998 H   0  0  0  0  0  0  0  0  0  0  0  0
  152.5552  141.0272  160.4705 H   0  0  0  0  0  0  0  0  0  0  0  0
  152.4829  139.4558  158.5991 H   0  0  0  0  0  0  0  0  0  0  0  0
  150.9192  140.1817  158.8879 H   0  0  0  0  0  0  0  0  0  0  0  0
  152.9193  141.0159  156.7380 H   0  0  0  0  0  0  0  0  0  0  0  0
  150.2743  139.6554  156.4930 H   0  0  0  0  0  0  0  0  0  0  0  0
  149.9359  138.7809  154.1594 H   0  0  0  0  0  0  0  0  0  0  0  0
  151.3629  138.0113  153.5081 H   0  0  0  0  0  0  0  0  0  0  0  0
  150.8457  133.8831  155.4072 H   0  0  0  0  0  0  0  0  0  0  0  0
  151.1702  142.6388  156.0320 H   0  0  0  0  0  0  0  0  0  0  0  0
  150.1205  142.1092  157.3241 H   0  0  0  0  0  0  0  0  0  0  0  0
  151.2380  144.1692  157.9316 H   0  0  0  0  0  0  0  0  0  0  0  0
  152.8320  143.4965  157.6491 H   0  0  0  0  0  0  0  0  0  0  0  0
  150.9340  142.5930  159.6862 H   0  0  0  0  0  0  0  0  0  0  0  0
  1  2  1  0  0  0  0
  1 20  1  0  0  0  0
  1 21  1  0  0  0  0
  1 22  1  0  0  0  0
  2  3  1  0  0  0  0
  2  4  1  0  0  0  0
  2 23  1  0  0  0  0
  3 24  1  0  0  0  0
  3 25  1  0  0  0  0
  3 26  1  0  0  0  0
  4 19  1  0  0  0  0
  4  5  1  0  0  0  0
  4 40  1  0  0  0  0
  5  6  1  0  0  0  0
  5 27  1  0  0  0  0
  5 28  1  0  0  0  0
  6  7  1  0  0  0  0
  6 29  1  0  0  0  0
  6 30  1  0  0  0  0
  7  8  1  0  0  0  0
  7 18  1  0  0  0  0
  7 31  1  0  0  0  0
  8  9  1  0  0  0  0
  8 32  1  0  0  0  0
  9 10  2  0  0  0  0
  9 11  1  0  0  0  0
 11 12  1  0  0  0  0
 11 33  1  0  0  0  0
 11 34  1  0  0  0  0
 12 16  1  0  0  0  0
 12 13  1  0  0  0  0
 13 14  2  0  0  0  0
 14 15  1  0  0  0  0
 14 35  1  0  0  0  0
 15 16  1  0  0  0  0
 16 17  2  0  0  0  0
 18 19  1  0  0  0  0
 18 36  1  0  0  0  0
 18 37  1  0  0  0  0
 19 38  1  0  0  0  0
 19 39  1  0  0  0  0
M  CHG  1   4   1
M  END
> <s_m_source_file>
AV-unprocessed.smi

> <i_m_source_file_index>
2588

> <i_lp_mmshare_version>
43012

> <i_f3d_flags>
0

> <s_epik_input>
W0NIM11bQ0hdKFtDSDNdKU4xW0NIMl1bQ0gyXVtDSF0oW0NIMl1bQ0gyXTEpW05IXUMoPU8pW0NIMl1uMm5bY0hdc2MyPU8=

> <s_epik_cmdline>
J2VwaWtfcHl0aG9uJywgJy1waCcsICc3LjAnLCAnLXRuJywgJzgnLCAnLW1hJywgJzIwMCcsICctbWV0YWxfYmluZGluZycsICctaW1hZScsICc8aW5maWxlLm1hZT4nLCAnLW9tYWUnLCAnPG91dGZpbGUubWFlPic=

> <r_lp_tautomer_probability>
1

> <r_epik_Ionization_Penalty>
0.00923155

> <r_epik_Ionization_Penalty_Charging>
0.00923117

> <r_epik_Ionization_Penalty_Neutral>
3.88423e-07

> <r_epik_State_Penalty>
0.0069994

> <r_epik_Charging_Adjusted_Penalty>
0.0162306

> <i_epik_Tot_Q>
1

> <i_epik_Tot_abs_Q>
1

> <r_epik_Metal_State_Penalty>
0.0069994

> <b_epik_Metal_Only>
0

> <s_lp_Force_Field>
OPLS_2005

> <r_lp_Energy>
22.17

> <b_lp_Chiralities_Consistent>
1

> <s_lp_Variant>
AV-unprocessed.smi:2588-1

> <Gold.Version>
5.8.1

> <Gold.Id.Protein>
6NUR|6NUR_protein|mol2

> <Gold.PLP.Fitness>
44.2230

> <Gold.PLP.PLP>
-38.3159

> <Gold.PLP.part.hbond>
-3.0000

> <Gold.PLP.part.metal>
0.0000

> <Gold.PLP.part.buried>
-6.5386

> <Gold.PLP.part.nonpolar>
-28.4534

> <Gold.PLP.part.repulsive>
0.3748

> <Gold.PLP.ligand.clash>
0.0000

> <Gold.PLP.ligand.torsion>
0.0657

> <Gold.PLP.Chemscore.Hbond>
2.0000

> <Gold.PLP.Chemscore.CHOScore>
0.0000

> <Gold.PLP.Chemscore.Metal>
0.0000

> <Gold.Chemscore.Hbonds>
donor molecule, donor type, donor heavy atom, donor atom, acceptor molecule, acceptor atom, score
      P1  H  7997  8009       L1    10  0.98
      P1  H 10752 10763       L1    13  1.00

> <Gold.PLP.Chemscore.Internal.Correction>
0.0386

> <Gold.Rescore>
     Score         DG    S(hbond)    S(metal)    S(lipo)     H(rot)  DE(clash)    DE(int)     intcor
     16.66     -18.05       1.96        0.00      92.61       1.88       0.02       1.36       ----

> <Gold.Chemscore.Fitness>
16.6630

> <Gold.Chemscore.DG>
-18.0463

> <Gold.Chemscore.ZeroCoef>
-5.4800

> <Gold.Chemscore.Hbond>
1.9558

> <Gold.Chemscore.Metal>
0.0000

> <Gold.Chemscore.Lipo>
92.6095

> <Gold.Chemscore.Internal_Hbond>
0.0000

> <Gold.Chemscore.DEClash>
0.0183

> <Gold.Chemscore.DEInternal>
1.3650

> <Gold.Chemscore.Rot>
1.8756

> <Gold.Chemscore.Internal.Correction>
   9.000000E+99

> <Gold.Chemscore.Hbonds>
donor molecule, donor type, donor heavy atom, donor atom, acceptor molecule, acceptor atom, score
      P1  H  7997  8009       L1    10  0.91
      P1  H 10752 10763       L1    13  0.37

> <Gold.Chemscore.Hbond.Weighted>
-6.5325

> <Gold.Chemscore.Metal.Weighted>
-0.0000

> <Gold.Chemscore.Lipo.Weighted>
-10.8353

> <Gold.Chemscore.Internal_Hbond.Weighted>
0.0000

> <Gold.Chemscore.DEClash.Weighted>
0.0183

> <Gold.Chemscore.DEInternal.Weighted>
1.3650

> <Gold.Chemscore.Rot.Weighted>
4.8015

> <Gold.Chemscore.Internal.Correction.Weighted>
   9.000000E+99

> <Gold.Protein.RotatedTorsions>
[ 6907 6896 6895 6894 ] final  -45.89 input  -60.11 | X-H torsion
[ 7974 7965 7964 7962 ] final -117.52 input  175.53 | X-H torsion
[ 8008 7997 7996 7995 ] final -146.50 input   59.86 | X-H torsion
[ 10167 10162 10161 10158 ] final -156.77 input  -65.29 | X-H torsion
[ 10718 10713 10712 10709 ] final  150.88 input   66.30 | X-H torsion
[ 10763 10752 10751 10750 ] final   53.01 input  -60.55 | X-H torsion
[ 11005 11000 10999 10996 ] final   81.61 input  -57.11 | X-H torsion

> <Gold.Protein.ActiveResidues>
 VAL166  LYS551  ARG553  GLY616  TRP617  ASP618  TYR619  PRO620  LYS621  CYS622 
 ASP623  PHE694  ASN695  SER759  ASP760  ASP761  ALA762  ILE779  LEU786  VAL792 
 PHE793  MET794  SER795  GLU796  ALA797  LYS798  CYS799  TRP800  GLU811  SER814 

> <Gold.Protein.RotatedAtoms>
  150.9171  134.8588  159.7463 H   0  0  0  0  0  0  0  0  0  0  0  0  # atno 6907 bound_to 6896
  152.4974  134.4273  159.9510 H   0  0  0  0  0  0  0  0  0  0  0  0  # atno 6908 bound_to 6896
  151.4310  133.3630  159.2804 H   0  0  0  0  0  0  0  0  0  0  0  0  # atno 6909 bound_to 6896
  145.0843  140.8447  143.4020 H   0  0  0  0  0  0  0  0  0  0  0  0  # atno 7974 bound_to 7965
  155.5603  140.0625  157.2830 H   0  0  0  0  0  0  0  0  0  0  0  0  # atno 8008 bound_to 7997
  154.4392  140.1887  156.0821 H   0  0  0  0  0  0  0  0  0  0  0  0  # atno 8009 bound_to 7997
  156.0451  140.3291  155.7291 H   0  0  0  0  0  0  0  0  0  0  0  0  # atno 8010 bound_to 7997
  139.6824  143.9559  152.2343 H   0  0  0  0  0  0  0  0  0  0  0  0  # atno 10167 bound_to 10162
  157.2778  131.0829  151.1554 H   0  0  0  0  0  0  0  0  0  0  0  0  # atno 10718 bound_to 10713
  152.9792  135.5793  154.4671 H   0  0  0  0  0  0  0  0  0  0  0  0  # atno 10763 bound_to 10752
  154.4239  135.2772  155.1959 H   0  0  0  0  0  0  0  0  0  0  0  0  # atno 10764 bound_to 10752
  154.3696  135.6170  153.5787 H   0  0  0  0  0  0  0  0  0  0  0  0  # atno 10765 bound_to 10752
  139.9092  134.8010  156.2065 H   0  0  0  0  0  0  0  0  0  0  0  0  # atno 11005 bound_to 11000
  145.1141  139.2737  143.5622 LP  0  0  0  0  0  0  0  0  0  0  0  0  # atno 17320 bound_to 7965
  146.3531  140.0745  142.8621 LP  0  0  0  0  0  0  0  0  0  0  0  0  # atno 17321 bound_to 7965
  139.9353  144.6716  150.8321 LP  0  0  0  0  0  0  0  0  0  0  0  0  # atno 17342 bound_to 10162
  140.7656  143.3281  151.2471 LP  0  0  0  0  0  0  0  0  0  0  0  0  # atno 17343 bound_to 10162
  157.3000  130.6838  149.6159 LP  0  0  0  0  0  0  0  0  0  0  0  0  # atno 17370 bound_to 10713
  155.9664  130.4395  150.5261 LP  0  0  0  0  0  0  0  0  0  0  0  0  # atno 17371 bound_to 10713
  141.0492  133.6897  156.1740 LP  0  0  0  0  0  0  0  0  0  0  0  0  # atno 17394 bound_to 11000
  140.6836  134.4741  157.5589 LP  0  0  0  0  0  0  0  0  0  0  0  0  # atno 17395 bound_to 11000

$$$$
