AV-unprocessed.smi:2944|AV-procd|sdf|11273|dock1
  -GOLD-   2272016163D 1   1.00000     0.00000
 Structure written by MMmdl.
 44 46  0  0  0  0  0  0  0  0  1 V2000
  150.0747  139.2039  154.6233 C   0  0  0  0  0  0  0  0  0  0  0  0
  151.2730  139.9266  154.8425 O   0  0  0  0  0  0  0  0  0  0  0  0
  151.2571  140.6502  156.0622 C   0  0  0  0  0  0  0  0  0  0  0  0
  151.2447  139.6694  157.2433 C   0  0  0  0  0  0  0  0  0  0  0  0
  151.8564  140.2407  158.4340 N   0  0  0  0  0  0  0  0  0  0  0  0
  152.5225  139.5900  159.4200 C   0  0  0  0  0  0  0  0  0  0  0  0
  152.7545  137.8338  159.3659 S   0  0  0  0  0  0  0  0  0  0  0  0
  153.1625  137.4899  161.1105 C   0  0  1  0  0  0  0  0  0  0  0  0
  153.4402  135.9895  161.2879 C   0  0  0  0  0  0  0  0  0  0  0  0
  154.3776  138.3121  161.5986 C   0  0  0  0  0  0  0  0  0  0  0  0
  155.0109  138.9415  160.7482 O   0  0  0  0  0  0  0  0  0  0  0  0
  154.7197  138.3890  162.9136 N   0  0  0  0  0  0  0  0  0  0  0  0
  154.0929  137.5064  163.8985 C   0  0  0  0  0  0  0  0  0  0  0  0
  154.7844  137.8512  165.2118 C   0  0  0  0  0  0  0  0  0  0  0  0
  155.6538  138.9306  164.8158 N   0  0  0  0  0  0  0  0  0  0  0  0
  155.5854  139.2382  163.5183 C   0  0  0  0  0  0  0  0  0  0  0  0
  156.2187  140.1668  163.0183 O   0  0  0  0  0  0  0  0  0  0  0  0
  152.9832  140.3652  160.4042 N   0  0  0  0  0  0  0  0  0  0  0  0
  152.5700  141.6264  160.0269 C   0  0  0  0  0  0  0  0  0  0  0  0
  152.7458  142.8779  160.6595 C   0  0  0  0  0  0  0  0  0  0  0  0
  152.2219  144.0508  160.0774 C   0  0  0  0  0  0  0  0  0  0  0  0
  151.5162  143.9889  158.8584 C   0  0  0  0  0  0  0  0  0  0  0  0
  151.3312  142.7517  158.2116 C   0  0  0  0  0  0  0  0  0  0  0  0
  151.8580  141.5841  158.7962 C   0  0  0  0  0  0  0  0  0  0  0  0
  150.1445  138.6565  153.6833 H   0  0  0  0  0  0  0  0  0  0  0  0
  149.2168  139.8743  154.5598 H   0  0  0  0  0  0  0  0  0  0  0  0
  149.8972  138.4819  155.4215 H   0  0  0  0  0  0  0  0  0  0  0  0
  152.1325  141.2988  156.1234 H   0  0  0  0  0  0  0  0  0  0  0  0
  150.3750  141.2906  156.1043 H   0  0  0  0  0  0  0  0  0  0  0  0
  150.2250  139.3615  157.4754 H   0  0  0  0  0  0  0  0  0  0  0  0
  151.7829  138.7598  156.9756 H   0  0  0  0  0  0  0  0  0  0  0  0
  152.2554  137.7404  161.6545 H   0  0  0  0  0  0  0  0  0  0  0  0
  153.6449  135.7434  162.3306 H   0  0  0  0  0  0  0  0  0  0  0  0
  154.2976  135.6677  160.6952 H   0  0  0  0  0  0  0  0  0  0  0  0
  152.5807  135.3958  160.9760 H   0  0  0  0  0  0  0  0  0  0  0  0
  153.0199  137.6982  163.9590 H   0  0  0  0  0  0  0  0  0  0  0  0
  154.2421  136.4568  163.6381 H   0  0  0  0  0  0  0  0  0  0  0  0
  154.0795  138.1795  165.9762 H   0  0  0  0  0  0  0  0  0  0  0  0
  155.3684  137.0154  165.5993 H   0  0  0  0  0  0  0  0  0  0  0  0
  156.2311  139.4282  165.4782 H   0  0  0  0  0  0  0  0  0  0  0  0
  153.2836  142.9352  161.5943 H   0  0  0  0  0  0  0  0  0  0  0  0
  152.3606  145.0024  160.5692 H   0  0  0  0  0  0  0  0  0  0  0  0
  151.1160  144.8915  158.4199 H   0  0  0  0  0  0  0  0  0  0  0  0
  150.7883  142.7012  157.2796 H   0  0  0  0  0  0  0  0  0  0  0  0
  1  2  1  0  0  0  0
  1 25  1  0  0  0  0
  1 26  1  0  0  0  0
  1 27  1  0  0  0  0
  2  3  1  0  0  0  0
  3  4  1  0  0  0  0
  3 28  1  0  0  0  0
  3 29  1  0  0  0  0
  4  5  1  0  0  0  0
  4 30  1  0  0  0  0
  4 31  1  0  0  0  0
  5 24  1  0  0  0  0
  5  6  1  0  0  0  0
  6  7  1  0  0  0  0
  6 18  2  0  0  0  0
  7  8  1  0  0  0  0
  8  9  1  0  0  0  0
  8 10  1  0  0  0  0
  8 32  1  0  0  0  0
  9 33  1  0  0  0  0
  9 34  1  0  0  0  0
  9 35  1  0  0  0  0
 10 11  2  0  0  0  0
 10 12  1  0  0  0  0
 12 16  1  0  0  0  0
 12 13  1  0  0  0  0
 13 14  1  0  0  0  0
 13 36  1  0  0  0  0
 13 37  1  0  0  0  0
 14 15  1  0  0  0  0
 14 38  1  0  0  0  0
 14 39  1  0  0  0  0
 15 16  1  0  0  0  0
 15 40  1  0  0  0  0
 16 17  2  0  0  0  0
 18 19  1  0  0  0  0
 19 24  2  0  0  0  0
 19 20  1  0  0  0  0
 20 21  2  0  0  0  0
 20 41  1  0  0  0  0
 21 22  1  0  0  0  0
 21 42  1  0  0  0  0
 22 23  2  0  0  0  0
 22 43  1  0  0  0  0
 23 24  1  0  0  0  0
 23 44  1  0  0  0  0
M  END
> <s_m_source_file>
AV-unprocessed.smi

> <i_m_source_file_index>
2944

> <i_lp_mmshare_version>
43012

> <i_f3d_flags>
0

> <s_epik_input>
W2NIXTFbY0hdW2NIXVtjSF1jKGMxMiluKFtDSDJdW0NIMl1PW0NIM10pYyhuMilTW0NASF0oW0NIM10pQyg9TylOM1tDSDJdW0NIMl1bTkhdQzM9Tw==

> <s_epik_cmdline>
J2VwaWtfcHl0aG9uJywgJy1waCcsICc3LjAnLCAnLXRuJywgJzgnLCAnLW1hJywgJzIwMCcsICctbWV0YWxfYmluZGluZycsICctaW1hZScsICc8aW5maWxlLm1hZT4nLCAnLW9tYWUnLCAnPG91dGZpbGUubWFlPic=

> <r_lp_tautomer_probability>
0.9999

> <r_epik_Ionization_Penalty>
0.0250226

> <r_epik_Ionization_Penalty_Charging>
0

> <r_epik_Ionization_Penalty_Neutral>
0.0250226

> <r_epik_State_Penalty>
0.0203222

> <r_epik_Charging_Adjusted_Penalty>
0.0203222

> <i_epik_Tot_Q>
0

> <i_epik_Tot_abs_Q>
0

> <r_epik_Metal_State_Penalty>
0.0194901

> <b_epik_Metal_Only>
0

> <s_lp_Force_Field>
OPLS_2005

> <r_lp_Energy>
41.7508

> <b_lp_Chiralities_Consistent>
1

> <s_lp_Variant>
AV-unprocessed.smi:2944-2

> <Gold.Version>
5.8.1

> <Gold.Id.Protein>
6NUR|6NUR_protein|mol2

> <Gold.PLP.Fitness>
47.6532

> <Gold.PLP.PLP>
-46.3031

> <Gold.PLP.part.hbond>
-1.9714

> <Gold.PLP.part.metal>
0.0000

> <Gold.PLP.part.buried>
-6.6476

> <Gold.PLP.part.nonpolar>
-38.0438

> <Gold.PLP.part.repulsive>
0.0890

> <Gold.PLP.ligand.clash>
0.0000

> <Gold.PLP.ligand.torsion>
1.0204

> <Gold.PLP.Chemscore.Hbond>
1.0000

> <Gold.PLP.Chemscore.CHOScore>
0.0000

> <Gold.PLP.Chemscore.Metal>
0.0000

> <Gold.Chemscore.Hbonds>
donor molecule, donor type, donor heavy atom, donor atom, acceptor molecule, acceptor atom, score
      P1  H  7989  7998       L1     2  1.00

> <Gold.PLP.Chemscore.Internal.Correction>
0.3909

> <Gold.Rescore>
     Score         DG    S(hbond)    S(metal)    S(lipo)     H(rot)  DE(clash)    DE(int)     intcor
     12.30     -15.80       0.95        0.00     110.04       2.24       0.09       3.41       ----

> <Gold.Chemscore.Fitness>
12.2958

> <Gold.Chemscore.DG>
-15.7976

> <Gold.Chemscore.ZeroCoef>
-5.4800

> <Gold.Chemscore.Hbond>
0.9481

> <Gold.Chemscore.Metal>
0.0000

> <Gold.Chemscore.Lipo>
110.0364

> <Gold.Chemscore.Internal_Hbond>
0.0000

> <Gold.Chemscore.DEClash>
0.0941

> <Gold.Chemscore.DEInternal>
3.4077

> <Gold.Chemscore.Rot>
2.2357

> <Gold.Chemscore.Internal.Correction>
   9.000000E+99

> <Gold.Chemscore.Hbonds>
donor molecule, donor type, donor heavy atom, donor atom, acceptor molecule, acceptor atom, score
      P1  H  7989  7998       L1     2  0.69

> <Gold.Chemscore.Hbond.Weighted>
-3.1668

> <Gold.Chemscore.Metal.Weighted>
-0.0000

> <Gold.Chemscore.Lipo.Weighted>
-12.8743

> <Gold.Chemscore.Internal_Hbond.Weighted>
0.0000

> <Gold.Chemscore.DEClash.Weighted>
0.0941

> <Gold.Chemscore.DEInternal.Weighted>
3.4077

> <Gold.Chemscore.Rot.Weighted>
5.7234

> <Gold.Chemscore.Internal.Correction.Weighted>
   9.000000E+99

> <Gold.Protein.RotatedTorsions>
[ 6907 6896 6895 6894 ] final   88.52 input  -60.11 | X-H torsion
[ 7974 7965 7964 7962 ] final -130.85 input  175.53 | X-H torsion
[ 8008 7997 7996 7995 ] final  -42.20 input   59.86 | X-H torsion
[ 10167 10162 10161 10158 ] final   90.26 input  -65.29 | X-H torsion
[ 10718 10713 10712 10709 ] final  174.53 input   66.30 | X-H torsion
[ 10763 10752 10751 10750 ] final   38.17 input  -60.55 | X-H torsion
[ 11005 11000 10999 10996 ] final   11.35 input  -57.11 | X-H torsion

> <Gold.Protein.ActiveResidues>
 VAL166  LYS551  ARG553  GLY616  TRP617  ASP618  TYR619  PRO620  LYS621  CYS622 
 ASP623  PHE694  ASN695  SER759  ASP760  ASP761  ALA762  ILE779  LEU786  VAL792 
 PHE793  MET794  SER795  GLU796  ALA797  LYS798  CYS799  TRP800  GLU811  SER814 

> <Gold.Protein.RotatedAtoms>
  152.5426  134.2109  159.8749 H   0  0  0  0  0  0  0  0  0  0  0  0  # atno 6907 bound_to 6896
  151.2092  133.4559  159.2605 H   0  0  0  0  0  0  0  0  0  0  0  0  # atno 6908 bound_to 6896
  151.0914  134.9931  159.8460 H   0  0  0  0  0  0  0  0  0  0  0  0  # atno 6909 bound_to 6896
  144.9435  140.7265  143.4832 H   0  0  0  0  0  0  0  0  0  0  0  0  # atno 7974 bound_to 7965
  154.4000  140.1479  156.3316 H   0  0  0  0  0  0  0  0  0  0  0  0  # atno 8008 bound_to 7997
  155.8438  140.3461  155.5628 H   0  0  0  0  0  0  0  0  0  0  0  0  # atno 8009 bound_to 7997
  155.8058  140.0877  157.1922 H   0  0  0  0  0  0  0  0  0  0  0  0  # atno 8010 bound_to 7997
  139.8490  144.6603  150.9192 H   0  0  0  0  0  0  0  0  0  0  0  0  # atno 10167 bound_to 10162
  156.9483  131.0023  151.2954 H   0  0  0  0  0  0  0  0  0  0  0  0  # atno 10718 bound_to 10713
  153.0010  135.6257  154.2262 H   0  0  0  0  0  0  0  0  0  0  0  0  # atno 10763 bound_to 10752
  154.2005  135.2804  155.2994 H   0  0  0  0  0  0  0  0  0  0  0  0  # atno 10764 bound_to 10752
  154.5688  135.5683  153.7134 H   0  0  0  0  0  0  0  0  0  0  0  0  # atno 10765 bound_to 10752
  140.5042  134.0716  155.7801 H   0  0  0  0  0  0  0  0  0  0  0  0  # atno 11005 bound_to 11000
  145.2954  139.1869  143.4718 LP  0  0  0  0  0  0  0  0  0  0  0  0  # atno 17320 bound_to 7965
  146.3295  140.2937  142.8616 LP  0  0  0  0  0  0  0  0  0  0  0  0  # atno 17321 bound_to 7965
  140.7789  143.3844  151.1420 LP  0  0  0  0  0  0  0  0  0  0  0  0  # atno 17342 bound_to 10162
  139.7484  143.8817  152.3070 LP  0  0  0  0  0  0  0  0  0  0  0  0  # atno 17343 bound_to 10162
  157.5739  130.8329  149.8429 LP  0  0  0  0  0  0  0  0  0  0  0  0  # atno 17370 bound_to 10713
  156.0374  130.3748  150.1525 LP  0  0  0  0  0  0  0  0  0  0  0  0  # atno 17371 bound_to 10713
  141.1420  133.9122  157.2305 LP  0  0  0  0  0  0  0  0  0  0  0  0  # atno 17394 bound_to 11000
  139.9696  135.0132  156.9477 LP  0  0  0  0  0  0  0  0  0  0  0  0  # atno 17395 bound_to 11000

$$$$
