AV-unprocessed.smi:1199|AV-procd|sdf|5017|dock7
  -GOLD-   22720 4 33D 1   1.00000     0.00000
 Structure written by MMmdl.
 41 42  0  0  0  0  0  0  0  0  3 V2000
  147.2318  141.6382  155.8836 C   0  0  0  0  0  0  0  0  0  0  0  0
  148.7252  141.2835  155.8299 C   0  0  1  0  0  0  0  0  0  0  0  0
  149.2334  141.1214  154.3800 C   0  0  0  0  0  0  0  0  0  0  0  0
  150.1315  139.9510  154.1844 N   0  3  0  0  0  0  0  0  0  0  0  0
  151.4760  140.1148  154.7897 C   0  0  0  0  0  0  0  0  0  0  0  0
  152.3453  138.8797  154.4994 C   0  0  0  0  0  0  0  0  0  0  0  0
  151.6984  137.7151  154.9970 O   0  0  0  0  0  0  0  0  0  0  0  0
  150.4442  137.4939  154.3643 C   0  0  0  0  0  0  0  0  0  0  0  0
  149.5091  138.6838  154.6354 C   0  0  0  0  0  0  0  0  0  0  0  0
  149.5154  142.2943  156.5233 N   0  0  0  0  0  0  0  0  0  0  0  0
  150.6670  142.0899  157.1824 C   0  0  0  0  0  0  0  0  0  0  0  0
  151.1329  140.9692  157.3849 O   0  0  0  0  0  0  0  0  0  0  0  0
  151.4427  143.3303  157.6566 C   0  0  0  0  0  0  0  0  0  0  0  0
  151.9146  143.2545  159.0500 N   0  0  0  0  0  0  0  0  0  0  0  0
  152.8602  142.1667  159.2905 N   0  5  0  0  0  0  0  0  0  0  0  0
  153.3336  141.9671  160.5486 C   0  0  0  0  0  0  0  0  0  0  0  0
  154.0969  141.0477  160.8333 O   0  0  0  0  0  0  0  0  0  0  0  0
  152.9244  142.8961  161.5885 C   0  0  0  0  0  0  0  0  0  0  0  0
  152.0889  143.9207  161.3272 C   0  0  0  0  0  0  0  0  0  0  0  0
  151.5357  144.1571  159.9992 C   0  0  0  0  0  0  0  0  0  0  0  0
  150.7875  145.1015  159.7494 O   0  0  0  0  0  0  0  0  0  0  0  0
  146.6316  140.8827  155.3761 H   0  0  0  0  0  0  0  0  0  0  0  0
  147.0329  142.5980  155.4054 H   0  0  0  0  0  0  0  0  0  0  0  0
  146.8784  141.7006  156.9135 H   0  0  0  0  0  0  0  0  0  0  0  0
  148.8574  140.3269  156.3381 H   0  0  0  0  0  0  0  0  0  0  0  0
  148.3933  141.0664  153.6862 H   0  0  0  0  0  0  0  0  0  0  0  0
  149.7936  142.0188  154.1127 H   0  0  0  0  0  0  0  0  0  0  0  0
  151.9695  140.9986  154.3864 H   0  0  0  0  0  0  0  0  0  0  0  0
  151.3798  140.2623  155.8662 H   0  0  0  0  0  0  0  0  0  0  0  0
  152.5377  138.7780  153.4304 H   0  0  0  0  0  0  0  0  0  0  0  0
  153.3147  138.9803  154.9877 H   0  0  0  0  0  0  0  0  0  0  0  0
  150.5813  137.3438  153.2940 H   0  0  0  0  0  0  0  0  0  0  0  0
  150.0073  136.5764  154.7588 H   0  0  0  0  0  0  0  0  0  0  0  0
  149.2852  138.7463  155.7016 H   0  0  0  0  0  0  0  0  0  0  0  0
  148.5627  138.5298  154.1161 H   0  0  0  0  0  0  0  0  0  0  0  0
  149.2114  143.2527  156.4279 H   0  0  0  0  0  0  0  0  0  0  0  0
  152.2751  143.5024  156.9727 H   0  0  0  0  0  0  0  0  0  0  0  0
  150.7935  144.2002  157.5426 H   0  0  0  0  0  0  0  0  0  0  0  0
  153.3011  142.7639  162.5920 H   0  0  0  0  0  0  0  0  0  0  0  0
  151.8141  144.5889  162.1297 H   0  0  0  0  0  0  0  0  0  0  0  0
  150.2759  139.8604  153.1878 H   0  0  0  0  0  0  0  0  0  0  0  0
  1  2  1  0  0  0  0
  1 22  1  0  0  0  0
  1 23  1  0  0  0  0
  1 24  1  0  0  0  0
  2  3  1  0  0  0  0
  2 10  1  0  0  0  0
  2 25  1  0  0  0  0
  3  4  1  0  0  0  0
  3 26  1  0  0  0  0
  3 27  1  0  0  0  0
  4  9  1  0  0  0  0
  4  5  1  0  0  0  0
  4 41  1  0  0  0  0
  5  6  1  0  0  0  0
  5 28  1  0  0  0  0
  5 29  1  0  0  0  0
  6  7  1  0  0  0  0
  6 30  1  0  0  0  0
  6 31  1  0  0  0  0
  7  8  1  0  0  0  0
  8  9  1  0  0  0  0
  8 32  1  0  0  0  0
  8 33  1  0  0  0  0
  9 34  1  0  0  0  0
  9 35  1  0  0  0  0
 10 11  1  0  0  0  0
 10 36  1  0  0  0  0
 11 12  2  0  0  0  0
 11 13  1  0  0  0  0
 13 37  1  0  0  0  0
 13 38  1  0  0  0  0
 13 14  1  0  0  0  0
 14 15  1  0  0  0  0
 14 20  1  0  0  0  0
 15 16  1  0  0  0  0
 16 17  2  0  0  0  0
 16 18  1  0  0  0  0
 18 39  1  0  0  0  0
 18 19  2  0  0  0  0
 19 40  1  0  0  0  0
 19 20  1  0  0  0  0
 20 21  2  0  0  0  0
M  CHG  1   4   1
M  CHG  1  15  -1
M  END
> <s_m_source_file>
AV-unprocessed.smi

> <i_m_source_file_index>
1199

> <i_lp_mmshare_version>
43012

> <i_f3d_flags>
0

> <s_epik_input>
W0NIMl0xW0NIMl1PW0NIMl1bQ0gyXU4xW0NIMl1bQ0BASF0oW0NIM10pW05IXUMoPU8pW0NIMl1uMltuSF1jKD1PKVtjSF1bY0hdYzI9Tw==

> <s_epik_cmdline>
J2VwaWtfcHl0aG9uJywgJy1waCcsICc3LjAnLCAnLXRuJywgJzgnLCAnLW1hJywgJzIwMCcsICctbWV0YWxfYmluZGluZycsICctaW1hZScsICc8aW5maWxlLm1hZT4nLCAnLW9tYWUnLCAnPG91dGZpbGUubWFlPic=

> <r_lp_tautomer_probability>
1

> <r_epik_Ionization_Penalty>
0.741876

> <r_epik_Ionization_Penalty_Charging>
0.741876

> <r_epik_Ionization_Penalty_Neutral>
9.12373e-08

> <r_epik_State_Penalty>
0.692284

> <r_epik_Charging_Adjusted_Penalty>
1.43416

> <i_epik_Tot_Q>
0

> <i_epik_Tot_abs_Q>
2

> <r_epik_Metal_State_Penalty>
0.692284

> <b_epik_Metal_Only>
0

> <s_lp_Force_Field>
OPLS_2005

> <r_lp_Energy>
27.3091

> <b_lp_Chiralities_Consistent>
1

> <s_lp_Variant>
AV-unprocessed.smi:1199-4

> <Gold.Version>
5.8.1

> <Gold.Id.Protein>
6NUR|6NUR_protein|mol2

> <Gold.PLP.Fitness>
43.9368

> <Gold.PLP.PLP>
-41.6933

> <Gold.PLP.part.hbond>
-1.5872

> <Gold.PLP.part.metal>
0.0000

> <Gold.PLP.part.buried>
-4.0614

> <Gold.PLP.part.nonpolar>
-37.6958

> <Gold.PLP.part.repulsive>
1.6679

> <Gold.PLP.ligand.clash>
0.0000

> <Gold.PLP.ligand.torsion>
1.1370

> <Gold.PLP.Chemscore.Hbond>
1.4875

> <Gold.PLP.Chemscore.CHOScore>
0.0000

> <Gold.PLP.Chemscore.Metal>
0.0000

> <Gold.Chemscore.Hbonds>
donor molecule, donor type, donor heavy atom, donor atom, acceptor molecule, acceptor atom, score
      L1  H     4    41       P1  7957  0.75
      L1  H    10    36       P1  8028  1.00

> <Gold.PLP.Chemscore.Internal.Correction>
0.0551

> <Gold.Rescore>
     Score         DG    S(hbond)    S(metal)    S(lipo)     H(rot)  DE(clash)    DE(int)     intcor
     11.40     -14.80       1.86        0.00      78.44       2.37       1.75       1.65       ----

> <Gold.Chemscore.Fitness>
11.3969

> <Gold.Chemscore.DG>
-14.8043

> <Gold.Chemscore.ZeroCoef>
-5.4800

> <Gold.Chemscore.Hbond>
1.8639

> <Gold.Chemscore.Metal>
0.0000

> <Gold.Chemscore.Lipo>
78.4437

> <Gold.Chemscore.Internal_Hbond>
0.0000

> <Gold.Chemscore.DEClash>
1.7537

> <Gold.Chemscore.DEInternal>
1.6537

> <Gold.Chemscore.Rot>
2.3747

> <Gold.Chemscore.Internal.Correction>
   9.000000E+99

> <Gold.Chemscore.Hbonds>
donor molecule, donor type, donor heavy atom, donor atom, acceptor molecule, acceptor atom, score
      L1  H     4    41       P1  7957  0.72
      L1  H    10    36       P1  8028  0.99
      P1  H 10752 10764       L1     7  0.01

> <Gold.Chemscore.Hbond.Weighted>
-6.2255

> <Gold.Chemscore.Metal.Weighted>
-0.0000

> <Gold.Chemscore.Lipo.Weighted>
-9.1779

> <Gold.Chemscore.Internal_Hbond.Weighted>
0.0000

> <Gold.Chemscore.DEClash.Weighted>
1.7537

> <Gold.Chemscore.DEInternal.Weighted>
1.6537

> <Gold.Chemscore.Rot.Weighted>
6.0791

> <Gold.Chemscore.Internal.Correction.Weighted>
   9.000000E+99

> <Gold.Protein.RotatedTorsions>
[ 6907 6896 6895 6894 ] final  -98.24 input  -60.11 | X-H torsion
[ 7974 7965 7964 7962 ] final   62.59 input  175.53 | X-H torsion
[ 8008 7997 7996 7995 ] final -108.06 input   59.86 | X-H torsion
[ 10167 10162 10161 10158 ] final  -96.96 input  -65.29 | X-H torsion
[ 10718 10713 10712 10709 ] final -129.95 input   66.30 | X-H torsion
[ 10763 10752 10751 10750 ] final  -67.18 input  -60.55 | X-H torsion
[ 11005 11000 10999 10996 ] final  -53.98 input  -57.11 | X-H torsion

> <Gold.Protein.ActiveResidues>
 VAL166  LYS551  ARG553  GLY616  TRP617  ASP618  TYR619  PRO620  LYS621  CYS622 
 ASP623  PHE694  ASN695  SER759  ASP760  ASP761  ALA762  ILE779  LEU786  VAL792 
 PHE793  MET794  SER795  GLU796  ALA797  LYS798  CYS799  TRP800  GLU811  SER814 

> <Gold.Protein.RotatedAtoms>
  150.7040  134.1225  159.4039 H   0  0  0  0  0  0  0  0  0  0  0  0  # atno 6907 bound_to 6896
  151.9211  135.0295  160.0531 H   0  0  0  0  0  0  0  0  0  0  0  0  # atno 6908 bound_to 6896
  152.2255  133.4982  159.5223 H   0  0  0  0  0  0  0  0  0  0  0  0  # atno 6909 bound_to 6896
  145.8716  139.3382  143.0759 H   0  0  0  0  0  0  0  0  0  0  0  0  # atno 7974 bound_to 7965
  154.9387  140.0403  157.2085 H   0  0  0  0  0  0  0  0  0  0  0  0  # atno 8008 bound_to 7997
  154.8090  140.2864  155.5845 H   0  0  0  0  0  0  0  0  0  0  0  0  # atno 8009 bound_to 7997
  156.2969  140.2540  156.2974 H   0  0  0  0  0  0  0  0  0  0  0  0  # atno 8010 bound_to 7997
  140.2884  143.3237  152.0371 H   0  0  0  0  0  0  0  0  0  0  0  0  # atno 10167 bound_to 10162
  156.2097  130.6910  151.0635 H   0  0  0  0  0  0  0  0  0  0  0  0  # atno 10718 bound_to 10713
  154.3706  135.6096  153.5738 H   0  0  0  0  0  0  0  0  0  0  0  0  # atno 10763 bound_to 10752
  152.9790  135.5837  154.4526 H   0  0  0  0  0  0  0  0  0  0  0  0  # atno 10764 bound_to 10752
  154.4279  135.2847  155.1910 H   0  0  0  0  0  0  0  0  0  0  0  0  # atno 10765 bound_to 10752
  141.1003  133.6619  156.4253 H   0  0  0  0  0  0  0  0  0  0  0  0  # atno 11005 bound_to 11000
  145.9130  140.9167  143.0444 LP  0  0  0  0  0  0  0  0  0  0  0  0  # atno 17320 bound_to 7965
  144.6726  140.1186  143.7451 LP  0  0  0  0  0  0  0  0  0  0  0  0  # atno 17321 bound_to 7965
  139.4944  144.6542  151.6608 LP  0  0  0  0  0  0  0  0  0  0  0  0  # atno 17342 bound_to 10162
  140.5753  144.0039  150.6238 LP  0  0  0  0  0  0  0  0  0  0  0  0  # atno 17343 bound_to 10162
  157.7031  131.0767  150.6754 LP  0  0  0  0  0  0  0  0  0  0  0  0  # atno 17370 bound_to 10713
  156.6814  130.4568  149.5627 LP  0  0  0  0  0  0  0  0  0  0  0  0  # atno 17371 bound_to 10713
  140.5038  134.6460  157.5258 LP  0  0  0  0  0  0  0  0  0  0  0  0  # atno 17394 bound_to 11000
  139.9853  134.7072  155.9786 LP  0  0  0  0  0  0  0  0  0  0  0  0  # atno 17395 bound_to 11000

$$$$
