AV-unprocessed.smi:2999|AV-procd|sdf|11428|dock1
  -GOLD-   2272016353D 1   1.00000     0.00000
 Structure written by MMmdl.
 37 39  0  0  0  0  0  0  0  0  3 V2000
  149.5435  136.3970  159.2539 O   0  0  0  0  0  0  0  0  0  0  0  0
  148.5435  137.0773  159.4935 C   0  0  0  0  0  0  0  0  0  0  0  0
  147.9479  137.7573  158.5066 N   0  0  0  0  0  0  0  0  0  0  0  0
  148.3875  137.7823  157.1174 C   0  0  0  0  0  0  0  0  0  0  0  0
  148.7770  139.2041  156.6864 C   0  0  1  0  0  0  0  0  0  0  0  0
  149.8721  139.8254  157.5797 C   0  0  0  0  0  0  0  0  0  0  0  0
  150.2566  141.1608  157.0703 N   0  3  1  0  0  0  0  0  0  0  0  0
  151.2739  141.8178  157.9188 C   0  0  0  0  0  0  0  0  0  0  0  0
  150.6893  142.7551  158.9496 C   0  0  0  0  0  0  0  0  0  0  0  0
  151.3621  143.3122  157.7145 C   0  0  0  0  0  0  0  0  0  0  0  0
  150.6698  141.0786  155.6515 C   0  0  0  0  0  0  0  0  0  0  0  0
  149.5617  140.4216  154.8135 C   0  0  0  0  0  0  0  0  0  0  0  0
  149.2590  139.1383  155.3475 O   0  0  0  0  0  0  0  0  0  0  0  0
  147.9434  137.2304  160.6951 N   0  5  0  0  0  0  0  0  0  0  0  0
  147.3713  136.1756  161.2986 C   0  0  0  0  0  0  0  0  0  0  0  0
  146.6635  135.2526  160.6373 N   0  0  0  0  0  0  0  0  0  0  0  0
  146.1573  134.2456  161.4614 C   0  0  0  0  0  0  0  0  0  0  0  0
  146.4788  134.4113  162.7824 C   0  0  0  0  0  0  0  0  0  0  0  0
  147.4327  135.8455  163.0325 S   0  0  0  0  0  0  0  0  0  0  0  0
  147.1274  138.2953  158.7437 H   0  0  0  0  0  0  0  0  0  0  0  0
  149.2343  137.1075  156.9814 H   0  0  0  0  0  0  0  0  0  0  0  0
  147.5775  137.4109  156.4880 H   0  0  0  0  0  0  0  0  0  0  0  0
  147.8846  139.8328  156.7092 H   0  0  0  0  0  0  0  0  0  0  0  0
  149.5154  139.9223  158.6058 H   0  0  0  0  0  0  0  0  0  0  0  0
  150.7501  139.1776  157.6069 H   0  0  0  0  0  0  0  0  0  0  0  0
  152.1672  141.2371  158.1426 H   0  0  0  0  0  0  0  0  0  0  0  0
  149.6059  142.8415  159.0135 H   0  0  0  0  0  0  0  0  0  0  0  0
  151.2201  142.8564  159.8942 H   0  0  0  0  0  0  0  0  0  0  0  0
  152.3354  143.7805  157.8466 H   0  0  0  0  0  0  0  0  0  0  0  0
  150.7255  143.7681  156.9584 H   0  0  0  0  0  0  0  0  0  0  0  0
  150.8820  142.0775  155.2692 H   0  0  0  0  0  0  0  0  0  0  0  0
  151.5921  140.5009  155.5710 H   0  0  0  0  0  0  0  0  0  0  0  0
  148.6648  141.0432  154.7953 H   0  0  0  0  0  0  0  0  0  0  0  0
  149.8901  140.3063  153.7805 H   0  0  0  0  0  0  0  0  0  0  0  0
  145.5766  133.4482  161.0221 H   0  0  0  0  0  0  0  0  0  0  0  0
  146.2146  133.7824  163.6187 H   0  0  0  0  0  0  0  0  0  0  0  0
  149.4276  141.7369  157.1038 H   0  0  0  0  0  0  0  0  0  0  0  0
  1  2  2  0  0  0  0
  2  3  1  0  0  0  0
  2 14  1  0  0  0  0
  3  4  1  0  0  0  0
  3 20  1  0  0  0  0
  4  5  1  0  0  0  0
  4 21  1  0  0  0  0
  4 22  1  0  0  0  0
  5 13  1  0  0  0  0
  5  6  1  0  0  0  0
  5 23  1  0  0  0  0
  6  7  1  0  0  0  0
  6 24  1  0  0  0  0
  6 25  1  0  0  0  0
  7  8  1  0  0  0  0
  7 11  1  0  0  0  0
  7 37  1  0  0  0  0
  8 10  1  0  0  0  0
  8  9  1  0  0  0  0
  8 26  1  0  0  0  0
  9 10  1  0  0  0  0
  9 27  1  0  0  0  0
  9 28  1  0  0  0  0
 10 29  1  0  0  0  0
 10 30  1  0  0  0  0
 11 12  1  0  0  0  0
 11 31  1  0  0  0  0
 11 32  1  0  0  0  0
 12 13  1  0  0  0  0
 12 33  1  0  0  0  0
 12 34  1  0  0  0  0
 14 15  1  0  0  0  0
 15 19  1  0  0  0  0
 15 16  2  0  0  0  0
 16 17  1  0  0  0  0
 17 18  2  0  0  0  0
 17 35  1  0  0  0  0
 18 19  1  0  0  0  0
 18 36  1  0  0  0  0
M  CHG  1   7   1
M  CHG  1  14  -1
M  END
> <s_m_source_file>
AV-unprocessed.smi

> <i_m_source_file_index>
2999

> <i_lp_mmshare_version>
43012

> <i_f3d_flags>
0

> <s_epik_input>
czFbY0hdW2NIXW5jMVtOSF1DKD1PKVtOSF1bQ0gyXVtDQEBIXTJbQ0gyXU4oW0NIMl1bQ0gyXU8yKVtDSF0zW0NIMl1bQ0gyXTM=

> <s_epik_cmdline>
J2VwaWtfcHl0aG9uJywgJy1waCcsICc3LjAnLCAnLXRuJywgJzgnLCAnLW1hJywgJzIwMCcsICctbWV0YWxfYmluZGluZycsICctaW1hZScsICc8aW5maWxlLm1hZT4nLCAnLW9tYWUnLCAnPG91dGZpbGUubWFlPic=

> <r_lp_tautomer_probability>
0.999

> <r_epik_Ionization_Penalty>
7.79196

> <r_epik_Ionization_Penalty_Charging>
6.93299

> <r_epik_Ionization_Penalty_Neutral>
0.858963

> <r_epik_State_Penalty>
7.05108

> <r_epik_Charging_Adjusted_Penalty>
13.9841

> <i_epik_Tot_Q>
0

> <i_epik_Tot_abs_Q>
2

> <r_epik_Metal_State_Penalty>
3.05936

> <b_epik_Metal_Only>
1

> <s_lp_Force_Field>
OPLS_2005

> <r_lp_Energy>
14.293

> <b_lp_Chiralities_Consistent>
1

> <s_lp_Variant>
AV-unprocessed.smi:2999-12

> <Gold.Version>
5.8.1

> <Gold.Id.Protein>
6NUR|6NUR_protein|mol2

> <Gold.PLP.Fitness>
40.9612

> <Gold.PLP.PLP>
-30.1646

> <Gold.PLP.part.hbond>
-3.0000

> <Gold.PLP.part.metal>
0.0000

> <Gold.PLP.part.buried>
-2.8867

> <Gold.PLP.part.nonpolar>
-25.5197

> <Gold.PLP.part.repulsive>
0.2204

> <Gold.PLP.ligand.clash>
0.0000

> <Gold.PLP.ligand.torsion>
1.5744

> <Gold.PLP.Chemscore.Hbond>
4.1680

> <Gold.PLP.Chemscore.CHOScore>
0.0000

> <Gold.PLP.Chemscore.Metal>
0.0000

> <Gold.Chemscore.Hbonds>
donor molecule, donor type, donor heavy atom, donor atom, acceptor molecule, acceptor atom, score
      P1  H  6896  6909       L1     1  0.96
      P1  H  6931  6943       L1    14  1.60
      P1  H  6934  6947       L1    14  1.57

> <Gold.PLP.Chemscore.Internal.Correction>
1.4415

> <Gold.Rescore>
     Score         DG    S(hbond)    S(metal)    S(lipo)     H(rot)  DE(clash)    DE(int)     intcor
     15.41     -17.00       2.18        0.00      70.26       1.55       0.01       1.58       ----

> <Gold.Chemscore.Fitness>
15.4141

> <Gold.Chemscore.DG>
-16.9986

> <Gold.Chemscore.ZeroCoef>
-5.4800

> <Gold.Chemscore.Hbond>
2.1759

> <Gold.Chemscore.Metal>
0.0000

> <Gold.Chemscore.Lipo>
70.2570

> <Gold.Chemscore.Internal_Hbond>
0.0000

> <Gold.Chemscore.DEClash>
0.0089

> <Gold.Chemscore.DEInternal>
1.5757

> <Gold.Chemscore.Rot>
1.5504

> <Gold.Chemscore.Internal.Correction>
   9.000000E+99

> <Gold.Chemscore.Hbonds>
donor molecule, donor type, donor heavy atom, donor atom, acceptor molecule, acceptor atom, score
      P1  H  6896  6909       L1     1  0.90
      P1  H  6931  6943       L1    14  0.53
      P1  H  6934  6947       L1    14  0.62

> <Gold.Chemscore.Hbond.Weighted>
-7.2676

> <Gold.Chemscore.Metal.Weighted>
-0.0000

> <Gold.Chemscore.Lipo.Weighted>
-8.2201

> <Gold.Chemscore.Internal_Hbond.Weighted>
0.0000

> <Gold.Chemscore.DEClash.Weighted>
0.0089

> <Gold.Chemscore.DEInternal.Weighted>
1.5757

> <Gold.Chemscore.Rot.Weighted>
3.9690

> <Gold.Chemscore.Internal.Correction.Weighted>
   9.000000E+99

> <Gold.Protein.RotatedTorsions>
[ 6907 6896 6895 6894 ] final   70.86 input  -60.11 | X-H torsion
[ 7974 7965 7964 7962 ] final -176.75 input  175.53 | X-H torsion
[ 8008 7997 7996 7995 ] final  -44.79 input   59.86 | X-H torsion
[ 10167 10162 10161 10158 ] final  153.02 input  -65.29 | X-H torsion
[ 10718 10713 10712 10709 ] final   87.58 input   66.30 | X-H torsion
[ 10763 10752 10751 10750 ] final    2.20 input  -60.55 | X-H torsion
[ 11005 11000 10999 10996 ] final  -50.26 input  -57.11 | X-H torsion

> <Gold.Protein.ActiveResidues>
 VAL166  LYS551  ARG553  GLY616  TRP617  ASP618  TYR619  PRO620  LYS621  CYS622 
 ASP623  PHE694  ASN695  SER759  ASP760  ASP761  ALA762  ILE779  LEU786  VAL792 
 PHE793  MET794  SER795  GLU796  ALA797  LYS798  CYS799  TRP800  GLU811  SER814 

> <Gold.Protein.RotatedAtoms>
  152.4775  134.4805  159.9663 H   0  0  0  0  0  0  0  0  0  0  0  0  # atno 6907 bound_to 6896
  151.4818  133.3539  159.2847 H   0  0  0  0  0  0  0  0  0  0  0  0  # atno 6908 bound_to 6896
  150.8824  134.8244  159.7296 H   0  0  0  0  0  0  0  0  0  0  0  0  # atno 6909 bound_to 6896
  144.7127  140.1123  143.6410 H   0  0  0  0  0  0  0  0  0  0  0  0  # atno 7974 bound_to 7965
  154.3998  140.1413  156.3741 H   0  0  0  0  0  0  0  0  0  0  0  0  # atno 8008 bound_to 7997
  155.8065  140.3474  155.5412 H   0  0  0  0  0  0  0  0  0  0  0  0  # atno 8009 bound_to 7997
  155.8430  140.0929  157.1713 H   0  0  0  0  0  0  0  0  0  0  0  0  # atno 8010 bound_to 7997
  139.4829  144.5309  151.7725 H   0  0  0  0  0  0  0  0  0  0  0  0  # atno 10167 bound_to 10162
  157.6941  131.0261  150.3144 H   0  0  0  0  0  0  0  0  0  0  0  0  # atno 10718 bound_to 10713
  153.2985  135.6954  153.7225 H   0  0  0  0  0  0  0  0  0  0  0  0  # atno 10763 bound_to 10752
  153.6149  135.3438  155.2992 H   0  0  0  0  0  0  0  0  0  0  0  0  # atno 10764 bound_to 10752
  154.8544  135.4372  154.2089 H   0  0  0  0  0  0  0  0  0  0  0  0  # atno 10765 bound_to 10752
  141.0806  133.6654  156.3705 H   0  0  0  0  0  0  0  0  0  0  0  0  # atno 11005 bound_to 11000
  145.9444  139.2691  143.1249 LP  0  0  0  0  0  0  0  0  0  0  0  0  # atno 17320 bound_to 7965
  145.9389  140.8994  143.0318 LP  0  0  0  0  0  0  0  0  0  0  0  0  # atno 17321 bound_to 7965
  140.4835  144.1415  150.5937 LP  0  0  0  0  0  0  0  0  0  0  0  0  # atno 17342 bound_to 10162
  140.4251  143.2593  151.9666 LP  0  0  0  0  0  0  0  0  0  0  0  0  # atno 17343 bound_to 10162
  156.3641  130.3852  149.7228 LP  0  0  0  0  0  0  0  0  0  0  0  0  # atno 17370 bound_to 10713
  156.4664  130.7976  151.2995 LP  0  0  0  0  0  0  0  0  0  0  0  0  # atno 17371 bound_to 10713
  140.5477  134.6058  157.5398 LP  0  0  0  0  0  0  0  0  0  0  0  0  # atno 17394 bound_to 11000
  139.9620  134.7437  156.0218 LP  0  0  0  0  0  0  0  0  0  0  0  0  # atno 17395 bound_to 11000

$$$$
