AV-unprocessed.smi:3234|AV-procd|sdf|12348|dock10
  -GOLD-   2272018213D 1   1.00000     0.00000
 Structure written by MMmdl.
 37 39  0  0  0  0  0  0  0  0  2 V2000
  144.4735  136.6110  151.9984 O   0  0  0  0  0  0  0  0  0  0  0  0
  145.6758  136.3784  151.8807 C   0  0  0  0  0  0  0  0  0  0  0  0
  146.2163  135.2495  151.3885 N   0  0  0  0  0  0  0  0  0  0  0  0
  145.5804  134.0747  150.8970 C   0  0  0  0  0  0  0  0  0  0  0  0
  146.4101  132.9791  150.5788 C   0  0  0  0  0  0  0  0  0  0  0  0
  145.8204  131.7951  150.0927 C   0  0  0  0  0  0  0  0  0  0  0  0
  144.4912  131.6484  149.9140 N   0  0  0  0  0  0  0  0  0  0  0  0
  143.6970  132.6952  150.2216 C   0  0  0  0  0  0  0  0  0  0  0  0
  144.1838  133.9227  150.7143 C   0  0  0  0  0  0  0  0  0  0  0  0
  146.6272  137.2536  152.2359 N   0  0  0  0  0  0  0  0  0  0  0  0
  146.3699  138.5720  152.8054 C   0  0  2  0  0  0  0  0  0  0  0  0
  147.1031  139.7190  152.1164 C   0  0  0  0  0  0  0  0  0  0  0  0
  147.0777  140.8177  153.1848 C   0  0  0  0  0  0  0  0  0  0  0  0
  147.0298  140.1326  154.5009 N   0  3  1  0  0  0  0  0  0  0  0  0
  146.0057  140.6813  155.4162 C   0  0  0  0  0  0  0  0  0  0  0  0
  145.6993  142.1402  155.1759 C   0  0  0  0  0  0  0  0  0  0  0  0
  146.5418  141.7279  156.3636 C   0  0  0  0  0  0  0  0  0  0  0  0
  146.8775  138.6836  154.2423 C   0  0  0  0  0  0  0  0  0  0  0  0
  147.2247  135.2314  151.3478 H   0  0  0  0  0  0  0  0  0  0  0  0
  147.4816  133.0390  150.7022 H   0  0  0  0  0  0  0  0  0  0  0  0
  146.4341  130.9428  149.8412 H   0  0  0  0  0  0  0  0  0  0  0  0
  142.6373  132.5506  150.0719 H   0  0  0  0  0  0  0  0  0  0  0  0
  143.4754  134.7035  150.9388 H   0  0  0  0  0  0  0  0  0  0  0  0
  147.5928  136.9879  152.1070 H   0  0  0  0  0  0  0  0  0  0  0  0
  145.2959  138.7707  152.7951 H   0  0  0  0  0  0  0  0  0  0  0  0
  148.1335  139.4346  151.8973 H   0  0  0  0  0  0  0  0  0  0  0  0
  146.6315  140.0280  151.1828 H   0  0  0  0  0  0  0  0  0  0  0  0
  147.9444  141.4756  153.1166 H   0  0  0  0  0  0  0  0  0  0  0  0
  146.1869  141.4334  153.0485 H   0  0  0  0  0  0  0  0  0  0  0  0
  145.2215  139.9962  155.7344 H   0  0  0  0  0  0  0  0  0  0  0  0
  146.2023  142.6427  154.3516 H   0  0  0  0  0  0  0  0  0  0  0  0
  144.6862  142.4814  155.3791 H   0  0  0  0  0  0  0  0  0  0  0  0
  146.0828  141.7958  157.3478 H   0  0  0  0  0  0  0  0  0  0  0  0
  147.6052  141.9578  156.3298 H   0  0  0  0  0  0  0  0  0  0  0  0
  146.2162  138.1918  154.9577 H   0  0  0  0  0  0  0  0  0  0  0  0
  147.8623  138.2231  154.3349 H   0  0  0  0  0  0  0  0  0  0  0  0
  147.9265  140.2594  154.9480 H   0  0  0  0  0  0  0  0  0  0  0  0
  1  2  2  0  0  0  0
  2  3  1  0  0  0  0
  2 10  1  0  0  0  0
  3  4  1  0  0  0  0
  3 19  1  0  0  0  0
  4  9  1  0  0  0  0
  4  5  2  0  0  0  0
  5  6  1  0  0  0  0
  5 20  1  0  0  0  0
  6  7  2  0  0  0  0
  6 21  1  0  0  0  0
  7  8  1  0  0  0  0
  8  9  2  0  0  0  0
  8 22  1  0  0  0  0
  9 23  1  0  0  0  0
 10 11  1  0  0  0  0
 10 24  1  0  0  0  0
 11 18  1  0  0  0  0
 11 12  1  0  0  0  0
 11 25  1  0  0  0  0
 12 13  1  0  0  0  0
 12 26  1  0  0  0  0
 12 27  1  0  0  0  0
 13 14  1  0  0  0  0
 13 28  1  0  0  0  0
 13 29  1  0  0  0  0
 14 15  1  0  0  0  0
 14 18  1  0  0  0  0
 14 37  1  0  0  0  0
 15 17  1  0  0  0  0
 15 16  1  0  0  0  0
 15 30  1  0  0  0  0
 16 17  1  0  0  0  0
 16 31  1  0  0  0  0
 16 32  1  0  0  0  0
 17 33  1  0  0  0  0
 17 34  1  0  0  0  0
 18 35  1  0  0  0  0
 18 36  1  0  0  0  0
M  CHG  1  14   1
M  END
> <s_m_source_file>
AV-unprocessed.smi

> <i_m_source_file_index>
3234

> <i_lp_mmshare_version>
43012

> <i_f3d_flags>
0

> <s_epik_input>
W2NIXTFbY0hdbltjSF1bY0hdYzFbTkhdQyg9TylbTkhdW0NAQEhdMltDSDJdW0NIMl1OKFtDSDJdMilbQ0hdM1tDSDJdW0NIMl0z

> <s_epik_cmdline>
J2VwaWtfcHl0aG9uJywgJy1waCcsICc3LjAnLCAnLXRuJywgJzgnLCAnLW1hJywgJzIwMCcsICctbWV0YWxfYmluZGluZycsICctaW1hZScsICc8aW5maWxlLm1hZT4nLCAnLW9tYWUnLCAnPG91dGZpbGUubWFlPic=

> <r_epik_Ionization_Penalty>
0.0934328

> <r_epik_Ionization_Penalty_Charging>
0.000606352

> <r_epik_Ionization_Penalty_Neutral>
0.0928265

> <r_epik_State_Penalty>
0.0830811

> <r_epik_Charging_Adjusted_Penalty>
0.0836875

> <i_epik_Tot_Q>
1

> <i_epik_Tot_abs_Q>
1

> <r_epik_Metal_State_Penalty>
0.0724491

> <b_epik_Metal_Only>
0

> <s_lp_Force_Field>
OPLS_2005

> <r_lp_Energy>
42.4864

> <b_lp_Chiralities_Consistent>
1

> <s_lp_Variant>
AV-unprocessed.smi:3234-1

> <Gold.Version>
5.8.1

> <Gold.Id.Protein>
6NUR|6NUR_protein|mol2

> <Gold.PLP.Fitness>
40.1217

> <Gold.PLP.PLP>
-28.9871

> <Gold.PLP.part.hbond>
-3.0000

> <Gold.PLP.part.metal>
0.0000

> <Gold.PLP.part.buried>
-1.9838

> <Gold.PLP.part.nonpolar>
-26.1984

> <Gold.PLP.part.repulsive>
1.2217

> <Gold.PLP.ligand.clash>
0.0000

> <Gold.PLP.ligand.torsion>
0.9359

> <Gold.PLP.Chemscore.Hbond>
2.1110

> <Gold.PLP.Chemscore.CHOScore>
1.8031

> <Gold.PLP.Chemscore.Metal>
0.0000

> <Gold.Chemscore.Hbonds>
donor molecule, donor type, donor heavy atom, donor atom, acceptor molecule, acceptor atom, score
      L1  H     3    19       P1  7948  0.93
      L1  H    10    24       P1  7948  1.00
      P1  H 10785 10796       L1     7  0.17
      L1  C     6    21       P1 10747  0.81
      L1  C     8    22       P1 10186  0.89
      L1  C     8    22       P1 10952  0.10

> <Gold.PLP.Chemscore.Internal.Correction>
1.2641

> <Gold.Rescore>
     Score         DG    S(hbond)    S(metal)    S(lipo)     H(rot)  DE(clash)    DE(int)     intcor
     14.21     -17.48       1.90        0.00      74.87       1.21       1.36       1.91       ----

> <Gold.Chemscore.Fitness>
14.2116

> <Gold.Chemscore.DG>
-17.4764

> <Gold.Chemscore.ZeroCoef>
-5.4800

> <Gold.Chemscore.Hbond>
1.8970

> <Gold.Chemscore.Metal>
0.0000

> <Gold.Chemscore.Lipo>
74.8717

> <Gold.Chemscore.Internal_Hbond>
0.0000

> <Gold.Chemscore.DEClash>
1.3578

> <Gold.Chemscore.DEInternal>
1.9070

> <Gold.Chemscore.Rot>
1.2108

> <Gold.Chemscore.Internal.Correction>
   9.000000E+99

> <Gold.Chemscore.Hbonds>
donor molecule, donor type, donor heavy atom, donor atom, acceptor molecule, acceptor atom, score
      L1  H     3    19       P1  7948  0.71
      L1  H    10    24       P1  7948  0.96
      P1  H 10785 10796       L1     7  0.12

> <Gold.Chemscore.Hbond.Weighted>
-6.3360

> <Gold.Chemscore.Metal.Weighted>
-0.0000

> <Gold.Chemscore.Lipo.Weighted>
-8.7600

> <Gold.Chemscore.Internal_Hbond.Weighted>
0.0000

> <Gold.Chemscore.DEClash.Weighted>
1.3578

> <Gold.Chemscore.DEInternal.Weighted>
1.9070

> <Gold.Chemscore.Rot.Weighted>
3.0996

> <Gold.Chemscore.Internal.Correction.Weighted>
   9.000000E+99

> <Gold.Protein.RotatedTorsions>
[ 6907 6896 6895 6894 ] final   39.03 input  -60.11 | X-H torsion
[ 7974 7965 7964 7962 ] final  114.08 input  175.53 | X-H torsion
[ 8008 7997 7996 7995 ] final -166.21 input   59.86 | X-H torsion
[ 10167 10162 10161 10158 ] final -173.21 input  -65.29 | X-H torsion
[ 10718 10713 10712 10709 ] final -160.24 input   66.30 | X-H torsion
[ 10763 10752 10751 10750 ] final  -34.98 input  -60.55 | X-H torsion
[ 11005 11000 10999 10996 ] final  -73.65 input  -57.11 | X-H torsion

> <Gold.Protein.ActiveResidues>
 VAL166  LYS551  ARG553  GLY616  TRP617  ASP618  TYR619  PRO620  LYS621  CYS622 
 ASP623  PHE694  ASN695  SER759  ASP760  ASP761  ALA762  ILE779  LEU786  VAL792 
 PHE793  MET794  SER795  GLU796  ALA797  LYS798  CYS799  TRP800  GLU811  SER814 

> <Gold.Protein.RotatedAtoms>
  152.1643  134.8887  160.0539 H   0  0  0  0  0  0  0  0  0  0  0  0  # atno 6907 bound_to 6896
  151.9871  133.3773  159.4138 H   0  0  0  0  0  0  0  0  0  0  0  0  # atno 6908 bound_to 6896
  150.6892  134.3899  159.5116 H   0  0  0  0  0  0  0  0  0  0  0  0  # atno 6909 bound_to 6896
  145.2089  139.2916  143.4279 H   0  0  0  0  0  0  0  0  0  0  0  0  # atno 7974 bound_to 7965
  155.8606  140.0977  157.1615 H   0  0  0  0  0  0  0  0  0  0  0  0  # atno 8008 bound_to 7997
  154.3990  140.1366  156.4019 H   0  0  0  0  0  0  0  0  0  0  0  0  # atno 8009 bound_to 7997
  155.7860  140.3457  155.5326 H   0  0  0  0  0  0  0  0  0  0  0  0  # atno 8010 bound_to 7997
  139.5701  144.1662  152.1371 H   0  0  0  0  0  0  0  0  0  0  0  0  # atno 10167 bound_to 10162
  156.5793  130.8722  151.2860 H   0  0  0  0  0  0  0  0  0  0  0  0  # atno 10718 bound_to 10713
  153.8557  135.6845  153.4788 H   0  0  0  0  0  0  0  0  0  0  0  0  # atno 10763 bound_to 10752
  153.1371  135.4673  154.9437 H   0  0  0  0  0  0  0  0  0  0  0  0  # atno 10764 bound_to 10752
  154.7782  135.3260  154.7996 H   0  0  0  0  0  0  0  0  0  0  0  0  # atno 10765 bound_to 10752
  141.1625  133.6885  156.7244 H   0  0  0  0  0  0  0  0  0  0  0  0  # atno 11005 bound_to 11000
  146.3402  140.2358  142.8594 LP  0  0  0  0  0  0  0  0  0  0  0  0  # atno 17320 bound_to 7965
  144.9875  140.8516  143.5359 LP  0  0  0  0  0  0  0  0  0  0  0  0  # atno 17321 bound_to 7965
  140.1193  144.5387  150.6873 LP  0  0  0  0  0  0  0  0  0  0  0  0  # atno 17342 bound_to 10162
  140.6985  143.2419  151.4932 LP  0  0  0  0  0  0  0  0  0  0  0  0  # atno 17343 bound_to 10162
  157.7330  130.9724  150.1957 LP  0  0  0  0  0  0  0  0  0  0  0  0  # atno 17370 bound_to 10713
  156.2646  130.3714  149.8095 LP  0  0  0  0  0  0  0  0  0  0  0  0  # atno 17371 bound_to 10713
  140.2792  134.8330  157.3918 LP  0  0  0  0  0  0  0  0  0  0  0  0  # atno 17394 bound_to 11000
  140.1449  134.4924  155.8004 LP  0  0  0  0  0  0  0  0  0  0  0  0  # atno 17395 bound_to 11000

$$$$
