AV-unprocessed.smi:1118|AV-procd|sdf|4814|dock2
  -GOLD-   22720 3363D 1   1.00000     0.00000
 Structure written by MMmdl.
 45 46  0  0  0  0  0  0  0  0  2 V2000
  151.3418  131.9705  154.9850 C   0  0  0  0  0  0  0  0  0  0  0  0
  150.3668  132.0689  153.9617 O   0  0  0  0  0  0  0  0  0  0  0  0
  150.1694  133.4033  153.5244 C   0  0  0  0  0  0  0  0  0  0  0  0
  149.4616  134.1909  154.6376 C   0  0  0  0  0  0  0  0  0  0  0  0
  149.6396  135.6584  154.4957 N   0  3  2  0  0  0  0  0  0  0  0  0
  151.0012  136.1001  154.8903 C   0  0  0  0  0  0  0  0  0  0  0  0
  151.2073  137.5949  154.5950 C   0  0  0  0  0  0  0  0  0  0  0  0
  150.1492  138.4616  155.2995 C   0  0  1  0  0  0  0  0  0  0  0  0
  150.3631  139.9576  154.9874 C   0  0  0  0  0  0  0  0  0  0  0  0
  151.2428  140.5943  155.9618 N   0  0  0  0  0  0  0  0  0  0  0  0
  150.9597  140.7894  157.2593 C   0  0  0  0  0  0  0  0  0  0  0  0
  149.8764  140.5087  157.7717 O   0  0  0  0  0  0  0  0  0  0  0  0
  152.0898  141.3524  158.1199 C   0  0  0  0  0  0  0  0  0  0  0  0
  151.7662  142.6952  158.5677 N   0  0  0  0  0  0  0  0  0  0  0  0
  152.5914  143.6152  159.1804 C   0  0  0  0  0  0  0  0  0  0  0  0
  151.8527  144.7429  159.3966 C   0  0  0  0  0  0  0  0  0  0  0  0
  150.5706  144.4129  158.8751 C   0  0  0  0  0  0  0  0  0  0  0  0
  150.5219  143.1878  158.3775 N   0  0  0  0  0  0  0  0  0  0  0  0
  148.7466  137.9520  154.9084 C   0  0  0  0  0  0  0  0  0  0  0  0
  148.5911  136.4491  155.1923 C   0  0  0  0  0  0  0  0  0  0  0  0
  151.4536  130.9287  155.2858 H   0  0  0  0  0  0  0  0  0  0  0  0
  151.0495  132.5452  155.8650 H   0  0  0  0  0  0  0  0  0  0  0  0
  152.3133  132.3272  154.6403 H   0  0  0  0  0  0  0  0  0  0  0  0
  151.1182  133.8630  153.2469 H   0  0  0  0  0  0  0  0  0  0  0  0
  149.5435  133.4020  152.6307 H   0  0  0  0  0  0  0  0  0  0  0  0
  148.3975  133.9515  154.6574 H   0  0  0  0  0  0  0  0  0  0  0  0
  149.8674  133.8588  155.5944 H   0  0  0  0  0  0  0  0  0  0  0  0
  151.1588  135.8987  155.9512 H   0  0  0  0  0  0  0  0  0  0  0  0
  151.7486  135.5242  154.3434 H   0  0  0  0  0  0  0  0  0  0  0  0
  152.2068  137.8940  154.9133 H   0  0  0  0  0  0  0  0  0  0  0  0
  151.1645  137.7616  153.5175 H   0  0  0  0  0  0  0  0  0  0  0  0
  150.2685  138.3258  156.3757 H   0  0  0  0  0  0  0  0  0  0  0  0
  150.8293  140.0651  154.0076 H   0  0  0  0  0  0  0  0  0  0  0  0
  149.4043  140.4751  154.9237 H   0  0  0  0  0  0  0  0  0  0  0  0
  152.1627  140.8578  155.6382 H   0  0  0  0  0  0  0  0  0  0  0  0
  152.2684  140.7117  158.9852 H   0  0  0  0  0  0  0  0  0  0  0  0
  153.0163  141.3846  157.5450 H   0  0  0  0  0  0  0  0  0  0  0  0
  153.6244  143.3932  159.4056 H   0  0  0  0  0  0  0  0  0  0  0  0
  152.1786  145.6639  159.8571 H   0  0  0  0  0  0  0  0  0  0  0  0
  149.6802  145.0234  158.8420 H   0  0  0  0  0  0  0  0  0  0  0  0
  147.9761  138.4923  155.4591 H   0  0  0  0  0  0  0  0  0  0  0  0
  148.5635  138.1465  153.8506 H   0  0  0  0  0  0  0  0  0  0  0  0
  147.5993  136.1332  154.8712 H   0  0  0  0  0  0  0  0  0  0  0  0
  148.6478  136.2648  156.2663 H   0  0  0  0  0  0  0  0  0  0  0  0
  149.5555  135.8586  153.5089 H   0  0  0  0  0  0  0  0  0  0  0  0
  1  2  1  0  0  0  0
  1 21  1  0  0  0  0
  1 22  1  0  0  0  0
  1 23  1  0  0  0  0
  2  3  1  0  0  0  0
  3  4  1  0  0  0  0
  3 24  1  0  0  0  0
  3 25  1  0  0  0  0
  4  5  1  0  0  0  0
  4 26  1  0  0  0  0
  4 27  1  0  0  0  0
  5 20  1  0  0  0  0
  5  6  1  0  0  0  0
  5 45  1  0  0  0  0
  6  7  1  0  0  0  0
  6 28  1  0  0  0  0
  6 29  1  0  0  0  0
  7  8  1  0  0  0  0
  7 30  1  0  0  0  0
  7 31  1  0  0  0  0
  8  9  1  0  0  0  0
  8 19  1  0  0  0  0
  8 32  1  0  0  0  0
  9 10  1  0  0  0  0
  9 33  1  0  0  0  0
  9 34  1  0  0  0  0
 10 11  1  0  0  0  0
 10 35  1  0  0  0  0
 11 12  2  0  0  0  0
 11 13  1  0  0  0  0
 13 14  1  0  0  0  0
 13 36  1  0  0  0  0
 13 37  1  0  0  0  0
 14 18  1  0  0  0  0
 14 15  1  0  0  0  0
 15 16  2  0  0  0  0
 15 38  1  0  0  0  0
 16 17  1  0  0  0  0
 16 39  1  0  0  0  0
 17 18  2  0  0  0  0
 17 40  1  0  0  0  0
 19 20  1  0  0  0  0
 19 41  1  0  0  0  0
 19 42  1  0  0  0  0
 20 43  1  0  0  0  0
 20 44  1  0  0  0  0
M  CHG  1   5   1
M  END
> <s_m_source_file>
AV-unprocessed.smi

> <i_m_source_file_index>
1118

> <i_lp_mmshare_version>
43012

> <i_f3d_flags>
0

> <s_epik_input>
W0NIM11PW0NIMl1bQ0gyXU4xW0NIMl1bQ0gyXVtDSF0oW0NIMl1bQ0gyXTEpW0NIMl1bTkhdQyg9TylbQ0gyXW4yW2NIXVtjSF1bY0hdbjI=

> <s_epik_cmdline>
J2VwaWtfcHl0aG9uJywgJy1waCcsICc3LjAnLCAnLXRuJywgJzgnLCAnLW1hJywgJzIwMCcsICctbWV0YWxfYmluZGluZycsICctaW1hZScsICc8aW5maWxlLm1hZT4nLCAnLW9tYWUnLCAnPG91dGZpbGUubWFlPic=

> <r_lp_tautomer_probability>
1

> <r_epik_Ionization_Penalty>
0.00991549

> <r_epik_Ionization_Penalty_Charging>
0.00990284

> <r_epik_Ionization_Penalty_Neutral>
1.26554e-05

> <r_epik_State_Penalty>
0.00754525

> <r_epik_Charging_Adjusted_Penalty>
0.0174481

> <i_epik_Tot_Q>
1

> <i_epik_Tot_abs_Q>
1

> <r_epik_Metal_State_Penalty>
0.00754527

> <b_epik_Metal_Only>
0

> <s_lp_Force_Field>
OPLS_2005

> <r_lp_Energy>
19.0863

> <b_lp_Chiralities_Consistent>
1

> <s_lp_Variant>
AV-unprocessed.smi:1118-1

> <Gold.Version>
5.8.1

> <Gold.Id.Protein>
6NUR|6NUR_protein|mol2

> <Gold.PLP.Fitness>
43.4416

> <Gold.PLP.PLP>
-36.0223

> <Gold.PLP.part.hbond>
-1.0000

> <Gold.PLP.part.metal>
0.0000

> <Gold.PLP.part.buried>
-4.4881

> <Gold.PLP.part.nonpolar>
-32.0010

> <Gold.PLP.part.repulsive>
0.3916

> <Gold.PLP.ligand.clash>
0.0000

> <Gold.PLP.ligand.torsion>
0.8858

> <Gold.PLP.Chemscore.Hbond>
2.0000

> <Gold.PLP.Chemscore.CHOScore>
1.0044

> <Gold.PLP.Chemscore.Metal>
0.0000

> <Gold.Chemscore.Hbonds>
donor molecule, donor type, donor heavy atom, donor atom, acceptor molecule, acceptor atom, score
      L1  H     5    45       P1  7948  2.00
      L1  C    17    40       P1  8029  0.97

> <Gold.PLP.Chemscore.Internal.Correction>
0.1775

> <Gold.Rescore>
     Score         DG    S(hbond)    S(metal)    S(lipo)     H(rot)  DE(clash)    DE(int)     intcor
     11.02     -13.75       0.97        0.00      91.61       2.22       0.21       2.53       ----

> <Gold.Chemscore.Fitness>
11.0177

> <Gold.Chemscore.DG>
-13.7518

> <Gold.Chemscore.ZeroCoef>
-5.4800

> <Gold.Chemscore.Hbond>
0.9663

> <Gold.Chemscore.Metal>
0.0000

> <Gold.Chemscore.Lipo>
91.6144

> <Gold.Chemscore.Internal_Hbond>
0.0000

> <Gold.Chemscore.DEClash>
0.2063

> <Gold.Chemscore.DEInternal>
2.5278

> <Gold.Chemscore.Rot>
2.2166

> <Gold.Chemscore.Internal.Correction>
   9.000000E+99

> <Gold.Chemscore.Hbonds>
donor molecule, donor type, donor heavy atom, donor atom, acceptor molecule, acceptor atom, score
      L1  H     5    45       P1  7948  0.26

> <Gold.Chemscore.Hbond.Weighted>
-3.2274

> <Gold.Chemscore.Metal.Weighted>
-0.0000

> <Gold.Chemscore.Lipo.Weighted>
-10.7189

> <Gold.Chemscore.Internal_Hbond.Weighted>
0.0000

> <Gold.Chemscore.DEClash.Weighted>
0.2063

> <Gold.Chemscore.DEInternal.Weighted>
2.5278

> <Gold.Chemscore.Rot.Weighted>
5.6745

> <Gold.Chemscore.Internal.Correction.Weighted>
   9.000000E+99

> <Gold.Protein.RotatedTorsions>
[ 6907 6896 6895 6894 ] final  -56.69 input  -60.11 | X-H torsion
[ 7974 7965 7964 7962 ] final   76.08 input  175.53 | X-H torsion
[ 8008 7997 7996 7995 ] final  137.41 input   59.86 | X-H torsion
[ 10167 10162 10161 10158 ] final   11.93 input  -65.29 | X-H torsion
[ 10718 10713 10712 10709 ] final  -93.66 input   66.30 | X-H torsion
[ 10763 10752 10751 10750 ] final   -2.76 input  -60.55 | X-H torsion
[ 11005 11000 10999 10996 ] final  -59.41 input  -57.11 | X-H torsion

> <Gold.Protein.ActiveResidues>
 VAL166  LYS551  ARG553  GLY616  TRP617  ASP618  TYR619  PRO620  LYS621  CYS622 
 ASP623  PHE694  ASN695  SER759  ASP760  ASP761  ALA762  ILE779  LEU786  VAL792 
 PHE793  MET794  SER795  GLU796  ALA797  LYS798  CYS799  TRP800  GLU811  SER814 

> <Gold.Protein.RotatedAtoms>
  150.8147  134.7322  159.6719 H   0  0  0  0  0  0  0  0  0  0  0  0  # atno 6907 bound_to 6896
  152.4266  134.5853  159.9969 H   0  0  0  0  0  0  0  0  0  0  0  0  # atno 6908 bound_to 6896
  151.6053  133.3315  159.3092 H   0  0  0  0  0  0  0  0  0  0  0  0  # atno 6909 bound_to 6896
  145.7074  139.2603  143.1670 H   0  0  0  0  0  0  0  0  0  0  0  0  # atno 7974 bound_to 7965
  156.3002  140.2420  156.3906 H   0  0  0  0  0  0  0  0  0  0  0  0  # atno 8008 bound_to 7997
  154.8618  140.0419  157.1689 H   0  0  0  0  0  0  0  0  0  0  0  0  # atno 8009 bound_to 7997
  154.8889  140.2960  155.5386 H   0  0  0  0  0  0  0  0  0  0  0  0  # atno 8010 bound_to 7997
  140.6100  143.8427  150.7055 H   0  0  0  0  0  0  0  0  0  0  0  0  # atno 10167 bound_to 10162
  156.0016  130.5036  150.5809 H   0  0  0  0  0  0  0  0  0  0  0  0  # atno 10718 bound_to 10713
  153.3623  135.6991  153.6702 H   0  0  0  0  0  0  0  0  0  0  0  0  # atno 10763 bound_to 10752
  153.5385  135.3577  155.2708 H   0  0  0  0  0  0  0  0  0  0  0  0  # atno 10764 bound_to 10752
  154.8670  135.4198  154.2883 H   0  0  0  0  0  0  0  0  0  0  0  0  # atno 10765 bound_to 10752
  141.1247  133.6616  156.5067 H   0  0  0  0  0  0  0  0  0  0  0  0  # atno 11005 bound_to 11000
  146.0744  140.7834  142.9672 LP  0  0  0  0  0  0  0  0  0  0  0  0  # atno 17320 bound_to 7965
  144.6951  140.3391  143.7202 LP  0  0  0  0  0  0  0  0  0  0  0  0  # atno 17321 bound_to 7965
  140.1993  143.3972  152.1804 LP  0  0  0  0  0  0  0  0  0  0  0  0  # atno 17342 bound_to 10162
  139.5354  144.7204  151.4911 LP  0  0  0  0  0  0  0  0  0  0  0  0  # atno 17343 bound_to 10162
  157.3689  131.0762  151.1574 LP  0  0  0  0  0  0  0  0  0  0  0  0  # atno 17370 bound_to 10713
  157.2334  130.6536  149.5859 LP  0  0  0  0  0  0  0  0  0  0  0  0  # atno 17371 bound_to 10713
  140.4402  134.7022  157.4987 LP  0  0  0  0  0  0  0  0  0  0  0  0  # atno 17394 bound_to 11000
  140.0234  134.6513  155.9207 LP  0  0  0  0  0  0  0  0  0  0  0  0  # atno 17395 bound_to 11000

$$$$
