AV-unprocessed.smi:2300|AV-procd|sdf|9233|dock4
  -GOLD-   2272012453D 1   1.00000     0.00000
 Structure written by MMmdl.
 51 52  0  0  0  0  0  0  0  0  1 V2000
  149.4294  132.5645  155.7078 C   0  0  0  0  0  0  0  0  0  0  0  0
  150.1998  133.4302  156.6998 C   0  0  0  0  0  0  0  0  0  0  0  0
  150.1364  133.1866  157.9043 O   0  0  0  0  0  0  0  0  0  0  0  0
  150.9186  134.4396  156.1851 N   0  0  0  0  0  0  0  0  0  0  0  0
  151.7099  135.3871  156.9628 C   0  0  0  0  0  0  0  0  0  0  0  0
  151.3917  136.8427  156.5815 C   0  0  1  0  0  0  0  0  0  0  0  0
  152.0108  137.8430  157.5757 C   0  0  0  0  0  0  0  0  0  0  0  0
  151.7729  139.2155  157.1337 N   0  0  0  0  0  0  0  0  0  0  0  0
  152.0257  140.2576  158.0508 C   0  0  0  0  0  0  0  0  0  0  0  0
  152.7405  140.0157  159.2475 C   0  0  0  0  0  0  0  0  0  0  0  0
  152.9513  141.1183  160.1024 C   0  0  0  0  0  0  0  0  0  0  0  0
  153.7143  140.9682  161.4110 C   0  0  0  0  0  0  0  0  0  0  0  0
  153.6729  142.2564  162.2473 C   0  0  0  0  0  0  0  0  0  0  0  0
  155.1482  140.4661  161.1808 C   0  0  0  0  0  0  0  0  0  0  0  0
  152.4907  142.3510  159.7940 N   0  0  0  0  0  0  0  0  0  0  0  0
  151.8312  142.4799  158.6402 C   0  0  0  0  0  0  0  0  0  0  0  0
  151.3122  143.8701  158.2971 C   0  0  0  0  0  0  0  0  0  0  0  0
  152.4536  144.8876  158.1462 C   0  0  0  0  0  0  0  0  0  0  0  0
  150.2187  144.3334  159.2726 C   0  0  0  0  0  0  0  0  0  0  0  0
  151.5790  141.5043  157.7620 N   0  0  0  0  0  0  0  0  0  0  0  0
  152.1901  139.4636  155.7566 C   0  0  0  0  0  0  0  0  0  0  0  0
  151.5913  138.4031  154.8169 C   0  0  0  0  0  0  0  0  0  0  0  0
  151.9246  137.1002  155.2842 O   0  0  0  0  0  0  0  0  0  0  0  0
  149.7476  132.7523  154.6815 H   0  0  0  0  0  0  0  0  0  0  0  0
  148.3615  132.7723  155.7791 H   0  0  0  0  0  0  0  0  0  0  0  0
  149.5883  131.5076  155.9240 H   0  0  0  0  0  0  0  0  0  0  0  0
  150.9073  134.5694  155.1838 H   0  0  0  0  0  0  0  0  0  0  0  0
  151.5327  135.2266  158.0277 H   0  0  0  0  0  0  0  0  0  0  0  0
  152.7661  135.1774  156.7914 H   0  0  0  0  0  0  0  0  0  0  0  0
  150.3088  136.9810  156.5630 H   0  0  0  0  0  0  0  0  0  0  0  0
  151.5741  137.6864  158.5629 H   0  0  0  0  0  0  0  0  0  0  0  0
  153.0851  137.6741  157.6632 H   0  0  0  0  0  0  0  0  0  0  0  0
  153.1272  139.0390  159.4973 H   0  0  0  0  0  0  0  0  0  0  0  0
  153.2032  140.2004  161.9932 H   0  0  0  0  0  0  0  0  0  0  0  0
  152.6448  142.5580  162.4500 H   0  0  0  0  0  0  0  0  0  0  0  0
  154.1676  143.0822  161.7350 H   0  0  0  0  0  0  0  0  0  0  0  0
  154.1712  142.1167  163.2069 H   0  0  0  0  0  0  0  0  0  0  0  0
  155.1487  139.5178  160.6427 H   0  0  0  0  0  0  0  0  0  0  0  0
  155.6652  140.3083  162.1276 H   0  0  0  0  0  0  0  0  0  0  0  0
  155.7332  141.1794  160.5994 H   0  0  0  0  0  0  0  0  0  0  0  0
  150.8346  143.8022  157.3178 H   0  0  0  0  0  0  0  0  0  0  0  0
  153.1702  144.5621  157.3916 H   0  0  0  0  0  0  0  0  0  0  0  0
  152.9945  145.0227  159.0834 H   0  0  0  0  0  0  0  0  0  0  0  0
  152.0719  145.8619  157.8404 H   0  0  0  0  0  0  0  0  0  0  0  0
  149.3919  143.6230  159.2999 H   0  0  0  0  0  0  0  0  0  0  0  0
  149.8138  145.3012  158.9763 H   0  0  0  0  0  0  0  0  0  0  0  0
  150.6059  144.4334  160.2872 H   0  0  0  0  0  0  0  0  0  0  0  0
  151.8864  140.4517  155.4139 H   0  0  0  0  0  0  0  0  0  0  0  0
  153.2793  139.4315  155.7091 H   0  0  0  0  0  0  0  0  0  0  0  0
  150.5075  138.5107  154.7488 H   0  0  0  0  0  0  0  0  0  0  0  0
  151.9866  138.5298  153.8090 H   0  0  0  0  0  0  0  0  0  0  0  0
  1  2  1  0  0  0  0
  1 24  1  0  0  0  0
  1 25  1  0  0  0  0
  1 26  1  0  0  0  0
  2  3  2  0  0  0  0
  2  4  1  0  0  0  0
  4  5  1  0  0  0  0
  4 27  1  0  0  0  0
  5  6  1  0  0  0  0
  5 28  1  0  0  0  0
  5 29  1  0  0  0  0
  6 23  1  0  0  0  0
  6  7  1  0  0  0  0
  6 30  1  0  0  0  0
  7  8  1  0  0  0  0
  7 31  1  0  0  0  0
  7 32  1  0  0  0  0
  8  9  1  0  0  0  0
  8 21  1  0  0  0  0
  9 20  1  0  0  0  0
  9 10  2  0  0  0  0
 10 11  1  0  0  0  0
 10 33  1  0  0  0  0
 11 12  1  0  0  0  0
 11 15  2  0  0  0  0
 12 13  1  0  0  0  0
 12 14  1  0  0  0  0
 12 34  1  0  0  0  0
 13 35  1  0  0  0  0
 13 36  1  0  0  0  0
 13 37  1  0  0  0  0
 14 38  1  0  0  0  0
 14 39  1  0  0  0  0
 14 40  1  0  0  0  0
 15 16  1  0  0  0  0
 16 17  1  0  0  0  0
 16 20  2  0  0  0  0
 17 18  1  0  0  0  0
 17 19  1  0  0  0  0
 17 41  1  0  0  0  0
 18 42  1  0  0  0  0
 18 43  1  0  0  0  0
 18 44  1  0  0  0  0
 19 45  1  0  0  0  0
 19 46  1  0  0  0  0
 19 47  1  0  0  0  0
 21 22  1  0  0  0  0
 21 48  1  0  0  0  0
 21 49  1  0  0  0  0
 22 23  1  0  0  0  0
 22 50  1  0  0  0  0
 22 51  1  0  0  0  0
M  END
> <s_m_source_file>
AV-unprocessed.smi

> <i_m_source_file_index>
2300

> <i_lp_mmshare_version>
43012

> <i_f3d_flags>
0

> <s_epik_input>
W0NIM11DKD1PKVtOSF1bQ0gyXVtDQEBIXTFbQ0gyXU4oW0NIMl1bQ0gyXU8xKWMyW2NIXWMoW0NIXShbQ0gzXSlbQ0gzXSluYyhuMilbQ0hdKFtDSDNdKVtDSDNd

> <s_epik_cmdline>
J2VwaWtfcHl0aG9uJywgJy1waCcsICc3LjAnLCAnLXRuJywgJzgnLCAnLW1hJywgJzIwMCcsICctbWV0YWxfYmluZGluZycsICctaW1hZScsICc8aW5maWxlLm1hZT4nLCAnLW9tYWUnLCAnPG91dGZpbGUubWFlPic=

> <r_lp_tautomer_probability>
1

> <r_epik_Ionization_Penalty>
0.0035465

> <r_epik_Ionization_Penalty_Charging>
0

> <r_epik_Ionization_Penalty_Neutral>
0.0035465

> <r_epik_State_Penalty>
0.00247846

> <r_epik_Charging_Adjusted_Penalty>
0.00247846

> <i_epik_Tot_Q>
0

> <i_epik_Tot_abs_Q>
0

> <r_epik_Metal_State_Penalty>
-0

> <b_epik_Metal_Only>
0

> <s_lp_Force_Field>
OPLS_2005

> <r_lp_Energy>
1.47364

> <b_lp_Chiralities_Consistent>
1

> <s_lp_Variant>
AV-unprocessed.smi:2300-2

> <Gold.Version>
5.8.1

> <Gold.Id.Protein>
6NUR|6NUR_protein|mol2

> <Gold.PLP.Fitness>
47.4711

> <Gold.PLP.PLP>
-41.9399

> <Gold.PLP.part.hbond>
-2.0000

> <Gold.PLP.part.metal>
0.0000

> <Gold.PLP.part.buried>
-5.6680

> <Gold.PLP.part.nonpolar>
-34.3072

> <Gold.PLP.part.repulsive>
0.2408

> <Gold.PLP.ligand.clash>
0.0000

> <Gold.PLP.ligand.torsion>
0.3754

> <Gold.PLP.Chemscore.Hbond>
1.9357

> <Gold.PLP.Chemscore.CHOScore>
0.0000

> <Gold.PLP.Chemscore.Metal>
0.0000

> <Gold.Chemscore.Hbonds>
donor molecule, donor type, donor heavy atom, donor atom, acceptor molecule, acceptor atom, score
      P1  H  6896  6908       L1     3  1.00
      P1  H 10752 10763       L1    23  0.96

> <Gold.PLP.Chemscore.Internal.Correction>
0.4747

> <Gold.Rescore>
     Score         DG    S(hbond)    S(metal)    S(lipo)     H(rot)  DE(clash)    DE(int)     intcor
     19.19     -20.12       1.87        0.00     111.42       1.82       0.07       0.86       ----

> <Gold.Chemscore.Fitness>
19.1858

> <Gold.Chemscore.DG>
-20.1193

> <Gold.Chemscore.ZeroCoef>
-5.4800

> <Gold.Chemscore.Hbond>
1.8715

> <Gold.Chemscore.Metal>
0.0000

> <Gold.Chemscore.Lipo>
111.4223

> <Gold.Chemscore.Internal_Hbond>
0.0000

> <Gold.Chemscore.DEClash>
0.0742

> <Gold.Chemscore.DEInternal>
0.8593

> <Gold.Chemscore.Rot>
1.8156

> <Gold.Chemscore.Internal.Correction>
   9.000000E+99

> <Gold.Chemscore.Hbonds>
donor molecule, donor type, donor heavy atom, donor atom, acceptor molecule, acceptor atom, score
      P1  H  6896  6908       L1     3  0.98
      P1  H 10752 10763       L1    23  0.78

> <Gold.Chemscore.Hbond.Weighted>
-6.2509

> <Gold.Chemscore.Metal.Weighted>
-0.0000

> <Gold.Chemscore.Lipo.Weighted>
-13.0364

> <Gold.Chemscore.Internal_Hbond.Weighted>
0.0000

> <Gold.Chemscore.DEClash.Weighted>
0.0742

> <Gold.Chemscore.DEInternal.Weighted>
0.8593

> <Gold.Chemscore.Rot.Weighted>
4.6481

> <Gold.Chemscore.Internal.Correction.Weighted>
   9.000000E+99

> <Gold.Protein.RotatedTorsions>
[ 6907 6896 6895 6894 ] final  122.80 input  -60.11 | X-H torsion
[ 7974 7965 7964 7962 ] final  -71.21 input  175.53 | X-H torsion
[ 8008 7997 7996 7995 ] final  -57.05 input   59.86 | X-H torsion
[ 10167 10162 10161 10158 ] final   59.06 input  -65.29 | X-H torsion
[ 10718 10713 10712 10709 ] final    1.60 input   66.30 | X-H torsion
[ 10763 10752 10751 10750 ] final   57.55 input  -60.55 | X-H torsion
[ 11005 11000 10999 10996 ] final  173.71 input  -57.11 | X-H torsion

> <Gold.Protein.ActiveResidues>
 VAL166  LYS551  ARG553  GLY616  TRP617  ASP618  TYR619  PRO620  LYS621  CYS622 
 ASP623  PHE694  ASN695  SER759  ASP760  ASP761  ALA762  ILE779  LEU786  VAL792 
 PHE793  MET794  SER795  GLU796  ALA797  LYS798  CYS799  TRP800  GLU811  SER814 

> <Gold.Protein.RotatedAtoms>
  152.4213  133.7121  159.6484 H   0  0  0  0  0  0  0  0  0  0  0  0  # atno 6907 bound_to 6896
  150.8089  133.8447  159.3197 H   0  0  0  0  0  0  0  0  0  0  0  0  # atno 6908 bound_to 6896
  151.6163  135.1038  160.0143 H   0  0  0  0  0  0  0  0  0  0  0  0  # atno 6909 bound_to 6896
  145.6810  140.9187  143.0832 H   0  0  0  0  0  0  0  0  0  0  0  0  # atno 7974 bound_to 7965
  154.4253  140.1115  156.5736 H   0  0  0  0  0  0  0  0  0  0  0  0  # atno 8008 bound_to 7997
  155.6186  140.3495  155.4626 H   0  0  0  0  0  0  0  0  0  0  0  0  # atno 8009 bound_to 7997
  156.0042  140.1205  157.0507 H   0  0  0  0  0  0  0  0  0  0  0  0  # atno 8010 bound_to 7997
  140.1805  144.4187  150.6617 H   0  0  0  0  0  0  0  0  0  0  0  0  # atno 10167 bound_to 10162
  156.8506  130.5552  149.5670 H   0  0  0  0  0  0  0  0  0  0  0  0  # atno 10718 bound_to 10713
  152.9852  135.5638  154.5409 H   0  0  0  0  0  0  0  0  0  0  0  0  # atno 10763 bound_to 10752
  154.4863  135.2791  155.1533 H   0  0  0  0  0  0  0  0  0  0  0  0  # atno 10764 bound_to 10752
  154.3021  135.6305  153.5482 H   0  0  0  0  0  0  0  0  0  0  0  0  # atno 10765 bound_to 10752
  140.3434  134.7257  157.4218 H   0  0  0  0  0  0  0  0  0  0  0  0  # atno 11005 bound_to 11000
  144.7026  139.8697  143.7439 LP  0  0  0  0  0  0  0  0  0  0  0  0  # atno 17320 bound_to 7965
  146.0964  139.3956  143.0374 LP  0  0  0  0  0  0  0  0  0  0  0  0  # atno 17321 bound_to 7965
  140.6523  143.2228  151.6049 LP  0  0  0  0  0  0  0  0  0  0  0  0  # atno 17342 bound_to 10162
  139.5298  144.2949  152.1121 LP  0  0  0  0  0  0  0  0  0  0  0  0  # atno 17343 bound_to 10162
  156.0830  130.5836  150.9597 LP  0  0  0  0  0  0  0  0  0  0  0  0  # atno 17370 bound_to 10713
  157.6305  131.0921  150.8450 LP  0  0  0  0  0  0  0  0  0  0  0  0  # atno 17371 bound_to 10713
  140.0762  134.5793  155.8588 LP  0  0  0  0  0  0  0  0  0  0  0  0  # atno 17394 bound_to 11000
  141.2032  133.6630  156.6051 LP  0  0  0  0  0  0  0  0  0  0  0  0  # atno 17395 bound_to 11000

$$$$
