AV-unprocessed.smi:3238|AV-procd|sdf|12375|dock4
  -GOLD-   2272018233D 1   1.00000     0.00000
 Structure written by MMmdl.
 37 39  0  0  0  0  0  0  0  0  1 V2000
  146.6336  138.5460  152.1170 C   0  0  0  0  0  0  0  0  0  0  0  0
  147.4176  139.6978  152.5347 N   0  0  0  0  0  0  0  0  0  0  0  0
  147.3241  140.2792  153.7401 C   0  0  0  0  0  0  0  0  0  0  0  0
  146.5679  139.8805  154.6258 O   0  0  0  0  0  0  0  0  0  0  0  0
  148.2239  141.4914  153.9897 C   0  0  0  0  0  0  0  0  0  0  0  0
  149.3020  141.1575  154.9708 C   0  0  0  0  0  0  0  0  0  0  0  0
  150.2878  140.3239  154.6587 N   0  0  0  0  0  0  0  0  0  0  0  0
  151.0534  140.2731  155.8322 O   0  0  0  0  0  0  0  0  0  0  0  0
  150.4424  141.1057  156.7085 C   0  0  0  0  0  0  0  0  0  0  0  0
  150.9859  141.2219  158.0936 C   0  0  0  0  0  0  0  0  0  0  0  0
  152.0434  142.3355  158.2218 C   0  0  2  0  0  0  0  0  0  0  0  0
  152.6106  142.5444  159.6432 C   0  0  0  0  0  0  0  0  0  0  0  0
  152.4674  144.0644  159.8484 C   0  0  2  0  0  0  0  0  0  0  0  0
  150.9840  144.4018  160.0844 C   0  0  0  0  0  0  0  0  0  0  0  0
  150.3686  144.2129  158.6856 C   0  0  0  0  0  0  0  0  0  0  0  0
  151.5746  143.7581  157.8376 C   0  0  1  0  0  0  0  0  0  0  0  0
  152.6919  144.6047  158.4397 C   0  0  0  0  0  0  0  0  0  0  0  0
  149.3415  141.6784  156.2290 N   0  0  0  0  0  0  0  0  0  0  0  0
  146.9204  138.2473  151.1088 H   0  0  0  0  0  0  0  0  0  0  0  0
  145.5691  138.7837  152.1126 H   0  0  0  0  0  0  0  0  0  0  0  0
  146.7990  137.6987  152.7837 H   0  0  0  0  0  0  0  0  0  0  0  0
  148.0627  140.0871  151.8621 H   0  0  0  0  0  0  0  0  0  0  0  0
  148.6692  141.8214  153.0498 H   0  0  0  0  0  0  0  0  0  0  0  0
  147.6281  142.3236  154.3670 H   0  0  0  0  0  0  0  0  0  0  0  0
  150.1547  141.4216  158.7705 H   0  0  0  0  0  0  0  0  0  0  0  0
  151.3983  140.2547  158.3805 H   0  0  0  0  0  0  0  0  0  0  0  0
  152.8707  142.0819  157.5562 H   0  0  0  0  0  0  0  0  0  0  0  0
  152.0725  141.9800  160.4058 H   0  0  0  0  0  0  0  0  0  0  0  0
  153.6569  142.2392  159.6842 H   0  0  0  0  0  0  0  0  0  0  0  0
  153.1339  144.4681  160.6109 H   0  0  0  0  0  0  0  0  0  0  0  0
  150.5254  143.7534  160.8319 H   0  0  0  0  0  0  0  0  0  0  0  0
  150.8664  145.4334  160.4185 H   0  0  0  0  0  0  0  0  0  0  0  0
  149.5408  143.5050  158.6791 H   0  0  0  0  0  0  0  0  0  0  0  0
  149.9818  145.1629  158.3145 H   0  0  0  0  0  0  0  0  0  0  0  0
  151.4296  143.8933  156.7654 H   0  0  0  0  0  0  0  0  0  0  0  0
  152.5161  145.6786  158.3545 H   0  0  0  0  0  0  0  0  0  0  0  0
  153.6800  144.3718  158.0387 H   0  0  0  0  0  0  0  0  0  0  0  0
  1  2  1  0  0  0  0
  1 19  1  0  0  0  0
  1 20  1  0  0  0  0
  1 21  1  0  0  0  0
  2  3  1  0  0  0  0
  2 22  1  0  0  0  0
  3  4  2  0  0  0  0
  3  5  1  0  0  0  0
  5  6  1  0  0  0  0
  5 23  1  0  0  0  0
  5 24  1  0  0  0  0
  6 18  1  0  0  0  0
  6  7  2  0  0  0  0
  7  8  1  0  0  0  0
  8  9  1  0  0  0  0
  9 10  1  0  0  0  0
  9 18  2  0  0  0  0
 10 11  1  0  0  0  0
 10 25  1  0  0  0  0
 10 26  1  0  0  0  0
 11 16  1  0  0  0  0
 11 12  1  0  0  0  0
 11 27  1  0  0  0  0
 12 13  1  0  0  0  0
 12 28  1  0  0  0  0
 12 29  1  0  0  0  0
 13 17  1  0  0  0  0
 13 14  1  0  0  0  0
 13 30  1  0  0  0  0
 14 15  1  0  0  0  0
 14 31  1  0  0  0  0
 14 32  1  0  0  0  0
 15 16  1  0  0  0  0
 15 33  1  0  0  0  0
 15 34  1  0  0  0  0
 16 17  1  0  0  0  0
 16 35  1  0  0  0  0
 17 36  1  0  0  0  0
 17 37  1  0  0  0  0
M  END
> <s_m_source_file>
AV-unprocessed.smi

> <i_m_source_file_index>
3238

> <i_lp_mmshare_version>
43012

> <i_f3d_flags>
0

> <s_epik_input>
W0NIM11bTkhdQyg9TylbQ0gyXWMxbm9jKG4xKVtDSDJdW0NASF0oW0NIMl1bQ0BIXTIzKVtDQEhdKFtDSDJdMylbQ0gyXVtDSDJdMg==

> <s_epik_cmdline>
J2VwaWtfcHl0aG9uJywgJy1waCcsICc3LjAnLCAnLXRuJywgJzgnLCAnLW1hJywgJzIwMCcsICctbWV0YWxfYmluZGluZycsICctaW1hZScsICc8aW5maWxlLm1hZT4nLCAnLW9tYWUnLCAnPG91dGZpbGUubWFlPic=

> <r_lp_tautomer_probability>
1

> <r_epik_Ionization_Penalty>
1.02915e-07

> <r_epik_Ionization_Penalty_Charging>
0

> <r_epik_Ionization_Penalty_Neutral>
1.02915e-07

> <r_epik_State_Penalty>
-0

> <r_epik_Charging_Adjusted_Penalty>
0

> <i_epik_Tot_Q>
0

> <i_epik_Tot_abs_Q>
0

> <r_epik_Metal_State_Penalty>
-0

> <b_epik_Metal_Only>
0

> <s_lp_Force_Field>
OPLS_2005

> <r_lp_Energy>
47.7222

> <b_lp_Chiralities_Consistent>
1

> <s_lp_Variant>
AV-unprocessed.smi:3238-1

> <Gold.Version>
5.8.1

> <Gold.Id.Protein>
6NUR|6NUR_protein|mol2

> <Gold.PLP.Fitness>
46.7148

> <Gold.PLP.PLP>
-41.8599

> <Gold.PLP.part.hbond>
-1.8864

> <Gold.PLP.part.metal>
0.0000

> <Gold.PLP.part.buried>
-6.4320

> <Gold.PLP.part.nonpolar>
-35.7644

> <Gold.PLP.part.repulsive>
0.7356

> <Gold.PLP.ligand.clash>
0.0000

> <Gold.PLP.ligand.torsion>
0.5438

> <Gold.PLP.Chemscore.Hbond>
1.9760

> <Gold.PLP.Chemscore.CHOScore>
0.0000

> <Gold.PLP.Chemscore.Metal>
0.0000

> <Gold.Chemscore.Hbonds>
donor molecule, donor type, donor heavy atom, donor atom, acceptor molecule, acceptor atom, score
      L1  H     2    22       P1  7957  0.98
      P1  H  7989  7998       L1     7  0.90

> <Gold.PLP.Chemscore.Internal.Correction>
0.0145

> <Gold.Rescore>
     Score         DG    S(hbond)    S(metal)    S(lipo)     H(rot)  DE(clash)    DE(int)     intcor
     17.46     -18.24       1.62        0.00     103.43       1.85       0.21       0.57       ----

> <Gold.Chemscore.Fitness>
17.4624

> <Gold.Chemscore.DG>
-18.2449

> <Gold.Chemscore.ZeroCoef>
-5.4800

> <Gold.Chemscore.Hbond>
1.6160

> <Gold.Chemscore.Metal>
0.0000

> <Gold.Chemscore.Lipo>
103.4300

> <Gold.Chemscore.Internal_Hbond>
0.0000

> <Gold.Chemscore.DEClash>
0.2087

> <Gold.Chemscore.DEInternal>
0.5739

> <Gold.Chemscore.Rot>
1.8492

> <Gold.Chemscore.Internal.Correction>
   9.000000E+99

> <Gold.Chemscore.Hbonds>
donor molecule, donor type, donor heavy atom, donor atom, acceptor molecule, acceptor atom, score
      L1  H     2    22       P1  7957  0.93
      P1  H  7989  7998       L1     7  0.17

> <Gold.Chemscore.Hbond.Weighted>
-5.3976

> <Gold.Chemscore.Metal.Weighted>
-0.0000

> <Gold.Chemscore.Lipo.Weighted>
-12.1013

> <Gold.Chemscore.Internal_Hbond.Weighted>
0.0000

> <Gold.Chemscore.DEClash.Weighted>
0.2087

> <Gold.Chemscore.DEInternal.Weighted>
0.5739

> <Gold.Chemscore.Rot.Weighted>
4.7340

> <Gold.Chemscore.Internal.Correction.Weighted>
   9.000000E+99

> <Gold.Protein.RotatedTorsions>
[ 6907 6896 6895 6894 ] final   91.48 input  -60.11 | X-H torsion
[ 7974 7965 7964 7962 ] final    0.84 input  175.53 | X-H torsion
[ 8008 7997 7996 7995 ] final   35.86 input   59.86 | X-H torsion
[ 10167 10162 10161 10158 ] final  -58.61 input  -65.29 | X-H torsion
[ 10718 10713 10712 10709 ] final -173.92 input   66.30 | X-H torsion
[ 10763 10752 10751 10750 ] final -144.57 input  -60.55 | X-H torsion
[ 11005 11000 10999 10996 ] final  -16.14 input  -57.11 | X-H torsion

> <Gold.Protein.ActiveResidues>
 VAL166  LYS551  ARG553  GLY616  TRP617  ASP618  TYR619  PRO620  LYS621  CYS622 
 ASP623  PHE694  ASN695  SER759  ASP760  ASP761  ALA762  ILE779  LEU786  VAL792 
 PHE793  MET794  SER795  GLU796  ALA797  LYS798  CYS799  TRP800  GLU811  SER814 

> <Gold.Protein.RotatedAtoms>
  152.5450  134.1650  159.8572 H   0  0  0  0  0  0  0  0  0  0  0  0  # atno 6907 bound_to 6896
  151.1665  133.4804  159.2601 H   0  0  0  0  0  0  0  0  0  0  0  0  # atno 6908 bound_to 6896
  151.1319  135.0146  159.8641 H   0  0  0  0  0  0  0  0  0  0  0  0  # atno 6909 bound_to 6896
  146.2437  140.1078  142.8345 H   0  0  0  0  0  0  0  0  0  0  0  0  # atno 7974 bound_to 7965
  155.1780  140.3297  155.4380 H   0  0  0  0  0  0  0  0  0  0  0  0  # atno 8008 bound_to 7997
  156.2487  140.1932  156.6830 H   0  0  0  0  0  0  0  0  0  0  0  0  # atno 8009 bound_to 7997
  154.6291  140.0585  156.9696 H   0  0  0  0  0  0  0  0  0  0  0  0  # atno 8010 bound_to 7997
  140.6186  143.2411  151.5535 H   0  0  0  0  0  0  0  0  0  0  0  0  # atno 10167 bound_to 10162
  156.7775  130.9471  151.3120 H   0  0  0  0  0  0  0  0  0  0  0  0  # atno 10718 bound_to 10713
  154.8422  135.3437  154.6367 H   0  0  0  0  0  0  0  0  0  0  0  0  # atno 10763 bound_to 10752
  153.6977  135.6971  153.5076 H   0  0  0  0  0  0  0  0  0  0  0  0  # atno 10764 bound_to 10752
  153.2546  135.4342  155.0787 H   0  0  0  0  0  0  0  0  0  0  0  0  # atno 10765 bound_to 10752
  140.8038  133.8193  155.9495 H   0  0  0  0  0  0  0  0  0  0  0  0  # atno 11005 bound_to 11000
  145.0513  140.9020  143.4993 LP  0  0  0  0  0  0  0  0  0  0  0  0  # atno 17320 bound_to 7965
  145.1176  139.2715  143.5605 LP  0  0  0  0  0  0  0  0  0  0  0  0  # atno 17321 bound_to 7965
  139.5420  144.2623  152.1369 LP  0  0  0  0  0  0  0  0  0  0  0  0  # atno 17342 bound_to 10162
  140.1838  144.4819  150.6514 LP  0  0  0  0  0  0  0  0  0  0  0  0  # atno 17343 bound_to 10162
  157.6662  130.9010  149.9937 LP  0  0  0  0  0  0  0  0  0  0  0  0  # atno 17370 bound_to 10713
  156.1239  130.3645  149.9842 LP  0  0  0  0  0  0  0  0  0  0  0  0  # atno 17371 bound_to 10713
  140.9268  134.2072  157.4890 LP  0  0  0  0  0  0  0  0  0  0  0  0  # atno 17394 bound_to 11000
  139.8719  134.9816  156.5122 LP  0  0  0  0  0  0  0  0  0  0  0  0  # atno 17395 bound_to 11000

$$$$
