AV-unprocessed.smi:1048|AV-procd|sdf|4605|dock9
  -GOLD-   22720 3103D 1   1.00000     0.00000
 Structure written by MMmdl.
 46 47  0  0  0  0  0  0  0  0  2 V2000
  144.2182  144.7980  154.7935 C   0  0  0  0  0  0  0  0  0  0  0  0
  145.1069  143.5637  155.0024 C   0  0  2  0  0  0  0  0  0  0  0  0
  145.9692  143.2665  153.7638 C   0  0  0  0  0  0  0  0  0  0  0  0
  146.8278  142.0072  153.9680 C   0  0  0  0  0  0  0  0  0  0  0  0
  145.9820  140.8331  154.3016 N   0  3  1  0  0  0  0  0  0  0  0  0
  146.7597  139.5681  154.3549 C   0  0  0  0  0  0  0  0  0  0  0  0
  147.5218  139.2929  153.0425 C   0  0  1  0  0  0  0  0  0  0  0  0
  148.4902  138.2996  153.3201 O   0  0  0  0  0  0  0  0  0  0  0  0
  146.5816  138.7721  151.9367 C   0  0  0  0  0  0  0  0  0  0  0  0
  146.7997  137.3558  151.6611 N   0  0  0  0  0  0  0  0  0  0  0  0
  145.8317  136.4340  151.5622 C   0  0  0  0  0  0  0  0  0  0  0  0
  144.6353  136.6925  151.6901 O   0  0  0  0  0  0  0  0  0  0  0  0
  146.3459  135.2142  151.3292 N   0  0  0  0  0  0  0  0  0  0  0  0
  145.6615  133.9788  151.1691 C   0  0  0  0  0  0  0  0  0  0  0  0
  144.2568  134.0134  151.0513 C   0  0  0  0  0  0  0  0  0  0  0  0
  143.5491  132.8050  150.9082 C   0  0  0  0  0  0  0  0  0  0  0  0
  144.2778  131.6002  150.8972 C   0  0  0  0  0  0  0  0  0  0  0  0
  145.6203  131.5465  151.0234 N   0  0  0  0  0  0  0  0  0  0  0  0
  146.2929  132.7098  151.1585 C   0  0  0  0  0  0  0  0  0  0  0  0
  145.1693  141.0777  155.5226 C   0  0  0  0  0  0  0  0  0  0  0  0
  144.2757  142.3179  155.3535 C   0  0  0  0  0  0  0  0  0  0  0  0
  143.5250  144.6528  153.9644 H   0  0  0  0  0  0  0  0  0  0  0  0
  144.8179  145.6818  154.5736 H   0  0  0  0  0  0  0  0  0  0  0  0
  143.6288  145.0132  155.6855 H   0  0  0  0  0  0  0  0  0  0  0  0
  145.7750  143.7737  155.8392 H   0  0  0  0  0  0  0  0  0  0  0  0
  145.3293  143.1313  152.8905 H   0  0  0  0  0  0  0  0  0  0  0  0
  146.6141  144.1181  153.5441 H   0  0  0  0  0  0  0  0  0  0  0  0
  147.3904  141.8094  153.0548 H   0  0  0  0  0  0  0  0  0  0  0  0
  147.5577  142.1699  154.7627 H   0  0  0  0  0  0  0  0  0  0  0  0
  147.4813  139.6081  155.1726 H   0  0  0  0  0  0  0  0  0  0  0  0
  146.0847  138.7438  154.5907 H   0  0  0  0  0  0  0  0  0  0  0  0
  148.0233  140.1970  152.6977 H   0  0  0  0  0  0  0  0  0  0  0  0
  148.5939  137.7526  152.5558 H   0  0  0  0  0  0  0  0  0  0  0  0
  145.5353  138.9821  152.1666 H   0  0  0  0  0  0  0  0  0  0  0  0
  146.7949  139.2957  151.0042 H   0  0  0  0  0  0  0  0  0  0  0  0
  147.7561  137.0551  151.5426 H   0  0  0  0  0  0  0  0  0  0  0  0
  147.3534  135.1527  151.3209 H   0  0  0  0  0  0  0  0  0  0  0  0
  143.7252  134.9538  151.0655 H   0  0  0  0  0  0  0  0  0  0  0  0
  142.4737  132.8017  150.8100 H   0  0  0  0  0  0  0  0  0  0  0  0
  143.7683  130.6540  150.7903 H   0  0  0  0  0  0  0  0  0  0  0  0
  147.3585  132.5987  151.2810 H   0  0  0  0  0  0  0  0  0  0  0  0
  144.5392  140.2161  155.7398 H   0  0  0  0  0  0  0  0  0  0  0  0
  145.8302  141.2073  156.3813 H   0  0  0  0  0  0  0  0  0  0  0  0
  143.7138  142.4919  156.2719 H   0  0  0  0  0  0  0  0  0  0  0  0
  143.5383  142.1307  154.5714 H   0  0  0  0  0  0  0  0  0  0  0  0
  145.3350  140.7293  153.5322 H   0  0  0  0  0  0  0  0  0  0  0  0
  1  2  1  0  0  0  0
  1 22  1  0  0  0  0
  1 23  1  0  0  0  0
  1 24  1  0  0  0  0
  2 21  1  0  0  0  0
  2  3  1  0  0  0  0
  2 25  1  0  0  0  0
  3  4  1  0  0  0  0
  3 26  1  0  0  0  0
  3 27  1  0  0  0  0
  4  5  1  0  0  0  0
  4 28  1  0  0  0  0
  4 29  1  0  0  0  0
  5  6  1  0  0  0  0
  5 20  1  0  0  0  0
  5 46  1  0  0  0  0
  6  7  1  0  0  0  0
  6 30  1  0  0  0  0
  6 31  1  0  0  0  0
  7  8  1  0  0  0  0
  7  9  1  0  0  0  0
  7 32  1  0  0  0  0
  8 33  1  0  0  0  0
  9 10  1  0  0  0  0
  9 34  1  0  0  0  0
  9 35  1  0  0  0  0
 10 11  1  0  0  0  0
 10 36  1  0  0  0  0
 11 12  2  0  0  0  0
 11 13  1  0  0  0  0
 13 14  1  0  0  0  0
 13 37  1  0  0  0  0
 14 19  1  0  0  0  0
 14 15  2  0  0  0  0
 15 16  1  0  0  0  0
 15 38  1  0  0  0  0
 16 17  2  0  0  0  0
 16 39  1  0  0  0  0
 17 18  1  0  0  0  0
 17 40  1  0  0  0  0
 18 19  2  0  0  0  0
 19 41  1  0  0  0  0
 20 21  1  0  0  0  0
 20 42  1  0  0  0  0
 20 43  1  0  0  0  0
 21 44  1  0  0  0  0
 21 45  1  0  0  0  0
M  CHG  1   5   1
M  END
> <s_m_source_file>
AV-unprocessed.smi

> <i_m_source_file_index>
1048

> <i_lp_mmshare_version>
43012

> <i_f3d_flags>
0

> <s_epik_input>
W0NIM11bQ0hdMVtDSDJdW0NIMl1OKFtDSDJdW0NIMl0xKVtDSDJdW0NASF0oW09IXSlbQ0gyXVtOSF1DKD1PKVtOSF1jMltjSF1bY0hdW2NIXW5bY0hdMg==

> <s_epik_cmdline>
J2VwaWtfcHl0aG9uJywgJy1waCcsICc3LjAnLCAnLXRuJywgJzgnLCAnLW1hJywgJzIwMCcsICctbWV0YWxfYmluZGluZycsICctaW1hZScsICc8aW5maWxlLm1hZT4nLCAnLW9tYWUnLCAnPG91dGZpbGUubWFlPic=

> <r_lp_tautomer_probability>
1

> <r_epik_Ionization_Penalty>
0.00581049

> <r_epik_Ionization_Penalty_Charging>
0.00147689

> <r_epik_Ionization_Penalty_Neutral>
0.0043336

> <r_epik_State_Penalty>
-0

> <r_epik_Charging_Adjusted_Penalty>
0.00147689

> <i_epik_Tot_Q>
1

> <i_epik_Tot_abs_Q>
1

> <r_epik_Metal_State_Penalty>
-0

> <b_epik_Metal_Only>
0

> <s_lp_Force_Field>
OPLS_2005

> <r_lp_Energy>
22.9407

> <b_lp_Chiralities_Consistent>
1

> <s_lp_Variant>
AV-unprocessed.smi:1048-2

> <Gold.Version>
5.8.1

> <Gold.Id.Protein>
6NUR|6NUR_protein|mol2

> <Gold.PLP.Fitness>
55.0768

> <Gold.PLP.PLP>
-39.6935

> <Gold.PLP.part.hbond>
-4.7538

> <Gold.PLP.part.metal>
0.0000

> <Gold.PLP.part.buried>
-5.4601

> <Gold.PLP.part.nonpolar>
-31.5540

> <Gold.PLP.part.repulsive>
1.6593

> <Gold.PLP.ligand.clash>
0.0000

> <Gold.PLP.ligand.torsion>
0.9186

> <Gold.PLP.Chemscore.Hbond>
4.7353

> <Gold.PLP.Chemscore.CHOScore>
0.9921

> <Gold.PLP.Chemscore.Metal>
0.0000

> <Gold.Chemscore.Hbonds>
donor molecule, donor type, donor heavy atom, donor atom, acceptor molecule, acceptor atom, score
      L1  H     5    46       P1 10175  2.00
      L1  H     8    33       P1  7948  1.00
      L1  H    10    36       P1  7948  0.80
      L1  H    13    37       P1  7948  0.82
      L1  C    19    41       P1 10747  0.88

> <Gold.PLP.Chemscore.Internal.Correction>
0.0383

> <Gold.Rescore>
     Score         DG    S(hbond)    S(metal)    S(lipo)     H(rot)  DE(clash)    DE(int)     intcor
     16.80     -20.59       3.37        0.00      83.01       2.29       1.47       2.33       ----

> <Gold.Chemscore.Fitness>
16.7990

> <Gold.Chemscore.DG>
-20.5921

> <Gold.Chemscore.ZeroCoef>
-5.4800

> <Gold.Chemscore.Hbond>
3.3694

> <Gold.Chemscore.Metal>
0.0000

> <Gold.Chemscore.Lipo>
83.0057

> <Gold.Chemscore.Internal_Hbond>
0.0000

> <Gold.Chemscore.DEClash>
1.4673

> <Gold.Chemscore.DEInternal>
2.3258

> <Gold.Chemscore.Rot>
2.2865

> <Gold.Chemscore.Internal.Correction>
   9.000000E+99

> <Gold.Chemscore.Hbonds>
donor molecule, donor type, donor heavy atom, donor atom, acceptor molecule, acceptor atom, score
      L1  H     5    46       P1 10175  0.89
      L1  H     8    33       P1  7948  0.95
      L1  H    10    36       P1  7948  0.77
      L1  H    13    37       P1  7948  0.53

> <Gold.Chemscore.Hbond.Weighted>
-11.2540

> <Gold.Chemscore.Metal.Weighted>
-0.0000

> <Gold.Chemscore.Lipo.Weighted>
-9.7117

> <Gold.Chemscore.Internal_Hbond.Weighted>
0.0000

> <Gold.Chemscore.DEClash.Weighted>
1.4673

> <Gold.Chemscore.DEInternal.Weighted>
2.3258

> <Gold.Chemscore.Rot.Weighted>
5.8536

> <Gold.Chemscore.Internal.Correction.Weighted>
   9.000000E+99

> <Gold.Protein.RotatedTorsions>
[ 6907 6896 6895 6894 ] final  -27.26 input  -60.11 | X-H torsion
[ 7974 7965 7964 7962 ] final -157.54 input  175.53 | X-H torsion
[ 8008 7997 7996 7995 ] final   -1.99 input   59.86 | X-H torsion
[ 10167 10162 10161 10158 ] final -106.00 input  -65.29 | X-H torsion
[ 10718 10713 10712 10709 ] final   75.05 input   66.30 | X-H torsion
[ 10763 10752 10751 10750 ] final   17.24 input  -60.55 | X-H torsion
[ 11005 11000 10999 10996 ] final  -28.53 input  -57.11 | X-H torsion

> <Gold.Protein.ActiveResidues>
 VAL166  LYS551  ARG553  GLY616  TRP617  ASP618  TYR619  PRO620  LYS621  CYS622 
 ASP623  PHE694  ASN695  SER759  ASP760  ASP761  ALA762  ILE779  LEU786  VAL792 
 PHE793  MET794  SER795  GLU796  ALA797  LYS798  CYS799  TRP800  GLU811  SER814 

> <Gold.Protein.RotatedAtoms>
  151.1494  135.0220  159.8661 H   0  0  0  0  0  0  0  0  0  0  0  0  # atno 6907 bound_to 6896
  152.5453  134.1406  159.8487 H   0  0  0  0  0  0  0  0  0  0  0  0  # atno 6908 bound_to 6896
  151.1490  133.4874  159.2628 H   0  0  0  0  0  0  0  0  0  0  0  0  # atno 6909 bound_to 6896
  144.7544  140.3954  143.6024 H   0  0  0  0  0  0  0  0  0  0  0  0  # atno 7974 bound_to 7965
  154.6407  140.2545  155.7325 H   0  0  0  0  0  0  0  0  0  0  0  0  # atno 8008 bound_to 7997
  156.2527  140.2888  156.0720 H   0  0  0  0  0  0  0  0  0  0  0  0  # atno 8009 bound_to 7997
  155.1601  140.0384  157.2831 H   0  0  0  0  0  0  0  0  0  0  0  0  # atno 8010 bound_to 7997
  140.1925  143.3881  152.1195 H   0  0  0  0  0  0  0  0  0  0  0  0  # atno 10167 bound_to 10162
  157.6618  130.9708  150.1299 H   0  0  0  0  0  0  0  0  0  0  0  0  # atno 10718 bound_to 10713
  153.1357  135.6749  153.9107 H   0  0  0  0  0  0  0  0  0  0  0  0  # atno 10763 bound_to 10752
  153.8580  135.3085  155.3437 H   0  0  0  0  0  0  0  0  0  0  0  0  # atno 10764 bound_to 10752
  154.7745  135.4921  153.9799 H   0  0  0  0  0  0  0  0  0  0  0  0  # atno 10765 bound_to 10752
  140.9217  133.7395  156.0810 H   0  0  0  0  0  0  0  0  0  0  0  0  # atno 11005 bound_to 11000
  145.6832  139.1623  143.2689 LP  0  0  0  0  0  0  0  0  0  0  0  0  # atno 17320 bound_to 7965
  146.1535  140.6891  142.9311 LP  0  0  0  0  0  0  0  0  0  0  0  0  # atno 17321 bound_to 7965
  139.5250  144.7091  151.5263 LP  0  0  0  0  0  0  0  0  0  0  0  0  # atno 17342 bound_to 10162
  140.6446  143.8820  150.6725 LP  0  0  0  0  0  0  0  0  0  0  0  0  # atno 17343 bound_to 10162
  156.2148  130.3669  149.8626 LP  0  0  0  0  0  0  0  0  0  0  0  0  # atno 17370 bound_to 10713
  156.6495  130.8738  151.3529 LP  0  0  0  0  0  0  0  0  0  0  0  0  # atno 17371 bound_to 10713
  140.7979  134.3542  157.5447 LP  0  0  0  0  0  0  0  0  0  0  0  0  # atno 17394 bound_to 11000
  139.8777  134.9180  156.3192 LP  0  0  0  0  0  0  0  0  0  0  0  0  # atno 17395 bound_to 11000

$$$$
