AV-unprocessed.smi:3032|AV-procd|sdf|11568|dock3
  -GOLD-   2272016533D 1   1.00000     0.00000
 Structure written by MMmdl.
 37 38  0  0  0  0  0  0  0  0  1 V2000
  153.0077  142.8819  162.7450 C   0  0  0  0  0  0  0  0  0  0  0  0
  152.3568  143.2516  161.4045 C   0  0  1  0  0  0  0  0  0  0  0  0
  152.0802  144.7636  161.3135 C   0  0  0  0  0  0  0  0  0  0  0  0
  151.4253  145.1388  159.9757 C   0  0  0  0  0  0  0  0  0  0  0  0
  152.2817  144.6772  158.7826 C   0  0  0  0  0  0  0  0  0  0  0  0
  152.6511  143.1761  158.8296 C   0  0  2  0  0  0  0  0  0  0  0  0
  151.4915  142.2593  158.3957 C   0  0  0  0  0  0  0  0  0  0  0  0
  151.0024  141.4427  159.1761 O   0  0  0  0  0  0  0  0  0  0  0  0
  151.0604  142.4040  157.1326 N   0  0  0  0  0  0  0  0  0  0  0  0
  149.9938  141.6236  156.5161 C   0  0  0  0  0  0  0  0  0  0  0  0
  150.1494  140.1231  156.8117 C   0  0  0  0  0  0  0  0  0  0  0  0
  151.3312  139.5238  156.1227 C   0  0  0  0  0  0  0  0  0  0  0  0
  152.0606  140.1383  155.1834 N   0  0  0  0  0  0  0  0  0  0  0  0
  153.0548  139.2373  154.8351 N   0  0  0  0  0  0  0  0  0  0  0  0
  152.8312  138.1689  155.6019 C   0  0  0  0  0  0  0  0  0  0  0  0
  151.7788  138.2940  156.4187 N   0  0  0  0  0  0  0  0  0  0  0  0
  153.2260  142.7909  160.2137 C   0  0  0  0  0  0  0  0  0  0  0  0
  151.4147  137.6305  157.0869 H   0  0  0  0  0  0  0  0  0  0  0  0
  153.9735  143.3732  162.8669 H   0  0  0  0  0  0  0  0  0  0  0  0
  153.1692  141.8062  162.8191 H   0  0  0  0  0  0  0  0  0  0  0  0
  152.3756  143.1774  163.5828 H   0  0  0  0  0  0  0  0  0  0  0  0
  151.4006  142.7303  161.3623 H   0  0  0  0  0  0  0  0  0  0  0  0
  151.4341  145.0753  162.1349 H   0  0  0  0  0  0  0  0  0  0  0  0
  153.0135  145.3168  161.4282 H   0  0  0  0  0  0  0  0  0  0  0  0
  150.4283  144.7024  159.9189 H   0  0  0  0  0  0  0  0  0  0  0  0
  151.2828  146.2186  159.9272 H   0  0  0  0  0  0  0  0  0  0  0  0
  151.7664  144.9106  157.8499 H   0  0  0  0  0  0  0  0  0  0  0  0
  153.2020  145.2626  158.7660 H   0  0  0  0  0  0  0  0  0  0  0  0
  153.4510  143.0270  158.1020 H   0  0  0  0  0  0  0  0  0  0  0  0
  151.5104  143.0994  156.5551 H   0  0  0  0  0  0  0  0  0  0  0  0
  149.0206  141.9830  156.8551 H   0  0  0  0  0  0  0  0  0  0  0  0
  150.0297  141.7947  155.4400 H   0  0  0  0  0  0  0  0  0  0  0  0
  150.2469  139.9608  157.8860 H   0  0  0  0  0  0  0  0  0  0  0  0
  149.2572  139.5807  156.4963 H   0  0  0  0  0  0  0  0  0  0  0  0
  153.4467  137.2820  155.5670 H   0  0  0  0  0  0  0  0  0  0  0  0
  154.2198  143.2300  160.3101 H   0  0  0  0  0  0  0  0  0  0  0  0
  153.3758  141.7113  160.2647 H   0  0  0  0  0  0  0  0  0  0  0  0
  1  2  1  0  0  0  0
  1 19  1  0  0  0  0
  1 20  1  0  0  0  0
  1 21  1  0  0  0  0
  2 17  1  0  0  0  0
  2  3  1  0  0  0  0
  2 22  1  0  0  0  0
  3  4  1  0  0  0  0
  3 23  1  0  0  0  0
  3 24  1  0  0  0  0
  4  5  1  0  0  0  0
  4 25  1  0  0  0  0
  4 26  1  0  0  0  0
  5  6  1  0  0  0  0
  5 27  1  0  0  0  0
  5 28  1  0  0  0  0
  6  7  1  0  0  0  0
  6 17  1  0  0  0  0
  6 29  1  0  0  0  0
  7  8  2  0  0  0  0
  7  9  1  0  0  0  0
  9 10  1  0  0  0  0
  9 30  1  0  0  0  0
 10 11  1  0  0  0  0
 10 31  1  0  0  0  0
 10 32  1  0  0  0  0
 11 12  1  0  0  0  0
 11 33  1  0  0  0  0
 11 34  1  0  0  0  0
 12 16  1  0  0  0  0
 12 13  2  0  0  0  0
 13 14  1  0  0  0  0
 14 15  2  0  0  0  0
 15 16  1  0  0  0  0
 15 35  1  0  0  0  0
 16 18  1  0  0  0  0
 17 36  1  0  0  0  0
 17 37  1  0  0  0  0
M  END
> <s_m_source_file>
AV-unprocessed.smi

> <i_m_source_file_index>
3032

> <i_lp_mmshare_version>
43012

> <i_f3d_flags>
0

> <s_epik_input>
W0NIM11bQ0BASF0xW0NIMl1bQ0gyXVtDSDJdW0NASF0oW0NIMl0xKUMoPU8pW05IXVtDSDJdW0NIMl1jMm5uW2NIXVtuSF0y

> <s_epik_cmdline>
J2VwaWtfcHl0aG9uJywgJy1waCcsICc3LjAnLCAnLXRuJywgJzgnLCAnLW1hJywgJzIwMCcsICctbWV0YWxfYmluZGluZycsICctaW1hZScsICc8aW5maWxlLm1hZT4nLCAnLW9tYWUnLCAnPG91dGZpbGUubWFlPic=

> <r_lp_tautomer_probability>
0.0517155

> <r_epik_Ionization_Penalty>
0.00149837

> <r_epik_Ionization_Penalty_Charging>
0

> <r_epik_Ionization_Penalty_Neutral>
0.00149837

> <r_epik_State_Penalty>
2.1109

> <r_epik_Charging_Adjusted_Penalty>
2.1109

> <i_epik_Tot_Q>
0

> <i_epik_Tot_abs_Q>
0

> <r_epik_Metal_State_Penalty>
2.23635

> <b_epik_Metal_Only>
0

> <s_lp_Force_Field>
OPLS_2005

> <r_lp_Energy>
9.23597

> <b_lp_Chiralities_Consistent>
1

> <s_lp_Variant>
AV-unprocessed.smi:3032-12

> <Gold.Version>
5.8.1

> <Gold.Id.Protein>
6NUR|6NUR_protein|mol2

> <Gold.PLP.Fitness>
46.3452

> <Gold.PLP.PLP>
-41.9374

> <Gold.PLP.part.hbond>
-3.3529

> <Gold.PLP.part.metal>
0.0000

> <Gold.PLP.part.buried>
-3.8458

> <Gold.PLP.part.nonpolar>
-35.5274

> <Gold.PLP.part.repulsive>
0.2014

> <Gold.PLP.ligand.clash>
0.0000

> <Gold.PLP.ligand.torsion>
0.2962

> <Gold.PLP.Chemscore.Hbond>
1.6480

> <Gold.PLP.Chemscore.CHOScore>
0.0000

> <Gold.PLP.Chemscore.Metal>
0.0000

> <Gold.Chemscore.Hbonds>
donor molecule, donor type, donor heavy atom, donor atom, acceptor molecule, acceptor atom, score
      P1  H  7989  7998       L1    13  0.77
      P1  H  7997  8008       L1    14  0.88

> <Gold.PLP.Chemscore.Internal.Correction>
0.0561

> <Gold.Rescore>
     Score         DG    S(hbond)    S(metal)    S(lipo)     H(rot)  DE(clash)    DE(int)     intcor
     11.98     -13.70       0.75        0.00      98.15       2.25       0.01       1.70       ----

> <Gold.Chemscore.Fitness>
11.9838

> <Gold.Chemscore.DG>
-13.6979

> <Gold.Chemscore.ZeroCoef>
-5.4800

> <Gold.Chemscore.Hbond>
0.7470

> <Gold.Chemscore.Metal>
0.0000

> <Gold.Chemscore.Lipo>
98.1471

> <Gold.Chemscore.Internal_Hbond>
0.0000

> <Gold.Chemscore.DEClash>
0.0115

> <Gold.Chemscore.DEInternal>
1.7025

> <Gold.Chemscore.Rot>
2.2501

> <Gold.Chemscore.Internal.Correction>
   9.000000E+99

> <Gold.Chemscore.Hbonds>
donor molecule, donor type, donor heavy atom, donor atom, acceptor molecule, acceptor atom, score
      P1  H  7989  7998       L1    13  0.19
      P1  H  7997  8008       L1    14  0.12

> <Gold.Chemscore.Hbond.Weighted>
-2.4950

> <Gold.Chemscore.Metal.Weighted>
-0.0000

> <Gold.Chemscore.Lipo.Weighted>
-11.4832

> <Gold.Chemscore.Internal_Hbond.Weighted>
0.0000

> <Gold.Chemscore.DEClash.Weighted>
0.0115

> <Gold.Chemscore.DEInternal.Weighted>
1.7025

> <Gold.Chemscore.Rot.Weighted>
5.7603

> <Gold.Chemscore.Internal.Correction.Weighted>
   9.000000E+99

> <Gold.Protein.RotatedTorsions>
[ 6907 6896 6895 6894 ] final   44.95 input  -60.11 | X-H torsion
[ 7974 7965 7964 7962 ] final  122.66 input  175.53 | X-H torsion
[ 8008 7997 7996 7995 ] final    5.52 input   59.86 | X-H torsion
[ 10167 10162 10161 10158 ] final -143.60 input  -65.29 | X-H torsion
[ 10718 10713 10712 10709 ] final  175.74 input   66.30 | X-H torsion
[ 10763 10752 10751 10750 ] final  168.36 input  -60.55 | X-H torsion
[ 11005 11000 10999 10996 ] final   81.88 input  -57.11 | X-H torsion

> <Gold.Protein.ActiveResidues>
 VAL166  LYS551  ARG553  GLY616  TRP617  ASP618  TYR619  PRO620  LYS621  CYS622 
 ASP623  PHE694  ASN695  SER759  ASP760  ASP761  ALA762  ILE779  LEU786  VAL792 
 PHE793  MET794  SER795  GLU796  ALA797  LYS798  CYS799  TRP800  GLU811  SER814 

> <Gold.Protein.RotatedAtoms>
  152.2386  134.8251  160.0463 H   0  0  0  0  0  0  0  0  0  0  0  0  # atno 6907 bound_to 6896
  151.8973  133.3525  159.3827 H   0  0  0  0  0  0  0  0  0  0  0  0  # atno 6908 bound_to 6896
  150.7047  134.4789  159.5505 H   0  0  0  0  0  0  0  0  0  0  0  0  # atno 6909 bound_to 6896
  145.1049  139.3492  143.4793 H   0  0  0  0  0  0  0  0  0  0  0  0  # atno 7974 bound_to 7965
  154.7294  140.2727  155.6469 H   0  0  0  0  0  0  0  0  0  0  0  0  # atno 8008 bound_to 7997
  156.2846  140.2718  156.1915 H   0  0  0  0  0  0  0  0  0  0  0  0  # atno 8009 bound_to 7997
  155.0401  140.0371  157.2496 H   0  0  0  0  0  0  0  0  0  0  0  0  # atno 8010 bound_to 7997
  139.7978  143.7875  152.2656 H   0  0  0  0  0  0  0  0  0  0  0  0  # atno 10167 bound_to 10162
  156.9305  130.9969  151.2988 H   0  0  0  0  0  0  0  0  0  0  0  0  # atno 10718 bound_to 10713
  154.3673  135.2753  155.2286 H   0  0  0  0  0  0  0  0  0  0  0  0  # atno 10763 bound_to 10752
  154.4448  135.5945  153.6156 H   0  0  0  0  0  0  0  0  0  0  0  0  # atno 10764 bound_to 10752
  152.9840  135.6027  154.3901 H   0  0  0  0  0  0  0  0  0  0  0  0  # atno 10765 bound_to 10752
  139.9083  134.8030  156.2100 H   0  0  0  0  0  0  0  0  0  0  0  0  # atno 11005 bound_to 11000
  146.3528  140.0943  142.8611 LP  0  0  0  0  0  0  0  0  0  0  0  0  # atno 17320 bound_to 7965
  145.0913  140.9286  143.4767 LP  0  0  0  0  0  0  0  0  0  0  0  0  # atno 17321 bound_to 7965
  139.7986  144.7383  150.9856 LP  0  0  0  0  0  0  0  0  0  0  0  0  # atno 17342 bound_to 10162
  140.7820  143.4368  151.0611 LP  0  0  0  0  0  0  0  0  0  0  0  0  # atno 17343 bound_to 10162
  157.5850  130.8403  149.8576 LP  0  0  0  0  0  0  0  0  0  0  0  0  # atno 17370 bound_to 10713
  156.0449  130.3730  150.1341 LP  0  0  0  0  0  0  0  0  0  0  0  0  # atno 17371 bound_to 10713
  141.0471  133.6907  156.1704 LP  0  0  0  0  0  0  0  0  0  0  0  0  # atno 17394 bound_to 11000
  140.6867  134.4710  157.5589 LP  0  0  0  0  0  0  0  0  0  0  0  0  # atno 17395 bound_to 11000

$$$$
