AV-unprocessed.smi:1064|AV-procd|sdf|4664|dock1
  -GOLD-   22720 3173D 1   1.00000     0.00000
 Structure written by MMmdl.
 35 36  0  0  0  0  0  0  0  0  1 V2000
  150.6898  140.2945  154.9745 O   0  0  0  0  0  0  0  0  0  0  0  0
  149.8125  141.1506  155.1004 C   0  0  0  0  0  0  0  0  0  0  0  0
  149.9630  142.2124  155.9105 N   0  0  0  0  0  0  0  0  0  0  0  0
  151.1286  142.4696  156.7476 C   0  0  0  0  0  0  0  0  0  0  0  0
  150.8455  142.1371  158.2214 C   0  0  0  0  0  0  0  0  0  0  0  0
  151.1678  143.2764  159.1370 C   0  0  0  0  0  0  0  0  0  0  0  0
  150.7285  144.5168  158.9472 N   0  0  0  0  0  0  0  0  0  0  0  0
  151.2828  145.2527  159.9882 C   0  0  0  0  0  0  0  0  0  0  0  0
  152.0497  144.4259  160.7725 C   0  0  0  0  0  0  0  0  0  0  0  0
  151.9641  143.1538  160.2179 N   0  0  0  0  0  0  0  0  0  0  0  0
  152.6335  141.9565  160.7010 C   0  0  0  0  0  0  0  0  0  0  0  0
  153.5508  141.5614  159.8188 F   0  0  0  0  0  0  0  0  0  0  0  0
  153.2154  142.1869  161.8785 F   0  0  0  0  0  0  0  0  0  0  0  0
  148.6401  141.1184  154.4172 N   0  0  0  0  0  0  0  0  0  0  0  0
  147.4623  141.9590  154.6887 C   0  0  0  0  0  0  0  0  0  0  0  0
  146.4920  141.1864  155.5977 C   0  0  0  0  0  0  0  0  0  0  0  0
  145.8856  139.6813  154.7729 S   0  0  0  0  0  0  0  0  0  0  0  0
  147.4690  138.9730  154.2206 C   0  0  0  0  0  0  0  0  0  0  0  0
  148.3217  140.0252  153.4910 C   0  0  0  0  0  0  0  0  0  0  0  0
  149.2121  142.8860  155.9529 H   0  0  0  0  0  0  0  0  0  0  0  0
  151.9830  141.8988  156.3808 H   0  0  0  0  0  0  0  0  0  0  0  0
  151.3950  143.5223  156.6486 H   0  0  0  0  0  0  0  0  0  0  0  0
  149.7911  141.8854  158.3442 H   0  0  0  0  0  0  0  0  0  0  0  0
  151.4010  141.2521  158.5290 H   0  0  0  0  0  0  0  0  0  0  0  0
  151.0947  146.3115  160.0880 H   0  0  0  0  0  0  0  0  0  0  0  0
  152.6354  144.6350  161.6555 H   0  0  0  0  0  0  0  0  0  0  0  0
  151.9179  141.1476  160.8454 H   0  0  0  0  0  0  0  0  0  0  0  0
  147.7149  142.9167  155.1440 H   0  0  0  0  0  0  0  0  0  0  0  0
  146.9671  142.2170  153.7516 H   0  0  0  0  0  0  0  0  0  0  0  0
  146.9827  140.9097  156.5315 H   0  0  0  0  0  0  0  0  0  0  0  0
  145.6363  141.8095  155.8584 H   0  0  0  0  0  0  0  0  0  0  0  0
  148.0053  138.5811  155.0857 H   0  0  0  0  0  0  0  0  0  0  0  0
  147.2634  138.1283  153.5630 H   0  0  0  0  0  0  0  0  0  0  0  0
  147.7834  140.4110  152.6241 H   0  0  0  0  0  0  0  0  0  0  0  0
  149.2227  139.5610  153.0878 H   0  0  0  0  0  0  0  0  0  0  0  0
  1  2  2  0  0  0  0
  2  3  1  0  0  0  0
  2 14  1  0  0  0  0
  3  4  1  0  0  0  0
  3 20  1  0  0  0  0
  4  5  1  0  0  0  0
  4 21  1  0  0  0  0
  4 22  1  0  0  0  0
  5  6  1  0  0  0  0
  5 23  1  0  0  0  0
  5 24  1  0  0  0  0
  6 10  1  0  0  0  0
  6  7  2  0  0  0  0
  7  8  1  0  0  0  0
  8  9  2  0  0  0  0
  8 25  1  0  0  0  0
  9 10  1  0  0  0  0
  9 26  1  0  0  0  0
 10 11  1  0  0  0  0
 11 12  1  0  0  0  0
 11 13  1  0  0  0  0
 11 27  1  0  0  0  0
 14 19  1  0  0  0  0
 14 15  1  0  0  0  0
 15 16  1  0  0  0  0
 15 28  1  0  0  0  0
 15 29  1  0  0  0  0
 16 17  1  0  0  0  0
 16 30  1  0  0  0  0
 16 31  1  0  0  0  0
 17 18  1  0  0  0  0
 18 19  1  0  0  0  0
 18 32  1  0  0  0  0
 18 33  1  0  0  0  0
 19 34  1  0  0  0  0
 19 35  1  0  0  0  0
M  END
> <s_m_source_file>
AV-unprocessed.smi

> <i_m_source_file_index>
1064

> <i_lp_mmshare_version>
43012

> <i_f3d_flags>
0

> <s_epik_input>
W0NIMl0xW0NIMl1TW0NIMl1bQ0gyXU4xQyg9TylbTkhdW0NIMl1bQ0gyXWMybltjSF1bY0hdbjJbQ0hdKEYpRg==

> <s_epik_cmdline>
J2VwaWtfcHl0aG9uJywgJy1waCcsICc3LjAnLCAnLXRuJywgJzgnLCAnLW1hJywgJzIwMCcsICctbWV0YWxfYmluZGluZycsICctaW1hZScsICc8aW5maWxlLm1hZT4nLCAnLW9tYWUnLCAnPG91dGZpbGUubWFlPic=

> <r_lp_tautomer_probability>
1

> <r_epik_Ionization_Penalty>
0.100551

> <r_epik_Ionization_Penalty_Charging>
0.100507

> <r_epik_Ionization_Penalty_Neutral>
4.37624e-05

> <r_epik_State_Penalty>
0.0905262

> <r_epik_Charging_Adjusted_Penalty>
0.191033

> <i_epik_Tot_Q>
0

> <i_epik_Tot_abs_Q>
0

> <r_epik_Metal_State_Penalty>
0.077291

> <b_epik_Metal_Only>
0

> <s_lp_Force_Field>
OPLS_2005

> <r_lp_Energy>
25.4045

> <b_lp_Chiralities_Consistent>
1

> <s_lp_Variant>
AV-unprocessed.smi:1064-1

> <Gold.Version>
5.8.1

> <Gold.Id.Protein>
6NUR|6NUR_protein|mol2

> <Gold.PLP.Fitness>
47.3840

> <Gold.PLP.PLP>
-42.8601

> <Gold.PLP.part.hbond>
-2.0000

> <Gold.PLP.part.metal>
0.0000

> <Gold.PLP.part.buried>
-2.8744

> <Gold.PLP.part.nonpolar>
-37.8966

> <Gold.PLP.part.repulsive>
0.3463

> <Gold.PLP.ligand.clash>
0.0000

> <Gold.PLP.ligand.torsion>
0.6747

> <Gold.PLP.Chemscore.Hbond>
1.9280

> <Gold.PLP.Chemscore.CHOScore>
0.0000

> <Gold.PLP.Chemscore.Metal>
0.0000

> <Gold.Chemscore.Hbonds>
donor molecule, donor type, donor heavy atom, donor atom, acceptor molecule, acceptor atom, score
      L1  H     3    20       P1  8028  0.82
      P1  H  7989  7998       L1     1  1.00

> <Gold.PLP.Chemscore.Internal.Correction>
0.0893

> <Gold.Rescore>
     Score         DG    S(hbond)    S(metal)    S(lipo)     H(rot)  DE(clash)    DE(int)     intcor
     13.39     -14.71       1.56        0.00      69.69       1.61       0.63       0.69       ----

> <Gold.Chemscore.Fitness>
13.3898

> <Gold.Chemscore.DG>
-14.7087

> <Gold.Chemscore.ZeroCoef>
-5.4800

> <Gold.Chemscore.Hbond>
1.5557

> <Gold.Chemscore.Metal>
0.0000

> <Gold.Chemscore.Lipo>
69.6937

> <Gold.Chemscore.Internal_Hbond>
0.0000

> <Gold.Chemscore.DEClash>
0.6318

> <Gold.Chemscore.DEInternal>
0.6871

> <Gold.Chemscore.Rot>
1.6100

> <Gold.Chemscore.Internal.Correction>
   9.000000E+99

> <Gold.Chemscore.Hbonds>
donor molecule, donor type, donor heavy atom, donor atom, acceptor molecule, acceptor atom, score
      L1  H     3    20       P1  8028  0.81
      P1  H  7989  7998       L1     1  0.39

> <Gold.Chemscore.Hbond.Weighted>
-5.1962

> <Gold.Chemscore.Metal.Weighted>
-0.0000

> <Gold.Chemscore.Lipo.Weighted>
-8.1542

> <Gold.Chemscore.Internal_Hbond.Weighted>
0.0000

> <Gold.Chemscore.DEClash.Weighted>
0.6318

> <Gold.Chemscore.DEInternal.Weighted>
0.6871

> <Gold.Chemscore.Rot.Weighted>
4.1216

> <Gold.Chemscore.Internal.Correction.Weighted>
   9.000000E+99

> <Gold.Protein.RotatedTorsions>
[ 6907 6896 6895 6894 ] final   31.79 input  -60.11 | X-H torsion
[ 7974 7965 7964 7962 ] final  -24.67 input  175.53 | X-H torsion
[ 8008 7997 7996 7995 ] final  -88.96 input   59.86 | X-H torsion
[ 10167 10162 10161 10158 ] final   74.55 input  -65.29 | X-H torsion
[ 10718 10713 10712 10709 ] final   83.05 input   66.30 | X-H torsion
[ 10763 10752 10751 10750 ] final -165.84 input  -60.55 | X-H torsion
[ 11005 11000 10999 10996 ] final -144.56 input  -57.11 | X-H torsion

> <Gold.Protein.ActiveResidues>
 VAL166  LYS551  ARG553  GLY616  TRP617  ASP618  TYR619  PRO620  LYS621  CYS622 
 ASP623  PHE694  ASN695  SER759  ASP760  ASP761  ALA762  ILE779  LEU786  VAL792 
 PHE793  MET794  SER795  GLU796  ALA797  LYS798  CYS799  TRP800  GLU811  SER814 

> <Gold.Protein.RotatedAtoms>
  152.0653  134.9568  160.0574 H   0  0  0  0  0  0  0  0  0  0  0  0  # atno 6907 bound_to 6896
  152.0915  133.4198  159.4554 H   0  0  0  0  0  0  0  0  0  0  0  0  # atno 6908 bound_to 6896
  150.6837  134.2785  159.4661 H   0  0  0  0  0  0  0  0  0  0  0  0  # atno 6909 bound_to 6896
  146.1540  140.4783  142.8599 H   0  0  0  0  0  0  0  0  0  0  0  0  # atno 7974 bound_to 7965
  154.6810  140.0547  157.0265 H   0  0  0  0  0  0  0  0  0  0  0  0  # atno 8008 bound_to 7997
  155.0952  140.3223  155.4544 H   0  0  0  0  0  0  0  0  0  0  0  0  # atno 8009 bound_to 7997
  156.2694  140.2041  156.6078 H   0  0  0  0  0  0  0  0  0  0  0  0  # atno 8010 bound_to 7997
  140.0124  144.5603  150.7647 H   0  0  0  0  0  0  0  0  0  0  0  0  # atno 10167 bound_to 10162
  157.6870  131.0074  150.2465 H   0  0  0  0  0  0  0  0  0  0  0  0  # atno 10718 bound_to 10713
  154.6892  135.2968  154.9503 H   0  0  0  0  0  0  0  0  0  0  0  0  # atno 10763 bound_to 10752
  154.0472  135.6649  153.4800 H   0  0  0  0  0  0  0  0  0  0  0  0  # atno 10764 bound_to 10752
  153.0600  135.5121  154.7976 H   0  0  0  0  0  0  0  0  0  0  0  0  # atno 10765 bound_to 10752
  140.8012  134.2855  157.4978 H   0  0  0  0  0  0  0  0  0  0  0  0  # atno 11005 bound_to 11000
  144.7939  140.6086  143.6523 LP  0  0  0  0  0  0  0  0  0  0  0  0  # atno 17320 bound_to 7965
  145.4754  139.1500  143.3791 LP  0  0  0  0  0  0  0  0  0  0  0  0  # atno 17321 bound_to 7965
  140.7376  143.2767  151.3720 LP  0  0  0  0  0  0  0  0  0  0  0  0  # atno 17342 bound_to 10162
  139.6195  144.0935  152.2378 LP  0  0  0  0  0  0  0  0  0  0  0  0  # atno 17343 bound_to 10162
  156.3070  130.3766  149.7697 LP  0  0  0  0  0  0  0  0  0  0  0  0  # atno 17370 bound_to 10713
  156.5309  130.8257  151.3237 LP  0  0  0  0  0  0  0  0  0  0  0  0  # atno 17371 bound_to 10713
  139.8721  134.9430  156.3841 LP  0  0  0  0  0  0  0  0  0  0  0  0  # atno 17394 bound_to 11000
  140.9293  133.7590  156.0004 LP  0  0  0  0  0  0  0  0  0  0  0  0  # atno 17395 bound_to 11000

$$$$
