AV-unprocessed.smi:332|AV-procd|sdf|2352|dock1
  -GOLD-   2262022263D 1   1.00000     0.00000
 Structure written by MMmdl.
 42 44  0  0  0  0  0  0  0  0  1 V2000
  146.9676  142.2683  157.0423 C   0  0  0  0  0  0  0  0  0  0  0  0
  148.2356  141.4460  156.7589 C   0  0  2  0  0  0  0  0  0  0  0  0
  149.3981  142.2942  157.0171 N   0  0  0  0  0  0  0  0  0  0  0  0
  150.5173  141.9239  157.6590 C   0  0  0  0  0  0  0  0  0  0  0  0
  150.6832  140.8054  158.1467 O   0  0  0  0  0  0  0  0  0  0  0  0
  151.6139  142.9915  157.7700 C   0  0  0  0  0  0  0  0  0  0  0  0
  151.9305  143.3393  159.1650 N   0  0  0  0  0  0  0  0  0  0  0  0
  151.6453  144.6550  159.5810 C   0  0  0  0  0  0  0  0  0  0  0  0
  151.8910  145.0731  160.8327 C   0  0  0  0  0  0  0  0  0  0  0  0
  152.4645  144.1328  161.7663 C   0  0  0  0  0  0  0  0  0  0  0  0
  152.7383  142.8709  161.3799 C   0  0  0  0  0  0  0  0  0  0  0  0
  152.4697  142.4090  160.0130 C   0  0  0  0  0  0  0  0  0  0  0  0
  152.7146  141.2571  159.6522 O   0  0  0  0  0  0  0  0  0  0  0  0
  148.2722  140.9056  155.3063 C   0  0  2  0  0  0  0  0  0  0  0  0
  147.9658  141.9877  154.2417 C   0  0  0  0  0  0  0  0  0  0  0  0
  146.8189  141.3684  153.4237 C   0  0  1  0  0  0  0  0  0  0  0  0
  147.3557  140.1852  152.5985 C   0  0  0  0  0  0  0  0  0  0  0  0
  147.5994  139.1096  153.6726 C   0  0  0  0  0  0  0  0  0  0  0  0
  147.2019  139.8317  154.9744 C   0  0  2  0  0  0  0  0  0  0  0  0
  146.0135  140.6648  154.5076 C   0  0  0  0  0  0  0  0  0  0  0  0
  146.0643  141.6728  156.9130 H   0  0  0  0  0  0  0  0  0  0  0  0
  146.8952  143.1282  156.3753 H   0  0  0  0  0  0  0  0  0  0  0  0
  146.9642  142.6416  158.0670 H   0  0  0  0  0  0  0  0  0  0  0  0
  148.2353  140.5991  157.4468 H   0  0  0  0  0  0  0  0  0  0  0  0
  149.3561  143.2361  156.6560 H   0  0  0  0  0  0  0  0  0  0  0  0
  152.5165  142.6514  157.2585 H   0  0  0  0  0  0  0  0  0  0  0  0
  151.2856  143.8718  157.2161 H   0  0  0  0  0  0  0  0  0  0  0  0
  151.2109  145.2938  158.8257 H   0  0  0  0  0  0  0  0  0  0  0  0
  151.6615  146.0844  161.1343 H   0  0  0  0  0  0  0  0  0  0  0  0
  152.6731  144.4419  162.7799 H   0  0  0  0  0  0  0  0  0  0  0  0
  153.1655  142.1809  162.0929 H   0  0  0  0  0  0  0  0  0  0  0  0
  149.2643  140.4862  155.1299 H   0  0  0  0  0  0  0  0  0  0  0  0
  147.6268  142.9175  154.7004 H   0  0  0  0  0  0  0  0  0  0  0  0
  148.8358  142.2223  153.6273 H   0  0  0  0  0  0  0  0  0  0  0  0
  146.2608  142.0962  152.8340 H   0  0  0  0  0  0  0  0  0  0  0  0
  146.6132  139.8440  151.8761 H   0  0  0  0  0  0  0  0  0  0  0  0
  148.2637  140.4420  152.0515 H   0  0  0  0  0  0  0  0  0  0  0  0
  146.9569  138.2451  153.4994 H   0  0  0  0  0  0  0  0  0  0  0  0
  148.6316  138.7577  153.6869 H   0  0  0  0  0  0  0  0  0  0  0  0
  146.9800  139.1359  155.7830 H   0  0  0  0  0  0  0  0  0  0  0  0
  145.6271  141.3407  155.2721 H   0  0  0  0  0  0  0  0  0  0  0  0
  145.1915  140.0634  154.1151 H   0  0  0  0  0  0  0  0  0  0  0  0
  1  2  1  0  0  0  0
  1 21  1  0  0  0  0
  1 22  1  0  0  0  0
  1 23  1  0  0  0  0
  2  3  1  0  0  0  0
  2 14  1  0  0  0  0
  2 24  1  0  0  0  0
  3  4  1  0  0  0  0
  3 25  1  0  0  0  0
  4  5  2  0  0  0  0
  4  6  1  0  0  0  0
  6  7  1  0  0  0  0
  6 26  1  0  0  0  0
  6 27  1  0  0  0  0
  7 12  1  0  0  0  0
  7  8  1  0  0  0  0
  8  9  2  0  0  0  0
  8 28  1  0  0  0  0
  9 10  1  0  0  0  0
  9 29  1  0  0  0  0
 10 11  2  0  0  0  0
 10 30  1  0  0  0  0
 11 12  1  0  0  0  0
 11 31  1  0  0  0  0
 12 13  2  0  0  0  0
 14 19  1  0  0  0  0
 14 15  1  0  0  0  0
 14 32  1  0  0  0  0
 15 16  1  0  0  0  0
 15 33  1  0  0  0  0
 15 34  1  0  0  0  0
 16 20  1  0  0  0  0
 16 17  1  0  0  0  0
 16 35  1  0  0  0  0
 17 18  1  0  0  0  0
 17 36  1  0  0  0  0
 17 37  1  0  0  0  0
 18 19  1  0  0  0  0
 18 38  1  0  0  0  0
 18 39  1  0  0  0  0
 19 20  1  0  0  0  0
 19 40  1  0  0  0  0
 20 41  1  0  0  0  0
 20 42  1  0  0  0  0
M  END
> <s_m_source_file>
AV-unprocessed.smi

> <i_m_source_file_index>
332

> <i_lp_mmshare_version>
43012

> <i_f3d_flags>
0

> <s_epik_input>
W0NIMl0xW0NIMl1bQ0BIXShbQ0gyXTIpW0NAQEhdKFtDSDJdW0NAQEhdMTIpW0NASF0oW0NIM10pW05IXUMoPU8pW0NIMl1uM1tjSF1bY0hdW2NIXVtjSF1jMz1P

> <s_epik_cmdline>
J2VwaWtfcHl0aG9uJywgJy1waCcsICc3LjAnLCAnLXRuJywgJzgnLCAnLW1hJywgJzIwMCcsICctbWV0YWxfYmluZGluZycsICctaW1hZScsICc8aW5maWxlLm1hZT4nLCAnLW9tYWUnLCAnPG91dGZpbGUubWFlPic=

> <r_lp_tautomer_probability>
1

> <r_epik_Ionization_Penalty>
4.05802e-07

> <r_epik_Ionization_Penalty_Charging>
3.84175e-07

> <r_epik_Ionization_Penalty_Neutral>
2.16269e-08

> <r_epik_State_Penalty>
-0

> <r_epik_Charging_Adjusted_Penalty>
3.84175e-07

> <i_epik_Tot_Q>
0

> <i_epik_Tot_abs_Q>
0

> <r_epik_Metal_State_Penalty>
-0

> <b_epik_Metal_Only>
0

> <s_lp_Force_Field>
OPLS_2005

> <r_lp_Energy>
59.6993

> <b_lp_Chiralities_Consistent>
1

> <s_lp_Variant>
AV-unprocessed.smi:332-1

> <Gold.Version>
5.8.1

> <Gold.Id.Protein>
6NUR|6NUR_protein|mol2

> <Gold.PLP.Fitness>
41.0268

> <Gold.PLP.PLP>
-38.7423

> <Gold.PLP.part.hbond>
-1.0000

> <Gold.PLP.part.metal>
0.0000

> <Gold.PLP.part.buried>
-0.2853

> <Gold.PLP.part.nonpolar>
-35.8230

> <Gold.PLP.part.repulsive>
0.0087

> <Gold.PLP.ligand.clash>
0.0000

> <Gold.PLP.ligand.torsion>
0.3800

> <Gold.PLP.Chemscore.Hbond>
1.0000

> <Gold.PLP.Chemscore.CHOScore>
0.0000

> <Gold.PLP.Chemscore.Metal>
0.0000

> <Gold.Chemscore.Hbonds>
donor molecule, donor type, donor heavy atom, donor atom, acceptor molecule, acceptor atom, score
      L1  H     3    25       P1  8028  1.00

> <Gold.PLP.Chemscore.Internal.Correction>
0.0445

> <Gold.Rescore>
     Score         DG    S(hbond)    S(metal)    S(lipo)     H(rot)  DE(clash)    DE(int)     intcor
     13.97     -17.25       1.00        0.00     105.88       1.54       1.40       1.88       ----

> <Gold.Chemscore.Fitness>
13.9686

> <Gold.Chemscore.DG>
-17.2495

> <Gold.Chemscore.ZeroCoef>
-5.4800

> <Gold.Chemscore.Hbond>
0.9950

> <Gold.Chemscore.Metal>
0.0000

> <Gold.Chemscore.Lipo>
105.8801

> <Gold.Chemscore.Internal_Hbond>
0.0000

> <Gold.Chemscore.DEClash>
1.4048

> <Gold.Chemscore.DEInternal>
1.8762

> <Gold.Chemscore.Rot>
1.5398

> <Gold.Chemscore.Internal.Correction>
   9.000000E+99

> <Gold.Chemscore.Hbonds>
donor molecule, donor type, donor heavy atom, donor atom, acceptor molecule, acceptor atom, score
      L1  H     3    25       P1  8028  1.00

> <Gold.Chemscore.Hbond.Weighted>
-3.3235

> <Gold.Chemscore.Metal.Weighted>
-0.0000

> <Gold.Chemscore.Lipo.Weighted>
-12.3880

> <Gold.Chemscore.Internal_Hbond.Weighted>
0.0000

> <Gold.Chemscore.DEClash.Weighted>
1.4048

> <Gold.Chemscore.DEInternal.Weighted>
1.8762

> <Gold.Chemscore.Rot.Weighted>
3.9419

> <Gold.Chemscore.Internal.Correction.Weighted>
   9.000000E+99

> <Gold.Protein.RotatedTorsions>
[ 6907 6896 6895 6894 ] final  112.78 input  -60.11 | X-H torsion
[ 7974 7965 7964 7962 ] final  151.45 input  175.53 | X-H torsion
[ 8008 7997 7996 7995 ] final -131.23 input   59.86 | X-H torsion
[ 10167 10162 10161 10158 ] final  175.63 input  -65.29 | X-H torsion
[ 10718 10713 10712 10709 ] final   71.59 input   66.30 | X-H torsion
[ 10763 10752 10751 10750 ] final -171.52 input  -60.55 | X-H torsion
[ 11005 11000 10999 10996 ] final  -48.60 input  -57.11 | X-H torsion

> <Gold.Protein.ActiveResidues>
 VAL166  LYS551  ARG553  GLY616  TRP617  ASP618  TYR619  PRO620  LYS621  CYS622 
 ASP623  PHE694  ASN695  SER759  ASP760  ASP761  ALA762  ILE779  LEU786  VAL792 
 PHE793  MET794  SER795  GLU796  ALA797  LYS798  CYS799  TRP800  GLU811  SER814 

> <Gold.Protein.RotatedAtoms>
  152.4898  133.8468  159.7180 H   0  0  0  0  0  0  0  0  0  0  0  0  # atno 6907 bound_to 6896
  150.9016  133.7102  159.2884 H   0  0  0  0  0  0  0  0  0  0  0  0  # atno 6908 bound_to 6896
  151.4541  135.1036  159.9758 H   0  0  0  0  0  0  0  0  0  0  0  0  # atno 6909 bound_to 6896
  144.8292  139.6539  143.6066 H   0  0  0  0  0  0  0  0  0  0  0  0  # atno 7974 bound_to 7965
  155.3090  140.0456  157.3034 H   0  0  0  0  0  0  0  0  0  0  0  0  # atno 8008 bound_to 7997
  154.5444  140.2298  155.8554 H   0  0  0  0  0  0  0  0  0  0  0  0  # atno 8009 bound_to 7997
  156.1910  140.3050  155.9339 H   0  0  0  0  0  0  0  0  0  0  0  0  # atno 8010 bound_to 7997
  139.5184  144.3009  152.0380 H   0  0  0  0  0  0  0  0  0  0  0  0  # atno 10167 bound_to 10162
  157.6459  130.9536  150.0810 H   0  0  0  0  0  0  0  0  0  0  0  0  # atno 10718 bound_to 10713
  154.6296  135.2885  155.0232 H   0  0  0  0  0  0  0  0  0  0  0  0  # atno 10763 bound_to 10752
  154.1397  135.6520  153.4943 H   0  0  0  0  0  0  0  0  0  0  0  0  # atno 10764 bound_to 10752
  153.0273  135.5330  154.7118 H   0  0  0  0  0  0  0  0  0  0  0  0  # atno 10765 bound_to 10752
  141.0710  133.6679  156.3465 H   0  0  0  0  0  0  0  0  0  0  0  0  # atno 11005 bound_to 11000
  146.2596  139.6379  142.9371 LP  0  0  0  0  0  0  0  0  0  0  0  0  # atno 17320 bound_to 7965
  145.4933  141.0438  143.2581 LP  0  0  0  0  0  0  0  0  0  0  0  0  # atno 17321 bound_to 7965
  140.2456  144.4223  150.6242 LP  0  0  0  0  0  0  0  0  0  0  0  0  # atno 17342 bound_to 10162
  140.6260  143.2181  151.6595 LP  0  0  0  0  0  0  0  0  0  0  0  0  # atno 17343 bound_to 10162
  156.1787  130.3649  149.9065 LP  0  0  0  0  0  0  0  0  0  0  0  0  # atno 17370 bound_to 10713
  156.7023  130.8938  151.3601 LP  0  0  0  0  0  0  0  0  0  0  0  0  # atno 17371 bound_to 10713
  140.5673  134.5875  157.5449 LP  0  0  0  0  0  0  0  0  0  0  0  0  # atno 17394 bound_to 11000
  139.9524  134.7594  156.0419 LP  0  0  0  0  0  0  0  0  0  0  0  0  # atno 17395 bound_to 11000

$$$$
