AV-unprocessed.smi:1095|AV-procd|sdf|4748|dock9
  -GOLD-   22720 3283D 1   1.00000     0.00000
 Structure written by MMmdl.
 50 51  0  0  0  0  0  0  0  0  1 V2000
  153.6761  142.7428  163.4334 C   0  0  0  0  0  0  0  0  0  0  0  0
  152.6067  143.5680  162.7045 C   0  0  0  0  0  0  0  0  0  0  0  0
  152.8125  143.6587  161.1786 C   0  0  2  0  0  0  0  0  0  0  0  0
  151.8589  144.6739  160.5124 C   0  0  0  0  0  0  0  0  0  0  0  0
  152.0527  144.7272  158.9865 C   0  0  0  0  0  0  0  0  0  0  0  0
  151.9018  143.3456  158.3197 C   0  0  2  0  0  0  0  0  0  0  0  0
  150.4273  142.8811  158.2695 C   0  0  0  0  0  0  0  0  0  0  0  0
  149.9459  142.7246  156.9010 N   0  0  0  0  0  0  0  0  0  0  0  0
  150.3169  141.7473  156.0598 C   0  0  0  0  0  0  0  0  0  0  0  0
  151.1456  140.8834  156.3479 O   0  0  0  0  0  0  0  0  0  0  0  0
  149.6422  141.7359  154.6869 C   0  0  0  0  0  0  0  0  0  0  0  0
  148.9060  140.4344  154.4860 C   0  0  0  0  0  0  0  0  0  0  0  0
  149.4625  139.1248  154.3804 C   0  0  0  0  0  0  0  0  0  0  0  0
  150.9054  138.7115  154.4304 C   0  0  0  0  0  0  0  0  0  0  0  0
  148.5376  138.1956  154.2080 N   0  0  0  0  0  0  0  0  0  0  0  0
  147.3701  138.8690  154.1954 N   0  0  0  0  0  0  0  0  0  0  0  0
  146.1306  138.1368  154.0213 C   0  0  0  0  0  0  0  0  0  0  0  0
  147.5583  140.2283  154.3552 C   0  0  0  0  0  0  0  0  0  0  0  0
  146.4188  141.1963  154.3655 C   0  0  0  0  0  0  0  0  0  0  0  0
  152.8497  142.3325  158.9984 C   0  0  0  0  0  0  0  0  0  0  0  0
  152.6517  142.2726  160.5227 C   0  0  0  0  0  0  0  0  0  0  0  0
  153.4358  142.6528  164.4929 H   0  0  0  0  0  0  0  0  0  0  0  0
  154.6609  143.2040  163.3621 H   0  0  0  0  0  0  0  0  0  0  0  0
  153.7443  141.7349  163.0233 H   0  0  0  0  0  0  0  0  0  0  0  0
  151.6364  143.1125  162.9057 H   0  0  0  0  0  0  0  0  0  0  0  0
  152.5628  144.5697  163.1337 H   0  0  0  0  0  0  0  0  0  0  0  0
  153.8368  143.9888  160.9988 H   0  0  0  0  0  0  0  0  0  0  0  0
  150.8243  144.4205  160.7456 H   0  0  0  0  0  0  0  0  0  0  0  0
  152.0255  145.6714  160.9185 H   0  0  0  0  0  0  0  0  0  0  0  0
  151.3517  145.4370  158.5462 H   0  0  0  0  0  0  0  0  0  0  0  0
  153.0484  145.1179  158.7723 H   0  0  0  0  0  0  0  0  0  0  0  0
  152.2316  143.4557  157.2854 H   0  0  0  0  0  0  0  0  0  0  0  0
  150.3044  141.9251  158.7771 H   0  0  0  0  0  0  0  0  0  0  0  0
  149.7913  143.5877  158.8055 H   0  0  0  0  0  0  0  0  0  0  0  0
  149.2613  143.3933  156.5793 H   0  0  0  0  0  0  0  0  0  0  0  0
  148.9655  142.5866  154.5962 H   0  0  0  0  0  0  0  0  0  0  0  0
  150.4092  141.8854  153.9270 H   0  0  0  0  0  0  0  0  0  0  0  0
  151.2743  138.4705  153.4334 H   0  0  0  0  0  0  0  0  0  0  0  0
  151.0438  137.8314  155.0587 H   0  0  0  0  0  0  0  0  0  0  0  0
  151.5347  139.5049  154.8329 H   0  0  0  0  0  0  0  0  0  0  0  0
  145.4084  138.4504  154.7753 H   0  0  0  0  0  0  0  0  0  0  0  0
  146.2997  137.0641  154.1235 H   0  0  0  0  0  0  0  0  0  0  0  0
  145.7233  138.3386  153.0307 H   0  0  0  0  0  0  0  0  0  0  0  0
  146.7632  142.2134  154.1793 H   0  0  0  0  0  0  0  0  0  0  0  0
  145.9109  141.1831  155.3298 H   0  0  0  0  0  0  0  0  0  0  0  0
  145.6884  140.9517  153.5940 H   0  0  0  0  0  0  0  0  0  0  0  0
  152.7273  141.3385  158.5699 H   0  0  0  0  0  0  0  0  0  0  0  0
  153.8813  142.6187  158.7897 H   0  0  0  0  0  0  0  0  0  0  0  0
  153.3739  141.5756  160.9491 H   0  0  0  0  0  0  0  0  0  0  0  0
  151.6668  141.8645  160.7519 H   0  0  0  0  0  0  0  0  0  0  0  0
  1  2  1  0  0  0  0
  1 22  1  0  0  0  0
  1 23  1  0  0  0  0
  1 24  1  0  0  0  0
  2  3  1  0  0  0  0
  2 25  1  0  0  0  0
  2 26  1  0  0  0  0
  3 21  1  0  0  0  0
  3  4  1  0  0  0  0
  3 27  1  0  0  0  0
  4  5  1  0  0  0  0
  4 28  1  0  0  0  0
  4 29  1  0  0  0  0
  5  6  1  0  0  0  0
  5 30  1  0  0  0  0
  5 31  1  0  0  0  0
  6  7  1  0  0  0  0
  6 20  1  0  0  0  0
  6 32  1  0  0  0  0
  7  8  1  0  0  0  0
  7 33  1  0  0  0  0
  7 34  1  0  0  0  0
  8  9  1  0  0  0  0
  8 35  1  0  0  0  0
  9 10  2  0  0  0  0
  9 11  1  0  0  0  0
 11 12  1  0  0  0  0
 11 36  1  0  0  0  0
 11 37  1  0  0  0  0
 12 18  2  0  0  0  0
 12 13  1  0  0  0  0
 13 14  1  0  0  0  0
 13 15  2  0  0  0  0
 14 38  1  0  0  0  0
 14 39  1  0  0  0  0
 14 40  1  0  0  0  0
 15 16  1  0  0  0  0
 16 17  1  0  0  0  0
 16 18  1  0  0  0  0
 17 41  1  0  0  0  0
 17 42  1  0  0  0  0
 17 43  1  0  0  0  0
 18 19  1  0  0  0  0
 19 44  1  0  0  0  0
 19 45  1  0  0  0  0
 19 46  1  0  0  0  0
 20 21  1  0  0  0  0
 20 47  1  0  0  0  0
 20 48  1  0  0  0  0
 21 49  1  0  0  0  0
 21 50  1  0  0  0  0
M  END
> <s_m_source_file>
AV-unprocessed.smi

> <i_m_source_file_index>
1095

> <i_lp_mmshare_version>
43012

> <i_f3d_flags>
0

> <s_epik_input>
W0NIM11bQ0gyXVtDQEBIXTFbQ0gyXVtDSDJdW0NASF0oW0NIMl1bQ0gyXTEpW0NIMl1bTkhdQyg9TylbQ0gyXWMyYyhbQ0gzXSlubihbQ0gzXSljMltDSDNd

> <s_epik_cmdline>
J2VwaWtfcHl0aG9uJywgJy1waCcsICc3LjAnLCAnLXRuJywgJzgnLCAnLW1hJywgJzIwMCcsICctbWV0YWxfYmluZGluZycsICctaW1hZScsICc8aW5maWxlLm1hZT4nLCAnLW9tYWUnLCAnPG91dGZpbGUubWFlPic=

> <r_lp_tautomer_probability>
1

> <r_epik_Ionization_Penalty>
0.00317479

> <r_epik_Ionization_Penalty_Charging>
0

> <r_epik_Ionization_Penalty_Neutral>
0.00317479

> <r_epik_State_Penalty>
0.00223767

> <r_epik_Charging_Adjusted_Penalty>
0.00223767

> <i_epik_Tot_Q>
0

> <i_epik_Tot_abs_Q>
0

> <r_epik_Metal_State_Penalty>
-0

> <b_epik_Metal_Only>
0

> <s_lp_Force_Field>
OPLS_2005

> <r_lp_Energy>
8.21356

> <b_lp_Chiralities_Consistent>
1

> <s_lp_Variant>
AV-unprocessed.smi:1095-2

> <Gold.Version>
5.8.1

> <Gold.Id.Protein>
6NUR|6NUR_protein|mol2

> <Gold.PLP.Fitness>
48.0466

> <Gold.PLP.PLP>
-46.7486

> <Gold.PLP.part.hbond>
-1.0000

> <Gold.PLP.part.metal>
0.0000

> <Gold.PLP.part.buried>
-3.1027

> <Gold.PLP.part.nonpolar>
-42.3830

> <Gold.PLP.part.repulsive>
0.5251

> <Gold.PLP.ligand.clash>
0.0000

> <Gold.PLP.ligand.torsion>
0.8665

> <Gold.PLP.Chemscore.Hbond>
1.0000

> <Gold.PLP.Chemscore.CHOScore>
0.0000

> <Gold.PLP.Chemscore.Metal>
0.0000

> <Gold.Chemscore.Hbonds>
donor molecule, donor type, donor heavy atom, donor atom, acceptor molecule, acceptor atom, score
      L1  H     8    35       P1  8028  0.99

> <Gold.PLP.Chemscore.Internal.Correction>
0.0309

> <Gold.Rescore>
     Score         DG    S(hbond)    S(metal)    S(lipo)     H(rot)  DE(clash)    DE(int)     intcor
     18.75     -21.36       0.87        0.00     142.24       1.43       0.50       2.11       ----

> <Gold.Chemscore.Fitness>
18.7525

> <Gold.Chemscore.DG>
-21.3600

> <Gold.Chemscore.ZeroCoef>
-5.4800

> <Gold.Chemscore.Hbond>
0.8705

> <Gold.Chemscore.Metal>
0.0000

> <Gold.Chemscore.Lipo>
142.2439

> <Gold.Chemscore.Internal_Hbond>
0.0000

> <Gold.Chemscore.DEClash>
0.4956

> <Gold.Chemscore.DEInternal>
2.1120

> <Gold.Chemscore.Rot>
1.4336

> <Gold.Chemscore.Internal.Correction>
   9.000000E+99

> <Gold.Chemscore.Hbonds>
donor molecule, donor type, donor heavy atom, donor atom, acceptor molecule, acceptor atom, score
      L1  H     8    35       P1  8028  0.94

> <Gold.Chemscore.Hbond.Weighted>
-2.9075

> <Gold.Chemscore.Metal.Weighted>
-0.0000

> <Gold.Chemscore.Lipo.Weighted>
-16.6425

> <Gold.Chemscore.Internal_Hbond.Weighted>
0.0000

> <Gold.Chemscore.DEClash.Weighted>
0.4956

> <Gold.Chemscore.DEInternal.Weighted>
2.1120

> <Gold.Chemscore.Rot.Weighted>
3.6700

> <Gold.Chemscore.Internal.Correction.Weighted>
   9.000000E+99

> <Gold.Protein.RotatedTorsions>
[ 6907 6896 6895 6894 ] final  -85.43 input  -60.11 | X-H torsion
[ 7974 7965 7964 7962 ] final  -46.43 input  175.53 | X-H torsion
[ 8008 7997 7996 7995 ] final  176.64 input   59.86 | X-H torsion
[ 10167 10162 10161 10158 ] final  -69.54 input  -65.29 | X-H torsion
[ 10718 10713 10712 10709 ] final  131.24 input   66.30 | X-H torsion
[ 10763 10752 10751 10750 ] final   52.91 input  -60.55 | X-H torsion
[ 11005 11000 10999 10996 ] final  135.31 input  -57.11 | X-H torsion

> <Gold.Protein.ActiveResidues>
 VAL166  LYS551  ARG553  GLY616  TRP617  ASP618  TYR619  PRO620  LYS621  CYS622 
 ASP623  PHE694  ASN695  SER759  ASP760  ASP761  ALA762  ILE779  LEU786  VAL792 
 PHE793  MET794  SER795  GLU796  ALA797  LYS798  CYS799  TRP800  GLU811  SER814 

> <Gold.Protein.RotatedAtoms>
  150.6870  134.3206  159.4784 H   0  0  0  0  0  0  0  0  0  0  0  0  # atno 6907 bound_to 6896
  152.1082  134.9291  160.0576 H   0  0  0  0  0  0  0  0  0  0  0  0  # atno 6908 bound_to 6896
  152.0544  133.3998  159.4427 H   0  0  0  0  0  0  0  0  0  0  0  0  # atno 6909 bound_to 6896
  145.9720  140.7373  142.9406 H   0  0  0  0  0  0  0  0  0  0  0  0  # atno 7974 bound_to 7965
  156.0743  140.1378  156.9790 H   0  0  0  0  0  0  0  0  0  0  0  0  # atno 8008 bound_to 7997
  154.4549  140.0965  156.6778 H   0  0  0  0  0  0  0  0  0  0  0  0  # atno 8009 bound_to 7997
  155.5178  140.3455  155.4403 H   0  0  0  0  0  0  0  0  0  0  0  0  # atno 8010 bound_to 7997
  140.5423  143.2314  151.7067 H   0  0  0  0  0  0  0  0  0  0  0  0  # atno 10167 bound_to 10162
  157.4986  131.1093  150.9459 H   0  0  0  0  0  0  0  0  0  0  0  0  # atno 10718 bound_to 10713
  152.9791  135.5796  154.4655 H   0  0  0  0  0  0  0  0  0  0  0  0  # atno 10763 bound_to 10752
  154.4225  135.2772  155.1968 H   0  0  0  0  0  0  0  0  0  0  0  0  # atno 10764 bound_to 10752
  154.3711  135.6167  153.5794 H   0  0  0  0  0  0  0  0  0  0  0  0  # atno 10765 bound_to 10752
  139.9971  134.9493  156.9989 H   0  0  0  0  0  0  0  0  0  0  0  0  # atno 11005 bound_to 11000
  144.6839  140.2764  143.7298 LP  0  0  0  0  0  0  0  0  0  0  0  0  # atno 17320 bound_to 7965
  145.7893  139.1921  143.2112 LP  0  0  0  0  0  0  0  0  0  0  0  0  # atno 17321 bound_to 7965
  139.4993  144.3950  152.0241 LP  0  0  0  0  0  0  0  0  0  0  0  0  # atno 17342 bound_to 10162
  140.3060  144.3592  150.6047 LP  0  0  0  0  0  0  0  0  0  0  0  0  # atno 17343 bound_to 10162
  157.0137  130.5647  149.5323 LP  0  0  0  0  0  0  0  0  0  0  0  0  # atno 17370 bound_to 10713
  156.0215  130.5310  150.8289 LP  0  0  0  0  0  0  0  0  0  0  0  0  # atno 17371 bound_to 10713
  140.4798  134.1301  155.7215 LP  0  0  0  0  0  0  0  0  0  0  0  0  # atno 17394 bound_to 11000
  141.1613  133.8788  157.1840 LP  0  0  0  0  0  0  0  0  0  0  0  0  # atno 17395 bound_to 11000

$$$$
