AV-unprocessed.smi:3004|AV-procd|sdf|11439|dock7
  -GOLD-   2272016373D 1   1.00000     0.00000
 Structure written by MMmdl.
 47 48  0  0  0  0  0  0  0  0  2 V2000
  151.5955  137.5554  154.5869 C   0  0  0  0  0  0  0  0  0  0  0  0
  150.9836  138.8898  154.8952 C   0  0  0  0  0  0  0  0  0  0  0  0
  151.4017  139.8490  155.8593 C   0  0  0  0  0  0  0  0  0  0  0  0
  150.5111  140.8761  155.7228 C   0  0  0  0  0  0  0  0  0  0  0  0
  150.4235  142.1764  156.4522 C   0  0  0  0  0  0  0  0  0  0  0  0
  149.6258  140.5093  154.7242 N   0  0  0  0  0  0  0  0  0  0  0  0
  148.4959  141.2463  154.1813 C   0  0  0  0  0  0  0  0  0  0  0  0
  147.3599  140.2991  153.7912 C   0  0  0  0  0  0  0  0  0  0  0  0
  146.3808  140.1729  154.5265 O   0  0  0  0  0  0  0  0  0  0  0  0
  147.4983  139.6446  152.6278 N   0  0  0  0  0  0  0  0  0  0  0  0
  146.5166  138.7314  152.0543 C   0  0  0  0  0  0  0  0  0  0  0  0
  146.1177  137.6194  153.0490 C   0  0  0  0  0  0  0  0  0  0  0  0
  146.3507  136.2375  152.5348 N   0  3  2  0  0  0  0  0  0  0  0  0
  145.4534  135.9034  151.3897 C   0  0  0  0  0  0  0  0  0  0  0  0
  145.7800  134.5324  150.7805 C   0  0  0  0  0  0  0  0  0  0  0  0
  145.6937  133.4361  151.8412 C   0  0  0  0  0  0  0  0  0  0  0  0
  146.6182  133.7895  153.0079 C   0  0  0  0  0  0  0  0  0  0  0  0
  146.2964  135.1801  153.5988 C   0  0  1  0  0  0  0  0  0  0  0  0
  147.2535  135.4473  154.7791 C   0  0  0  0  0  0  0  0  0  0  0  0
  149.9180  139.2898  154.2205 N   0  0  0  0  0  0  0  0  0  0  0  0
  152.5115  137.4013  155.1575 H   0  0  0  0  0  0  0  0  0  0  0  0
  151.8469  137.4732  153.5293 H   0  0  0  0  0  0  0  0  0  0  0  0
  150.9108  136.7435  154.8326 H   0  0  0  0  0  0  0  0  0  0  0  0
  152.2331  139.7928  156.5463 H   0  0  0  0  0  0  0  0  0  0  0  0
  151.2368  142.2747  157.1713 H   0  0  0  0  0  0  0  0  0  0  0  0
  149.4832  142.2528  156.9981 H   0  0  0  0  0  0  0  0  0  0  0  0
  150.4854  143.0163  155.7604 H   0  0  0  0  0  0  0  0  0  0  0  0
  148.1556  141.9759  154.9184 H   0  0  0  0  0  0  0  0  0  0  0  0
  148.8184  141.8111  153.3065 H   0  0  0  0  0  0  0  0  0  0  0  0
  148.3332  139.8180  152.0861 H   0  0  0  0  0  0  0  0  0  0  0  0
  145.6584  139.3226  151.7353 H   0  0  0  0  0  0  0  0  0  0  0  0
  146.9495  138.2915  151.1554 H   0  0  0  0  0  0  0  0  0  0  0  0
  146.7091  137.7915  153.9454 H   0  0  0  0  0  0  0  0  0  0  0  0
  145.0719  137.7188  153.3430 H   0  0  0  0  0  0  0  0  0  0  0  0
  144.4142  135.9281  151.7217 H   0  0  0  0  0  0  0  0  0  0  0  0
  145.5467  136.6386  150.5933 H   0  0  0  0  0  0  0  0  0  0  0  0
  145.0920  134.3137  149.9634 H   0  0  0  0  0  0  0  0  0  0  0  0
  146.7810  134.5504  150.3465 H   0  0  0  0  0  0  0  0  0  0  0  0
  144.6664  133.3376  152.1945 H   0  0  0  0  0  0  0  0  0  0  0  0
  145.9743  132.4728  151.4142 H   0  0  0  0  0  0  0  0  0  0  0  0
  146.5278  133.0237  153.7792 H   0  0  0  0  0  0  0  0  0  0  0  0
  147.6555  133.7629  152.6702 H   0  0  0  0  0  0  0  0  0  0  0  0
  145.2787  135.1538  153.9923 H   0  0  0  0  0  0  0  0  0  0  0  0
  147.3061  134.5824  155.4411 H   0  0  0  0  0  0  0  0  0  0  0  0
  146.9239  136.2791  155.4008 H   0  0  0  0  0  0  0  0  0  0  0  0
  148.2661  135.6561  154.4325 H   0  0  0  0  0  0  0  0  0  0  0  0
  147.2942  136.2248  152.1746 H   0  0  0  0  0  0  0  0  0  0  0  0
  1  2  1  0  0  0  0
  1 21  1  0  0  0  0
  1 22  1  0  0  0  0
  1 23  1  0  0  0  0
  2 20  2  0  0  0  0
  2  3  1  0  0  0  0
  3  4  2  0  0  0  0
  3 24  1  0  0  0  0
  4  5  1  0  0  0  0
  4  6  1  0  0  0  0
  5 25  1  0  0  0  0
  5 26  1  0  0  0  0
  5 27  1  0  0  0  0
  6  7  1  0  0  0  0
  6 20  1  0  0  0  0
  7  8  1  0  0  0  0
  7 28  1  0  0  0  0
  7 29  1  0  0  0  0
  8  9  2  0  0  0  0
  8 10  1  0  0  0  0
 10 11  1  0  0  0  0
 10 30  1  0  0  0  0
 11 12  1  0  0  0  0
 11 31  1  0  0  0  0
 11 32  1  0  0  0  0
 12 13  1  0  0  0  0
 12 33  1  0  0  0  0
 12 34  1  0  0  0  0
 13 18  1  0  0  0  0
 13 14  1  0  0  0  0
 13 47  1  0  0  0  0
 14 15  1  0  0  0  0
 14 35  1  0  0  0  0
 14 36  1  0  0  0  0
 15 16  1  0  0  0  0
 15 37  1  0  0  0  0
 15 38  1  0  0  0  0
 16 17  1  0  0  0  0
 16 39  1  0  0  0  0
 16 40  1  0  0  0  0
 17 18  1  0  0  0  0
 17 41  1  0  0  0  0
 17 42  1  0  0  0  0
 18 19  1  0  0  0  0
 18 43  1  0  0  0  0
 19 44  1  0  0  0  0
 19 45  1  0  0  0  0
 19 46  1  0  0  0  0
M  CHG  1  13   1
M  END
> <s_m_source_file>
AV-unprocessed.smi

> <i_m_source_file_index>
3004

> <i_lp_mmshare_version>
43012

> <i_f3d_flags>
0

> <s_epik_input>
W0NIM11jMVtjSF1jKFtDSDNdKW4objEpW0NIMl1DKD1PKVtOSF1bQ0gyXVtDSDJdTjJbQ0gyXVtDSDJdW0NIMl1bQ0gyXVtDQEhdMltDSDNd

> <s_epik_cmdline>
J2VwaWtfcHl0aG9uJywgJy1waCcsICc3LjAnLCAnLXRuJywgJzgnLCAnLW1hJywgJzIwMCcsICctbWV0YWxfYmluZGluZycsICctaW1hZScsICc8aW5maWxlLm1hZT4nLCAnLW9tYWUnLCAnPG91dGZpbGUubWFlPic=

> <r_lp_tautomer_probability>
1

> <r_epik_Ionization_Penalty>
0.00303644

> <r_epik_Ionization_Penalty_Charging>
0.00284254

> <r_epik_Ionization_Penalty_Neutral>
0.000193908

> <r_epik_State_Penalty>
-0

> <r_epik_Charging_Adjusted_Penalty>
0.00284254

> <i_epik_Tot_Q>
1

> <i_epik_Tot_abs_Q>
1

> <r_epik_Metal_State_Penalty>
-0

> <b_epik_Metal_Only>
0

> <s_lp_Force_Field>
OPLS_2005

> <r_lp_Energy>
17.9788

> <b_lp_Chiralities_Consistent>
1

> <s_lp_Variant>
AV-unprocessed.smi:3004-1

> <Gold.Version>
5.8.1

> <Gold.Id.Protein>
6NUR|6NUR_protein|mol2

> <Gold.PLP.Fitness>
45.5088

> <Gold.PLP.PLP>
-38.6048

> <Gold.PLP.part.hbond>
-2.0434

> <Gold.PLP.part.metal>
0.0000

> <Gold.PLP.part.buried>
-1.8535

> <Gold.PLP.part.nonpolar>
-35.5848

> <Gold.PLP.part.repulsive>
0.8073

> <Gold.PLP.ligand.clash>
0.0000

> <Gold.PLP.ligand.torsion>
1.0631

> <Gold.PLP.Chemscore.Hbond>
3.0000

> <Gold.PLP.Chemscore.CHOScore>
0.0000

> <Gold.PLP.Chemscore.Metal>
0.0000

> <Gold.Chemscore.Hbonds>
donor molecule, donor type, donor heavy atom, donor atom, acceptor molecule, acceptor atom, score
      L1  H    10    30       P1  7957  1.00
      L1  H    13    47       P1  7948  2.00

> <Gold.PLP.Chemscore.Internal.Correction>
0.0302

> <Gold.Rescore>
     Score         DG    S(hbond)    S(metal)    S(lipo)     H(rot)  DE(clash)    DE(int)     intcor
     14.62     -16.93       1.97        0.00      77.93       1.67       0.01       2.30       ----

> <Gold.Chemscore.Fitness>
14.6218

> <Gold.Chemscore.DG>
-16.9252

> <Gold.Chemscore.ZeroCoef>
-5.4800

> <Gold.Chemscore.Hbond>
1.9734

> <Gold.Chemscore.Metal>
0.0000

> <Gold.Chemscore.Lipo>
77.9329

> <Gold.Chemscore.Internal_Hbond>
0.0000

> <Gold.Chemscore.DEClash>
0.0080

> <Gold.Chemscore.DEInternal>
2.2953

> <Gold.Chemscore.Rot>
1.6657

> <Gold.Chemscore.Internal.Correction>
   9.000000E+99

> <Gold.Chemscore.Hbonds>
donor molecule, donor type, donor heavy atom, donor atom, acceptor molecule, acceptor atom, score
      L1  H    10    30       P1  7957  0.97
      L1  H    13    47       P1  7948  1.00

> <Gold.Chemscore.Hbond.Weighted>
-6.5911

> <Gold.Chemscore.Metal.Weighted>
-0.0000

> <Gold.Chemscore.Lipo.Weighted>
-9.1182

> <Gold.Chemscore.Internal_Hbond.Weighted>
0.0000

> <Gold.Chemscore.DEClash.Weighted>
0.0080

> <Gold.Chemscore.DEInternal.Weighted>
2.2953

> <Gold.Chemscore.Rot.Weighted>
4.2641

> <Gold.Chemscore.Internal.Correction.Weighted>
   9.000000E+99

> <Gold.Protein.RotatedTorsions>
[ 6907 6896 6895 6894 ] final   20.18 input  -60.11 | X-H torsion
[ 7974 7965 7964 7962 ] final  -35.56 input  175.53 | X-H torsion
[ 8008 7997 7996 7995 ] final  -82.07 input   59.86 | X-H torsion
[ 10167 10162 10161 10158 ] final  -92.71 input  -65.29 | X-H torsion
[ 10718 10713 10712 10709 ] final  133.33 input   66.30 | X-H torsion
[ 10763 10752 10751 10750 ] final  103.01 input  -60.55 | X-H torsion
[ 11005 11000 10999 10996 ] final  -92.25 input  -57.11 | X-H torsion

> <Gold.Protein.ActiveResidues>
 VAL166  LYS551  ARG553  GLY616  TRP617  ASP618  TYR619  PRO620  LYS621  CYS622 
 ASP623  PHE694  ASN695  SER759  ASP760  ASP761  ALA762  ILE779  LEU786  VAL792 
 PHE793  MET794  SER795  GLU796  ALA797  LYS798  CYS799  TRP800  GLU811  SER814 

> <Gold.Protein.RotatedAtoms>
  151.8923  135.0411  160.0498 H   0  0  0  0  0  0  0  0  0  0  0  0  # atno 6907 bound_to 6896
  152.2426  133.5143  159.5287 H   0  0  0  0  0  0  0  0  0  0  0  0  # atno 6908 bound_to 6896
  150.7058  134.0985  159.4000 H   0  0  0  0  0  0  0  0  0  0  0  0  # atno 6909 bound_to 6896
  146.0736  140.6173  142.8941 H   0  0  0  0  0  0  0  0  0  0  0  0  # atno 7974 bound_to 7965
  154.6048  140.0638  156.9417 H   0  0  0  0  0  0  0  0  0  0  0  0  # atno 8008 bound_to 7997
  155.2071  140.3319  155.4316 H   0  0  0  0  0  0  0  0  0  0  0  0  # atno 8009 bound_to 7997
  156.2341  140.1854  156.7150 H   0  0  0  0  0  0  0  0  0  0  0  0  # atno 8010 bound_to 7997
  140.3320  143.2989  151.9931 H   0  0  0  0  0  0  0  0  0  0  0  0  # atno 10167 bound_to 10162
  157.4783  131.1084  150.9715 H   0  0  0  0  0  0  0  0  0  0  0  0  # atno 10718 bound_to 10713
  153.3471  135.3991  155.1617 H   0  0  0  0  0  0  0  0  0  0  0  0  # atno 10763 bound_to 10752
  154.8655  135.3647  154.5270 H   0  0  0  0  0  0  0  0  0  0  0  0  # atno 10764 bound_to 10752
  153.5719  135.7078  153.5560 H   0  0  0  0  0  0  0  0  0  0  0  0  # atno 10765 bound_to 10752
  141.1526  133.7808  156.9994 H   0  0  0  0  0  0  0  0  0  0  0  0  # atno 11005 bound_to 11000
  144.7247  140.4487  143.6982 LP  0  0  0  0  0  0  0  0  0  0  0  0  # atno 17320 bound_to 7965
  145.6346  139.1541  143.2949 LP  0  0  0  0  0  0  0  0  0  0  0  0  # atno 17321 bound_to 7965
  139.4855  144.6227  151.7224 LP  0  0  0  0  0  0  0  0  0  0  0  0  # atno 17342 bound_to 10162
  140.5388  144.0612  150.6080 LP  0  0  0  0  0  0  0  0  0  0  0  0  # atno 17343 bound_to 10162
  157.0456  130.5766  149.5362 LP  0  0  0  0  0  0  0  0  0  0  0  0  # atno 17370 bound_to 10713
  156.0108  130.5199  150.7982 LP  0  0  0  0  0  0  0  0  0  0  0  0  # atno 17371 bound_to 10713
  140.0950  134.9569  157.1836 LP  0  0  0  0  0  0  0  0  0  0  0  0  # atno 17394 bound_to 11000
  140.3394  134.2720  155.7214 LP  0  0  0  0  0  0  0  0  0  0  0  0  # atno 17395 bound_to 11000

$$$$
