AV-unprocessed.smi:69|AV-procd|sdf|650|dock7
  -GOLD-   2262016543D 1   1.00000     0.00000
 Structure written by MMmdl.
 32 34  0  0  0  0  0  0  0  0  1 V2000
  152.6163  143.2285  161.3947 N   0  0  0  0  0  0  0  0  0  0  0  0
  152.2445  143.3283  160.1112 C   0  0  0  0  0  0  0  0  0  0  0  0
  152.0689  144.5637  159.5854 N   0  0  0  0  0  0  0  0  0  0  0  0
  151.6948  144.6894  158.3074 C   0  0  0  0  0  0  0  0  0  0  0  0
  151.4511  143.7309  157.4086 N   0  0  0  0  0  0  0  0  0  0  0  0
  151.6322  142.4880  157.9432 C   0  0  0  0  0  0  0  0  0  0  0  0
  152.0244  142.2014  159.2793 C   0  0  0  0  0  0  0  0  0  0  0  0
  152.1006  140.8268  159.4646 N   0  0  0  0  0  0  0  0  0  0  0  0
  151.7701  140.3334  158.3005 C   0  0  0  0  0  0  0  0  0  0  0  0
  151.4755  141.2662  157.3287 N   0  0  0  0  0  0  0  0  0  0  0  0
  151.0592  141.0458  155.9112 C   0  0  1  0  0  0  0  0  0  0  0  0
  151.2037  139.6981  155.6075 O   0  0  0  0  0  0  0  0  0  0  0  0
  150.3248  139.3787  154.5354 C   0  0  1  0  0  0  0  0  0  0  0  0
  149.8245  137.9319  154.6952 C   0  0  0  0  0  0  0  0  0  0  0  0
  148.6645  137.6887  153.9262 O   0  0  0  0  0  0  0  0  0  0  0  0
  149.2365  140.4745  154.4968 C   0  0  2  0  0  0  0  0  0  0  0  0
  149.3398  141.1977  153.2848 O   0  0  0  0  0  0  0  0  0  0  0  0
  149.5826  141.3853  155.6702 C   0  0  1  0  0  0  0  0  0  0  0  0
  148.7594  141.1070  156.7888 O   0  0  0  0  0  0  0  0  0  0  0  0
  151.7438  141.6387  155.3017 H   0  0  0  0  0  0  0  0  0  0  0  0
  150.9304  139.4256  153.6283 H   0  0  0  0  0  0  0  0  0  0  0  0
  148.2226  140.0786  154.5683 H   0  0  0  0  0  0  0  0  0  0  0  0
  149.4837  142.4459  155.4340 H   0  0  0  0  0  0  0  0  0  0  0  0
  152.7517  142.3174  161.8089 H   0  0  0  0  0  0  0  0  0  0  0  0
  152.7583  144.0630  161.9452 H   0  0  0  0  0  0  0  0  0  0  0  0
  151.5722  145.7026  157.9542 H   0  0  0  0  0  0  0  0  0  0  0  0
  151.7260  139.2690  158.1189 H   0  0  0  0  0  0  0  0  0  0  0  0
  150.5968  137.2376  154.3635 H   0  0  0  0  0  0  0  0  0  0  0  0
  149.6223  137.7083  155.7430 H   0  0  0  0  0  0  0  0  0  0  0  0
  148.8229  136.9414  153.3698 H   0  0  0  0  0  0  0  0  0  0  0  0
  149.2112  140.5978  152.5658 H   0  0  0  0  0  0  0  0  0  0  0  0
  147.9624  141.6077  156.7020 H   0  0  0  0  0  0  0  0  0  0  0  0
  1  2  1  0  0  0  0
  1 24  1  0  0  0  0
  1 25  1  0  0  0  0
  2  7  1  0  0  0  0
  2  3  2  0  0  0  0
  3  4  1  0  0  0  0
  4  5  2  0  0  0  0
  4 26  1  0  0  0  0
  5  6  1  0  0  0  0
  6 10  1  0  0  0  0
  6  7  2  0  0  0  0
  7  8  1  0  0  0  0
  8  9  2  0  0  0  0
  9 10  1  0  0  0  0
  9 27  1  0  0  0  0
 10 11  1  0  0  0  0
 11 20  1  0  0  0  0
 11 18  1  0  0  0  0
 11 12  1  0  0  0  0
 12 13  1  0  0  0  0
 13 21  1  0  0  0  0
 13 14  1  0  0  0  0
 13 16  1  0  0  0  0
 14 15  1  0  0  0  0
 14 28  1  0  0  0  0
 14 29  1  0  0  0  0
 15 30  1  0  0  0  0
 16 22  1  0  0  0  0
 16 17  1  0  0  0  0
 16 18  1  0  0  0  0
 17 31  1  0  0  0  0
 18 23  1  0  0  0  0
 18 19  1  0  0  0  0
 19 32  1  0  0  0  0
M  END
> <s_m_source_file>
AV-unprocessed.smi

> <i_m_source_file_index>
69

> <i_lp_mmshare_version>
43012

> <i_f3d_flags>
0

> <s_epik_input>
bjFbY0hdbmMoW05IMl0pYyhjMTIpbltjSF1uMltDQEBIXTNPW0NASF0oW0NIMl1bT0hdKVtDQEBIXShbT0hdKVtDQEhdM1tPSF0=

> <s_epik_cmdline>
J2VwaWtfcHl0aG9uJywgJy1waCcsICc3LjAnLCAnLXRuJywgJzgnLCAnLW1hJywgJzIwMCcsICctbWV0YWxfYmluZGluZycsICctaW1hZScsICc8aW5maWxlLm1hZT4nLCAnLW9tYWUnLCAnPG91dGZpbGUubWFlPic=

> <r_lp_tautomer_probability>
1

> <r_epik_Ionization_Penalty>
0.000428445

> <r_epik_Ionization_Penalty_Charging>
0

> <r_epik_Ionization_Penalty_Neutral>
0.000428445

> <r_epik_State_Penalty>
-0

> <r_epik_Charging_Adjusted_Penalty>
0

> <i_epik_Tot_Q>
0

> <i_epik_Tot_abs_Q>
0

> <r_epik_Metal_State_Penalty>
-0

> <b_epik_Metal_Only>
0

> <s_epik_Chemistry_Notes>
This compound contains an acetal/aminal-like group ( X-CH(R)-Y where X, Y are N, S, or O) that may be acid/base labile, releasing an aldehyde.

> <s_lp_Force_Field>
OPLS_2005

> <r_lp_Energy>
41.0304

> <b_lp_Chiralities_Consistent>
1

> <s_lp_Variant>
AV-unprocessed.smi:69-8

> <Gold.Version>
5.8.1

> <Gold.Id.Protein>
6NUR|6NUR_protein|mol2

> <Gold.PLP.Fitness>
44.0924

> <Gold.PLP.PLP>
-36.6707

> <Gold.PLP.part.hbond>
-3.6439

> <Gold.PLP.part.metal>
0.0000

> <Gold.PLP.part.buried>
-7.2105

> <Gold.PLP.part.nonpolar>
-26.1884

> <Gold.PLP.part.repulsive>
0.2333

> <Gold.PLP.ligand.clash>
0.0000

> <Gold.PLP.ligand.torsion>
0.3634

> <Gold.PLP.Chemscore.Hbond>
2.7134

> <Gold.PLP.Chemscore.CHOScore>
0.0000

> <Gold.PLP.Chemscore.Metal>
0.0000

> <Gold.Chemscore.Hbonds>
donor molecule, donor type, donor heavy atom, donor atom, acceptor molecule, acceptor atom, score
      L1  H    15    30       P1  7948  1.00
      L1  H    17    31       P1  7957  1.00
      P1  H  7989  7998       L1    17  0.01
      P1  H  8011  8017       L1    17  0.70

> <Gold.PLP.Chemscore.Internal.Correction>
0.0082

> <Gold.Rescore>
     Score         DG    S(hbond)    S(metal)    S(lipo)     H(rot)  DE(clash)    DE(int)     intcor
      5.90      -6.18       1.97        0.00      37.84       4.03       0.02       0.26       ----

> <Gold.Chemscore.Fitness>
5.9027

> <Gold.Chemscore.DG>
-6.1840

> <Gold.Chemscore.ZeroCoef>
-5.4800

> <Gold.Chemscore.Hbond>
1.9723

> <Gold.Chemscore.Metal>
0.0000

> <Gold.Chemscore.Lipo>
37.8402

> <Gold.Chemscore.Internal_Hbond>
0.0000

> <Gold.Chemscore.DEClash>
0.0200

> <Gold.Chemscore.DEInternal>
0.2612

> <Gold.Chemscore.Rot>
4.0277

> <Gold.Chemscore.Internal.Correction>
   9.000000E+99

> <Gold.Chemscore.Hbonds>
donor molecule, donor type, donor heavy atom, donor atom, acceptor molecule, acceptor atom, score
      L1  H    15    30       P1  7948  0.96
      L1  H    17    31       P1  7957  0.92
      P1  H  8011  8017       L1    17  0.07

> <Gold.Chemscore.Hbond.Weighted>
-6.5876

> <Gold.Chemscore.Metal.Weighted>
-0.0000

> <Gold.Chemscore.Lipo.Weighted>
-4.4273

> <Gold.Chemscore.Internal_Hbond.Weighted>
0.0000

> <Gold.Chemscore.DEClash.Weighted>
0.0200

> <Gold.Chemscore.DEInternal.Weighted>
0.2612

> <Gold.Chemscore.Rot.Weighted>
10.3110

> <Gold.Chemscore.Internal.Correction.Weighted>
   9.000000E+99

> <Gold.Protein.RotatedTorsions>
[ 6907 6896 6895 6894 ] final  131.41 input  -60.11 | X-H torsion
[ 7974 7965 7964 7962 ] final   35.02 input  175.53 | X-H torsion
[ 8008 7997 7996 7995 ] final  172.75 input   59.86 | X-H torsion
[ 10167 10162 10161 10158 ] final   19.62 input  -65.29 | X-H torsion
[ 10718 10713 10712 10709 ] final  112.99 input   66.30 | X-H torsion
[ 10763 10752 10751 10750 ] final -122.34 input  -60.55 | X-H torsion
[ 11005 11000 10999 10996 ] final  -60.20 input  -57.11 | X-H torsion

> <Gold.Protein.ActiveResidues>
 VAL166  LYS551  ARG553  GLY616  TRP617  ASP618  TYR619  PRO620  LYS621  CYS622 
 ASP623  PHE694  ASN695  SER759  ASP760  ASP761  ALA762  ILE779  LEU786  VAL792 
 PHE793  MET794  SER795  GLU796  ALA797  LYS798  CYS799  TRP800  GLU811  SER814 

> <Gold.Protein.RotatedAtoms>
  152.3428  133.6087  159.5888 H   0  0  0  0  0  0  0  0  0  0  0  0  # atno 6907 bound_to 6896
  150.7489  133.9695  159.3550 H   0  0  0  0  0  0  0  0  0  0  0  0  # atno 6908 bound_to 6896
  151.7557  135.0823  160.0389 H   0  0  0  0  0  0  0  0  0  0  0  0  # atno 6909 bound_to 6896
  146.1312  139.6195  142.9225 H   0  0  0  0  0  0  0  0  0  0  0  0  # atno 7974 bound_to 7965
  156.1143  140.1478  156.9294 H   0  0  0  0  0  0  0  0  0  0  0  0  # atno 8008 bound_to 7997
  154.4789  140.0885  156.7373 H   0  0  0  0  0  0  0  0  0  0  0  0  # atno 8009 bound_to 7997
  155.4541  140.3436  155.4306 H   0  0  0  0  0  0  0  0  0  0  0  0  # atno 8010 bound_to 7997
  140.5565  143.9414  150.6613 H   0  0  0  0  0  0  0  0  0  0  0  0  # atno 10167 bound_to 10162
  157.6362  131.0976  150.6976 H   0  0  0  0  0  0  0  0  0  0  0  0  # atno 10718 bound_to 10713
  154.8687  135.4136  154.2766 H   0  0  0  0  0  0  0  0  0  0  0  0  # atno 10763 bound_to 10752
  153.3666  135.7006  153.6676 H   0  0  0  0  0  0  0  0  0  0  0  0  # atno 10764 bound_to 10752
  153.5555  135.3620  155.2749 H   0  0  0  0  0  0  0  0  0  0  0  0  # atno 10765 bound_to 10752
  141.1278  133.6621  156.5188 H   0  0  0  0  0  0  0  0  0  0  0  0  # atno 11005 bound_to 11000
  145.5256  141.0430  143.2411 LP  0  0  0  0  0  0  0  0  0  0  0  0  # atno 17320 bound_to 7965
  144.7693  139.6773  143.7201 LP  0  0  0  0  0  0  0  0  0  0  0  0  # atno 17321 bound_to 7965
  140.2854  143.3361  152.1112 LP  0  0  0  0  0  0  0  0  0  0  0  0  # atno 17342 bound_to 10162
  139.5050  144.6787  151.6063 LP  0  0  0  0  0  0  0  0  0  0  0  0  # atno 17343 bound_to 10162
  156.7307  130.4709  149.5500 LP  0  0  0  0  0  0  0  0  0  0  0  0  # atno 17370 bound_to 10713
  156.1604  130.6370  151.0711 LP  0  0  0  0  0  0  0  0  0  0  0  0  # atno 17371 bound_to 10713
  140.4309  134.7102  157.4941 LP  0  0  0  0  0  0  0  0  0  0  0  0  # atno 17394 bound_to 11000
  140.0294  134.6428  155.9127 LP  0  0  0  0  0  0  0  0  0  0  0  0  # atno 17395 bound_to 11000

$$$$
