AV-unprocessed.smi:1775|AV-procd|sdf|7172|dock3
  -GOLD-   22720 8413D 1   1.00000     0.00000
 Structure written by MMmdl.
 37 39  0  0  0  0  0  0  0  0  2 V2000
  149.4464  142.9080  158.5381 O   0  0  0  0  0  0  0  0  0  0  0  0
  150.3861  142.4659  157.8774 C   0  0  0  0  0  0  0  0  0  0  0  0
  150.2869  141.8237  156.6996 N   0  0  0  0  0  0  0  0  0  0  0  0
  149.1434  141.5450  155.9325 C   0  0  0  0  0  0  0  0  0  0  0  0
  147.9053  142.0604  156.1697 C   0  0  0  0  0  0  0  0  0  0  0  0
  146.7560  141.7474  155.3298 C   0  0  0  0  0  0  0  0  0  0  0  0
  145.3441  142.2235  155.6222 C   0  0  0  0  0  0  0  0  0  0  0  0
  144.8722  142.9690  154.6229 F   0  0  0  0  0  0  0  0  0  0  0  0
  144.5194  141.1919  155.8034 F   0  0  0  0  0  0  0  0  0  0  0  0
  145.3355  142.9617  156.7311 F   0  0  0  0  0  0  0  0  0  0  0  0
  147.0780  140.8816  154.3026 C   0  0  0  0  0  0  0  0  0  0  0  0
  148.2783  140.3512  153.9816 N   0  5  0  0  0  0  0  0  0  0  0  0
  149.3468  140.6532  154.7721 C   0  0  0  0  0  0  0  0  0  0  0  0
  150.4688  140.2018  154.5389 O   0  0  0  0  0  0  0  0  0  0  0  0
  151.6686  142.5489  158.2639 N   0  0  0  0  0  0  0  0  0  0  0  0
  152.1765  143.1539  159.4936 C   0  0  0  0  0  0  0  0  0  0  0  0
  152.4567  142.1485  160.6005 C   0  0  0  0  0  0  0  0  0  0  0  0
  153.0720  142.5775  161.9114 C   0  0  0  0  0  0  0  0  0  0  0  0
  153.8682  141.7350  160.9401 C   0  0  0  0  0  0  0  0  0  0  0  0
  151.3286  144.3077  160.0082 C   0  0  0  0  0  0  0  0  0  0  0  0
  150.7449  145.3287  159.0619 C   0  0  0  0  0  0  0  0  0  0  0  0
  151.8517  145.7246  160.0137 C   0  0  0  0  0  0  0  0  0  0  0  0
  151.1428  141.4476  156.3191 H   0  0  0  0  0  0  0  0  0  0  0  0
  147.7395  142.7440  156.9862 H   0  0  0  0  0  0  0  0  0  0  0  0
  146.2440  140.5644  153.6408 H   0  0  0  0  0  0  0  0  0  0  0  0
  152.3616  142.1490  157.6483 H   0  0  0  0  0  0  0  0  0  0  0  0
  153.1395  143.5785  159.2060 H   0  0  0  0  0  0  0  0  0  0  0  0
  151.7072  141.3628  160.6762 H   0  0  0  0  0  0  0  0  0  0  0  0
  153.3641  143.6197  162.0227 H   0  0  0  0  0  0  0  0  0  0  0  0
  152.7097  142.0953  162.8170 H   0  0  0  0  0  0  0  0  0  0  0  0
  154.0363  140.6912  161.1973 H   0  0  0  0  0  0  0  0  0  0  0  0
  154.6811  142.2198  160.4030 H   0  0  0  0  0  0  0  0  0  0  0  0
  150.7027  144.0443  160.8589 H   0  0  0  0  0  0  0  0  0  0  0  0
  150.9960  145.2432  158.0067 H   0  0  0  0  0  0  0  0  0  0  0  0
  149.7415  145.6919  159.2747 H   0  0  0  0  0  0  0  0  0  0  0  0
  151.5861  146.3535  160.8610 H   0  0  0  0  0  0  0  0  0  0  0  0
  152.8356  145.9082  159.5867 H   0  0  0  0  0  0  0  0  0  0  0  0
  1  2  2  0  0  0  0
  2  3  1  0  0  0  0
  2 15  1  0  0  0  0
  3  4  1  0  0  0  0
  3 23  1  0  0  0  0
  4 13  1  0  0  0  0
  4  5  2  0  0  0  0
  5  6  1  0  0  0  0
  5 24  1  0  0  0  0
  6  7  1  0  0  0  0
  6 11  2  0  0  0  0
  7  8  1  0  0  0  0
  7  9  1  0  0  0  0
  7 10  1  0  0  0  0
 11 12  1  0  0  0  0
 11 25  1  0  0  0  0
 12 13  1  0  0  0  0
 13 14  2  0  0  0  0
 15 16  1  0  0  0  0
 15 26  1  0  0  0  0
 16 17  1  0  0  0  0
 16 20  1  0  0  0  0
 16 27  1  0  0  0  0
 17 19  1  0  0  0  0
 17 18  1  0  0  0  0
 17 28  1  0  0  0  0
 18 19  1  0  0  0  0
 18 29  1  0  0  0  0
 18 30  1  0  0  0  0
 19 31  1  0  0  0  0
 19 32  1  0  0  0  0
 20 22  1  0  0  0  0
 20 21  1  0  0  0  0
 20 33  1  0  0  0  0
 21 22  1  0  0  0  0
 21 34  1  0  0  0  0
 21 35  1  0  0  0  0
 22 36  1  0  0  0  0
 22 37  1  0  0  0  0
M  CHG  1  12  -1
M  END
> <s_m_source_file>
AV-unprocessed.smi

> <i_m_source_file_index>
1775

> <i_lp_mmshare_version>
43012

> <i_f3d_flags>
0

> <s_epik_input>
W0NIMl0xW0NIMl1bQ0hdMVtDSF0oW0NIXTJbQ0gyXVtDSDJdMilbTkhdQyg9TylbTkhdYzNbY0hdYyhDKEYpKEYpRilbY0hdW25IXWMzPU8=

> <s_epik_cmdline>
J2VwaWtfcHl0aG9uJywgJy1waCcsICc3LjAnLCAnLXRuJywgJzgnLCAnLW1hJywgJzIwMCcsICctbWV0YWxfYmluZGluZycsICctaW1hZScsICc8aW5maWxlLm1hZT4nLCAnLW9tYWUnLCAnPG91dGZpbGUubWFlPic=

> <r_lp_tautomer_probability>
1

> <r_epik_Ionization_Penalty>
3.19177

> <r_epik_Ionization_Penalty_Charging>
0.180322

> <r_epik_Ionization_Penalty_Neutral>
3.01145

> <r_epik_State_Penalty>
3.00772

> <r_epik_Charging_Adjusted_Penalty>
3.18804

> <i_epik_Tot_Q>
-1

> <i_epik_Tot_abs_Q>
1

> <r_epik_Metal_State_Penalty>
0.454354

> <b_epik_Metal_Only>
1

> <s_lp_Force_Field>
OPLS_2005

> <r_lp_Energy>
38.3623

> <b_lp_Chiralities_Consistent>
1

> <s_lp_Variant>
AV-unprocessed.smi:1775-2

> <Gold.Version>
5.8.1

> <Gold.Id.Protein>
6NUR|6NUR_protein|mol2

> <Gold.PLP.Fitness>
43.4383

> <Gold.PLP.PLP>
-42.0739

> <Gold.PLP.part.hbond>
-1.0157

> <Gold.PLP.part.metal>
0.0000

> <Gold.PLP.part.buried>
-3.7008

> <Gold.PLP.part.nonpolar>
-38.2953

> <Gold.PLP.part.repulsive>
0.8780

> <Gold.PLP.ligand.clash>
0.0000

> <Gold.PLP.ligand.torsion>
1.9331

> <Gold.PLP.Chemscore.Hbond>
1.0000

> <Gold.PLP.Chemscore.CHOScore>
0.0000

> <Gold.PLP.Chemscore.Metal>
0.0000

> <Gold.Chemscore.Hbonds>
donor molecule, donor type, donor heavy atom, donor atom, acceptor molecule, acceptor atom, score
      P1  H  7989  7998       L1    14  1.00

> <Gold.PLP.Chemscore.Internal.Correction>
2.2306

> <Gold.Rescore>
     Score         DG    S(hbond)    S(metal)    S(lipo)     H(rot)  DE(clash)    DE(int)     intcor
     11.01     -16.83       0.97        0.00     101.90       1.49       1.18       4.64       ----

> <Gold.Chemscore.Fitness>
11.0109

> <Gold.Chemscore.DG>
-16.8276

> <Gold.Chemscore.ZeroCoef>
-5.4800

> <Gold.Chemscore.Hbond>
0.9673

> <Gold.Chemscore.Metal>
0.0000

> <Gold.Chemscore.Lipo>
101.8985

> <Gold.Chemscore.Internal_Hbond>
0.0000

> <Gold.Chemscore.DEClash>
1.1816

> <Gold.Chemscore.DEInternal>
4.6351

> <Gold.Chemscore.Rot>
1.4864

> <Gold.Chemscore.Internal.Correction>
   9.000000E+99

> <Gold.Chemscore.Hbonds>
donor molecule, donor type, donor heavy atom, donor atom, acceptor molecule, acceptor atom, score
      P1  H  7989  7998       L1    14  0.99

> <Gold.Chemscore.Hbond.Weighted>
-3.2306

> <Gold.Chemscore.Metal.Weighted>
-0.0000

> <Gold.Chemscore.Lipo.Weighted>
-11.9221

> <Gold.Chemscore.Internal_Hbond.Weighted>
0.0000

> <Gold.Chemscore.DEClash.Weighted>
1.1816

> <Gold.Chemscore.DEInternal.Weighted>
4.6351

> <Gold.Chemscore.Rot.Weighted>
3.8052

> <Gold.Chemscore.Internal.Correction.Weighted>
   9.000000E+99

> <Gold.Protein.RotatedTorsions>
[ 6907 6896 6895 6894 ] final  -52.69 input  -60.11 | X-H torsion
[ 7974 7965 7964 7962 ] final   10.58 input  175.53 | X-H torsion
[ 8008 7997 7996 7995 ] final  -77.13 input   59.86 | X-H torsion
[ 10167 10162 10161 10158 ] final  140.57 input  -65.29 | X-H torsion
[ 10718 10713 10712 10709 ] final  -83.64 input   66.30 | X-H torsion
[ 10763 10752 10751 10750 ] final    6.22 input  -60.55 | X-H torsion
[ 11005 11000 10999 10996 ] final  -51.75 input  -57.11 | X-H torsion

> <Gold.Protein.ActiveResidues>
 VAL166  LYS551  ARG553  GLY616  TRP617  ASP618  TYR619  PRO620  LYS621  CYS622 
 ASP623  PHE694  ASN695  SER759  ASP760  ASP761  ALA762  ILE779  LEU786  VAL792 
 PHE793  MET794  SER795  GLU796  ALA797  LYS798  CYS799  TRP800  GLU811  SER814 

> <Gold.Protein.RotatedAtoms>
  150.8495  134.7815  159.6996 H   0  0  0  0  0  0  0  0  0  0  0  0  # atno 6907 bound_to 6896
  152.4563  134.5280  159.9812 H   0  0  0  0  0  0  0  0  0  0  0  0  # atno 6908 bound_to 6896
  151.5404  133.3396  159.2970 H   0  0  0  0  0  0  0  0  0  0  0  0  # atno 6909 bound_to 6896
  146.2386  139.9613  142.8458 H   0  0  0  0  0  0  0  0  0  0  0  0  # atno 7974 bound_to 7965
  154.5568  140.0715  156.8755 H   0  0  0  0  0  0  0  0  0  0  0  0  # atno 8008 bound_to 7997
  155.2888  140.3376  155.4235 H   0  0  0  0  0  0  0  0  0  0  0  0  # atno 8009 bound_to 7997
  156.2008  140.1721  156.7888 H   0  0  0  0  0  0  0  0  0  0  0  0  # atno 8010 bound_to 7997
  139.5045  144.6226  151.6015 H   0  0  0  0  0  0  0  0  0  0  0  0  # atno 10167 bound_to 10162
  156.0016  130.4672  150.4288 H   0  0  0  0  0  0  0  0  0  0  0  0  # atno 10718 bound_to 10713
  153.2502  135.6913  153.7687 H   0  0  0  0  0  0  0  0  0  0  0  0  # atno 10763 bound_to 10752
  153.6785  135.3332  155.3173 H   0  0  0  0  0  0  0  0  0  0  0  0  # atno 10764 bound_to 10752
  154.8391  135.4517  154.1456 H   0  0  0  0  0  0  0  0  0  0  0  0  # atno 10765 bound_to 10752
  141.0888  133.6637  156.3924 H   0  0  0  0  0  0  0  0  0  0  0  0  # atno 11005 bound_to 11000
  145.1768  140.9748  143.4289 LP  0  0  0  0  0  0  0  0  0  0  0  0  # atno 17320 bound_to 7965
  144.9978  139.3627  143.6182 LP  0  0  0  0  0  0  0  0  0  0  0  0  # atno 17321 bound_to 7965
  140.5933  143.9741  150.6338 LP  0  0  0  0  0  0  0  0  0  0  0  0  # atno 17342 bound_to 10162
  140.2929  143.3312  152.1045 LP  0  0  0  0  0  0  0  0  0  0  0  0  # atno 17343 bound_to 10162
  157.2339  131.0510  151.2476 LP  0  0  0  0  0  0  0  0  0  0  0  0  # atno 17370 bound_to 10713
  157.3685  130.7168  149.6549 LP  0  0  0  0  0  0  0  0  0  0  0  0  # atno 17371 bound_to 10713
  140.5301  134.6221  157.5347 LP  0  0  0  0  0  0  0  0  0  0  0  0  # atno 17394 bound_to 11000
  139.9710  134.7293  156.0041 LP  0  0  0  0  0  0  0  0  0  0  0  0  # atno 17395 bound_to 11000

$$$$
