AV-unprocessed.smi:2126|AV-procd|sdf|8675|dock7
  -GOLD-   2272011423D 1   1.00000     0.00000
 Structure written by MMmdl.
 40 42  0  0  0  0  0  0  0  0  1 V2000
  156.8461  130.6620  166.5213 C   0  0  0  0  0  0  0  0  0  0  0  0
  155.5857  131.1298  166.0642 O   0  0  0  0  0  0  0  0  0  0  0  0
  155.5215  132.3964  165.5243 C   0  0  0  0  0  0  0  0  0  0  0  0
  156.6381  133.2534  165.3657 C   0  0  0  0  0  0  0  0  0  0  0  0
  156.4781  134.5349  164.8041 C   0  0  0  0  0  0  0  0  0  0  0  0
  155.2120  134.9918  164.3879 C   0  0  0  0  0  0  0  0  0  0  0  0
  155.1481  136.2586  163.8482 O   0  0  0  0  0  0  0  0  0  0  0  0
  153.8658  136.8358  163.6388 C   0  0  0  0  0  0  0  0  0  0  0  0
  153.8046  137.4249  162.2219 C   0  0  2  0  0  0  0  0  0  0  0  0
  154.2508  136.4394  161.3110 O   0  0  0  0  0  0  0  0  0  0  0  0
  154.6588  138.6995  162.0753 C   0  0  0  0  0  0  0  0  0  0  0  0
  154.1641  139.5843  161.0354 N   0  0  0  0  0  0  0  0  0  0  0  0
  154.1102  139.3303  159.7138 C   0  0  0  0  0  0  0  0  0  0  0  0
  153.6190  140.2853  158.9292 N   0  0  0  0  0  0  0  0  0  0  0  0
  153.3175  141.2752  159.8489 C   0  0  0  0  0  0  0  0  0  0  0  0
  152.7622  142.5616  159.6633 C   0  0  0  0  0  0  0  0  0  0  0  0
  152.5442  143.4117  160.7675 C   0  0  0  0  0  0  0  0  0  0  0  0
  152.8775  142.9907  162.0713 C   0  0  0  0  0  0  0  0  0  0  0  0
  153.4320  141.7135  162.2812 C   0  0  0  0  0  0  0  0  0  0  0  0
  153.6471  140.8678  161.1770 C   0  0  0  0  0  0  0  0  0  0  0  0
  154.0957  134.1344  164.5468 C   0  0  0  0  0  0  0  0  0  0  0  0
  154.2554  132.8534  165.1087 C   0  0  0  0  0  0  0  0  0  0  0  0
  156.7314  129.6559  166.9242 H   0  0  0  0  0  0  0  0  0  0  0  0
  157.2409  131.2931  167.3186 H   0  0  0  0  0  0  0  0  0  0  0  0
  157.5710  130.6110  165.7076 H   0  0  0  0  0  0  0  0  0  0  0  0
  157.6295  132.9518  165.6673 H   0  0  0  0  0  0  0  0  0  0  0  0
  157.3404  135.1757  164.6918 H   0  0  0  0  0  0  0  0  0  0  0  0
  153.0793  136.0901  163.7672 H   0  0  0  0  0  0  0  0  0  0  0  0
  153.7041  137.6280  164.3721 H   0  0  0  0  0  0  0  0  0  0  0  0
  152.7664  137.6517  161.9759 H   0  0  0  0  0  0  0  0  0  0  0  0
  155.1132  136.1564  161.5748 H   0  0  0  0  0  0  0  0  0  0  0  0
  154.6744  139.2539  163.0146 H   0  0  0  0  0  0  0  0  0  0  0  0
  155.6948  138.4426  161.8512 H   0  0  0  0  0  0  0  0  0  0  0  0
  154.4537  138.3914  159.3042 H   0  0  0  0  0  0  0  0  0  0  0  0
  152.5045  142.8958  158.6693 H   0  0  0  0  0  0  0  0  0  0  0  0
  152.1197  144.3927  160.6132 H   0  0  0  0  0  0  0  0  0  0  0  0
  152.7080  143.6499  162.9101 H   0  0  0  0  0  0  0  0  0  0  0  0
  153.6914  141.3885  163.2778 H   0  0  0  0  0  0  0  0  0  0  0  0
  153.1038  134.4351  164.2464 H   0  0  0  0  0  0  0  0  0  0  0  0
  153.3929  132.2131  165.2226 H   0  0  0  0  0  0  0  0  0  0  0  0
  1  2  1  0  0  0  0
  1 23  1  0  0  0  0
  1 24  1  0  0  0  0
  1 25  1  0  0  0  0
  2  3  1  0  0  0  0
  3 22  1  0  0  0  0
  3  4  2  0  0  0  0
  4  5  1  0  0  0  0
  4 26  1  0  0  0  0
  5  6  2  0  0  0  0
  5 27  1  0  0  0  0
  6  7  1  0  0  0  0
  6 21  1  0  0  0  0
  7  8  1  0  0  0  0
  8  9  1  0  0  0  0
  8 28  1  0  0  0  0
  8 29  1  0  0  0  0
  9 10  1  0  0  0  0
  9 11  1  0  0  0  0
  9 30  1  0  0  0  0
 10 31  1  0  0  0  0
 11 12  1  0  0  0  0
 11 32  1  0  0  0  0
 11 33  1  0  0  0  0
 12 20  1  0  0  0  0
 12 13  1  0  0  0  0
 13 14  2  0  0  0  0
 13 34  1  0  0  0  0
 14 15  1  0  0  0  0
 15 20  2  0  0  0  0
 15 16  1  0  0  0  0
 16 17  2  0  0  0  0
 16 35  1  0  0  0  0
 17 18  1  0  0  0  0
 17 36  1  0  0  0  0
 18 19  2  0  0  0  0
 18 37  1  0  0  0  0
 19 20  1  0  0  0  0
 19 38  1  0  0  0  0
 21 22  2  0  0  0  0
 21 39  1  0  0  0  0
 22 40  1  0  0  0  0
M  END
> <s_m_source_file>
AV-unprocessed.smi

> <i_m_source_file_index>
2126

> <i_lp_mmshare_version>
43012

> <i_f3d_flags>
0

> <s_epik_input>
W0NIM11PYzFbY0hdW2NIXWMoW2NIXVtjSF0xKU9bQ0gyXVtDQEhdKFtPSF0pW0NIMl1uKFtjSF1uMiljKGMyMylbY0hdW2NIXVtjSF1bY0hdMw==

> <s_epik_cmdline>
J2VwaWtfcHl0aG9uJywgJy1waCcsICc3LjAnLCAnLXRuJywgJzgnLCAnLW1hJywgJzIwMCcsICctbWV0YWxfYmluZGluZycsICctaW1hZScsICc8aW5maWxlLm1hZT4nLCAnLW9tYWUnLCAnPG91dGZpbGUubWFlPic=

> <r_lp_tautomer_probability>
1

> <r_epik_Ionization_Penalty>
0.0608933

> <r_epik_Ionization_Penalty_Charging>
0

> <r_epik_Ionization_Penalty_Neutral>
0.0608933

> <r_epik_State_Penalty>
0.0528196

> <r_epik_Charging_Adjusted_Penalty>
0.0528196

> <i_epik_Tot_Q>
0

> <i_epik_Tot_abs_Q>
0

> <r_epik_Metal_State_Penalty>
5.52429e-05

> <b_epik_Metal_Only>
0

> <s_lp_Force_Field>
OPLS_2005

> <r_lp_Energy>
18.1491

> <b_lp_Chiralities_Consistent>
1

> <s_lp_Variant>
AV-unprocessed.smi:2126-1

> <Gold.Version>
5.8.1

> <Gold.Id.Protein>
6NUR|6NUR_protein|mol2

> <Gold.PLP.Fitness>
46.6180

> <Gold.PLP.PLP>
-45.4505

> <Gold.PLP.part.hbond>
-1.0000

> <Gold.PLP.part.metal>
0.0000

> <Gold.PLP.part.buried>
-4.6635

> <Gold.PLP.part.nonpolar>
-40.3713

> <Gold.PLP.part.repulsive>
0.0690

> <Gold.PLP.ligand.clash>
0.0000

> <Gold.PLP.ligand.torsion>
0.8352

> <Gold.PLP.Chemscore.Hbond>
0.9280

> <Gold.PLP.Chemscore.CHOScore>
0.0000

> <Gold.PLP.Chemscore.Metal>
0.0000

> <Gold.Chemscore.Hbonds>
donor molecule, donor type, donor heavy atom, donor atom, acceptor molecule, acceptor atom, score
      P1  H  7997  8009       L1    14  0.71

> <Gold.PLP.Chemscore.Internal.Correction>
0.0540

> <Gold.Rescore>
     Score         DG    S(hbond)    S(metal)    S(lipo)     H(rot)  DE(clash)    DE(int)     intcor
     17.04     -17.89       0.96        0.00     133.51       2.51       0.11       0.74       ----

> <Gold.Chemscore.Fitness>
17.0351

> <Gold.Chemscore.DG>
-17.8858

> <Gold.Chemscore.ZeroCoef>
-5.4800

> <Gold.Chemscore.Hbond>
0.9601

> <Gold.Chemscore.Metal>
0.0000

> <Gold.Chemscore.Lipo>
133.5071

> <Gold.Chemscore.Internal_Hbond>
0.0000

> <Gold.Chemscore.DEClash>
0.1066

> <Gold.Chemscore.DEInternal>
0.7441

> <Gold.Chemscore.Rot>
2.5083

> <Gold.Chemscore.Internal.Correction>
   9.000000E+99

> <Gold.Chemscore.Hbonds>
donor molecule, donor type, donor heavy atom, donor atom, acceptor molecule, acceptor atom, score
      P1  H  7997  8009       L1    14  0.18

> <Gold.Chemscore.Hbond.Weighted>
-3.2067

> <Gold.Chemscore.Metal.Weighted>
-0.0000

> <Gold.Chemscore.Lipo.Weighted>
-15.6203

> <Gold.Chemscore.Internal_Hbond.Weighted>
0.0000

> <Gold.Chemscore.DEClash.Weighted>
0.1066

> <Gold.Chemscore.DEInternal.Weighted>
0.7441

> <Gold.Chemscore.Rot.Weighted>
6.4212

> <Gold.Chemscore.Internal.Correction.Weighted>
   9.000000E+99

> <Gold.Protein.RotatedTorsions>
[ 6907 6896 6895 6894 ] final  -44.56 input  -60.11 | X-H torsion
[ 7974 7965 7964 7962 ] final   81.83 input  175.53 | X-H torsion
[ 8008 7997 7996 7995 ] final  135.15 input   59.86 | X-H torsion
[ 10167 10162 10161 10158 ] final   -3.63 input  -65.29 | X-H torsion
[ 10718 10713 10712 10709 ] final  -73.09 input   66.30 | X-H torsion
[ 10763 10752 10751 10750 ] final   43.72 input  -60.55 | X-H torsion
[ 11005 11000 10999 10996 ] final   44.44 input  -57.11 | X-H torsion

> <Gold.Protein.ActiveResidues>
 VAL166  LYS551  ARG553  GLY616  TRP617  ASP618  TYR619  PRO620  LYS621  CYS622 
 ASP623  PHE694  ASN695  SER759  ASP760  ASP761  ALA762  ILE779  LEU786  VAL792 
 PHE793  MET794  SER795  GLU796  ALA797  LYS798  CYS799  TRP800  GLU811  SER814 

> <Gold.Protein.RotatedAtoms>
  150.9315  134.8730  159.7553 H   0  0  0  0  0  0  0  0  0  0  0  0  # atno 6907 bound_to 6896
  152.5040  134.4072  159.9446 H   0  0  0  0  0  0  0  0  0  0  0  0  # atno 6908 bound_to 6896
  151.4099  133.3691  159.2777 H   0  0  0  0  0  0  0  0  0  0  0  0  # atno 6909 bound_to 6896
  145.6330  139.2409  143.2074 H   0  0  0  0  0  0  0  0  0  0  0  0  # atno 7974 bound_to 7965
  156.3002  140.2478  156.3535 H   0  0  0  0  0  0  0  0  0  0  0  0  # atno 8008 bound_to 7997
  154.8944  140.0408  157.1876 H   0  0  0  0  0  0  0  0  0  0  0  0  # atno 8009 bound_to 7997
  154.8565  140.2914  155.5570 H   0  0  0  0  0  0  0  0  0  0  0  0  # atno 8010 bound_to 7997
  140.6897  143.6518  150.8343 H   0  0  0  0  0  0  0  0  0  0  0  0  # atno 10167 bound_to 10162
  156.0294  130.4386  150.2690 H   0  0  0  0  0  0  0  0  0  0  0  0  # atno 10718 bound_to 10713
  152.9855  135.6092  154.3158 H   0  0  0  0  0  0  0  0  0  0  0  0  # atno 10763 bound_to 10752
  154.2871  135.2775  155.2673 H   0  0  0  0  0  0  0  0  0  0  0  0  # atno 10764 bound_to 10752
  154.4986  135.5873  153.6570 H   0  0  0  0  0  0  0  0  0  0  0  0  # atno 10765 bound_to 10752
  140.1551  134.4412  155.8355 H   0  0  0  0  0  0  0  0  0  0  0  0  # atno 11005 bound_to 11000
  146.1342  140.7145  142.9398 LP  0  0  0  0  0  0  0  0  0  0  0  0  # atno 17320 bound_to 7965
  144.7186  140.4297  143.7025 LP  0  0  0  0  0  0  0  0  0  0  0  0  # atno 17321 bound_to 7965
  140.0229  143.5523  152.2793 LP  0  0  0  0  0  0  0  0  0  0  0  0  # atno 17342 bound_to 10162
  139.6288  144.7641  151.2580 LP  0  0  0  0  0  0  0  0  0  0  0  0  # atno 17343 bound_to 10162
  157.0793  131.0139  151.3162 LP  0  0  0  0  0  0  0  0  0  0  0  0  # atno 17370 bound_to 10713
  157.4939  130.7839  149.7536 LP  0  0  0  0  0  0  0  0  0  0  0  0  # atno 17371 bound_to 10713
  141.2203  133.6889  156.7493 LP  0  0  0  0  0  0  0  0  0  0  0  0  # atno 17394 bound_to 11000
  140.2557  134.8506  157.3710 LP  0  0  0  0  0  0  0  0  0  0  0  0  # atno 17395 bound_to 11000

$$$$
