AV-unprocessed.smi:2856|AV-procd|sdf|10994|dock6
  -GOLD-   2272015453D 1   1.00000     0.00000
 Structure written by MMmdl.
 37 38  0  0  0  0  0  0  0  0  1 V2000
  156.9382  140.3972  166.4059 C   0  0  0  0  0  0  0  0  0  0  0  0
  157.4106  139.9744  164.7071 S   0  0  0  0  0  0  0  0  0  0  0  0
  156.3034  138.5655  164.3796 C   0  0  1  0  0  0  0  0  0  0  0  0
  155.2304  138.4501  165.4799 C   0  0  0  0  0  0  0  0  0  0  0  0
  154.3094  137.2426  165.2435 C   0  0  0  0  0  0  0  0  0  0  0  0
  153.6614  137.2994  163.8519 C   0  0  0  0  0  0  0  0  0  0  0  0
  154.7244  137.4175  162.7460 C   0  0  0  0  0  0  0  0  0  0  0  0
  155.6676  138.6196  162.9681 C   0  0  1  0  0  0  0  0  0  0  0  0
  154.9553  139.8812  162.7592 N   0  0  0  0  0  0  0  0  0  0  0  0
  154.4030  140.2802  161.6046 C   0  0  0  0  0  0  0  0  0  0  0  0
  154.4351  139.6149  160.5690 O   0  0  0  0  0  0  0  0  0  0  0  0
  153.8159  141.4820  161.7352 N   0  0  0  0  0  0  0  0  0  0  0  0
  153.1243  142.2184  160.7398 C   0  0  0  0  0  0  0  0  0  0  0  0
  152.7409  143.5674  160.9649 C   0  0  0  0  0  0  0  0  0  0  0  0
  152.1094  143.9061  159.8011 C   0  0  0  0  0  0  0  0  0  0  0  0
  151.4477  145.1561  159.3319 C   0  0  0  0  0  0  0  0  0  0  0  0
  152.1135  142.8555  158.9365 O   0  0  0  0  0  0  0  0  0  0  0  0
  152.7656  141.7761  159.5443 N   0  0  0  0  0  0  0  0  0  0  0  0
  157.4558  141.3028  166.7223 H   0  0  0  0  0  0  0  0  0  0  0  0
  157.2059  139.5954  167.0932 H   0  0  0  0  0  0  0  0  0  0  0  0
  155.8646  140.5733  166.4728 H   0  0  0  0  0  0  0  0  0  0  0  0
  156.9234  137.6696  164.4367 H   0  0  0  0  0  0  0  0  0  0  0  0
  155.7080  138.3569  166.4557 H   0  0  0  0  0  0  0  0  0  0  0  0
  154.6340  139.3626  165.5175 H   0  0  0  0  0  0  0  0  0  0  0  0
  154.8841  136.3207  165.3411 H   0  0  0  0  0  0  0  0  0  0  0  0
  153.5371  137.2078  166.0123 H   0  0  0  0  0  0  0  0  0  0  0  0
  153.0557  136.4077  163.6891 H   0  0  0  0  0  0  0  0  0  0  0  0
  152.9784  138.1481  163.8004 H   0  0  0  0  0  0  0  0  0  0  0  0
  155.3154  136.5011  162.7237 H   0  0  0  0  0  0  0  0  0  0  0  0
  154.2417  137.4863  161.7704 H   0  0  0  0  0  0  0  0  0  0  0  0
  156.4701  138.5498  162.2327 H   0  0  0  0  0  0  0  0  0  0  0  0
  154.8838  140.4953  163.5572 H   0  0  0  0  0  0  0  0  0  0  0  0
  153.8589  141.9113  162.6475 H   0  0  0  0  0  0  0  0  0  0  0  0
  152.8973  144.1859  161.8362 H   0  0  0  0  0  0  0  0  0  0  0  0
  151.4139  145.9015  160.1268 H   0  0  0  0  0  0  0  0  0  0  0  0
  150.4246  144.9552  159.0136 H   0  0  0  0  0  0  0  0  0  0  0  0
  151.9870  145.5858  158.4878 H   0  0  0  0  0  0  0  0  0  0  0  0
  1  2  1  0  0  0  0
  1 19  1  0  0  0  0
  1 20  1  0  0  0  0
  1 21  1  0  0  0  0
  2  3  1  0  0  0  0
  3  8  1  0  0  0  0
  3  4  1  0  0  0  0
  3 22  1  0  0  0  0
  4  5  1  0  0  0  0
  4 23  1  0  0  0  0
  4 24  1  0  0  0  0
  5  6  1  0  0  0  0
  5 25  1  0  0  0  0
  5 26  1  0  0  0  0
  6  7  1  0  0  0  0
  6 27  1  0  0  0  0
  6 28  1  0  0  0  0
  7  8  1  0  0  0  0
  7 29  1  0  0  0  0
  7 30  1  0  0  0  0
  8  9  1  0  0  0  0
  8 31  1  0  0  0  0
  9 10  1  0  0  0  0
  9 32  1  0  0  0  0
 10 11  2  0  0  0  0
 10 12  1  0  0  0  0
 12 13  1  0  0  0  0
 12 33  1  0  0  0  0
 13 18  2  0  0  0  0
 13 14  1  0  0  0  0
 14 15  2  0  0  0  0
 14 34  1  0  0  0  0
 15 16  1  0  0  0  0
 15 17  1  0  0  0  0
 16 35  1  0  0  0  0
 16 36  1  0  0  0  0
 16 37  1  0  0  0  0
 17 18  1  0  0  0  0
M  END
> <s_m_source_file>
AV-unprocessed.smi

> <i_m_source_file_index>
2856

> <i_lp_mmshare_version>
43012

> <i_f3d_flags>
0

> <s_epik_input>
W0NIM11TW0NAQEhdMVtDSDJdW0NIMl1bQ0gyXVtDSDJdW0NASF0xW05IXUMoPU8pW05IXWMyW2NIXWMoW0NIM10pb24y

> <s_epik_cmdline>
J2VwaWtfcHl0aG9uJywgJy1waCcsICc3LjAnLCAnLXRuJywgJzgnLCAnLW1hJywgJzIwMCcsICctbWV0YWxfYmluZGluZycsICctaW1hZScsICc8aW5maWxlLm1hZT4nLCAnLW9tYWUnLCAnPG91dGZpbGUubWFlPic=

> <r_lp_tautomer_probability>
1

> <r_epik_Ionization_Penalty>
2.20874e-05

> <r_epik_Ionization_Penalty_Charging>
0

> <r_epik_Ionization_Penalty_Neutral>
2.20874e-05

> <r_epik_State_Penalty>
-0

> <r_epik_Charging_Adjusted_Penalty>
0

> <i_epik_Tot_Q>
0

> <i_epik_Tot_abs_Q>
0

> <r_epik_Metal_State_Penalty>
-0

> <b_epik_Metal_Only>
0

> <s_lp_Force_Field>
OPLS_2005

> <r_lp_Energy>
4.92743

> <b_lp_Chiralities_Consistent>
1

> <s_lp_Variant>
AV-unprocessed.smi:2856-2

> <Gold.Version>
5.8.1

> <Gold.Id.Protein>
6NUR|6NUR_protein|mol2

> <Gold.PLP.Fitness>
37.0566

> <Gold.PLP.PLP>
-38.4246

> <Gold.PLP.part.hbond>
0.0000

> <Gold.PLP.part.metal>
0.0000

> <Gold.PLP.part.buried>
-7.1645

> <Gold.PLP.part.nonpolar>
-30.8716

> <Gold.PLP.part.repulsive>
0.0253

> <Gold.PLP.ligand.clash>
0.0000

> <Gold.PLP.ligand.torsion>
0.6914

> <Gold.PLP.Chemscore.Hbond>
0.0000

> <Gold.PLP.Chemscore.CHOScore>
0.0000

> <Gold.PLP.Chemscore.Metal>
0.0000

> <Gold.PLP.Chemscore.Internal.Correction>
0.0147

> <Gold.Rescore>
     Score         DG    S(hbond)    S(metal)    S(lipo)     H(rot)  DE(clash)    DE(int)     intcor
     10.30     -12.59       0.00        0.00      87.27       1.21       0.22       2.08       ----

> <Gold.Chemscore.Fitness>
10.2957

> <Gold.Chemscore.DG>
-12.5905

> <Gold.Chemscore.ZeroCoef>
-5.4800

> <Gold.Chemscore.Hbond>
0.0000

> <Gold.Chemscore.Metal>
0.0000

> <Gold.Chemscore.Lipo>
87.2692

> <Gold.Chemscore.Internal_Hbond>
0.0000

> <Gold.Chemscore.DEClash>
0.2175

> <Gold.Chemscore.DEInternal>
2.0773

> <Gold.Chemscore.Rot>
1.2109

> <Gold.Chemscore.Internal.Correction>
   9.000000E+99

> <Gold.Chemscore.Hbond.Weighted>
-0.0000

> <Gold.Chemscore.Metal.Weighted>
-0.0000

> <Gold.Chemscore.Lipo.Weighted>
-10.2105

> <Gold.Chemscore.Internal_Hbond.Weighted>
0.0000

> <Gold.Chemscore.DEClash.Weighted>
0.2175

> <Gold.Chemscore.DEInternal.Weighted>
2.0773

> <Gold.Chemscore.Rot.Weighted>
3.1000

> <Gold.Chemscore.Internal.Correction.Weighted>
   9.000000E+99

> <Gold.Protein.RotatedTorsions>
[ 6907 6896 6895 6894 ] final -158.93 input  -60.11 | X-H torsion
[ 7974 7965 7964 7962 ] final   37.61 input  175.53 | X-H torsion
[ 8008 7997 7996 7995 ] final  137.82 input   59.86 | X-H torsion
[ 10167 10162 10161 10158 ] final  164.85 input  -65.29 | X-H torsion
[ 10718 10713 10712 10709 ] final  -48.17 input   66.30 | X-H torsion
[ 10763 10752 10751 10750 ] final   62.75 input  -60.55 | X-H torsion
[ 11005 11000 10999 10996 ] final -154.47 input  -57.11 | X-H torsion

> <Gold.Protein.ActiveResidues>
 VAL166  LYS551  ARG553  GLY616  TRP617  ASP618  TYR619  PRO620  LYS621  CYS622 
 ASP623  PHE694  ASN695  SER759  ASP760  ASP761  ALA762  ILE779  LEU786  VAL792 
 PHE793  MET794  SER795  GLU796  ALA797  LYS798  CYS799  TRP800  GLU811  SER814 

> <Gold.Protein.RotatedAtoms>
  151.3258  133.4021  159.2658 H   0  0  0  0  0  0  0  0  0  0  0  0  # atno 6907 bound_to 6896
  150.9997  134.9312  159.7957 H   0  0  0  0  0  0  0  0  0  0  0  0  # atno 6908 bound_to 6896
  152.5271  134.3223  159.9205 H   0  0  0  0  0  0  0  0  0  0  0  0  # atno 6909 bound_to 6896
  146.1125  139.5873  142.9343 H   0  0  0  0  0  0  0  0  0  0  0  0  # atno 7974 bound_to 7965
  156.3000  140.2409  156.3973 H   0  0  0  0  0  0  0  0  0  0  0  0  # atno 8008 bound_to 7997
  154.8559  140.0422  157.1654 H   0  0  0  0  0  0  0  0  0  0  0  0  # atno 8009 bound_to 7997
  154.8948  140.2968  155.5354 H   0  0  0  0  0  0  0  0  0  0  0  0  # atno 8010 bound_to 7997
  139.4896  144.4193  151.9206 H   0  0  0  0  0  0  0  0  0  0  0  0  # atno 10167 bound_to 10162
  156.2014  130.4156  149.9236 H   0  0  0  0  0  0  0  0  0  0  0  0  # atno 10718 bound_to 10713
  152.9993  135.5453  154.6243 H   0  0  0  0  0  0  0  0  0  0  0  0  # atno 10763 bound_to 10752
  154.5535  135.2828  155.0988 H   0  0  0  0  0  0  0  0  0  0  0  0  # atno 10764 bound_to 10752
  154.2218  135.6449  153.5200 H   0  0  0  0  0  0  0  0  0  0  0  0  # atno 10765 bound_to 10752
  140.6970  134.3979  157.5214 H   0  0  0  0  0  0  0  0  0  0  0  0  # atno 11005 bound_to 11000
  145.5635  141.0402  143.2213 LP  0  0  0  0  0  0  0  0  0  0  0  0  # atno 17320 bound_to 7965
  144.7524  139.7161  143.7268 LP  0  0  0  0  0  0  0  0  0  0  0  0  # atno 17321 bound_to 7965
  140.3636  144.2942  150.5930 LP  0  0  0  0  0  0  0  0  0  0  0  0  # atno 17342 bound_to 10162
  140.5381  143.2229  151.8130 LP  0  0  0  0  0  0  0  0  0  0  0  0  # atno 17343 bound_to 10162
  156.6945  130.8908  151.3592 LP  0  0  0  0  0  0  0  0  0  0  0  0  # atno 17370 bound_to 10713
  157.6987  130.9310  150.0722 LP  0  0  0  0  0  0  0  0  0  0  0  0  # atno 17371 bound_to 10713
  139.8907  134.8797  156.2355 LP  0  0  0  0  0  0  0  0  0  0  0  0  # atno 17394 bound_to 11000
  141.0195  133.7049  156.1244 LP  0  0  0  0  0  0  0  0  0  0  0  0  # atno 17395 bound_to 11000

$$$$
