AV-unprocessed.smi:1958|AV-procd|sdf|7906|dock6
  -GOLD-   2272010 63D 1   1.00000     0.00000
 Structure written by MMmdl.
 47 48  0  0  0  0  0  0  0  0  1 V2000
  148.3875  135.5216  159.7748 C   0  0  0  0  0  0  0  0  0  0  0  0
  149.5003  135.8747  158.9724 O   0  0  0  0  0  0  0  0  0  0  0  0
  149.3167  137.1109  158.3017 C   0  0  0  0  0  0  0  0  0  0  0  0
  150.6851  137.7674  158.0552 C   0  0  0  0  0  0  0  0  0  0  0  0
  150.5727  138.9603  157.2082 N   0  0  0  0  0  0  0  0  0  0  0  0
  149.2760  139.2583  156.8249 N   0  0  0  0  0  0  0  0  0  0  0  0
  149.0407  140.2753  156.0602 C   0  0  0  0  0  0  0  0  0  0  0  0
  147.6614  140.6253  155.6219 C   0  0  0  0  0  0  0  0  0  0  0  0
  146.6717  140.0260  156.0456 O   0  0  0  0  0  0  0  0  0  0  0  0
  147.5829  141.6293  154.7306 N   0  0  0  0  0  0  0  0  0  0  0  0
  146.3611  142.1345  154.1087 C   0  0  0  0  0  0  0  0  0  0  0  0
  145.5351  143.0295  155.0702 C   0  0  2  0  0  0  0  0  0  0  0  0
  144.8777  142.1267  156.1383 C   0  0  0  0  0  0  0  0  0  0  0  0
  144.5775  143.9242  154.3835 N   0  0  0  0  0  0  0  0  0  0  0  0
  145.2088  144.7146  153.3225 C   0  0  0  0  0  0  0  0  0  0  0  0
  144.2153  145.6516  152.6145 C   0  0  0  0  0  0  0  0  0  0  0  0
  143.6049  146.5097  153.5693 O   0  0  0  0  0  0  0  0  0  0  0  0
  142.9227  145.7858  154.5850 C   0  0  0  0  0  0  0  0  0  0  0  0
  143.9073  144.8471  155.3038 C   0  0  0  0  0  0  0  0  0  0  0  0
  150.1252  141.1240  155.5967 C   0  0  0  0  0  0  0  0  0  0  0  0
  151.3852  140.8209  155.9792 C   0  0  0  0  0  0  0  0  0  0  0  0
  151.6794  139.6726  156.8377 C   0  0  0  0  0  0  0  0  0  0  0  0
  152.8190  139.3710  157.1912 O   0  0  0  0  0  0  0  0  0  0  0  0
  148.5767  134.5657  160.2635 H   0  0  0  0  0  0  0  0  0  0  0  0
  147.4838  135.4185  159.1727 H   0  0  0  0  0  0  0  0  0  0  0  0
  148.2084  136.2668  160.5510 H   0  0  0  0  0  0  0  0  0  0  0  0
  148.8206  136.9350  157.3464 H   0  0  0  0  0  0  0  0  0  0  0  0
  148.6713  137.7703  158.8839 H   0  0  0  0  0  0  0  0  0  0  0  0
  151.1468  138.0214  159.0111 H   0  0  0  0  0  0  0  0  0  0  0  0
  151.3609  137.0456  157.5931 H   0  0  0  0  0  0  0  0  0  0  0  0
  148.4478  142.0602  154.4369 H   0  0  0  0  0  0  0  0  0  0  0  0
  146.5893  142.6744  153.1883 H   0  0  0  0  0  0  0  0  0  0  0  0
  145.7726  141.2778  153.7818 H   0  0  0  0  0  0  0  0  0  0  0  0
  146.2559  143.6539  155.6008 H   0  0  0  0  0  0  0  0  0  0  0  0
  145.5883  141.4013  156.5348 H   0  0  0  0  0  0  0  0  0  0  0  0
  144.0339  141.5705  155.7288 H   0  0  0  0  0  0  0  0  0  0  0  0
  144.5200  142.6990  156.9936 H   0  0  0  0  0  0  0  0  0  0  0  0
  146.0279  145.3037  153.7377 H   0  0  0  0  0  0  0  0  0  0  0  0
  145.6415  144.0634  152.5649 H   0  0  0  0  0  0  0  0  0  0  0  0
  144.7314  146.2580  151.8700 H   0  0  0  0  0  0  0  0  0  0  0  0
  143.4517  145.0779  152.0870 H   0  0  0  0  0  0  0  0  0  0  0  0
  142.4869  146.4908  155.2930 H   0  0  0  0  0  0  0  0  0  0  0  0
  142.0987  145.2195  154.1479 H   0  0  0  0  0  0  0  0  0  0  0  0
  143.3434  144.2955  156.0546 H   0  0  0  0  0  0  0  0  0  0  0  0
  144.6500  145.4408  155.8390 H   0  0  0  0  0  0  0  0  0  0  0  0
  149.9375  141.9780  154.9622 H   0  0  0  0  0  0  0  0  0  0  0  0
  152.2012  141.4430  155.6415 H   0  0  0  0  0  0  0  0  0  0  0  0
  1  2  1  0  0  0  0
  1 24  1  0  0  0  0
  1 25  1  0  0  0  0
  1 26  1  0  0  0  0
  2  3  1  0  0  0  0
  3  4  1  0  0  0  0
  3 27  1  0  0  0  0
  3 28  1  0  0  0  0
  4  5  1  0  0  0  0
  4 29  1  0  0  0  0
  4 30  1  0  0  0  0
  5 22  1  0  0  0  0
  5  6  1  0  0  0  0
  6  7  2  0  0  0  0
  7  8  1  0  0  0  0
  7 20  1  0  0  0  0
  8  9  2  0  0  0  0
  8 10  1  0  0  0  0
 10 11  1  0  0  0  0
 10 31  1  0  0  0  0
 11 12  1  0  0  0  0
 11 32  1  0  0  0  0
 11 33  1  0  0  0  0
 12 13  1  0  0  0  0
 12 14  1  0  0  0  0
 12 34  1  0  0  0  0
 13 35  1  0  0  0  0
 13 36  1  0  0  0  0
 13 37  1  0  0  0  0
 14 19  1  0  0  0  0
 14 15  1  0  0  0  0
 15 16  1  0  0  0  0
 15 38  1  0  0  0  0
 15 39  1  0  0  0  0
 16 17  1  0  0  0  0
 16 40  1  0  0  0  0
 16 41  1  0  0  0  0
 17 18  1  0  0  0  0
 18 19  1  0  0  0  0
 18 42  1  0  0  0  0
 18 43  1  0  0  0  0
 19 44  1  0  0  0  0
 19 45  1  0  0  0  0
 20 21  2  0  0  0  0
 20 46  1  0  0  0  0
 21 22  1  0  0  0  0
 21 47  1  0  0  0  0
 22 23  2  0  0  0  0
M  END
> <s_m_source_file>
AV-unprocessed.smi

> <i_m_source_file_index>
1958

> <i_lp_mmshare_version>
43012

> <i_f3d_flags>
0

> <s_epik_input>
W0NIM11PW0NIMl1bQ0gyXW4xbmMoW2NIXVtjSF1jMT1PKUMoPU8pW05IXVtDSDJdW0NASF0oW0NIM10pTjJbQ0gyXVtDSDJdT1tDSDJdW0NIMl0y

> <s_epik_cmdline>
J2VwaWtfcHl0aG9uJywgJy1waCcsICc3LjAnLCAnLXRuJywgJzgnLCAnLW1hJywgJzIwMCcsICctbWV0YWxfYmluZGluZycsICctaW1hZScsICc8aW5maWxlLm1hZT4nLCAnLW9tYWUnLCAnPG91dGZpbGUubWFlPic=

> <r_lp_tautomer_probability>
1

> <r_epik_Ionization_Penalty>
0.206669

> <r_epik_Ionization_Penalty_Charging>
5.75808e-09

> <r_epik_Ionization_Penalty_Neutral>
0.206669

> <r_epik_State_Penalty>
0.196651

> <r_epik_Charging_Adjusted_Penalty>
0.196651

> <i_epik_Tot_Q>
0

> <i_epik_Tot_abs_Q>
0

> <r_epik_Metal_State_Penalty>
0.198415

> <b_epik_Metal_Only>
0

> <s_lp_Force_Field>
OPLS_2005

> <r_lp_Energy>
53.7992

> <b_lp_Chiralities_Consistent>
1

> <s_lp_Variant>
AV-unprocessed.smi:1958-1

> <Gold.Version>
5.8.1

> <Gold.Id.Protein>
6NUR|6NUR_protein|mol2

> <Gold.PLP.Fitness>
38.4376

> <Gold.PLP.PLP>
-33.8710

> <Gold.PLP.part.hbond>
-4.0000

> <Gold.PLP.part.metal>
0.0000

> <Gold.PLP.part.buried>
-1.8758

> <Gold.PLP.part.nonpolar>
-28.1254

> <Gold.PLP.part.repulsive>
0.3684

> <Gold.PLP.ligand.clash>
0.6188

> <Gold.PLP.ligand.torsion>
0.4720

> <Gold.PLP.Chemscore.Hbond>
2.0000

> <Gold.PLP.Chemscore.CHOScore>
0.0000

> <Gold.PLP.Chemscore.Metal>
0.0000

> <Gold.Chemscore.Hbonds>
donor molecule, donor type, donor heavy atom, donor atom, acceptor molecule, acceptor atom, score
      P1  H  6896  6907       L1     2  1.00
      P1  H  7997  8008       L1    23  1.00

> <Gold.PLP.Chemscore.Internal.Correction>
0.1294

> <Gold.Rescore>
     Score         DG    S(hbond)    S(metal)    S(lipo)     H(rot)  DE(clash)    DE(int)     intcor
      9.84     -15.85       1.94        0.00      77.94       2.04       4.23       1.78       ----

> <Gold.Chemscore.Fitness>
9.8428

> <Gold.Chemscore.DG>
-15.8527

> <Gold.Chemscore.ZeroCoef>
-5.4800

> <Gold.Chemscore.Hbond>
1.9400

> <Gold.Chemscore.Metal>
0.0000

> <Gold.Chemscore.Lipo>
77.9387

> <Gold.Chemscore.Internal_Hbond>
0.0000

> <Gold.Chemscore.DEClash>
4.2326

> <Gold.Chemscore.DEInternal>
1.7772

> <Gold.Chemscore.Rot>
2.0413

> <Gold.Chemscore.Internal.Correction>
   9.000000E+99

> <Gold.Chemscore.Hbonds>
donor molecule, donor type, donor heavy atom, donor atom, acceptor molecule, acceptor atom, score
      P1  H  6896  6907       L1     2  0.26
      P1  H  7997  8008       L1    23  1.00

> <Gold.Chemscore.Hbond.Weighted>
-6.4795

> <Gold.Chemscore.Metal.Weighted>
-0.0000

> <Gold.Chemscore.Lipo.Weighted>
-9.1188

> <Gold.Chemscore.Internal_Hbond.Weighted>
0.0000

> <Gold.Chemscore.DEClash.Weighted>
4.2326

> <Gold.Chemscore.DEInternal.Weighted>
1.7772

> <Gold.Chemscore.Rot.Weighted>
5.2257

> <Gold.Chemscore.Internal.Correction.Weighted>
   9.000000E+99

> <Gold.Protein.RotatedTorsions>
[ 6907 6896 6895 6894 ] final  -64.49 input  -60.11 | X-H torsion
[ 7974 7965 7964 7962 ] final  115.68 input  175.53 | X-H torsion
[ 8008 7997 7996 7995 ] final  -58.14 input   59.86 | X-H torsion
[ 10167 10162 10161 10158 ] final -158.39 input  -65.29 | X-H torsion
[ 10718 10713 10712 10709 ] final -172.61 input   66.30 | X-H torsion
[ 10763 10752 10751 10750 ] final -114.76 input  -60.55 | X-H torsion
[ 11005 11000 10999 10996 ] final -104.17 input  -57.11 | X-H torsion

> <Gold.Protein.ActiveResidues>
 VAL166  LYS551  ARG553  GLY616  TRP617  ASP618  TYR619  PRO620  LYS621  CYS622 
 ASP623  PHE694  ASN695  SER759  ASP760  ASP761  ALA762  ILE779  LEU786  VAL792 
 PHE793  MET794  SER795  GLU796  ALA797  LYS798  CYS799  TRP800  GLU811  SER814 

> <Gold.Protein.RotatedAtoms>
  150.7582  134.6291  159.6176 H   0  0  0  0  0  0  0  0  0  0  0  0  # atno 6907 bound_to 6896
  152.3574  134.6917  160.0227 H   0  0  0  0  0  0  0  0  0  0  0  0  # atno 6908 bound_to 6896
  151.7319  133.3282  159.3379 H   0  0  0  0  0  0  0  0  0  0  0  0  # atno 6909 bound_to 6896
  145.1890  139.3010  143.4378 H   0  0  0  0  0  0  0  0  0  0  0  0  # atno 7974 bound_to 7965
  154.4296  140.1091  156.5910 H   0  0  0  0  0  0  0  0  0  0  0  0  # atno 8008 bound_to 7997
  155.6012  140.3493  155.4575 H   0  0  0  0  0  0  0  0  0  0  0  0  # atno 8009 bound_to 7997
  156.0172  140.1232  157.0384 H   0  0  0  0  0  0  0  0  0  0  0  0  # atno 8010 bound_to 7997
  139.6696  143.9769  152.2275 H   0  0  0  0  0  0  0  0  0  0  0  0  # atno 10167 bound_to 10162
  156.7581  130.9403  151.3117 H   0  0  0  0  0  0  0  0  0  0  0  0  # atno 10718 bound_to 10713
  154.8453  135.4406  154.1556 H   0  0  0  0  0  0  0  0  0  0  0  0  # atno 10763 bound_to 10752
  153.2706  135.6944  153.7491 H   0  0  0  0  0  0  0  0  0  0  0  0  # atno 10764 bound_to 10752
  153.6733  135.3415  155.3134 H   0  0  0  0  0  0  0  0  0  0  0  0  # atno 10765 bound_to 10752
  141.1112  133.8701  157.1578 H   0  0  0  0  0  0  0  0  0  0  0  0  # atno 11005 bound_to 11000
  146.3439  140.2096  142.8590 LP  0  0  0  0  0  0  0  0  0  0  0  0  # atno 17320 bound_to 7965
  145.0060  140.8673  143.5253 LP  0  0  0  0  0  0  0  0  0  0  0  0  # atno 17321 bound_to 7965
  139.9529  144.6608  150.8154 LP  0  0  0  0  0  0  0  0  0  0  0  0  # atno 17342 bound_to 10162
  140.7613  143.3170  151.2709 LP  0  0  0  0  0  0  0  0  0  0  0  0  # atno 17343 bound_to 10162
  157.6747  130.9083  150.0122 LP  0  0  0  0  0  0  0  0  0  0  0  0  # atno 17370 bound_to 10713
  156.1357  130.3643  149.9661 LP  0  0  0  0  0  0  0  0  0  0  0  0  # atno 17371 bound_to 10713
  140.0008  135.0028  157.0185 LP  0  0  0  0  0  0  0  0  0  0  0  0  # atno 17394 bound_to 11000
  140.4769  134.1330  155.7211 LP  0  0  0  0  0  0  0  0  0  0  0  0  # atno 17395 bound_to 11000

$$$$
