AV-unprocessed.smi:1070|AV-procd|sdf|4676|dock5
  -GOLD-   22720 3193D 1   1.00000     0.00000
 Structure written by MMmdl.
 48 49  0  0  0  0  0  0  0  0  1 V2000
  144.9911  135.6896  150.8942 C   0  0  0  0  0  0  0  0  0  0  0  0
  144.6059  134.2107  150.9755 C   0  0  0  0  0  0  0  0  0  0  0  0
  145.4747  133.5609  151.8865 O   0  0  0  0  0  0  0  0  0  0  0  0
  146.8471  133.7636  151.5795 C   0  0  0  0  0  0  0  0  0  0  0  0
  147.7056  133.0560  152.6277 C   0  0  0  0  0  0  0  0  0  0  0  0
  147.5577  131.8497  152.8199 O   0  0  0  0  0  0  0  0  0  0  0  0
  148.5890  133.8311  153.2811 N   0  0  0  0  0  0  0  0  0  0  0  0
  149.4337  133.4779  154.3696 C   0  0  0  0  0  0  0  0  0  0  0  0
  149.7313  132.1329  154.6921 C   0  0  0  0  0  0  0  0  0  0  0  0
  150.6123  131.8613  155.7542 C   0  0  0  0  0  0  0  0  0  0  0  0
  151.1793  132.9408  156.4562 C   0  0  0  0  0  0  0  0  0  0  0  0
  152.0436  132.6731  157.4981 O   0  0  0  0  0  0  0  0  0  0  0  0
  152.5924  131.3637  157.5996 C   0  0  0  0  0  0  0  0  0  0  0  0
  150.9104  134.2314  156.1444 N   0  0  0  0  0  0  0  0  0  0  0  0
  150.0603  134.5034  155.1260 C   0  0  0  0  0  0  0  0  0  0  0  0
  149.7960  135.8598  154.8502 N   0  0  0  0  0  0  0  0  0  0  0  0
  150.9290  136.7857  154.8948 C   0  0  0  0  0  0  0  0  0  0  0  0
  150.5274  138.1583  154.3214 C   0  0  0  0  0  0  0  0  0  0  0  0
  149.3389  138.6472  155.0333 N   0  0  0  0  0  0  0  0  0  0  0  0
  149.3585  139.7387  155.8345 C   0  0  0  0  0  0  0  0  0  0  0  0
  150.6527  140.5440  155.9702 C   0  0  0  0  0  0  0  0  0  0  0  0
  148.3724  140.1181  156.4665 O   0  0  0  0  0  0  0  0  0  0  0  0
  148.1972  137.7389  154.8550 C   0  0  0  0  0  0  0  0  0  0  0  0
  148.5568  136.3625  155.4440 C   0  0  0  0  0  0  0  0  0  0  0  0
  144.3297  136.2277  150.2150 H   0  0  0  0  0  0  0  0  0  0  0  0
  146.0115  135.8077  150.5295 H   0  0  0  0  0  0  0  0  0  0  0  0
  144.9265  136.1661  151.8727 H   0  0  0  0  0  0  0  0  0  0  0  0
  143.5719  134.1113  151.3087 H   0  0  0  0  0  0  0  0  0  0  0  0
  144.6815  133.7523  149.9883 H   0  0  0  0  0  0  0  0  0  0  0  0
  147.0771  133.3673  150.5889 H   0  0  0  0  0  0  0  0  0  0  0  0
  147.0866  134.8280  151.5804 H   0  0  0  0  0  0  0  0  0  0  0  0
  148.5431  134.8180  153.0711 H   0  0  0  0  0  0  0  0  0  0  0  0
  149.3135  131.3100  154.1323 H   0  0  0  0  0  0  0  0  0  0  0  0
  150.8543  130.8429  156.0202 H   0  0  0  0  0  0  0  0  0  0  0  0
  153.2549  131.3159  158.4636 H   0  0  0  0  0  0  0  0  0  0  0  0
  153.1812  131.1082  156.7173 H   0  0  0  0  0  0  0  0  0  0  0  0
  151.8124  130.6137  157.7387 H   0  0  0  0  0  0  0  0  0  0  0  0
  151.2669  136.9015  155.9257 H   0  0  0  0  0  0  0  0  0  0  0  0
  151.7629  136.3744  154.3245 H   0  0  0  0  0  0  0  0  0  0  0  0
  151.3733  138.8438  154.3834 H   0  0  0  0  0  0  0  0  0  0  0  0
  150.2945  138.0669  153.2594 H   0  0  0  0  0  0  0  0  0  0  0  0
  150.9686  140.9347  155.0024 H   0  0  0  0  0  0  0  0  0  0  0  0
  151.4507  139.9258  156.3823 H   0  0  0  0  0  0  0  0  0  0  0  0
  150.5094  141.3921  156.6406 H   0  0  0  0  0  0  0  0  0  0  0  0
  147.2723  138.0985  155.3030 H   0  0  0  0  0  0  0  0  0  0  0  0
  147.9871  137.6405  153.7893 H   0  0  0  0  0  0  0  0  0  0  0  0
  147.7337  135.6677  155.2787 H   0  0  0  0  0  0  0  0  0  0  0  0
  148.6887  136.4409  156.5239 H   0  0  0  0  0  0  0  0  0  0  0  0
  1  2  1  0  0  0  0
  1 25  1  0  0  0  0
  1 26  1  0  0  0  0
  1 27  1  0  0  0  0
  2  3  1  0  0  0  0
  2 28  1  0  0  0  0
  2 29  1  0  0  0  0
  3  4  1  0  0  0  0
  4  5  1  0  0  0  0
  4 30  1  0  0  0  0
  4 31  1  0  0  0  0
  5  6  2  0  0  0  0
  5  7  1  0  0  0  0
  7  8  1  0  0  0  0
  7 32  1  0  0  0  0
  8 15  1  0  0  0  0
  8  9  2  0  0  0  0
  9 10  1  0  0  0  0
  9 33  1  0  0  0  0
 10 11  2  0  0  0  0
 10 34  1  0  0  0  0
 11 12  1  0  0  0  0
 11 14  1  0  0  0  0
 12 13  1  0  0  0  0
 13 35  1  0  0  0  0
 13 36  1  0  0  0  0
 13 37  1  0  0  0  0
 14 15  2  0  0  0  0
 15 16  1  0  0  0  0
 16 24  1  0  0  0  0
 16 17  1  0  0  0  0
 17 18  1  0  0  0  0
 17 38  1  0  0  0  0
 17 39  1  0  0  0  0
 18 19  1  0  0  0  0
 18 40  1  0  0  0  0
 18 41  1  0  0  0  0
 19 20  1  0  0  0  0
 19 23  1  0  0  0  0
 20 21  1  0  0  0  0
 20 22  2  0  0  0  0
 21 42  1  0  0  0  0
 21 43  1  0  0  0  0
 21 44  1  0  0  0  0
 23 24  1  0  0  0  0
 23 45  1  0  0  0  0
 23 46  1  0  0  0  0
 24 47  1  0  0  0  0
 24 48  1  0  0  0  0
M  END
> <s_m_source_file>
AV-unprocessed.smi

> <i_m_source_file_index>
1070

> <i_lp_mmshare_version>
43012

> <i_f3d_flags>
0

> <s_epik_input>
W0NIM11bQ0gyXU9bQ0gyXUMoPU8pW05IXWMxW2NIXVtjSF1jKE9bQ0gzXSluYzFOMltDSDJdW0NIMl1OKEMoPU8pW0NIM10pW0NIMl1bQ0gyXTI=

> <s_epik_cmdline>
J2VwaWtfcHl0aG9uJywgJy1waCcsICc3LjAnLCAnLXRuJywgJzgnLCAnLW1hJywgJzIwMCcsICctbWV0YWxfYmluZGluZycsICctaW1hZScsICc8aW5maWxlLm1hZT4nLCAnLW9tYWUnLCAnPG91dGZpbGUubWFlPic=

> <r_lp_tautomer_probability>
1

> <r_epik_Ionization_Penalty>
0.000131804

> <r_epik_Ionization_Penalty_Charging>
0

> <r_epik_Ionization_Penalty_Neutral>
0.000131804

> <r_epik_State_Penalty>
-0

> <r_epik_Charging_Adjusted_Penalty>
0

> <i_epik_Tot_Q>
0

> <i_epik_Tot_abs_Q>
0

> <r_epik_Metal_State_Penalty>
-0

> <b_epik_Metal_Only>
0

> <s_lp_Force_Field>
OPLS_2005

> <r_lp_Energy>
37.3921

> <b_lp_Chiralities_Consistent>
1

> <s_lp_Variant>
AV-unprocessed.smi:1070-1

> <Gold.Version>
5.8.1

> <Gold.Id.Protein>
6NUR|6NUR_protein|mol2

> <Gold.PLP.Fitness>
40.9268

> <Gold.PLP.PLP>
-36.2867

> <Gold.PLP.part.hbond>
-2.0000

> <Gold.PLP.part.metal>
0.0000

> <Gold.PLP.part.buried>
-3.1921

> <Gold.PLP.part.nonpolar>
-31.6725

> <Gold.PLP.part.repulsive>
1.2000

> <Gold.PLP.ligand.clash>
0.0000

> <Gold.PLP.ligand.torsion>
0.8694

> <Gold.PLP.Chemscore.Hbond>
1.9760

> <Gold.PLP.Chemscore.CHOScore>
0.0000

> <Gold.PLP.Chemscore.Metal>
0.0000

> <Gold.Chemscore.Hbonds>
donor molecule, donor type, donor heavy atom, donor atom, acceptor molecule, acceptor atom, score
      L1  H     7    32       P1  7948  0.93
      P1  H  6896  6909       L1    12  0.99

> <Gold.PLP.Chemscore.Internal.Correction>
0.4509

> <Gold.Rescore>
     Score         DG    S(hbond)    S(metal)    S(lipo)     H(rot)  DE(clash)    DE(int)     intcor
     10.35     -12.75       1.56        0.00      58.49       1.86       0.04       2.37       ----

> <Gold.Chemscore.Fitness>
10.3453

> <Gold.Chemscore.DG>
-12.7539

> <Gold.Chemscore.ZeroCoef>
-5.4800

> <Gold.Chemscore.Hbond>
1.5569

> <Gold.Chemscore.Metal>
0.0000

> <Gold.Chemscore.Lipo>
58.4913

> <Gold.Chemscore.Internal_Hbond>
0.0000

> <Gold.Chemscore.DEClash>
0.0431

> <Gold.Chemscore.DEInternal>
2.3655

> <Gold.Chemscore.Rot>
1.8631

> <Gold.Chemscore.Internal.Correction>
   9.000000E+99

> <Gold.Chemscore.Hbonds>
donor molecule, donor type, donor heavy atom, donor atom, acceptor molecule, acceptor atom, score
      L1  H     7    32       P1  7948  0.45
      P1  H  6896  6909       L1    12  0.61

> <Gold.Chemscore.Hbond.Weighted>
-5.2000

> <Gold.Chemscore.Metal.Weighted>
-0.0000

> <Gold.Chemscore.Lipo.Weighted>
-6.8435

> <Gold.Chemscore.Internal_Hbond.Weighted>
0.0000

> <Gold.Chemscore.DEClash.Weighted>
0.0431

> <Gold.Chemscore.DEInternal.Weighted>
2.3655

> <Gold.Chemscore.Rot.Weighted>
4.7696

> <Gold.Chemscore.Internal.Correction.Weighted>
   9.000000E+99

> <Gold.Protein.RotatedTorsions>
[ 6907 6896 6895 6894 ] final  -61.80 input  -60.11 | X-H torsion
[ 7974 7965 7964 7962 ] final   19.05 input  175.53 | X-H torsion
[ 8008 7997 7996 7995 ] final  104.43 input   59.86 | X-H torsion
[ 10167 10162 10161 10158 ] final -173.72 input  -65.29 | X-H torsion
[ 10718 10713 10712 10709 ] final   83.86 input   66.30 | X-H torsion
[ 10763 10752 10751 10750 ] final   24.39 input  -60.55 | X-H torsion
[ 11005 11000 10999 10996 ] final   80.93 input  -57.11 | X-H torsion

> <Gold.Protein.ActiveResidues>
 VAL166  LYS551  ARG553  GLY616  TRP617  ASP618  TYR619  PRO620  LYS621  CYS622 
 ASP623  PHE694  ASN695  SER759  ASP760  ASP761  ALA762  ILE779  LEU786  VAL792 
 PHE793  MET794  SER795  GLU796  ALA797  LYS798  CYS799  TRP800  GLU811  SER814 

> <Gold.Protein.RotatedAtoms>
  150.7759  134.6656  159.6362 H   0  0  0  0  0  0  0  0  0  0  0  0  # atno 6907 bound_to 6896
  152.3829  134.6560  160.0145 H   0  0  0  0  0  0  0  0  0  0  0  0  # atno 6908 bound_to 6896
  151.6884  133.3275  159.3273 H   0  0  0  0  0  0  0  0  0  0  0  0  # atno 6909 bound_to 6896
  146.2163  139.8368  142.8649 H   0  0  0  0  0  0  0  0  0  0  0  0  # atno 7974 bound_to 7965
  156.1572  140.3148  155.8746 H   0  0  0  0  0  0  0  0  0  0  0  0  # atno 8008 bound_to 7997
  155.3855  140.0490  157.3059 H   0  0  0  0  0  0  0  0  0  0  0  0  # atno 8009 bound_to 7997
  154.5112  140.2165  155.9164 H   0  0  0  0  0  0  0  0  0  0  0  0  # atno 8010 bound_to 7997
  139.5673  144.1726  152.1331 H   0  0  0  0  0  0  0  0  0  0  0  0  # atno 10167 bound_to 10162
  157.6887  131.0108  150.2586 H   0  0  0  0  0  0  0  0  0  0  0  0  # atno 10718 bound_to 10713
  153.0767  135.6606  154.0130 H   0  0  0  0  0  0  0  0  0  0  0  0  # atno 10763 bound_to 10752
  153.9762  135.2959  155.3425 H   0  0  0  0  0  0  0  0  0  0  0  0  # atno 10764 bound_to 10752
  154.7157  135.5186  153.8805 H   0  0  0  0  0  0  0  0  0  0  0  0  # atno 10765 bound_to 10752
  139.9116  134.7958  156.1974 H   0  0  0  0  0  0  0  0  0  0  0  0  # atno 11005 bound_to 11000
  145.2940  141.0175  143.3647 LP  0  0  0  0  0  0  0  0  0  0  0  0  # atno 17320 bound_to 7965
  144.9056  139.4594  143.6612 LP  0  0  0  0  0  0  0  0  0  0  0  0  # atno 17321 bound_to 7965
  140.1251  144.5338  150.6838 LP  0  0  0  0  0  0  0  0  0  0  0  0  # atno 17342 bound_to 10162
  140.6956  143.2402  151.5009 LP  0  0  0  0  0  0  0  0  0  0  0  0  # atno 17343 bound_to 10162
  156.3169  130.3780  149.7610 LP  0  0  0  0  0  0  0  0  0  0  0  0  # atno 17370 bound_to 10713
  156.5193  130.8207  151.3197 LP  0  0  0  0  0  0  0  0  0  0  0  0  # atno 17371 bound_to 10713
  141.0546  133.6872  156.1835 LP  0  0  0  0  0  0  0  0  0  0  0  0  # atno 17394 bound_to 11000
  140.6757  134.4820  157.5588 LP  0  0  0  0  0  0  0  0  0  0  0  0  # atno 17395 bound_to 11000

$$$$
