AV-unprocessed.smi:71|AV-procd|sdf|662|dock3
  -GOLD-   2262016563D 1   1.00000     0.00000
 Structure written by MMmdl.
 31 32  0  0  0  0  0  0  0  0  1 V2000
  151.6424  144.7120  157.9777 N   0  0  0  0  0  0  0  0  0  0  0  0
  152.0297  144.1203  159.1769 C   0  0  0  0  0  0  0  0  0  0  0  0
  151.8258  144.7951  160.3973 C   0  0  0  0  0  0  0  0  0  0  0  0
  152.2371  144.1652  161.5870 C   0  0  0  0  0  0  0  0  0  0  0  0
  152.8289  142.8900  161.5104 C   0  0  0  0  0  0  0  0  0  0  0  0
  152.9788  142.2873  160.2406 C   0  0  0  0  0  0  0  0  0  0  0  0
  153.6234  140.9388  160.1072 C   0  0  0  0  0  0  0  0  0  0  0  0
  154.7087  140.7357  160.6521 O   0  0  0  0  0  0  0  0  0  0  0  0
  152.9766  139.9990  159.3780 N   0  0  0  0  0  0  0  0  0  0  0  0
  151.8000  140.2357  158.5358 C   0  0  0  0  0  0  0  0  0  0  0  0
  151.4702  138.8971  157.8776 C   0  0  0  0  0  0  0  0  0  0  0  0
  152.7827  138.1301  157.9128 C   0  0  0  0  0  0  0  0  0  0  0  0
  153.4943  138.6405  159.1726 C   0  0  2  0  0  0  0  0  0  0  0  0
  153.2289  137.7614  160.4132 C   0  0  0  0  0  0  0  0  0  0  0  0
  153.4932  136.4058  160.1203 O   0  0  0  0  0  0  0  0  0  0  0  0
  152.5958  142.8977  159.0956 N   0  0  0  0  0  0  0  0  0  0  0  0
  151.7785  144.2489  157.0907 H   0  0  0  0  0  0  0  0  0  0  0  0
  151.1818  145.6104  157.9608 H   0  0  0  0  0  0  0  0  0  0  0  0
  151.3697  145.7740  160.4242 H   0  0  0  0  0  0  0  0  0  0  0  0
  152.1041  144.6531  162.5412 H   0  0  0  0  0  0  0  0  0  0  0  0
  153.1624  142.3890  162.4077 H   0  0  0  0  0  0  0  0  0  0  0  0
  150.9436  140.5975  159.1041 H   0  0  0  0  0  0  0  0  0  0  0  0
  152.0456  140.9817  157.7782 H   0  0  0  0  0  0  0  0  0  0  0  0
  150.7240  138.3698  158.4736 H   0  0  0  0  0  0  0  0  0  0  0  0
  151.0720  139.0086  156.8686 H   0  0  0  0  0  0  0  0  0  0  0  0
  152.6385  137.0493  157.8999 H   0  0  0  0  0  0  0  0  0  0  0  0
  153.3738  138.3903  157.0337 H   0  0  0  0  0  0  0  0  0  0  0  0
  154.5694  138.6792  158.9843 H   0  0  0  0  0  0  0  0  0  0  0  0
  153.8764  138.0522  161.2406 H   0  0  0  0  0  0  0  0  0  0  0  0
  152.2000  137.8680  160.7586 H   0  0  0  0  0  0  0  0  0  0  0  0
  154.3298  136.3497  159.6843 H   0  0  0  0  0  0  0  0  0  0  0  0
  1  2  1  0  0  0  0
  1 17  1  0  0  0  0
  1 18  1  0  0  0  0
  2 16  1  0  0  0  0
  2  3  2  0  0  0  0
  3  4  1  0  0  0  0
  3 19  1  0  0  0  0
  4  5  2  0  0  0  0
  4 20  1  0  0  0  0
  5  6  1  0  0  0  0
  5 21  1  0  0  0  0
  6  7  1  0  0  0  0
  6 16  2  0  0  0  0
  7  8  2  0  0  0  0
  7  9  1  0  0  0  0
  9 13  1  0  0  0  0
  9 10  1  0  0  0  0
 10 11  1  0  0  0  0
 10 22  1  0  0  0  0
 10 23  1  0  0  0  0
 11 12  1  0  0  0  0
 11 24  1  0  0  0  0
 11 25  1  0  0  0  0
 12 13  1  0  0  0  0
 12 26  1  0  0  0  0
 12 27  1  0  0  0  0
 13 14  1  0  0  0  0
 13 28  1  0  0  0  0
 14 15  1  0  0  0  0
 14 29  1  0  0  0  0
 14 30  1  0  0  0  0
 15 31  1  0  0  0  0
M  END
> <s_m_source_file>
AV-unprocessed.smi

> <i_m_source_file_index>
71

> <i_lp_mmshare_version>
43012

> <i_f3d_flags>
0

> <s_epik_input>
W05IMl1jMVtjSF1bY0hdW2NIXWMobjEpQyg9TylOMltDSDJdW0NIMl1bQ0gyXVtDQEhdMltDSDJdW09IXQ==

> <s_epik_cmdline>
J2VwaWtfcHl0aG9uJywgJy1waCcsICc3LjAnLCAnLXRuJywgJzgnLCAnLW1hJywgJzIwMCcsICctbWV0YWxfYmluZGluZycsICctaW1hZScsICc8aW5maWxlLm1hZT4nLCAnLW9tYWUnLCAnPG91dGZpbGUubWFlPic=

> <r_lp_tautomer_probability>
1

> <r_epik_Ionization_Penalty>
2.21614e-05

> <r_epik_Ionization_Penalty_Charging>
0

> <r_epik_Ionization_Penalty_Neutral>
2.21614e-05

> <r_epik_State_Penalty>
-0

> <r_epik_Charging_Adjusted_Penalty>
0

> <i_epik_Tot_Q>
0

> <i_epik_Tot_abs_Q>
0

> <r_epik_Metal_State_Penalty>
-0

> <b_epik_Metal_Only>
0

> <s_lp_Force_Field>
OPLS_2005

> <r_lp_Energy>
36.7339

> <b_lp_Chiralities_Consistent>
1

> <s_lp_Variant>
AV-unprocessed.smi:71-2

> <Gold.Version>
5.8.1

> <Gold.Id.Protein>
6NUR|6NUR_protein|mol2

> <Gold.PLP.Fitness>
38.4802

> <Gold.PLP.PLP>
-36.2501

> <Gold.PLP.part.hbond>
-1.0000

> <Gold.PLP.part.metal>
0.0000

> <Gold.PLP.part.buried>
-6.0894

> <Gold.PLP.part.nonpolar>
-28.5701

> <Gold.PLP.part.repulsive>
0.0741

> <Gold.PLP.ligand.clash>
0.0000

> <Gold.PLP.ligand.torsion>
0.9756

> <Gold.PLP.Chemscore.Hbond>
1.0000

> <Gold.PLP.Chemscore.CHOScore>
0.0000

> <Gold.PLP.Chemscore.Metal>
0.0000

> <Gold.Chemscore.Hbonds>
donor molecule, donor type, donor heavy atom, donor atom, acceptor molecule, acceptor atom, score
      P1  H  6896  6908       L1    15  1.00

> <Gold.PLP.Chemscore.Internal.Correction>
1.1814

> <Gold.Rescore>
     Score         DG    S(hbond)    S(metal)    S(lipo)     H(rot)  DE(clash)    DE(int)     intcor
     12.58     -14.90       1.79        0.00      62.27       1.50       0.00       2.33       ----

> <Gold.Chemscore.Fitness>
12.5761

> <Gold.Chemscore.DG>
-14.9031

> <Gold.Chemscore.ZeroCoef>
-5.4800

> <Gold.Chemscore.Hbond>
1.7864

> <Gold.Chemscore.Metal>
0.0000

> <Gold.Chemscore.Lipo>
62.2740

> <Gold.Chemscore.Internal_Hbond>
0.0000

> <Gold.Chemscore.DEClash>
0.0009

> <Gold.Chemscore.DEInternal>
2.3261

> <Gold.Chemscore.Rot>
1.4959

> <Gold.Chemscore.Internal.Correction>
   9.000000E+99

> <Gold.Chemscore.Hbonds>
donor molecule, donor type, donor heavy atom, donor atom, acceptor molecule, acceptor atom, score
      P1  H  6896  6908       L1    15  0.97

> <Gold.Chemscore.Hbond.Weighted>
-5.9665

> <Gold.Chemscore.Metal.Weighted>
-0.0000

> <Gold.Chemscore.Lipo.Weighted>
-7.2861

> <Gold.Chemscore.Internal_Hbond.Weighted>
0.0000

> <Gold.Chemscore.DEClash.Weighted>
0.0009

> <Gold.Chemscore.DEInternal.Weighted>
2.3261

> <Gold.Chemscore.Rot.Weighted>
3.8295

> <Gold.Chemscore.Internal.Correction.Weighted>
   9.000000E+99

> <Gold.Protein.RotatedTorsions>
[ 6907 6896 6895 6894 ] final  -80.35 input  -60.11 | X-H torsion
[ 7974 7965 7964 7962 ] final  -61.03 input  175.53 | X-H torsion
[ 8008 7997 7996 7995 ] final -130.62 input   59.86 | X-H torsion
[ 10167 10162 10161 10158 ] final  -54.88 input  -65.29 | X-H torsion
[ 10718 10713 10712 10709 ] final  -67.95 input   66.30 | X-H torsion
[ 10763 10752 10751 10750 ] final   92.47 input  -60.55 | X-H torsion
[ 11005 11000 10999 10996 ] final  -67.37 input  -57.11 | X-H torsion

> <Gold.Protein.ActiveResidues>
 VAL166  LYS551  ARG553  GLY616  TRP617  ASP618  TYR619  PRO620  LYS621  CYS622 
 ASP623  PHE694  ASN695  SER759  ASP760  ASP761  ALA762  ILE779  LEU786  VAL792 
 PHE793  MET794  SER795  GLU796  ALA797  LYS798  CYS799  TRP800  GLU811  SER814 

> <Gold.Protein.RotatedAtoms>
  150.6931  134.3982  159.5106 H   0  0  0  0  0  0  0  0  0  0  0  0  # atno 6907 bound_to 6896
  152.1760  134.8792  160.0539 H   0  0  0  0  0  0  0  0  0  0  0  0  # atno 6908 bound_to 6896
  151.9800  133.3719  159.4141 H   0  0  0  0  0  0  0  0  0  0  0  0  # atno 6909 bound_to 6896
  145.8084  140.8613  143.0194 H   0  0  0  0  0  0  0  0  0  0  0  0  # atno 7974 bound_to 7965
  155.2988  140.0452  157.3028 H   0  0  0  0  0  0  0  0  0  0  0  0  # atno 8008 bound_to 7997
  154.5498  140.2314  155.8470 H   0  0  0  0  0  0  0  0  0  0  0  0  # atno 8009 bound_to 7997
  156.1957  140.3039  155.9429 H   0  0  0  0  0  0  0  0  0  0  0  0  # atno 8010 bound_to 7997
  140.6406  143.2505  151.5000 H   0  0  0  0  0  0  0  0  0  0  0  0  # atno 10167 bound_to 10162
  156.0530  130.4286  150.1929 H   0  0  0  0  0  0  0  0  0  0  0  0  # atno 10718 bound_to 10713
  153.2195  135.4360  155.0473 H   0  0  0  0  0  0  0  0  0  0  0  0  # atno 10763 bound_to 10752
  154.8243  135.3353  154.6948 H   0  0  0  0  0  0  0  0  0  0  0  0  # atno 10764 bound_to 10752
  153.7380  135.7006  153.5029 H   0  0  0  0  0  0  0  0  0  0  0  0  # atno 10765 bound_to 10752
  141.1506  133.6718  156.6282 H   0  0  0  0  0  0  0  0  0  0  0  0  # atno 11005 bound_to 11000
  144.6760  140.0360  143.7482 LP  0  0  0  0  0  0  0  0  0  0  0  0  # atno 17320 bound_to 7965
  145.9803  139.2936  143.1046 LP  0  0  0  0  0  0  0  0  0  0  0  0  # atno 17321 bound_to 7965
  139.5615  144.2145  152.1699 LP  0  0  0  0  0  0  0  0  0  0  0  0  # atno 17342 bound_to 10162
  140.1414  144.5198  150.6742 LP  0  0  0  0  0  0  0  0  0  0  0  0  # atno 17343 bound_to 10162
  157.0010  130.9922  151.3391 LP  0  0  0  0  0  0  0  0  0  0  0  0  # atno 17370 bound_to 10713
  157.5475  130.8160  149.8104 LP  0  0  0  0  0  0  0  0  0  0  0  0  # atno 17371 bound_to 10713
  140.3487  134.7787  157.4451 LP  0  0  0  0  0  0  0  0  0  0  0  0  # atno 17394 bound_to 11000
  140.0878  134.5642  155.8474 LP  0  0  0  0  0  0  0  0  0  0  0  0  # atno 17395 bound_to 11000

$$$$
