AV-unprocessed.smi:2525|AV-procd|sdf|9928|dock7
  -GOLD-   2272013573D 1   1.00000     0.00000
 Structure written by MMmdl.
 44 45  0  0  0  0  0  0  0  0  1 V2000
  147.1503  142.6317  158.4686 C   0  0  0  0  0  0  0  0  0  0  0  0
  146.6855  142.3909  157.0201 C   0  0  0  0  0  0  0  0  0  0  0  0
  147.3987  141.2521  156.2338 C   0  0  0  0  0  0  0  0  0  0  0  0
  146.8427  141.1819  154.7983 C   0  0  0  0  0  0  0  0  0  0  0  0
  146.7527  142.5370  154.0791 C   0  0  0  0  0  0  0  0  0  0  0  0
  148.9478  141.1613  156.3399 C   0  0  1  0  0  0  0  0  0  0  0  0
  149.6334  142.4114  156.6477 N   0  0  0  0  0  0  0  0  0  0  0  0
  150.8527  142.4931  157.1991 C   0  0  0  0  0  0  0  0  0  0  0  0
  151.5244  141.5042  157.4971 O   0  0  0  0  0  0  0  0  0  0  0  0
  151.3879  143.9119  157.4255 C   0  0  0  0  0  0  0  0  0  0  0  0
  151.3893  144.2915  158.8283 N   0  0  0  0  0  0  0  0  0  0  0  0
  151.8074  145.4765  159.3987 C   0  0  0  0  0  0  0  0  0  0  0  0
  151.5760  145.2863  160.7311 C   0  0  0  0  0  0  0  0  0  0  0  0
  151.0379  144.0136  160.9141 N   0  0  0  0  0  0  0  0  0  0  0  0
  150.9302  143.4257  159.7641 N   0  0  0  0  0  0  0  0  0  0  0  0
  148.8036  140.2570  157.5687 C   0  0  2  0  0  0  0  0  0  0  0  0
  149.8522  139.1790  157.8102 C   0  0  0  0  0  0  0  0  0  0  0  0
  147.4408  139.8832  156.9663 C   0  0  1  0  0  0  0  0  0  0  0  0
  146.3887  139.7268  157.9070 O   0  0  0  0  0  0  0  0  0  0  0  0
  145.1176  139.5647  157.3038 C   0  0  0  0  0  0  0  0  0  0  0  0
  146.5158  143.3771  158.9486 H   0  0  0  0  0  0  0  0  0  0  0  0
  148.1703  143.0123  158.5095 H   0  0  0  0  0  0  0  0  0  0  0  0
  147.1050  141.7314  159.0771 H   0  0  0  0  0  0  0  0  0  0  0  0
  145.6115  142.2078  157.0478 H   0  0  0  0  0  0  0  0  0  0  0  0
  146.7848  143.3332  156.4811 H   0  0  0  0  0  0  0  0  0  0  0  0
  147.4142  140.4798  154.1919 H   0  0  0  0  0  0  0  0  0  0  0  0
  145.8371  140.7607  154.8220 H   0  0  0  0  0  0  0  0  0  0  0  0
  146.2709  142.4233  153.1079 H   0  0  0  0  0  0  0  0  0  0  0  0
  147.7372  142.9699  153.9038 H   0  0  0  0  0  0  0  0  0  0  0  0
  146.1676  143.2541  154.6551 H   0  0  0  0  0  0  0  0  0  0  0  0
  149.3893  140.6112  155.5046 H   0  0  0  0  0  0  0  0  0  0  0  0
  149.1492  143.2690  156.4245 H   0  0  0  0  0  0  0  0  0  0  0  0
  152.4029  143.9812  157.0313 H   0  0  0  0  0  0  0  0  0  0  0  0
  150.7788  144.6306  156.8752 H   0  0  0  0  0  0  0  0  0  0  0  0
  152.2071  146.3068  158.8358 H   0  0  0  0  0  0  0  0  0  0  0  0
  151.7491  145.9514  161.5643 H   0  0  0  0  0  0  0  0  0  0  0  0
  148.6561  140.8584  158.4677 H   0  0  0  0  0  0  0  0  0  0  0  0
  149.9443  138.5129  156.9520 H   0  0  0  0  0  0  0  0  0  0  0  0
  149.6053  138.5679  158.6776 H   0  0  0  0  0  0  0  0  0  0  0  0
  150.8324  139.6211  157.9898 H   0  0  0  0  0  0  0  0  0  0  0  0
  147.5068  139.0472  156.2653 H   0  0  0  0  0  0  0  0  0  0  0  0
  144.3546  139.4937  158.0788 H   0  0  0  0  0  0  0  0  0  0  0  0
  145.0731  138.6532  156.7086 H   0  0  0  0  0  0  0  0  0  0  0  0
  144.8705  140.4145  156.6661 H   0  0  0  0  0  0  0  0  0  0  0  0
  1  2  1  0  0  0  0
  1 21  1  0  0  0  0
  1 22  1  0  0  0  0
  1 23  1  0  0  0  0
  2  3  1  0  0  0  0
  2 24  1  0  0  0  0
  2 25  1  0  0  0  0
  3 18  1  0  0  0  0
  3  4  1  0  0  0  0
  3  6  1  0  0  0  0
  4  5  1  0  0  0  0
  4 26  1  0  0  0  0
  4 27  1  0  0  0  0
  5 28  1  0  0  0  0
  5 29  1  0  0  0  0
  5 30  1  0  0  0  0
  6  7  1  0  0  0  0
  6 16  1  0  0  0  0
  6 31  1  0  0  0  0
  7  8  1  0  0  0  0
  7 32  1  0  0  0  0
  8  9  2  0  0  0  0
  8 10  1  0  0  0  0
 10 11  1  0  0  0  0
 10 33  1  0  0  0  0
 10 34  1  0  0  0  0
 11 15  1  0  0  0  0
 11 12  1  0  0  0  0
 12 13  2  0  0  0  0
 12 35  1  0  0  0  0
 13 14  1  0  0  0  0
 13 36  1  0  0  0  0
 14 15  2  0  0  0  0
 16 17  1  0  0  0  0
 16 18  1  0  0  0  0
 16 37  1  0  0  0  0
 17 38  1  0  0  0  0
 17 39  1  0  0  0  0
 17 40  1  0  0  0  0
 18 19  1  0  0  0  0
 18 41  1  0  0  0  0
 19 20  1  0  0  0  0
 20 42  1  0  0  0  0
 20 43  1  0  0  0  0
 20 44  1  0  0  0  0
M  END
> <s_m_source_file>
AV-unprocessed.smi

> <i_m_source_file_index>
2525

> <i_lp_mmshare_version>
43012

> <i_f3d_flags>
0

> <s_epik_input>
W0NIM11PW0NAQEhdMVtDQEhdKFtDSDNdKVtDQEBIXShDMShbQ0gyXVtDSDNdKVtDSDJdW0NIM10pW05IXUMoPU8pW0NIMl1uMltjSF1bY0hdbm4y

> <s_epik_cmdline>
J2VwaWtfcHl0aG9uJywgJy1waCcsICc3LjAnLCAnLXRuJywgJzgnLCAnLW1hJywgJzIwMCcsICctbWV0YWxfYmluZGluZycsICctaW1hZScsICc8aW5maWxlLm1hZT4nLCAnLW9tYWUnLCAnPG91dGZpbGUubWFlPic=

> <r_lp_tautomer_probability>
1

> <r_epik_Ionization_Penalty>
1.18045e-06

> <r_epik_Ionization_Penalty_Charging>
0

> <r_epik_Ionization_Penalty_Neutral>
1.18045e-06

> <r_epik_State_Penalty>
-0

> <r_epik_Charging_Adjusted_Penalty>
0

> <i_epik_Tot_Q>
0

> <i_epik_Tot_abs_Q>
0

> <r_epik_Metal_State_Penalty>
-0

> <b_epik_Metal_Only>
0

> <s_lp_Force_Field>
OPLS_2005

> <r_lp_Energy>
27.7257

> <b_lp_Chiralities_Consistent>
1

> <s_lp_Variant>
AV-unprocessed.smi:2525-3

> <Gold.Version>
5.8.1

> <Gold.Id.Protein>
6NUR|6NUR_protein|mol2

> <Gold.PLP.Fitness>
36.1624

> <Gold.PLP.PLP>
-33.8624

> <Gold.PLP.part.hbond>
-1.7751

> <Gold.PLP.part.metal>
0.0000

> <Gold.PLP.part.buried>
-6.2116

> <Gold.PLP.part.nonpolar>
-25.2947

> <Gold.PLP.part.repulsive>
0.2104

> <Gold.PLP.ligand.clash>
0.0000

> <Gold.PLP.ligand.torsion>
0.6513

> <Gold.PLP.Chemscore.Hbond>
1.0000

> <Gold.PLP.Chemscore.CHOScore>
0.0000

> <Gold.PLP.Chemscore.Metal>
0.0000

> <Gold.Chemscore.Hbonds>
donor molecule, donor type, donor heavy atom, donor atom, acceptor molecule, acceptor atom, score
      L1  H     7    32       P1  8028  1.00

> <Gold.PLP.Chemscore.Internal.Correction>
0.6025

> <Gold.Rescore>
     Score         DG    S(hbond)    S(metal)    S(lipo)     H(rot)  DE(clash)    DE(int)     intcor
      6.71     -11.41       1.00        0.00      65.54       1.98       0.02       4.68       ----

> <Gold.Chemscore.Fitness>
6.7123

> <Gold.Chemscore.DG>
-11.4070

> <Gold.Chemscore.ZeroCoef>
-5.4800

> <Gold.Chemscore.Hbond>
0.9976

> <Gold.Chemscore.Metal>
0.0000

> <Gold.Chemscore.Lipo>
65.5404

> <Gold.Chemscore.Internal_Hbond>
0.0000

> <Gold.Chemscore.DEClash>
0.0152

> <Gold.Chemscore.DEInternal>
4.6795

> <Gold.Chemscore.Rot>
1.9817

> <Gold.Chemscore.Internal.Correction>
   9.000000E+99

> <Gold.Chemscore.Hbonds>
donor molecule, donor type, donor heavy atom, donor atom, acceptor molecule, acceptor atom, score
      L1  H     7    32       P1  8028  0.98

> <Gold.Chemscore.Hbond.Weighted>
-3.3318

> <Gold.Chemscore.Metal.Weighted>
-0.0000

> <Gold.Chemscore.Lipo.Weighted>
-7.6682

> <Gold.Chemscore.Internal_Hbond.Weighted>
0.0000

> <Gold.Chemscore.DEClash.Weighted>
0.0152

> <Gold.Chemscore.DEInternal.Weighted>
4.6795

> <Gold.Chemscore.Rot.Weighted>
5.0731

> <Gold.Chemscore.Internal.Correction.Weighted>
   9.000000E+99

> <Gold.Protein.RotatedTorsions>
[ 6907 6896 6895 6894 ] final  159.87 input  -60.11 | X-H torsion
[ 7974 7965 7964 7962 ] final   26.70 input  175.53 | X-H torsion
[ 8008 7997 7996 7995 ] final  -25.95 input   59.86 | X-H torsion
[ 10167 10162 10161 10158 ] final -142.62 input  -65.29 | X-H torsion
[ 10718 10713 10712 10709 ] final -136.66 input   66.30 | X-H torsion
[ 10763 10752 10751 10750 ] final  -41.04 input  -60.55 | X-H torsion
[ 11005 11000 10999 10996 ] final  -23.43 input  -57.11 | X-H torsion

> <Gold.Protein.ActiveResidues>
 VAL166  LYS551  ARG553  GLY616  TRP617  ASP618  TYR619  PRO620  LYS621  CYS622 
 ASP623  PHE694  ASN695  SER759  ASP760  ASP761  ALA762  ILE779  LEU786  VAL792 
 PHE793  MET794  SER795  GLU796  ALA797  LYS798  CYS799  TRP800  GLU811  SER814 

> <Gold.Protein.RotatedAtoms>
  151.9792  133.3752  159.4100 H   0  0  0  0  0  0  0  0  0  0  0  0  # atno 6907 bound_to 6896
  150.6937  134.4057  159.5148 H   0  0  0  0  0  0  0  0  0  0  0  0  # atno 6908 bound_to 6896
  152.1773  134.8783  160.0580 H   0  0  0  0  0  0  0  0  0  0  0  0  # atno 6909 bound_to 6896
  146.1824  139.7292  142.8891 H   0  0  0  0  0  0  0  0  0  0  0  0  # atno 7974 bound_to 7965
  154.4449  140.1912  156.0699 H   0  0  0  0  0  0  0  0  0  0  0  0  # atno 8008 bound_to 7997
  156.0519  140.3307  155.7334 H   0  0  0  0  0  0  0  0  0  0  0  0  # atno 8009 bound_to 7997
  155.5544  140.0598  157.2833 H   0  0  0  0  0  0  0  0  0  0  0  0  # atno 8010 bound_to 7997
  139.8071  143.7754  152.2661 H   0  0  0  0  0  0  0  0  0  0  0  0  # atno 10167 bound_to 10162
  156.2795  130.7312  151.1305 H   0  0  0  0  0  0  0  0  0  0  0  0  # atno 10718 bound_to 10713
  153.9560  135.6745  153.4744 H   0  0  0  0  0  0  0  0  0  0  0  0  # atno 10763 bound_to 10752
  153.0861  135.4898  154.8596 H   0  0  0  0  0  0  0  0  0  0  0  0  # atno 10764 bound_to 10752
  154.7299  135.3136  154.8868 H   0  0  0  0  0  0  0  0  0  0  0  0  # atno 10765 bound_to 10752
  140.8751  133.7693  156.0233 H   0  0  0  0  0  0  0  0  0  0  0  0  # atno 11005 bound_to 11000
  145.4039  141.0388  143.3055 LP  0  0  0  0  0  0  0  0  0  0  0  0  # atno 17320 bound_to 7965
  144.8337  139.5585  143.6932 LP  0  0  0  0  0  0  0  0  0  0  0  0  # atno 17321 bound_to 7965
  139.7891  144.7417  150.9980 LP  0  0  0  0  0  0  0  0  0  0  0  0  # atno 17342 bound_to 10162
  140.7819  143.4461  151.0481 LP  0  0  0  0  0  0  0  0  0  0  0  0  # atno 17343 bound_to 10162
  157.7310  131.0612  150.5700 LP  0  0  0  0  0  0  0  0  0  0  0  0  # atno 17370 bound_to 10713
  156.5804  130.4303  149.5979 LP  0  0  0  0  0  0  0  0  0  0  0  0  # atno 17371 bound_to 10713
  140.8528  134.2934  157.5268 LP  0  0  0  0  0  0  0  0  0  0  0  0  # atno 17394 bound_to 11000
  139.8715  134.9477  156.3974 LP  0  0  0  0  0  0  0  0  0  0  0  0  # atno 17395 bound_to 11000

$$$$
