AV-unprocessed.smi:72|AV-procd|sdf|735|dock6
  -GOLD-   2262017 63D 1   1.00000     0.00000
 Structure written by MMmdl.
 28 29  0  0  0  0  0  0  0  0  2 V2000
  154.1903  138.1366  155.2178 N   0  0  0  0  0  0  0  0  0  0  0  0
  152.9641  138.4243  155.1587 C   0  0  0  0  0  0  0  0  0  0  0  0
  152.0701  137.6174  154.3565 N   0  0  0  0  0  0  0  0  0  0  0  0
  150.8140  137.9430  154.3388 C   0  0  0  0  0  0  0  0  0  0  0  0
  150.3025  139.0708  155.1051 N   0  0  0  0  0  0  0  0  0  0  0  0
  148.8336  139.4426  155.0656 C   0  0  2  0  0  0  0  0  0  0  0  0
  148.1271  138.4410  154.4020 O   0  0  0  0  0  0  0  0  0  0  0  0
  147.0049  139.0283  153.7620 C   0  0  2  0  0  0  0  0  0  0  0  0
  146.4881  138.1009  152.6512 C   0  0  0  0  0  0  0  0  0  0  0  0
  147.3628  138.1319  151.5436 O   0  0  0  0  0  0  0  0  0  0  0  0
  147.5772  140.3498  153.2382 C   0  0  1  0  0  0  0  0  0  0  0  0
  146.5499  141.3086  153.0869 O   0  0  0  0  0  0  0  0  0  0  0  0
  148.5529  140.7742  154.3316 C   0  0  2  0  0  0  0  0  0  0  0  0
  149.6958  141.3874  153.7624 O   0  0  0  0  0  0  0  0  0  0  0  0
  151.2066  139.8640  155.8593 C   0  0  0  0  0  0  0  0  0  0  0  0
  150.7606  140.8421  156.4595 O   0  0  0  0  0  0  0  0  0  0  0  0
  152.5242  139.5175  155.8728 N   0  5  0  0  0  0  0  0  0  0  0  0
  148.4862  139.4520  156.0999 H   0  0  0  0  0  0  0  0  0  0  0  0
  146.2312  139.2262  154.5074 H   0  0  0  0  0  0  0  0  0  0  0  0
  148.0967  140.1872  152.2922 H   0  0  0  0  0  0  0  0  0  0  0  0
  148.0908  141.4556  155.0477 H   0  0  0  0  0  0  0  0  0  0  0  0
  154.7112  138.7714  155.8051 H   0  0  0  0  0  0  0  0  0  0  0  0
  150.0703  137.4033  153.7512 H   0  0  0  0  0  0  0  0  0  0  0  0
  146.4536  137.0716  153.0092 H   0  0  0  0  0  0  0  0  0  0  0  0
  145.4766  138.3718  152.3466 H   0  0  0  0  0  0  0  0  0  0  0  0
  147.9716  138.8450  151.6616 H   0  0  0  0  0  0  0  0  0  0  0  0
  145.7484  140.8527  152.8793 H   0  0  0  0  0  0  0  0  0  0  0  0
  150.4054  140.7626  153.7750 H   0  0  0  0  0  0  0  0  0  0  0  0
  1  2  2  0  0  0  0
  1 22  1  0  0  0  0
  2 17  1  0  0  0  0
  2  3  1  0  0  0  0
  3  4  2  0  0  0  0
  4  5  1  0  0  0  0
  4 23  1  0  0  0  0
  5  6  1  0  0  0  0
  5 15  1  0  0  0  0
  6 18  1  0  0  0  0
  6 13  1  0  0  0  0
  6  7  1  0  0  0  0
  7  8  1  0  0  0  0
  8 19  1  0  0  0  0
  8  9  1  0  0  0  0
  8 11  1  0  0  0  0
  9 10  1  0  0  0  0
  9 24  1  0  0  0  0
  9 25  1  0  0  0  0
 10 26  1  0  0  0  0
 11 20  1  0  0  0  0
 11 12  1  0  0  0  0
 11 13  1  0  0  0  0
 12 27  1  0  0  0  0
 13 21  1  0  0  0  0
 13 14  1  0  0  0  0
 14 28  1  0  0  0  0
 15 16  2  0  0  0  0
 15 17  1  0  0  0  0
M  CHG  1  17  -1
M  END
> <s_m_source_file>
AV-unprocessed.smi

> <i_m_source_file_index>
72

> <i_lp_mmshare_version>
43012

> <i_f3d_flags>
0

> <s_epik_input>
W05IMl1jMW5bY0hdbihjKD1PKW4xKVtDQEBIXTJPW0NASF0oW0NIMl1bT0hdKVtDQEBIXShbT0hdKVtDQEhdMltPSF0=

> <s_epik_cmdline>
J2VwaWtfcHl0aG9uJywgJy1waCcsICc3LjAnLCAnLXRuJywgJzgnLCAnLW1hJywgJzIwMCcsICctbWV0YWxfYmluZGluZycsICctaW1hZScsICc8aW5maWxlLm1hZT4nLCAnLW9tYWUnLCAnPG91dGZpbGUubWFlPic=

> <r_lp_tautomer_probability>
7.17554e-07

> <r_epik_Ionization_Penalty>
12.8705

> <r_epik_Ionization_Penalty_Charging>
5.64144

> <r_epik_Ionization_Penalty_Neutral>
7.22905

> <r_epik_State_Penalty>
3.30104

> <r_epik_Charging_Adjusted_Penalty>
8.94249

> <i_epik_Tot_Q>
-1

> <i_epik_Tot_abs_Q>
1

> <r_epik_Metal_State_Penalty>
0.529074

> <b_epik_Metal_Only>
1

> <s_epik_Chemistry_Notes>
This compound contains an acetal/aminal-like group ( X-CH(R)-Y where X, Y are N, S, or O) that may be acid/base labile, releasing an aldehyde.

> <s_lp_Force_Field>
OPLS_2005

> <r_lp_Energy>
36.8699

> <b_lp_Chiralities_Consistent>
1

> <s_lp_Variant>
AV-unprocessed.smi:72-73

> <Gold.Version>
5.8.1

> <Gold.Id.Protein>
6NUR|6NUR_protein|mol2

> <Gold.PLP.Fitness>
50.9090

> <Gold.PLP.PLP>
-31.1935

> <Gold.PLP.part.hbond>
-10.9122

> <Gold.PLP.part.metal>
0.0000

> <Gold.PLP.part.buried>
-0.5687

> <Gold.PLP.part.nonpolar>
-20.6840

> <Gold.PLP.part.repulsive>
0.3537

> <Gold.PLP.ligand.clash>
0.0000

> <Gold.PLP.ligand.torsion>
0.2745

> <Gold.PLP.Chemscore.Hbond>
5.6022

> <Gold.PLP.Chemscore.CHOScore>
1.0537

> <Gold.PLP.Chemscore.Metal>
0.0000

> <Gold.Chemscore.Hbonds>
donor molecule, donor type, donor heavy atom, donor atom, acceptor molecule, acceptor atom, score
      L1  H    10    26       P1  7957  0.96
      L1  H    12    27       P1 10175  0.76
      P1  H  7954  7966       L1    10  0.30
      P1  H  7997  8009       L1    17  1.60
      P1  H  8011  8017       L1    14  0.78
      P1  H 10752 10765       L1     3  0.55
      L1  C     4    23       P1  7948  1.00
      L1  C     4    23       P1  7949  0.02

> <Gold.PLP.Chemscore.Internal.Correction>
0.2970

> <Gold.Rescore>
     Score         DG    S(hbond)    S(metal)    S(lipo)     H(rot)  DE(clash)    DE(int)     intcor
      0.56      -4.21       1.76        0.00      27.24       4.04       1.66       1.99       ----

> <Gold.Chemscore.Fitness>
0.5579

> <Gold.Chemscore.DG>
-4.2081

> <Gold.Chemscore.ZeroCoef>
-5.4800

> <Gold.Chemscore.Hbond>
1.7618

> <Gold.Chemscore.Metal>
0.0000

> <Gold.Chemscore.Lipo>
27.2386

> <Gold.Chemscore.Internal_Hbond>
0.0000

> <Gold.Chemscore.DEClash>
1.6609

> <Gold.Chemscore.DEInternal>
1.9893

> <Gold.Chemscore.Rot>
4.0403

> <Gold.Chemscore.Internal.Correction>
   9.000000E+99

> <Gold.Chemscore.Hbonds>
donor molecule, donor type, donor heavy atom, donor atom, acceptor molecule, acceptor atom, score
      L1  H    10    26       P1  7957  0.73
      L1  H    12    27       P1 10175  0.30
      P1  H  7997  8009       L1    17  0.11
      P1  H  8011  8017       L1    14  0.58
      P1  H 10752 10765       L1     3  0.32

> <Gold.Chemscore.Hbond.Weighted>
-5.8843

> <Gold.Chemscore.Metal.Weighted>
-0.0000

> <Gold.Chemscore.Lipo.Weighted>
-3.1869

> <Gold.Chemscore.Internal_Hbond.Weighted>
0.0000

> <Gold.Chemscore.DEClash.Weighted>
1.6609

> <Gold.Chemscore.DEInternal.Weighted>
1.9893

> <Gold.Chemscore.Rot.Weighted>
10.3431

> <Gold.Chemscore.Internal.Correction.Weighted>
   9.000000E+99

> <Gold.Protein.RotatedTorsions>
[ 6907 6896 6895 6894 ] final  -54.50 input  -60.11 | X-H torsion
[ 7974 7965 7964 7962 ] final  -21.44 input  175.53 | X-H torsion
[ 8008 7997 7996 7995 ] final -173.70 input   59.86 | X-H torsion
[ 10167 10162 10161 10158 ] final  165.50 input  -65.29 | X-H torsion
[ 10718 10713 10712 10709 ] final    0.74 input   66.30 | X-H torsion
[ 10763 10752 10751 10750 ] final  144.56 input  -60.55 | X-H torsion
[ 11005 11000 10999 10996 ] final  -17.00 input  -57.11 | X-H torsion

> <Gold.Protein.ActiveResidues>
 VAL166  LYS551  ARG553  GLY616  TRP617  ASP618  TYR619  PRO620  LYS621  CYS622 
 ASP623  PHE694  ASN695  SER759  ASP760  ASP761  ALA762  ILE779  LEU786  VAL792 
 PHE793  MET794  SER795  GLU796  ALA797  LYS798  CYS799  TRP800  GLU811  SER814 

> <Gold.Protein.RotatedAtoms>
  150.8333  134.7595  159.6871 H   0  0  0  0  0  0  0  0  0  0  0  0  # atno 6907 bound_to 6896
  152.4434  134.5542  159.9885 H   0  0  0  0  0  0  0  0  0  0  0  0  # atno 6908 bound_to 6896
  151.5698  133.3354  159.3023 H   0  0  0  0  0  0  0  0  0  0  0  0  # atno 6909 bound_to 6896
  146.1732  140.4342  142.8524 H   0  0  0  0  0  0  0  0  0  0  0  0  # atno 7974 bound_to 7965
  155.9607  140.1144  157.0898 H   0  0  0  0  0  0  0  0  0  0  0  0  # atno 8008 bound_to 7997
  154.4131  140.1182  156.5242 H   0  0  0  0  0  0  0  0  0  0  0  0  # atno 8009 bound_to 7997
  155.6723  140.3473  155.4825 H   0  0  0  0  0  0  0  0  0  0  0  0  # atno 8010 bound_to 7997
  139.4907  144.4125  151.9283 H   0  0  0  0  0  0  0  0  0  0  0  0  # atno 10167 bound_to 10162
  156.8378  130.5510  149.5680 H   0  0  0  0  0  0  0  0  0  0  0  0  # atno 10718 bound_to 10713
  153.9909  135.2932  155.3412 H   0  0  0  0  0  0  0  0  0  0  0  0  # atno 10763 bound_to 10752
  154.7215  135.5107  153.8823 H   0  0  0  0  0  0  0  0  0  0  0  0  # atno 10764 bound_to 10752
  153.0810  135.6679  154.0161 H   0  0  0  0  0  0  0  0  0  0  0  0  # atno 10765 bound_to 10752
  140.8125  133.8130  155.9577 H   0  0  0  0  0  0  0  0  0  0  0  0  # atno 11005 bound_to 11000
  144.8196  140.6526  143.6362 LP  0  0  0  0  0  0  0  0  0  0  0  0  # atno 17320 bound_to 7965
  145.4282  139.1553  143.4036 LP  0  0  0  0  0  0  0  0  0  0  0  0  # atno 17321 bound_to 7965
  140.3567  144.3023  150.5940 LP  0  0  0  0  0  0  0  0  0  0  0  0  # atno 17342 bound_to 10162
  140.5439  143.2218  151.8040 LP  0  0  0  0  0  0  0  0  0  0  0  0  # atno 17343 bound_to 10162
  156.0898  130.5886  150.9712 LP  0  0  0  0  0  0  0  0  0  0  0  0  # atno 17370 bound_to 10713
  157.6372  131.0914  150.8325 LP  0  0  0  0  0  0  0  0  0  0  0  0  # atno 17371 bound_to 10713
  140.9183  134.2173  157.4942 LP  0  0  0  0  0  0  0  0  0  0  0  0  # atno 17394 bound_to 11000
  139.8713  134.9781  156.4985 LP  0  0  0  0  0  0  0  0  0  0  0  0  # atno 17395 bound_to 11000

$$$$
