AV-unprocessed.smi:1994|AV-procd|sdf|8075|dock9
  -GOLD-   2272010283D 1   1.00000     0.00000
 Structure written by MMmdl.
 40 42  0  0  0  0  0  0  0  0  2 V2000
  148.6417  140.9233  155.9227 C   0  0  0  0  0  0  0  0  0  0  0  0
  149.6795  141.3139  156.9210 C   0  0  0  0  0  0  0  0  0  0  0  0
  150.1425  142.5765  157.1437 N   0  3  0  0  0  0  0  0  0  0  0  0
  151.1124  142.5539  158.1474 C   0  0  0  0  0  0  0  0  0  0  0  0
  151.8634  143.5795  158.7135 C   0  0  0  0  0  0  0  0  0  0  0  0
  152.7748  143.2118  159.7254 C   0  0  0  0  0  0  0  0  0  0  0  0
  152.9133  141.8703  160.1374 C   0  0  0  0  0  0  0  0  0  0  0  0
  152.1468  140.8389  159.5553 C   0  0  0  0  0  0  0  0  0  0  0  0
  151.2474  141.2118  158.5571 C   0  0  0  0  0  0  0  0  0  0  0  0
  150.3423  140.4845  157.7769 N   0  0  0  0  0  0  0  0  0  0  0  0
  150.2432  139.0291  157.9640 C   0  0  0  0  0  0  0  0  0  0  0  0
  148.8547  138.5784  158.4617 C   0  0  1  0  0  0  0  0  0  0  0  0
  147.9962  138.3684  157.3587 O   0  0  0  0  0  0  0  0  0  0  0  0
  148.9220  137.2846  159.2848 C   0  0  0  0  0  0  0  0  0  0  0  0
  147.8803  137.3064  160.2514 O   0  0  0  0  0  0  0  0  0  0  0  0
  147.4028  136.1039  160.7271 C   0  0  0  0  0  0  0  0  0  0  0  0
  147.3992  134.8982  159.9802 C   0  0  0  0  0  0  0  0  0  0  0  0
  146.8917  133.7114  160.5439 C   0  0  0  0  0  0  0  0  0  0  0  0
  146.3821  133.7133  161.8554 C   0  0  0  0  0  0  0  0  0  0  0  0
  146.3804  134.9049  162.6034 C   0  0  0  0  0  0  0  0  0  0  0  0
  146.8878  136.0923  162.0411 C   0  0  0  0  0  0  0  0  0  0  0  0
  146.8822  137.2324  162.7725 F   0  0  0  0  0  0  0  0  0  0  0  0
  148.1902  141.8079  155.4729 H   0  0  0  0  0  0  0  0  0  0  0  0
  147.8555  140.3398  156.4020 H   0  0  0  0  0  0  0  0  0  0  0  0
  149.0896  140.3214  155.1318 H   0  0  0  0  0  0  0  0  0  0  0  0
  151.7597  144.6076  158.3992 H   0  0  0  0  0  0  0  0  0  0  0  0
  153.3799  143.9739  160.1950 H   0  0  0  0  0  0  0  0  0  0  0  0
  153.6215  141.6268  160.9160 H   0  0  0  0  0  0  0  0  0  0  0  0
  152.2599  139.8138  159.8770 H   0  0  0  0  0  0  0  0  0  0  0  0
  150.4764  138.5541  157.0102 H   0  0  0  0  0  0  0  0  0  0  0  0
  151.0265  138.7209  158.6579 H   0  0  0  0  0  0  0  0  0  0  0  0
  148.4088  139.3613  159.0756 H   0  0  0  0  0  0  0  0  0  0  0  0
  147.4436  137.6258  157.5471 H   0  0  0  0  0  0  0  0  0  0  0  0
  148.7905  136.4232  158.6273 H   0  0  0  0  0  0  0  0  0  0  0  0
  149.8971  137.1981  159.7677 H   0  0  0  0  0  0  0  0  0  0  0  0
  147.7793  134.8575  158.9708 H   0  0  0  0  0  0  0  0  0  0  0  0
  146.8934  132.7976  159.9680 H   0  0  0  0  0  0  0  0  0  0  0  0
  145.9931  132.8026  162.2866 H   0  0  0  0  0  0  0  0  0  0  0  0
  145.9896  134.9089  163.6102 H   0  0  0  0  0  0  0  0  0  0  0  0
  149.8181  143.3932  156.6417 H   0  0  0  0  0  0  0  0  0  0  0  0
  1  2  1  0  0  0  0
  1 23  1  0  0  0  0
  1 24  1  0  0  0  0
  1 25  1  0  0  0  0
  2 10  1  0  0  0  0
  2  3  2  0  0  0  0
  3  4  1  0  0  0  0
  3 40  1  0  0  0  0
  4  9  2  0  0  0  0
  4  5  1  0  0  0  0
  5  6  2  0  0  0  0
  5 26  1  0  0  0  0
  6  7  1  0  0  0  0
  6 27  1  0  0  0  0
  7  8  2  0  0  0  0
  7 28  1  0  0  0  0
  8  9  1  0  0  0  0
  8 29  1  0  0  0  0
  9 10  1  0  0  0  0
 10 11  1  0  0  0  0
 11 12  1  0  0  0  0
 11 30  1  0  0  0  0
 11 31  1  0  0  0  0
 12 13  1  0  0  0  0
 12 14  1  0  0  0  0
 12 32  1  0  0  0  0
 13 33  1  0  0  0  0
 14 15  1  0  0  0  0
 14 34  1  0  0  0  0
 14 35  1  0  0  0  0
 15 16  1  0  0  0  0
 16 21  1  0  0  0  0
 16 17  2  0  0  0  0
 17 18  1  0  0  0  0
 17 36  1  0  0  0  0
 18 19  2  0  0  0  0
 18 37  1  0  0  0  0
 19 20  1  0  0  0  0
 19 38  1  0  0  0  0
 20 21  2  0  0  0  0
 20 39  1  0  0  0  0
 21 22  1  0  0  0  0
M  CHG  1   3   1
M  END
> <s_m_source_file>
AV-unprocessed.smi

> <i_m_source_file_index>
1994

> <i_lp_mmshare_version>
43012

> <i_f3d_flags>
0

> <s_epik_input>
W2NIXTFbY0hdW2NIXVtjSF1jKGMxMiluKGMobjIpW0NIM10pW0NIMl1bQ0BIXShbT0hdKVtDSDJdT2MzW2NIXVtjSF1bY0hdW2NIXWMzRg==

> <s_epik_cmdline>
J2VwaWtfcHl0aG9uJywgJy1waCcsICc3LjAnLCAnLXRuJywgJzgnLCAnLW1hJywgJzIwMCcsICctbWV0YWxfYmluZGluZycsICctaW1hZScsICc8aW5maWxlLm1hZT4nLCAnLW9tYWUnLCAnPG91dGZpbGUubWFlPic=

> <r_lp_tautomer_probability>
1

> <r_epik_Ionization_Penalty>
1.03916

> <r_epik_Ionization_Penalty_Charging>
1.03916

> <r_epik_Ionization_Penalty_Neutral>
2.3993e-06

> <r_epik_State_Penalty>
1.09101

> <r_epik_Charging_Adjusted_Penalty>
2.13018

> <i_epik_Tot_Q>
1

> <i_epik_Tot_abs_Q>
1

> <r_epik_Metal_State_Penalty>
5.08156

> <b_epik_Metal_Only>
0

> <s_lp_Force_Field>
OPLS_2005

> <r_lp_Energy>
18.0159

> <b_lp_Chiralities_Consistent>
1

> <s_lp_Variant>
AV-unprocessed.smi:1994-4

> <Gold.Version>
5.8.1

> <Gold.Id.Protein>
6NUR|6NUR_protein|mol2

> <Gold.PLP.Fitness>
55.2314

> <Gold.PLP.PLP>
-48.7474

> <Gold.PLP.part.hbond>
-3.0000

> <Gold.PLP.part.metal>
0.0000

> <Gold.PLP.part.buried>
-4.2130

> <Gold.PLP.part.nonpolar>
-41.9850

> <Gold.PLP.part.repulsive>
0.0279

> <Gold.PLP.ligand.clash>
0.0000

> <Gold.PLP.ligand.torsion>
1.2304

> <Gold.PLP.Chemscore.Hbond>
2.9714

> <Gold.PLP.Chemscore.CHOScore>
0.0000

> <Gold.PLP.Chemscore.Metal>
0.0000

> <Gold.Chemscore.Hbonds>
donor molecule, donor type, donor heavy atom, donor atom, acceptor molecule, acceptor atom, score
      L1  H     3    40       P1  8028  2.00
      P1  H  6931  6943       L1    15  0.29
      P1  H  6934  6947       L1    15  0.78

> <Gold.PLP.Chemscore.Internal.Correction>
0.0307

> <Gold.Rescore>
     Score         DG    S(hbond)    S(metal)    S(lipo)     H(rot)  DE(clash)    DE(int)     intcor
     18.45     -19.79       1.84        0.00     119.40       2.27       0.21       1.13       ----

> <Gold.Chemscore.Fitness>
18.4480

> <Gold.Chemscore.DG>
-19.7864

> <Gold.Chemscore.ZeroCoef>
-5.4800

> <Gold.Chemscore.Hbond>
1.8412

> <Gold.Chemscore.Metal>
0.0000

> <Gold.Chemscore.Lipo>
119.3980

> <Gold.Chemscore.Internal_Hbond>
0.0000

> <Gold.Chemscore.DEClash>
0.2073

> <Gold.Chemscore.DEInternal>
1.1311

> <Gold.Chemscore.Rot>
2.2706

> <Gold.Chemscore.Internal.Correction>
   9.000000E+99

> <Gold.Chemscore.Hbonds>
donor molecule, donor type, donor heavy atom, donor atom, acceptor molecule, acceptor atom, score
      L1  H     3    40       P1  8028  1.00
      P1  H  6931  6943       L1    15  0.03
      P1  H  6934  6947       L1    15  0.74

> <Gold.Chemscore.Hbond.Weighted>
-6.1497

> <Gold.Chemscore.Metal.Weighted>
-0.0000

> <Gold.Chemscore.Lipo.Weighted>
-13.9696

> <Gold.Chemscore.Internal_Hbond.Weighted>
0.0000

> <Gold.Chemscore.DEClash.Weighted>
0.2073

> <Gold.Chemscore.DEInternal.Weighted>
1.1311

> <Gold.Chemscore.Rot.Weighted>
5.8128

> <Gold.Chemscore.Internal.Correction.Weighted>
   9.000000E+99

> <Gold.Protein.RotatedTorsions>
[ 6907 6896 6895 6894 ] final  148.80 input  -60.11 | X-H torsion
[ 7974 7965 7964 7962 ] final   68.24 input  175.53 | X-H torsion
[ 8008 7997 7996 7995 ] final  -47.74 input   59.86 | X-H torsion
[ 10167 10162 10161 10158 ] final -157.29 input  -65.29 | X-H torsion
[ 10718 10713 10712 10709 ] final   23.60 input   66.30 | X-H torsion
[ 10763 10752 10751 10750 ] final  -55.38 input  -60.55 | X-H torsion
[ 11005 11000 10999 10996 ] final   42.98 input  -57.11 | X-H torsion

> <Gold.Protein.ActiveResidues>
 VAL166  LYS551  ARG553  GLY616  TRP617  ASP618  TYR619  PRO620  LYS621  CYS622 
 ASP623  PHE694  ASN695  SER759  ASP760  ASP761  ALA762  ILE779  LEU786  VAL792 
 PHE793  MET794  SER795  GLU796  ALA797  LYS798  CYS799  TRP800  GLU811  SER814 

> <Gold.Protein.RotatedAtoms>
  152.1367  133.4439  159.4746 H   0  0  0  0  0  0  0  0  0  0  0  0  # atno 6907 bound_to 6896
  150.6882  134.2355  159.4461 H   0  0  0  0  0  0  0  0  0  0  0  0  # atno 6908 bound_to 6896
  152.0243  134.9804  160.0622 H   0  0  0  0  0  0  0  0  0  0  0  0  # atno 6909 bound_to 6896
  145.8049  139.3002  143.1133 H   0  0  0  0  0  0  0  0  0  0  0  0  # atno 7974 bound_to 7965
  154.4020  140.1339  156.4225 H   0  0  0  0  0  0  0  0  0  0  0  0  # atno 8008 bound_to 7997
  155.7629  140.3485  155.5187 H   0  0  0  0  0  0  0  0  0  0  0  0  # atno 8009 bound_to 7997
  155.8842  140.0992  157.1454 H   0  0  0  0  0  0  0  0  0  0  0  0  # atno 8010 bound_to 7997
  139.6782  143.9627  152.2322 H   0  0  0  0  0  0  0  0  0  0  0  0  # atno 10167 bound_to 10162
  157.1683  130.6748  149.6069 H   0  0  0  0  0  0  0  0  0  0  0  0  # atno 10718 bound_to 10713
  154.1898  135.6429  153.5057 H   0  0  0  0  0  0  0  0  0  0  0  0  # atno 10763 bound_to 10752
  153.0038  135.5426  154.6427 H   0  0  0  0  0  0  0  0  0  0  0  0  # atno 10764 bound_to 10752
  154.5813  135.2925  155.0703 H   0  0  0  0  0  0  0  0  0  0  0  0  # atno 10765 bound_to 10752
  140.1688  134.4248  155.8270 H   0  0  0  0  0  0  0  0  0  0  0  0  # atno 11005 bound_to 11000
  145.9838  140.8660  143.0101 LP  0  0  0  0  0  0  0  0  0  0  0  0  # atno 17320 bound_to 7965
  144.6764  140.2118  143.7376 LP  0  0  0  0  0  0  0  0  0  0  0  0  # atno 17321 bound_to 7965
  139.9409  144.6682  150.8267 LP  0  0  0  0  0  0  0  0  0  0  0  0  # atno 17342 bound_to 10162
  140.7643  143.3245  151.2547 LP  0  0  0  0  0  0  0  0  0  0  0  0  # atno 17343 bound_to 10162
  155.9742  130.4688  150.6371 LP  0  0  0  0  0  0  0  0  0  0  0  0  # atno 17370 bound_to 10713
  157.4067  131.0818  151.1259 LP  0  0  0  0  0  0  0  0  0  0  0  0  # atno 17371 bound_to 10713
  141.2216  133.6946  156.7726 LP  0  0  0  0  0  0  0  0  0  0  0  0  # atno 17394 bound_to 11000
  140.2402  134.8619  157.3565 LP  0  0  0  0  0  0  0  0  0  0  0  0  # atno 17395 bound_to 11000

$$$$
