AV-unprocessed.smi:27|AV-procd|sdf|188|dock3
  -GOLD-   2262015453D 1   1.00000     0.00000
 Structure written by MMmdl.
 53 56  0  0  0  0  0  0  0  0  1 V2000
  153.0382  139.1294  157.6252 O   0  0  0  0  0  0  0  0  0  0  0  0
  151.8654  138.8632  157.8927 C   0  0  0  0  0  0  0  0  0  0  0  0
  151.4835  137.5296  158.5525 C   0  0  0  0  0  0  0  0  0  0  0  0
  150.1501  137.0324  158.1496 N   0  0  0  0  0  0  0  0  0  0  0  0
  149.8157  137.0217  156.7728 C   0  0  0  0  0  0  0  0  0  0  0  0
  150.6148  137.4080  155.9183 O   0  0  0  0  0  0  0  0  0  0  0  0
  148.4787  136.5340  156.4536 C   0  0  0  0  0  0  0  0  0  0  0  0
  148.0805  136.4767  155.1713 F   0  0  0  0  0  0  0  0  0  0  0  0
  147.6327  136.1361  157.4262 C   0  0  0  0  0  0  0  0  0  0  0  0
  147.9673  136.1671  158.7684 N   0  0  0  0  0  0  0  0  0  0  0  0
  147.0056  135.7194  159.8492 C   0  0  1  0  0  0  0  0  0  0  0  0
  147.6792  134.6996  160.7872 C   0  0  0  0  0  0  0  0  0  0  0  0
  147.4046  135.2771  162.1614 C   0  0  0  0  0  0  0  0  0  0  0  0
  147.3383  136.7683  161.8680 C   0  0  0  0  0  0  0  0  0  0  0  0
  146.6302  136.8139  160.6361 O   0  0  0  0  0  0  0  0  0  0  0  0
  149.2474  136.6181  159.1572 C   0  0  0  0  0  0  0  0  0  0  0  0
  149.5644  136.6547  160.3484 O   0  0  0  0  0  0  0  0  0  0  0  0
  150.8468  139.6995  157.6434 N   0  0  0  0  0  0  0  0  0  0  0  0
  150.9643  141.0236  157.0319 C   0  0  0  0  0  0  0  0  0  0  0  0
  151.7223  142.0139  157.9109 C   0  0  0  0  0  0  0  0  0  0  0  0
  151.8752  143.3662  157.5269 C   0  0  0  0  0  0  0  0  0  0  0  0
  152.5849  144.2631  158.3485 C   0  0  0  0  0  0  0  0  0  0  0  0
  153.1497  143.8153  159.5577 C   0  0  0  0  0  0  0  0  0  0  0  0
  153.0067  142.4689  159.9438 C   0  0  0  0  0  0  0  0  0  0  0  0
  152.2975  141.5715  159.1221 C   0  0  0  0  0  0  0  0  0  0  0  0
  149.6040  141.5841  156.6355 C   0  0  0  0  0  0  0  0  0  0  0  0
  149.2713  141.7973  155.2781 C   0  0  0  0  0  0  0  0  0  0  0  0
  148.0077  142.3110  154.9276 C   0  0  0  0  0  0  0  0  0  0  0  0
  147.0665  142.6125  155.9300 C   0  0  0  0  0  0  0  0  0  0  0  0
  147.3880  142.3955  157.2833 C   0  0  0  0  0  0  0  0  0  0  0  0
  148.6511  141.8806  157.6343 C   0  0  0  0  0  0  0  0  0  0  0  0
  152.2606  136.7985  158.3237 H   0  0  0  0  0  0  0  0  0  0  0  0
  151.5439  137.6468  159.6358 H   0  0  0  0  0  0  0  0  0  0  0  0
  146.6595  135.7829  157.1219 H   0  0  0  0  0  0  0  0  0  0  0  0
  146.1298  135.3341  159.3240 H   0  0  0  0  0  0  0  0  0  0  0  0
  147.2605  133.7026  160.6475 H   0  0  0  0  0  0  0  0  0  0  0  0
  148.7533  134.6633  160.5974 H   0  0  0  0  0  0  0  0  0  0  0  0
  146.4403  134.9256  162.5309 H   0  0  0  0  0  0  0  0  0  0  0  0
  148.1688  135.0187  162.8946 H   0  0  0  0  0  0  0  0  0  0  0  0
  146.8247  137.3306  162.6479 H   0  0  0  0  0  0  0  0  0  0  0  0
  148.3391  137.1842  161.7435 H   0  0  0  0  0  0  0  0  0  0  0  0
  149.9166  139.3990  157.8956 H   0  0  0  0  0  0  0  0  0  0  0  0
  151.5332  140.9038  156.1075 H   0  0  0  0  0  0  0  0  0  0  0  0
  151.4526  143.7234  156.5995 H   0  0  0  0  0  0  0  0  0  0  0  0
  152.6971  145.2950  158.0498 H   0  0  0  0  0  0  0  0  0  0  0  0
  153.6936  144.5037  160.1877 H   0  0  0  0  0  0  0  0  0  0  0  0
  153.4418  142.1237  160.8700 H   0  0  0  0  0  0  0  0  0  0  0  0
  152.1959  140.5399  159.4257 H   0  0  0  0  0  0  0  0  0  0  0  0
  149.9801  141.5628  154.4977 H   0  0  0  0  0  0  0  0  0  0  0  0
  147.7602  142.4716  153.8887 H   0  0  0  0  0  0  0  0  0  0  0  0
  146.0976  143.0068  155.6609 H   0  0  0  0  0  0  0  0  0  0  0  0
  146.6654  142.6230  158.0532 H   0  0  0  0  0  0  0  0  0  0  0  0
  148.8860  141.7149  158.6756 H   0  0  0  0  0  0  0  0  0  0  0  0
  1  2  2  0  0  0  0
  2  3  1  0  0  0  0
  2 18  1  0  0  0  0
  3  4  1  0  0  0  0
  3 32  1  0  0  0  0
  3 33  1  0  0  0  0
  4 16  1  0  0  0  0
  4  5  1  0  0  0  0
  5  6  2  0  0  0  0
  5  7  1  0  0  0  0
  7  8  1  0  0  0  0
  7  9  2  0  0  0  0
  9 10  1  0  0  0  0
  9 34  1  0  0  0  0
 10 11  1  0  0  0  0
 10 16  1  0  0  0  0
 11 15  1  0  0  0  0
 11 12  1  0  0  0  0
 11 35  1  0  0  0  0
 12 13  1  0  0  0  0
 12 36  1  0  0  0  0
 12 37  1  0  0  0  0
 13 14  1  0  0  0  0
 13 38  1  0  0  0  0
 13 39  1  0  0  0  0
 14 15  1  0  0  0  0
 14 40  1  0  0  0  0
 14 41  1  0  0  0  0
 16 17  2  0  0  0  0
 18 19  1  0  0  0  0
 18 42  1  0  0  0  0
 19 20  1  0  0  0  0
 19 26  1  0  0  0  0
 19 43  1  0  0  0  0
 20 25  1  0  0  0  0
 20 21  2  0  0  0  0
 21 22  1  0  0  0  0
 21 44  1  0  0  0  0
 22 23  2  0  0  0  0
 22 45  1  0  0  0  0
 23 24  1  0  0  0  0
 23 46  1  0  0  0  0
 24 25  2  0  0  0  0
 24 47  1  0  0  0  0
 25 48  1  0  0  0  0
 26 31  1  0  0  0  0
 26 27  2  0  0  0  0
 27 28  1  0  0  0  0
 27 49  1  0  0  0  0
 28 29  2  0  0  0  0
 28 50  1  0  0  0  0
 29 30  1  0  0  0  0
 29 51  1  0  0  0  0
 30 31  2  0  0  0  0
 30 52  1  0  0  0  0
 31 53  1  0  0  0  0
M  END
> <s_m_source_file>
AV-unprocessed.smi

> <i_m_source_file_index>
27

> <i_lp_mmshare_version>
43012

> <i_f3d_flags>
0

> <s_epik_input>
W2NIXTFbY0hdW2NIXVtjSF1bY0hdYzFbQ0hdKGMyW2NIXVtjSF1bY0hdW2NIXVtjSF0yKVtOSF1DKD1PKVtDSDJdbjNjKD1PKWMoRilbY0hdbihjMz1PKVtDQEBIXTRbQ0gyXVtDSDJdW0NIMl1PNA==

> <s_epik_cmdline>
J2VwaWtfcHl0aG9uJywgJy1waCcsICc3LjAnLCAnLXRuJywgJzgnLCAnLW1hJywgJzIwMCcsICctbWV0YWxfYmluZGluZycsICctaW1hZScsICc8aW5maWxlLm1hZT4nLCAnLW9tYWUnLCAnPG91dGZpbGUubWFlPic=

> <r_lp_tautomer_probability>
1

> <r_epik_Ionization_Penalty>
5.29953e-08

> <r_epik_Ionization_Penalty_Charging>
3.6115e-09

> <r_epik_Ionization_Penalty_Neutral>
4.93838e-08

> <r_epik_State_Penalty>
-0

> <r_epik_Charging_Adjusted_Penalty>
3.6115e-09

> <i_epik_Tot_Q>
0

> <i_epik_Tot_abs_Q>
0

> <r_epik_Metal_State_Penalty>
-0

> <b_epik_Metal_Only>
0

> <s_epik_Chemistry_Notes>
This compound contains an acetal/aminal-like group ( X-CH(R)-Y where X, Y are N, S, or O) that may be acid/base labile, releasing an aldehyde.

> <s_lp_Force_Field>
OPLS_2005

> <r_lp_Energy>
31.2801

> <b_lp_Chiralities_Consistent>
1

> <s_lp_Variant>
AV-unprocessed.smi:27-2

> <Gold.Version>
5.8.1

> <Gold.Id.Protein>
6NUR|6NUR_protein|mol2

> <Gold.PLP.Fitness>
53.7958

> <Gold.PLP.PLP>
-52.3319

> <Gold.PLP.part.hbond>
-2.0000

> <Gold.PLP.part.metal>
0.0000

> <Gold.PLP.part.buried>
-4.6772

> <Gold.PLP.part.nonpolar>
-46.1249

> <Gold.PLP.part.repulsive>
0.0792

> <Gold.PLP.ligand.clash>
1.9279

> <Gold.PLP.ligand.torsion>
0.8323

> <Gold.PLP.Chemscore.Hbond>
1.6240

> <Gold.PLP.Chemscore.CHOScore>
0.0000

> <Gold.PLP.Chemscore.Metal>
0.0000

> <Gold.Chemscore.Hbonds>
donor molecule, donor type, donor heavy atom, donor atom, acceptor molecule, acceptor atom, score
      P1  H  6896  6907       L1    17  0.01
      P1  H  6931  6943       L1    17  0.25
      P1  H  7997  8010       L1     1  0.99

> <Gold.PLP.Chemscore.Internal.Correction>
0.1843

> <Gold.Rescore>
     Score         DG    S(hbond)    S(metal)    S(lipo)     H(rot)  DE(clash)    DE(int)     intcor
     12.40     -15.54       0.87        0.00     108.46       2.16       0.05       3.09       ----

> <Gold.Chemscore.Fitness>
12.4048

> <Gold.Chemscore.DG>
-15.5440

> <Gold.Chemscore.ZeroCoef>
-5.4800

> <Gold.Chemscore.Hbond>
0.8728

> <Gold.Chemscore.Metal>
0.0000

> <Gold.Chemscore.Lipo>
108.4565

> <Gold.Chemscore.Internal_Hbond>
0.0000

> <Gold.Chemscore.DEClash>
0.0504

> <Gold.Chemscore.DEInternal>
3.0888

> <Gold.Chemscore.Rot>
2.1642

> <Gold.Chemscore.Internal.Correction>
   9.000000E+99

> <Gold.Chemscore.Hbonds>
donor molecule, donor type, donor heavy atom, donor atom, acceptor molecule, acceptor atom, score
      P1  H  6931  6943       L1    17  0.24
      P1  H  7997  8010       L1     1  0.93

> <Gold.Chemscore.Hbond.Weighted>
-2.9151

> <Gold.Chemscore.Metal.Weighted>
-0.0000

> <Gold.Chemscore.Lipo.Weighted>
-12.6894

> <Gold.Chemscore.Internal_Hbond.Weighted>
0.0000

> <Gold.Chemscore.DEClash.Weighted>
0.0504

> <Gold.Chemscore.DEInternal.Weighted>
3.0888

> <Gold.Chemscore.Rot.Weighted>
5.5404

> <Gold.Chemscore.Internal.Correction.Weighted>
   9.000000E+99

> <Gold.Protein.RotatedTorsions>
[ 6907 6896 6895 6894 ] final  -54.06 input  -60.11 | X-H torsion
[ 7974 7965 7964 7962 ] final  -29.16 input  175.53 | X-H torsion
[ 8008 7997 7996 7995 ] final   23.78 input   59.86 | X-H torsion
[ 10167 10162 10161 10158 ] final  115.87 input  -65.29 | X-H torsion
[ 10718 10713 10712 10709 ] final  -23.41 input   66.30 | X-H torsion
[ 10763 10752 10751 10750 ] final -104.90 input  -60.55 | X-H torsion
[ 11005 11000 10999 10996 ] final  -33.29 input  -57.11 | X-H torsion

> <Gold.Protein.ActiveResidues>
 VAL166  LYS551  ARG553  GLY616  TRP617  ASP618  TYR619  PRO620  LYS621  CYS622 
 ASP623  PHE694  ASN695  SER759  ASP760  ASP761  ALA762  ILE779  LEU786  VAL792 
 PHE793  MET794  SER795  GLU796  ALA797  LYS798  CYS799  TRP800  GLU811  SER814 

> <Gold.Protein.RotatedAtoms>
  150.8371  134.7649  159.6901 H   0  0  0  0  0  0  0  0  0  0  0  0  # atno 6907 bound_to 6896
  152.4466  134.5479  159.9868 H   0  0  0  0  0  0  0  0  0  0  0  0  # atno 6908 bound_to 6896
  151.5627  133.3363  159.3010 H   0  0  0  0  0  0  0  0  0  0  0  0  # atno 6909 bound_to 6896
  146.1236  140.5377  142.8724 H   0  0  0  0  0  0  0  0  0  0  0  0  # atno 7974 bound_to 7965
  154.9862  140.3108  155.4925 H   0  0  0  0  0  0  0  0  0  0  0  0  # atno 8008 bound_to 7997
  156.2946  140.2257  156.4904 H   0  0  0  0  0  0  0  0  0  0  0  0  # atno 8009 bound_to 7997
  154.7744  140.0450  157.1065 H   0  0  0  0  0  0  0  0  0  0  0  0  # atno 8010 bound_to 7997
  139.6287  144.7112  151.2479 H   0  0  0  0  0  0  0  0  0  0  0  0  # atno 10167 bound_to 10162
  156.4915  130.4567  149.6753 H   0  0  0  0  0  0  0  0  0  0  0  0  # atno 10718 bound_to 10713
  154.7910  135.4769  154.0053 H   0  0  0  0  0  0  0  0  0  0  0  0  # atno 10763 bound_to 10752
  153.1631  135.6812  153.8721 H   0  0  0  0  0  0  0  0  0  0  0  0  # atno 10764 bound_to 10752
  153.8328  135.3189  155.3398 H   0  0  0  0  0  0  0  0  0  0  0  0  # atno 10765 bound_to 10752
  140.9623  133.7157  156.1389 H   0  0  0  0  0  0  0  0  0  0  0  0  # atno 11005 bound_to 11000
  144.7621  140.5445  143.6728 LP  0  0  0  0  0  0  0  0  0  0  0  0  # atno 17320 bound_to 7965
  145.5413  139.1475  143.3445 LP  0  0  0  0  0  0  0  0  0  0  0  0  # atno 17321 bound_to 7965
  140.7426  143.6520  150.8240 LP  0  0  0  0  0  0  0  0  0  0  0  0  # atno 17342 bound_to 10162
  140.0142  143.5610  152.2827 LP  0  0  0  0  0  0  0  0  0  0  0  0  # atno 17343 bound_to 10162
  156.3422  130.7388  151.2335 LP  0  0  0  0  0  0  0  0  0  0  0  0  # atno 17370 bound_to 10713
  157.7473  131.0400  150.4579 LP  0  0  0  0  0  0  0  0  0  0  0  0  # atno 17371 bound_to 10713
  140.7450  134.4108  157.5549 LP  0  0  0  0  0  0  0  0  0  0  0  0  # atno 17394 bound_to 11000
  139.8882  134.8862  156.2486 LP  0  0  0  0  0  0  0  0  0  0  0  0  # atno 17395 bound_to 11000

$$$$
