AV-unprocessed.smi:1022|AV-procd|sdf|4460|dock2
  -GOLD-   22720 2433D 1   1.00000     0.00000
 Structure written by MMmdl.
 32 33  0  0  0  0  0  0  0  0  2 V2000
  146.1088  132.5626  152.0164 C   0  0  0  0  0  0  0  0  0  0  0  0
  146.8639  132.4655  153.2112 O   0  0  0  0  0  0  0  0  0  0  0  0
  148.0439  133.2518  153.1719 C   0  0  0  0  0  0  0  0  0  0  0  0
  147.9664  134.3549  154.2434 C   0  0  2  0  0  0  0  0  0  0  0  0
  146.7087  135.2222  154.0847 C   0  0  0  0  0  0  0  0  0  0  0  0
  149.1477  135.2120  154.1744 N   0  0  0  0  0  0  0  0  0  0  0  0
  150.0905  135.3387  155.1198 C   0  0  0  0  0  0  0  0  0  0  0  0
  149.9959  134.7048  156.1734 O   0  0  0  0  0  0  0  0  0  0  0  0
  151.0891  136.1862  154.7823 N   0  5  0  0  0  0  0  0  0  0  0  0
  150.8389  137.4995  154.6513 C   0  0  0  0  0  0  0  0  0  0  0  0
  151.8063  138.3963  154.4129 N   0  0  0  0  0  0  0  0  0  0  0  0
  151.3317  139.6964  154.3163 N   0  0  0  0  0  0  0  0  0  0  0  0
  150.0096  139.7644  154.4910 C   0  0  0  0  0  0  0  0  0  0  0  0
  149.2602  141.0536  154.4324 C   0  0  0  0  0  0  0  0  0  0  0  0
  147.8049  141.1426  154.8369 C   0  0  0  0  0  0  0  0  0  0  0  0
  148.1924  141.2803  153.3869 C   0  0  0  0  0  0  0  0  0  0  0  0
  149.2355  138.2183  154.7988 S   0  0  0  0  0  0  0  0  0  0  0  0
  145.2146  131.9448  152.0970 H   0  0  0  0  0  0  0  0  0  0  0  0
  146.6830  132.2132  151.1574 H   0  0  0  0  0  0  0  0  0  0  0  0
  145.7926  133.5901  151.8323 H   0  0  0  0  0  0  0  0  0  0  0  0
  148.9069  132.6089  153.3535 H   0  0  0  0  0  0  0  0  0  0  0  0
  148.1713  133.6936  152.1820 H   0  0  0  0  0  0  0  0  0  0  0  0
  147.9302  133.8875  155.2290 H   0  0  0  0  0  0  0  0  0  0  0  0
  145.8026  134.6224  154.1744 H   0  0  0  0  0  0  0  0  0  0  0  0
  146.6859  135.7151  153.1121 H   0  0  0  0  0  0  0  0  0  0  0  0
  146.6662  135.9955  154.8521 H   0  0  0  0  0  0  0  0  0  0  0  0
  149.2676  135.7526  153.3304 H   0  0  0  0  0  0  0  0  0  0  0  0
  149.9107  141.8879  154.6871 H   0  0  0  0  0  0  0  0  0  0  0  0
  147.2941  140.2275  155.1294 H   0  0  0  0  0  0  0  0  0  0  0  0
  147.4838  142.0419  155.3585 H   0  0  0  0  0  0  0  0  0  0  0  0
  148.1295  142.2705  152.9405 H   0  0  0  0  0  0  0  0  0  0  0  0
  147.9521  140.4523  152.7228 H   0  0  0  0  0  0  0  0  0  0  0  0
  1  2  1  0  0  0  0
  1 18  1  0  0  0  0
  1 19  1  0  0  0  0
  1 20  1  0  0  0  0
  2  3  1  0  0  0  0
  3  4  1  0  0  0  0
  3 21  1  0  0  0  0
  3 22  1  0  0  0  0
  4  5  1  0  0  0  0
  4  6  1  0  0  0  0
  4 23  1  0  0  0  0
  5 24  1  0  0  0  0
  5 25  1  0  0  0  0
  5 26  1  0  0  0  0
  6  7  1  0  0  0  0
  6 27  1  0  0  0  0
  7  8  2  0  0  0  0
  7  9  1  0  0  0  0
  9 10  1  0  0  0  0
 10 17  1  0  0  0  0
 10 11  2  0  0  0  0
 11 12  1  0  0  0  0
 12 13  2  0  0  0  0
 13 14  1  0  0  0  0
 13 17  1  0  0  0  0
 14 16  1  0  0  0  0
 14 15  1  0  0  0  0
 14 28  1  0  0  0  0
 15 16  1  0  0  0  0
 15 29  1  0  0  0  0
 15 30  1  0  0  0  0
 16 31  1  0  0  0  0
 16 32  1  0  0  0  0
M  CHG  1   9  -1
M  END
> <s_m_source_file>
AV-unprocessed.smi

> <i_m_source_file_index>
1022

> <i_lp_mmshare_version>
43012

> <i_f3d_flags>
0

> <s_epik_input>
W0NIM11PW0NIMl1bQ0BIXShbQ0gzXSlbTkhdQyg9TylbTkhdYzFubmMoczEpW0NIXTJbQ0gyXVtDSDJdMg==

> <s_epik_cmdline>
J2VwaWtfcHl0aG9uJywgJy1waCcsICc3LjAnLCAnLXRuJywgJzgnLCAnLW1hJywgJzIwMCcsICctbWV0YWxfYmluZGluZycsICctaW1hZScsICc8aW5maWxlLm1hZT4nLCAnLW9tYWUnLCAnPG91dGZpbGUubWFlPic=

> <r_lp_tautomer_probability>
1

> <r_epik_Ionization_Penalty>
3.79487

> <r_epik_Ionization_Penalty_Charging>
3.64217

> <r_epik_Ionization_Penalty_Neutral>
0.152695

> <r_epik_State_Penalty>
3.6409

> <r_epik_Charging_Adjusted_Penalty>
7.28307

> <i_epik_Tot_Q>
-1

> <i_epik_Tot_abs_Q>
1

> <r_epik_Metal_State_Penalty>
0.534129

> <b_epik_Metal_Only>
1

> <s_lp_Force_Field>
OPLS_2005

> <r_lp_Energy>
-0.766609

> <b_lp_Chiralities_Consistent>
1

> <s_lp_Variant>
AV-unprocessed.smi:1022-3

> <Gold.Version>
5.8.1

> <Gold.Id.Protein>
6NUR|6NUR_protein|mol2

> <Gold.PLP.Fitness>
35.7645

> <Gold.PLP.PLP>
-25.6914

> <Gold.PLP.part.hbond>
-3.0000

> <Gold.PLP.part.metal>
0.0000

> <Gold.PLP.part.buried>
-2.5872

> <Gold.PLP.part.nonpolar>
-20.1287

> <Gold.PLP.part.repulsive>
0.5479

> <Gold.PLP.ligand.clash>
0.0000

> <Gold.PLP.ligand.torsion>
1.1176

> <Gold.PLP.Chemscore.Hbond>
4.0000

> <Gold.PLP.Chemscore.CHOScore>
0.0000

> <Gold.PLP.Chemscore.Metal>
0.0000

> <Gold.Chemscore.Hbonds>
donor molecule, donor type, donor heavy atom, donor atom, acceptor molecule, acceptor atom, score
      L1  H     6    27       P1  7948  1.00
      P1  H  7989  7998       L1    12  0.81
      P1  H 10752 10763       L1     9  2.00

> <Gold.PLP.Chemscore.Internal.Correction>
0.3082

> <Gold.Rescore>
     Score         DG    S(hbond)    S(metal)    S(lipo)     H(rot)  DE(clash)    DE(int)     intcor
     13.18     -14.37       2.40        0.00      44.37       1.69       0.04       1.15       ----

> <Gold.Chemscore.Fitness>
13.1771

> <Gold.Chemscore.DG>
-14.3685

> <Gold.Chemscore.ZeroCoef>
-5.4800

> <Gold.Chemscore.Hbond>
2.4037

> <Gold.Chemscore.Metal>
0.0000

> <Gold.Chemscore.Lipo>
44.3744

> <Gold.Chemscore.Internal_Hbond>
0.0000

> <Gold.Chemscore.DEClash>
0.0383

> <Gold.Chemscore.DEInternal>
1.1531

> <Gold.Chemscore.Rot>
1.6921

> <Gold.Chemscore.Internal.Correction>
   9.000000E+99

> <Gold.Chemscore.Hbonds>
donor molecule, donor type, donor heavy atom, donor atom, acceptor molecule, acceptor atom, score
      L1  H     6    27       P1  7948  0.47
      P1  H  7989  7998       L1    12  0.36
      P1  H 10752 10763       L1     9  0.94

> <Gold.Chemscore.Hbond.Weighted>
-8.0284

> <Gold.Chemscore.Metal.Weighted>
-0.0000

> <Gold.Chemscore.Lipo.Weighted>
-5.1918

> <Gold.Chemscore.Internal_Hbond.Weighted>
0.0000

> <Gold.Chemscore.DEClash.Weighted>
0.0383

> <Gold.Chemscore.DEInternal.Weighted>
1.1531

> <Gold.Chemscore.Rot.Weighted>
4.3317

> <Gold.Chemscore.Internal.Correction.Weighted>
   9.000000E+99

> <Gold.Protein.RotatedTorsions>
[ 6907 6896 6895 6894 ] final   -5.40 input  -60.11 | X-H torsion
[ 7974 7965 7964 7962 ] final  101.80 input  175.53 | X-H torsion
[ 8008 7997 7996 7995 ] final  -60.66 input   59.86 | X-H torsion
[ 10167 10162 10161 10158 ] final  -88.75 input  -65.29 | X-H torsion
[ 10718 10713 10712 10709 ] final  -62.77 input   66.30 | X-H torsion
[ 10763 10752 10751 10750 ] final   56.90 input  -60.55 | X-H torsion
[ 11005 11000 10999 10996 ] final  -69.84 input  -57.11 | X-H torsion

> <Gold.Protein.ActiveResidues>
 VAL166  LYS551  ARG553  GLY616  TRP617  ASP618  TYR619  PRO620  LYS621  CYS622 
 ASP623  PHE694  ASN695  SER759  ASP760  ASP761  ALA762  ILE779  LEU786  VAL792 
 PHE793  MET794  SER795  GLU796  ALA797  LYS798  CYS799  TRP800  GLU811  SER814 

> <Gold.Protein.RotatedAtoms>
  151.4823  135.1053  159.9780 H   0  0  0  0  0  0  0  0  0  0  0  0  # atno 6907 bound_to 6896
  152.4774  133.8168  159.7043 H   0  0  0  0  0  0  0  0  0  0  0  0  # atno 6908 bound_to 6896
  150.8822  133.7295  159.2955 H   0  0  0  0  0  0  0  0  0  0  0  0  # atno 6909 bound_to 6896
  145.3675  139.2405  143.3473 H   0  0  0  0  0  0  0  0  0  0  0  0  # atno 7974 bound_to 7965
  154.4409  140.1034  156.6309 H   0  0  0  0  0  0  0  0  0  0  0  0  # atno 8008 bound_to 7997
  155.5606  140.3487  155.4472 H   0  0  0  0  0  0  0  0  0  0  0  0  # atno 8009 bound_to 7997
  156.0462  140.1293  157.0090 H   0  0  0  0  0  0  0  0  0  0  0  0  # atno 8010 bound_to 7997
  140.3716  143.2791  151.9493 H   0  0  0  0  0  0  0  0  0  0  0  0  # atno 10167 bound_to 10162
  156.0834  130.4213  150.1182 H   0  0  0  0  0  0  0  0  0  0  0  0  # atno 10718 bound_to 10713
  152.9840  135.5660  154.5304 H   0  0  0  0  0  0  0  0  0  0  0  0  # atno 10763 bound_to 10752
  154.4777  135.2787  155.1597 H   0  0  0  0  0  0  0  0  0  0  0  0  # atno 10764 bound_to 10752
  154.3118  135.6286  153.5522 H   0  0  0  0  0  0  0  0  0  0  0  0  # atno 10765 bound_to 10752
  141.1562  133.6774  156.6660 H   0  0  0  0  0  0  0  0  0  0  0  0  # atno 11005 bound_to 11000
  146.2900  140.4320  142.8743 LP  0  0  0  0  0  0  0  0  0  0  0  0  # atno 17320 bound_to 7965
  144.8601  140.7126  143.6113 LP  0  0  0  0  0  0  0  0  0  0  0  0  # atno 17321 bound_to 7965
  139.4803  144.5901  151.7786 LP  0  0  0  0  0  0  0  0  0  0  0  0  # atno 17342 bound_to 10162
  140.5027  144.1144  150.5975 LP  0  0  0  0  0  0  0  0  0  0  0  0  # atno 17343 bound_to 10162
  156.9208  130.9682  151.3549 LP  0  0  0  0  0  0  0  0  0  0  0  0  # atno 17370 bound_to 10713
  157.5959  130.8477  149.8728 LP  0  0  0  0  0  0  0  0  0  0  0  0  # atno 17371 bound_to 10713
  140.3211  134.8007  157.4253 LP  0  0  0  0  0  0  0  0  0  0  0  0  # atno 17394 bound_to 11000
  140.1096  134.5363  155.8278 LP  0  0  0  0  0  0  0  0  0  0  0  0  # atno 17395 bound_to 11000

$$$$
