AV-unprocessed.smi:2549|AV-procd|sdf|10010|dock8
  -GOLD-   2272014 53D 1   1.00000     0.00000
 Structure written by MMmdl.
 17 18  0  0  0  0  0  0  0  0  1 V2000
  152.9981  141.8181  161.6561 C   0  0  0  0  0  0  0  0  0  0  0  0
  153.4258  141.9753  160.3686 C   0  0  0  0  0  0  0  0  0  0  0  0
  152.4310  142.7381  159.7937 N   0  0  0  0  0  0  0  0  0  0  0  0
  152.3925  143.2675  158.4624 C   0  0  0  0  0  0  0  0  0  0  0  0
  151.8988  144.6906  158.1882 C   0  0  0  0  0  0  0  0  0  0  0  0
  151.3330  144.1709  156.9549 N   0  0  0  0  0  0  0  0  0  0  0  0
  151.3087  142.8170  157.4815 C   0  0  0  0  0  0  0  0  0  0  0  0
  151.4747  143.0698  160.6930 N   0  0  0  0  0  0  0  0  0  0  0  0
  151.7944  142.5032  161.8144 N   0  0  0  0  0  0  0  0  0  0  0  0
  153.4558  141.2841  162.4759 H   0  0  0  0  0  0  0  0  0  0  0  0
  154.3020  141.6301  159.8396 H   0  0  0  0  0  0  0  0  0  0  0  0
  153.3892  143.1121  158.0436 H   0  0  0  0  0  0  0  0  0  0  0  0
  151.1287  145.0437  158.8758 H   0  0  0  0  0  0  0  0  0  0  0  0
  152.6947  145.4207  158.0393 H   0  0  0  0  0  0  0  0  0  0  0  0
  150.4067  144.5312  156.7746 H   0  0  0  0  0  0  0  0  0  0  0  0
  151.6347  142.0576  156.7704 H   0  0  0  0  0  0  0  0  0  0  0  0
  150.3518  142.5738  157.9462 H   0  0  0  0  0  0  0  0  0  0  0  0
  1  9  1  0  0  0  0
  1  2  2  0  0  0  0
  1 10  1  0  0  0  0
  2  3  1  0  0  0  0
  2 11  1  0  0  0  0
  3  4  1  0  0  0  0
  3  8  1  0  0  0  0
  4  7  1  0  0  0  0
  4  5  1  0  0  0  0
  4 12  1  0  0  0  0
  5  6  1  0  0  0  0
  5 13  1  0  0  0  0
  5 14  1  0  0  0  0
  6  7  1  0  0  0  0
  6 15  1  0  0  0  0
  7 16  1  0  0  0  0
  7 17  1  0  0  0  0
  8  9  2  0  0  0  0
M  END
> <s_m_source_file>
AV-unprocessed.smi

> <i_m_source_file_index>
2549

> <i_lp_mmshare_version>
43012

> <i_f3d_flags>
0

> <s_epik_input>
bjFuW2NIXVtjSF1uMVtDSF0yW0NIMl1bTkhdW0NIMl0y

> <s_epik_cmdline>
J2VwaWtfcHl0aG9uJywgJy1waCcsICc3LjAnLCAnLXRuJywgJzgnLCAnLW1hJywgJzIwMCcsICctbWV0YWxfYmluZGluZycsICctaW1hZScsICc8aW5maWxlLm1hZT4nLCAnLW9tYWUnLCAnPG91dGZpbGUubWFlPic=

> <r_lp_tautomer_probability>
1

> <r_epik_Ionization_Penalty>
0.704768

> <r_epik_Ionization_Penalty_Charging>
0

> <r_epik_Ionization_Penalty_Neutral>
0.704768

> <r_epik_State_Penalty>
0.727806

> <r_epik_Charging_Adjusted_Penalty>
0.727806

> <i_epik_Tot_Q>
0

> <i_epik_Tot_abs_Q>
0

> <r_epik_Metal_State_Penalty>
0.727802

> <b_epik_Metal_Only>
0

> <s_lp_Force_Field>
OPLS_2005

> <r_lp_Energy>
13.9584

> <b_lp_Chiralities_Consistent>
1

> <s_lp_Variant>
AV-unprocessed.smi:2549-2

> <Gold.Version>
5.8.1

> <Gold.Id.Protein>
6NUR|6NUR_protein|mol2

> <Gold.PLP.Fitness>
31.1459

> <Gold.PLP.PLP>
-26.8729

> <Gold.PLP.part.hbond>
-2.9492

> <Gold.PLP.part.metal>
0.0000

> <Gold.PLP.part.buried>
-4.5416

> <Gold.PLP.part.nonpolar>
-20.1466

> <Gold.PLP.part.repulsive>
0.2213

> <Gold.PLP.ligand.clash>
0.0000

> <Gold.PLP.ligand.torsion>
0.3436

> <Gold.PLP.Chemscore.Hbond>
1.5720

> <Gold.PLP.Chemscore.CHOScore>
0.0000

> <Gold.PLP.Chemscore.Metal>
0.0000

> <Gold.Chemscore.Hbonds>
donor molecule, donor type, donor heavy atom, donor atom, acceptor molecule, acceptor atom, score
      L1  H     6    15       P1  8028  1.00
      P1  H  6933  6945       L1     9  0.71

> <Gold.PLP.Chemscore.Internal.Correction>
0.2443

> <Gold.Rescore>
     Score         DG    S(hbond)    S(metal)    S(lipo)     H(rot)  DE(clash)    DE(int)     intcor
     13.62     -14.19       1.36        0.00      57.45       1.00       0.04       0.53       ----

> <Gold.Chemscore.Fitness>
13.6231

> <Gold.Chemscore.DG>
-14.1945

> <Gold.Chemscore.ZeroCoef>
-5.4800

> <Gold.Chemscore.Hbond>
1.3631

> <Gold.Chemscore.Metal>
0.0000

> <Gold.Chemscore.Lipo>
57.4513

> <Gold.Chemscore.Internal_Hbond>
0.0000

> <Gold.Chemscore.DEClash>
0.0432

> <Gold.Chemscore.DEInternal>
0.5282

> <Gold.Chemscore.Rot>
1.0000

> <Gold.Chemscore.Internal.Correction>
   9.000000E+99

> <Gold.Chemscore.Hbonds>
donor molecule, donor type, donor heavy atom, donor atom, acceptor molecule, acceptor atom, score
      L1  H     6    15       P1  8028  0.87
      P1  H  6933  6945       L1     9  0.14

> <Gold.Chemscore.Hbond.Weighted>
-4.5527

> <Gold.Chemscore.Metal.Weighted>
-0.0000

> <Gold.Chemscore.Lipo.Weighted>
-6.7218

> <Gold.Chemscore.Internal_Hbond.Weighted>
0.0000

> <Gold.Chemscore.DEClash.Weighted>
0.0432

> <Gold.Chemscore.DEInternal.Weighted>
0.5282

> <Gold.Chemscore.Rot.Weighted>
2.5600

> <Gold.Chemscore.Internal.Correction.Weighted>
   9.000000E+99

> <Gold.Protein.RotatedTorsions>
[ 6907 6896 6895 6894 ] final -133.36 input  -60.11 | X-H torsion
[ 7974 7965 7964 7962 ] final  -10.91 input  175.53 | X-H torsion
[ 8008 7997 7996 7995 ] final   77.63 input   59.86 | X-H torsion
[ 10167 10162 10161 10158 ] final  108.70 input  -65.29 | X-H torsion
[ 10718 10713 10712 10709 ] final   27.31 input   66.30 | X-H torsion
[ 10763 10752 10751 10750 ] final    7.01 input  -60.55 | X-H torsion
[ 11005 11000 10999 10996 ] final   38.10 input  -57.11 | X-H torsion

> <Gold.Protein.ActiveResidues>
 VAL166  LYS551  ARG553  GLY616  TRP617  ASP618  TYR619  PRO620  LYS621  CYS622 
 ASP623  PHE694  ASN695  SER759  ASP760  ASP761  ALA762  ILE779  LEU786  VAL792 
 PHE793  MET794  SER795  GLU796  ALA797  LYS798  CYS799  TRP800  GLU811  SER814 

> <Gold.Protein.RotatedAtoms>
  150.9731  133.6323  159.2734 H   0  0  0  0  0  0  0  0  0  0  0  0  # atno 6907 bound_to 6896
  151.3605  135.0902  159.9442 H   0  0  0  0  0  0  0  0  0  0  0  0  # atno 6908 bound_to 6896
  152.5190  133.9305  159.7633 H   0  0  0  0  0  0  0  0  0  0  0  0  # atno 6909 bound_to 6896
  146.2205  140.2833  142.8363 H   0  0  0  0  0  0  0  0  0  0  0  0  # atno 7974 bound_to 7965
  155.8444  140.3461  155.5652 H   0  0  0  0  0  0  0  0  0  0  0  0  # atno 8008 bound_to 7997
  155.8106  140.0898  157.1925 H   0  0  0  0  0  0  0  0  0  0  0  0  # atno 8009 bound_to 7997
  154.4006  140.1448  156.3370 H   0  0  0  0  0  0  0  0  0  0  0  0  # atno 8010 bound_to 7997
  139.6825  144.7117  151.1490 H   0  0  0  0  0  0  0  0  0  0  0  0  # atno 10167 bound_to 10162
  157.2185  130.6967  149.6259 H   0  0  0  0  0  0  0  0  0  0  0  0  # atno 10718 bound_to 10713
  153.2412  135.6903  153.7781 H   0  0  0  0  0  0  0  0  0  0  0  0  # atno 10763 bound_to 10752
  153.6910  135.3313  155.3203 H   0  0  0  0  0  0  0  0  0  0  0  0  # atno 10764 bound_to 10752
  154.8356  135.4545  154.1334 H   0  0  0  0  0  0  0  0  0  0  0  0  # atno 10765 bound_to 10752
  140.2160  134.3698  155.8027 H   0  0  0  0  0  0  0  0  0  0  0  0  # atno 11005 bound_to 11000
  144.9181  140.7836  143.5765 LP  0  0  0  0  0  0  0  0  0  0  0  0  # atno 17320 bound_to 7965
  145.2768  139.1933  143.4812 LP  0  0  0  0  0  0  0  0  0  0  0  0  # atno 17321 bound_to 7965
  140.7657  143.5678  150.9029 LP  0  0  0  0  0  0  0  0  0  0  0  0  # atno 17342 bound_to 10162
  139.9351  143.6448  152.3067 LP  0  0  0  0  0  0  0  0  0  0  0  0  # atno 17343 bound_to 10162
  155.9684  130.4528  150.5786 LP  0  0  0  0  0  0  0  0  0  0  0  0  # atno 17370 bound_to 10713
  157.3600  131.0748  151.1644 LP  0  0  0  0  0  0  0  0  0  0  0  0  # atno 17371 bound_to 10713
  141.2225  133.7168  156.8496 LP  0  0  0  0  0  0  0  0  0  0  0  0  # atno 17394 bound_to 11000
  140.1900  134.8972  157.3049 LP  0  0  0  0  0  0  0  0  0  0  0  0  # atno 17395 bound_to 11000

$$$$
