AV-unprocessed.smi:1129|AV-procd|sdf|4846|dock2
  -GOLD-   22720 3413D 1   1.00000     0.00000
 Structure written by MMmdl.
 40 41  0  0  0  0  0  0  0  0  1 V2000
  150.6886  144.5531  159.3368 C   0  0  0  0  0  0  0  0  0  0  0  0
  150.6772  143.1695  159.0319 O   0  0  0  0  0  0  0  0  0  0  0  0
  151.1948  142.8934  157.7413 C   0  0  0  0  0  0  0  0  0  0  0  0
  151.1190  141.3860  157.4838 C   0  0  0  0  0  0  0  0  0  0  0  0
  150.9571  141.1690  156.0853 O   0  0  0  0  0  0  0  0  0  0  0  0
  150.7629  139.8787  155.6366 C   0  0  0  0  0  0  0  0  0  0  0  0
  150.9540  138.8157  156.5411 C   0  0  0  0  0  0  0  0  0  0  0  0
  150.7542  137.4976  156.0897 C   0  0  0  0  0  0  0  0  0  0  0  0
  150.3603  137.2791  154.7542 C   0  0  0  0  0  0  0  0  0  0  0  0
  150.1782  135.9363  154.3256 N   0  0  0  0  0  0  0  0  0  0  0  0
  150.4449  134.7970  154.9910 C   0  0  0  0  0  0  0  0  0  0  0  0
  150.9166  134.7455  156.1267 O   0  0  0  0  0  0  0  0  0  0  0  0
  150.1451  133.4963  154.2323 C   0  0  2  0  0  0  0  0  0  0  0  0
  148.6798  133.4488  153.7692 C   0  0  0  0  0  0  0  0  0  0  0  0
  148.4005  132.1747  152.9559 C   0  0  0  0  0  0  0  0  0  0  0  0
  148.9601  130.9007  153.6064 C   0  0  0  0  0  0  0  0  0  0  0  0
  148.5397  129.8036  153.2468 O   0  0  0  0  0  0  0  0  0  0  0  0
  149.9283  131.0127  154.5328 N   0  0  0  0  0  0  0  0  0  0  0  0
  150.4437  132.2572  155.1038 C   0  0  0  0  0  0  0  0  0  0  0  0
  150.2083  138.4128  153.9190 C   0  0  0  0  0  0  0  0  0  0  0  0
  150.4004  139.6793  154.3455 N   0  0  0  0  0  0  0  0  0  0  0  0
  150.2648  144.7136  160.3281 H   0  0  0  0  0  0  0  0  0  0  0  0
  150.0933  145.1210  158.6204 H   0  0  0  0  0  0  0  0  0  0  0  0
  151.7055  144.9475  159.3379 H   0  0  0  0  0  0  0  0  0  0  0  0
  150.6198  143.4305  156.9856 H   0  0  0  0  0  0  0  0  0  0  0  0
  152.2299  143.2312  157.6710 H   0  0  0  0  0  0  0  0  0  0  0  0
  152.0325  140.9067  157.8398 H   0  0  0  0  0  0  0  0  0  0  0  0
  150.2771  140.9617  158.0335 H   0  0  0  0  0  0  0  0  0  0  0  0
  151.2485  139.0080  157.5622 H   0  0  0  0  0  0  0  0  0  0  0  0
  150.8970  136.6667  156.7653 H   0  0  0  0  0  0  0  0  0  0  0  0
  149.8639  135.8257  153.3724 H   0  0  0  0  0  0  0  0  0  0  0  0
  150.7808  133.4544  153.3455 H   0  0  0  0  0  0  0  0  0  0  0  0
  148.0095  133.4820  154.6300 H   0  0  0  0  0  0  0  0  0  0  0  0
  148.4450  134.3249  153.1630 H   0  0  0  0  0  0  0  0  0  0  0  0
  147.3277  132.0611  152.7952 H   0  0  0  0  0  0  0  0  0  0  0  0
  148.8552  132.2662  151.9690 H   0  0  0  0  0  0  0  0  0  0  0  0
  150.2990  130.1563  154.9186 H   0  0  0  0  0  0  0  0  0  0  0  0
  151.5189  132.1526  155.2519 H   0  0  0  0  0  0  0  0  0  0  0  0
  150.0016  132.3648  156.0955 H   0  0  0  0  0  0  0  0  0  0  0  0
  149.9467  138.3256  152.8763 H   0  0  0  0  0  0  0  0  0  0  0  0
  1  2  1  0  0  0  0
  1 22  1  0  0  0  0
  1 23  1  0  0  0  0
  1 24  1  0  0  0  0
  2  3  1  0  0  0  0
  3  4  1  0  0  0  0
  3 25  1  0  0  0  0
  3 26  1  0  0  0  0
  4  5  1  0  0  0  0
  4 27  1  0  0  0  0
  4 28  1  0  0  0  0
  5  6  1  0  0  0  0
  6 21  1  0  0  0  0
  6  7  2  0  0  0  0
  7  8  1  0  0  0  0
  7 29  1  0  0  0  0
  8  9  2  0  0  0  0
  8 30  1  0  0  0  0
  9 10  1  0  0  0  0
  9 20  1  0  0  0  0
 10 11  1  0  0  0  0
 10 31  1  0  0  0  0
 11 12  2  0  0  0  0
 11 13  1  0  0  0  0
 13 19  1  0  0  0  0
 13 14  1  0  0  0  0
 13 32  1  0  0  0  0
 14 15  1  0  0  0  0
 14 33  1  0  0  0  0
 14 34  1  0  0  0  0
 15 16  1  0  0  0  0
 15 35  1  0  0  0  0
 15 36  1  0  0  0  0
 16 17  2  0  0  0  0
 16 18  1  0  0  0  0
 18 19  1  0  0  0  0
 18 37  1  0  0  0  0
 19 38  1  0  0  0  0
 19 39  1  0  0  0  0
 20 21  2  0  0  0  0
 20 40  1  0  0  0  0
M  END
> <s_m_source_file>
AV-unprocessed.smi

> <i_m_source_file_index>
1129

> <i_lp_mmshare_version>
43012

> <i_f3d_flags>
0

> <s_epik_input>
W0NIM11PW0NIMl1bQ0gyXU9jMVtjSF1bY0hdYyhbY0hdbjEpW05IXUMoPU8pW0NAQEhdMltDSDJdW0NIMl1DKD1PKVtOSF1bQ0gyXTI=

> <s_epik_cmdline>
J2VwaWtfcHl0aG9uJywgJy1waCcsICc3LjAnLCAnLXRuJywgJzgnLCAnLW1hJywgJzIwMCcsICctbWV0YWxfYmluZGluZycsICctaW1hZScsICc8aW5maWxlLm1hZT4nLCAnLW9tYWUnLCAnPG91dGZpbGUubWFlPic=

> <r_lp_tautomer_probability>
1

> <r_epik_Ionization_Penalty>
1.79985e-05

> <r_epik_Ionization_Penalty_Charging>
0

> <r_epik_Ionization_Penalty_Neutral>
1.79985e-05

> <r_epik_State_Penalty>
-0

> <r_epik_Charging_Adjusted_Penalty>
0

> <i_epik_Tot_Q>
0

> <i_epik_Tot_abs_Q>
0

> <r_epik_Metal_State_Penalty>
-0

> <b_epik_Metal_Only>
0

> <s_lp_Force_Field>
OPLS_2005

> <r_lp_Energy>
17.0479

> <b_lp_Chiralities_Consistent>
1

> <s_lp_Variant>
AV-unprocessed.smi:1129-1

> <Gold.Version>
5.8.1

> <Gold.Id.Protein>
6NUR|6NUR_protein|mol2

> <Gold.PLP.Fitness>
42.9554

> <Gold.PLP.PLP>
-32.5174

> <Gold.PLP.part.hbond>
-2.7138

> <Gold.PLP.part.metal>
0.0000

> <Gold.PLP.part.buried>
-5.8273

> <Gold.PLP.part.nonpolar>
-25.3497

> <Gold.PLP.part.repulsive>
0.3685

> <Gold.PLP.ligand.clash>
0.2652

> <Gold.PLP.ligand.torsion>
0.3275

> <Gold.PLP.Chemscore.Hbond>
1.8500

> <Gold.PLP.Chemscore.CHOScore>
1.8899

> <Gold.PLP.Chemscore.Metal>
0.0000

> <Gold.Chemscore.Hbonds>
donor molecule, donor type, donor heavy atom, donor atom, acceptor molecule, acceptor atom, score
      L1  H    10    31       P1  7948  0.50
      P1  H  7989  7998       L1    21  1.00
      L1  C    20    40       P1  7948  0.88
      L1  C    20    40       P1  7957  1.00

> <Gold.PLP.Chemscore.Internal.Correction>
0.1383

> <Gold.Rescore>
     Score         DG    S(hbond)    S(metal)    S(lipo)     H(rot)  DE(clash)    DE(int)     intcor
     12.09     -13.96       1.68        0.00      68.99       2.03       0.17       1.71       ----

> <Gold.Chemscore.Fitness>
12.0853

> <Gold.Chemscore.DG>
-13.9647

> <Gold.Chemscore.ZeroCoef>
-5.4800

> <Gold.Chemscore.Hbond>
1.6759

> <Gold.Chemscore.Metal>
0.0000

> <Gold.Chemscore.Lipo>
68.9943

> <Gold.Chemscore.Internal_Hbond>
0.0000

> <Gold.Chemscore.DEClash>
0.1701

> <Gold.Chemscore.DEInternal>
1.7093

> <Gold.Chemscore.Rot>
2.0255

> <Gold.Chemscore.Internal.Correction>
   9.000000E+99

> <Gold.Chemscore.Hbonds>
donor molecule, donor type, donor heavy atom, donor atom, acceptor molecule, acceptor atom, score
      L1  H    10    31       P1  7948  0.02
      P1  H  7989  7998       L1    21  0.25

> <Gold.Chemscore.Hbond.Weighted>
-5.5976

> <Gold.Chemscore.Metal.Weighted>
-0.0000

> <Gold.Chemscore.Lipo.Weighted>
-8.0723

> <Gold.Chemscore.Internal_Hbond.Weighted>
0.0000

> <Gold.Chemscore.DEClash.Weighted>
0.1701

> <Gold.Chemscore.DEInternal.Weighted>
1.7093

> <Gold.Chemscore.Rot.Weighted>
5.1853

> <Gold.Chemscore.Internal.Correction.Weighted>
   9.000000E+99

> <Gold.Protein.RotatedTorsions>
[ 6907 6896 6895 6894 ] final -161.91 input  -60.11 | X-H torsion
[ 7974 7965 7964 7962 ] final   -4.19 input  175.53 | X-H torsion
[ 8008 7997 7996 7995 ] final  -63.85 input   59.86 | X-H torsion
[ 10167 10162 10161 10158 ] final  120.58 input  -65.29 | X-H torsion
[ 10718 10713 10712 10709 ] final -105.52 input   66.30 | X-H torsion
[ 10763 10752 10751 10750 ] final  -30.05 input  -60.55 | X-H torsion
[ 11005 11000 10999 10996 ] final   80.81 input  -57.11 | X-H torsion

> <Gold.Protein.ActiveResidues>
 VAL166  LYS551  ARG553  GLY616  TRP617  ASP618  TYR619  PRO620  LYS621  CYS622 
 ASP623  PHE694  ASN695  SER759  ASP760  ASP761  ALA762  ILE779  LEU786  VAL792 
 PHE793  MET794  SER795  GLU796  ALA797  LYS798  CYS799  TRP800  GLU811  SER814 

> <Gold.Protein.RotatedAtoms>
  151.3720  133.3851  159.2700 H   0  0  0  0  0  0  0  0  0  0  0  0  # atno 6907 bound_to 6896
  150.9643  134.9027  159.7760 H   0  0  0  0  0  0  0  0  0  0  0  0  # atno 6908 bound_to 6896
  152.5161  134.3680  159.9360 H   0  0  0  0  0  0  0  0  0  0  0  0  # atno 6909 bound_to 6896
  146.2377  140.1833  142.8332 H   0  0  0  0  0  0  0  0  0  0  0  0  # atno 7974 bound_to 7965
  154.4578  140.0966  156.6806 H   0  0  0  0  0  0  0  0  0  0  0  0  # atno 8008 bound_to 7997
  155.5087  140.3475  155.4366 H   0  0  0  0  0  0  0  0  0  0  0  0  # atno 8009 bound_to 7997
  156.0811  140.1373  156.9700 H   0  0  0  0  0  0  0  0  0  0  0  0  # atno 8010 bound_to 7997
  139.5973  144.7046  151.3145 H   0  0  0  0  0  0  0  0  0  0  0  0  # atno 10167 bound_to 10162
  156.0350  130.5568  150.7551 H   0  0  0  0  0  0  0  0  0  0  0  0  # atno 10718 bound_to 10713
  153.7746  135.6910  153.4900 H   0  0  0  0  0  0  0  0  0  0  0  0  # atno 10763 bound_to 10752
  153.1852  135.4491  155.0078 H   0  0  0  0  0  0  0  0  0  0  0  0  # atno 10764 bound_to 10752
  154.8105  135.3375  154.7253 H   0  0  0  0  0  0  0  0  0  0  0  0  # atno 10765 bound_to 10752
  139.9121  134.7949  156.1959 H   0  0  0  0  0  0  0  0  0  0  0  0  # atno 11005 bound_to 11000
  144.9916  140.8552  143.5336 LP  0  0  0  0  0  0  0  0  0  0  0  0  # atno 17320 bound_to 7965
  145.1840  139.2336  143.5277 LP  0  0  0  0  0  0  0  0  0  0  0  0  # atno 17321 bound_to 7965
  140.7222  143.7104  150.7774 LP  0  0  0  0  0  0  0  0  0  0  0  0  # atno 17342 bound_to 10162
  140.0673  143.5096  152.2598 LP  0  0  0  0  0  0  0  0  0  0  0  0  # atno 17343 bound_to 10162
  157.5085  131.0924  151.0227 LP  0  0  0  0  0  0  0  0  0  0  0  0  # atno 17370 bound_to 10713
  157.0589  130.5817  149.5382 LP  0  0  0  0  0  0  0  0  0  0  0  0  # atno 17371 bound_to 10713
  141.0555  133.6867  156.1852 LP  0  0  0  0  0  0  0  0  0  0  0  0  # atno 17394 bound_to 11000
  140.6743  134.4834  157.5588 LP  0  0  0  0  0  0  0  0  0  0  0  0  # atno 17395 bound_to 11000

$$$$
