AV-unprocessed.smi:3343|AV-procd|sdf|12893|dock6
  -GOLD-   2272019303D 1   1.00000     0.00000
 Structure written by MMmdl.
 41 42  0  0  0  0  0  0  0  0  1 V2000
  147.8107  140.2550  155.7082 C   0  0  0  0  0  0  0  0  0  0  0  0
  148.9668  139.7091  156.5708 C   0  0  2  0  0  0  0  0  0  0  0  0
  149.1605  140.4884  157.8820 C   0  0  0  0  0  0  0  0  0  0  0  0
  149.8616  140.0378  158.7887 O   0  0  0  0  0  0  0  0  0  0  0  0
  148.5011  141.6534  157.9734 N   0  0  0  0  0  0  0  0  0  0  0  0
  148.3815  142.4620  159.1800 C   0  0  0  0  0  0  0  0  0  0  0  0
  149.7553  143.0136  159.6033 C   0  0  0  0  0  0  0  0  0  0  0  0
  150.7078  142.0189  160.0996 N   0  0  0  0  0  0  0  0  0  0  0  0
  151.9348  142.0333  159.3009 C   0  0  0  0  0  0  0  0  0  0  0  0
  152.9502  140.9858  159.7941 C   0  0  0  0  0  0  0  0  0  0  0  0
  153.3083  141.2119  161.1923 N   0  0  0  0  0  0  0  0  0  0  0  0
  154.2771  140.2336  161.6621 C   0  0  0  0  0  0  0  0  0  0  0  0
  152.0913  141.1924  161.9995 C   0  0  0  0  0  0  0  0  0  0  0  0
  151.0706  142.2332  161.5047 C   0  0  0  0  0  0  0  0  0  0  0  0
  150.2247  139.6589  155.8328 N   0  0  0  0  0  0  0  0  0  0  0  0
  151.4754  139.5155  156.2773 C   0  0  0  0  0  0  0  0  0  0  0  0
  152.3965  139.5791  155.3259 N   0  0  0  0  0  0  0  0  0  0  0  0
  151.5909  139.7847  154.2422 C   0  0  0  0  0  0  0  0  0  0  0  0
  150.2832  139.8509  154.4909 N   0  0  0  0  0  0  0  0  0  0  0  0
  146.8669  140.2287  156.2534 H   0  0  0  0  0  0  0  0  0  0  0  0
  147.6829  139.6551  154.8067 H   0  0  0  0  0  0  0  0  0  0  0  0
  147.9834  141.2859  155.3960 H   0  0  0  0  0  0  0  0  0  0  0  0
  148.7126  138.6832  156.8425 H   0  0  0  0  0  0  0  0  0  0  0  0
  147.9633  141.9544  157.1740 H   0  0  0  0  0  0  0  0  0  0  0  0
  147.6617  143.2749  159.0681 H   0  0  0  0  0  0  0  0  0  0  0  0
  147.9960  141.8110  159.9654 H   0  0  0  0  0  0  0  0  0  0  0  0
  150.1912  143.4810  158.7194 H   0  0  0  0  0  0  0  0  0  0  0  0
  149.6342  143.8199  160.3289 H   0  0  0  0  0  0  0  0  0  0  0  0
  151.6964  141.8337  158.2556 H   0  0  0  0  0  0  0  0  0  0  0  0
  152.3897  143.0246  159.3328 H   0  0  0  0  0  0  0  0  0  0  0  0
  152.5340  139.9846  159.6706 H   0  0  0  0  0  0  0  0  0  0  0  0
  153.8455  141.0307  159.1731 H   0  0  0  0  0  0  0  0  0  0  0  0
  154.5500  140.4293  162.6994 H   0  0  0  0  0  0  0  0  0  0  0  0
  155.1886  140.2755  161.0650 H   0  0  0  0  0  0  0  0  0  0  0  0
  153.8767  139.2208  161.6011 H   0  0  0  0  0  0  0  0  0  0  0  0
  151.6408  140.1988  161.9748 H   0  0  0  0  0  0  0  0  0  0  0  0
  152.3373  141.3976  163.0421 H   0  0  0  0  0  0  0  0  0  0  0  0
  151.4741  143.2380  161.6394 H   0  0  0  0  0  0  0  0  0  0  0  0
  150.1862  142.1609  162.1353 H   0  0  0  0  0  0  0  0  0  0  0  0
  151.7182  139.3729  157.3202 H   0  0  0  0  0  0  0  0  0  0  0  0
  151.9801  139.8972  153.2409 H   0  0  0  0  0  0  0  0  0  0  0  0
  1  2  1  0  0  0  0
  1 20  1  0  0  0  0
  1 21  1  0  0  0  0
  1 22  1  0  0  0  0
  2  3  1  0  0  0  0
  2 15  1  0  0  0  0
  2 23  1  0  0  0  0
  3  4  2  0  0  0  0
  3  5  1  0  0  0  0
  5  6  1  0  0  0  0
  5 24  1  0  0  0  0
  6  7  1  0  0  0  0
  6 25  1  0  0  0  0
  6 26  1  0  0  0  0
  7  8  1  0  0  0  0
  7 27  1  0  0  0  0
  7 28  1  0  0  0  0
  8 14  1  0  0  0  0
  8  9  1  0  0  0  0
  9 10  1  0  0  0  0
  9 29  1  0  0  0  0
  9 30  1  0  0  0  0
 10 11  1  0  0  0  0
 10 31  1  0  0  0  0
 10 32  1  0  0  0  0
 11 12  1  0  0  0  0
 11 13  1  0  0  0  0
 12 33  1  0  0  0  0
 12 34  1  0  0  0  0
 12 35  1  0  0  0  0
 13 14  1  0  0  0  0
 13 36  1  0  0  0  0
 13 37  1  0  0  0  0
 14 38  1  0  0  0  0
 14 39  1  0  0  0  0
 15 19  1  0  0  0  0
 15 16  1  0  0  0  0
 16 17  2  0  0  0  0
 16 40  1  0  0  0  0
 17 18  1  0  0  0  0
 18 19  2  0  0  0  0
 18 41  1  0  0  0  0
M  END
> <s_m_source_file>
AV-unprocessed.smi

> <i_m_source_file_index>
3343

> <i_lp_mmshare_version>
43012

> <i_f3d_flags>
0

> <s_epik_input>
bjFbY0hdbltjSF1uMVtDQEhdKFtDSDNdKUMoPU8pW05IXVtDSDJdW0NIMl1OMltDSDJdW0NIMl1OKFtDSDNdKVtDSDJdW0NIMl0y

> <s_epik_cmdline>
J2VwaWtfcHl0aG9uJywgJy1waCcsICc3LjAnLCAnLXRuJywgJzgnLCAnLW1hJywgJzIwMCcsICctbWV0YWxfYmluZGluZycsICctaW1hZScsICc8aW5maWxlLm1hZT4nLCAnLW9tYWUnLCAnPG91dGZpbGUubWFlPic=

> <r_lp_tautomer_probability>
1

> <r_epik_Ionization_Penalty>
1.97295

> <r_epik_Ionization_Penalty_Charging>
0

> <r_epik_Ionization_Penalty_Neutral>
1.97295

> <r_epik_State_Penalty>
1.8027

> <r_epik_Charging_Adjusted_Penalty>
1.8027

> <i_epik_Tot_Q>
0

> <i_epik_Tot_abs_Q>
0

> <r_epik_Metal_State_Penalty>
1.8027

> <b_epik_Metal_Only>
0

> <s_lp_Force_Field>
OPLS_2005

> <r_lp_Energy>
39.2202

> <b_lp_Chiralities_Consistent>
1

> <s_lp_Variant>
AV-unprocessed.smi:3343-3

> <Gold.Version>
5.8.1

> <Gold.Id.Protein>
6NUR|6NUR_protein|mol2

> <Gold.PLP.Fitness>
46.4184

> <Gold.PLP.PLP>
-40.5514

> <Gold.PLP.part.hbond>
-4.3263

> <Gold.PLP.part.metal>
0.0000

> <Gold.PLP.part.buried>
-3.6495

> <Gold.PLP.part.nonpolar>
-32.8957

> <Gold.PLP.part.repulsive>
0.0693

> <Gold.PLP.ligand.clash>
0.0000

> <Gold.PLP.ligand.torsion>
1.4024

> <Gold.PLP.Chemscore.Hbond>
2.8480

> <Gold.PLP.Chemscore.CHOScore>
0.0000

> <Gold.PLP.Chemscore.Metal>
0.0000

> <Gold.Chemscore.Hbonds>
donor molecule, donor type, donor heavy atom, donor atom, acceptor molecule, acceptor atom, score
      P1  H  7997  8008       L1    17  0.59

> <Gold.PLP.Chemscore.Internal.Correction>
0.1277

> <Gold.Rescore>
     Score         DG    S(hbond)    S(metal)    S(lipo)     H(rot)  DE(clash)    DE(int)     intcor
     10.60     -12.81       1.04        0.00      89.07       2.56       0.10       2.11       ----

> <Gold.Chemscore.Fitness>
10.6000

> <Gold.Chemscore.DG>
-12.8122

> <Gold.Chemscore.ZeroCoef>
-5.4800

> <Gold.Chemscore.Hbond>
1.0357

> <Gold.Chemscore.Metal>
0.0000

> <Gold.Chemscore.Lipo>
89.0653

> <Gold.Chemscore.Internal_Hbond>
0.0000

> <Gold.Chemscore.DEClash>
0.1013

> <Gold.Chemscore.DEInternal>
2.1109

> <Gold.Chemscore.Rot>
2.5577

> <Gold.Chemscore.Internal.Correction>
   9.000000E+99

> <Gold.Chemscore.Hbonds>
donor molecule, donor type, donor heavy atom, donor atom, acceptor molecule, acceptor atom, score
      P1  H  7997  8008       L1    17  0.48

> <Gold.Chemscore.Hbond.Weighted>
-3.4592

> <Gold.Chemscore.Metal.Weighted>
-0.0000

> <Gold.Chemscore.Lipo.Weighted>
-10.4206

> <Gold.Chemscore.Internal_Hbond.Weighted>
0.0000

> <Gold.Chemscore.DEClash.Weighted>
0.1013

> <Gold.Chemscore.DEInternal.Weighted>
2.1109

> <Gold.Chemscore.Rot.Weighted>
6.5477

> <Gold.Chemscore.Internal.Correction.Weighted>
   9.000000E+99

> <Gold.Protein.RotatedTorsions>
[ 6907 6896 6895 6894 ] final   77.72 input  -60.11 | X-H torsion
[ 7974 7965 7964 7962 ] final   47.19 input  175.53 | X-H torsion
[ 8008 7997 7996 7995 ] final  -30.79 input   59.86 | X-H torsion
[ 10167 10162 10161 10158 ] final  132.52 input  -65.29 | X-H torsion
[ 10718 10713 10712 10709 ] final  145.42 input   66.30 | X-H torsion
[ 10763 10752 10751 10750 ] final -178.73 input  -60.55 | X-H torsion
[ 11005 11000 10999 10996 ] final   12.24 input  -57.11 | X-H torsion

> <Gold.Protein.ActiveResidues>
 VAL166  LYS551  ARG553  GLY616  TRP617  ASP618  TYR619  PRO620  LYS621  CYS622 
 ASP623  PHE694  ASN695  SER759  ASP760  ASP761  ALA762  ILE779  LEU786  VAL792 
 PHE793  MET794  SER795  GLU796  ALA797  LYS798  CYS799  TRP800  GLU811  SER814 

> <Gold.Protein.RotatedAtoms>
  152.5130  134.3773  159.9338 H   0  0  0  0  0  0  0  0  0  0  0  0  # atno 6907 bound_to 6896
  151.3729  133.3842  159.2709 H   0  0  0  0  0  0  0  0  0  0  0  0  # atno 6908 bound_to 6896
  150.9564  134.8977  159.7762 H   0  0  0  0  0  0  0  0  0  0  0  0  # atno 6909 bound_to 6896
  146.0321  139.4775  142.9831 H   0  0  0  0  0  0  0  0  0  0  0  0  # atno 7974 bound_to 7965
  154.4237  140.1781  156.1464 H   0  0  0  0  0  0  0  0  0  0  0  0  # atno 8008 bound_to 7997
  155.9950  140.3365  155.6765 H   0  0  0  0  0  0  0  0  0  0  0  0  # atno 8009 bound_to 7997
  155.6320  140.0671  157.2636 H   0  0  0  0  0  0  0  0  0  0  0  0  # atno 8010 bound_to 7997
  139.5336  144.6658  151.4864 H   0  0  0  0  0  0  0  0  0  0  0  0  # atno 10167 bound_to 10162
  157.3455  131.0942  151.1045 H   0  0  0  0  0  0  0  0  0  0  0  0  # atno 10718 bound_to 10713
  154.5440  135.2808  155.1070 H   0  0  0  0  0  0  0  0  0  0  0  0  # atno 10763 bound_to 10752
  154.2541  135.6334  153.5254 H   0  0  0  0  0  0  0  0  0  0  0  0  # atno 10764 bound_to 10752
  152.9986  135.5590  154.5987 H   0  0  0  0  0  0  0  0  0  0  0  0  # atno 10765 bound_to 10752
  140.4941  134.0810  155.7778 H   0  0  0  0  0  0  0  0  0  0  0  0  # atno 11005 bound_to 11000
  145.7024  141.0132  143.1497 LP  0  0  0  0  0  0  0  0  0  0  0  0  # atno 17320 bound_to 7965
  144.7035  139.8660  143.7437 LP  0  0  0  0  0  0  0  0  0  0  0  0  # atno 17321 bound_to 7965
  140.6529  143.8659  150.6804 LP  0  0  0  0  0  0  0  0  0  0  0  0  # atno 17342 bound_to 10162
  140.2030  143.3944  152.1777 LP  0  0  0  0  0  0  0  0  0  0  0  0  # atno 17343 bound_to 10162
  157.2241  130.6495  149.5823 LP  0  0  0  0  0  0  0  0  0  0  0  0  # atno 17370 bound_to 10713
  155.9714  130.4620  150.6129 LP  0  0  0  0  0  0  0  0  0  0  0  0  # atno 17371 bound_to 10713
  141.1469  133.9039  157.2194 LP  0  0  0  0  0  0  0  0  0  0  0  0  # atno 17394 bound_to 11000
  139.9751  135.0116  156.9611 LP  0  0  0  0  0  0  0  0  0  0  0  0  # atno 17395 bound_to 11000

$$$$
