AV-unprocessed.smi:198|AV-procd|sdf|1553|dock10
  -GOLD-   2262019423D 1   1.00000     0.00000
 Structure written by MMmdl.
 59 63  0  0  0  0  0  0  0  0  2 V2000
  150.7068  138.2878  155.1817 C   0  0  0  0  0  0  0  0  0  0  0  0
  150.5868  139.4775  156.0565 N   0  3  2  0  0  0  0  0  0  0  0  0
  149.8933  139.2082  157.3413 C   0  0  0  0  0  0  0  0  0  0  0  0
  148.3750  139.0519  157.1522 C   0  0  0  0  0  0  0  0  0  0  0  0
  147.7736  140.2867  156.4436 C   0  0  1  0  0  0  0  0  0  0  0  0
  148.5229  140.5793  155.1219 C   0  0  1  0  0  0  0  0  0  0  0  0
  147.9747  141.8718  154.4871 C   0  0  0  0  0  0  0  0  0  0  0  0
  146.4537  141.7848  154.2877 C   0  0  0  0  0  0  0  0  0  0  0  0
  145.7359  141.4054  155.5992 C   0  0  0  0  0  0  0  0  0  0  0  0
  146.3209  140.2209  156.2299 N   0  0  0  0  0  0  0  0  0  0  0  0
  145.7860  139.0311  155.8632 C   0  0  0  0  0  0  0  0  0  0  0  0
  145.0856  138.2890  156.7594 N   0  0  0  0  0  0  0  0  0  0  0  0
  144.5350  137.1306  156.3845 C   0  0  0  0  0  0  0  0  0  0  0  0
  144.5594  136.5444  155.1854 N   0  0  0  0  0  0  0  0  0  0  0  0
  145.2651  137.2865  154.2841 C   0  0  0  0  0  0  0  0  0  0  0  0
  145.9045  138.5313  154.5391 C   0  0  0  0  0  0  0  0  0  0  0  0
  146.5132  139.0010  153.3831 N   0  0  0  0  0  0  0  0  0  0  0  0
  146.2440  138.0867  152.4913 C   0  0  0  0  0  0  0  0  0  0  0  0
  145.5102  137.0134  152.9492 N   0  0  0  0  0  0  0  0  0  0  0  0
  145.0484  135.8845  152.1916 C   0  0  0  0  0  0  0  0  0  0  0  0
  145.4547  134.4476  152.5299 C   0  0  0  0  0  0  0  0  0  0  0  0
  145.3948  134.0908  151.0257 C   0  0  0  0  0  0  0  0  0  0  0  0
  146.5336  133.2058  150.4890 C   0  0  0  0  0  0  0  0  0  0  0  0
  146.4065  131.8638  150.9125 O   0  0  0  0  0  0  0  0  0  0  0  0
  144.0459  133.5584  150.4974 C   0  0  0  0  0  0  0  0  0  0  0  0
  143.9795  133.5855  149.0865 O   0  0  0  0  0  0  0  0  0  0  0  0
  145.6030  135.6055  150.7951 C   0  0  0  0  0  0  0  0  0  0  0  0
  150.0448  140.6756  155.3658 C   0  0  0  0  0  0  0  0  0  0  0  0
  149.7359  137.9358  154.8335 H   0  0  0  0  0  0  0  0  0  0  0  0
  151.1912  137.4694  155.7147 H   0  0  0  0  0  0  0  0  0  0  0  0
  151.3161  138.5182  154.3070 H   0  0  0  0  0  0  0  0  0  0  0  0
  150.3133  138.3190  157.8133 H   0  0  0  0  0  0  0  0  0  0  0  0
  150.0911  140.0384  158.0205 H   0  0  0  0  0  0  0  0  0  0  0  0
  148.1795  138.1418  156.5846 H   0  0  0  0  0  0  0  0  0  0  0  0
  147.9029  138.9157  158.1256 H   0  0  0  0  0  0  0  0  0  0  0  0
  147.9341  141.1372  157.1083 H   0  0  0  0  0  0  0  0  0  0  0  0
  148.3399  139.7614  154.4241 H   0  0  0  0  0  0  0  0  0  0  0  0
  148.2060  142.7245  155.1271 H   0  0  0  0  0  0  0  0  0  0  0  0
  148.4623  142.0602  153.5300 H   0  0  0  0  0  0  0  0  0  0  0  0
  146.0718  142.7381  153.9216 H   0  0  0  0  0  0  0  0  0  0  0  0
  146.2315  141.0549  153.5097 H   0  0  0  0  0  0  0  0  0  0  0  0
  145.8058  142.2330  156.3062 H   0  0  0  0  0  0  0  0  0  0  0  0
  144.6719  141.2493  155.4144 H   0  0  0  0  0  0  0  0  0  0  0  0
  143.9970  136.5976  157.1545 H   0  0  0  0  0  0  0  0  0  0  0  0
  146.5760  138.1797  151.4679 H   0  0  0  0  0  0  0  0  0  0  0  0
  143.9600  135.9581  152.1626 H   0  0  0  0  0  0  0  0  0  0  0  0
  146.4635  134.3627  152.9355 H   0  0  0  0  0  0  0  0  0  0  0  0
  144.7401  133.9169  153.1595 H   0  0  0  0  0  0  0  0  0  0  0  0
  146.5750  133.2304  149.3995 H   0  0  0  0  0  0  0  0  0  0  0  0
  147.5010  133.5668  150.8395 H   0  0  0  0  0  0  0  0  0  0  0  0
  147.0989  131.3570  150.5163 H   0  0  0  0  0  0  0  0  0  0  0  0
  143.8763  132.5286  150.8124 H   0  0  0  0  0  0  0  0  0  0  0  0
  143.2120  134.1360  150.8980 H   0  0  0  0  0  0  0  0  0  0  0  0
  144.7735  133.9811  148.7588 H   0  0  0  0  0  0  0  0  0  0  0  0
  145.0137  136.0338  149.9839 H   0  0  0  0  0  0  0  0  0  0  0  0
  146.6534  135.8888  150.7035 H   0  0  0  0  0  0  0  0  0  0  0  0
  150.2626  141.5483  155.9834 H   0  0  0  0  0  0  0  0  0  0  0  0
  150.5747  140.8284  154.4248 H   0  0  0  0  0  0  0  0  0  0  0  0
  151.5377  139.7121  156.3042 H   0  0  0  0  0  0  0  0  0  0  0  0
  1  2  1  0  0  0  0
  1 29  1  0  0  0  0
  1 30  1  0  0  0  0
  1 31  1  0  0  0  0
  2 28  1  0  0  0  0
  2  3  1  0  0  0  0
  2 59  1  0  0  0  0
  3  4  1  0  0  0  0
  3 32  1  0  0  0  0
  3 33  1  0  0  0  0
  4  5  1  0  0  0  0
  4 34  1  0  0  0  0
  4 35  1  0  0  0  0
  5 10  1  0  0  0  0
  5  6  1  0  0  0  0
  5 36  1  0  0  0  0
  6  7  1  0  0  0  0
  6 28  1  0  0  0  0
  6 37  1  0  0  0  0
  7  8  1  0  0  0  0
  7 38  1  0  0  0  0
  7 39  1  0  0  0  0
  8  9  1  0  0  0  0
  8 40  1  0  0  0  0
  8 41  1  0  0  0  0
  9 10  1  0  0  0  0
  9 42  1  0  0  0  0
  9 43  1  0  0  0  0
 10 11  1  0  0  0  0
 11 16  1  0  0  0  0
 11 12  2  0  0  0  0
 12 13  1  0  0  0  0
 13 14  2  0  0  0  0
 13 44  1  0  0  0  0
 14 15  1  0  0  0  0
 15 19  1  0  0  0  0
 15 16  2  0  0  0  0
 16 17  1  0  0  0  0
 17 18  2  0  0  0  0
 18 19  1  0  0  0  0
 18 45  1  0  0  0  0
 19 20  1  0  0  0  0
 20 27  1  0  0  0  0
 20 21  1  0  0  0  0
 20 46  1  0  0  0  0
 21 22  1  0  0  0  0
 21 47  1  0  0  0  0
 21 48  1  0  0  0  0
 22 23  1  0  0  0  0
 22 25  1  0  0  0  0
 22 27  1  0  0  0  0
 23 24  1  0  0  0  0
 23 49  1  0  0  0  0
 23 50  1  0  0  0  0
 24 51  1  0  0  0  0
 25 26  1  0  0  0  0
 25 52  1  0  0  0  0
 25 53  1  0  0  0  0
 26 54  1  0  0  0  0
 27 55  1  0  0  0  0
 27 56  1  0  0  0  0
 28 57  1  0  0  0  0
 28 58  1  0  0  0  0
M  CHG  1   2   1
M  END
> <s_m_source_file>
AV-unprocessed.smi

> <i_m_source_file_index>
198

> <i_lp_mmshare_version>
43012

> <i_f3d_flags>
0

> <s_epik_input>
W0NIMl0xW0NIMl1OKFtDSDNdKVtDSDJdW0NAQEhdKFtDQEhdMTIpW0NIMl1bQ0gyXVtDSDJdTjJjKG5bY0hdbjMpYyhjMzQpbltjSF1uNFtDSF0oW0NIMl01KVtDSDJdQzUoW0NIMl1bT0hdKVtDSDJdW09IXQ==

> <s_epik_cmdline>
J2VwaWtfcHl0aG9uJywgJy1waCcsICc3LjAnLCAnLXRuJywgJzgnLCAnLW1hJywgJzIwMCcsICctbWV0YWxfYmluZGluZycsICctaW1hZScsICc8aW5maWxlLm1hZT4nLCAnLW9tYWUnLCAnPG91dGZpbGUubWFlPic=

> <r_lp_tautomer_probability>
1

> <r_epik_Ionization_Penalty>
0.00239938

> <r_epik_Ionization_Penalty_Charging>
0.00138697

> <r_epik_Ionization_Penalty_Neutral>
0.00101241

> <r_epik_State_Penalty>
-0

> <r_epik_Charging_Adjusted_Penalty>
0.00138697

> <i_epik_Tot_Q>
1

> <i_epik_Tot_abs_Q>
1

> <r_epik_Metal_State_Penalty>
-0

> <b_epik_Metal_Only>
0

> <s_lp_Force_Field>
OPLS_2005

> <r_lp_Energy>
59.1545

> <b_lp_Chiralities_Consistent>
1

> <s_lp_Variant>
AV-unprocessed.smi:198-2

> <Gold.Version>
5.8.1

> <Gold.Id.Protein>
6NUR|6NUR_protein|mol2

> <Gold.PLP.Fitness>
42.5661

> <Gold.PLP.PLP>
-36.6908

> <Gold.PLP.part.hbond>
-2.6785

> <Gold.PLP.part.metal>
0.0000

> <Gold.PLP.part.buried>
-4.5532

> <Gold.PLP.part.nonpolar>
-30.2906

> <Gold.PLP.part.repulsive>
0.3810

> <Gold.PLP.ligand.clash>
0.0000

> <Gold.PLP.ligand.torsion>
0.5162

> <Gold.PLP.Chemscore.Hbond>
2.0000

> <Gold.PLP.Chemscore.CHOScore>
0.0000

> <Gold.PLP.Chemscore.Metal>
0.0000

> <Gold.Chemscore.Hbonds>
donor molecule, donor type, donor heavy atom, donor atom, acceptor molecule, acceptor atom, score
      L1  H    24    51       P1 10747  1.00
      L1  H    26    54       P1  7921  1.00

> <Gold.PLP.Chemscore.Internal.Correction>
0.9078

> <Gold.Rescore>
     Score         DG    S(hbond)    S(metal)    S(lipo)     H(rot)  DE(clash)    DE(int)     intcor
     11.68     -13.76       1.99        0.00      81.38       3.08       0.15       1.94       ----

> <Gold.Chemscore.Fitness>
11.6803

> <Gold.Chemscore.DG>
-13.7638

> <Gold.Chemscore.ZeroCoef>
-5.4800

> <Gold.Chemscore.Hbond>
1.9888

> <Gold.Chemscore.Metal>
0.0000

> <Gold.Chemscore.Lipo>
81.3775

> <Gold.Chemscore.Internal_Hbond>
0.0000

> <Gold.Chemscore.DEClash>
0.1473

> <Gold.Chemscore.DEInternal>
1.9362

> <Gold.Chemscore.Rot>
3.0781

> <Gold.Chemscore.Internal.Correction>
   9.000000E+99

> <Gold.Chemscore.Hbonds>
donor molecule, donor type, donor heavy atom, donor atom, acceptor molecule, acceptor atom, score
      L1  H    24    51       P1 10747  0.97
      L1  H    26    54       P1  7921  0.99

> <Gold.Chemscore.Hbond.Weighted>
-6.6426

> <Gold.Chemscore.Metal.Weighted>
-0.0000

> <Gold.Chemscore.Lipo.Weighted>
-9.5212

> <Gold.Chemscore.Internal_Hbond.Weighted>
0.0000

> <Gold.Chemscore.DEClash.Weighted>
0.1473

> <Gold.Chemscore.DEInternal.Weighted>
1.9362

> <Gold.Chemscore.Rot.Weighted>
7.8800

> <Gold.Chemscore.Internal.Correction.Weighted>
   9.000000E+99

> <Gold.Protein.RotatedTorsions>
[ 6907 6896 6895 6894 ] final -164.36 input  -60.11 | X-H torsion
[ 7974 7965 7964 7962 ] final  -41.88 input  175.53 | X-H torsion
[ 8008 7997 7996 7995 ] final  -85.77 input   59.86 | X-H torsion
[ 10167 10162 10161 10158 ] final  -74.47 input  -65.29 | X-H torsion
[ 10718 10713 10712 10709 ] final  125.37 input   66.30 | X-H torsion
[ 10763 10752 10751 10750 ] final  -44.87 input  -60.55 | X-H torsion
[ 11005 11000 10999 10996 ] final   48.84 input  -57.11 | X-H torsion

> <Gold.Protein.ActiveResidues>
 VAL166  LYS551  ARG553  GLY616  TRP617  ASP618  TYR619  PRO620  LYS621  CYS622 
 ASP623  PHE694  ASN695  SER759  ASP760  ASP761  ALA762  ILE779  LEU786  VAL792 
 PHE793  MET794  SER795  GLU796  ALA797  LYS798  CYS799  TRP800  GLU811  SER814 

> <Gold.Protein.RotatedAtoms>
  151.4106  133.3728  159.2743 H   0  0  0  0  0  0  0  0  0  0  0  0  # atno 6907 bound_to 6896
  150.9366  134.8779  159.7596 H   0  0  0  0  0  0  0  0  0  0  0  0  # atno 6908 bound_to 6896
  152.5052  134.4054  159.9483 H   0  0  0  0  0  0  0  0  0  0  0  0  # atno 6909 bound_to 6896
  146.0169  140.6897  142.9197 H   0  0  0  0  0  0  0  0  0  0  0  0  # atno 7974 bound_to 7965
  154.6444  140.0587  156.9883 H   0  0  0  0  0  0  0  0  0  0  0  0  # atno 8008 bound_to 7997
  155.1467  140.3270  155.4421 H   0  0  0  0  0  0  0  0  0  0  0  0  # atno 8009 bound_to 7997
  156.2546  140.1954  156.6580 H   0  0  0  0  0  0  0  0  0  0  0  0  # atno 8010 bound_to 7997
  140.5024  143.2359  151.7730 H   0  0  0  0  0  0  0  0  0  0  0  0  # atno 10167 bound_to 10162
  157.5509  131.1094  150.8704 H   0  0  0  0  0  0  0  0  0  0  0  0  # atno 10718 bound_to 10713
  154.0192  135.6671  153.4771 H   0  0  0  0  0  0  0  0  0  0  0  0  # atno 10763 bound_to 10752
  153.0587  135.5040  154.8039 H   0  0  0  0  0  0  0  0  0  0  0  0  # atno 10764 bound_to 10752
  154.6948  135.3068  154.9392 H   0  0  0  0  0  0  0  0  0  0  0  0  # atno 10765 bound_to 10752
  140.1155  134.4898  155.8641 H   0  0  0  0  0  0  0  0  0  0  0  0  # atno 11005 bound_to 11000
  144.6974  140.3497  143.7184 LP  0  0  0  0  0  0  0  0  0  0  0  0  # atno 17320 bound_to 7965
  145.7254  139.1721  143.2460 LP  0  0  0  0  0  0  0  0  0  0  0  0  # atno 17321 bound_to 7965
  139.4875  144.4503  151.9661 LP  0  0  0  0  0  0  0  0  0  0  0  0  # atno 17342 bound_to 10162
  140.3593  144.2993  150.5936 LP  0  0  0  0  0  0  0  0  0  0  0  0  # atno 17343 bound_to 10162
  156.9229  130.5321  149.5279 LP  0  0  0  0  0  0  0  0  0  0  0  0  # atno 17370 bound_to 10713
  156.0575  130.5634  150.9124 LP  0  0  0  0  0  0  0  0  0  0  0  0  # atno 17371 bound_to 10713
  141.2140  133.6742  156.6788 LP  0  0  0  0  0  0  0  0  0  0  0  0  # atno 17394 bound_to 11000
  140.3034  134.8145  157.4116 LP  0  0  0  0  0  0  0  0  0  0  0  0  # atno 17395 bound_to 11000

$$$$
