AV-unprocessed.smi:1214|AV-procd|sdf|5092|dock9
  -GOLD-   22720 4143D 1   1.00000     0.00000
 Structure written by MMmdl.
 33 34  0  0  0  0  0  0  0  0  1 V2000
  147.5842  133.0103  152.5533 C   0  0  0  0  0  0  0  0  0  0  0  0
  146.2570  133.0262  151.8116 C   0  0  0  0  0  0  0  0  0  0  0  0
  145.6017  131.8044  151.5485 C   0  0  0  0  0  0  0  0  0  0  0  0
  144.3749  131.8174  150.8635 C   0  0  0  0  0  0  0  0  0  0  0  0
  143.8519  133.0600  150.4692 C   0  0  0  0  0  0  0  0  0  0  0  0
  144.4719  134.2319  150.7167 N   0  0  0  0  0  0  0  0  0  0  0  0
  145.6609  134.2396  151.3728 C   0  0  0  0  0  0  0  0  0  0  0  0
  146.3743  135.4363  151.6919 N   0  0  0  0  0  0  0  0  0  0  0  0
  145.9470  136.6719  152.0290 C   0  0  0  0  0  0  0  0  0  0  0  0
  144.7470  136.9254  152.1206 O   0  0  0  0  0  0  0  0  0  0  0  0
  146.9014  137.5854  152.2699 N   0  0  0  0  0  0  0  0  0  0  0  0
  146.6679  138.9716  152.6581 C   0  0  2  0  0  0  0  0  0  0  0  0
  146.8397  139.9402  151.4708 C   0  0  0  0  0  0  0  0  0  0  0  0
  146.9628  141.3691  152.0146 C   0  0  0  0  0  0  0  0  0  0  0  0
  147.7410  141.2218  153.6676 S   0  0  0  0  0  0  0  0  0  0  0  0
  149.1520  141.6293  153.5882 O   0  0  0  0  0  0  0  0  0  0  0  0
  146.8397  141.8072  154.6714 O   0  0  0  0  0  0  0  0  0  0  0  0
  147.6489  139.3948  153.7594 C   0  0  0  0  0  0  0  0  0  0  0  0
  147.8883  131.9933  152.8025 H   0  0  0  0  0  0  0  0  0  0  0  0
  147.5096  133.5748  153.4832 H   0  0  0  0  0  0  0  0  0  0  0  0
  148.3691  133.4537  151.9398 H   0  0  0  0  0  0  0  0  0  0  0  0
  146.0312  130.8660  151.8673 H   0  0  0  0  0  0  0  0  0  0  0  0
  143.8486  130.8995  150.6477 H   0  0  0  0  0  0  0  0  0  0  0  0
  142.9110  133.1165  149.9422 H   0  0  0  0  0  0  0  0  0  0  0  0
  147.3782  135.3317  151.6893 H   0  0  0  0  0  0  0  0  0  0  0  0
  147.8636  137.2938  152.1684 H   0  0  0  0  0  0  0  0  0  0  0  0
  145.6549  139.0796  153.0507 H   0  0  0  0  0  0  0  0  0  0  0  0
  147.7576  139.6909  150.9362 H   0  0  0  0  0  0  0  0  0  0  0  0
  146.0224  139.8552  150.7540 H   0  0  0  0  0  0  0  0  0  0  0  0
  147.5585  142.0183  151.3730 H   0  0  0  0  0  0  0  0  0  0  0  0
  145.9782  141.8178  152.1468 H   0  0  0  0  0  0  0  0  0  0  0  0
  147.3338  139.0832  154.7554 H   0  0  0  0  0  0  0  0  0  0  0  0
  148.6492  139.0029  153.5710 H   0  0  0  0  0  0  0  0  0  0  0  0
  1  2  1  0  0  0  0
  1 19  1  0  0  0  0
  1 20  1  0  0  0  0
  1 21  1  0  0  0  0
  2  7  1  0  0  0  0
  2  3  2  0  0  0  0
  3  4  1  0  0  0  0
  3 22  1  0  0  0  0
  4  5  2  0  0  0  0
  4 23  1  0  0  0  0
  5  6  1  0  0  0  0
  5 24  1  0  0  0  0
  6  7  2  0  0  0  0
  7  8  1  0  0  0  0
  8  9  1  0  0  0  0
  8 25  1  0  0  0  0
  9 10  2  0  0  0  0
  9 11  1  0  0  0  0
 11 12  1  0  0  0  0
 11 26  1  0  0  0  0
 12 18  1  0  0  0  0
 12 13  1  0  0  0  0
 12 27  1  0  0  0  0
 13 14  1  0  0  0  0
 13 28  1  0  0  0  0
 13 29  1  0  0  0  0
 14 15  1  0  0  0  0
 14 30  1  0  0  0  0
 14 31  1  0  0  0  0
 15 16  2  0  0  0  0
 15 17  2  0  0  0  0
 15 18  1  0  0  0  0
 18 32  1  0  0  0  0
 18 33  1  0  0  0  0
M  END
> <s_m_source_file>
AV-unprocessed.smi

> <i_m_source_file_index>
1214

> <i_lp_mmshare_version>
43012

> <i_f3d_flags>
0

> <s_epik_input>
W0NIM11jMVtjSF1bY0hdW2NIXW5jMVtOSF1DKD1PKVtOSF1bQ0BASF0oW0NIMl0yKVtDSDJdW0NIMl1TMig9Tyk9Tw==

> <s_epik_cmdline>
J2VwaWtfcHl0aG9uJywgJy1waCcsICc3LjAnLCAnLXRuJywgJzgnLCAnLW1hJywgJzIwMCcsICctbWV0YWxfYmluZGluZycsICctaW1hZScsICc8aW5maWxlLm1hZT4nLCAnLW9tYWUnLCAnPG91dGZpbGUubWFlPic=

> <r_lp_tautomer_probability>
1

> <r_epik_Ionization_Penalty>
4.18367e-05

> <r_epik_Ionization_Penalty_Charging>
0

> <r_epik_Ionization_Penalty_Neutral>
4.18367e-05

> <r_epik_State_Penalty>
-0

> <r_epik_Charging_Adjusted_Penalty>
0

> <i_epik_Tot_Q>
0

> <i_epik_Tot_abs_Q>
0

> <r_epik_Metal_State_Penalty>
-0

> <b_epik_Metal_Only>
0

> <s_lp_Force_Field>
OPLS_2005

> <r_lp_Energy>
8.88601

> <b_lp_Chiralities_Consistent>
1

> <s_lp_Variant>
AV-unprocessed.smi:1214-1

> <Gold.Version>
5.8.1

> <Gold.Id.Protein>
6NUR|6NUR_protein|mol2

> <Gold.PLP.Fitness>
37.0835

> <Gold.PLP.PLP>
-27.1786

> <Gold.PLP.part.hbond>
-3.8158

> <Gold.PLP.part.metal>
0.0000

> <Gold.PLP.part.buried>
-1.5041

> <Gold.PLP.part.nonpolar>
-23.8220

> <Gold.PLP.part.repulsive>
1.1987

> <Gold.PLP.ligand.clash>
0.0000

> <Gold.PLP.ligand.torsion>
0.4957

> <Gold.PLP.Chemscore.Hbond>
2.6320

> <Gold.PLP.Chemscore.CHOScore>
1.0000

> <Gold.PLP.Chemscore.Metal>
0.0000

> <Gold.Chemscore.Hbonds>
donor molecule, donor type, donor heavy atom, donor atom, acceptor molecule, acceptor atom, score
      L1  H     8    25       P1  7948  0.90
      L1  H    11    26       P1  7948  1.00
      P1  H  8011  8017       L1    16  0.74
      L1  C     5    24       P1 10186  1.00

> <Gold.PLP.Chemscore.Internal.Correction>
0.0003

> <Gold.Rescore>
     Score         DG    S(hbond)    S(metal)    S(lipo)     H(rot)  DE(clash)    DE(int)     intcor
     16.06     -19.58       2.55        0.00      69.62       1.00       2.32       1.21       ----

> <Gold.Chemscore.Fitness>
16.0559

> <Gold.Chemscore.DG>
-19.5796

> <Gold.Chemscore.ZeroCoef>
-5.4800

> <Gold.Chemscore.Hbond>
2.5490

> <Gold.Chemscore.Metal>
0.0000

> <Gold.Chemscore.Lipo>
69.6225

> <Gold.Chemscore.Internal_Hbond>
0.0000

> <Gold.Chemscore.DEClash>
2.3157

> <Gold.Chemscore.DEInternal>
1.2079

> <Gold.Chemscore.Rot>
1.0000

> <Gold.Chemscore.Internal.Correction>
   9.000000E+99

> <Gold.Chemscore.Hbonds>
donor molecule, donor type, donor heavy atom, donor atom, acceptor molecule, acceptor atom, score
      L1  H     8    25       P1  7948  0.84
      L1  H    11    26       P1  7948  0.91
      P1  H  8011  8017       L1    16  0.73

> <Gold.Chemscore.Hbond.Weighted>
-8.5138

> <Gold.Chemscore.Metal.Weighted>
-0.0000

> <Gold.Chemscore.Lipo.Weighted>
-8.1458

> <Gold.Chemscore.Internal_Hbond.Weighted>
0.0000

> <Gold.Chemscore.DEClash.Weighted>
2.3157

> <Gold.Chemscore.DEInternal.Weighted>
1.2079

> <Gold.Chemscore.Rot.Weighted>
2.5600

> <Gold.Chemscore.Internal.Correction.Weighted>
   9.000000E+99

> <Gold.Protein.RotatedTorsions>
[ 6907 6896 6895 6894 ] final -147.79 input  -60.11 | X-H torsion
[ 7974 7965 7964 7962 ] final -135.12 input  175.53 | X-H torsion
[ 8008 7997 7996 7995 ] final  -56.64 input   59.86 | X-H torsion
[ 10167 10162 10161 10158 ] final -142.63 input  -65.29 | X-H torsion
[ 10718 10713 10712 10709 ] final   13.61 input   66.30 | X-H torsion
[ 10763 10752 10751 10750 ] final  116.51 input  -60.55 | X-H torsion
[ 11005 11000 10999 10996 ] final -158.15 input  -57.11 | X-H torsion

> <Gold.Protein.ActiveResidues>
 VAL166  LYS551  ARG553  GLY616  TRP617  ASP618  TYR619  PRO620  LYS621  CYS622 
 ASP623  PHE694  ASN695  SER759  ASP760  ASP761  ALA762  ILE779  LEU786  VAL792 
 PHE793  MET794  SER795  GLU796  ALA797  LYS798  CYS799  TRP800  GLU811  SER814 

> <Gold.Protein.RotatedAtoms>
  151.1607  133.4847  159.2594 H   0  0  0  0  0  0  0  0  0  0  0  0  # atno 6907 bound_to 6896
  151.1457  135.0202  159.8656 H   0  0  0  0  0  0  0  0  0  0  0  0  # atno 6908 bound_to 6896
  152.5463  134.1496  159.8566 H   0  0  0  0  0  0  0  0  0  0  0  0  # atno 6909 bound_to 6896
  144.9042  140.6811  143.5065 H   0  0  0  0  0  0  0  0  0  0  0  0  # atno 7974 bound_to 7965
  154.4237  140.1125  156.5670 H   0  0  0  0  0  0  0  0  0  0  0  0  # atno 8008 bound_to 7997
  155.6252  140.3495  155.4646 H   0  0  0  0  0  0  0  0  0  0  0  0  # atno 8009 bound_to 7997
  155.9992  140.1195  157.0553 H   0  0  0  0  0  0  0  0  0  0  0  0  # atno 8010 bound_to 7997
  139.8070  143.7754  152.2661 H   0  0  0  0  0  0  0  0  0  0  0  0  # atno 10167 bound_to 10162
  157.0272  130.6178  149.5730 H   0  0  0  0  0  0  0  0  0  0  0  0  # atno 10718 bound_to 10713
  153.5384  135.3564  155.2707 H   0  0  0  0  0  0  0  0  0  0  0  0  # atno 10763 bound_to 10752
  154.8720  135.4085  154.3072 H   0  0  0  0  0  0  0  0  0  0  0  0  # atno 10764 bound_to 10752
  153.3774  135.7067  153.6659 H   0  0  0  0  0  0  0  0  0  0  0  0  # atno 10765 bound_to 10752
  140.6568  134.4392  157.5235 H   0  0  0  0  0  0  0  0  0  0  0  0  # atno 11005 bound_to 11000
  145.3564  139.1693  143.4407 LP  0  0  0  0  0  0  0  0  0  0  0  0  # atno 17320 bound_to 7965
  146.3125  140.3621  142.8666 LP  0  0  0  0  0  0  0  0  0  0  0  0  # atno 17321 bound_to 7965
  139.7892  144.7416  150.9979 LP  0  0  0  0  0  0  0  0  0  0  0  0  # atno 17342 bound_to 10162
  140.7819  143.4460  151.0482 LP  0  0  0  0  0  0  0  0  0  0  0  0  # atno 17343 bound_to 10162
  156.0082  130.5171  150.7901 LP  0  0  0  0  0  0  0  0  0  0  0  0  # atno 17370 bound_to 10713
  157.5205  131.0931  151.0084 LP  0  0  0  0  0  0  0  0  0  0  0  0  # atno 17371 bound_to 10713
  139.9027  134.8520  156.1831 LP  0  0  0  0  0  0  0  0  0  0  0  0  # atno 17394 bound_to 11000
  141.0496  133.6896  156.1746 LP  0  0  0  0  0  0  0  0  0  0  0  0  # atno 17395 bound_to 11000

$$$$
