AV-unprocessed.smi:1684|AV-procd|sdf|6754|dock5
  -GOLD-   22720 7513D 1   1.00000     0.00000
 Structure written by MMmdl.
 42 43  0  0  0  0  0  0  0  0  1 V2000
  145.3314  135.7733  151.2515 C   0  0  0  0  0  0  0  0  0  0  0  0
  145.2843  134.2684  151.0427 C   0  0  0  0  0  0  0  0  0  0  0  0
  144.1968  133.7024  150.3440 C   0  0  0  0  0  0  0  0  0  0  0  0
  144.1536  132.3108  150.1531 C   0  0  0  0  0  0  0  0  0  0  0  0
  145.2065  131.5390  150.6735 C   0  0  0  0  0  0  0  0  0  0  0  0
  146.2498  132.0715  151.3418 N   0  0  0  0  0  0  0  0  0  0  0  0
  146.3073  133.4134  151.5342 C   0  0  0  0  0  0  0  0  0  0  0  0
  147.3801  134.0453  152.2241 N   0  0  0  0  0  0  0  0  0  0  0  0
  147.8731  133.7641  153.4430 C   0  0  0  0  0  0  0  0  0  0  0  0
  147.4466  132.8911  154.1995 O   0  0  0  0  0  0  0  0  0  0  0  0
  148.9001  134.5730  153.7442 N   0  0  0  0  0  0  0  0  0  0  0  0
  149.6411  134.5832  155.0048 C   0  0  1  0  0  0  0  0  0  0  0  0
  151.1241  134.3051  154.7245 C   0  0  0  0  0  0  0  0  0  0  0  0
  149.4473  135.9367  155.7203 C   0  0  0  0  0  0  0  0  0  0  0  0
  149.8377  137.1209  154.9530 N   0  0  0  0  0  0  0  0  0  0  0  0
  149.2114  138.3467  155.4441 C   0  0  0  0  0  0  0  0  0  0  0  0
  149.6507  139.5782  154.6332 C   0  0  0  0  0  0  0  0  0  0  0  0
  151.0703  139.6865  154.6569 O   0  0  0  0  0  0  0  0  0  0  0  0
  151.7178  138.5274  154.1426 C   0  0  0  0  0  0  0  0  0  0  0  0
  151.2860  137.2937  154.9541 C   0  0  0  0  0  0  0  0  0  0  0  0
  144.4646  136.2633  150.8073 H   0  0  0  0  0  0  0  0  0  0  0  0
  146.2264  136.1948  150.7928 H   0  0  0  0  0  0  0  0  0  0  0  0
  145.3417  136.0103  152.3157 H   0  0  0  0  0  0  0  0  0  0  0  0
  143.4032  134.3251  149.9577 H   0  0  0  0  0  0  0  0  0  0  0  0
  143.3352  131.8471  149.6224 H   0  0  0  0  0  0  0  0  0  0  0  0
  145.2126  130.4661  150.5499 H   0  0  0  0  0  0  0  0  0  0  0  0
  147.8239  134.8037  151.7281 H   0  0  0  0  0  0  0  0  0  0  0  0
  149.1743  135.2606  153.0582 H   0  0  0  0  0  0  0  0  0  0  0  0
  149.2909  133.7856  155.6605 H   0  0  0  0  0  0  0  0  0  0  0  0
  151.6995  134.2827  155.6503 H   0  0  0  0  0  0  0  0  0  0  0  0
  151.5592  135.0703  154.0809 H   0  0  0  0  0  0  0  0  0  0  0  0
  151.2561  133.3408  154.2324 H   0  0  0  0  0  0  0  0  0  0  0  0
  148.4065  136.0336  156.0335 H   0  0  0  0  0  0  0  0  0  0  0  0
  150.0313  135.9108  156.6416 H   0  0  0  0  0  0  0  0  0  0  0  0
  148.1264  138.2671  155.3903 H   0  0  0  0  0  0  0  0  0  0  0  0
  149.4636  138.4968  156.4949 H   0  0  0  0  0  0  0  0  0  0  0  0
  149.3010  139.5052  153.6023 H   0  0  0  0  0  0  0  0  0  0  0  0
  149.2165  140.4848  155.0555 H   0  0  0  0  0  0  0  0  0  0  0  0
  151.4708  138.4018  153.0872 H   0  0  0  0  0  0  0  0  0  0  0  0
  152.7975  138.6636  154.2061 H   0  0  0  0  0  0  0  0  0  0  0  0
  151.6465  137.3924  155.9793 H   0  0  0  0  0  0  0  0  0  0  0  0
  151.7653  136.4060  154.5397 H   0  0  0  0  0  0  0  0  0  0  0  0
  1  2  1  0  0  0  0
  1 21  1  0  0  0  0
  1 22  1  0  0  0  0
  1 23  1  0  0  0  0
  2  7  1  0  0  0  0
  2  3  2  0  0  0  0
  3  4  1  0  0  0  0
  3 24  1  0  0  0  0
  4  5  2  0  0  0  0
  4 25  1  0  0  0  0
  5  6  1  0  0  0  0
  5 26  1  0  0  0  0
  6  7  2  0  0  0  0
  7  8  1  0  0  0  0
  8  9  1  0  0  0  0
  8 27  1  0  0  0  0
  9 10  2  0  0  0  0
  9 11  1  0  0  0  0
 11 12  1  0  0  0  0
 11 28  1  0  0  0  0
 12 13  1  0  0  0  0
 12 14  1  0  0  0  0
 12 29  1  0  0  0  0
 13 30  1  0  0  0  0
 13 31  1  0  0  0  0
 13 32  1  0  0  0  0
 14 15  1  0  0  0  0
 14 33  1  0  0  0  0
 14 34  1  0  0  0  0
 15 20  1  0  0  0  0
 15 16  1  0  0  0  0
 16 17  1  0  0  0  0
 16 35  1  0  0  0  0
 16 36  1  0  0  0  0
 17 18  1  0  0  0  0
 17 37  1  0  0  0  0
 17 38  1  0  0  0  0
 18 19  1  0  0  0  0
 19 20  1  0  0  0  0
 19 39  1  0  0  0  0
 19 40  1  0  0  0  0
 20 41  1  0  0  0  0
 20 42  1  0  0  0  0
M  END
> <s_m_source_file>
AV-unprocessed.smi

> <i_m_source_file_index>
1684

> <i_lp_mmshare_version>
43012

> <i_f3d_flags>
0

> <s_epik_input>
W0NIM11jMVtjSF1bY0hdW2NIXW5jMVtOSF1DKD1PKVtOSF1bQ0BIXShbQ0gzXSlbQ0gyXU4yW0NIMl1bQ0gyXU9bQ0gyXVtDSDJdMg==

> <s_epik_cmdline>
J2VwaWtfcHl0aG9uJywgJy1waCcsICc3LjAnLCAnLXRuJywgJzgnLCAnLW1hJywgJzIwMCcsICctbWV0YWxfYmluZGluZycsICctaW1hZScsICc8aW5maWxlLm1hZT4nLCAnLW9tYWUnLCAnPG91dGZpbGUubWFlPic=

> <r_epik_Ionization_Penalty>
0.26605

> <r_epik_Ionization_Penalty_Charging>
0

> <r_epik_Ionization_Penalty_Neutral>
0.26605

> <r_epik_State_Penalty>
0.257924

> <r_epik_Charging_Adjusted_Penalty>
0.257924

> <i_epik_Tot_Q>
0

> <i_epik_Tot_abs_Q>
0

> <r_epik_Metal_State_Penalty>
0.257922

> <b_epik_Metal_Only>
0

> <s_lp_Force_Field>
OPLS_2005

> <r_lp_Energy>
28.5554

> <b_lp_Chiralities_Consistent>
1

> <s_lp_Variant>
AV-unprocessed.smi:1684-2

> <Gold.Version>
5.8.1

> <Gold.Id.Protein>
6NUR|6NUR_protein|mol2

> <Gold.PLP.Fitness>
42.1056

> <Gold.PLP.PLP>
-34.3866

> <Gold.PLP.part.hbond>
-3.0000

> <Gold.PLP.part.metal>
0.0000

> <Gold.PLP.part.buried>
-6.8728

> <Gold.PLP.part.nonpolar>
-24.5222

> <Gold.PLP.part.repulsive>
0.3915

> <Gold.PLP.ligand.clash>
0.0000

> <Gold.PLP.ligand.torsion>
0.6646

> <Gold.PLP.Chemscore.Hbond>
3.0000

> <Gold.PLP.Chemscore.CHOScore>
0.0000

> <Gold.PLP.Chemscore.Metal>
0.0000

> <Gold.Chemscore.Hbonds>
donor molecule, donor type, donor heavy atom, donor atom, acceptor molecule, acceptor atom, score
      L1  H     8    27       P1  7948  0.94
      L1  H    11    28       P1  7948  0.77
      P1  H  7989  7998       L1    18  0.95

> <Gold.PLP.Chemscore.Internal.Correction>
0.0483

> <Gold.Rescore>
     Score         DG    S(hbond)    S(metal)    S(lipo)     H(rot)  DE(clash)    DE(int)     intcor
     17.21     -18.21       2.32        0.00      74.40       1.46       0.15       0.85       ----

> <Gold.Chemscore.Fitness>
17.2131

> <Gold.Chemscore.DG>
-18.2099

> <Gold.Chemscore.ZeroCoef>
-5.4800

> <Gold.Chemscore.Hbond>
2.3225

> <Gold.Chemscore.Metal>
0.0000

> <Gold.Chemscore.Lipo>
74.4041

> <Gold.Chemscore.Internal_Hbond>
0.0000

> <Gold.Chemscore.DEClash>
0.1511

> <Gold.Chemscore.DEInternal>
0.8457

> <Gold.Chemscore.Rot>
1.4581

> <Gold.Chemscore.Internal.Correction>
   9.000000E+99

> <Gold.Chemscore.Hbonds>
donor molecule, donor type, donor heavy atom, donor atom, acceptor molecule, acceptor atom, score
      L1  H     8    27       P1  7948  0.27
      L1  H    11    28       P1  7948  0.11
      P1  H  7989  7998       L1    18  0.17

> <Gold.Chemscore.Hbond.Weighted>
-7.7573

> <Gold.Chemscore.Metal.Weighted>
-0.0000

> <Gold.Chemscore.Lipo.Weighted>
-8.7053

> <Gold.Chemscore.Internal_Hbond.Weighted>
0.0000

> <Gold.Chemscore.DEClash.Weighted>
0.1511

> <Gold.Chemscore.DEInternal.Weighted>
0.8457

> <Gold.Chemscore.Rot.Weighted>
3.7327

> <Gold.Chemscore.Internal.Correction.Weighted>
   9.000000E+99

> <Gold.Protein.RotatedTorsions>
[ 6907 6896 6895 6894 ] final -148.88 input  -60.11 | X-H torsion
[ 7974 7965 7964 7962 ] final -102.67 input  175.53 | X-H torsion
[ 8008 7997 7996 7995 ] final   40.04 input   59.86 | X-H torsion
[ 10167 10162 10161 10158 ] final -149.77 input  -65.29 | X-H torsion
[ 10718 10713 10712 10709 ] final  -37.09 input   66.30 | X-H torsion
[ 10763 10752 10751 10750 ] final   11.67 input  -60.55 | X-H torsion
[ 11005 11000 10999 10996 ] final  169.66 input  -57.11 | X-H torsion

> <Gold.Protein.ActiveResidues>
 VAL166  LYS551  ARG553  GLY616  TRP617  ASP618  TYR619  PRO620  LYS621  CYS622 
 ASP623  PHE694  ASN695  SER759  ASP760  ASP761  ALA762  ILE779  LEU786  VAL792 
 PHE793  MET794  SER795  GLU796  ALA797  LYS798  CYS799  TRP800  GLU811  SER814 

> <Gold.Protein.RotatedAtoms>
  151.1762  133.4753  159.2593 H   0  0  0  0  0  0  0  0  0  0  0  0  # atno 6907 bound_to 6896
  151.1306  135.0128  159.8590 H   0  0  0  0  0  0  0  0  0  0  0  0  # atno 6908 bound_to 6896
  152.5460  134.1665  159.8632 H   0  0  0  0  0  0  0  0  0  0  0  0  # atno 6909 bound_to 6896
  145.2657  140.9283  143.3015 H   0  0  0  0  0  0  0  0  0  0  0  0  # atno 7974 bound_to 7965
  155.2465  140.3349  155.4286 H   0  0  0  0  0  0  0  0  0  0  0  0  # atno 8008 bound_to 7997
  156.2234  140.1818  156.7467 H   0  0  0  0  0  0  0  0  0  0  0  0  # atno 8009 bound_to 7997
  154.5860  140.0646  156.9156 H   0  0  0  0  0  0  0  0  0  0  0  0  # atno 8010 bound_to 7997
  139.7413  143.8658  152.2563 H   0  0  0  0  0  0  0  0  0  0  0  0  # atno 10167 bound_to 10162
  156.3193  130.4263  149.7975 H   0  0  0  0  0  0  0  0  0  0  0  0  # atno 10718 bound_to 10713
  153.1902  135.6841  153.8363 H   0  0  0  0  0  0  0  0  0  0  0  0  # atno 10763 bound_to 10752
  153.7664  135.3202  155.3346 H   0  0  0  0  0  0  0  0  0  0  0  0  # atno 10764 bound_to 10752
  154.8113  135.4716  154.0621 H   0  0  0  0  0  0  0  0  0  0  0  0  # atno 10765 bound_to 10752
  140.3001  134.7602  157.3909 H   0  0  0  0  0  0  0  0  0  0  0  0  # atno 11005 bound_to 11000
  144.9379  139.4223  143.6463 LP  0  0  0  0  0  0  0  0  0  0  0  0  # atno 17320 bound_to 7965
  146.3262  139.8324  142.8906 LP  0  0  0  0  0  0  0  0  0  0  0  0  # atno 17321 bound_to 7965
  139.8609  144.7117  150.9100 LP  0  0  0  0  0  0  0  0  0  0  0  0  # atno 17342 bound_to 10162
  140.7786  143.3818  151.1463 LP  0  0  0  0  0  0  0  0  0  0  0  0  # atno 17343 bound_to 10162
  156.5289  130.8249  151.3230 LP  0  0  0  0  0  0  0  0  0  0  0  0  # atno 17370 bound_to 10713
  157.7408  130.9858  150.2404 LP  0  0  0  0  0  0  0  0  0  0  0  0  # atno 17371 bound_to 10713
  140.1117  134.5337  155.8260 LP  0  0  0  0  0  0  0  0  0  0  0  0  # atno 17394 bound_to 11000
  141.2129  133.6726  156.6701 LP  0  0  0  0  0  0  0  0  0  0  0  0  # atno 17395 bound_to 11000

$$$$
