AV-unprocessed.smi:2349|AV-procd|sdf|9372|dock3
  -GOLD-   2272013 03D 1   1.00000     0.00000
 Structure written by MMmdl.
 53 54  0  0  0  0  0  0  0  0  2 V2000
  144.1095  132.7952  149.7324 C   0  0  0  0  0  0  0  0  0  0  0  0
  144.3488  134.0341  150.5686 C   0  0  0  0  0  0  0  0  0  0  0  0
  143.8558  134.1509  151.8848 C   0  0  0  0  0  0  0  0  0  0  0  0
  144.1421  135.3154  152.6264 C   0  0  0  0  0  0  0  0  0  0  0  0
  144.9127  136.3422  152.0375 C   0  0  0  0  0  0  0  0  0  0  0  0
  145.2961  137.5782  152.8374 C   0  0  0  0  0  0  0  0  0  0  0  0
  146.4985  137.3663  153.7824 C   0  0  0  0  0  0  0  0  0  0  0  0
  147.4955  138.4290  153.6528 N   0  0  0  0  0  0  0  0  0  0  0  0
  148.7342  138.4036  154.1774 C   0  0  0  0  0  0  0  0  0  0  0  0
  149.1957  137.3986  154.7206 O   0  0  0  0  0  0  0  0  0  0  0  0
  149.4022  139.5827  154.1176 N   0  0  0  0  0  0  0  0  0  0  0  0
  148.8022  140.9241  154.0669 C   0  0  0  0  0  0  0  0  0  0  0  0
  148.8579  141.5337  155.4795 C   0  0  0  0  0  0  0  0  0  0  0  0
  150.3006  141.5622  156.0405 C   0  0  0  0  0  0  0  0  0  0  0  0
  150.2954  142.0368  157.5131 C   0  0  0  0  0  0  0  0  0  0  0  0
  151.6646  142.0069  158.2209 C   0  0  0  0  0  0  0  0  0  0  0  0
  152.1813  140.9201  158.4850 O   0  0  0  0  0  0  0  0  0  0  0  0
  152.2625  143.1803  158.5338 N   0  0  0  0  0  0  0  0  0  0  0  0
  153.5303  143.2030  159.2674 C   0  0  0  0  0  0  0  0  0  0  0  0
  151.7303  144.4880  158.1415 C   0  0  0  0  0  0  0  0  0  0  0  0
  150.9948  140.1873  155.8536 C   0  0  0  0  0  0  0  0  0  0  0  0
  150.8353  139.6673  154.4133 C   0  0  0  0  0  0  0  0  0  0  0  0
  145.3551  136.1813  150.7064 C   0  0  0  0  0  0  0  0  0  0  0  0
  145.0686  135.0458  150.0328 N   0  3  0  0  0  0  0  0  0  0  0  0
  143.0816  132.4503  149.8477 H   0  0  0  0  0  0  0  0  0  0  0  0
  144.7780  131.9944  150.0510 H   0  0  0  0  0  0  0  0  0  0  0  0
  144.2860  132.9902  148.6739 H   0  0  0  0  0  0  0  0  0  0  0  0
  143.2771  133.3533  152.3274 H   0  0  0  0  0  0  0  0  0  0  0  0
  143.7891  135.4062  153.6433 H   0  0  0  0  0  0  0  0  0  0  0  0
  145.5100  138.3937  152.1458 H   0  0  0  0  0  0  0  0  0  0  0  0
  144.4343  137.8992  153.4241 H   0  0  0  0  0  0  0  0  0  0  0  0
  146.1467  137.2963  154.8128 H   0  0  0  0  0  0  0  0  0  0  0  0
  146.9747  136.4100  153.5653 H   0  0  0  0  0  0  0  0  0  0  0  0
  147.1920  139.2844  153.2105 H   0  0  0  0  0  0  0  0  0  0  0  0
  149.3671  141.5469  153.3717 H   0  0  0  0  0  0  0  0  0  0  0  0
  147.7795  140.9303  153.6890 H   0  0  0  0  0  0  0  0  0  0  0  0
  148.4461  142.5433  155.4599 H   0  0  0  0  0  0  0  0  0  0  0  0
  148.2158  140.9548  156.1432 H   0  0  0  0  0  0  0  0  0  0  0  0
  150.8522  142.2914  155.4443 H   0  0  0  0  0  0  0  0  0  0  0  0
  149.9259  143.0618  157.5626 H   0  0  0  0  0  0  0  0  0  0  0  0
  149.5838  141.4224  158.0630 H   0  0  0  0  0  0  0  0  0  0  0  0
  153.7507  144.1874  159.6813 H   0  0  0  0  0  0  0  0  0  0  0  0
  154.3528  142.9243  158.6078 H   0  0  0  0  0  0  0  0  0  0  0  0
  153.5157  142.5059  160.1065 H   0  0  0  0  0  0  0  0  0  0  0  0
  151.4028  144.4898  157.1010 H   0  0  0  0  0  0  0  0  0  0  0  0
  152.4756  145.2786  158.2323 H   0  0  0  0  0  0  0  0  0  0  0  0
  150.8827  144.7593  158.7711 H   0  0  0  0  0  0  0  0  0  0  0  0
  152.0557  140.2532  156.0936 H   0  0  0  0  0  0  0  0  0  0  0  0
  150.5689  139.4617  156.5483 H   0  0  0  0  0  0  0  0  0  0  0  0
  151.3477  138.7110  154.2996 H   0  0  0  0  0  0  0  0  0  0  0  0
  151.3203  140.3459  153.7102 H   0  0  0  0  0  0  0  0  0  0  0  0
  145.9554  136.9062  150.1758 H   0  0  0  0  0  0  0  0  0  0  0  0
  145.4187  134.9444  149.0798 H   0  0  0  0  0  0  0  0  0  0  0  0
  1  2  1  0  0  0  0
  1 25  1  0  0  0  0
  1 26  1  0  0  0  0
  1 27  1  0  0  0  0
  2 24  1  0  0  0  0
  2  3  2  0  0  0  0
  3  4  1  0  0  0  0
  3 28  1  0  0  0  0
  4  5  2  0  0  0  0
  4 29  1  0  0  0  0
  5  6  1  0  0  0  0
  5 23  1  0  0  0  0
  6  7  1  0  0  0  0
  6 30  1  0  0  0  0
  6 31  1  0  0  0  0
  7  8  1  0  0  0  0
  7 32  1  0  0  0  0
  7 33  1  0  0  0  0
  8  9  1  0  0  0  0
  8 34  1  0  0  0  0
  9 10  2  0  0  0  0
  9 11  1  0  0  0  0
 11 22  1  0  0  0  0
 11 12  1  0  0  0  0
 12 13  1  0  0  0  0
 12 35  1  0  0  0  0
 12 36  1  0  0  0  0
 13 14  1  0  0  0  0
 13 37  1  0  0  0  0
 13 38  1  0  0  0  0
 14 15  1  0  0  0  0
 14 21  1  0  0  0  0
 14 39  1  0  0  0  0
 15 16  1  0  0  0  0
 15 40  1  0  0  0  0
 15 41  1  0  0  0  0
 16 17  2  0  0  0  0
 16 18  1  0  0  0  0
 18 19  1  0  0  0  0
 18 20  1  0  0  0  0
 19 42  1  0  0  0  0
 19 43  1  0  0  0  0
 19 44  1  0  0  0  0
 20 45  1  0  0  0  0
 20 46  1  0  0  0  0
 20 47  1  0  0  0  0
 21 22  1  0  0  0  0
 21 48  1  0  0  0  0
 21 49  1  0  0  0  0
 22 50  1  0  0  0  0
 22 51  1  0  0  0  0
 23 24  2  0  0  0  0
 23 52  1  0  0  0  0
 24 53  1  0  0  0  0
M  CHG  1  24   1
M  END
> <s_m_source_file>
AV-unprocessed.smi

> <i_m_source_file_index>
2349

> <i_lp_mmshare_version>
43012

> <i_f3d_flags>
0

> <s_epik_input>
W0NIM11jMVtjSF1bY0hdYyhbY0hdbjEpW0NIMl1bQ0gyXVtOSF1DKD1PKU4yW0NIMl1bQ0gyXVtDSF0oW0NIMl1bQ0gyXTIpW0NIMl1DKD1PKU4oW0NIM10pW0NIM10=

> <s_epik_cmdline>
J2VwaWtfcHl0aG9uJywgJy1waCcsICc3LjAnLCAnLXRuJywgJzgnLCAnLW1hJywgJzIwMCcsICctbWV0YWxfYmluZGluZycsICctaW1hZScsICc8aW5maWxlLm1hZT4nLCAnLW9tYWUnLCAnPG91dGZpbGUubWFlPic=

> <r_epik_Ionization_Penalty>
1.41566

> <r_epik_Ionization_Penalty_Charging>
1.4156

> <r_epik_Ionization_Penalty_Neutral>
6.25151e-05

> <r_epik_State_Penalty>
1.49894

> <r_epik_Charging_Adjusted_Penalty>
2.91453

> <i_epik_Tot_Q>
1

> <i_epik_Tot_abs_Q>
1

> <r_epik_Metal_State_Penalty>
1.55152

> <b_epik_Metal_Only>
0

> <s_lp_Force_Field>
OPLS_2005

> <r_lp_Energy>
40.5866

> <b_lp_Chiralities_Consistent>
1

> <s_lp_Variant>
AV-unprocessed.smi:2349-2

> <Gold.Version>
5.8.1

> <Gold.Id.Protein>
6NUR|6NUR_protein|mol2

> <Gold.PLP.Fitness>
50.6845

> <Gold.PLP.PLP>
-49.6098

> <Gold.PLP.part.hbond>
-1.8946

> <Gold.PLP.part.metal>
0.0000

> <Gold.PLP.part.buried>
-3.7232

> <Gold.PLP.part.nonpolar>
-45.1579

> <Gold.PLP.part.repulsive>
0.2013

> <Gold.PLP.ligand.clash>
0.0000

> <Gold.PLP.ligand.torsion>
1.0209

> <Gold.PLP.Chemscore.Hbond>
1.0000

> <Gold.PLP.Chemscore.CHOScore>
0.0000

> <Gold.PLP.Chemscore.Metal>
0.0000

> <Gold.Chemscore.Hbonds>
donor molecule, donor type, donor heavy atom, donor atom, acceptor molecule, acceptor atom, score
      L1  H    24    53       P1  7921  1.00

> <Gold.PLP.Chemscore.Internal.Correction>
0.1165

> <Gold.Rescore>
     Score         DG    S(hbond)    S(metal)    S(lipo)     H(rot)  DE(clash)    DE(int)     intcor
     16.08     -16.99       1.00        0.00     108.14       1.75       0.04       0.86       ----

> <Gold.Chemscore.Fitness>
16.0812

> <Gold.Chemscore.DG>
-16.9894

> <Gold.Chemscore.ZeroCoef>
-5.4800

> <Gold.Chemscore.Hbond>
0.9956

> <Gold.Chemscore.Metal>
0.0000

> <Gold.Chemscore.Lipo>
108.1375

> <Gold.Chemscore.Internal_Hbond>
0.0000

> <Gold.Chemscore.DEClash>
0.0442

> <Gold.Chemscore.DEInternal>
0.8640

> <Gold.Chemscore.Rot>
1.7454

> <Gold.Chemscore.Internal.Correction>
   9.000000E+99

> <Gold.Chemscore.Hbonds>
donor molecule, donor type, donor heavy atom, donor atom, acceptor molecule, acceptor atom, score
      L1  H    24    53       P1  7921  0.99

> <Gold.Chemscore.Hbond.Weighted>
-3.3255

> <Gold.Chemscore.Metal.Weighted>
-0.0000

> <Gold.Chemscore.Lipo.Weighted>
-12.6521

> <Gold.Chemscore.Internal_Hbond.Weighted>
0.0000

> <Gold.Chemscore.DEClash.Weighted>
0.0442

> <Gold.Chemscore.DEInternal.Weighted>
0.8640

> <Gold.Chemscore.Rot.Weighted>
4.4682

> <Gold.Chemscore.Internal.Correction.Weighted>
   9.000000E+99

> <Gold.Protein.RotatedTorsions>
[ 6907 6896 6895 6894 ] final   74.99 input  -60.11 | X-H torsion
[ 7974 7965 7964 7962 ] final  -26.82 input  175.53 | X-H torsion
[ 8008 7997 7996 7995 ] final  -51.44 input   59.86 | X-H torsion
[ 10167 10162 10161 10158 ] final  102.02 input  -65.29 | X-H torsion
[ 10718 10713 10712 10709 ] final   87.65 input   66.30 | X-H torsion
[ 10763 10752 10751 10750 ] final  -65.30 input  -60.55 | X-H torsion
[ 11005 11000 10999 10996 ] final   70.45 input  -57.11 | X-H torsion

> <Gold.Protein.ActiveResidues>
 VAL166  LYS551  ARG553  GLY616  TRP617  ASP618  TYR619  PRO620  LYS621  CYS622 
 ASP623  PHE694  ASN695  SER759  ASP760  ASP761  ALA762  ILE779  LEU786  VAL792 
 PHE793  MET794  SER795  GLU796  ALA797  LYS798  CYS799  TRP800  GLU811  SER814 

> <Gold.Protein.RotatedAtoms>
  152.5003  134.4188  159.9473 H   0  0  0  0  0  0  0  0  0  0  0  0  # atno 6907 bound_to 6896
  151.4160  133.3706  159.2758 H   0  0  0  0  0  0  0  0  0  0  0  0  # atno 6908 bound_to 6896
  150.9257  134.8696  159.7578 H   0  0  0  0  0  0  0  0  0  0  0  0  # atno 6909 bound_to 6896
  146.1399  140.5071  142.8656 H   0  0  0  0  0  0  0  0  0  0  0  0  # atno 7974 bound_to 7965
  154.4083  140.1248  156.4830 H   0  0  0  0  0  0  0  0  0  0  0  0  # atno 8008 bound_to 7997
  155.7066  140.3494  155.4936 H   0  0  0  0  0  0  0  0  0  0  0  0  # atno 8009 bound_to 7997
  155.9338  140.1074  157.1101 H   0  0  0  0  0  0  0  0  0  0  0  0  # atno 8010 bound_to 7997
  139.7386  144.7017  151.0610 H   0  0  0  0  0  0  0  0  0  0  0  0  # atno 10167 bound_to 10162
  157.6942  131.0264  150.3156 H   0  0  0  0  0  0  0  0  0  0  0  0  # atno 10718 bound_to 10713
  154.3430  135.6152  153.5605 H   0  0  0  0  0  0  0  0  0  0  0  0  # atno 10763 bound_to 10752
  152.9803  135.5774  154.4831 H   0  0  0  0  0  0  0  0  0  0  0  0  # atno 10764 bound_to 10752
  154.4538  135.2853  155.1739 H   0  0  0  0  0  0  0  0  0  0  0  0  # atno 10765 bound_to 10752
  139.9597  134.7082  156.0673 H   0  0  0  0  0  0  0  0  0  0  0  0  # atno 11005 bound_to 11000
  144.7781  140.5783  143.6624 LP  0  0  0  0  0  0  0  0  0  0  0  0  # atno 17320 bound_to 7965
  145.5070  139.1481  143.3626 LP  0  0  0  0  0  0  0  0  0  0  0  0  # atno 17321 bound_to 7965
  140.7782  143.4952  150.9842 LP  0  0  0  0  0  0  0  0  0  0  0  0  # atno 17342 bound_to 10162
  139.8640  143.7277  152.3171 LP  0  0  0  0  0  0  0  0  0  0  0  0  # atno 17343 bound_to 10162
  156.3651  130.3853  149.7220 LP  0  0  0  0  0  0  0  0  0  0  0  0  # atno 17370 bound_to 10713
  156.4653  130.7971  151.2990 LP  0  0  0  0  0  0  0  0  0  0  0  0  # atno 17371 bound_to 10713
  141.1273  133.6596  156.3370 LP  0  0  0  0  0  0  0  0  0  0  0  0  # atno 17394 bound_to 11000
  140.5528  134.6011  157.5412 LP  0  0  0  0  0  0  0  0  0  0  0  0  # atno 17395 bound_to 11000

$$$$
