AV-unprocessed.smi:104|AV-procd|sdf|1007|dock9
  -GOLD-   2262018 03D 1   1.00000     0.00000
 Structure written by MMmdl.
 47 49  0  0  0  0  0  0  0  0  1 V2000
  141.3368  137.1900  158.8794 C   0  0  0  0  0  0  0  0  0  0  0  0
  142.4626  136.1648  158.8664 C   0  0  0  0  0  0  0  0  0  0  0  0
  142.2317  134.9571  158.8041 O   0  0  0  0  0  0  0  0  0  0  0  0
  143.6753  136.7368  158.9243 O   0  0  0  0  0  0  0  0  0  0  0  0
  144.8355  135.9236  158.9906 C   0  0  0  0  0  0  0  0  0  0  0  0
  146.0752  136.7804  158.6783 C   0  0  2  0  0  0  0  0  0  0  0  0
  146.2043  136.8621  157.2564 O   0  0  0  0  0  0  0  0  0  0  0  0
  147.3807  136.2457  156.8275 C   0  0  2  0  0  0  0  0  0  0  0  0
  147.1241  135.4911  155.5584 N   0  0  0  0  0  0  0  0  0  0  0  0
  146.0211  135.5570  154.7393 C   0  0  0  0  0  0  0  0  0  0  0  0
  144.5462  136.6980  155.1238 Br  0  0  0  0  0  0  0  0  0  0  0  0
  146.0301  134.8222  153.6631 N   0  0  0  0  0  0  0  0  0  0  0  0
  147.2665  134.1927  153.7350 C   0  0  0  0  0  0  0  0  0  0  0  0
  147.9509  133.2711  152.9028 C   0  0  0  0  0  0  0  0  0  0  0  0
  147.4348  132.7936  151.7620 N   0  0  0  0  0  0  0  0  0  0  0  0
  149.1848  132.8563  153.2732 N   0  0  0  0  0  0  0  0  0  0  0  0
  149.7236  133.3203  154.4049 C   0  0  0  0  0  0  0  0  0  0  0  0
  149.2048  134.1802  155.2843 N   0  0  0  0  0  0  0  0  0  0  0  0
  147.9597  134.5988  154.9133 C   0  0  0  0  0  0  0  0  0  0  0  0
  147.8650  135.3466  157.9710 C   0  0  2  0  0  0  0  0  0  0  0  0
  147.2280  134.0690  157.9403 O   0  0  0  0  0  0  0  0  0  0  0  0
  147.8370  132.9808  158.4422 C   0  0  0  0  0  0  0  0  0  0  0  0
  146.9419  131.7501  158.4044 C   0  0  0  0  0  0  0  0  0  0  0  0
  148.9890  132.9256  158.8718 O   0  0  0  0  0  0  0  0  0  0  0  0
  147.4057  136.1720  159.1576 C   0  0  2  0  0  0  0  0  0  0  0  0
  147.3342  135.3936  160.3475 O   0  0  0  0  0  0  0  0  0  0  0  0
  147.4139  135.9878  161.5499 C   0  0  0  0  0  0  0  0  0  0  0  0
  147.3670  134.9862  162.6958 C   0  0  0  0  0  0  0  0  0  0  0  0
  147.5077  137.1977  161.7552 O   0  0  0  0  0  0  0  0  0  0  0  0
  141.3482  137.7743  157.9593 H   0  0  0  0  0  0  0  0  0  0  0  0
  141.4517  137.8695  159.7241 H   0  0  0  0  0  0  0  0  0  0  0  0
  140.3688  136.6956  158.9630 H   0  0  0  0  0  0  0  0  0  0  0  0
  144.9013  135.5076  159.9962 H   0  0  0  0  0  0  0  0  0  0  0  0
  144.7674  135.0845  158.2981 H   0  0  0  0  0  0  0  0  0  0  0  0
  145.9489  137.7766  159.1033 H   0  0  0  0  0  0  0  0  0  0  0  0
  148.1044  137.0174  156.5638 H   0  0  0  0  0  0  0  0  0  0  0  0
  146.5173  133.0904  151.4618 H   0  0  0  0  0  0  0  0  0  0  0  0
  147.9634  132.1375  151.2055 H   0  0  0  0  0  0  0  0  0  0  0  0
  150.7107  132.9507  154.6409 H   0  0  0  0  0  0  0  0  0  0  0  0
  148.9523  135.2617  157.9451 H   0  0  0  0  0  0  0  0  0  0  0  0
  145.9115  132.0185  158.6385 H   0  0  0  0  0  0  0  0  0  0  0  0
  147.2785  131.0094  159.1301 H   0  0  0  0  0  0  0  0  0  0  0  0
  146.9660  131.2998  157.4120 H   0  0  0  0  0  0  0  0  0  0  0  0
  148.1290  136.9792  159.2876 H   0  0  0  0  0  0  0  0  0  0  0  0
  148.2456  134.3417  162.6706 H   0  0  0  0  0  0  0  0  0  0  0  0
  146.4762  134.3627  162.6187 H   0  0  0  0  0  0  0  0  0  0  0  0
  147.3441  135.5028  163.6554 H   0  0  0  0  0  0  0  0  0  0  0  0
  1  2  1  0  0  0  0
  1 30  1  0  0  0  0
  1 31  1  0  0  0  0
  1 32  1  0  0  0  0
  2  3  2  0  0  0  0
  2  4  1  0  0  0  0
  4  5  1  0  0  0  0
  5  6  1  0  0  0  0
  5 33  1  0  0  0  0
  5 34  1  0  0  0  0
  6 25  1  0  0  0  0
  6  7  1  0  0  0  0
  6 35  1  0  0  0  0
  7  8  1  0  0  0  0
  8  9  1  0  0  0  0
  8 20  1  0  0  0  0
  8 36  1  0  0  0  0
  9 19  1  0  0  0  0
  9 10  1  0  0  0  0
 10 11  1  0  0  0  0
 10 12  2  0  0  0  0
 12 13  1  0  0  0  0
 13 19  2  0  0  0  0
 13 14  1  0  0  0  0
 14 15  1  0  0  0  0
 14 16  2  0  0  0  0
 15 37  1  0  0  0  0
 15 38  1  0  0  0  0
 16 17  1  0  0  0  0
 17 18  2  0  0  0  0
 17 39  1  0  0  0  0
 18 19  1  0  0  0  0
 20 21  1  0  0  0  0
 20 25  1  0  0  0  0
 20 40  1  0  0  0  0
 21 22  1  0  0  0  0
 22 23  1  0  0  0  0
 22 24  2  0  0  0  0
 23 41  1  0  0  0  0
 23 42  1  0  0  0  0
 23 43  1  0  0  0  0
 25 26  1  0  0  0  0
 25 44  1  0  0  0  0
 26 27  1  0  0  0  0
 27 28  1  0  0  0  0
 27 29  2  0  0  0  0
 28 45  1  0  0  0  0
 28 46  1  0  0  0  0
 28 47  1  0  0  0  0
M  END
> <s_m_source_file>
AV-unprocessed.smi

> <i_m_source_file_index>
104

> <i_lp_mmshare_version>
43012

> <i_f3d_flags>
0

> <s_epik_input>
W0NIM11DKD1PKU9bQ0gyXVtDQEBIXTFPW0NASF0oW0NAQEhdKE9DKD1PKVtDSDNdKVtDQEhdMU9DKD1PKVtDSDNdKW4oYyhCciluMiljKGMyMyluW2NIXW5jM1tOSDJd

> <s_epik_cmdline>
J2VwaWtfcHl0aG9uJywgJy1waCcsICc3LjAnLCAnLXRuJywgJzgnLCAnLW1hJywgJzIwMCcsICctbWV0YWxfYmluZGluZycsICctaW1hZScsICc8aW5maWxlLm1hZT4nLCAnLW9tYWUnLCAnPG91dGZpbGUubWFlPic=

> <r_lp_tautomer_probability>
1

> <r_epik_Ionization_Penalty>
7.36622e-05

> <r_epik_Ionization_Penalty_Charging>
0

> <r_epik_Ionization_Penalty_Neutral>
7.36622e-05

> <r_epik_State_Penalty>
-0

> <r_epik_Charging_Adjusted_Penalty>
0

> <i_epik_Tot_Q>
0

> <i_epik_Tot_abs_Q>
0

> <r_epik_Metal_State_Penalty>
-0

> <b_epik_Metal_Only>
0

> <s_epik_Chemistry_Notes>
This compound has an ester and may undergo hydrolysis at high or low pH. This compound contains an acetal/aminal-like group ( X-CH(R)-Y where X, Y are N, S, or O) that may be acid/base labile, releasing an aldehyde.

> <s_lp_Force_Field>
OPLS_2005

> <r_lp_Energy>
19.209

> <b_lp_Chiralities_Consistent>
1

> <s_lp_Variant>
AV-unprocessed.smi:104-15

> <Gold.Version>
5.8.1

> <Gold.Id.Protein>
6NUR|6NUR_protein|mol2

> <Gold.PLP.Fitness>
36.4817

> <Gold.PLP.PLP>
-24.4160

> <Gold.PLP.part.hbond>
-5.0000

> <Gold.PLP.part.metal>
0.0000

> <Gold.PLP.part.buried>
-3.9656

> <Gold.PLP.part.nonpolar>
-15.4589

> <Gold.PLP.part.repulsive>
0.3624

> <Gold.PLP.ligand.clash>
0.0000

> <Gold.PLP.ligand.torsion>
1.2132

> <Gold.PLP.Chemscore.Hbond>
4.7280

> <Gold.PLP.Chemscore.CHOScore>
0.0000

> <Gold.PLP.Chemscore.Metal>
0.0000

> <Gold.Chemscore.Hbonds>
donor molecule, donor type, donor heavy atom, donor atom, acceptor molecule, acceptor atom, score
      L1  H    15    38       P1 10747  1.00
      P1  H  6896  6909       L1    24  1.00
      P1  H  6931  6943       L1    29  0.94
      P1  H  6934  6947       L1    29  0.77
      P1  H 11000 11005       L1     3  1.00

> <Gold.PLP.Chemscore.Internal.Correction>
0.3081

> <Gold.Rescore>
     Score         DG    S(hbond)    S(metal)    S(lipo)     H(rot)  DE(clash)    DE(int)     intcor
      9.58     -12.39       4.65        0.00      20.46       4.31       0.04       2.77       ----

> <Gold.Chemscore.Fitness>
9.5777

> <Gold.Chemscore.DG>
-12.3890

> <Gold.Chemscore.ZeroCoef>
-5.4800

> <Gold.Chemscore.Hbond>
4.6528

> <Gold.Chemscore.Metal>
0.0000

> <Gold.Chemscore.Lipo>
20.4650

> <Gold.Chemscore.Internal_Hbond>
0.0000

> <Gold.Chemscore.DEClash>
0.0442

> <Gold.Chemscore.DEInternal>
2.7670

> <Gold.Chemscore.Rot>
4.3070

> <Gold.Chemscore.Internal.Correction>
   9.000000E+99

> <Gold.Chemscore.Hbonds>
donor molecule, donor type, donor heavy atom, donor atom, acceptor molecule, acceptor atom, score
      L1  H    15    38       P1 10747  1.00
      P1  H  6896  6909       L1    24  0.91
      P1  H  6931  6943       L1    29  0.91
      P1  H  6934  6947       L1    29  0.72
      P1  H 11000 11005       L1     3  0.93

> <Gold.Chemscore.Hbond.Weighted>
-15.5405

> <Gold.Chemscore.Metal.Weighted>
-0.0000

> <Gold.Chemscore.Lipo.Weighted>
-2.3944

> <Gold.Chemscore.Internal_Hbond.Weighted>
0.0000

> <Gold.Chemscore.DEClash.Weighted>
0.0442

> <Gold.Chemscore.DEInternal.Weighted>
2.7670

> <Gold.Chemscore.Rot.Weighted>
11.0259

> <Gold.Chemscore.Internal.Correction.Weighted>
   9.000000E+99

> <Gold.Protein.RotatedTorsions>
[ 6907 6896 6895 6894 ] final    2.67 input  -60.11 | X-H torsion
[ 7974 7965 7964 7962 ] final  -26.68 input  175.53 | X-H torsion
[ 8008 7997 7996 7995 ] final -109.06 input   59.86 | X-H torsion
[ 10167 10162 10161 10158 ] final -162.25 input  -65.29 | X-H torsion
[ 10718 10713 10712 10709 ] final  -54.91 input   66.30 | X-H torsion
[ 10763 10752 10751 10750 ] final -136.74 input  -60.55 | X-H torsion
[ 11005 11000 10999 10996 ] final -147.74 input  -57.11 | X-H torsion

> <Gold.Protein.ActiveResidues>
 VAL166  LYS551  ARG553  GLY616  TRP617  ASP618  TYR619  PRO620  LYS621  CYS622 
 ASP623  PHE694  ASN695  SER759  ASP760  ASP761  ALA762  ILE779  LEU786  VAL792 
 PHE793  MET794  SER795  GLU796  ALA797  LYS798  CYS799  TRP800  GLU811  SER814 

> <Gold.Protein.RotatedAtoms>
  151.6127  135.1039  160.0084 H   0  0  0  0  0  0  0  0  0  0  0  0  # atno 6907 bound_to 6896
  152.4200  133.7096  159.6482 H   0  0  0  0  0  0  0  0  0  0  0  0  # atno 6908 bound_to 6896
  150.8087  133.8388  159.3214 H   0  0  0  0  0  0  0  0  0  0  0  0  # atno 6909 bound_to 6896
  146.1409  140.5052  142.8652 H   0  0  0  0  0  0  0  0  0  0  0  0  # atno 7974 bound_to 7965
  154.9537  140.0400  157.2156 H   0  0  0  0  0  0  0  0  0  0  0  0  # atno 8008 bound_to 7997
  154.7955  140.2843  155.5938 H   0  0  0  0  0  0  0  0  0  0  0  0  # atno 8009 bound_to 7997
  156.2955  140.2565  156.2811 H   0  0  0  0  0  0  0  0  0  0  0  0  # atno 8010 bound_to 7997
  139.6406  144.0268  152.2088 H   0  0  0  0  0  0  0  0  0  0  0  0  # atno 10167 bound_to 10162
  156.1411  130.4154  150.0101 H   0  0  0  0  0  0  0  0  0  0  0  0  # atno 10718 bound_to 10713
  154.8677  135.3663  154.5110 H   0  0  0  0  0  0  0  0  0  0  0  0  # atno 10763 bound_to 10752
  153.5746  135.7020  153.5495 H   0  0  0  0  0  0  0  0  0  0  0  0  # atno 10764 bound_to 10752
  153.3512  135.4071  155.1610 H   0  0  0  0  0  0  0  0  0  0  0  0  # atno 10765 bound_to 10752
  140.7685  134.3216  157.5081 H   0  0  0  0  0  0  0  0  0  0  0  0  # atno 11005 bound_to 11000
  144.7791  140.5803  143.6617 LP  0  0  0  0  0  0  0  0  0  0  0  0  # atno 17320 bound_to 7965
  145.5049  139.1481  143.3637 LP  0  0  0  0  0  0  0  0  0  0  0  0  # atno 17321 bound_to 7965
  139.9956  144.6330  150.7775 LP  0  0  0  0  0  0  0  0  0  0  0  0  # atno 17342 bound_to 10162
  140.7488  143.2929  151.3283 LP  0  0  0  0  0  0  0  0  0  0  0  0  # atno 17343 bound_to 10162
  156.7986  130.9282  151.3646 LP  0  0  0  0  0  0  0  0  0  0  0  0  # atno 17370 bound_to 10713
  157.6577  130.8938  149.9763 LP  0  0  0  0  0  0  0  0  0  0  0  0  # atno 17371 bound_to 10713
  139.8759  134.9246  156.3354 LP  0  0  0  0  0  0  0  0  0  0  0  0  # atno 17394 bound_to 11000
  140.9596  133.7397  156.0383 LP  0  0  0  0  0  0  0  0  0  0  0  0  # atno 17395 bound_to 11000

$$$$
