AV-unprocessed.smi:283|AV-procd|sdf|2144|dock5
  -GOLD-   2262021473D 1   1.00000     0.00000
 Structure written by MMmdl.
 48 51  0  0  0  0  0  0  0  0  1 V2000
  150.2359  142.1369  156.9023 C   0  0  0  0  0  0  0  0  0  0  0  0
  151.0909  141.1604  157.7211 C   0  0  1  0  0  0  0  0  0  0  0  0
  152.0792  140.5229  156.8530 N   0  0  0  0  0  0  0  0  0  0  0  0
  151.7905  139.3731  156.2043 C   0  0  0  0  0  0  0  0  0  0  0  0
  152.1089  139.3462  154.8884 N   0  0  0  0  0  0  0  0  0  0  0  0
  151.8890  138.2434  154.1681 C   0  0  0  0  0  0  0  0  0  0  0  0
  151.3675  137.0807  154.5626 N   0  0  0  0  0  0  0  0  0  0  0  0
  151.0268  137.1039  155.8834 C   0  0  0  0  0  0  0  0  0  0  0  0
  151.1974  138.2059  156.7698 C   0  0  0  0  0  0  0  0  0  0  0  0
  150.7171  137.8603  158.0277 N   0  0  0  0  0  0  0  0  0  0  0  0
  150.3073  136.6293  157.8930 C   0  0  0  0  0  0  0  0  0  0  0  0
  150.4629  136.0931  156.6356 N   0  0  0  0  0  0  0  0  0  0  0  0
  150.1015  134.7159  156.1844 C   0  0  1  0  0  0  0  0  0  0  0  0
  149.9702  133.9077  157.3116 O   0  0  0  0  0  0  0  0  0  0  0  0
  148.8885  132.9975  157.1452 C   0  0  2  0  0  0  0  0  0  0  0  0
  149.4106  131.7144  156.4700 C   0  0  0  0  0  0  0  0  0  0  0  0
  150.4706  131.1704  157.2264 O   0  0  0  0  0  0  0  0  0  0  0  0
  147.8949  133.7707  156.2669 C   0  0  1  0  0  0  0  0  0  0  0  0
  147.0056  134.4925  157.0957 O   0  0  0  0  0  0  0  0  0  0  0  0
  148.7577  134.7192  155.4379 C   0  0  2  0  0  0  0  0  0  0  0  0
  148.9039  134.2023  154.1301 O   0  0  0  0  0  0  0  0  0  0  0  0
  151.6762  141.8668  158.9478 C   0  0  0  0  0  0  0  0  0  0  0  0
  151.3559  143.2215  159.2002 C   0  0  0  0  0  0  0  0  0  0  0  0
  151.8881  143.8900  160.3185 C   0  0  0  0  0  0  0  0  0  0  0  0
  152.7409  143.2077  161.2044 C   0  0  0  0  0  0  0  0  0  0  0  0
  153.0538  141.8556  160.9730 C   0  0  0  0  0  0  0  0  0  0  0  0
  152.5235  141.1812  159.8549 C   0  0  0  0  0  0  0  0  0  0  0  0
  152.9303  139.5155  159.6312 Cl  0  0  0  0  0  0  0  0  0  0  0  0
  150.9447  134.3883  155.5742 H   0  0  0  0  0  0  0  0  0  0  0  0
  148.4449  132.7463  158.1104 H   0  0  0  0  0  0  0  0  0  0  0  0
  147.2865  133.1078  155.6496 H   0  0  0  0  0  0  0  0  0  0  0  0
  148.3354  135.7242  155.3794 H   0  0  0  0  0  0  0  0  0  0  0  0
  149.4332  142.5579  157.5085 H   0  0  0  0  0  0  0  0  0  0  0  0
  149.7751  141.6375  156.0494 H   0  0  0  0  0  0  0  0  0  0  0  0
  150.8340  142.9652  156.5211 H   0  0  0  0  0  0  0  0  0  0  0  0
  150.4257  140.3650  158.0519 H   0  0  0  0  0  0  0  0  0  0  0  0
  153.0325  140.8084  157.0232 H   0  0  0  0  0  0  0  0  0  0  0  0
  152.1755  138.2985  153.1282 H   0  0  0  0  0  0  0  0  0  0  0  0
  149.8815  136.0737  158.7161 H   0  0  0  0  0  0  0  0  0  0  0  0
  148.6232  130.9612  156.4320 H   0  0  0  0  0  0  0  0  0  0  0  0
  149.7326  131.8937  155.4440 H   0  0  0  0  0  0  0  0  0  0  0  0
  151.0288  130.6753  156.6461 H   0  0  0  0  0  0  0  0  0  0  0  0
  146.6298  133.8930  157.7236 H   0  0  0  0  0  0  0  0  0  0  0  0
  148.6364  134.8667  153.5135 H   0  0  0  0  0  0  0  0  0  0  0  0
  150.7001  143.7602  158.5323 H   0  0  0  0  0  0  0  0  0  0  0  0
  151.6408  144.9263  160.4961 H   0  0  0  0  0  0  0  0  0  0  0  0
  153.1507  143.7188  162.0632 H   0  0  0  0  0  0  0  0  0  0  0  0
  153.7031  141.3325  161.6597 H   0  0  0  0  0  0  0  0  0  0  0  0
  1  2  1  0  0  0  0
  1 33  1  0  0  0  0
  1 34  1  0  0  0  0
  1 35  1  0  0  0  0
  2  3  1  0  0  0  0
  2 22  1  0  0  0  0
  2 36  1  0  0  0  0
  3  4  1  0  0  0  0
  3 37  1  0  0  0  0
  4  9  1  0  0  0  0
  4  5  2  0  0  0  0
  5  6  1  0  0  0  0
  6  7  2  0  0  0  0
  6 38  1  0  0  0  0
  7  8  1  0  0  0  0
  8 12  1  0  0  0  0
  8  9  2  0  0  0  0
  9 10  1  0  0  0  0
 10 11  2  0  0  0  0
 11 12  1  0  0  0  0
 11 39  1  0  0  0  0
 12 13  1  0  0  0  0
 13 29  1  0  0  0  0
 13 20  1  0  0  0  0
 13 14  1  0  0  0  0
 14 15  1  0  0  0  0
 15 30  1  0  0  0  0
 15 16  1  0  0  0  0
 15 18  1  0  0  0  0
 16 17  1  0  0  0  0
 16 40  1  0  0  0  0
 16 41  1  0  0  0  0
 17 42  1  0  0  0  0
 18 31  1  0  0  0  0
 18 19  1  0  0  0  0
 18 20  1  0  0  0  0
 19 43  1  0  0  0  0
 20 32  1  0  0  0  0
 20 21  1  0  0  0  0
 21 44  1  0  0  0  0
 22 27  1  0  0  0  0
 22 23  2  0  0  0  0
 23 24  1  0  0  0  0
 23 45  1  0  0  0  0
 24 25  2  0  0  0  0
 24 46  1  0  0  0  0
 25 26  1  0  0  0  0
 25 47  1  0  0  0  0
 26 27  2  0  0  0  0
 26 48  1  0  0  0  0
 27 28  1  0  0  0  0
M  END
> <s_m_source_file>
AV-unprocessed.smi

> <i_m_source_file_index>
283

> <i_lp_mmshare_version>
43012

> <i_f3d_flags>
0

> <s_epik_input>
Q2xjMVtjSF1bY0hdW2NIXVtjSF1jMVtDQEhdKFtDSDNdKVtOSF1jKG5bY0hdbjIpYyhjMjMpbltjSF1uM1tDQEBIXTRPW0NASF0oW0NIMl1bT0hdKVtDQEBIXShbT0hdKVtDQEhdNFtPSF0=

> <s_epik_cmdline>
J2VwaWtfcHl0aG9uJywgJy1waCcsICc3LjAnLCAnLXRuJywgJzgnLCAnLW1hJywgJzIwMCcsICctbWV0YWxfYmluZGluZycsICctaW1hZScsICc8aW5maWxlLm1hZT4nLCAnLW9tYWUnLCAnPG91dGZpbGUubWFlPic=

> <r_lp_tautomer_probability>
1

> <r_epik_Ionization_Penalty>
0.000266407

> <r_epik_Ionization_Penalty_Charging>
0

> <r_epik_Ionization_Penalty_Neutral>
0.000266407

> <r_epik_State_Penalty>
-0

> <r_epik_Charging_Adjusted_Penalty>
0

> <i_epik_Tot_Q>
0

> <i_epik_Tot_abs_Q>
0

> <r_epik_Metal_State_Penalty>
-0

> <b_epik_Metal_Only>
0

> <s_epik_Chemistry_Notes>
This compound contains an acetal/aminal-like group ( X-CH(R)-Y where X, Y are N, S, or O) that may be acid/base labile, releasing an aldehyde.

> <s_lp_Force_Field>
OPLS_2005

> <r_lp_Energy>
38.3642

> <b_lp_Chiralities_Consistent>
1

> <s_lp_Variant>
AV-unprocessed.smi:283-20

> <Gold.Version>
5.8.1

> <Gold.Id.Protein>
6NUR|6NUR_protein|mol2

> <Gold.PLP.Fitness>
46.9592

> <Gold.PLP.PLP>
-39.4067

> <Gold.PLP.part.hbond>
-4.0000

> <Gold.PLP.part.metal>
0.0000

> <Gold.PLP.part.buried>
-5.7439

> <Gold.PLP.part.nonpolar>
-29.9801

> <Gold.PLP.part.repulsive>
0.5075

> <Gold.PLP.ligand.clash>
0.0000

> <Gold.PLP.ligand.torsion>
1.3796

> <Gold.PLP.Chemscore.Hbond>
3.3990

> <Gold.PLP.Chemscore.CHOScore>
0.0000

> <Gold.PLP.Chemscore.Metal>
0.0000

> <Gold.Chemscore.Hbonds>
donor molecule, donor type, donor heavy atom, donor atom, acceptor molecule, acceptor atom, score
      L1  H    21    44       P1  7948  0.75
      P1  H  6896  6907       L1    14  0.72
      P1  H  7989  7998       L1     5  0.73
      P1  H 10752 10763       L1     7  0.75

> <Gold.PLP.Chemscore.Internal.Correction>
0.1148

> <Gold.Rescore>
     Score         DG    S(hbond)    S(metal)    S(lipo)     H(rot)  DE(clash)    DE(int)     intcor
      9.54     -11.55       1.60        0.00      95.87       4.10       0.03       1.97       ----

> <Gold.Chemscore.Fitness>
9.5447

> <Gold.Chemscore.DG>
-11.5451

> <Gold.Chemscore.ZeroCoef>
-5.4800

> <Gold.Chemscore.Hbond>
1.5978

> <Gold.Chemscore.Metal>
0.0000

> <Gold.Chemscore.Lipo>
95.8668

> <Gold.Chemscore.Internal_Hbond>
0.0000

> <Gold.Chemscore.DEClash>
0.0338

> <Gold.Chemscore.DEInternal>
1.9666

> <Gold.Chemscore.Rot>
4.0968

> <Gold.Chemscore.Internal.Correction>
   9.000000E+99

> <Gold.Chemscore.Hbonds>
donor molecule, donor type, donor heavy atom, donor atom, acceptor molecule, acceptor atom, score
      L1  H    21    44       P1  7948  0.46
      P1  H  6896  6907       L1    14  0.57
      P1  H  7989  7998       L1     5  0.25
      P1  H 10752 10763       L1     7  0.25

> <Gold.Chemscore.Hbond.Weighted>
-5.3366

> <Gold.Chemscore.Metal.Weighted>
-0.0000

> <Gold.Chemscore.Lipo.Weighted>
-11.2164

> <Gold.Chemscore.Internal_Hbond.Weighted>
0.0000

> <Gold.Chemscore.DEClash.Weighted>
0.0338

> <Gold.Chemscore.DEInternal.Weighted>
1.9666

> <Gold.Chemscore.Rot.Weighted>
10.4879

> <Gold.Chemscore.Internal.Correction.Weighted>
   9.000000E+99

> <Gold.Protein.RotatedTorsions>
[ 6907 6896 6895 6894 ] final -126.60 input  -60.11 | X-H torsion
[ 7974 7965 7964 7962 ] final  -83.89 input  175.53 | X-H torsion
[ 8008 7997 7996 7995 ] final  -86.40 input   59.86 | X-H torsion
[ 10167 10162 10161 10158 ] final  110.10 input  -65.29 | X-H torsion
[ 10718 10713 10712 10709 ] final -145.13 input   66.30 | X-H torsion
[ 10763 10752 10751 10750 ] final   41.69 input  -60.55 | X-H torsion
[ 11005 11000 10999 10996 ] final -143.39 input  -57.11 | X-H torsion

> <Gold.Protein.ActiveResidues>
 VAL166  LYS551  ARG553  GLY616  TRP617  ASP618  TYR619  PRO620  LYS621  CYS622 
 ASP623  PHE694  ASN695  SER759  ASP760  ASP761  ALA762  ILE779  LEU786  VAL792 
 PHE793  MET794  SER795  GLU796  ALA797  LYS798  CYS799  TRP800  GLU811  SER814 

> <Gold.Protein.RotatedAtoms>
  150.8986  133.7148  159.2884 H   0  0  0  0  0  0  0  0  0  0  0  0  # atno 6907 bound_to 6896
  151.4674  135.1042  159.9751 H   0  0  0  0  0  0  0  0  0  0  0  0  # atno 6908 bound_to 6896
  152.4863  133.8334  159.7170 H   0  0  0  0  0  0  0  0  0  0  0  0  # atno 6909 bound_to 6896
  145.5140  140.9537  143.1692 H   0  0  0  0  0  0  0  0  0  0  0  0  # atno 7974 bound_to 7965
  154.6514  140.0579  156.9960 H   0  0  0  0  0  0  0  0  0  0  0  0  # atno 8008 bound_to 7997
  155.1365  140.3261  155.4443 H   0  0  0  0  0  0  0  0  0  0  0  0  # atno 8009 bound_to 7997
  156.2578  140.1971  156.6482 H   0  0  0  0  0  0  0  0  0  0  0  0  # atno 8010 bound_to 7997
  139.6715  144.7125  151.1680 H   0  0  0  0  0  0  0  0  0  0  0  0  # atno 10167 bound_to 10162
  156.3786  130.7825  151.2015 H   0  0  0  0  0  0  0  0  0  0  0  0  # atno 10718 bound_to 10713
  152.9901  135.6154  154.2829 H   0  0  0  0  0  0  0  0  0  0  0  0  # atno 10763 bound_to 10752
  154.2557  135.2784  155.2800 H   0  0  0  0  0  0  0  0  0  0  0  0  # atno 10764 bound_to 10752
  154.5249  135.5804  153.6768 H   0  0  0  0  0  0  0  0  0  0  0  0  # atno 10765 bound_to 10752
  140.8130  134.2722  157.4933 H   0  0  0  0  0  0  0  0  0  0  0  0  # atno 11005 bound_to 11000
  144.7712  139.6731  143.7194 LP  0  0  0  0  0  0  0  0  0  0  0  0  # atno 17320 bound_to 7965
  146.2148  139.5531  142.9657 LP  0  0  0  0  0  0  0  0  0  0  0  0  # atno 17321 bound_to 7965
  140.7619  143.5837  150.8867 LP  0  0  0  0  0  0  0  0  0  0  0  0  # atno 17342 bound_to 10162
  139.9503  143.6280  152.3031 LP  0  0  0  0  0  0  0  0  0  0  0  0  # atno 17343 bound_to 10162
  157.7490  131.0351  150.4347 LP  0  0  0  0  0  0  0  0  0  0  0  0  # atno 17370 bound_to 10713
  156.4586  130.4027  149.6590 LP  0  0  0  0  0  0  0  0  0  0  0  0  # atno 17371 bound_to 10713
  139.8713  134.9493  156.4023 LP  0  0  0  0  0  0  0  0  0  0  0  0  # atno 17394 bound_to 11000
  140.9178  133.7666  155.9869 LP  0  0  0  0  0  0  0  0  0  0  0  0  # atno 17395 bound_to 11000

$$$$
