AV-unprocessed.smi:2604|AV-procd|sdf|10189|dock5
  -GOLD-   2272014203D 1   1.00000     0.00000
 Structure written by MMmdl.
 26 27  0  0  0  0  0  0  0  0  2 V2000
  141.7077  137.4471  153.5230 C   0  0  0  0  0  0  0  0  0  0  0  0
  140.6441  136.7144  154.0856 C   0  0  0  0  0  0  0  0  0  0  0  0
  140.5788  135.3658  154.0597 N   0  0  0  0  0  0  0  0  0  0  0  0
  141.5847  134.6949  153.4589 C   0  0  0  0  0  0  0  0  0  0  0  0
  142.6944  135.3287  152.8585 C   0  0  0  0  0  0  0  0  0  0  0  0
  143.7947  134.5035  152.2114 C   0  0  2  0  0  0  0  0  0  0  0  0
  144.1696  135.0662  150.8213 C   0  0  0  0  0  0  0  0  0  0  0  0
  145.2682  134.2803  150.2236 N   0  3  0  0  0  0  0  0  0  0  0  0
  144.9221  132.8469  150.1579 C   0  0  0  0  0  0  0  0  0  0  0  0
  144.5464  132.3321  151.5592 C   0  0  0  0  0  0  0  0  0  0  0  0
  143.4168  133.0961  152.0795 N   0  0  0  0  0  0  0  0  0  0  0  0
  142.7531  136.7395  152.8993 C   0  0  0  0  0  0  0  0  0  0  0  0
  141.7206  138.5260  153.5699 H   0  0  0  0  0  0  0  0  0  0  0  0
  139.8254  137.2247  154.5707 H   0  0  0  0  0  0  0  0  0  0  0  0
  141.5003  133.6181  153.4593 H   0  0  0  0  0  0  0  0  0  0  0  0
  144.6680  134.5546  152.8639 H   0  0  0  0  0  0  0  0  0  0  0  0
  143.3096  135.0512  150.1499 H   0  0  0  0  0  0  0  0  0  0  0  0
  144.4909  136.1047  150.9057 H   0  0  0  0  0  0  0  0  0  0  0  0
  145.4615  134.6241  149.2938 H   0  0  0  0  0  0  0  0  0  0  0  0
  144.0955  132.7018  149.4606 H   0  0  0  0  0  0  0  0  0  0  0  0
  145.7743  132.2920  149.7648 H   0  0  0  0  0  0  0  0  0  0  0  0
  144.2669  131.2796  151.5086 H   0  0  0  0  0  0  0  0  0  0  0  0
  145.3937  132.4059  152.2425 H   0  0  0  0  0  0  0  0  0  0  0  0
  143.1468  132.7319  152.9829 H   0  0  0  0  0  0  0  0  0  0  0  0
  143.5842  137.2735  152.4623 H   0  0  0  0  0  0  0  0  0  0  0  0
  146.0930  134.3884  150.7960 H   0  0  0  0  0  0  0  0  0  0  0  0
  1 12  1  0  0  0  0
  1  2  2  0  0  0  0
  1 13  1  0  0  0  0
  2  3  1  0  0  0  0
  2 14  1  0  0  0  0
  3  4  2  0  0  0  0
  4  5  1  0  0  0  0
  4 15  1  0  0  0  0
  5  6  1  0  0  0  0
  5 12  2  0  0  0  0
  6 11  1  0  0  0  0
  6  7  1  0  0  0  0
  6 16  1  0  0  0  0
  7  8  1  0  0  0  0
  7 17  1  0  0  0  0
  7 18  1  0  0  0  0
  8  9  1  0  0  0  0
  8 19  1  0  0  0  0
  8 26  1  0  0  0  0
  9 10  1  0  0  0  0
  9 20  1  0  0  0  0
  9 21  1  0  0  0  0
 10 11  1  0  0  0  0
 10 22  1  0  0  0  0
 10 23  1  0  0  0  0
 11 24  1  0  0  0  0
 12 25  1  0  0  0  0
M  CHG  1   8   1
M  END
> <s_m_source_file>
AV-unprocessed.smi

> <i_m_source_file_index>
2604

> <i_lp_mmshare_version>
43012

> <i_f3d_flags>
0

> <s_epik_input>
W2NIXTFbY0hdW2NIXW5bY0hdYzFbQ0BASF0yW0NIMl1bTkhdW0NIMl1bQ0gyXVtOSF0y

> <s_epik_cmdline>
J2VwaWtfcHl0aG9uJywgJy1waCcsICc3LjAnLCAnLXRuJywgJzgnLCAnLW1hJywgJzIwMCcsICctbWV0YWxfYmluZGluZycsICctaW1hZScsICc8aW5maWxlLm1hZT4nLCAnLW9tYWUnLCAnPG91dGZpbGUubWFlPic=

> <r_epik_Ionization_Penalty>
0.0181456

> <r_epik_Ionization_Penalty_Charging>
0.010317

> <r_epik_Ionization_Penalty_Neutral>
0.00782861

> <r_epik_State_Penalty>
0.306622

> <r_epik_Charging_Adjusted_Penalty>
0.316939

> <i_epik_Tot_Q>
1

> <i_epik_Tot_abs_Q>
1

> <r_epik_Metal_State_Penalty>
0.302658

> <b_epik_Metal_Only>
0

> <s_lp_Force_Field>
OPLS_2005

> <r_lp_Energy>
10.6943

> <b_lp_Chiralities_Consistent>
1

> <s_lp_Variant>
AV-unprocessed.smi:2604-1

> <Gold.Version>
5.8.1

> <Gold.Id.Protein>
6NUR|6NUR_protein|mol2

> <Gold.PLP.Fitness>
37.0981

> <Gold.PLP.PLP>
-25.9605

> <Gold.PLP.part.hbond>
-3.1392

> <Gold.PLP.part.metal>
0.0000

> <Gold.PLP.part.buried>
-6.5393

> <Gold.PLP.part.nonpolar>
-17.5146

> <Gold.PLP.part.repulsive>
0.2296

> <Gold.PLP.ligand.clash>
0.0000

> <Gold.PLP.ligand.torsion>
0.2515

> <Gold.PLP.Chemscore.Hbond>
2.8775

> <Gold.PLP.Chemscore.CHOScore>
1.0000

> <Gold.PLP.Chemscore.Metal>
0.0000

> <Gold.Chemscore.Hbonds>
donor molecule, donor type, donor heavy atom, donor atom, acceptor molecule, acceptor atom, score
      L1  H     8    19       P1  7921  1.00
      L1  H    11    24       P1 10957  0.88
      P1  H 11000 11005       L1     3  1.00
      L1  C     4    15       P1 10957  1.00

> <Gold.PLP.Chemscore.Internal.Correction>
0.0081

> <Gold.Rescore>
     Score         DG    S(hbond)    S(metal)    S(lipo)     H(rot)  DE(clash)    DE(int)     intcor
     16.60     -17.06       2.44        0.00      51.34       1.00       0.15       0.32       ----

> <Gold.Chemscore.Fitness>
16.5963

> <Gold.Chemscore.DG>
-17.0650

> <Gold.Chemscore.ZeroCoef>
-5.4800

> <Gold.Chemscore.Hbond>
2.4365

> <Gold.Chemscore.Metal>
0.0000

> <Gold.Chemscore.Lipo>
51.3430

> <Gold.Chemscore.Internal_Hbond>
0.0000

> <Gold.Chemscore.DEClash>
0.1456

> <Gold.Chemscore.DEInternal>
0.3230

> <Gold.Chemscore.Rot>
1.0000

> <Gold.Chemscore.Internal.Correction>
   9.000000E+99

> <Gold.Chemscore.Hbonds>
donor molecule, donor type, donor heavy atom, donor atom, acceptor molecule, acceptor atom, score
      L1  H     8    19       P1  7921  0.99
      L1  H    11    24       P1 10957  0.22
      P1  H 11000 11005       L1     3  0.33

> <Gold.Chemscore.Hbond.Weighted>
-8.1378

> <Gold.Chemscore.Metal.Weighted>
-0.0000

> <Gold.Chemscore.Lipo.Weighted>
-6.0071

> <Gold.Chemscore.Internal_Hbond.Weighted>
0.0000

> <Gold.Chemscore.DEClash.Weighted>
0.1456

> <Gold.Chemscore.DEInternal.Weighted>
0.3230

> <Gold.Chemscore.Rot.Weighted>
2.5600

> <Gold.Chemscore.Internal.Correction.Weighted>
   9.000000E+99

> <Gold.Protein.RotatedTorsions>
[ 6907 6896 6895 6894 ] final  -93.26 input  -60.11 | X-H torsion
[ 7974 7965 7964 7962 ] final   42.35 input  175.53 | X-H torsion
[ 8008 7997 7996 7995 ] final   38.94 input   59.86 | X-H torsion
[ 10167 10162 10161 10158 ] final  162.37 input  -65.29 | X-H torsion
[ 10718 10713 10712 10709 ] final  171.33 input   66.30 | X-H torsion
[ 10763 10752 10751 10750 ] final  118.47 input  -60.55 | X-H torsion
[ 11005 11000 10999 10996 ] final   28.82 input  -57.11 | X-H torsion

> <Gold.Protein.ActiveResidues>
 VAL166  LYS551  ARG553  GLY616  TRP617  ASP618  TYR619  PRO620  LYS621  CYS622 
 ASP623  PHE694  ASN695  SER759  ASP760  ASP761  ALA762  ILE779  LEU786  VAL792 
 PHE793  MET794  SER795  GLU796  ALA797  LYS798  CYS799  TRP800  GLU811  SER814 

> <Gold.Protein.RotatedAtoms>
  150.6919  134.1995  159.4316 H   0  0  0  0  0  0  0  0  0  0  0  0  # atno 6907 bound_to 6896
  151.9962  134.9950  160.0572 H   0  0  0  0  0  0  0  0  0  0  0  0  # atno 6908 bound_to 6896
  152.1621  133.4553  159.4903 H   0  0  0  0  0  0  0  0  0  0  0  0  # atno 6909 bound_to 6896
  146.0748  139.5311  142.9575 H   0  0  0  0  0  0  0  0  0  0  0  0  # atno 7974 bound_to 7965
  155.2284  140.3336  155.4306 H   0  0  0  0  0  0  0  0  0  0  0  0  # atno 8008 bound_to 7997
  156.2305  140.1848  156.7301 H   0  0  0  0  0  0  0  0  0  0  0  0  # atno 8009 bound_to 7997
  154.5970  140.0629  156.9302 H   0  0  0  0  0  0  0  0  0  0  0  0  # atno 8010 bound_to 7997
  139.4860  144.4444  151.8911 H   0  0  0  0  0  0  0  0  0  0  0  0  # atno 10167 bound_to 10162
  156.9951  131.0159  151.2846 H   0  0  0  0  0  0  0  0  0  0  0  0  # atno 10718 bound_to 10713
  153.5681  135.3507  155.2827 H   0  0  0  0  0  0  0  0  0  0  0  0  # atno 10763 bound_to 10752
  154.8686  135.4153  154.2755 H   0  0  0  0  0  0  0  0  0  0  0  0  # atno 10764 bound_to 10752
  153.3515  135.7055  153.6854 H   0  0  0  0  0  0  0  0  0  0  0  0  # atno 10765 bound_to 10752
  140.3115  134.2644  155.7733 H   0  0  0  0  0  0  0  0  0  0  0  0  # atno 11005 bound_to 11000
  145.6326  141.0301  143.1855 LP  0  0  0  0  0  0  0  0  0  0  0  0  # atno 17320 bound_to 7965
  144.7254  139.7892  143.7367 LP  0  0  0  0  0  0  0  0  0  0  0  0  # atno 17321 bound_to 7965
  140.3897  144.2631  150.5901 LP  0  0  0  0  0  0  0  0  0  0  0  0  # atno 17342 bound_to 10162
  140.5157  143.2278  151.8466 LP  0  0  0  0  0  0  0  0  0  0  0  0  # atno 17343 bound_to 10162
  157.5430  130.8132  149.8052 LP  0  0  0  0  0  0  0  0  0  0  0  0  # atno 17370 bound_to 10713
  156.0192  130.3802  150.2014 LP  0  0  0  0  0  0  0  0  0  0  0  0  # atno 17371 bound_to 10713
  141.2107  133.7712  156.9915 LP  0  0  0  0  0  0  0  0  0  0  0  0  # atno 17394 bound_to 11000
  140.1020  134.9529  157.1938 LP  0  0  0  0  0  0  0  0  0  0  0  0  # atno 17395 bound_to 11000

$$$$
