AV-unprocessed.smi:1072|AV-procd|sdf|4687|dock4
  -GOLD-   22720 3203D 1   1.00000     0.00000
 Structure written by MMmdl.
 45 46  0  0  0  0  0  0  0  0  2 V2000
  146.6574  141.8745  152.8030 C   0  0  0  0  0  0  0  0  0  0  0  0
  147.4254  141.7816  154.1042 C   0  0  0  0  0  0  0  0  0  0  0  0
  146.8099  141.9739  155.2082 N   0  0  0  0  0  0  0  0  0  0  0  0
  147.5179  141.8863  156.4189 C   0  0  0  0  0  0  0  0  0  0  0  0
  146.7087  142.1308  157.6808 C   0  0  0  0  0  0  0  0  0  0  0  0
  148.8506  141.5971  156.4379 C   0  0  0  0  0  0  0  0  0  0  0  0
  149.6631  141.4913  157.7286 C   0  0  0  0  0  0  0  0  0  0  0  0
  150.6770  142.6111  157.9741 C   0  0  0  0  0  0  0  0  0  0  0  0
  151.0900  143.2914  157.0354 O   0  0  0  0  0  0  0  0  0  0  0  0
  151.0659  142.7781  159.2503 N   0  0  0  0  0  0  0  0  0  0  0  0
  152.0259  143.7472  159.7985 C   0  0  1  0  0  0  0  0  0  0  0  0
  151.5809  145.1822  159.4421 C   0  0  0  0  0  0  0  0  0  0  0  0
  152.1799  143.5954  161.3349 C   0  0  0  0  0  0  0  0  0  0  0  0
  152.7578  142.2287  161.7439 C   0  0  0  0  0  0  0  0  0  0  0  0
  154.1181  141.9693  161.0716 C   0  0  1  0  0  0  0  0  0  0  0  0
  154.6900  140.6014  161.4697 C   0  0  0  0  0  0  0  0  0  0  0  0
  153.9965  142.1080  159.5429 C   0  0  0  0  0  0  0  0  0  0  0  0
  153.3989  143.4702  159.1398 C   0  0  0  0  0  0  0  0  0  0  0  0
  149.5220  141.3785  155.1441 C   0  0  0  0  0  0  0  0  0  0  0  0
  150.7202  141.1017  155.1047 O   0  0  0  0  0  0  0  0  0  0  0  0
  148.7682  141.4917  154.0133 N   0  5  0  0  0  0  0  0  0  0  0  0
  145.5817  141.8938  152.9826 H   0  0  0  0  0  0  0  0  0  0  0  0
  146.8802  141.0173  152.1667 H   0  0  0  0  0  0  0  0  0  0  0  0
  146.9336  142.7833  152.2678 H   0  0  0  0  0  0  0  0  0  0  0  0
  147.0770  143.0120  158.2063 H   0  0  0  0  0  0  0  0  0  0  0  0
  146.7722  141.2734  158.3510 H   0  0  0  0  0  0  0  0  0  0  0  0
  145.6559  142.2949  157.4486 H   0  0  0  0  0  0  0  0  0  0  0  0
  149.0076  141.4301  158.5976 H   0  0  0  0  0  0  0  0  0  0  0  0
  150.1927  140.5381  157.7168 H   0  0  0  0  0  0  0  0  0  0  0  0
  150.6485  142.1560  159.9272 H   0  0  0  0  0  0  0  0  0  0  0  0
  152.3262  145.9150  159.7525 H   0  0  0  0  0  0  0  0  0  0  0  0
  150.6455  145.4549  159.9309 H   0  0  0  0  0  0  0  0  0  0  0  0
  151.4368  145.2971  158.3672 H   0  0  0  0  0  0  0  0  0  0  0  0
  152.8430  144.3774  161.7069 H   0  0  0  0  0  0  0  0  0  0  0  0
  151.2293  143.7570  161.8432 H   0  0  0  0  0  0  0  0  0  0  0  0
  152.8674  142.1929  162.8283 H   0  0  0  0  0  0  0  0  0  0  0  0
  152.0546  141.4367  161.4832 H   0  0  0  0  0  0  0  0  0  0  0  0
  154.8155  142.7319  161.4217 H   0  0  0  0  0  0  0  0  0  0  0  0
  154.0369  139.7895  161.1482 H   0  0  0  0  0  0  0  0  0  0  0  0
  154.8082  140.5249  162.5508 H   0  0  0  0  0  0  0  0  0  0  0  0
  155.6697  140.4389  161.0193 H   0  0  0  0  0  0  0  0  0  0  0  0
  154.9784  141.9936  159.0822 H   0  0  0  0  0  0  0  0  0  0  0  0
  153.3799  141.3005  159.1459 H   0  0  0  0  0  0  0  0  0  0  0  0
  153.3123  143.5219  158.0534 H   0  0  0  0  0  0  0  0  0  0  0  0
  154.1032  144.2548  159.4206 H   0  0  0  0  0  0  0  0  0  0  0  0
  1  2  1  0  0  0  0
  1 22  1  0  0  0  0
  1 23  1  0  0  0  0
  1 24  1  0  0  0  0
  2 21  1  0  0  0  0
  2  3  2  0  0  0  0
  3  4  1  0  0  0  0
  4  5  1  0  0  0  0
  4  6  2  0  0  0  0
  5 25  1  0  0  0  0
  5 26  1  0  0  0  0
  5 27  1  0  0  0  0
  6  7  1  0  0  0  0
  6 19  1  0  0  0  0
  7  8  1  0  0  0  0
  7 28  1  0  0  0  0
  7 29  1  0  0  0  0
  8  9  2  0  0  0  0
  8 10  1  0  0  0  0
 10 11  1  0  0  0  0
 10 30  1  0  0  0  0
 11 18  1  0  0  0  0
 11 12  1  0  0  0  0
 11 13  1  0  0  0  0
 12 31  1  0  0  0  0
 12 32  1  0  0  0  0
 12 33  1  0  0  0  0
 13 14  1  0  0  0  0
 13 34  1  0  0  0  0
 13 35  1  0  0  0  0
 14 15  1  0  0  0  0
 14 36  1  0  0  0  0
 14 37  1  0  0  0  0
 15 16  1  0  0  0  0
 15 17  1  0  0  0  0
 15 38  1  0  0  0  0
 16 39  1  0  0  0  0
 16 40  1  0  0  0  0
 16 41  1  0  0  0  0
 17 18  1  0  0  0  0
 17 42  1  0  0  0  0
 17 43  1  0  0  0  0
 18 44  1  0  0  0  0
 18 45  1  0  0  0  0
 19 20  2  0  0  0  0
 19 21  1  0  0  0  0
M  CHG  1  21  -1
M  END
> <s_m_source_file>
AV-unprocessed.smi

> <i_m_source_file_index>
1072

> <i_lp_mmshare_version>
43012

> <i_f3d_flags>
0

> <s_epik_input>
W0NIM11jMW5jKFtDSDNdKWMoYyg9TylbbkhdMSlbQ0gyXUMoPU8pW05IXVtDQEBdMihbQ0gzXSlbQ0gyXVtDSDJdW0NAQEhdKFtDSDNdKVtDSDJdW0NIMl0y

> <s_epik_cmdline>
J2VwaWtfcHl0aG9uJywgJy1waCcsICc3LjAnLCAnLXRuJywgJzgnLCAnLW1hJywgJzIwMCcsICctbWV0YWxfYmluZGluZycsICctaW1hZScsICc8aW5maWxlLm1hZT4nLCAnLW9tYWUnLCAnPG91dGZpbGUubWFlPic=

> <r_lp_tautomer_probability>
0.839158

> <r_epik_Ionization_Penalty>
6.73882

> <r_epik_Ionization_Penalty_Charging>
8.02239e-08

> <r_epik_Ionization_Penalty_Neutral>
6.73882

> <r_epik_State_Penalty>
4.55873

> <r_epik_Charging_Adjusted_Penalty>
4.55873

> <i_epik_Tot_Q>
-1

> <i_epik_Tot_abs_Q>
1

> <r_epik_Metal_State_Penalty>
0.872514

> <b_epik_Metal_Only>
1

> <s_lp_Force_Field>
OPLS_2005

> <r_lp_Energy>
14.8033

> <b_lp_Chiralities_Consistent>
1

> <s_lp_Variant>
AV-unprocessed.smi:1072-5

> <Gold.Version>
5.8.1

> <Gold.Id.Protein>
6NUR|6NUR_protein|mol2

> <Gold.PLP.Fitness>
44.3282

> <Gold.PLP.PLP>
-40.9243

> <Gold.PLP.part.hbond>
-2.4448

> <Gold.PLP.part.metal>
0.0000

> <Gold.PLP.part.buried>
-3.8023

> <Gold.PLP.part.nonpolar>
-34.4204

> <Gold.PLP.part.repulsive>
0.8098

> <Gold.PLP.ligand.clash>
0.0000

> <Gold.PLP.ligand.torsion>
0.3996

> <Gold.PLP.Chemscore.Hbond>
1.3994

> <Gold.PLP.Chemscore.CHOScore>
0.0000

> <Gold.PLP.Chemscore.Metal>
0.0000

> <Gold.Chemscore.Hbonds>
donor molecule, donor type, donor heavy atom, donor atom, acceptor molecule, acceptor atom, score
      P1  H  7989  7998       L1    20  0.66
      P1  H  8011  8017       L1    21  0.44

> <Gold.PLP.Chemscore.Internal.Correction>
0.0047

> <Gold.Rescore>
     Score         DG    S(hbond)    S(metal)    S(lipo)     H(rot)  DE(clash)    DE(int)     intcor
     15.95     -18.20       1.03        0.00     110.74       1.43       1.64       0.61       ----

> <Gold.Chemscore.Fitness>
15.9506

> <Gold.Chemscore.DG>
-18.1969

> <Gold.Chemscore.ZeroCoef>
-5.4800

> <Gold.Chemscore.Hbond>
1.0271

> <Gold.Chemscore.Metal>
0.0000

> <Gold.Chemscore.Lipo>
110.7435

> <Gold.Chemscore.Internal_Hbond>
0.0000

> <Gold.Chemscore.DEClash>
1.6376

> <Gold.Chemscore.DEInternal>
0.6087

> <Gold.Chemscore.Rot>
1.4339

> <Gold.Chemscore.Internal.Correction>
   9.000000E+99

> <Gold.Chemscore.Hbonds>
donor molecule, donor type, donor heavy atom, donor atom, acceptor molecule, acceptor atom, score
      P1  H  7989  7998       L1    20  0.65
      P1  H  8011  8017       L1    21  0.36

> <Gold.Chemscore.Hbond.Weighted>
-3.4307

> <Gold.Chemscore.Metal.Weighted>
-0.0000

> <Gold.Chemscore.Lipo.Weighted>
-12.9570

> <Gold.Chemscore.Internal_Hbond.Weighted>
0.0000

> <Gold.Chemscore.DEClash.Weighted>
1.6376

> <Gold.Chemscore.DEInternal.Weighted>
0.6087

> <Gold.Chemscore.Rot.Weighted>
3.6708

> <Gold.Chemscore.Internal.Correction.Weighted>
   9.000000E+99

> <Gold.Protein.RotatedTorsions>
[ 6907 6896 6895 6894 ] final -138.38 input  -60.11 | X-H torsion
[ 7974 7965 7964 7962 ] final   -7.39 input  175.53 | X-H torsion
[ 8008 7997 7996 7995 ] final  177.87 input   59.86 | X-H torsion
[ 10167 10162 10161 10158 ] final  -97.80 input  -65.29 | X-H torsion
[ 10718 10713 10712 10709 ] final  160.31 input   66.30 | X-H torsion
[ 10763 10752 10751 10750 ] final   98.37 input  -60.55 | X-H torsion
[ 11005 11000 10999 10996 ] final  -52.00 input  -57.11 | X-H torsion

> <Gold.Protein.ActiveResidues>
 VAL166  LYS551  ARG553  GLY616  TRP617  ASP618  TYR619  PRO620  LYS621  CYS622 
 ASP623  PHE694  ASN695  SER759  ASP760  ASP761  ALA762  ILE779  LEU786  VAL792 
 PHE793  MET794  SER795  GLU796  ALA797  LYS798  CYS799  TRP800  GLU811  SER814 

> <Gold.Protein.RotatedAtoms>
  151.0343  133.5763  159.2657 H   0  0  0  0  0  0  0  0  0  0  0  0  # atno 6907 bound_to 6896
  151.2833  135.0719  159.9187 H   0  0  0  0  0  0  0  0  0  0  0  0  # atno 6908 bound_to 6896
  152.5351  134.0053  159.7968 H   0  0  0  0  0  0  0  0  0  0  0  0  # atno 6909 bound_to 6896
  146.2308  140.2313  142.8340 H   0  0  0  0  0  0  0  0  0  0  0  0  # atno 7974 bound_to 7965
  156.0609  140.1347  156.9942 H   0  0  0  0  0  0  0  0  0  0  0  0  # atno 8008 bound_to 7997
  154.4481  140.0991  156.6587 H   0  0  0  0  0  0  0  0  0  0  0  0  # atno 8009 bound_to 7997
  155.5378  140.3460  155.4442 H   0  0  0  0  0  0  0  0  0  0  0  0  # atno 8010 bound_to 7997
  140.2796  143.3290  152.0454 H   0  0  0  0  0  0  0  0  0  0  0  0  # atno 10167 bound_to 10162
  157.1522  131.0567  151.2274 H   0  0  0  0  0  0  0  0  0  0  0  0  # atno 10718 bound_to 10713
  153.2882  135.4151  155.1142 H   0  0  0  0  0  0  0  0  0  0  0  0  # atno 10763 bound_to 10752
  154.8512  135.3512  154.6018 H   0  0  0  0  0  0  0  0  0  0  0  0  # atno 10764 bound_to 10752
  153.6440  135.7055  153.5290 H   0  0  0  0  0  0  0  0  0  0  0  0  # atno 10765 bound_to 10752
  141.0901  133.6634  156.3960 H   0  0  0  0  0  0  0  0  0  0  0  0  # atno 11005 bound_to 11000
  144.9556  140.8223  143.5545 LP  0  0  0  0  0  0  0  0  0  0  0  0  # atno 17320 bound_to 7965
  145.2278  139.2129  143.5059 LP  0  0  0  0  0  0  0  0  0  0  0  0  # atno 17321 bound_to 7965
  139.4966  144.6600  151.6485 LP  0  0  0  0  0  0  0  0  0  0  0  0  # atno 17342 bound_to 10162
  140.5822  143.9925  150.6275 LP  0  0  0  0  0  0  0  0  0  0  0  0  # atno 17343 bound_to 10162
  157.4210  130.7437  149.6913 LP  0  0  0  0  0  0  0  0  0  0  0  0  # atno 17370 bound_to 10713
  155.9768  130.4070  150.3752 LP  0  0  0  0  0  0  0  0  0  0  0  0  # atno 17371 bound_to 10713
  140.5272  134.6247  157.5338 LP  0  0  0  0  0  0  0  0  0  0  0  0  # atno 17394 bound_to 11000
  139.9725  134.7269  156.0013 LP  0  0  0  0  0  0  0  0  0  0  0  0  # atno 17395 bound_to 11000

$$$$
