AV-unprocessed.smi:3321|AV-procd|sdf|12772|dock3
  -GOLD-   2272019113D 1   1.00000     0.00000
 Structure written by MMmdl.
 40 41  0  0  0  0  0  0  0  0  1 V2000
  146.7148  140.5254  153.9119 C   0  0  0  0  0  0  0  0  0  0  0  0
  147.8109  139.4647  153.7240 C   0  0  1  0  0  0  0  0  0  0  0  0
  147.7944  138.9908  152.3278 N   0  0  0  0  0  0  0  0  0  0  0  0
  146.4592  138.6807  151.8240 C   0  0  0  0  0  0  0  0  0  0  0  0
  145.7484  137.7013  152.7732 C   0  0  0  0  0  0  0  0  0  0  0  0
  145.2169  136.5411  152.0800 N   0  0  0  0  0  0  0  0  0  0  0  0
  145.8544  135.7173  151.1763 C   0  0  0  0  0  0  0  0  0  0  0  0
  144.9546  134.7665  150.7882 C   0  0  0  0  0  0  0  0  0  0  0  0
  143.7796  135.0952  151.5205 C   0  0  0  0  0  0  0  0  0  0  0  0
  143.9400  136.1569  152.2940 N   0  0  0  0  0  0  0  0  0  0  0  0
  149.1796  140.0355  154.1648 C   0  0  0  0  0  0  0  0  0  0  0  0
  149.5168  141.1360  153.7232 O   0  0  0  0  0  0  0  0  0  0  0  0
  149.9714  139.3335  155.0150 N   0  0  0  0  0  0  0  0  0  0  0  0
  151.3363  139.7607  155.3525 C   0  0  0  0  0  0  0  0  0  0  0  0
  152.3314  138.7878  154.6919 C   0  0  0  0  0  0  0  0  0  0  0  0
  152.0510  137.3327  155.1162 C   0  0  0  0  0  0  0  0  0  0  0  0
  150.5632  136.9650  154.9518 C   0  0  0  0  0  0  0  0  0  0  0  0
  149.6666  138.0264  155.6134 C   0  0  0  0  0  0  0  0  0  0  0  0
  146.6727  140.8825  154.9415 H   0  0  0  0  0  0  0  0  0  0  0  0
  145.7325  140.1183  153.6698 H   0  0  0  0  0  0  0  0  0  0  0  0
  146.8822  141.3902  153.2685 H   0  0  0  0  0  0  0  0  0  0  0  0
  147.5605  138.6000  154.3370 H   0  0  0  0  0  0  0  0  0  0  0  0
  148.4080  138.1992  152.1969 H   0  0  0  0  0  0  0  0  0  0  0  0
  145.8635  139.5901  151.7449 H   0  0  0  0  0  0  0  0  0  0  0  0
  146.5244  138.2525  150.8226 H   0  0  0  0  0  0  0  0  0  0  0  0
  146.4278  137.3635  153.5569 H   0  0  0  0  0  0  0  0  0  0  0  0
  144.9225  138.2066  153.2759 H   0  0  0  0  0  0  0  0  0  0  0  0
  146.8821  135.8778  150.8856 H   0  0  0  0  0  0  0  0  0  0  0  0
  145.1113  133.9603  150.0872 H   0  0  0  0  0  0  0  0  0  0  0  0
  142.8212  134.5973  151.5129 H   0  0  0  0  0  0  0  0  0  0  0  0
  151.5550  140.7817  155.0376 H   0  0  0  0  0  0  0  0  0  0  0  0
  151.4645  139.7533  156.4358 H   0  0  0  0  0  0  0  0  0  0  0  0
  152.2539  138.8721  153.6071 H   0  0  0  0  0  0  0  0  0  0  0  0
  153.3542  139.0621  154.9514 H   0  0  0  0  0  0  0  0  0  0  0  0
  152.6756  136.6455  154.5450 H   0  0  0  0  0  0  0  0  0  0  0  0
  152.3337  137.2082  156.1624 H   0  0  0  0  0  0  0  0  0  0  0  0
  150.3171  136.8889  153.8917 H   0  0  0  0  0  0  0  0  0  0  0  0
  150.3707  135.9842  155.3873 H   0  0  0  0  0  0  0  0  0  0  0  0
  149.8760  138.0678  156.6833 H   0  0  0  0  0  0  0  0  0  0  0  0
  148.6193  137.7393  155.5492 H   0  0  0  0  0  0  0  0  0  0  0  0
  1  2  1  0  0  0  0
  1 19  1  0  0  0  0
  1 20  1  0  0  0  0
  1 21  1  0  0  0  0
  2  3  1  0  0  0  0
  2 11  1  0  0  0  0
  2 22  1  0  0  0  0
  3  4  1  0  0  0  0
  3 23  1  0  0  0  0
  4  5  1  0  0  0  0
  4 24  1  0  0  0  0
  4 25  1  0  0  0  0
  5  6  1  0  0  0  0
  5 26  1  0  0  0  0
  5 27  1  0  0  0  0
  6 10  1  0  0  0  0
  6  7  1  0  0  0  0
  7  8  2  0  0  0  0
  7 28  1  0  0  0  0
  8  9  1  0  0  0  0
  8 29  1  0  0  0  0
  9 10  2  0  0  0  0
  9 30  1  0  0  0  0
 11 12  2  0  0  0  0
 11 13  1  0  0  0  0
 13 18  1  0  0  0  0
 13 14  1  0  0  0  0
 14 15  1  0  0  0  0
 14 31  1  0  0  0  0
 14 32  1  0  0  0  0
 15 16  1  0  0  0  0
 15 33  1  0  0  0  0
 15 34  1  0  0  0  0
 16 17  1  0  0  0  0
 16 35  1  0  0  0  0
 16 36  1  0  0  0  0
 17 18  1  0  0  0  0
 17 37  1  0  0  0  0
 17 38  1  0  0  0  0
 18 39  1  0  0  0  0
 18 40  1  0  0  0  0
M  END
> <s_m_source_file>
AV-unprocessed.smi

> <i_m_source_file_index>
3321

> <i_lp_mmshare_version>
43012

> <i_f3d_flags>
0

> <s_epik_input>
W0NIMl0xW0NIMl1bQ0gyXVtDSDJdW0NIMl1OMUMoPU8pW0NASF0oW0NIM10pW05IXVtDSDJdW0NIMl1uMltjSF1bY0hdW2NIXW4y

> <s_epik_cmdline>
J2VwaWtfcHl0aG9uJywgJy1waCcsICc3LjAnLCAnLXRuJywgJzgnLCAnLW1hJywgJzIwMCcsICctbWV0YWxfYmluZGluZycsICctaW1hZScsICc8aW5maWxlLm1hZT4nLCAnLW9tYWUnLCAnPG91dGZpbGUubWFlPic=

> <r_lp_tautomer_probability>
1

> <r_epik_Ionization_Penalty>
0.736446

> <r_epik_Ionization_Penalty_Charging>
0

> <r_epik_Ionization_Penalty_Neutral>
0.736446

> <r_epik_State_Penalty>
0.761204

> <r_epik_Charging_Adjusted_Penalty>
0.761204

> <i_epik_Tot_Q>
0

> <i_epik_Tot_abs_Q>
0

> <r_epik_Metal_State_Penalty>
0.760551

> <b_epik_Metal_Only>
0

> <s_lp_Force_Field>
OPLS_2005

> <r_lp_Energy>
28.7251

> <b_lp_Chiralities_Consistent>
1

> <s_lp_Variant>
AV-unprocessed.smi:3321-4

> <Gold.Version>
5.8.1

> <Gold.Id.Protein>
6NUR|6NUR_protein|mol2

> <Gold.PLP.Fitness>
42.0763

> <Gold.PLP.PLP>
-32.2343

> <Gold.PLP.part.hbond>
-3.4076

> <Gold.PLP.part.metal>
0.0000

> <Gold.PLP.part.buried>
1.5391

> <Gold.PLP.part.nonpolar>
-31.8327

> <Gold.PLP.part.repulsive>
2.1845

> <Gold.PLP.ligand.clash>
0.0000

> <Gold.PLP.ligand.torsion>
0.8113

> <Gold.PLP.Chemscore.Hbond>
2.1776

> <Gold.PLP.Chemscore.CHOScore>
1.6120

> <Gold.PLP.Chemscore.Metal>
0.0000

> <Gold.Chemscore.Hbonds>
donor molecule, donor type, donor heavy atom, donor atom, acceptor molecule, acceptor atom, score
      L1  H     3    23       P1  7948  0.99
      P1  H  7989  7998       L1    12  0.23
      P1  H  8011  8017       L1    12  0.93
      L1  C     7    28       P1  7948  1.00
      L1  C     9    30       P1 10186  0.36

> <Gold.PLP.Chemscore.Internal.Correction>
0.0959

> <Gold.Rescore>
     Score         DG    S(hbond)    S(metal)    S(lipo)     H(rot)  DE(clash)    DE(int)     intcor
     14.13     -16.47       2.01        0.00      74.33       1.73       1.53       0.82       ----

> <Gold.Chemscore.Fitness>
14.1267

> <Gold.Chemscore.DG>
-16.4738

> <Gold.Chemscore.ZeroCoef>
-5.4800

> <Gold.Chemscore.Hbond>
2.0120

> <Gold.Chemscore.Metal>
0.0000

> <Gold.Chemscore.Lipo>
74.3300

> <Gold.Chemscore.Internal_Hbond>
0.0000

> <Gold.Chemscore.DEClash>
1.5309

> <Gold.Chemscore.DEInternal>
0.8162

> <Gold.Chemscore.Rot>
1.7277

> <Gold.Chemscore.Internal.Correction>
   9.000000E+99

> <Gold.Chemscore.Hbonds>
donor molecule, donor type, donor heavy atom, donor atom, acceptor molecule, acceptor atom, score
      L1  H     3    23       P1  7948  0.92
      P1  H  7989  7998       L1    12  0.09
      P1  H  8011  8017       L1    12  0.91

> <Gold.Chemscore.Hbond.Weighted>
-6.7200

> <Gold.Chemscore.Metal.Weighted>
-0.0000

> <Gold.Chemscore.Lipo.Weighted>
-8.6966

> <Gold.Chemscore.Internal_Hbond.Weighted>
0.0000

> <Gold.Chemscore.DEClash.Weighted>
1.5309

> <Gold.Chemscore.DEInternal.Weighted>
0.8162

> <Gold.Chemscore.Rot.Weighted>
4.4228

> <Gold.Chemscore.Internal.Correction.Weighted>
   9.000000E+99

> <Gold.Protein.RotatedTorsions>
[ 6907 6896 6895 6894 ] final  114.26 input  -60.11 | X-H torsion
[ 7974 7965 7964 7962 ] final -145.66 input  175.53 | X-H torsion
[ 8008 7997 7996 7995 ] final  -14.00 input   59.86 | X-H torsion
[ 10167 10162 10161 10158 ] final  172.09 input  -65.29 | X-H torsion
[ 10718 10713 10712 10709 ] final   29.17 input   66.30 | X-H torsion
[ 10763 10752 10751 10750 ] final  -99.82 input  -60.55 | X-H torsion
[ 11005 11000 10999 10996 ] final   47.12 input  -57.11 | X-H torsion

> <Gold.Protein.ActiveResidues>
 VAL166  LYS551  ARG553  GLY616  TRP617  ASP618  TYR619  PRO620  LYS621  CYS622 
 ASP623  PHE694  ASN695  SER759  ASP760  ASP761  ALA762  ILE779  LEU786  VAL792 
 PHE793  MET794  SER795  GLU796  ALA797  LYS798  CYS799  TRP800  GLU811  SER814 

> <Gold.Protein.RotatedAtoms>
  152.4813  133.8261  159.7078 H   0  0  0  0  0  0  0  0  0  0  0  0  # atno 6907 bound_to 6896
  150.8865  133.7292  159.2923 H   0  0  0  0  0  0  0  0  0  0  0  0  # atno 6908 bound_to 6896
  151.4779  135.1054  159.9821 H   0  0  0  0  0  0  0  0  0  0  0  0  # atno 6909 bound_to 6896
  144.8212  140.5555  143.5577 H   0  0  0  0  0  0  0  0  0  0  0  0  # atno 7974 bound_to 7965
  154.5246  140.2234  155.8914 H   0  0  0  0  0  0  0  0  0  0  0  0  # atno 8008 bound_to 7997
  156.1699  140.3124  155.8919 H   0  0  0  0  0  0  0  0  0  0  0  0  # atno 8009 bound_to 7997
  155.3580  140.0459  157.3037 H   0  0  0  0  0  0  0  0  0  0  0  0  # atno 8010 bound_to 7997
  139.5066  144.3413  152.0015 H   0  0  0  0  0  0  0  0  0  0  0  0  # atno 10167 bound_to 10162
  157.2431  130.7079  149.6368 H   0  0  0  0  0  0  0  0  0  0  0  0  # atno 10718 bound_to 10713
  154.7529  135.4958  153.9321 H   0  0  0  0  0  0  0  0  0  0  0  0  # atno 10763 bound_to 10752
  153.1163  135.6721  153.9420 H   0  0  0  0  0  0  0  0  0  0  0  0  # atno 10764 bound_to 10752
  153.9165  135.3093  155.3427 H   0  0  0  0  0  0  0  0  0  0  0  0  # atno 10765 bound_to 10752
  140.1308  134.4708  155.8523 H   0  0  0  0  0  0  0  0  0  0  0  0  # atno 11005 bound_to 11000
  145.5100  139.1479  143.3610 LP  0  0  0  0  0  0  0  0  0  0  0  0  # atno 17320 bound_to 7965
  146.2517  140.5241  142.8890 LP  0  0  0  0  0  0  0  0  0  0  0  0  # atno 17321 bound_to 7965
  140.2851  144.3817  150.6106 LP  0  0  0  0  0  0  0  0  0  0  0  0  # atno 17342 bound_to 10162
  140.5989  143.2167  151.7110 LP  0  0  0  0  0  0  0  0  0  0  0  0  # atno 17343 bound_to 10162
  155.9669  130.4451  150.5490 LP  0  0  0  0  0  0  0  0  0  0  0  0  # atno 17370 bound_to 10713
  157.3357  131.0708  151.1826 LP  0  0  0  0  0  0  0  0  0  0  0  0  # atno 17371 bound_to 10713
  141.2170  133.6795  156.7065 LP  0  0  0  0  0  0  0  0  0  0  0  0  # atno 17394 bound_to 11000
  140.2845  134.8290  157.3962 LP  0  0  0  0  0  0  0  0  0  0  0  0  # atno 17395 bound_to 11000

$$$$
