AV-unprocessed.smi:1973|AV-procd|sdf|7978|dock3
  -GOLD-   2272010153D 1   1.00000     0.00000
 Structure written by MMmdl.
 48 50  0  0  0  0  0  0  0  0  2 V2000
  150.5786  133.8511  155.8143 C   0  0  0  0  0  0  0  0  0  0  0  0
  151.1774  135.1217  155.6329 O   0  0  0  0  0  0  0  0  0  0  0  0
  150.2829  136.0715  155.0776 C   0  0  0  0  0  0  0  0  0  0  0  0
  150.8901  137.4805  155.1751 C   0  0  0  0  0  0  0  0  0  0  0  0
  149.9252  138.5171  154.7906 N   0  0  0  0  0  0  0  0  0  0  0  0
  148.6553  138.0307  154.5257 N   0  0  0  0  0  0  0  0  0  0  0  0
  147.7119  138.8383  154.1620 C   0  0  0  0  0  0  0  0  0  0  0  0
  146.3350  138.3538  153.8658 C   0  0  0  0  0  0  0  0  0  0  0  0
  145.3424  138.8322  154.4168 O   0  0  0  0  0  0  0  0  0  0  0  0
  146.2558  137.3630  152.9609 N   0  0  0  0  0  0  0  0  0  0  0  0
  145.0150  136.7360  152.5254 C   0  0  0  0  0  0  0  0  0  0  0  0
  144.9259  135.2864  153.0293 C   0  0  2  0  0  0  0  0  0  0  0  0
  146.2011  134.4736  152.8152 C   0  0  0  0  0  0  0  0  0  0  0  0
  145.7288  133.0149  152.8491 C   0  0  0  0  0  0  0  0  0  0  0  0
  144.2699  133.0306  152.5903 N   0  3  2  0  0  0  0  0  0  0  0  0
  143.8258  132.0703  151.5579 C   0  0  0  0  0  0  0  0  0  0  0  0
  144.8680  131.7950  150.5005 C   0  0  0  0  0  0  0  0  0  0  0  0
  143.6837  132.6827  150.1850 C   0  0  0  0  0  0  0  0  0  0  0  0
  143.8784  134.4286  152.3168 C   0  0  0  0  0  0  0  0  0  0  0  0
  147.9623  140.2631  154.0286 C   0  0  0  0  0  0  0  0  0  0  0  0
  149.2062  140.7225  154.2878 C   0  0  0  0  0  0  0  0  0  0  0  0
  150.2928  139.8309  154.6954 C   0  0  0  0  0  0  0  0  0  0  0  0
  151.4337  140.2276  154.9297 O   0  0  0  0  0  0  0  0  0  0  0  0
  151.3076  133.1610  156.2390 H   0  0  0  0  0  0  0  0  0  0  0  0
  150.2369  133.4371  154.8647 H   0  0  0  0  0  0  0  0  0  0  0  0
  149.7303  133.9084  156.4974 H   0  0  0  0  0  0  0  0  0  0  0  0
  150.0593  135.8243  154.0384 H   0  0  0  0  0  0  0  0  0  0  0  0
  149.3407  136.0435  155.6266 H   0  0  0  0  0  0  0  0  0  0  0  0
  151.2075  137.6587  156.2040 H   0  0  0  0  0  0  0  0  0  0  0  0
  151.8037  137.5390  154.5812 H   0  0  0  0  0  0  0  0  0  0  0  0
  147.1147  137.0302  152.5469 H   0  0  0  0  0  0  0  0  0  0  0  0
  144.1627  137.3128  152.8890 H   0  0  0  0  0  0  0  0  0  0  0  0
  144.9724  136.7556  151.4355 H   0  0  0  0  0  0  0  0  0  0  0  0
  144.7010  135.2922  154.0976 H   0  0  0  0  0  0  0  0  0  0  0  0
  146.6249  134.6947  151.8344 H   0  0  0  0  0  0  0  0  0  0  0  0
  146.9670  134.6853  153.5620 H   0  0  0  0  0  0  0  0  0  0  0  0
  146.2740  132.4106  152.1224 H   0  0  0  0  0  0  0  0  0  0  0  0
  145.8968  132.5771  153.8334 H   0  0  0  0  0  0  0  0  0  0  0  0
  143.1490  131.2829  151.8853 H   0  0  0  0  0  0  0  0  0  0  0  0
  145.8416  132.2716  150.5998 H   0  0  0  0  0  0  0  0  0  0  0  0
  144.8797  130.8035  150.0525 H   0  0  0  0  0  0  0  0  0  0  0  0
  142.9167  132.2746  149.5300 H   0  0  0  0  0  0  0  0  0  0  0  0
  143.8699  133.7497  150.0742 H   0  0  0  0  0  0  0  0  0  0  0  0
  142.8633  134.6310  152.6604 H   0  0  0  0  0  0  0  0  0  0  0  0
  143.9131  134.6161  151.2419 H   0  0  0  0  0  0  0  0  0  0  0  0
  147.1794  140.9449  153.7294 H   0  0  0  0  0  0  0  0  0  0  0  0
  149.4067  141.7797  154.1919 H   0  0  0  0  0  0  0  0  0  0  0  0
  143.8259  132.7703  153.4593 H   0  0  0  0  0  0  0  0  0  0  0  0
  1  2  1  0  0  0  0
  1 24  1  0  0  0  0
  1 25  1  0  0  0  0
  1 26  1  0  0  0  0
  2  3  1  0  0  0  0
  3  4  1  0  0  0  0
  3 27  1  0  0  0  0
  3 28  1  0  0  0  0
  4  5  1  0  0  0  0
  4 29  1  0  0  0  0
  4 30  1  0  0  0  0
  5 22  1  0  0  0  0
  5  6  1  0  0  0  0
  6  7  2  0  0  0  0
  7  8  1  0  0  0  0
  7 20  1  0  0  0  0
  8  9  2  0  0  0  0
  8 10  1  0  0  0  0
 10 11  1  0  0  0  0
 10 31  1  0  0  0  0
 11 12  1  0  0  0  0
 11 32  1  0  0  0  0
 11 33  1  0  0  0  0
 12 19  1  0  0  0  0
 12 13  1  0  0  0  0
 12 34  1  0  0  0  0
 13 14  1  0  0  0  0
 13 35  1  0  0  0  0
 13 36  1  0  0  0  0
 14 15  1  0  0  0  0
 14 37  1  0  0  0  0
 14 38  1  0  0  0  0
 15 16  1  0  0  0  0
 15 19  1  0  0  0  0
 15 48  1  0  0  0  0
 16 18  1  0  0  0  0
 16 17  1  0  0  0  0
 16 39  1  0  0  0  0
 17 18  1  0  0  0  0
 17 40  1  0  0  0  0
 17 41  1  0  0  0  0
 18 42  1  0  0  0  0
 18 43  1  0  0  0  0
 19 44  1  0  0  0  0
 19 45  1  0  0  0  0
 20 21  2  0  0  0  0
 20 46  1  0  0  0  0
 21 22  1  0  0  0  0
 21 47  1  0  0  0  0
 22 23  2  0  0  0  0
M  CHG  1  15   1
M  END
> <s_m_source_file>
AV-unprocessed.smi

> <i_m_source_file_index>
1973

> <i_lp_mmshare_version>
43012

> <i_f3d_flags>
0

> <s_epik_input>
W0NIM11PW0NIMl1bQ0gyXW4xbmMoW2NIXVtjSF1jMT1PKUMoPU8pW05IXVtDSDJdW0NAQEhdMltDSDJdW0NIMl1OKFtDSDJdMilbQ0hdM1tDSDJdW0NIMl0z

> <s_epik_cmdline>
J2VwaWtfcHl0aG9uJywgJy1waCcsICc3LjAnLCAnLXRuJywgJzgnLCAnLW1hJywgJzIwMCcsICctbWV0YWxfYmluZGluZycsICctaW1hZScsICc8aW5maWxlLm1hZT4nLCAnLW9tYWUnLCAnPG91dGZpbGUubWFlPic=

> <r_lp_tautomer_probability>
1

> <r_epik_Ionization_Penalty>
0.000225706

> <r_epik_Ionization_Penalty_Charging>
0.000223776

> <r_epik_Ionization_Penalty_Neutral>
1.93004e-06

> <r_epik_State_Penalty>
-0

> <r_epik_Charging_Adjusted_Penalty>
0.000223776

> <i_epik_Tot_Q>
1

> <i_epik_Tot_abs_Q>
1

> <r_epik_Metal_State_Penalty>
-0

> <b_epik_Metal_Only>
0

> <s_lp_Force_Field>
OPLS_2005

> <r_lp_Energy>
60.0274

> <b_lp_Chiralities_Consistent>
1

> <s_lp_Variant>
AV-unprocessed.smi:1973-3

> <Gold.Version>
5.8.1

> <Gold.Id.Protein>
6NUR|6NUR_protein|mol2

> <Gold.PLP.Fitness>
43.3569

> <Gold.PLP.PLP>
-34.0098

> <Gold.PLP.part.hbond>
-3.5988

> <Gold.PLP.part.metal>
0.0000

> <Gold.PLP.part.buried>
-4.7556

> <Gold.PLP.part.nonpolar>
-28.3752

> <Gold.PLP.part.repulsive>
1.0892

> <Gold.PLP.ligand.clash>
0.0000

> <Gold.PLP.ligand.torsion>
2.0742

> <Gold.PLP.Chemscore.Hbond>
4.0483

> <Gold.PLP.Chemscore.CHOScore>
0.0000

> <Gold.PLP.Chemscore.Metal>
0.0000

> <Gold.Chemscore.Hbonds>
donor molecule, donor type, donor heavy atom, donor atom, acceptor molecule, acceptor atom, score
      L1  H    10    31       P1  7948  0.80
      L1  H    15    48       P1 10957  2.00
      P1  H  7989  7998       L1    23  0.75
      P1  H 10752 10765       L1     2  0.98

> <Gold.PLP.Chemscore.Internal.Correction>
1.3507

> <Gold.Rescore>
     Score         DG    S(hbond)    S(metal)    S(lipo)     H(rot)  DE(clash)    DE(int)     intcor
     15.75     -18.14       2.51        0.00      79.75       1.97       0.27       2.12       ----

> <Gold.Chemscore.Fitness>
15.7479

> <Gold.Chemscore.DG>
-18.1392

> <Gold.Chemscore.ZeroCoef>
-5.4800

> <Gold.Chemscore.Hbond>
2.5072

> <Gold.Chemscore.Metal>
0.0000

> <Gold.Chemscore.Lipo>
79.7545

> <Gold.Chemscore.Internal_Hbond>
0.0000

> <Gold.Chemscore.DEClash>
0.2748

> <Gold.Chemscore.DEInternal>
2.1165

> <Gold.Chemscore.Rot>
1.9711

> <Gold.Chemscore.Internal.Correction>
   9.000000E+99

> <Gold.Chemscore.Hbonds>
donor molecule, donor type, donor heavy atom, donor atom, acceptor molecule, acceptor atom, score
      L1  H    10    31       P1  7948  0.79
      L1  H    15    48       P1 10957  0.57
      P1  H  7989  7998       L1    23  0.09
      P1  H 10752 10765       L1     2  0.57

> <Gold.Chemscore.Hbond.Weighted>
-8.3739

> <Gold.Chemscore.Metal.Weighted>
-0.0000

> <Gold.Chemscore.Lipo.Weighted>
-9.3313

> <Gold.Chemscore.Internal_Hbond.Weighted>
0.0000

> <Gold.Chemscore.DEClash.Weighted>
0.2748

> <Gold.Chemscore.DEInternal.Weighted>
2.1165

> <Gold.Chemscore.Rot.Weighted>
5.0460

> <Gold.Chemscore.Internal.Correction.Weighted>
   9.000000E+99

> <Gold.Protein.RotatedTorsions>
[ 6907 6896 6895 6894 ] final -113.87 input  -60.11 | X-H torsion
[ 7974 7965 7964 7962 ] final   75.21 input  175.53 | X-H torsion
[ 8008 7997 7996 7995 ] final   72.23 input   59.86 | X-H torsion
[ 10167 10162 10161 10158 ] final -169.67 input  -65.29 | X-H torsion
[ 10718 10713 10712 10709 ] final -121.30 input   66.30 | X-H torsion
[ 10763 10752 10751 10750 ] final -161.07 input  -60.55 | X-H torsion
[ 11005 11000 10999 10996 ] final  109.53 input  -57.11 | X-H torsion

> <Gold.Protein.ActiveResidues>
 VAL166  LYS551  ARG553  GLY616  TRP617  ASP618  TYR619  PRO620  LYS621  CYS622 
 ASP623  PHE694  ASN695  SER759  ASP760  ASP761  ALA762  ILE779  LEU786  VAL792 
 PHE793  MET794  SER795  GLU796  ALA797  LYS798  CYS799  TRP800  GLU811  SER814 

> <Gold.Protein.RotatedAtoms>
  150.7860  133.8882  159.3305 H   0  0  0  0  0  0  0  0  0  0  0  0  # atno 6907 bound_to 6896
  151.6732  135.0971  160.0211 H   0  0  0  0  0  0  0  0  0  0  0  0  # atno 6908 bound_to 6896
  152.3924  133.6660  159.6284 H   0  0  0  0  0  0  0  0  0  0  0  0  # atno 6909 bound_to 6896
  145.7184  139.2639  143.1610 H   0  0  0  0  0  0  0  0  0  0  0  0  # atno 7974 bound_to 7965
  155.7657  140.3485  155.5221 H   0  0  0  0  0  0  0  0  0  0  0  0  # atno 8008 bound_to 7997
  155.8870  140.1011  157.1466 H   0  0  0  0  0  0  0  0  0  0  0  0  # atno 8009 bound_to 7997
  154.4030  140.1311  156.4255 H   0  0  0  0  0  0  0  0  0  0  0  0  # atno 8010 bound_to 7997
  139.5908  144.1217  152.1632 H   0  0  0  0  0  0  0  0  0  0  0  0  # atno 10167 bound_to 10162
  156.1326  130.6407  150.9646 H   0  0  0  0  0  0  0  0  0  0  0  0  # atno 10718 bound_to 10713
  154.7335  135.3052  154.8850 H   0  0  0  0  0  0  0  0  0  0  0  0  # atno 10763 bound_to 10752
  153.9686  135.6744  153.4750 H   0  0  0  0  0  0  0  0  0  0  0  0  # atno 10764 bound_to 10752
  153.0941  135.4944  154.8667 H   0  0  0  0  0  0  0  0  0  0  0  0  # atno 10765 bound_to 10752
  139.8864  134.9460  156.6140 H   0  0  0  0  0  0  0  0  0  0  0  0  # atno 11005 bound_to 11000
  146.0648  140.7932  142.9717 LP  0  0  0  0  0  0  0  0  0  0  0  0  # atno 17320 bound_to 7965
  144.6923  140.3252  143.7225 LP  0  0  0  0  0  0  0  0  0  0  0  0  # atno 17321 bound_to 7965
  140.0791  144.5716  150.7135 LP  0  0  0  0  0  0  0  0  0  0  0  0  # atno 17342 bound_to 10162
  140.7171  143.2555  151.4397 LP  0  0  0  0  0  0  0  0  0  0  0  0  # atno 17343 bound_to 10162
  157.6503  131.0898  150.8066 LP  0  0  0  0  0  0  0  0  0  0  0  0  # atno 17370 bound_to 10713
  156.8149  130.4964  149.5351 LP  0  0  0  0  0  0  0  0  0  0  0  0  # atno 17371 bound_to 10713
  140.7790  133.8676  155.8552 LP  0  0  0  0  0  0  0  0  0  0  0  0  # atno 17394 bound_to 11000
  140.9777  134.1447  157.4522 LP  0  0  0  0  0  0  0  0  0  0  0  0  # atno 17395 bound_to 11000

$$$$
