AV-unprocessed.smi:3194|AV-procd|sdf|12212|dock3
  -GOLD-   2272018 53D 1   1.00000     0.00000
 Structure written by MMmdl.
 27 27  0  0  0  0  0  0  0  0  2 V2000
  147.8490  141.7938  154.7829 C   0  0  0  0  0  0  0  0  0  0  0  0
  149.2182  141.1572  154.5036 C   0  0  2  0  0  0  0  0  0  0  0  0
  149.1121  139.6219  154.4149 C   0  0  0  0  0  0  0  0  0  0  0  0
  148.3702  139.2215  153.2792 O   0  0  0  0  0  0  0  0  0  0  0  0
  150.1356  141.5244  155.5843 N   0  5  0  0  0  0  0  0  0  0  0  0
  151.2180  140.7841  155.9627 C   0  0  0  0  0  0  0  0  0  0  0  0
  152.0875  140.2411  155.2713 O   0  0  0  0  0  0  0  0  0  0  0  0
  151.2984  140.6335  157.4966 C   0  0  0  0  0  0  0  0  0  0  0  0
  150.1549  140.1088  157.9458 F   0  0  0  0  0  0  0  0  0  0  0  0
  152.2774  139.7785  157.8101 F   0  0  0  0  0  0  0  0  0  0  0  0
  151.5336  141.9893  158.1625 C   0  0  0  0  0  0  0  0  0  0  0  0
  152.7119  142.2431  158.9022 C   0  0  0  0  0  0  0  0  0  0  0  0
  152.8880  143.5151  159.4788 C   0  0  0  0  0  0  0  0  0  0  0  0
  151.8849  144.4863  159.3002 C   0  0  0  0  0  0  0  0  0  0  0  0
  150.7460  144.1399  158.5469 C   0  0  0  0  0  0  0  0  0  0  0  0
  150.5671  142.9236  157.9898 N   0  0  0  0  0  0  0  0  0  0  0  0
  149.5506  141.5252  153.5312 H   0  0  0  0  0  0  0  0  0  0  0  0
  147.1378  141.5518  153.9929 H   0  0  0  0  0  0  0  0  0  0  0  0
  147.9232  142.8808  154.8339 H   0  0  0  0  0  0  0  0  0  0  0  0
  147.4292  141.4426  155.7263 H   0  0  0  0  0  0  0  0  0  0  0  0
  150.1012  139.1637  154.3766 H   0  0  0  0  0  0  0  0  0  0  0  0
  148.6122  139.2270  155.2995 H   0  0  0  0  0  0  0  0  0  0  0  0
  148.8973  139.3700  152.5100 H   0  0  0  0  0  0  0  0  0  0  0  0
  153.4722  141.4844  159.0139 H   0  0  0  0  0  0  0  0  0  0  0  0
  153.7787  143.7424  160.0457 H   0  0  0  0  0  0  0  0  0  0  0  0
  151.9866  145.4730  159.7265 H   0  0  0  0  0  0  0  0  0  0  0  0
  149.9567  144.8596  158.3879 H   0  0  0  0  0  0  0  0  0  0  0  0
  1  2  1  0  0  0  0
  1 18  1  0  0  0  0
  1 19  1  0  0  0  0
  1 20  1  0  0  0  0
  2 17  1  0  0  0  0
  2  3  1  0  0  0  0
  2  5  1  0  0  0  0
  3  4  1  0  0  0  0
  3 21  1  0  0  0  0
  3 22  1  0  0  0  0
  4 23  1  0  0  0  0
  5  6  1  0  0  0  0
  6  7  2  0  0  0  0
  6  8  1  0  0  0  0
  8  9  1  0  0  0  0
  8 10  1  0  0  0  0
  8 11  1  0  0  0  0
 11 16  1  0  0  0  0
 11 12  2  0  0  0  0
 12 13  1  0  0  0  0
 12 24  1  0  0  0  0
 13 14  2  0  0  0  0
 13 25  1  0  0  0  0
 14 15  1  0  0  0  0
 14 26  1  0  0  0  0
 15 16  2  0  0  0  0
 15 27  1  0  0  0  0
M  CHG  1   5  -1
M  END
> <s_m_source_file>
AV-unprocessed.smi

> <i_m_source_file_index>
3194

> <i_lp_mmshare_version>
43012

> <i_f3d_flags>
0

> <s_epik_input>
W09IXVtDSDJdW0NASF0oW0NIM10pW05IXUMoPU8pQyhGKShGKWMxW2NIXVtjSF1bY0hdW2NIXW4x

> <s_epik_cmdline>
J2VwaWtfcHl0aG9uJywgJy1waCcsICc3LjAnLCAnLXRuJywgJzgnLCAnLW1hJywgJzIwMCcsICctbWV0YWxfYmluZGluZycsICctaW1hZScsICc8aW5maWxlLm1hZT4nLCAnLW9tYWUnLCAnPG91dGZpbGUubWFlPic=

> <r_lp_tautomer_probability>
1

> <r_epik_Ionization_Penalty>
5.78943

> <r_epik_Ionization_Penalty_Charging>
5.78942

> <r_epik_Ionization_Penalty_Neutral>
4.0054e-06

> <r_epik_State_Penalty>
5.78939

> <r_epik_Charging_Adjusted_Penalty>
11.5788

> <i_epik_Tot_Q>
-1

> <i_epik_Tot_abs_Q>
1

> <r_epik_Metal_State_Penalty>
1.76064

> <b_epik_Metal_Only>
1

> <s_lp_Force_Field>
OPLS_2005

> <r_lp_Energy>
16.8834

> <b_lp_Chiralities_Consistent>
1

> <s_lp_Variant>
AV-unprocessed.smi:3194-4

> <Gold.Version>
5.8.1

> <Gold.Id.Protein>
6NUR|6NUR_protein|mol2

> <Gold.PLP.Fitness>
41.9566

> <Gold.PLP.PLP>
-35.0454

> <Gold.PLP.part.hbond>
-3.4566

> <Gold.PLP.part.metal>
0.0000

> <Gold.PLP.part.buried>
-2.2743

> <Gold.PLP.part.nonpolar>
-29.0627

> <Gold.PLP.part.repulsive>
0.2233

> <Gold.PLP.ligand.clash>
0.7064

> <Gold.PLP.ligand.torsion>
0.8930

> <Gold.PLP.Chemscore.Hbond>
2.0476

> <Gold.PLP.Chemscore.CHOScore>
1.0516

> <Gold.PLP.Chemscore.Metal>
0.0000

> <Gold.Chemscore.Hbonds>
donor molecule, donor type, donor heavy atom, donor atom, acceptor molecule, acceptor atom, score
      L1  H     4    23       P1  7957  1.00
      P1  H  7989  7998       L1     7  0.70
      P1  H  7997  8010       L1     7  0.02
      L1  C    15    27       P1  8028  0.02
      L1  C    15    27       P1  8029  0.90

> <Gold.PLP.Chemscore.Internal.Correction>
0.1062

> <Gold.Rescore>
     Score         DG    S(hbond)    S(metal)    S(lipo)     H(rot)  DE(clash)    DE(int)     intcor
     11.92     -14.22       1.80        0.00      76.54       2.43       0.04       2.26       ----

> <Gold.Chemscore.Fitness>
11.9190

> <Gold.Chemscore.DG>
-14.2182

> <Gold.Chemscore.ZeroCoef>
-5.4800

> <Gold.Chemscore.Hbond>
1.7957

> <Gold.Chemscore.Metal>
0.0000

> <Gold.Chemscore.Lipo>
76.5415

> <Gold.Chemscore.Internal_Hbond>
0.0000

> <Gold.Chemscore.DEClash>
0.0362

> <Gold.Chemscore.DEInternal>
2.2630

> <Gold.Chemscore.Rot>
2.4277

> <Gold.Chemscore.Internal.Correction>
   9.000000E+99

> <Gold.Chemscore.Hbonds>
donor molecule, donor type, donor heavy atom, donor atom, acceptor molecule, acceptor atom, score
      L1  H     4    23       P1  7957  1.00
      P1  H  7989  7998       L1     7  0.28
      P1  H  7997  8010       L1     7  0.08

> <Gold.Chemscore.Hbond.Weighted>
-5.9977

> <Gold.Chemscore.Metal.Weighted>
-0.0000

> <Gold.Chemscore.Lipo.Weighted>
-8.9554

> <Gold.Chemscore.Internal_Hbond.Weighted>
0.0000

> <Gold.Chemscore.DEClash.Weighted>
0.0362

> <Gold.Chemscore.DEInternal.Weighted>
2.2630

> <Gold.Chemscore.Rot.Weighted>
6.2149

> <Gold.Chemscore.Internal.Correction.Weighted>
   9.000000E+99

> <Gold.Protein.RotatedTorsions>
[ 6907 6896 6895 6894 ] final  171.53 input  -60.11 | X-H torsion
[ 7974 7965 7964 7962 ] final    9.81 input  175.53 | X-H torsion
[ 8008 7997 7996 7995 ] final   92.83 input   59.86 | X-H torsion
[ 10167 10162 10161 10158 ] final -164.93 input  -65.29 | X-H torsion
[ 10718 10713 10712 10709 ] final -131.78 input   66.30 | X-H torsion
[ 10763 10752 10751 10750 ] final  118.09 input  -60.55 | X-H torsion
[ 11005 11000 10999 10996 ] final   54.81 input  -57.11 | X-H torsion

> <Gold.Protein.ActiveResidues>
 VAL166  LYS551  ARG553  GLY616  TRP617  ASP618  TYR619  PRO620  LYS621  CYS622 
 ASP623  PHE694  ASN695  SER759  ASP760  ASP761  ALA762  ILE779  LEU786  VAL792 
 PHE793  MET794  SER795  GLU796  ALA797  LYS798  CYS799  TRP800  GLU811  SER814 

> <Gold.Protein.RotatedAtoms>
  151.7988  133.3367  159.3520 H   0  0  0  0  0  0  0  0  0  0  0  0  # atno 6907 bound_to 6896
  150.7366  134.5773  159.5930 H   0  0  0  0  0  0  0  0  0  0  0  0  # atno 6908 bound_to 6896
  152.3158  134.7443  160.0377 H   0  0  0  0  0  0  0  0  0  0  0  0  # atno 6909 bound_to 6896
  146.2398  139.9727  142.8445 H   0  0  0  0  0  0  0  0  0  0  0  0  # atno 7974 bound_to 7965
  156.0398  140.3320  155.7231 H   0  0  0  0  0  0  0  0  0  0  0  0  # atno 8008 bound_to 7997
  155.5761  140.0632  157.2812 H   0  0  0  0  0  0  0  0  0  0  0  0  # atno 8009 bound_to 7997
  154.4388  140.1852  156.0917 H   0  0  0  0  0  0  0  0  0  0  0  0  # atno 8010 bound_to 7997
  139.6216  144.0612  152.1938 H   0  0  0  0  0  0  0  0  0  0  0  0  # atno 10167 bound_to 10162
  156.2278  130.7019  151.0826 H   0  0  0  0  0  0  0  0  0  0  0  0  # atno 10718 bound_to 10713
  153.5623  135.3518  155.2804 H   0  0  0  0  0  0  0  0  0  0  0  0  # atno 10763 bound_to 10752
  154.8693  135.4139  154.2817 H   0  0  0  0  0  0  0  0  0  0  0  0  # atno 10764 bound_to 10752
  153.3565  135.7058  153.6815 H   0  0  0  0  0  0  0  0  0  0  0  0  # atno 10765 bound_to 10752
  140.0657  134.5540  155.9102 H   0  0  0  0  0  0  0  0  0  0  0  0  # atno 11005 bound_to 11000
  145.1666  140.9700  143.4346 LP  0  0  0  0  0  0  0  0  0  0  0  0  # atno 17320 bound_to 7965
  145.0067  139.3547  143.6140 LP  0  0  0  0  0  0  0  0  0  0  0  0  # atno 17321 bound_to 7965
  140.0256  144.6120  150.7530 LP  0  0  0  0  0  0  0  0  0  0  0  0  # atno 17342 bound_to 10162
  140.7386  143.2780  151.3684 LP  0  0  0  0  0  0  0  0  0  0  0  0  # atno 17343 bound_to 10162
  157.7119  131.0730  150.6470 LP  0  0  0  0  0  0  0  0  0  0  0  0  # atno 17370 bound_to 10713
  156.6536  130.4492  149.5711 LP  0  0  0  0  0  0  0  0  0  0  0  0  # atno 17371 bound_to 10713
  141.1991  133.6605  156.5829 LP  0  0  0  0  0  0  0  0  0  0  0  0  # atno 17394 bound_to 11000
  140.3703  134.7611  157.4594 LP  0  0  0  0  0  0  0  0  0  0  0  0  # atno 17395 bound_to 11000

$$$$
