AV-unprocessed.smi:1209|AV-procd|sdf|5074|dock1
  -GOLD-   22720 4123D 1   1.00000     0.00000
 Structure written by MMmdl.
 49 51  0  0  0  0  0  0  0  0  2 V2000
  145.7368  134.9351  163.0862 C   0  0  0  0  0  0  0  0  0  0  0  0
  146.6008  135.6293  162.0899 C   0  0  0  0  0  0  0  0  0  0  0  0
  147.2524  135.2074  160.9660 C   0  0  0  0  0  0  0  0  0  0  0  0
  147.8936  136.3833  160.4883 C   0  0  0  0  0  0  0  0  0  0  0  0
  148.7627  136.5404  159.2710 C   0  0  0  0  0  0  0  0  0  0  0  0
  149.5153  137.8213  159.3014 N   0  3  2  0  0  0  0  0  0  0  0  0
  149.3410  138.6145  158.0614 C   0  0  0  0  0  0  0  0  0  0  0  0
  150.9483  137.6476  159.6521 C   0  0  0  0  0  0  0  0  0  0  0  0
  151.8444  137.5180  158.4046 C   0  0  2  0  0  0  0  0  0  0  0  0
  152.4627  136.2459  158.4186 O   0  0  0  0  0  0  0  0  0  0  0  0
  152.9302  138.6099  158.3616 C   0  0  0  0  0  0  0  0  0  0  0  0
  152.3941  139.9038  157.9797 N   0  0  0  0  0  0  0  0  0  0  0  0
  151.7805  140.2257  156.8245 C   0  0  0  0  0  0  0  0  0  0  0  0
  151.3594  141.4798  156.6887 N   0  0  0  0  0  0  0  0  0  0  0  0
  151.7526  142.0394  157.8924 C   0  0  0  0  0  0  0  0  0  0  0  0
  151.6022  143.3533  158.3868 C   0  0  0  0  0  0  0  0  0  0  0  0
  152.0870  143.7060  159.6667 C   0  0  0  0  0  0  0  0  0  0  0  0
  151.9004  145.1297  160.1603 C   0  0  0  0  0  0  0  0  0  0  0  0
  152.7379  142.7371  160.4723 C   0  0  0  0  0  0  0  0  0  0  0  0
  153.2679  143.0933  161.8497 C   0  0  0  0  0  0  0  0  0  0  0  0
  152.8975  141.4202  159.9931 C   0  0  0  0  0  0  0  0  0  0  0  0
  152.4067  141.0807  158.7201 C   0  0  0  0  0  0  0  0  0  0  0  0
  147.6423  137.4277  161.2602 N   0  0  0  0  0  0  0  0  0  0  0  0
  146.8183  136.9549  162.2876 O   0  0  0  0  0  0  0  0  0  0  0  0
  145.8165  133.8527  162.9841 H   0  0  0  0  0  0  0  0  0  0  0  0
  144.6914  135.2123  162.9492 H   0  0  0  0  0  0  0  0  0  0  0  0
  146.0269  135.2002  164.1030 H   0  0  0  0  0  0  0  0  0  0  0  0
  147.2679  134.2106  160.5507 H   0  0  0  0  0  0  0  0  0  0  0  0
  149.4512  135.6975  159.2293 H   0  0  0  0  0  0  0  0  0  0  0  0
  148.1723  136.4855  158.3545 H   0  0  0  0  0  0  0  0  0  0  0  0
  149.7620  138.0914  157.2017 H   0  0  0  0  0  0  0  0  0  0  0  0
  149.8375  139.5815  158.1493 H   0  0  0  0  0  0  0  0  0  0  0  0
  148.2885  138.8127  157.8590 H   0  0  0  0  0  0  0  0  0  0  0  0
  151.2684  138.4861  160.2728 H   0  0  0  0  0  0  0  0  0  0  0  0
  151.0791  136.7531  160.2638 H   0  0  0  0  0  0  0  0  0  0  0  0
  151.2449  137.5886  157.4976 H   0  0  0  0  0  0  0  0  0  0  0  0
  152.8092  136.0706  157.5562 H   0  0  0  0  0  0  0  0  0  0  0  0
  153.3974  138.7156  159.3415 H   0  0  0  0  0  0  0  0  0  0  0  0
  153.7238  138.3363  157.6646 H   0  0  0  0  0  0  0  0  0  0  0  0
  151.6289  139.4975  156.0408 H   0  0  0  0  0  0  0  0  0  0  0  0
  151.1081  144.0917  157.7724 H   0  0  0  0  0  0  0  0  0  0  0  0
  152.8663  145.5960  160.3560 H   0  0  0  0  0  0  0  0  0  0  0  0
  151.3162  145.1417  161.0807 H   0  0  0  0  0  0  0  0  0  0  0  0
  151.3768  145.7409  159.4245 H   0  0  0  0  0  0  0  0  0  0  0  0
  153.7450  142.2365  162.3265 H   0  0  0  0  0  0  0  0  0  0  0  0
  152.4558  143.4266  162.4960 H   0  0  0  0  0  0  0  0  0  0  0  0
  154.0069  143.8918  161.7811 H   0  0  0  0  0  0  0  0  0  0  0  0
  153.3920  140.6733  160.5961 H   0  0  0  0  0  0  0  0  0  0  0  0
  149.1176  138.3752  160.0470 H   0  0  0  0  0  0  0  0  0  0  0  0
  1  2  1  0  0  0  0
  1 25  1  0  0  0  0
  1 26  1  0  0  0  0
  1 27  1  0  0  0  0
  2 24  1  0  0  0  0
  2  3  2  0  0  0  0
  3  4  1  0  0  0  0
  3 28  1  0  0  0  0
  4  5  1  0  0  0  0
  4 23  2  0  0  0  0
  5  6  1  0  0  0  0
  5 29  1  0  0  0  0
  5 30  1  0  0  0  0
  6  7  1  0  0  0  0
  6  8  1  0  0  0  0
  6 49  1  0  0  0  0
  7 31  1  0  0  0  0
  7 32  1  0  0  0  0
  7 33  1  0  0  0  0
  8  9  1  0  0  0  0
  8 34  1  0  0  0  0
  8 35  1  0  0  0  0
  9 10  1  0  0  0  0
  9 11  1  0  0  0  0
  9 36  1  0  0  0  0
 10 37  1  0  0  0  0
 11 12  1  0  0  0  0
 11 38  1  0  0  0  0
 11 39  1  0  0  0  0
 12 22  1  0  0  0  0
 12 13  1  0  0  0  0
 13 14  2  0  0  0  0
 13 40  1  0  0  0  0
 14 15  1  0  0  0  0
 15 22  2  0  0  0  0
 15 16  1  0  0  0  0
 16 17  2  0  0  0  0
 16 41  1  0  0  0  0
 17 18  1  0  0  0  0
 17 19  1  0  0  0  0
 18 42  1  0  0  0  0
 18 43  1  0  0  0  0
 18 44  1  0  0  0  0
 19 20  1  0  0  0  0
 19 21  2  0  0  0  0
 20 45  1  0  0  0  0
 20 46  1  0  0  0  0
 20 47  1  0  0  0  0
 21 22  1  0  0  0  0
 21 48  1  0  0  0  0
 23 24  1  0  0  0  0
M  CHG  1   6   1
M  END
> <s_m_source_file>
AV-unprocessed.smi

> <i_m_source_file_index>
1209

> <i_lp_mmshare_version>
43012

> <i_f3d_flags>
0

> <s_epik_input>
W0NIM11jMVtjSF1jKG5vMSlbQ0gyXU4oW0NIM10pW0NIMl1bQ0BIXShbT0hdKVtDSDJdbihbY0hdbjIpYyhjMjMpW2NIXWMoW0NIM10pYyhbY0hdMylbQ0gzXQ==

> <s_epik_cmdline>
J2VwaWtfcHl0aG9uJywgJy1waCcsICc3LjAnLCAnLXRuJywgJzgnLCAnLW1hJywgJzIwMCcsICctbWV0YWxfYmluZGluZycsICctaW1hZScsICc8aW5maWxlLm1hZT4nLCAnLW9tYWUnLCAnPG91dGZpbGUubWFlPic=

> <r_epik_Ionization_Penalty>
2.05249

> <r_epik_Ionization_Penalty_Charging>
1.96618

> <r_epik_Ionization_Penalty_Neutral>
0.0863156

> <r_epik_State_Penalty>
2.19215

> <r_epik_Charging_Adjusted_Penalty>
4.15833

> <i_epik_Tot_Q>
1

> <i_epik_Tot_abs_Q>
1

> <r_epik_Metal_State_Penalty>
2.17654

> <b_epik_Metal_Only>
0

> <s_lp_Force_Field>
OPLS_2005

> <r_lp_Energy>
8.61119

> <b_lp_Chiralities_Consistent>
1

> <s_lp_Variant>
AV-unprocessed.smi:1209-6

> <Gold.Version>
5.8.1

> <Gold.Id.Protein>
6NUR|6NUR_protein|mol2

> <Gold.PLP.Fitness>
50.0625

> <Gold.PLP.PLP>
-47.3603

> <Gold.PLP.part.hbond>
-3.0000

> <Gold.PLP.part.metal>
0.0000

> <Gold.PLP.part.buried>
-6.7874

> <Gold.PLP.part.nonpolar>
-38.7892

> <Gold.PLP.part.repulsive>
0.2759

> <Gold.PLP.ligand.clash>
0.0000

> <Gold.PLP.ligand.torsion>
2.0911

> <Gold.PLP.Chemscore.Hbond>
2.1357

> <Gold.PLP.Chemscore.CHOScore>
0.0000

> <Gold.PLP.Chemscore.Metal>
0.0000

> <Gold.Chemscore.Hbonds>
donor molecule, donor type, donor heavy atom, donor atom, acceptor molecule, acceptor atom, score
      P1  H  6896  6907       L1    10  0.47
      P1  H  6931  6943       L1    23  0.82
      P1  H  6934  6947       L1    23  0.82

> <Gold.PLP.Chemscore.Internal.Correction>
0.4772

> <Gold.Rescore>
     Score         DG    S(hbond)    S(metal)    S(lipo)     H(rot)  DE(clash)    DE(int)     intcor
     18.45     -20.49       1.99        0.00     126.96       2.53       0.08       1.96       ----

> <Gold.Chemscore.Fitness>
18.4504

> <Gold.Chemscore.DG>
-20.4891

> <Gold.Chemscore.ZeroCoef>
-5.4800

> <Gold.Chemscore.Hbond>
1.9881

> <Gold.Chemscore.Metal>
0.0000

> <Gold.Chemscore.Lipo>
126.9569

> <Gold.Chemscore.Internal_Hbond>
0.0000

> <Gold.Chemscore.DEClash>
0.0831

> <Gold.Chemscore.DEInternal>
1.9556

> <Gold.Chemscore.Rot>
2.5332

> <Gold.Chemscore.Internal.Correction>
   9.000000E+99

> <Gold.Chemscore.Hbonds>
donor molecule, donor type, donor heavy atom, donor atom, acceptor molecule, acceptor atom, score
      P1  H  6896  6907       L1    10  0.39
      P1  H  6931  6943       L1    23  0.60
      P1  H  6934  6947       L1    23  0.53

> <Gold.Chemscore.Hbond.Weighted>
-6.6402

> <Gold.Chemscore.Metal.Weighted>
-0.0000

> <Gold.Chemscore.Lipo.Weighted>
-14.8540

> <Gold.Chemscore.Internal_Hbond.Weighted>
0.0000

> <Gold.Chemscore.DEClash.Weighted>
0.0831

> <Gold.Chemscore.DEInternal.Weighted>
1.9556

> <Gold.Chemscore.Rot.Weighted>
6.4851

> <Gold.Chemscore.Internal.Correction.Weighted>
   9.000000E+99

> <Gold.Protein.RotatedTorsions>
[ 6907 6896 6895 6894 ] final   21.30 input  -60.11 | X-H torsion
[ 7974 7965 7964 7962 ] final -167.13 input  175.53 | X-H torsion
[ 8008 7997 7996 7995 ] final -128.95 input   59.86 | X-H torsion
[ 10167 10162 10161 10158 ] final  107.41 input  -65.29 | X-H torsion
[ 10718 10713 10712 10709 ] final   87.87 input   66.30 | X-H torsion
[ 10763 10752 10751 10750 ] final  -27.71 input  -60.55 | X-H torsion
[ 11005 11000 10999 10996 ] final   45.10 input  -57.11 | X-H torsion

> <Gold.Protein.ActiveResidues>
 VAL166  LYS551  ARG553  GLY616  TRP617  ASP618  TYR619  PRO620  LYS621  CYS622 
 ASP623  PHE694  ASN695  SER759  ASP760  ASP761  ALA762  ILE779  LEU786  VAL792 
 PHE793  MET794  SER795  GLU796  ALA797  LYS798  CYS799  TRP800  GLU811  SER814 

> <Gold.Protein.RotatedAtoms>
  151.9096  135.0344  160.0513 H   0  0  0  0  0  0  0  0  0  0  0  0  # atno 6907 bound_to 6896
  152.2290  133.5038  159.5213 H   0  0  0  0  0  0  0  0  0  0  0  0  # atno 6908 bound_to 6896
  150.7020  134.1158  159.4059 H   0  0  0  0  0  0  0  0  0  0  0  0  # atno 6909 bound_to 6896
  144.7230  140.2564  143.6271 H   0  0  0  0  0  0  0  0  0  0  0  0  # atno 7974 bound_to 7965
  155.2711  140.0440  157.3007 H   0  0  0  0  0  0  0  0  0  0  0  0  # atno 8008 bound_to 7997
  154.5653  140.2358  155.8242 H   0  0  0  0  0  0  0  0  0  0  0  0  # atno 8009 bound_to 7997
  156.2080  140.3007  155.9676 H   0  0  0  0  0  0  0  0  0  0  0  0  # atno 8010 bound_to 7997
  139.6929  144.7105  151.1317 H   0  0  0  0  0  0  0  0  0  0  0  0  # atno 10167 bound_to 10162
  157.6944  131.0272  150.3189 H   0  0  0  0  0  0  0  0  0  0  0  0  # atno 10718 bound_to 10713
  153.7365  135.6935  153.4977 H   0  0  0  0  0  0  0  0  0  0  0  0  # atno 10763 bound_to 10752
  153.2099  135.4406  155.0366 H   0  0  0  0  0  0  0  0  0  0  0  0  # atno 10764 bound_to 10752
  154.8235  135.3434  154.6893 H   0  0  0  0  0  0  0  0  0  0  0  0  # atno 10765 bound_to 10752
  140.1490  134.4485  155.8395 H   0  0  0  0  0  0  0  0  0  0  0  0  # atno 11005 bound_to 11000
  145.8178  139.2030  143.1955 LP  0  0  0  0  0  0  0  0  0  0  0  0  # atno 17320 bound_to 7965
  146.0540  140.8040  142.9767 LP  0  0  0  0  0  0  0  0  0  0  0  0  # atno 17321 bound_to 7965
  140.7688  143.5533  150.9180 LP  0  0  0  0  0  0  0  0  0  0  0  0  # atno 17342 bound_to 10162
  139.9211  143.6604  152.3096 LP  0  0  0  0  0  0  0  0  0  0  0  0  # atno 17343 bound_to 10162
  156.3679  130.3858  149.7199 LP  0  0  0  0  0  0  0  0  0  0  0  0  # atno 17370 bound_to 10713
  156.4623  130.7957  151.2977 LP  0  0  0  0  0  0  0  0  0  0  0  0  # atno 17371 bound_to 10713
  141.2196  133.6864  156.7387 LP  0  0  0  0  0  0  0  0  0  0  0  0  # atno 17394 bound_to 11000
  140.2627  134.8454  157.3774 LP  0  0  0  0  0  0  0  0  0  0  0  0  # atno 17395 bound_to 11000

$$$$
