AV-unprocessed.smi:2303|AV-procd|sdf|9242|dock9
  -GOLD-   2272012463D 1   1.00000     0.00000
 Structure written by MMmdl.
 33 34  0  0  0  0  0  0  0  0  1 V2000
  147.3464  141.4710  153.9003 C   0  0  0  0  0  0  0  0  0  0  0  0
  148.5872  140.5611  153.9420 C   0  0  0  0  0  0  0  0  0  0  0  0
  148.1758  139.0805  153.8551 C   0  0  0  0  0  0  0  0  0  0  0  0
  149.5031  140.8242  155.1381 C   0  0  0  0  0  0  0  0  0  0  0  0
  149.2589  141.6616  156.1665 C   0  0  0  0  0  0  0  0  0  0  0  0
  150.2462  141.7938  157.2241 C   0  0  0  0  0  0  0  0  0  0  0  0
  149.9271  142.6554  158.3635 C   0  0  0  0  0  0  0  0  0  0  0  0
  148.7970  142.7359  158.8455 O   0  0  0  0  0  0  0  0  0  0  0  0
  150.9490  143.3790  158.8746 N   0  0  0  0  0  0  0  0  0  0  0  0
  150.8914  144.3576  159.9525 C   0  0  0  0  0  0  0  0  0  0  0  0
  152.1752  145.1517  159.7934 C   0  0  0  0  0  0  0  0  0  0  0  0
  152.4821  144.9828  158.3139 C   0  0  0  0  0  0  0  0  0  0  0  0
  152.0629  143.6542  158.0546 O   0  0  0  0  0  0  0  0  0  0  0  0
  151.3834  141.0560  157.1797 C   0  0  0  0  0  0  0  0  0  0  0  0
  151.6664  140.1570  156.0587 C   0  0  0  0  0  0  0  0  0  0  0  0
  152.6931  139.4889  155.9625 O   0  0  0  0  0  0  0  0  0  0  0  0
  150.7045  140.1001  155.1090 N   0  0  0  0  0  0  0  0  0  0  0  0
  147.6262  142.5248  153.8960 H   0  0  0  0  0  0  0  0  0  0  0  0
  146.6928  141.2966  154.7558 H   0  0  0  0  0  0  0  0  0  0  0  0
  146.7609  141.2895  152.9985 H   0  0  0  0  0  0  0  0  0  0  0  0
  149.1764  140.7887  153.0525 H   0  0  0  0  0  0  0  0  0  0  0  0
  149.0402  138.4229  153.7609 H   0  0  0  0  0  0  0  0  0  0  0  0
  147.5404  138.9011  152.9874 H   0  0  0  0  0  0  0  0  0  0  0  0
  147.6193  138.7741  154.7414 H   0  0  0  0  0  0  0  0  0  0  0  0
  148.3432  142.2324  156.2134 H   0  0  0  0  0  0  0  0  0  0  0  0
  150.0204  145.0024  159.8231 H   0  0  0  0  0  0  0  0  0  0  0  0
  150.8245  143.8767  160.9289 H   0  0  0  0  0  0  0  0  0  0  0  0
  152.0753  146.1951  160.0936 H   0  0  0  0  0  0  0  0  0  0  0  0
  152.9686  144.6986  160.3893 H   0  0  0  0  0  0  0  0  0  0  0  0
  151.8876  145.6730  157.7133 H   0  0  0  0  0  0  0  0  0  0  0  0
  153.5353  145.1311  158.0750 H   0  0  0  0  0  0  0  0  0  0  0  0
  152.1041  141.1073  157.9835 H   0  0  0  0  0  0  0  0  0  0  0  0
  150.8482  139.4918  154.3160 H   0  0  0  0  0  0  0  0  0  0  0  0
  1  2  1  0  0  0  0
  1 18  1  0  0  0  0
  1 19  1  0  0  0  0
  1 20  1  0  0  0  0
  2  3  1  0  0  0  0
  2 21  1  0  0  0  0
  2  4  1  0  0  0  0
  3 22  1  0  0  0  0
  3 23  1  0  0  0  0
  3 24  1  0  0  0  0
  4 17  1  0  0  0  0
  4  5  2  0  0  0  0
  5 25  1  0  0  0  0
  5  6  1  0  0  0  0
  6  7  1  0  0  0  0
  6 14  2  0  0  0  0
  7  8  2  0  0  0  0
  7  9  1  0  0  0  0
  9 13  1  0  0  0  0
  9 10  1  0  0  0  0
 10 11  1  0  0  0  0
 10 26  1  0  0  0  0
 10 27  1  0  0  0  0
 11 12  1  0  0  0  0
 11 28  1  0  0  0  0
 11 29  1  0  0  0  0
 12 13  1  0  0  0  0
 12 30  1  0  0  0  0
 12 31  1  0  0  0  0
 14 15  1  0  0  0  0
 14 32  1  0  0  0  0
 15 16  2  0  0  0  0
 15 17  1  0  0  0  0
 17 33  1  0  0  0  0
M  END
> <s_m_source_file>
AV-unprocessed.smi

> <i_m_source_file_index>
2303

> <i_lp_mmshare_version>
43012

> <i_f3d_flags>
0

> <s_epik_input>
W0NIM11bQ0hdKFtDSDNdKWMxW2NIXWMoW2NIXWMobjEpW09IXSlDKD1PKU4yW0NIMl1bQ0gyXVtDSDJdTzI=

> <s_epik_cmdline>
J2VwaWtfcHl0aG9uJywgJy1waCcsICc3LjAnLCAnLXRuJywgJzgnLCAnLW1hJywgJzIwMCcsICctbWV0YWxfYmluZGluZycsICctaW1hZScsICc8aW5maWxlLm1hZT4nLCAnLW9tYWUnLCAnPG91dGZpbGUubWFlPic=

> <r_lp_tautomer_probability>
1

> <r_epik_Ionization_Penalty>
8.70942e-05

> <r_epik_Ionization_Penalty_Charging>
8.7046e-05

> <r_epik_Ionization_Penalty_Neutral>
4.82304e-08

> <r_epik_State_Penalty>
-0

> <r_epik_Charging_Adjusted_Penalty>
8.7046e-05

> <i_epik_Tot_Q>
0

> <i_epik_Tot_abs_Q>
0

> <r_epik_Metal_State_Penalty>
0.0811253

> <b_epik_Metal_Only>
0

> <s_epik_Chemistry_Notes>
This compound has a N-S or N-O group and may undergo hydrolysis at high or low pH.

> <s_lp_Force_Field>
OPLS_2005

> <r_lp_Energy>
27.1372

> <b_lp_Chiralities_Consistent>
1

> <s_lp_Variant>
AV-unprocessed.smi:2303-1

> <Gold.Version>
5.8.1

> <Gold.Id.Protein>
6NUR|6NUR_protein|mol2

> <Gold.PLP.Fitness>
37.0652

> <Gold.PLP.PLP>
-34.3814

> <Gold.PLP.part.hbond>
-1.7126

> <Gold.PLP.part.metal>
0.0000

> <Gold.PLP.part.buried>
-3.1248

> <Gold.PLP.part.nonpolar>
-29.3077

> <Gold.PLP.part.repulsive>
1.4132

> <Gold.PLP.ligand.clash>
0.0000

> <Gold.PLP.ligand.torsion>
0.7655

> <Gold.PLP.Chemscore.Hbond>
1.0000

> <Gold.PLP.Chemscore.CHOScore>
0.0000

> <Gold.PLP.Chemscore.Metal>
0.0000

> <Gold.Chemscore.Hbonds>
donor molecule, donor type, donor heavy atom, donor atom, acceptor molecule, acceptor atom, score
      P1  H  7997  8010       L1    16  1.00

> <Gold.PLP.Chemscore.Internal.Correction>
1.2147

> <Gold.Rescore>
     Score         DG    S(hbond)    S(metal)    S(lipo)     H(rot)  DE(clash)    DE(int)     intcor
     13.17     -15.31       1.00        0.00      77.46       1.00       0.07       2.07       ----

> <Gold.Chemscore.Fitness>
13.1726

> <Gold.Chemscore.DG>
-15.3135

> <Gold.Chemscore.ZeroCoef>
-5.4800

> <Gold.Chemscore.Hbond>
0.9971

> <Gold.Chemscore.Metal>
0.0000

> <Gold.Chemscore.Lipo>
77.4644

> <Gold.Chemscore.Internal_Hbond>
0.0000

> <Gold.Chemscore.DEClash>
0.0716

> <Gold.Chemscore.DEInternal>
2.0693

> <Gold.Chemscore.Rot>
1.0000

> <Gold.Chemscore.Internal.Correction>
   9.000000E+99

> <Gold.Chemscore.Hbonds>
donor molecule, donor type, donor heavy atom, donor atom, acceptor molecule, acceptor atom, score
      P1  H  7997  8010       L1    16  1.00

> <Gold.Chemscore.Hbond.Weighted>
-3.3302

> <Gold.Chemscore.Metal.Weighted>
-0.0000

> <Gold.Chemscore.Lipo.Weighted>
-9.0633

> <Gold.Chemscore.Internal_Hbond.Weighted>
0.0000

> <Gold.Chemscore.DEClash.Weighted>
0.0716

> <Gold.Chemscore.DEInternal.Weighted>
2.0693

> <Gold.Chemscore.Rot.Weighted>
2.5600

> <Gold.Chemscore.Internal.Correction.Weighted>
   9.000000E+99

> <Gold.Protein.RotatedTorsions>
[ 6907 6896 6895 6894 ] final   15.59 input  -60.11 | X-H torsion
[ 7974 7965 7964 7962 ] final   37.41 input  175.53 | X-H torsion
[ 8008 7997 7996 7995 ] final   85.89 input   59.86 | X-H torsion
[ 10167 10162 10161 10158 ] final   10.09 input  -65.29 | X-H torsion
[ 10718 10713 10712 10709 ] final  163.97 input   66.30 | X-H torsion
[ 10763 10752 10751 10750 ] final  159.08 input  -60.55 | X-H torsion
[ 11005 11000 10999 10996 ] final  -99.00 input  -57.11 | X-H torsion

> <Gold.Protein.ActiveResidues>
 VAL166  LYS551  ARG553  GLY616  TRP617  ASP618  TYR619  PRO620  LYS621  CYS622 
 ASP623  PHE694  ASN695  SER759  ASP760  ASP761  ALA762  ILE779  LEU786  VAL792 
 PHE793  MET794  SER795  GLU796  ALA797  LYS798  CYS799  TRP800  GLU811  SER814 

> <Gold.Protein.RotatedAtoms>
  151.8205  135.0653  160.0424 H   0  0  0  0  0  0  0  0  0  0  0  0  # atno 6907 bound_to 6896
  152.2954  133.5598  159.5593 H   0  0  0  0  0  0  0  0  0  0  0  0  # atno 6908 bound_to 6896
  150.7249  134.0284  159.3767 H   0  0  0  0  0  0  0  0  0  0  0  0  # atno 6909 bound_to 6896
  146.1140  139.5898  142.9334 H   0  0  0  0  0  0  0  0  0  0  0  0  # atno 7974 bound_to 7965
  155.9558  140.3397  155.6447 H   0  0  0  0  0  0  0  0  0  0  0  0  # atno 8008 bound_to 7997
  155.6861  140.0743  157.2484 H   0  0  0  0  0  0  0  0  0  0  0  0  # atno 8009 bound_to 7997
  154.4132  140.1665  156.2023 H   0  0  0  0  0  0  0  0  0  0  0  0  # atno 8010 bound_to 7997
  140.6216  143.8193  150.7181 H   0  0  0  0  0  0  0  0  0  0  0  0  # atno 10167 bound_to 10162
  157.1010  131.0443  151.2498 H   0  0  0  0  0  0  0  0  0  0  0  0  # atno 10718 bound_to 10713
  154.2262  135.2780  155.2907 H   0  0  0  0  0  0  0  0  0  0  0  0  # atno 10763 bound_to 10752
  154.5662  135.5632  153.7055 H   0  0  0  0  0  0  0  0  0  0  0  0  # atno 10764 bound_to 10752
  153.0030  135.6310  154.2403 H   0  0  0  0  0  0  0  0  0  0  0  0  # atno 10765 bound_to 10752
  141.1324  133.8288  157.0914 H   0  0  0  0  0  0  0  0  0  0  0  0  # atno 11005 bound_to 11000
  145.5605  141.0405  143.2228 LP  0  0  0  0  0  0  0  0  0  0  0  0  # atno 17320 bound_to 7965
  144.7536  139.7130  143.7263 LP  0  0  0  0  0  0  0  0  0  0  0  0  # atno 17321 bound_to 7965
  140.1784  143.4135  152.1951 LP  0  0  0  0  0  0  0  0  0  0  0  0  # atno 17342 bound_to 10162
  139.5443  144.7285  151.4633 LP  0  0  0  0  0  0  0  0  0  0  0  0  # atno 17343 bound_to 10162
  157.4640  130.7670  149.7262 LP  0  0  0  0  0  0  0  0  0  0  0  0  # atno 17370 bound_to 10713
  155.9873  130.3967  150.3169 LP  0  0  0  0  0  0  0  0  0  0  0  0  # atno 17371 bound_to 10713
  140.0390  134.9864  157.0925 LP  0  0  0  0  0  0  0  0  0  0  0  0  # atno 17394 bound_to 11000
  140.4165  134.1926  155.7163 LP  0  0  0  0  0  0  0  0  0  0  0  0  # atno 17395 bound_to 11000

$$$$
