AV-unprocessed.smi:2691|AV-procd|sdf|10390|dock2
  -GOLD-   2272014423D 1   1.00000     0.00000
 Structure written by MMmdl.
 49 51  0  0  0  0  0  0  0  0  1 V2000
  153.0775  142.7031  160.9515 C   0  0  0  0  0  0  0  0  0  0  0  0
  152.1759  142.4137  159.7646 C   0  0  0  0  0  0  0  0  0  0  0  0
  151.8751  141.0715  159.4414 C   0  0  0  0  0  0  0  0  0  0  0  0
  151.0448  140.7594  158.3429 C   0  0  0  0  0  0  0  0  0  0  0  0
  150.6247  139.5342  157.8541 N   0  0  0  0  0  0  0  0  0  0  0  0
  149.8782  139.9020  156.8171 C   0  0  0  0  0  0  0  0  0  0  0  0
  149.7720  141.2219  156.5699 N   0  0  0  0  0  0  0  0  0  0  0  0
  149.0314  141.8555  155.4934 C   0  0  0  0  0  0  0  0  0  0  0  0
  148.7192  140.8803  154.3406 C   0  0  2  0  0  0  0  0  0  0  0  0
  149.8455  140.8768  153.4876 O   0  0  0  0  0  0  0  0  0  0  0  0
  147.4713  141.2737  153.5117 C   0  0  0  0  0  0  0  0  0  0  0  0
  146.5164  142.0636  154.3040 N   0  0  0  0  0  0  0  0  0  0  0  0
  146.1132  143.2941  153.7530 C   0  0  0  0  0  0  0  0  0  0  0  0
  145.2680  144.0668  154.3573 N   0  0  0  0  0  0  0  0  0  0  0  0
  144.7308  143.6806  155.5917 C   0  0  0  0  0  0  0  0  0  0  0  0
  143.7358  144.6232  156.2561 C   0  0  0  0  0  0  0  0  0  0  0  0
  143.4768  145.8729  155.3991 C   0  0  0  0  0  0  0  0  0  0  0  0
  144.1853  144.9968  157.6770 C   0  0  0  0  0  0  0  0  0  0  0  0
  145.0836  142.5019  156.1582 C   0  0  0  0  0  0  0  0  0  0  0  0
  146.0361  141.6089  155.4985 C   0  0  0  0  0  0  0  0  0  0  0  0
  146.3749  140.5279  155.9803 O   0  0  0  0  0  0  0  0  0  0  0  0
  150.5205  141.8354  157.5687 C   0  0  0  0  0  0  0  0  0  0  0  0
  150.8076  143.1753  157.8836 C   0  0  0  0  0  0  0  0  0  0  0  0
  151.6385  143.4695  158.9849 C   0  0  0  0  0  0  0  0  0  0  0  0
  151.9459  144.9194  159.3143 C   0  0  0  0  0  0  0  0  0  0  0  0
  153.4288  141.7824  161.4184 H   0  0  0  0  0  0  0  0  0  0  0  0
  152.5417  143.2782  161.7070 H   0  0  0  0  0  0  0  0  0  0  0  0
  153.9523  143.2723  160.6370 H   0  0  0  0  0  0  0  0  0  0  0  0
  152.2827  140.2671  160.0356 H   0  0  0  0  0  0  0  0  0  0  0  0
  149.3888  139.1686  156.1931 H   0  0  0  0  0  0  0  0  0  0  0  0
  148.1092  142.2739  155.8998 H   0  0  0  0  0  0  0  0  0  0  0  0
  149.6237  142.6962  155.1291 H   0  0  0  0  0  0  0  0  0  0  0  0
  148.6072  139.8768  154.7530 H   0  0  0  0  0  0  0  0  0  0  0  0
  149.6899  140.2628  152.7863 H   0  0  0  0  0  0  0  0  0  0  0  0
  147.7576  141.8718  152.6462 H   0  0  0  0  0  0  0  0  0  0  0  0
  147.0079  140.3900  153.0675 H   0  0  0  0  0  0  0  0  0  0  0  0
  146.5573  143.5443  152.7880 H   0  0  0  0  0  0  0  0  0  0  0  0
  142.7866  144.0934  156.3464 H   0  0  0  0  0  0  0  0  0  0  0  0
  143.1354  145.5995  154.4003 H   0  0  0  0  0  0  0  0  0  0  0  0
  144.3765  146.4794  155.2899 H   0  0  0  0  0  0  0  0  0  0  0  0
  142.7082  146.5024  155.8482 H   0  0  0  0  0  0  0  0  0  0  0  0
  144.3418  144.1056  158.2856 H   0  0  0  0  0  0  0  0  0  0  0  0
  143.4337  145.6083  158.1767 H   0  0  0  0  0  0  0  0  0  0  0  0
  145.1184  145.5611  157.6669 H   0  0  0  0  0  0  0  0  0  0  0  0
  144.6621  142.2081  157.1085 H   0  0  0  0  0  0  0  0  0  0  0  0
  150.3949  143.9698  157.2799 H   0  0  0  0  0  0  0  0  0  0  0  0
  151.4064  145.5999  158.6549 H   0  0  0  0  0  0  0  0  0  0  0  0
  153.0120  145.1175  159.2018 H   0  0  0  0  0  0  0  0  0  0  0  0
  151.6563  145.1500  160.3399 H   0  0  0  0  0  0  0  0  0  0  0  0
  1  2  1  0  0  0  0
  1 26  1  0  0  0  0
  1 27  1  0  0  0  0
  1 28  1  0  0  0  0
  2 24  1  0  0  0  0
  2  3  2  0  0  0  0
  3  4  1  0  0  0  0
  3 29  1  0  0  0  0
  4 22  2  0  0  0  0
  4  5  1  0  0  0  0
  5  6  2  0  0  0  0
  6  7  1  0  0  0  0
  6 30  1  0  0  0  0
  7  8  1  0  0  0  0
  7 22  1  0  0  0  0
  8  9  1  0  0  0  0
  8 31  1  0  0  0  0
  8 32  1  0  0  0  0
  9 10  1  0  0  0  0
  9 11  1  0  0  0  0
  9 33  1  0  0  0  0
 10 34  1  0  0  0  0
 11 12  1  0  0  0  0
 11 35  1  0  0  0  0
 11 36  1  0  0  0  0
 12 20  1  0  0  0  0
 12 13  1  0  0  0  0
 13 14  2  0  0  0  0
 13 37  1  0  0  0  0
 14 15  1  0  0  0  0
 15 16  1  0  0  0  0
 15 19  2  0  0  0  0
 16 17  1  0  0  0  0
 16 18  1  0  0  0  0
 16 38  1  0  0  0  0
 17 39  1  0  0  0  0
 17 40  1  0  0  0  0
 17 41  1  0  0  0  0
 18 42  1  0  0  0  0
 18 43  1  0  0  0  0
 18 44  1  0  0  0  0
 19 20  1  0  0  0  0
 19 45  1  0  0  0  0
 20 21  2  0  0  0  0
 22 23  1  0  0  0  0
 23 24  2  0  0  0  0
 23 46  1  0  0  0  0
 24 25  1  0  0  0  0
 25 47  1  0  0  0  0
 25 48  1  0  0  0  0
 25 49  1  0  0  0  0
M  END
> <s_m_source_file>
AV-unprocessed.smi

> <i_m_source_file_index>
2691

> <i_lp_mmshare_version>
43012

> <i_f3d_flags>
0

> <s_epik_input>
W0NIM11jKFtjSF0xKWMoW0NIM10pW2NIXWMoYzEyKW4oW2NIXW4yKVtDSDJdW0NASF0oW09IXSlbQ0gyXW4zW2NIXW5jKFtDSF0oW0NIM10pW0NIM10pW2NIXWMzPU8=

> <s_epik_cmdline>
J2VwaWtfcHl0aG9uJywgJy1waCcsICc3LjAnLCAnLXRuJywgJzgnLCAnLW1hJywgJzIwMCcsICctbWV0YWxfYmluZGluZycsICctaW1hZScsICc8aW5maWxlLm1hZT4nLCAnLW9tYWUnLCAnPG91dGZpbGUubWFlPic=

> <r_lp_tautomer_probability>
1

> <r_epik_Ionization_Penalty>
0.113357

> <r_epik_Ionization_Penalty_Charging>
3.84185e-08

> <r_epik_Ionization_Penalty_Neutral>
0.113357

> <r_epik_State_Penalty>
0.103025

> <r_epik_Charging_Adjusted_Penalty>
0.103025

> <i_epik_Tot_Q>
0

> <i_epik_Tot_abs_Q>
0

> <r_epik_Metal_State_Penalty>
0.0863451

> <b_epik_Metal_Only>
0

> <s_lp_Force_Field>
OPLS_2005

> <r_lp_Energy>
18.3457

> <b_lp_Chiralities_Consistent>
1

> <s_lp_Variant>
AV-unprocessed.smi:2691-1

> <Gold.Version>
5.8.1

> <Gold.Id.Protein>
6NUR|6NUR_protein|mol2

> <Gold.PLP.Fitness>
54.1281

> <Gold.PLP.PLP>
-49.8101

> <Gold.PLP.part.hbond>
-2.1620

> <Gold.PLP.part.metal>
0.0000

> <Gold.PLP.part.buried>
-3.5459

> <Gold.PLP.part.nonpolar>
-43.1811

> <Gold.PLP.part.repulsive>
0.2274

> <Gold.PLP.ligand.clash>
0.0000

> <Gold.PLP.ligand.torsion>
1.0528

> <Gold.PLP.Chemscore.Hbond>
2.1040

> <Gold.PLP.Chemscore.CHOScore>
0.0000

> <Gold.PLP.Chemscore.Metal>
0.0000

> <Gold.Chemscore.Hbonds>
donor molecule, donor type, donor heavy atom, donor atom, acceptor molecule, acceptor atom, score
      L1  H    10    34       P1  7957  0.91
      P1  H  7989  7998       L1    10  0.29
      P1  H  8011  8017       L1    10  0.70

> <Gold.PLP.Chemscore.Internal.Correction>
0.1116

> <Gold.Rescore>
     Score         DG    S(hbond)    S(metal)    S(lipo)     H(rot)  DE(clash)    DE(int)     intcor
     13.48     -16.63       1.28        0.00     112.36       2.45       1.20       1.95       ----

> <Gold.Chemscore.Fitness>
13.4788

> <Gold.Chemscore.DG>
-16.6282

> <Gold.Chemscore.ZeroCoef>
-5.4800

> <Gold.Chemscore.Hbond>
1.2825

> <Gold.Chemscore.Metal>
0.0000

> <Gold.Chemscore.Lipo>
112.3588

> <Gold.Chemscore.Internal_Hbond>
0.0000

> <Gold.Chemscore.DEClash>
1.1995

> <Gold.Chemscore.DEInternal>
1.9499

> <Gold.Chemscore.Rot>
2.4536

> <Gold.Chemscore.Internal.Correction>
   9.000000E+99

> <Gold.Chemscore.Hbonds>
donor molecule, donor type, donor heavy atom, donor atom, acceptor molecule, acceptor atom, score
      L1  H    10    34       P1  7957  0.89
      P1  H  7989  7998       L1    10  0.07
      P1  H  8011  8017       L1    10  0.06

> <Gold.Chemscore.Hbond.Weighted>
-4.2834

> <Gold.Chemscore.Metal.Weighted>
-0.0000

> <Gold.Chemscore.Lipo.Weighted>
-13.1460

> <Gold.Chemscore.Internal_Hbond.Weighted>
0.0000

> <Gold.Chemscore.DEClash.Weighted>
1.1995

> <Gold.Chemscore.DEInternal.Weighted>
1.9499

> <Gold.Chemscore.Rot.Weighted>
6.2812

> <Gold.Chemscore.Internal.Correction.Weighted>
   9.000000E+99

> <Gold.Protein.RotatedTorsions>
[ 6907 6896 6895 6894 ] final   14.88 input  -60.11 | X-H torsion
[ 7974 7965 7964 7962 ] final  170.50 input  175.53 | X-H torsion
[ 8008 7997 7996 7995 ] final  116.29 input   59.86 | X-H torsion
[ 10167 10162 10161 10158 ] final -141.48 input  -65.29 | X-H torsion
[ 10718 10713 10712 10709 ] final  -27.23 input   66.30 | X-H torsion
[ 10763 10752 10751 10750 ] final -100.70 input  -60.55 | X-H torsion
[ 11005 11000 10999 10996 ] final  -39.69 input  -57.11 | X-H torsion

> <Gold.Protein.ActiveResidues>
 VAL166  LYS551  ARG553  GLY616  TRP617  ASP618  TYR619  PRO620  LYS621  CYS622 
 ASP623  PHE694  ASN695  SER759  ASP760  ASP761  ALA762  ILE779  LEU786  VAL792 
 PHE793  MET794  SER795  GLU796  ALA797  LYS798  CYS799  TRP800  GLU811  SER814 

> <Gold.Protein.RotatedAtoms>
  151.8093  135.0685  160.0410 H   0  0  0  0  0  0  0  0  0  0  0  0  # atno 6907 bound_to 6896
  152.3032  133.5672  159.5640 H   0  0  0  0  0  0  0  0  0  0  0  0  # atno 6908 bound_to 6896
  150.7283  134.0177  159.3733 H   0  0  0  0  0  0  0  0  0  0  0  0  # atno 6909 bound_to 6896
  144.7322  139.9212  143.6420 H   0  0  0  0  0  0  0  0  0  0  0  0  # atno 7974 bound_to 7965
  156.2431  140.2920  156.0501 H   0  0  0  0  0  0  0  0  0  0  0  0  # atno 8008 bound_to 7997
  155.1891  140.0406  157.2914 H   0  0  0  0  0  0  0  0  0  0  0  0  # atno 8009 bound_to 7997
  154.6207  140.2475  155.7560 H   0  0  0  0  0  0  0  0  0  0  0  0  # atno 8010 bound_to 7997
  139.8180  143.7612  152.2665 H   0  0  0  0  0  0  0  0  0  0  0  0  # atno 10167 bound_to 10162
  156.4409  130.4464  149.7053 H   0  0  0  0  0  0  0  0  0  0  0  0  # atno 10718 bound_to 10713
  154.7600  135.4925  153.9446 H   0  0  0  0  0  0  0  0  0  0  0  0  # atno 10763 bound_to 10752
  153.1240  135.6738  153.9296 H   0  0  0  0  0  0  0  0  0  0  0  0  # atno 10764 bound_to 10752
  153.9019  135.3109  155.3427 H   0  0  0  0  0  0  0  0  0  0  0  0  # atno 10765 bound_to 10752
  141.0120  133.6903  156.2220 H   0  0  0  0  0  0  0  0  0  0  0  0  # atno 11005 bound_to 11000
  146.0928  139.3919  143.0395 LP  0  0  0  0  0  0  0  0  0  0  0  0  # atno 17320 bound_to 7965
  145.7687  140.9905  143.1161 LP  0  0  0  0  0  0  0  0  0  0  0  0  # atno 17321 bound_to 7965
  139.7782  144.7454  151.0127 LP  0  0  0  0  0  0  0  0  0  0  0  0  # atno 17342 bound_to 10162
  140.7815  143.4571  151.0330 LP  0  0  0  0  0  0  0  0  0  0  0  0  # atno 17343 bound_to 10162
  156.3919  130.7631  151.2633 LP  0  0  0  0  0  0  0  0  0  0  0  0  # atno 17370 bound_to 10713
  157.7506  131.0265  150.3966 LP  0  0  0  0  0  0  0  0  0  0  0  0  # atno 17371 bound_to 10713
  140.6718  134.4860  157.5587 LP  0  0  0  0  0  0  0  0  0  0  0  0  # atno 17394 bound_to 11000
  139.9095  134.8375  156.1580 LP  0  0  0  0  0  0  0  0  0  0  0  0  # atno 17395 bound_to 11000

$$$$
