AV-unprocessed.smi:157|AV-procd|sdf|1319|dock10
  -GOLD-   2262019 13D 1   1.00000     0.00000
 Structure written by MMmdl.
 36 38  0  0  0  0  0  0  0  0  2 V2000
  148.5335  138.9692  153.2044 O   0  0  0  0  0  0  0  0  0  0  0  0
  149.1634  138.6096  154.4152 C   0  0  0  0  0  0  0  0  0  0  0  0
  150.6509  138.2825  154.1559 C   0  0  1  0  0  0  0  0  0  0  0  0
  151.4121  139.4790  154.3381 O   0  0  0  0  0  0  0  0  0  0  0  0
  152.0378  139.4961  155.5903 C   0  0  1  0  0  0  0  0  0  0  0  0
  151.5999  140.7143  156.3404 N   0  0  0  0  0  0  0  0  0  0  0  0
  150.6813  141.6237  155.9488 C   0  0  0  0  0  0  0  0  0  0  0  0
  150.4943  142.6134  156.8055 N   0  3  0  0  0  0  0  0  0  0  0  0
  151.3475  142.3815  157.8634 C   0  0  0  0  0  0  0  0  0  0  0  0
  152.0213  141.1962  157.5582 C   0  0  0  0  0  0  0  0  0  0  0  0
  153.0000  140.5047  158.2884 N   0  0  0  0  0  0  0  0  0  0  0  0
  153.2206  140.7189  159.5447 C   0  0  0  0  0  0  0  0  0  0  0  0
  152.6603  141.6718  160.3790 N   0  0  0  0  0  0  0  0  0  0  0  0
  152.5332  143.0701  160.0080 C   0  0  0  0  0  0  0  0  0  0  0  0
  151.4010  143.3442  159.0088 C   0  0  2  0  0  0  0  0  0  0  0  0
  150.1809  143.4113  159.7178 O   0  0  0  0  0  0  0  0  0  0  0  0
  151.6025  138.2316  156.3300 C   0  0  0  0  0  0  0  0  0  0  0  0
  151.2900  137.3175  155.1670 C   0  0  1  0  0  0  0  0  0  0  0  0
  150.4669  136.2353  155.5513 O   0  0  0  0  0  0  0  0  0  0  0  0
  150.7757  137.8989  153.1424 H   0  0  0  0  0  0  0  0  0  0  0  0
  153.1183  139.5962  155.4802 H   0  0  0  0  0  0  0  0  0  0  0  0
  151.5614  144.3402  158.5947 H   0  0  0  0  0  0  0  0  0  0  0  0
  152.2209  136.9239  154.7559 H   0  0  0  0  0  0  0  0  0  0  0  0
  149.1787  139.3578  152.6336 H   0  0  0  0  0  0  0  0  0  0  0  0
  149.0394  139.4025  155.1524 H   0  0  0  0  0  0  0  0  0  0  0  0
  148.6357  137.7346  154.7943 H   0  0  0  0  0  0  0  0  0  0  0  0
  150.1481  141.5499  155.0176 H   0  0  0  0  0  0  0  0  0  0  0  0
  153.9463  140.0940  160.0672 H   0  0  0  0  0  0  0  0  0  0  0  0
  152.7705  141.5639  161.3773 H   0  0  0  0  0  0  0  0  0  0  0  0
  152.4151  143.6792  160.9049 H   0  0  0  0  0  0  0  0  0  0  0  0
  153.4802  143.3743  159.5594 H   0  0  0  0  0  0  0  0  0  0  0  0
  149.5378  143.8423  159.1763 H   0  0  0  0  0  0  0  0  0  0  0  0
  152.3923  137.8618  156.9845 H   0  0  0  0  0  0  0  0  0  0  0  0
  150.7091  138.4335  156.9241 H   0  0  0  0  0  0  0  0  0  0  0  0
  149.7943  136.5597  156.1309 H   0  0  0  0  0  0  0  0  0  0  0  0
  149.8567  143.3916  156.6947 H   0  0  0  0  0  0  0  0  0  0  0  0
  1  2  1  0  0  0  0
  1 24  1  0  0  0  0
  2  3  1  0  0  0  0
  2 25  1  0  0  0  0
  2 26  1  0  0  0  0
  3 20  1  0  0  0  0
  3 18  1  0  0  0  0
  3  4  1  0  0  0  0
  4  5  1  0  0  0  0
  5 21  1  0  0  0  0
  5  6  1  0  0  0  0
  5 17  1  0  0  0  0
  6 10  1  0  0  0  0
  6  7  1  0  0  0  0
  7  8  2  0  0  0  0
  7 27  1  0  0  0  0
  8  9  1  0  0  0  0
  8 36  1  0  0  0  0
  9 15  1  0  0  0  0
  9 10  2  0  0  0  0
 10 11  1  0  0  0  0
 11 12  2  0  0  0  0
 12 13  1  0  0  0  0
 12 28  1  0  0  0  0
 13 14  1  0  0  0  0
 13 29  1  0  0  0  0
 14 15  1  0  0  0  0
 14 30  1  0  0  0  0
 14 31  1  0  0  0  0
 15 22  1  0  0  0  0
 15 16  1  0  0  0  0
 16 32  1  0  0  0  0
 17 18  1  0  0  0  0
 17 33  1  0  0  0  0
 17 34  1  0  0  0  0
 18 23  1  0  0  0  0
 18 19  1  0  0  0  0
 19 35  1  0  0  0  0
M  CHG  1   8   1
M  END
> <s_m_source_file>
AV-unprocessed.smi

> <i_m_source_file_index>
157

> <i_lp_mmshare_version>
43012

> <i_f3d_flags>
0

> <s_epik_input>
W09IXVtDSDJdW0NASF0xT1tDQEhdKFtDSDJdW0NAQEhdMVtPSF0pbihbY0hdbjIpYyhjMjMpTj1bQ0hdW05IXVtDSDJdW0NASF0zW09IXQ==

> <s_epik_cmdline>
J2VwaWtfcHl0aG9uJywgJy1waCcsICc3LjAnLCAnLXRuJywgJzgnLCAnLW1hJywgJzIwMCcsICctbWV0YWxfYmluZGluZycsICctaW1hZScsICc8aW5maWxlLm1hZT4nLCAnLW9tYWUnLCAnPG91dGZpbGUubWFlPic=

> <r_epik_Ionization_Penalty>
1.68594

> <r_epik_Ionization_Penalty_Charging>
0

> <r_epik_Ionization_Penalty_Neutral>
1.68594

> <r_epik_State_Penalty>
1.79006

> <r_epik_Charging_Adjusted_Penalty>
1.79006

> <i_epik_Tot_Q>
1

> <i_epik_Tot_abs_Q>
1

> <r_epik_Metal_State_Penalty>
5.85324

> <b_epik_Metal_Only>
0

> <s_epik_Chemistry_Notes>
This compound has an imine and may undergo hydrolysis. This compound contains an acetal/aminal-like group ( X-CH(R)-Y where X, Y are N, S, or O) that may be acid/base labile, releasing an aldehyde.

> <s_lp_Force_Field>
OPLS_2005

> <r_lp_Energy>
55.1144

> <b_lp_Chiralities_Consistent>
1

> <s_lp_Variant>
AV-unprocessed.smi:157-29

> <Gold.Version>
5.8.1

> <Gold.Id.Protein>
6NUR|6NUR_protein|mol2

> <Gold.PLP.Fitness>
47.8895

> <Gold.PLP.PLP>
-34.4998

> <Gold.PLP.part.hbond>
-5.8853

> <Gold.PLP.part.metal>
0.0000

> <Gold.PLP.part.buried>
-3.8259

> <Gold.PLP.part.nonpolar>
-22.8118

> <Gold.PLP.part.repulsive>
0.2785

> <Gold.PLP.ligand.clash>
0.0000

> <Gold.PLP.ligand.torsion>
0.4268

> <Gold.PLP.Chemscore.Hbond>
4.7426

> <Gold.PLP.Chemscore.CHOScore>
0.0000

> <Gold.PLP.Chemscore.Metal>
0.0000

> <Gold.Chemscore.Hbonds>
donor molecule, donor type, donor heavy atom, donor atom, acceptor molecule, acceptor atom, score
      L1  H     1    24       P1  7957  1.00
      L1  H     8    36       P1  8028  2.00
      P1  H  7989  7998       L1     4  1.00
      P1  H  7997  8009       L1    11  0.73

> <Gold.PLP.Chemscore.Internal.Correction>
0.0157

> <Gold.Rescore>
     Score         DG    S(hbond)    S(metal)    S(lipo)     H(rot)  DE(clash)    DE(int)     intcor
     12.73     -13.73       3.33        0.00      55.57       3.67       0.53       0.47       ----

> <Gold.Chemscore.Fitness>
12.7349

> <Gold.Chemscore.DG>
-13.7323

> <Gold.Chemscore.ZeroCoef>
-5.4800

> <Gold.Chemscore.Hbond>
3.3339

> <Gold.Chemscore.Metal>
0.0000

> <Gold.Chemscore.Lipo>
55.5722

> <Gold.Chemscore.Internal_Hbond>
0.0000

> <Gold.Chemscore.DEClash>
0.5306

> <Gold.Chemscore.DEInternal>
0.4668

> <Gold.Chemscore.Rot>
3.6659

> <Gold.Chemscore.Internal.Correction>
   9.000000E+99

> <Gold.Chemscore.Hbonds>
donor molecule, donor type, donor heavy atom, donor atom, acceptor molecule, acceptor atom, score
      L1  H     1    24       P1  7957  0.94
      L1  H     8    36       P1  8028  0.97
      P1  H  7989  7998       L1     4  0.85
      P1  H  7997  8009       L1    11  0.46

> <Gold.Chemscore.Hbond.Weighted>
-11.1352

> <Gold.Chemscore.Metal.Weighted>
-0.0000

> <Gold.Chemscore.Lipo.Weighted>
-6.5019

> <Gold.Chemscore.Internal_Hbond.Weighted>
0.0000

> <Gold.Chemscore.DEClash.Weighted>
0.5306

> <Gold.Chemscore.DEInternal.Weighted>
0.4668

> <Gold.Chemscore.Rot.Weighted>
9.3848

> <Gold.Chemscore.Internal.Correction.Weighted>
   9.000000E+99

> <Gold.Protein.RotatedTorsions>
[ 6907 6896 6895 6894 ] final   49.15 input  -60.11 | X-H torsion
[ 7974 7965 7964 7962 ] final -178.13 input  175.53 | X-H torsion
[ 8008 7997 7996 7995 ] final  157.64 input   59.86 | X-H torsion
[ 10167 10162 10161 10158 ] final -135.60 input  -65.29 | X-H torsion
[ 10718 10713 10712 10709 ] final   40.43 input   66.30 | X-H torsion
[ 10763 10752 10751 10750 ] final  -56.49 input  -60.55 | X-H torsion
[ 11005 11000 10999 10996 ] final   16.18 input  -57.11 | X-H torsion

> <Gold.Protein.ActiveResidues>
 VAL166  LYS551  ARG553  GLY616  TRP617  ASP618  TYR619  PRO620  LYS621  CYS622 
 ASP623  PHE694  ASN695  SER759  ASP760  ASP761  ALA762  ILE779  LEU786  VAL792 
 PHE793  MET794  SER795  GLU796  ALA797  LYS798  CYS799  TRP800  GLU811  SER814 

> <Gold.Protein.RotatedAtoms>
  152.2875  134.7759  160.0384 H   0  0  0  0  0  0  0  0  0  0  0  0  # atno 6907 bound_to 6896
  151.8317  133.3404  159.3623 H   0  0  0  0  0  0  0  0  0  0  0  0  # atno 6908 bound_to 6896
  150.7216  134.5405  159.5789 H   0  0  0  0  0  0  0  0  0  0  0  0  # atno 6909 bound_to 6896
  144.7130  140.0914  143.6421 H   0  0  0  0  0  0  0  0  0  0  0  0  # atno 7974 bound_to 7965
  156.2351  140.1880  156.7139 H   0  0  0  0  0  0  0  0  0  0  0  0  # atno 8008 bound_to 7997
  154.6093  140.0624  156.9499 H   0  0  0  0  0  0  0  0  0  0  0  0  # atno 8009 bound_to 7997
  155.2043  140.3295  155.4341 H   0  0  0  0  0  0  0  0  0  0  0  0  # atno 8010 bound_to 7997
  139.8762  143.6895  152.2633 H   0  0  0  0  0  0  0  0  0  0  0  0  # atno 10167 bound_to 10162
  157.3821  130.7759  149.7201 H   0  0  0  0  0  0  0  0  0  0  0  0  # atno 10718 bound_to 10713
  154.2075  135.6400  153.5105 H   0  0  0  0  0  0  0  0  0  0  0  0  # atno 10763 bound_to 10752
  152.9997  135.5466  154.6250 H   0  0  0  0  0  0  0  0  0  0  0  0  # atno 10764 bound_to 10752
  154.5679  135.2914  155.0830 H   0  0  0  0  0  0  0  0  0  0  0  0  # atno 10765 bound_to 10752
  140.4500  134.1234  155.7701 H   0  0  0  0  0  0  0  0  0  0  0  0  # atno 11005 bound_to 11000
  145.9616  139.2805  143.1152 LP  0  0  0  0  0  0  0  0  0  0  0  0  # atno 17320 bound_to 7965
  145.9214  140.9113  143.0403 LP  0  0  0  0  0  0  0  0  0  0  0  0  # atno 17321 bound_to 7965
  139.7238  144.7597  151.0912 LP  0  0  0  0  0  0  0  0  0  0  0  0  # atno 17342 bound_to 10162
  140.7752  143.5174  150.9578 LP  0  0  0  0  0  0  0  0  0  0  0  0  # atno 17343 bound_to 10162
  155.9778  130.4059  150.3689 LP  0  0  0  0  0  0  0  0  0  0  0  0  # atno 17370 bound_to 10713
  157.1794  131.0388  151.2756 LP  0  0  0  0  0  0  0  0  0  0  0  0  # atno 17371 bound_to 10713
  141.1668  133.8687  157.1690 LP  0  0  0  0  0  0  0  0  0  0  0  0  # atno 17394 bound_to 11000
  140.0013  135.0026  157.0196 LP  0  0  0  0  0  0  0  0  0  0  0  0  # atno 17395 bound_to 11000

$$$$
