AV-unprocessed.smi:1492|AV-procd|sdf|6038|dock3
  -GOLD-   22720 6143D 1   1.00000     0.00000
 Structure written by MMmdl.
 53 54  0  0  0  0  0  0  0  0  2 V2000
  144.6463  133.7996  151.4471 C   0  0  0  0  0  0  0  0  0  0  0  0
  145.7641  134.8374  151.6562 C   0  0  0  0  0  0  0  0  0  0  0  0
  145.9066  135.3918  153.1076 C   0  0  1  0  0  0  0  0  0  0  0  0
  144.4830  135.4424  153.7223 C   0  0  0  0  0  0  0  0  0  0  0  0
  146.8002  134.4205  153.9402 C   0  0  0  0  0  0  0  0  0  0  0  0
  146.3728  133.0243  153.8684 N   0  0  0  0  0  0  0  0  0  0  0  0
  147.1616  131.9740  153.5918 C   0  0  0  0  0  0  0  0  0  0  0  0
  148.3689  132.0683  153.3745 O   0  0  0  0  0  0  0  0  0  0  0  0
  146.4818  130.6050  153.5725 C   0  0  0  0  0  0  0  0  0  0  0  0
  147.1760  129.5403  152.7252 C   0  0  0  0  0  0  0  0  0  0  0  0
  146.5927  128.9599  151.6358 C   0  0  0  0  0  0  0  0  0  0  0  0
  145.1948  129.3172  151.1615 C   0  0  0  0  0  0  0  0  0  0  0  0
  147.2602  127.9901  150.8744 N   0  0  0  0  0  0  0  0  0  0  0  0
  148.4561  127.6429  151.2202 C   0  0  0  0  0  0  0  0  0  0  0  0
  149.2835  126.6129  150.4806 C   0  0  0  0  0  0  0  0  0  0  0  0
  149.1054  128.1918  152.3246 N   0  0  0  0  0  0  0  0  0  0  0  0
  148.5375  129.1274  153.1177 C   0  0  0  0  0  0  0  0  0  0  0  0
  149.1433  129.5670  154.0941 O   0  0  0  0  0  0  0  0  0  0  0  0
  146.5063  136.7765  153.0828 N   0  3  0  0  0  0  0  0  0  0  0  0
  145.9253  137.7238  152.0890 C   0  0  0  0  0  0  0  0  0  0  0  0
  146.7478  139.0226  152.0342 C   0  0  0  0  0  0  0  0  0  0  0  0
  146.8049  139.6124  153.3251 O   0  0  0  0  0  0  0  0  0  0  0  0
  147.4383  138.7568  154.2654 C   0  0  0  0  0  0  0  0  0  0  0  0
  146.6297  137.4570  154.4034 C   0  0  0  0  0  0  0  0  0  0  0  0
  150.0376  127.8768  152.5508 H   0  0  0  0  0  0  0  0  0  0  0  0
  144.6186  133.4765  150.4064 H   0  0  0  0  0  0  0  0  0  0  0  0
  143.6630  134.2048  151.6855 H   0  0  0  0  0  0  0  0  0  0  0  0
  144.8009  132.9092  152.0559 H   0  0  0  0  0  0  0  0  0  0  0  0
  146.7019  134.3725  151.3494 H   0  0  0  0  0  0  0  0  0  0  0  0
  145.6259  135.6532  150.9472 H   0  0  0  0  0  0  0  0  0  0  0  0
  143.9316  134.5193  153.5419 H   0  0  0  0  0  0  0  0  0  0  0  0
  143.8892  136.2558  153.3046 H   0  0  0  0  0  0  0  0  0  0  0  0
  144.5082  135.5757  154.8039 H   0  0  0  0  0  0  0  0  0  0  0  0
  147.8258  134.4367  153.5732 H   0  0  0  0  0  0  0  0  0  0  0  0
  146.8546  134.7348  154.9827 H   0  0  0  0  0  0  0  0  0  0  0  0
  145.3939  132.8406  154.0370 H   0  0  0  0  0  0  0  0  0  0  0  0
  146.4014  130.2471  154.5991 H   0  0  0  0  0  0  0  0  0  0  0  0
  145.4481  130.7331  153.2483 H   0  0  0  0  0  0  0  0  0  0  0  0
  144.4671  129.1680  151.9591 H   0  0  0  0  0  0  0  0  0  0  0  0
  144.8928  128.6982  150.3160 H   0  0  0  0  0  0  0  0  0  0  0  0
  145.1535  130.3591  150.8431 H   0  0  0  0  0  0  0  0  0  0  0  0
  149.4542  126.9364  149.4537 H   0  0  0  0  0  0  0  0  0  0  0  0
  148.7597  125.6570  150.4563 H   0  0  0  0  0  0  0  0  0  0  0  0
  150.2535  126.4584  150.9552 H   0  0  0  0  0  0  0  0  0  0  0  0
  145.9142  137.3004  151.0864 H   0  0  0  0  0  0  0  0  0  0  0  0
  144.8937  137.9609  152.3501 H   0  0  0  0  0  0  0  0  0  0  0  0
  147.7559  138.8303  151.6635 H   0  0  0  0  0  0  0  0  0  0  0  0
  146.2858  139.7297  151.3449 H   0  0  0  0  0  0  0  0  0  0  0  0
  148.4643  138.5485  153.9574 H   0  0  0  0  0  0  0  0  0  0  0  0
  147.4919  139.2691  155.2262 H   0  0  0  0  0  0  0  0  0  0  0  0
  145.6432  137.6924  154.8032 H   0  0  0  0  0  0  0  0  0  0  0  0
  147.1311  136.8270  155.1351 H   0  0  0  0  0  0  0  0  0  0  0  0
  147.4568  136.6290  152.7742 H   0  0  0  0  0  0  0  0  0  0  0  0
  1  2  1  0  0  0  0
  1 26  1  0  0  0  0
  1 27  1  0  0  0  0
  1 28  1  0  0  0  0
  2  3  1  0  0  0  0
  2 29  1  0  0  0  0
  2 30  1  0  0  0  0
  3  4  1  0  0  0  0
  3  5  1  0  0  0  0
  3 19  1  0  0  0  0
  4 31  1  0  0  0  0
  4 32  1  0  0  0  0
  4 33  1  0  0  0  0
  5  6  1  0  0  0  0
  5 34  1  0  0  0  0
  5 35  1  0  0  0  0
  6  7  1  0  0  0  0
  6 36  1  0  0  0  0
  7  8  2  0  0  0  0
  7  9  1  0  0  0  0
  9 10  1  0  0  0  0
  9 37  1  0  0  0  0
  9 38  1  0  0  0  0
 10 17  1  0  0  0  0
 10 11  2  0  0  0  0
 11 12  1  0  0  0  0
 11 13  1  0  0  0  0
 12 39  1  0  0  0  0
 12 40  1  0  0  0  0
 12 41  1  0  0  0  0
 13 14  2  0  0  0  0
 14 15  1  0  0  0  0
 14 16  1  0  0  0  0
 15 42  1  0  0  0  0
 15 43  1  0  0  0  0
 15 44  1  0  0  0  0
 16 25  1  0  0  0  0
 16 17  1  0  0  0  0
 17 18  2  0  0  0  0
 19 24  1  0  0  0  0
 19 20  1  0  0  0  0
 19 53  1  0  0  0  0
 20 21  1  0  0  0  0
 20 45  1  0  0  0  0
 20 46  1  0  0  0  0
 21 22  1  0  0  0  0
 21 47  1  0  0  0  0
 21 48  1  0  0  0  0
 22 23  1  0  0  0  0
 23 24  1  0  0  0  0
 23 49  1  0  0  0  0
 23 50  1  0  0  0  0
 24 51  1  0  0  0  0
 24 52  1  0  0  0  0
M  CHG  1  19   1
M  END
> <s_m_source_file>
AV-unprocessed.smi

> <i_m_source_file_index>
1492

> <i_lp_mmshare_version>
43012

> <i_f3d_flags>
0

> <s_epik_input>
W0NIMl0xW0NIMl1PW0NIMl1bQ0gyXU4xW0NAQF0oW0NIM10pKFtDSDJdW0NIM10pW0NIMl1bTkhdQyg9TylbQ0gyXWMyYyhbQ0gzXSluYyhbQ0gzXSlbbkhdYzI9Tw==

> <s_epik_cmdline>
J2VwaWtfcHl0aG9uJywgJy1waCcsICc3LjAnLCAnLXRuJywgJzgnLCAnLW1hJywgJzIwMCcsICctbWV0YWxfYmluZGluZycsICctaW1hZScsICc8aW5maWxlLm1hZT4nLCAnLW9tYWUnLCAnPG91dGZpbGUubWFlPic=

> <r_lp_tautomer_probability>
0.839158

> <r_epik_Ionization_Penalty>
0.506959

> <r_epik_Ionization_Penalty_Charging>
0.506936

> <r_epik_Ionization_Penalty_Neutral>
2.27768e-05

> <r_epik_State_Penalty>
0.6046

> <r_epik_Charging_Adjusted_Penalty>
1.11154

> <i_epik_Tot_Q>
1

> <i_epik_Tot_abs_Q>
1

> <r_epik_Metal_State_Penalty>
0.783136

> <b_epik_Metal_Only>
0

> <s_lp_Force_Field>
OPLS_2005

> <r_lp_Energy>
29.8272

> <b_lp_Chiralities_Consistent>
1

> <s_lp_Variant>
AV-unprocessed.smi:1492-3

> <Gold.Version>
5.8.1

> <Gold.Id.Protein>
6NUR|6NUR_protein|mol2

> <Gold.PLP.Fitness>
43.4266

> <Gold.PLP.PLP>
-36.2593

> <Gold.PLP.part.hbond>
-2.0000

> <Gold.PLP.part.metal>
0.0000

> <Gold.PLP.part.buried>
-4.1043

> <Gold.PLP.part.nonpolar>
-30.9398

> <Gold.PLP.part.repulsive>
0.7242

> <Gold.PLP.ligand.clash>
0.0000

> <Gold.PLP.ligand.torsion>
1.0245

> <Gold.PLP.Chemscore.Hbond>
2.9920

> <Gold.PLP.Chemscore.CHOScore>
0.0000

> <Gold.PLP.Chemscore.Metal>
0.0000

> <Gold.Chemscore.Hbonds>
donor molecule, donor type, donor heavy atom, donor atom, acceptor molecule, acceptor atom, score
      L1  H    16    25       P1 10737  0.54
      L1  H    19    53       P1  7948  2.00

> <Gold.PLP.Chemscore.Internal.Correction>
0.2404

> <Gold.Rescore>
     Score         DG    S(hbond)    S(metal)    S(lipo)     H(rot)  DE(clash)    DE(int)     intcor
     12.43     -15.73       1.92        0.00      80.79       2.19       1.11       2.18       ----

> <Gold.Chemscore.Fitness>
12.4328

> <Gold.Chemscore.DG>
-15.7308

> <Gold.Chemscore.ZeroCoef>
-5.4800

> <Gold.Chemscore.Hbond>
1.9195

> <Gold.Chemscore.Metal>
0.0000

> <Gold.Chemscore.Lipo>
80.7926

> <Gold.Chemscore.Internal_Hbond>
0.0000

> <Gold.Chemscore.DEClash>
1.1146

> <Gold.Chemscore.DEInternal>
2.1834

> <Gold.Chemscore.Rot>
2.1926

> <Gold.Chemscore.Internal.Correction>
   9.000000E+99

> <Gold.Chemscore.Hbonds>
donor molecule, donor type, donor heavy atom, donor atom, acceptor molecule, acceptor atom, score
      L1  H    16    25       P1 10737  0.53
      L1  H    19    53       P1  7948  1.00

> <Gold.Chemscore.Hbond.Weighted>
-6.4111

> <Gold.Chemscore.Metal.Weighted>
-0.0000

> <Gold.Chemscore.Lipo.Weighted>
-9.4527

> <Gold.Chemscore.Internal_Hbond.Weighted>
0.0000

> <Gold.Chemscore.DEClash.Weighted>
1.1146

> <Gold.Chemscore.DEInternal.Weighted>
2.1834

> <Gold.Chemscore.Rot.Weighted>
5.6129

> <Gold.Chemscore.Internal.Correction.Weighted>
   9.000000E+99

> <Gold.Protein.RotatedTorsions>
[ 6907 6896 6895 6894 ] final   60.34 input  -60.11 | X-H torsion
[ 7974 7965 7964 7962 ] final  -99.48 input  175.53 | X-H torsion
[ 8008 7997 7996 7995 ] final  -82.11 input   59.86 | X-H torsion
[ 10167 10162 10161 10158 ] final  -82.99 input  -65.29 | X-H torsion
[ 10718 10713 10712 10709 ] final  -14.82 input   66.30 | X-H torsion
[ 10763 10752 10751 10750 ] final -165.61 input  -60.55 | X-H torsion
[ 11005 11000 10999 10996 ] final  -18.21 input  -57.11 | X-H torsion

> <Gold.Protein.ActiveResidues>
 VAL166  LYS551  ARG553  GLY616  TRP617  ASP618  TYR619  PRO620  LYS621  CYS622 
 ASP623  PHE694  ASN695  SER759  ASP760  ASP761  ALA762  ILE779  LEU786  VAL792 
 PHE793  MET794  SER795  GLU796  ALA797  LYS798  CYS799  TRP800  GLU811  SER814 

> <Gold.Protein.RotatedAtoms>
  152.3994  134.6311  160.0075 H   0  0  0  0  0  0  0  0  0  0  0  0  # atno 6907 bound_to 6896
  151.6520  133.3315  159.3162 H   0  0  0  0  0  0  0  0  0  0  0  0  # atno 6908 bound_to 6896
  150.7897  134.6953  159.6564 H   0  0  0  0  0  0  0  0  0  0  0  0  # atno 6909 bound_to 6896
  145.3070  140.9391  143.2791 H   0  0  0  0  0  0  0  0  0  0  0  0  # atno 7974 bound_to 7965
  154.6052  140.0638  156.9422 H   0  0  0  0  0  0  0  0  0  0  0  0  # atno 8008 bound_to 7997
  155.2065  140.3319  155.4317 H   0  0  0  0  0  0  0  0  0  0  0  0  # atno 8009 bound_to 7997
  156.2343  140.1855  156.7144 H   0  0  0  0  0  0  0  0  0  0  0  0  # atno 8010 bound_to 7997
  140.4268  143.2563  151.8814 H   0  0  0  0  0  0  0  0  0  0  0  0  # atno 10167 bound_to 10162
  156.6105  130.4848  149.6203 H   0  0  0  0  0  0  0  0  0  0  0  0  # atno 10718 bound_to 10713
  154.6915  135.2971  154.9473 H   0  0  0  0  0  0  0  0  0  0  0  0  # atno 10763 bound_to 10752
  154.0434  135.6654  153.4796 H   0  0  0  0  0  0  0  0  0  0  0  0  # atno 10764 bound_to 10752
  153.0615  135.5113  154.8010 H   0  0  0  0  0  0  0  0  0  0  0  0  # atno 10765 bound_to 10752
  140.8245  133.8043  155.9694 H   0  0  0  0  0  0  0  0  0  0  0  0  # atno 11005 bound_to 11000
  144.9047  139.4605  143.6616 LP  0  0  0  0  0  0  0  0  0  0  0  0  # atno 17320 bound_to 7965
  146.3131  139.7820  142.9004 LP  0  0  0  0  0  0  0  0  0  0  0  0  # atno 17321 bound_to 7965
  139.4784  144.5378  151.8573 LP  0  0  0  0  0  0  0  0  0  0  0  0  # atno 17342 bound_to 10162
  140.4472  144.1905  150.5895 LP  0  0  0  0  0  0  0  0  0  0  0  0  # atno 17343 bound_to 10162
  156.2393  130.6842  151.1540 LP  0  0  0  0  0  0  0  0  0  0  0  0  # atno 17370 bound_to 10713
  157.7255  131.0652  150.5949 LP  0  0  0  0  0  0  0  0  0  0  0  0  # atno 17371 bound_to 10713
  140.9064  134.2315  157.5012 LP  0  0  0  0  0  0  0  0  0  0  0  0  # atno 17394 bound_to 11000
  139.8707  134.9730  156.4793 LP  0  0  0  0  0  0  0  0  0  0  0  0  # atno 17395 bound_to 11000

$$$$
