AV-unprocessed.smi:870|AV-procd|sdf|4007|dock7
  -GOLD-   22720 1493D 1   1.00000     0.00000
 Structure written by MMmdl.
 46 48  0  0  0  0  0  0  0  0  1 V2000
  152.8837  142.3007  160.3373 C   0  0  0  0  0  0  0  0  0  0  0  0
  152.3858  141.9984  159.0464 O   0  0  0  0  0  0  0  0  0  0  0  0
  151.7289  140.7409  159.0003 C   0  0  0  0  0  0  0  0  0  0  0  0
  150.9775  140.6424  157.7028 C   0  0  0  0  0  0  0  0  0  0  0  0
  150.6709  141.7058  156.9553 N   0  0  0  0  0  0  0  0  0  0  0  0
  150.0043  141.1463  155.8836 C   0  0  0  0  0  0  0  0  0  0  0  0
  149.4262  141.7502  154.7441 C   0  0  0  0  0  0  0  0  0  0  0  0
  148.7896  140.9610  153.7638 C   0  0  0  0  0  0  0  0  0  0  0  0
  148.7226  139.5599  153.9082 C   0  0  0  0  0  0  0  0  0  0  0  0
  149.2925  138.9385  155.0361 C   0  0  0  0  0  0  0  0  0  0  0  0
  149.9260  139.7313  156.0119 C   0  0  0  0  0  0  0  0  0  0  0  0
  150.5702  139.4446  157.2110 N   0  0  0  0  0  0  0  0  0  0  0  0
  150.7559  138.1173  157.7836 C   0  0  0  0  0  0  0  0  0  0  0  0
  150.0609  137.9584  159.1509 C   0  0  2  0  0  0  0  0  0  0  0  0
  150.9224  137.2637  160.0316 O   0  0  0  0  0  0  0  0  0  0  0  0
  148.7425  137.1768  159.0353 C   0  0  0  0  0  0  0  0  0  0  0  0
  148.0876  137.1926  160.2966 O   0  0  0  0  0  0  0  0  0  0  0  0
  147.4255  136.0548  160.7105 C   0  0  0  0  0  0  0  0  0  0  0  0
  147.3405  134.8679  159.9381 C   0  0  0  0  0  0  0  0  0  0  0  0
  146.6452  133.7448  160.4252 C   0  0  0  0  0  0  0  0  0  0  0  0
  146.0267  133.7904  161.6871 C   0  0  0  0  0  0  0  0  0  0  0  0
  146.1041  134.9615  162.4623 C   0  0  0  0  0  0  0  0  0  0  0  0
  146.7999  136.0897  161.9791 C   0  0  0  0  0  0  0  0  0  0  0  0
  146.8724  137.3451  162.8281 C   0  0  0  0  0  0  0  0  0  0  0  0
  153.3812  143.2702  160.3205 H   0  0  0  0  0  0  0  0  0  0  0  0
  153.6096  141.5553  160.6643 H   0  0  0  0  0  0  0  0  0  0  0  0
  152.0766  142.3485  161.0693 H   0  0  0  0  0  0  0  0  0  0  0  0
  152.4545  139.9283  159.0597 H   0  0  0  0  0  0  0  0  0  0  0  0
  151.0332  140.6479  159.8349 H   0  0  0  0  0  0  0  0  0  0  0  0
  149.4730  142.8225  154.6247 H   0  0  0  0  0  0  0  0  0  0  0  0
  148.3508  141.4330  152.8970 H   0  0  0  0  0  0  0  0  0  0  0  0
  148.2329  138.9627  153.1530 H   0  0  0  0  0  0  0  0  0  0  0  0
  149.2421  137.8659  155.1504 H   0  0  0  0  0  0  0  0  0  0  0  0
  150.3504  137.3926  157.0765 H   0  0  0  0  0  0  0  0  0  0  0  0
  151.8196  137.8936  157.8647 H   0  0  0  0  0  0  0  0  0  0  0  0
  149.8609  138.9479  159.5644 H   0  0  0  0  0  0  0  0  0  0  0  0
  151.6561  137.8224  160.2376 H   0  0  0  0  0  0  0  0  0  0  0  0
  148.0952  137.6693  158.3077 H   0  0  0  0  0  0  0  0  0  0  0  0
  148.9244  136.1588  158.6859 H   0  0  0  0  0  0  0  0  0  0  0  0
  147.8004  134.7920  158.9646 H   0  0  0  0  0  0  0  0  0  0  0  0
  146.5865  132.8465  159.8284 H   0  0  0  0  0  0  0  0  0  0  0  0
  145.4930  132.9287  162.0601 H   0  0  0  0  0  0  0  0  0  0  0  0
  145.6256  134.9893  163.4304 H   0  0  0  0  0  0  0  0  0  0  0  0
  146.3813  137.2054  163.7915 H   0  0  0  0  0  0  0  0  0  0  0  0
  146.3854  138.1758  162.3164 H   0  0  0  0  0  0  0  0  0  0  0  0
  147.9115  137.6174  163.0149 H   0  0  0  0  0  0  0  0  0  0  0  0
  1  2  1  0  0  0  0
  1 25  1  0  0  0  0
  1 26  1  0  0  0  0
  1 27  1  0  0  0  0
  2  3  1  0  0  0  0
  3  4  1  0  0  0  0
  3 28  1  0  0  0  0
  3 29  1  0  0  0  0
  4 12  1  0  0  0  0
  4  5  2  0  0  0  0
  5  6  1  0  0  0  0
  6 11  2  0  0  0  0
  6  7  1  0  0  0  0
  7  8  2  0  0  0  0
  7 30  1  0  0  0  0
  8  9  1  0  0  0  0
  8 31  1  0  0  0  0
  9 10  2  0  0  0  0
  9 32  1  0  0  0  0
 10 11  1  0  0  0  0
 10 33  1  0  0  0  0
 11 12  1  0  0  0  0
 12 13  1  0  0  0  0
 13 14  1  0  0  0  0
 13 34  1  0  0  0  0
 13 35  1  0  0  0  0
 14 15  1  0  0  0  0
 14 16  1  0  0  0  0
 14 36  1  0  0  0  0
 15 37  1  0  0  0  0
 16 17  1  0  0  0  0
 16 38  1  0  0  0  0
 16 39  1  0  0  0  0
 17 18  1  0  0  0  0
 18 23  1  0  0  0  0
 18 19  2  0  0  0  0
 19 20  1  0  0  0  0
 19 40  1  0  0  0  0
 20 21  2  0  0  0  0
 20 41  1  0  0  0  0
 21 22  1  0  0  0  0
 21 42  1  0  0  0  0
 22 23  2  0  0  0  0
 22 43  1  0  0  0  0
 23 24  1  0  0  0  0
 24 44  1  0  0  0  0
 24 45  1  0  0  0  0
 24 46  1  0  0  0  0
M  END
> <s_m_source_file>
AV-unprocessed.smi

> <i_m_source_file_index>
870

> <i_lp_mmshare_version>
43012

> <i_f3d_flags>
0

> <s_epik_input>
W2NIXTFbY0hdW2NIXVtjSF1jKGMxMiluKGMobjIpW0NIMl1PW0NIM10pW0NIMl1bQ0BIXShbT0hdKVtDSDJdT2MzW2NIXVtjSF1bY0hdW2NIXWMzW0NIM10=

> <s_epik_cmdline>
J2VwaWtfcHl0aG9uJywgJy1waCcsICc3LjAnLCAnLXRuJywgJzgnLCAnLW1hJywgJzIwMCcsICctbWV0YWxfYmluZGluZycsICctaW1hZScsICc8aW5maWxlLm1hZT4nLCAnLW9tYWUnLCAnPG91dGZpbGUubWFlPic=

> <r_lp_tautomer_probability>
1

> <r_epik_Ionization_Penalty>
0.0447032

> <r_epik_Ionization_Penalty_Charging>
0

> <r_epik_Ionization_Penalty_Neutral>
0.0447032

> <r_epik_State_Penalty>
0.0379025

> <r_epik_Charging_Adjusted_Penalty>
0.0379025

> <i_epik_Tot_Q>
0

> <i_epik_Tot_abs_Q>
0

> <r_epik_Metal_State_Penalty>
3.91398e-05

> <b_epik_Metal_Only>
0

> <s_lp_Force_Field>
OPLS_2005

> <r_lp_Energy>
17.6925

> <b_lp_Chiralities_Consistent>
1

> <s_lp_Variant>
AV-unprocessed.smi:870-1

> <Gold.Version>
5.8.1

> <Gold.Id.Protein>
6NUR|6NUR_protein|mol2

> <Gold.PLP.Fitness>
49.2377

> <Gold.PLP.PLP>
-46.1788

> <Gold.PLP.part.hbond>
-2.2980

> <Gold.PLP.part.metal>
0.0000

> <Gold.PLP.part.buried>
-1.4953

> <Gold.PLP.part.nonpolar>
-43.2219

> <Gold.PLP.part.repulsive>
0.0575

> <Gold.PLP.ligand.clash>
0.0000

> <Gold.PLP.ligand.torsion>
1.1798

> <Gold.PLP.Chemscore.Hbond>
1.7680

> <Gold.PLP.Chemscore.CHOScore>
0.0000

> <Gold.PLP.Chemscore.Metal>
0.0000

> <Gold.Chemscore.Hbonds>
donor molecule, donor type, donor heavy atom, donor atom, acceptor molecule, acceptor atom, score
      P1  H  6896  6908       L1    15  0.70
      P1  H  6931  6943       L1    17  0.50
      P1  H  6934  6947       L1    17  0.54

> <Gold.PLP.Chemscore.Internal.Correction>
0.1146

> <Gold.Rescore>
     Score         DG    S(hbond)    S(metal)    S(lipo)     H(rot)  DE(clash)    DE(int)     intcor
     17.57     -18.73       1.79        0.00     113.69       2.36       0.01       1.14       ----

> <Gold.Chemscore.Fitness>
17.5727

> <Gold.Chemscore.DG>
-18.7298

> <Gold.Chemscore.ZeroCoef>
-5.4800

> <Gold.Chemscore.Hbond>
1.7923

> <Gold.Chemscore.Metal>
0.0000

> <Gold.Chemscore.Lipo>
113.6874

> <Gold.Chemscore.Internal_Hbond>
0.0000

> <Gold.Chemscore.DEClash>
0.0142

> <Gold.Chemscore.DEInternal>
1.1430

> <Gold.Chemscore.Rot>
2.3585

> <Gold.Chemscore.Internal.Correction>
   9.000000E+99

> <Gold.Chemscore.Hbonds>
donor molecule, donor type, donor heavy atom, donor atom, acceptor molecule, acceptor atom, score
      P1  H  6896  6908       L1    15  0.65
      P1  H  6931  6943       L1    17  0.42
      P1  H  6934  6947       L1    17  0.46

> <Gold.Chemscore.Hbond.Weighted>
-5.9862

> <Gold.Chemscore.Metal.Weighted>
-0.0000

> <Gold.Chemscore.Lipo.Weighted>
-13.3014

> <Gold.Chemscore.Internal_Hbond.Weighted>
0.0000

> <Gold.Chemscore.DEClash.Weighted>
0.0142

> <Gold.Chemscore.DEInternal.Weighted>
1.1430

> <Gold.Chemscore.Rot.Weighted>
6.0378

> <Gold.Chemscore.Internal.Correction.Weighted>
   9.000000E+99

> <Gold.Protein.RotatedTorsions>
[ 6907 6896 6895 6894 ] final -133.95 input  -60.11 | X-H torsion
[ 7974 7965 7964 7962 ] final -175.51 input  175.53 | X-H torsion
[ 8008 7997 7996 7995 ] final   48.13 input   59.86 | X-H torsion
[ 10167 10162 10161 10158 ] final  -87.07 input  -65.29 | X-H torsion
[ 10718 10713 10712 10709 ] final -174.49 input   66.30 | X-H torsion
[ 10763 10752 10751 10750 ] final   42.88 input  -60.55 | X-H torsion
[ 11005 11000 10999 10996 ] final -124.00 input  -57.11 | X-H torsion

> <Gold.Protein.ActiveResidues>
 VAL166  LYS551  ARG553  GLY616  TRP617  ASP618  TYR619  PRO620  LYS621  CYS622 
 ASP623  PHE694  ASN695  SER759  ASP760  ASP761  ALA762  ILE779  LEU786  VAL792 
 PHE793  MET794  SER795  GLU796  ALA797  LYS798  CYS799  TRP800  GLU811  SER814 

> <Gold.Protein.RotatedAtoms>
  150.9801  133.6254  159.2723 H   0  0  0  0  0  0  0  0  0  0  0  0  # atno 6907 bound_to 6896
  151.3512  135.0884  159.9413 H   0  0  0  0  0  0  0  0  0  0  0  0  # atno 6908 bound_to 6896
  152.5212  133.9393  159.7673 H   0  0  0  0  0  0  0  0  0  0  0  0  # atno 6909 bound_to 6896
  144.7128  140.1310  143.6398 H   0  0  0  0  0  0  0  0  0  0  0  0  # atno 7974 bound_to 7965
  155.3805  140.3428  155.4246 H   0  0  0  0  0  0  0  0  0  0  0  0  # atno 8008 bound_to 7997
  156.1613  140.1601  156.8641 H   0  0  0  0  0  0  0  0  0  0  0  0  # atno 8009 bound_to 7997
  154.5142  140.0782  156.8031 H   0  0  0  0  0  0  0  0  0  0  0  0  # atno 8010 bound_to 7997
  140.3880  143.2718  151.9301 H   0  0  0  0  0  0  0  0  0  0  0  0  # atno 10167 bound_to 10162
  156.7859  130.9500  151.3120 H   0  0  0  0  0  0  0  0  0  0  0  0  # atno 10718 bound_to 10713
  152.9873  135.6118  154.3021 H   0  0  0  0  0  0  0  0  0  0  0  0  # atno 10763 bound_to 10752
  154.2741  135.2779  155.2727 H   0  0  0  0  0  0  0  0  0  0  0  0  # atno 10764 bound_to 10752
  154.5096  135.5844  153.6651 H   0  0  0  0  0  0  0  0  0  0  0  0  # atno 10765 bound_to 10752
  140.9875  134.0586  157.3693 H   0  0  0  0  0  0  0  0  0  0  0  0  # atno 11005 bound_to 11000
  145.9287  139.2592  143.1338 LP  0  0  0  0  0  0  0  0  0  0  0  0  # atno 17320 bound_to 7965
  145.9546  140.8883  143.0242 LP  0  0  0  0  0  0  0  0  0  0  0  0  # atno 17321 bound_to 7965
  139.4791  144.5755  151.8018 LP  0  0  0  0  0  0  0  0  0  0  0  0  # atno 17342 bound_to 10162
  140.4869  144.1367  150.5943 LP  0  0  0  0  0  0  0  0  0  0  0  0  # atno 17343 bound_to 10162
  157.6624  130.8978  149.9858 LP  0  0  0  0  0  0  0  0  0  0  0  0  # atno 17370 bound_to 10713
  156.1189  130.3646  149.9921 LP  0  0  0  0  0  0  0  0  0  0  0  0  # atno 17371 bound_to 10713
  139.8977  135.0151  156.7114 LP  0  0  0  0  0  0  0  0  0  0  0  0  # atno 17394 bound_to 11000
  140.7091  133.9239  155.8073 LP  0  0  0  0  0  0  0  0  0  0  0  0  # atno 17395 bound_to 11000

$$$$
