AV-unprocessed.smi:2804|AV-procd|sdf|10811|dock5
  -GOLD-   2272015243D 1   1.00000     0.00000
 Structure written by MMmdl.
 34 35  0  0  0  0  0  0  0  0  2 V2000
  148.7244  141.3190  154.7138 C   0  0  0  0  0  0  0  0  0  0  0  0
  149.5013  141.1609  156.0246 C   0  0  0  0  0  0  0  0  0  0  0  0
  150.7714  142.0246  156.0615 C   0  0  0  0  0  0  0  0  0  0  0  0
  151.4110  141.9680  157.3738 N   0  0  0  0  0  0  0  0  0  0  0  0
  151.9338  140.8696  157.9675 C   0  0  0  0  0  0  0  0  0  0  0  0
  151.9755  139.7400  157.4786 O   0  0  0  0  0  0  0  0  0  0  0  0
  152.4113  141.2308  159.1865 N   0  0  0  0  0  0  0  0  0  0  0  0
  153.1066  140.3671  160.1560 C   0  0  0  0  0  0  0  0  0  0  0  0
  154.6580  140.4969  160.1355 C   0  0  2  0  0  0  0  0  0  0  0  0
  155.0861  139.8494  159.0778 O   0  5  0  0  0  0  0  0  0  0  0  0
  155.2983  139.8325  161.3790 C   0  0  0  0  0  0  0  0  0  0  0  0
  154.9090  140.4580  162.4917 F   0  0  0  0  0  0  0  0  0  0  0  0
  154.8971  138.5634  161.4658 F   0  0  0  0  0  0  0  0  0  0  0  0
  156.6319  139.8458  161.3140 F   0  0  0  0  0  0  0  0  0  0  0  0
  152.2064  142.6115  159.3588 C   0  0  0  0  0  0  0  0  0  0  0  0
  152.5295  143.4691  160.4257 C   0  0  0  0  0  0  0  0  0  0  0  0
  152.1727  144.8313  160.2946 C   0  0  0  0  0  0  0  0  0  0  0  0
  151.5144  145.3009  159.1289 C   0  0  0  0  0  0  0  0  0  0  0  0
  151.2015  144.4181  158.0690 C   0  0  0  0  0  0  0  0  0  0  0  0
  151.5706  143.0703  158.2241 C   0  0  0  0  0  0  0  0  0  0  0  0
  147.8297  140.6959  154.7150 H   0  0  0  0  0  0  0  0  0  0  0  0
  149.3339  141.0263  153.8584 H   0  0  0  0  0  0  0  0  0  0  0  0
  148.4105  142.3524  154.5650 H   0  0  0  0  0  0  0  0  0  0  0  0
  148.8532  141.4254  156.8608 H   0  0  0  0  0  0  0  0  0  0  0  0
  149.7656  140.1114  156.1597 H   0  0  0  0  0  0  0  0  0  0  0  0
  151.4737  141.6888  155.2971 H   0  0  0  0  0  0  0  0  0  0  0  0
  150.5320  143.0592  155.8147 H   0  0  0  0  0  0  0  0  0  0  0  0
  152.7379  140.6217  161.1506 H   0  0  0  0  0  0  0  0  0  0  0  0
  152.8043  139.3300  160.0027 H   0  0  0  0  0  0  0  0  0  0  0  0
  154.8642  141.5629  160.2451 H   0  0  0  0  0  0  0  0  0  0  0  0
  153.0230  143.1044  161.3144 H   0  0  0  0  0  0  0  0  0  0  0  0
  152.4011  145.5207  161.0939 H   0  0  0  0  0  0  0  0  0  0  0  0
  151.2479  146.3445  159.0504 H   0  0  0  0  0  0  0  0  0  0  0  0
  150.6993  144.7702  157.1803 H   0  0  0  0  0  0  0  0  0  0  0  0
  1  2  1  0  0  0  0
  1 21  1  0  0  0  0
  1 22  1  0  0  0  0
  1 23  1  0  0  0  0
  2  3  1  0  0  0  0
  2 24  1  0  0  0  0
  2 25  1  0  0  0  0
  3  4  1  0  0  0  0
  3 26  1  0  0  0  0
  3 27  1  0  0  0  0
  4 20  1  0  0  0  0
  4  5  1  0  0  0  0
  5  6  2  0  0  0  0
  5  7  1  0  0  0  0
  7  8  1  0  0  0  0
  7 15  1  0  0  0  0
  8  9  1  0  0  0  0
  8 28  1  0  0  0  0
  8 29  1  0  0  0  0
  9 10  1  0  0  0  0
  9 11  1  0  0  0  0
  9 30  1  0  0  0  0
 11 12  1  0  0  0  0
 11 13  1  0  0  0  0
 11 14  1  0  0  0  0
 15 20  2  0  0  0  0
 15 16  1  0  0  0  0
 16 17  2  0  0  0  0
 16 31  1  0  0  0  0
 17 18  1  0  0  0  0
 17 32  1  0  0  0  0
 18 19  2  0  0  0  0
 18 33  1  0  0  0  0
 19 20  1  0  0  0  0
 19 34  1  0  0  0  0
M  CHG  1  10  -1
M  END
> <s_m_source_file>
AV-unprocessed.smi

> <i_m_source_file_index>
2804

> <i_lp_mmshare_version>
43012

> <i_f3d_flags>
0

> <s_epik_input>
W2NIXTFbY0hdW2NIXVtjSF1jKGMxMiluKFtDSDJdW0NIMl1bQ0gzXSljKD1PKW4yW0NIMl1bQ0BIXShbT0hdKUMoRikoRilG

> <s_epik_cmdline>
J2VwaWtfcHl0aG9uJywgJy1waCcsICc3LjAnLCAnLXRuJywgJzgnLCAnLW1hJywgJzIwMCcsICctbWV0YWxfYmluZGluZycsICctaW1hZScsICc8aW5maWxlLm1hZT4nLCAnLW9tYWUnLCAnPG91dGZpbGUubWFlPic=

> <r_epik_Ionization_Penalty>
2.32651

> <r_epik_Ionization_Penalty_Charging>
2.32651

> <r_epik_Ionization_Penalty_Neutral>
0

> <r_epik_State_Penalty>
2.47909

> <r_epik_Charging_Adjusted_Penalty>
4.8056

> <i_epik_Tot_Q>
-1

> <i_epik_Tot_abs_Q>
1

> <r_epik_Metal_State_Penalty>
2.47909

> <b_epik_Metal_Only>
0

> <s_lp_Force_Field>
OPLS_2005

> <r_lp_Energy>
44.0832

> <b_lp_Chiralities_Consistent>
1

> <s_lp_Variant>
AV-unprocessed.smi:2804-3

> <Gold.Version>
5.8.1

> <Gold.Id.Protein>
6NUR|6NUR_protein|mol2

> <Gold.PLP.Fitness>
49.6501

> <Gold.PLP.PLP>
-44.4288

> <Gold.PLP.part.hbond>
-1.0000

> <Gold.PLP.part.metal>
0.0000

> <Gold.PLP.part.buried>
-3.4619

> <Gold.PLP.part.nonpolar>
-39.1127

> <Gold.PLP.part.repulsive>
0.0000

> <Gold.PLP.ligand.clash>
0.0000

> <Gold.PLP.ligand.torsion>
0.4116

> <Gold.PLP.Chemscore.Hbond>
2.0000

> <Gold.PLP.Chemscore.CHOScore>
0.0000

> <Gold.PLP.Chemscore.Metal>
0.0000

> <Gold.Chemscore.Hbonds>
donor molecule, donor type, donor heavy atom, donor atom, acceptor molecule, acceptor atom, score
      P1  H  7997  8009       L1    10  2.00

> <Gold.PLP.Chemscore.Internal.Correction>
0.0445

> <Gold.Rescore>
     Score         DG    S(hbond)    S(metal)    S(lipo)     H(rot)  DE(clash)    DE(int)     intcor
     17.43     -18.02       0.99        0.00     116.67       1.72       0.20       0.38       ----

> <Gold.Chemscore.Fitness>
17.4340

> <Gold.Chemscore.DG>
-18.0209

> <Gold.Chemscore.ZeroCoef>
-5.4800

> <Gold.Chemscore.Hbond>
0.9850

> <Gold.Chemscore.Metal>
0.0000

> <Gold.Chemscore.Lipo>
116.6670

> <Gold.Chemscore.Internal_Hbond>
0.0000

> <Gold.Chemscore.DEClash>
0.2026

> <Gold.Chemscore.DEInternal>
0.3843

> <Gold.Chemscore.Rot>
1.7185

> <Gold.Chemscore.Internal.Correction>
   9.000000E+99

> <Gold.Chemscore.Hbonds>
donor molecule, donor type, donor heavy atom, donor atom, acceptor molecule, acceptor atom, score
      P1  H  7997  8009       L1    10  0.99

> <Gold.Chemscore.Hbond.Weighted>
-3.2901

> <Gold.Chemscore.Metal.Weighted>
-0.0000

> <Gold.Chemscore.Lipo.Weighted>
-13.6500

> <Gold.Chemscore.Internal_Hbond.Weighted>
0.0000

> <Gold.Chemscore.DEClash.Weighted>
0.2026

> <Gold.Chemscore.DEInternal.Weighted>
0.3843

> <Gold.Chemscore.Rot.Weighted>
4.3992

> <Gold.Chemscore.Internal.Correction.Weighted>
   9.000000E+99

> <Gold.Protein.RotatedTorsions>
[ 6907 6896 6895 6894 ] final  -81.63 input  -60.11 | X-H torsion
[ 7974 7965 7964 7962 ] final   19.06 input  175.53 | X-H torsion
[ 8008 7997 7996 7995 ] final  113.51 input   59.86 | X-H torsion
[ 10167 10162 10161 10158 ] final  139.12 input  -65.29 | X-H torsion
[ 10718 10713 10712 10709 ] final  165.28 input   66.30 | X-H torsion
[ 10763 10752 10751 10750 ] final -171.46 input  -60.55 | X-H torsion
[ 11005 11000 10999 10996 ] final  144.23 input  -57.11 | X-H torsion

> <Gold.Protein.ActiveResidues>
 VAL166  LYS551  ARG553  GLY616  TRP617  ASP618  TYR619  PRO620  LYS621  CYS622 
 ASP623  PHE694  ASN695  SER759  ASP760  ASP761  ALA762  ILE779  LEU786  VAL792 
 PHE793  MET794  SER795  GLU796  ALA797  LYS798  CYS799  TRP800  GLU811  SER814 

> <Gold.Protein.RotatedAtoms>
  150.6909  134.3788  159.5024 H   0  0  0  0  0  0  0  0  0  0  0  0  # atno 6907 bound_to 6896
  152.1593  134.8922  160.0552 H   0  0  0  0  0  0  0  0  0  0  0  0  # atno 6908 bound_to 6896
  151.9990  133.3784  159.4211 H   0  0  0  0  0  0  0  0  0  0  0  0  # atno 6909 bound_to 6896
  146.2163  139.8367  142.8649 H   0  0  0  0  0  0  0  0  0  0  0  0  # atno 7974 bound_to 7965
  156.2262  140.2978  156.0074 H   0  0  0  0  0  0  0  0  0  0  0  0  # atno 8008 bound_to 7997
  155.2349  140.0420  157.2984 H   0  0  0  0  0  0  0  0  0  0  0  0  # atno 8009 bound_to 7997
  154.5920  140.2404  155.7916 H   0  0  0  0  0  0  0  0  0  0  0  0  # atno 8010 bound_to 7997
  139.5089  144.6313  151.5809 H   0  0  0  0  0  0  0  0  0  0  0  0  # atno 10167 bound_to 10162
  157.0824  131.0395  151.2570 H   0  0  0  0  0  0  0  0  0  0  0  0  # atno 10718 bound_to 10713
  154.6302  135.2885  155.0225 H   0  0  0  0  0  0  0  0  0  0  0  0  # atno 10763 bound_to 10752
  154.1389  135.6522  153.4941 H   0  0  0  0  0  0  0  0  0  0  0  0  # atno 10764 bound_to 10752
  153.0276  135.5328  154.7126 H   0  0  0  0  0  0  0  0  0  0  0  0  # atno 10765 bound_to 10752
  140.0616  134.9201  157.1193 H   0  0  0  0  0  0  0  0  0  0  0  0  # atno 11005 bound_to 11000
  145.2941  141.0175  143.3646 LP  0  0  0  0  0  0  0  0  0  0  0  0  # atno 17320 bound_to 7965
  144.9055  139.4594  143.6612 LP  0  0  0  0  0  0  0  0  0  0  0  0  # atno 17321 bound_to 7965
  140.6047  143.9546  150.6410 LP  0  0  0  0  0  0  0  0  0  0  0  0  # atno 17342 bound_to 10162
  140.2769  143.3417  152.1187 LP  0  0  0  0  0  0  0  0  0  0  0  0  # atno 17343 bound_to 10162
  157.4789  130.7753  149.7395 LP  0  0  0  0  0  0  0  0  0  0  0  0  # atno 17370 bound_to 10713
  155.9920  130.3934  150.2961 LP  0  0  0  0  0  0  0  0  0  0  0  0  # atno 17371 bound_to 10713
  140.3762  134.2336  155.7174 LP  0  0  0  0  0  0  0  0  0  0  0  0  # atno 17394 bound_to 11000
  141.1975  133.8057  157.0624 LP  0  0  0  0  0  0  0  0  0  0  0  0  # atno 17395 bound_to 11000

$$$$
