AV-unprocessed.smi:2923|AV-procd|sdf|11216|dock7
  -GOLD-   2272016103D 1   1.00000     0.00000
 Structure written by MMmdl.
 46 48  0  0  0  0  0  0  0  0  1 V2000
  151.2618  142.5275  157.6226 C   0  0  0  0  0  0  0  0  0  0  0  0
  151.5896  143.5178  158.6406 N   0  0  0  0  0  0  0  0  0  0  0  0
  151.2306  144.9174  158.4363 C   0  0  0  0  0  0  0  0  0  0  0  0
  152.2836  143.1327  159.8106 C   0  0  0  0  0  0  0  0  0  0  0  0
  152.1751  143.8742  161.0131 C   0  0  0  0  0  0  0  0  0  0  0  0
  152.8825  143.4489  162.1540 C   0  0  0  0  0  0  0  0  0  0  0  0
  153.6920  142.2930  162.0685 C   0  0  0  0  0  0  0  0  0  0  0  0
  154.4332  141.7475  163.1518 N   0  0  0  0  0  0  0  0  0  0  0  0
  154.4999  142.1749  164.4242 C   0  0  0  0  0  0  0  0  0  0  0  0
  153.9663  143.1930  164.8643 O   0  0  0  0  0  0  0  0  0  0  0  0
  155.2459  141.3520  165.1725 N   0  0  0  0  0  0  0  0  0  0  0  0
  155.4865  141.5289  166.5997 C   0  0  2  0  0  0  0  0  0  0  0  0
  155.7213  142.9917  166.9768 C   0  0  1  0  0  0  0  0  0  0  0  0
  154.9803  143.9939  167.7877 C   0  0  0  0  0  0  0  0  0  0  0  0
  156.1822  144.5321  168.6096 C   0  0  0  0  0  0  0  0  0  0  0  0
  157.2795  143.6223  168.3515 O   0  0  0  0  0  0  0  0  0  0  0  0
  156.6378  142.4049  168.0325 C   0  0  2  0  0  0  0  0  0  0  0  0
  156.9873  141.2965  167.0197 C   0  0  0  0  0  0  0  0  0  0  0  0
  157.2910  139.9282  167.6307 C   0  0  0  0  0  0  0  0  0  0  0  0
  158.1174  141.5788  166.0085 C   0  0  0  0  0  0  0  0  0  0  0  0
  153.7301  141.6158  160.8344 C   0  0  0  0  0  0  0  0  0  0  0  0
  153.0543  142.0200  159.7390 N   0  0  0  0  0  0  0  0  0  0  0  0
  152.1681  142.0586  157.2385 H   0  0  0  0  0  0  0  0  0  0  0  0
  150.7404  142.9812  156.7797 H   0  0  0  0  0  0  0  0  0  0  0  0
  150.6149  141.7529  158.0354 H   0  0  0  0  0  0  0  0  0  0  0  0
  152.1237  145.5428  158.4161 H   0  0  0  0  0  0  0  0  0  0  0  0
  150.5799  145.2665  159.2389 H   0  0  0  0  0  0  0  0  0  0  0  0
  150.7025  145.0604  157.4935 H   0  0  0  0  0  0  0  0  0  0  0  0
  151.5597  144.7577  161.0872 H   0  0  0  0  0  0  0  0  0  0  0  0
  152.7746  144.0095  163.0690 H   0  0  0  0  0  0  0  0  0  0  0  0
  155.0004  140.9440  162.9243 H   0  0  0  0  0  0  0  0  0  0  0  0
  155.6573  140.5413  164.7339 H   0  0  0  0  0  0  0  0  0  0  0  0
  154.7554  141.0318  167.2440 H   0  0  0  0  0  0  0  0  0  0  0  0
  156.2613  143.5068  166.1789 H   0  0  0  0  0  0  0  0  0  0  0  0
  154.5085  144.7666  167.1806 H   0  0  0  0  0  0  0  0  0  0  0  0
  154.2257  143.5280  168.4231 H   0  0  0  0  0  0  0  0  0  0  0  0
  156.4654  145.5398  168.3050 H   0  0  0  0  0  0  0  0  0  0  0  0
  155.9465  144.5534  169.6743 H   0  0  0  0  0  0  0  0  0  0  0  0
  156.1093  142.0073  168.9065 H   0  0  0  0  0  0  0  0  0  0  0  0
  158.2414  139.9309  168.1649 H   0  0  0  0  0  0  0  0  0  0  0  0
  157.3418  139.1502  166.8684 H   0  0  0  0  0  0  0  0  0  0  0  0
  156.5216  139.6276  168.3426 H   0  0  0  0  0  0  0  0  0  0  0  0
  159.0876  141.6118  166.5050 H   0  0  0  0  0  0  0  0  0  0  0  0
  158.0077  142.5234  165.4795 H   0  0  0  0  0  0  0  0  0  0  0  0
  158.1716  140.7998  165.2473 H   0  0  0  0  0  0  0  0  0  0  0  0
  154.3224  140.7200  160.7182 H   0  0  0  0  0  0  0  0  0  0  0  0
  1  2  1  0  0  0  0
  1 23  1  0  0  0  0
  1 24  1  0  0  0  0
  1 25  1  0  0  0  0
  2  3  1  0  0  0  0
  2  4  1  0  0  0  0
  3 26  1  0  0  0  0
  3 27  1  0  0  0  0
  3 28  1  0  0  0  0
  4 22  1  0  0  0  0
  4  5  2  0  0  0  0
  5  6  1  0  0  0  0
  5 29  1  0  0  0  0
  6  7  2  0  0  0  0
  6 30  1  0  0  0  0
  7  8  1  0  0  0  0
  7 21  1  0  0  0  0
  8  9  1  0  0  0  0
  8 31  1  0  0  0  0
  9 10  2  0  0  0  0
  9 11  1  0  0  0  0
 11 12  1  0  0  0  0
 11 32  1  0  0  0  0
 12 18  1  0  0  0  0
 12 13  1  0  0  0  0
 12 33  1  0  0  0  0
 13 17  1  0  0  0  0
 13 14  1  0  0  0  0
 13 34  1  0  0  0  0
 14 15  1  0  0  0  0
 14 35  1  0  0  0  0
 14 36  1  0  0  0  0
 15 16  1  0  0  0  0
 15 37  1  0  0  0  0
 15 38  1  0  0  0  0
 16 17  1  0  0  0  0
 17 18  1  0  0  0  0
 17 39  1  0  0  0  0
 18 19  1  0  0  0  0
 18 20  1  0  0  0  0
 19 40  1  0  0  0  0
 19 41  1  0  0  0  0
 19 42  1  0  0  0  0
 20 43  1  0  0  0  0
 20 44  1  0  0  0  0
 20 45  1  0  0  0  0
 21 22  2  0  0  0  0
 21 46  1  0  0  0  0
M  END
> <s_m_source_file>
AV-unprocessed.smi

> <i_m_source_file_index>
2923

> <i_lp_mmshare_version>
43012

> <i_f3d_flags>
0

> <s_epik_input>
W0NIM11OKFtDSDNdKWMxW2NIXVtjSF1jKFtjSF1uMSlbTkhdQyg9TylbTkhdW0NASF0yQyhbQ0gzXSkoW0NIM10pW0NAQEhdKFtDQEhdMjMpT1tDSDJdW0NIMl0z

> <s_epik_cmdline>
J2VwaWtfcHl0aG9uJywgJy1waCcsICc3LjAnLCAnLXRuJywgJzgnLCAnLW1hJywgJzIwMCcsICctbWV0YWxfYmluZGluZycsICctaW1hZScsICc8aW5maWxlLm1hZT4nLCAnLW9tYWUnLCAnPG91dGZpbGUubWFlPic=

> <r_lp_tautomer_probability>
1

> <r_epik_Ionization_Penalty>
0.628785

> <r_epik_Ionization_Penalty_Charging>
0

> <r_epik_Ionization_Penalty_Neutral>
0.628785

> <r_epik_State_Penalty>
0.644286

> <r_epik_Charging_Adjusted_Penalty>
0.644286

> <i_epik_Tot_Q>
0

> <i_epik_Tot_abs_Q>
0

> <r_epik_Metal_State_Penalty>
0.308404

> <b_epik_Metal_Only>
0

> <s_lp_Force_Field>
OPLS_2005

> <r_lp_Energy>
62.6556

> <b_lp_Chiralities_Consistent>
1

> <s_lp_Variant>
AV-unprocessed.smi:2923-15

> <Gold.Version>
5.8.1

> <Gold.Id.Protein>
6NUR|6NUR_protein|mol2

> <Gold.PLP.Fitness>
42.9483

> <Gold.PLP.PLP>
-43.7235

> <Gold.PLP.part.hbond>
-2.0000

> <Gold.PLP.part.metal>
0.0000

> <Gold.PLP.part.buried>
-6.7013

> <Gold.PLP.part.nonpolar>
-33.8549

> <Gold.PLP.part.repulsive>
0.1607

> <Gold.PLP.ligand.clash>
0.0000

> <Gold.PLP.ligand.torsion>
0.5217

> <Gold.PLP.Chemscore.Hbond>
0.0000

> <Gold.PLP.Chemscore.CHOScore>
0.0000

> <Gold.PLP.Chemscore.Metal>
0.0000

> <Gold.PLP.Chemscore.Internal.Correction>
0.2682

> <Gold.Rescore>
     Score         DG    S(hbond)    S(metal)    S(lipo)     H(rot)  DE(clash)    DE(int)     intcor
     10.19     -14.72       0.00        0.00     100.90       1.00       1.37       3.16       ----

> <Gold.Chemscore.Fitness>
10.1948

> <Gold.Chemscore.DG>
-14.7250

> <Gold.Chemscore.ZeroCoef>
-5.4800

> <Gold.Chemscore.Hbond>
0.0000

> <Gold.Chemscore.Metal>
0.0000

> <Gold.Chemscore.Lipo>
100.8974

> <Gold.Chemscore.Internal_Hbond>
0.0000

> <Gold.Chemscore.DEClash>
1.3742

> <Gold.Chemscore.DEInternal>
3.1560

> <Gold.Chemscore.Rot>
1.0000

> <Gold.Chemscore.Internal.Correction>
   9.000000E+99

> <Gold.Chemscore.Hbond.Weighted>
-0.0000

> <Gold.Chemscore.Metal.Weighted>
-0.0000

> <Gold.Chemscore.Lipo.Weighted>
-11.8050

> <Gold.Chemscore.Internal_Hbond.Weighted>
0.0000

> <Gold.Chemscore.DEClash.Weighted>
1.3742

> <Gold.Chemscore.DEInternal.Weighted>
3.1560

> <Gold.Chemscore.Rot.Weighted>
2.5600

> <Gold.Chemscore.Internal.Correction.Weighted>
   9.000000E+99

> <Gold.Protein.RotatedTorsions>
[ 6907 6896 6895 6894 ] final  127.14 input  -60.11 | X-H torsion
[ 7974 7965 7964 7962 ] final   97.26 input  175.53 | X-H torsion
[ 8008 7997 7996 7995 ] final   40.53 input   59.86 | X-H torsion
[ 10167 10162 10161 10158 ] final  149.91 input  -65.29 | X-H torsion
[ 10718 10713 10712 10709 ] final -134.16 input   66.30 | X-H torsion
[ 10763 10752 10751 10750 ] final  147.57 input  -60.55 | X-H torsion
[ 11005 11000 10999 10996 ] final   -0.84 input  -57.11 | X-H torsion

> <Gold.Protein.ActiveResidues>
 VAL166  LYS551  ARG553  GLY616  TRP617  ASP618  TYR619  PRO620  LYS621  CYS622 
 ASP623  PHE694  ASN695  SER759  ASP760  ASP761  ALA762  ILE779  LEU786  VAL792 
 PHE793  MET794  SER795  GLU796  ALA797  LYS798  CYS799  TRP800  GLU811  SER814 

> <Gold.Protein.RotatedAtoms>
  152.3840  133.6585  159.6183 H   0  0  0  0  0  0  0  0  0  0  0  0  # atno 6907 bound_to 6896
  150.7763  133.9067  159.3366 H   0  0  0  0  0  0  0  0  0  0  0  0  # atno 6908 bound_to 6896
  151.6867  135.0954  160.0277 H   0  0  0  0  0  0  0  0  0  0  0  0  # atno 6909 bound_to 6896
  145.4279  139.2314  143.3160 H   0  0  0  0  0  0  0  0  0  0  0  0  # atno 7974 bound_to 7965
  155.2547  140.3355  155.4279 H   0  0  0  0  0  0  0  0  0  0  0  0  # atno 8008 bound_to 7997
  156.2201  140.1805  156.7541 H   0  0  0  0  0  0  0  0  0  0  0  0  # atno 8009 bound_to 7997
  154.5812  140.0653  156.9091 H   0  0  0  0  0  0  0  0  0  0  0  0  # atno 8010 bound_to 7997
  139.4856  144.5565  151.7309 H   0  0  0  0  0  0  0  0  0  0  0  0  # atno 10167 bound_to 10162
  156.2525  130.7162  151.1066 H   0  0  0  0  0  0  0  0  0  0  0  0  # atno 10718 bound_to 10713
  154.0405  135.2890  155.3355 H   0  0  0  0  0  0  0  0  0  0  0  0  # atno 10763 bound_to 10752
  154.6932  135.5218  153.8424 H   0  0  0  0  0  0  0  0  0  0  0  0  # atno 10764 bound_to 10752
  153.0602  135.6610  154.0610 H   0  0  0  0  0  0  0  0  0  0  0  0  # atno 10765 bound_to 10752
  140.6407  133.9492  155.8325 H   0  0  0  0  0  0  0  0  0  0  0  0  # atno 11005 bound_to 11000
  146.2622  140.5012  142.8848 LP  0  0  0  0  0  0  0  0  0  0  0  0  # atno 17320 bound_to 7965
  144.8202  140.6537  143.6358 LP  0  0  0  0  0  0  0  0  0  0  0  0  # atno 17321 bound_to 7965
  140.5127  144.1000  150.5999 LP  0  0  0  0  0  0  0  0  0  0  0  0  # atno 17342 bound_to 10162
  140.3931  143.2742  152.0036 LP  0  0  0  0  0  0  0  0  0  0  0  0  # atno 17343 bound_to 10162
  157.7220  131.0675  150.6096 LP  0  0  0  0  0  0  0  0  0  0  0  0  # atno 17370 bound_to 10713
  156.6177  130.4397  149.5834 LP  0  0  0  0  0  0  0  0  0  0  0  0  # atno 17371 bound_to 10713
  141.0609  134.0348  157.3660 LP  0  0  0  0  0  0  0  0  0  0  0  0  # atno 17394 bound_to 11000
  139.9081  135.0184  156.7575 LP  0  0  0  0  0  0  0  0  0  0  0  0  # atno 17395 bound_to 11000

$$$$
