AV-unprocessed.smi:2310|AV-procd|sdf|9260|dock6
  -GOLD-   2272012483D 1   1.00000     0.00000
 Structure written by MMmdl.
 45 46  0  0  0  0  0  0  0  0  3 V2000
  155.3147  131.9823  161.9367 C   0  0  0  0  0  0  0  0  0  0  0  0
  155.6145  133.2272  161.0793 C   0  0  0  0  0  0  0  0  0  0  0  0
  155.2233  134.5743  161.7280 C   0  0  1  0  0  0  0  0  0  0  0  0
  155.9924  134.8301  163.0399 C   0  0  0  0  0  0  0  0  0  0  0  0
  155.7056  136.1211  163.6916 C   0  0  0  0  0  0  0  0  0  0  0  0
  155.4773  137.1369  164.2000 N   0  0  0  0  0  0  0  0  0  0  0  0
  155.4838  135.6694  160.7865 N   0  5  0  0  0  0  0  0  0  0  0  0
  154.5984  136.6509  160.4683 C   0  0  0  0  0  0  0  0  0  0  0  0
  153.4315  136.5194  160.0810 O   0  0  0  0  0  0  0  0  0  0  0  0
  155.1179  137.8777  160.6480 N   0  0  0  0  0  0  0  0  0  0  0  0
  154.5115  139.1413  160.4118 C   0  0  0  0  0  0  0  0  0  0  0  0
  153.3134  139.2874  159.6719 C   0  0  0  0  0  0  0  0  0  0  0  0
  152.7817  140.5736  159.4513 C   0  0  0  0  0  0  0  0  0  0  0  0
  153.4574  141.7076  159.9587 C   0  0  0  0  0  0  0  0  0  0  0  0
  152.9847  143.0219  159.7833 N   0  0  0  0  0  0  0  0  0  0  0  0
  152.0667  143.3694  158.7062 C   0  0  0  0  0  0  0  0  0  0  0  0
  151.2700  144.5748  159.2180 C   0  0  0  0  0  0  0  0  0  0  0  0
  152.1529  145.1655  160.3175 C   0  0  0  0  0  0  0  0  0  0  0  0
  152.8470  143.9370  160.9039 C   0  0  0  0  0  0  0  0  0  0  0  0
  154.6073  141.5198  160.6485 N   0  3  0  0  0  0  0  0  0  0  0  0
  155.1560  140.3074  160.8859 C   0  0  0  0  0  0  0  0  0  0  0  0
  156.4530  140.2665  161.6729 C   0  0  0  0  0  0  0  0  0  0  0  0
  155.6470  131.0813  161.4209 H   0  0  0  0  0  0  0  0  0  0  0  0
  154.2473  131.8634  162.1313 H   0  0  0  0  0  0  0  0  0  0  0  0
  155.8312  132.0110  162.8978 H   0  0  0  0  0  0  0  0  0  0  0  0
  156.6846  133.2409  160.8701 H   0  0  0  0  0  0  0  0  0  0  0  0
  155.1246  133.1215  160.1103 H   0  0  0  0  0  0  0  0  0  0  0  0
  154.1643  134.5167  161.9851 H   0  0  0  0  0  0  0  0  0  0  0  0
  155.7943  134.0379  163.7625 H   0  0  0  0  0  0  0  0  0  0  0  0
  157.0644  134.8083  162.8435 H   0  0  0  0  0  0  0  0  0  0  0  0
  156.0303  137.9023  161.0795 H   0  0  0  0  0  0  0  0  0  0  0  0
  152.8011  138.4318  159.2582 H   0  0  0  0  0  0  0  0  0  0  0  0
  151.8639  140.6705  158.8910 H   0  0  0  0  0  0  0  0  0  0  0  0
  152.6471  143.6365  157.8226 H   0  0  0  0  0  0  0  0  0  0  0  0
  151.4016  142.5460  158.4429 H   0  0  0  0  0  0  0  0  0  0  0  0
  151.0330  145.2914  158.4312 H   0  0  0  0  0  0  0  0  0  0  0  0
  150.3297  144.2331  159.6523 H   0  0  0  0  0  0  0  0  0  0  0  0
  152.8940  145.8332  159.8756 H   0  0  0  0  0  0  0  0  0  0  0  0
  151.5900  145.7300  161.0611 H   0  0  0  0  0  0  0  0  0  0  0  0
  152.2288  143.4769  161.6760 H   0  0  0  0  0  0  0  0  0  0  0  0
  153.8140  144.1923  161.3379 H   0  0  0  0  0  0  0  0  0  0  0  0
  157.2466  139.8210  161.0727 H   0  0  0  0  0  0  0  0  0  0  0  0
  156.3290  139.6688  162.5762 H   0  0  0  0  0  0  0  0  0  0  0  0
  156.7714  141.2662  161.9702 H   0  0  0  0  0  0  0  0  0  0  0  0
  155.0900  142.3415  161.0114 H   0  0  0  0  0  0  0  0  0  0  0  0
  1  2  1  0  0  0  0
  1 23  1  0  0  0  0
  1 24  1  0  0  0  0
  1 25  1  0  0  0  0
  2  3  1  0  0  0  0
  2 26  1  0  0  0  0
  2 27  1  0  0  0  0
  3  4  1  0  0  0  0
  3  7  1  0  0  0  0
  3 28  1  0  0  0  0
  4  5  1  0  0  0  0
  4 29  1  0  0  0  0
  4 30  1  0  0  0  0
  5  6  3  0  0  0  0
  7  8  1  0  0  0  0
  8  9  2  0  0  0  0
  8 10  1  0  0  0  0
 10 11  1  0  0  0  0
 10 31  1  0  0  0  0
 11 21  1  0  0  0  0
 11 12  2  0  0  0  0
 12 13  1  0  0  0  0
 12 32  1  0  0  0  0
 13 14  2  0  0  0  0
 13 33  1  0  0  0  0
 14 15  1  0  0  0  0
 14 20  1  0  0  0  0
 15 19  1  0  0  0  0
 15 16  1  0  0  0  0
 16 17  1  0  0  0  0
 16 34  1  0  0  0  0
 16 35  1  0  0  0  0
 17 18  1  0  0  0  0
 17 36  1  0  0  0  0
 17 37  1  0  0  0  0
 18 19  1  0  0  0  0
 18 38  1  0  0  0  0
 18 39  1  0  0  0  0
 19 40  1  0  0  0  0
 19 41  1  0  0  0  0
 20 21  2  0  0  0  0
 20 45  1  0  0  0  0
 21 22  1  0  0  0  0
 22 42  1  0  0  0  0
 22 43  1  0  0  0  0
 22 44  1  0  0  0  0
M  CHG  1   7  -1
M  CHG  1  20   1
M  END
> <s_m_source_file>
AV-unprocessed.smi

> <i_m_source_file_index>
2310

> <i_lp_mmshare_version>
43012

> <i_f3d_flags>
0

> <s_epik_input>
TiNDW0NIMl1bQ0BASF0oW0NIMl1bQ0gzXSlbTkhdQyg9TylbTkhdYzFbY0hdW2NIXWMobmMxW0NIM10pTjJbQ0gyXVtDSDJdW0NIMl1bQ0gyXTI=

> <s_epik_cmdline>
J2VwaWtfcHl0aG9uJywgJy1waCcsICc3LjAnLCAnLXRuJywgJzgnLCAnLW1hJywgJzIwMCcsICctbWV0YWxfYmluZGluZycsICctaW1hZScsICc8aW5maWxlLm1hZT4nLCAnLW9tYWUnLCAnPG91dGZpbGUubWFlPic=

> <r_lp_tautomer_probability>
0.999994

> <r_epik_Ionization_Penalty>
7.34515

> <r_epik_Ionization_Penalty_Charging>
7.34514

> <r_epik_Ionization_Penalty_Neutral>
2.56118e-06

> <r_epik_State_Penalty>
6.99243

> <r_epik_Charging_Adjusted_Penalty>
14.3376

> <i_epik_Tot_Q>
0

> <i_epik_Tot_abs_Q>
2

> <r_epik_Metal_State_Penalty>
3.10684

> <b_epik_Metal_Only>
1

> <s_lp_Force_Field>
OPLS_2005

> <r_lp_Energy>
34.805

> <b_lp_Chiralities_Consistent>
1

> <s_lp_Variant>
AV-unprocessed.smi:2310-6

> <Gold.Version>
5.8.1

> <Gold.Id.Protein>
6NUR|6NUR_protein|mol2

> <Gold.PLP.Fitness>
48.4615

> <Gold.PLP.PLP>
-47.5827

> <Gold.PLP.part.hbond>
-1.6070

> <Gold.PLP.part.metal>
0.0000

> <Gold.PLP.part.buried>
-5.4561

> <Gold.PLP.part.nonpolar>
-40.5996

> <Gold.PLP.part.repulsive>
0.0918

> <Gold.PLP.ligand.clash>
0.0000

> <Gold.PLP.ligand.torsion>
1.2133

> <Gold.PLP.Chemscore.Hbond>
1.0000

> <Gold.PLP.Chemscore.CHOScore>
0.0000

> <Gold.PLP.Chemscore.Metal>
0.0000

> <Gold.Chemscore.Hbonds>
donor molecule, donor type, donor heavy atom, donor atom, acceptor molecule, acceptor atom, score
      P1  H  6896  6909       L1     9  1.00

> <Gold.PLP.Chemscore.Internal.Correction>
0.3053

> <Gold.Rescore>
     Score         DG    S(hbond)    S(metal)    S(lipo)     H(rot)  DE(clash)    DE(int)     intcor
     15.15     -17.34       1.01        0.00     104.15       1.45       0.08       2.11       ----

> <Gold.Chemscore.Fitness>
15.1537

> <Gold.Chemscore.DG>
-17.3435

> <Gold.Chemscore.ZeroCoef>
-5.4800

> <Gold.Chemscore.Hbond>
1.0144

> <Gold.Chemscore.Metal>
0.0000

> <Gold.Chemscore.Lipo>
104.1472

> <Gold.Chemscore.Internal_Hbond>
0.0000

> <Gold.Chemscore.DEClash>
0.0765

> <Gold.Chemscore.DEInternal>
2.1133

> <Gold.Chemscore.Rot>
1.4492

> <Gold.Chemscore.Internal.Correction>
   9.000000E+99

> <Gold.Chemscore.Hbonds>
donor molecule, donor type, donor heavy atom, donor atom, acceptor molecule, acceptor atom, score
      P1  H  6896  6909       L1     9  0.97

> <Gold.Chemscore.Hbond.Weighted>
-3.3882

> <Gold.Chemscore.Metal.Weighted>
-0.0000

> <Gold.Chemscore.Lipo.Weighted>
-12.1852

> <Gold.Chemscore.Internal_Hbond.Weighted>
0.0000

> <Gold.Chemscore.DEClash.Weighted>
0.0765

> <Gold.Chemscore.DEInternal.Weighted>
2.1133

> <Gold.Chemscore.Rot.Weighted>
3.7100

> <Gold.Chemscore.Internal.Correction.Weighted>
   9.000000E+99

> <Gold.Protein.RotatedTorsions>
[ 6907 6896 6895 6894 ] final  157.43 input  -60.11 | X-H torsion
[ 7974 7965 7964 7962 ] final  -33.18 input  175.53 | X-H torsion
[ 8008 7997 7996 7995 ] final   25.55 input   59.86 | X-H torsion
[ 10167 10162 10161 10158 ] final  147.08 input  -65.29 | X-H torsion
[ 10718 10713 10712 10709 ] final  115.35 input   66.30 | X-H torsion
[ 10763 10752 10751 10750 ] final  -99.28 input  -60.55 | X-H torsion
[ 11005 11000 10999 10996 ] final   14.38 input  -57.11 | X-H torsion

> <Gold.Protein.ActiveResidues>
 VAL166  LYS551  ARG553  GLY616  TRP617  ASP618  TYR619  PRO620  LYS621  CYS622 
 ASP623  PHE694  ASN695  SER759  ASP760  ASP761  ALA762  ILE779  LEU786  VAL792 
 PHE793  MET794  SER795  GLU796  ALA797  LYS798  CYS799  TRP800  GLU811  SER814 

> <Gold.Protein.RotatedAtoms>
  152.0153  133.3877  159.4235 H   0  0  0  0  0  0  0  0  0  0  0  0  # atno 6907 bound_to 6896
  150.6895  134.3686  159.4991 H   0  0  0  0  0  0  0  0  0  0  0  0  # atno 6908 bound_to 6896
  152.1452  134.9031  160.0602 H   0  0  0  0  0  0  0  0  0  0  0  0  # atno 6909 bound_to 6896
  146.0931  140.5885  142.8855 H   0  0  0  0  0  0  0  0  0  0  0  0  # atno 7974 bound_to 7965
  155.0135  140.3139  155.4821 H   0  0  0  0  0  0  0  0  0  0  0  0  # atno 8008 bound_to 7997
  156.2905  140.2210  156.5191 H   0  0  0  0  0  0  0  0  0  0  0  0  # atno 8009 bound_to 7997
  154.7514  140.0466  157.0884 H   0  0  0  0  0  0  0  0  0  0  0  0  # atno 8010 bound_to 7997
  139.4896  144.5782  151.6924 H   0  0  0  0  0  0  0  0  0  0  0  0  # atno 10167 bound_to 10162
  157.6227  131.1011  150.7317 H   0  0  0  0  0  0  0  0  0  0  0  0  # atno 10718 bound_to 10713
  154.7485  135.4978  153.9246 H   0  0  0  0  0  0  0  0  0  0  0  0  # atno 10763 bound_to 10752
  153.1117  135.6711  153.9496 H   0  0  0  0  0  0  0  0  0  0  0  0  # atno 10764 bound_to 10752
  153.9253  135.3084  155.3426 H   0  0  0  0  0  0  0  0  0  0  0  0  # atno 10765 bound_to 10752
  140.4702  134.1039  155.7731 H   0  0  0  0  0  0  0  0  0  0  0  0  # atno 11005 bound_to 11000
  144.7375  140.4849  143.6893 LP  0  0  0  0  0  0  0  0  0  0  0  0  # atno 17320 bound_to 7965
  145.6001  139.1503  143.3134 LP  0  0  0  0  0  0  0  0  0  0  0  0  # atno 17321 bound_to 7965
  140.5382  144.0621  150.6078 LP  0  0  0  0  0  0  0  0  0  0  0  0  # atno 17342 bound_to 10162
  140.3634  143.2895  152.0358 LP  0  0  0  0  0  0  0  0  0  0  0  0  # atno 17343 bound_to 10162
  156.7671  130.4817  149.5425 LP  0  0  0  0  0  0  0  0  0  0  0  0  # atno 17370 bound_to 10713
  156.1382  130.6226  151.0430 LP  0  0  0  0  0  0  0  0  0  0  0  0  # atno 17371 bound_to 10713
  141.1580  133.8846  157.1924 LP  0  0  0  0  0  0  0  0  0  0  0  0  # atno 17394 bound_to 11000
  139.9890  135.0071  156.9930 LP  0  0  0  0  0  0  0  0  0  0  0  0  # atno 17395 bound_to 11000

$$$$
