AV-unprocessed.smi:2166|AV-procd|sdf|8815|dock9
  -GOLD-   2272012 03D 1   1.00000     0.00000
 Structure written by MMmdl.
 38 39  0  0  0  0  0  0  0  0  1 V2000
  152.5302  143.8768  161.8492 C   0  0  0  0  0  0  0  0  0  0  0  0
  153.3805  142.3932  162.4544 S   0  0  0  0  0  0  0  0  0  0  0  0
  153.9917  141.6803  160.8973 C   0  0  1  0  0  0  0  0  0  0  0  0
  154.2772  140.1804  161.0760 C   0  0  0  0  0  0  0  0  0  0  0  0
  153.0219  141.9312  159.7347 C   0  0  0  0  0  0  0  0  0  0  0  0
  153.0419  143.0108  159.1424 O   0  0  0  0  0  0  0  0  0  0  0  0
  152.1963  140.9109  159.4334 N   0  0  0  0  0  0  0  0  0  0  0  0
  151.2271  140.8373  158.3986 C   0  0  0  0  0  0  0  0  0  0  0  0
  151.0410  139.5535  157.8442 C   0  0  0  0  0  0  0  0  0  0  0  0
  150.1100  139.3767  156.8034 C   0  0  0  0  0  0  0  0  0  0  0  0
  149.3758  140.4853  156.3261 C   0  0  0  0  0  0  0  0  0  0  0  0
  148.4420  140.3298  155.2788 N   0  0  0  0  0  0  0  0  0  0  0  0
  148.3982  141.3519  154.2369 C   0  0  0  0  0  0  0  0  0  0  0  0
  147.1435  141.1745  153.3645 C   0  0  0  0  0  0  0  0  0  0  0  0
  147.1086  139.8521  152.8384 O   0  0  0  0  0  0  0  0  0  0  0  0
  147.0384  138.8742  153.8708 C   0  0  0  0  0  0  0  0  0  0  0  0
  148.2858  138.9703  154.7669 C   0  0  0  0  0  0  0  0  0  0  0  0
  149.6264  141.7299  156.9537 C   0  0  0  0  0  0  0  0  0  0  0  0
  150.5197  141.9016  157.9506 N   0  0  0  0  0  0  0  0  0  0  0  0
  152.1402  144.4517  162.6889 H   0  0  0  0  0  0  0  0  0  0  0  0
  151.6945  143.6087  161.2032 H   0  0  0  0  0  0  0  0  0  0  0  0
  153.2179  144.5090  161.2877 H   0  0  0  0  0  0  0  0  0  0  0  0
  154.9417  142.1669  160.6708 H   0  0  0  0  0  0  0  0  0  0  0  0
  154.6310  139.7293  160.1480 H   0  0  0  0  0  0  0  0  0  0  0  0
  153.3872  139.6362  161.3948 H   0  0  0  0  0  0  0  0  0  0  0  0
  155.0476  140.0201  161.8309 H   0  0  0  0  0  0  0  0  0  0  0  0
  152.2868  140.0826  160.0028 H   0  0  0  0  0  0  0  0  0  0  0  0
  151.6045  138.7072  158.2094 H   0  0  0  0  0  0  0  0  0  0  0  0
  149.9622  138.3897  156.3912 H   0  0  0  0  0  0  0  0  0  0  0  0
  148.3882  142.3466  154.6841 H   0  0  0  0  0  0  0  0  0  0  0  0
  149.2933  141.2770  153.6175 H   0  0  0  0  0  0  0  0  0  0  0  0
  146.2377  141.3731  153.9400 H   0  0  0  0  0  0  0  0  0  0  0  0
  147.1577  141.8853  152.5382 H   0  0  0  0  0  0  0  0  0  0  0  0
  146.1280  139.0125  154.4563 H   0  0  0  0  0  0  0  0  0  0  0  0
  146.9776  137.8844  153.4181 H   0  0  0  0  0  0  0  0  0  0  0  0
  149.1760  138.7063  154.1942 H   0  0  0  0  0  0  0  0  0  0  0  0
  148.2004  138.2422  155.5724 H   0  0  0  0  0  0  0  0  0  0  0  0
  149.1157  142.6318  156.6515 H   0  0  0  0  0  0  0  0  0  0  0  0
  1  2  1  0  0  0  0
  1 20  1  0  0  0  0
  1 21  1  0  0  0  0
  1 22  1  0  0  0  0
  2  3  1  0  0  0  0
  3  4  1  0  0  0  0
  3  5  1  0  0  0  0
  3 23  1  0  0  0  0
  4 24  1  0  0  0  0
  4 25  1  0  0  0  0
  4 26  1  0  0  0  0
  5  6  2  0  0  0  0
  5  7  1  0  0  0  0
  7  8  1  0  0  0  0
  7 27  1  0  0  0  0
  8 19  1  0  0  0  0
  8  9  2  0  0  0  0
  9 10  1  0  0  0  0
  9 28  1  0  0  0  0
 10 11  2  0  0  0  0
 10 29  1  0  0  0  0
 11 12  1  0  0  0  0
 11 18  1  0  0  0  0
 12 17  1  0  0  0  0
 12 13  1  0  0  0  0
 13 14  1  0  0  0  0
 13 30  1  0  0  0  0
 13 31  1  0  0  0  0
 14 15  1  0  0  0  0
 14 32  1  0  0  0  0
 14 33  1  0  0  0  0
 15 16  1  0  0  0  0
 16 17  1  0  0  0  0
 16 34  1  0  0  0  0
 16 35  1  0  0  0  0
 17 36  1  0  0  0  0
 17 37  1  0  0  0  0
 18 19  2  0  0  0  0
 18 38  1  0  0  0  0
M  END
> <s_m_source_file>
AV-unprocessed.smi

> <i_m_source_file_index>
2166

> <i_lp_mmshare_version>
43012

> <i_f3d_flags>
0

> <s_epik_input>
W0NIM11TW0NASF0oW0NIM10pQyg9TylbTkhdYzFbY0hdW2NIXWMoW2NIXW4xKU4yW0NIMl1bQ0gyXU9bQ0gyXVtDSDJdMg==

> <s_epik_cmdline>
J2VwaWtfcHl0aG9uJywgJy1waCcsICc3LjAnLCAnLXRuJywgJzgnLCAnLW1hJywgJzIwMCcsICctbWV0YWxfYmluZGluZycsICctaW1hZScsICc8aW5maWxlLm1hZT4nLCAnLW9tYWUnLCAnPG91dGZpbGUubWFlPic=

> <r_lp_tautomer_probability>
1

> <r_epik_Ionization_Penalty>
0.0038652

> <r_epik_Ionization_Penalty_Charging>
0

> <r_epik_Ionization_Penalty_Neutral>
0.0038652

> <r_epik_State_Penalty>
0.00681294

> <r_epik_Charging_Adjusted_Penalty>
0.00681294

> <i_epik_Tot_Q>
0

> <i_epik_Tot_abs_Q>
0

> <r_epik_Metal_State_Penalty>
-0

> <b_epik_Metal_Only>
0

> <s_lp_Force_Field>
OPLS_2005

> <r_lp_Energy>
24.7489

> <b_lp_Chiralities_Consistent>
1

> <s_lp_Variant>
AV-unprocessed.smi:2166-2

> <Gold.Version>
5.8.1

> <Gold.Id.Protein>
6NUR|6NUR_protein|mol2

> <Gold.PLP.Fitness>
33.9812

> <Gold.PLP.PLP>
-33.3937

> <Gold.PLP.part.hbond>
0.0000

> <Gold.PLP.part.metal>
0.0000

> <Gold.PLP.part.buried>
-7.3418

> <Gold.PLP.part.nonpolar>
-26.8230

> <Gold.PLP.part.repulsive>
1.3428

> <Gold.PLP.ligand.clash>
0.0036

> <Gold.PLP.ligand.torsion>
1.3918

> <Gold.PLP.Chemscore.Hbond>
0.0000

> <Gold.PLP.Chemscore.CHOScore>
1.0000

> <Gold.PLP.Chemscore.Metal>
0.0000

> <Gold.Chemscore.Hbonds>
donor molecule, donor type, donor heavy atom, donor atom, acceptor molecule, acceptor atom, score
      L1  C    18    38       P1  8028  1.00

> <Gold.PLP.Chemscore.Internal.Correction>
0.3746

> <Gold.Rescore>
     Score         DG    S(hbond)    S(metal)    S(lipo)     H(rot)  DE(clash)    DE(int)     intcor
      8.22     -12.08       0.00        0.00      85.08       1.31       0.22       3.63       ----

> <Gold.Chemscore.Fitness>
8.2239

> <Gold.Chemscore.DG>
-12.0789

> <Gold.Chemscore.ZeroCoef>
-5.4800

> <Gold.Chemscore.Hbond>
0.0000

> <Gold.Chemscore.Metal>
0.0000

> <Gold.Chemscore.Lipo>
85.0754

> <Gold.Chemscore.Internal_Hbond>
0.0000

> <Gold.Chemscore.DEClash>
0.2248

> <Gold.Chemscore.DEInternal>
3.6302

> <Gold.Chemscore.Rot>
1.3105

> <Gold.Chemscore.Internal.Correction>
   9.000000E+99

> <Gold.Chemscore.Hbond.Weighted>
-0.0000

> <Gold.Chemscore.Metal.Weighted>
-0.0000

> <Gold.Chemscore.Lipo.Weighted>
-9.9538

> <Gold.Chemscore.Internal_Hbond.Weighted>
0.0000

> <Gold.Chemscore.DEClash.Weighted>
0.2248

> <Gold.Chemscore.DEInternal.Weighted>
3.6302

> <Gold.Chemscore.Rot.Weighted>
3.3549

> <Gold.Chemscore.Internal.Correction.Weighted>
   9.000000E+99

> <Gold.Protein.RotatedTorsions>
[ 6907 6896 6895 6894 ] final -136.28 input  -60.11 | X-H torsion
[ 7974 7965 7964 7962 ] final -168.64 input  175.53 | X-H torsion
[ 8008 7997 7996 7995 ] final -102.83 input   59.86 | X-H torsion
[ 10167 10162 10161 10158 ] final -133.55 input  -65.29 | X-H torsion
[ 10718 10713 10712 10709 ] final   70.46 input   66.30 | X-H torsion
[ 10763 10752 10751 10750 ] final -154.84 input  -60.55 | X-H torsion
[ 11005 11000 10999 10996 ] final -174.07 input  -57.11 | X-H torsion

> <Gold.Protein.ActiveResidues>
 VAL166  LYS551  ARG553  GLY616  TRP617  ASP618  TYR619  PRO620  LYS621  CYS622 
 ASP623  PHE694  ASN695  SER759  ASP760  ASP761  ALA762  ILE779  LEU786  VAL792 
 PHE793  MET794  SER795  GLU796  ALA797  LYS798  CYS799  TRP800  GLU811  SER814 

> <Gold.Protein.RotatedAtoms>
  151.0081  133.5991  159.2685 H   0  0  0  0  0  0  0  0  0  0  0  0  # atno 6907 bound_to 6896
  151.3153  135.0804  159.9296 H   0  0  0  0  0  0  0  0  0  0  0  0  # atno 6908 bound_to 6896
  152.5292  133.9738  159.7829 H   0  0  0  0  0  0  0  0  0  0  0  0  # atno 6909 bound_to 6896
  144.7199  140.2339  143.6300 H   0  0  0  0  0  0  0  0  0  0  0  0  # atno 7974 bound_to 7965
  154.8623  140.0426  157.1673 H   0  0  0  0  0  0  0  0  0  0  0  0  # atno 8008 bound_to 7997
  154.8827  140.2975  155.5395 H   0  0  0  0  0  0  0  0  0  0  0  0  # atno 8009 bound_to 7997
  156.2998  140.2408  156.3832 H   0  0  0  0  0  0  0  0  0  0  0  0  # atno 8010 bound_to 7997
  139.8971  143.6652  152.2602 H   0  0  0  0  0  0  0  0  0  0  0  0  # atno 10167 bound_to 10162
  157.6401  130.9478  150.0654 H   0  0  0  0  0  0  0  0  0  0  0  0  # atno 10718 bound_to 10713
  154.7830  135.3181  154.7948 H   0  0  0  0  0  0  0  0  0  0  0  0  # atno 10763 bound_to 10752
  153.8655  135.6849  153.4783 H   0  0  0  0  0  0  0  0  0  0  0  0  # atno 10764 bound_to 10752
  153.1472  135.4714  154.9522 H   0  0  0  0  0  0  0  0  0  0  0  0  # atno 10765 bound_to 10752
  140.4786  134.6097  157.4910 H   0  0  0  0  0  0  0  0  0  0  0  0  # atno 11005 bound_to 11000
  145.8384  139.2118  143.1842 LP  0  0  0  0  0  0  0  0  0  0  0  0  # atno 17320 bound_to 7965
  146.0368  140.8204  142.9848 LP  0  0  0  0  0  0  0  0  0  0  0  0  # atno 17321 bound_to 7965
  139.7058  144.7628  151.1196 LP  0  0  0  0  0  0  0  0  0  0  0  0  # atno 17342 bound_to 10162
  140.7714  143.5397  150.9327 LP  0  0  0  0  0  0  0  0  0  0  0  0  # atno 17343 bound_to 10162
  156.1674  130.3645  149.9212 LP  0  0  0  0  0  0  0  0  0  0  0  0  # atno 17370 bound_to 10713
  156.7196  130.9002  151.3617 LP  0  0  0  0  0  0  0  0  0  0  0  0  # atno 17371 bound_to 10713
  139.9840  134.7091  155.9807 LP  0  0  0  0  0  0  0  0  0  0  0  0  # atno 17394 bound_to 11000
  141.1542  133.6544  156.4109 LP  0  0  0  0  0  0  0  0  0  0  0  0  # atno 17395 bound_to 11000

$$$$
