AV-unprocessed.smi:1099|AV-procd|sdf|4756|dock4
  -GOLD-   22720 3293D 1   1.00000     0.00000
 Structure written by MMmdl.
 41 43  0  0  0  0  0  0  0  0  1 V2000
  151.8636  144.8213  159.1054 C   0  0  0  0  0  0  0  0  0  0  0  0
  151.3504  144.2233  160.4193 C   0  0  0  0  0  0  0  0  0  0  0  0
  152.1919  143.0885  160.9000 C   0  0  0  0  0  0  0  0  0  0  0  0
  152.6821  142.1419  160.0952 N   0  0  0  0  0  0  0  0  0  0  0  0
  153.4642  141.2055  160.7789 C   0  0  0  0  0  0  0  0  0  0  0  0
  154.0808  140.0596  160.0363 C   0  0  0  0  0  0  0  0  0  0  0  0
  153.0980  138.8906  159.8558 C   0  0  0  0  0  0  0  0  0  0  0  0
  152.9249  138.5431  158.4503 N   0  0  0  0  0  0  0  0  0  0  0  0
  152.1756  137.5275  157.9946 C   0  0  0  0  0  0  0  0  0  0  0  0
  151.5592  136.7637  158.7388 O   0  0  0  0  0  0  0  0  0  0  0  0
  152.1451  137.3429  156.4671 C   0  0  1  0  0  0  0  0  0  0  0  0
  150.7372  137.0883  155.8734 C   0  0  0  0  0  0  0  0  0  0  0  0
  150.6261  138.1620  154.7746 C   0  0  1  0  0  0  0  0  0  0  0  0
  150.4349  139.5457  155.4235 C   0  0  0  0  0  0  0  0  0  0  0  0
  151.8376  139.8572  155.9770 C   0  0  0  0  0  0  0  0  0  0  0  0
  152.6263  138.5703  155.6481 C   0  0  2  0  0  0  0  0  0  0  0  0
  152.0620  138.2424  154.2688 C   0  0  0  0  0  0  0  0  0  0  0  0
  153.5714  141.4672  162.1221 C   0  0  0  0  0  0  0  0  0  0  0  0
  152.6949  142.9024  162.5765 S   0  0  0  0  0  0  0  0  0  0  0  0
  151.2324  145.6497  158.7830 H   0  0  0  0  0  0  0  0  0  0  0  0
  151.8688  144.0762  158.3095 H   0  0  0  0  0  0  0  0  0  0  0  0
  152.8798  145.2004  159.2167 H   0  0  0  0  0  0  0  0  0  0  0  0
  151.3261  144.9915  161.1928 H   0  0  0  0  0  0  0  0  0  0  0  0
  150.3248  143.8741  160.2938 H   0  0  0  0  0  0  0  0  0  0  0  0
  154.4298  140.3962  159.0592 H   0  0  0  0  0  0  0  0  0  0  0  0
  154.9694  139.7146  160.5663 H   0  0  0  0  0  0  0  0  0  0  0  0
  153.4356  138.0177  160.4172 H   0  0  0  0  0  0  0  0  0  0  0  0
  152.1213  139.1595  160.2594 H   0  0  0  0  0  0  0  0  0  0  0  0
  153.4049  139.1200  157.7746 H   0  0  0  0  0  0  0  0  0  0  0  0
  152.7781  136.4896  156.2158 H   0  0  0  0  0  0  0  0  0  0  0  0
  150.6899  136.0900  155.4361 H   0  0  0  0  0  0  0  0  0  0  0  0
  149.9223  137.1608  156.5952 H   0  0  0  0  0  0  0  0  0  0  0  0
  149.8804  137.9304  154.0134 H   0  0  0  0  0  0  0  0  0  0  0  0
  150.1410  140.2898  154.6823 H   0  0  0  0  0  0  0  0  0  0  0  0
  149.6743  139.5316  156.2050 H   0  0  0  0  0  0  0  0  0  0  0  0
  152.2686  140.7075  155.4464 H   0  0  0  0  0  0  0  0  0  0  0  0
  151.8306  140.1163  157.0350 H   0  0  0  0  0  0  0  0  0  0  0  0
  153.7082  138.7058  155.6667 H   0  0  0  0  0  0  0  0  0  0  0  0
  152.4316  137.3002  153.8600 H   0  0  0  0  0  0  0  0  0  0  0  0
  152.2189  139.0348  153.5346 H   0  0  0  0  0  0  0  0  0  0  0  0
  154.1125  140.9048  162.8688 H   0  0  0  0  0  0  0  0  0  0  0  0
  1  2  1  0  0  0  0
  1 20  1  0  0  0  0
  1 21  1  0  0  0  0
  1 22  1  0  0  0  0
  2  3  1  0  0  0  0
  2 23  1  0  0  0  0
  2 24  1  0  0  0  0
  3 19  1  0  0  0  0
  3  4  2  0  0  0  0
  4  5  1  0  0  0  0
  5  6  1  0  0  0  0
  5 18  2  0  0  0  0
  6  7  1  0  0  0  0
  6 25  1  0  0  0  0
  6 26  1  0  0  0  0
  7  8  1  0  0  0  0
  7 27  1  0  0  0  0
  7 28  1  0  0  0  0
  8  9  1  0  0  0  0
  8 29  1  0  0  0  0
  9 10  2  0  0  0  0
  9 11  1  0  0  0  0
 11 16  1  0  0  0  0
 11 12  1  0  0  0  0
 11 30  1  0  0  0  0
 12 13  1  0  0  0  0
 12 31  1  0  0  0  0
 12 32  1  0  0  0  0
 13 17  1  0  0  0  0
 13 14  1  0  0  0  0
 13 33  1  0  0  0  0
 14 15  1  0  0  0  0
 14 34  1  0  0  0  0
 14 35  1  0  0  0  0
 15 16  1  0  0  0  0
 15 36  1  0  0  0  0
 15 37  1  0  0  0  0
 16 17  1  0  0  0  0
 16 38  1  0  0  0  0
 17 39  1  0  0  0  0
 17 40  1  0  0  0  0
 18 19  1  0  0  0  0
 18 41  1  0  0  0  0
M  END
> <s_m_source_file>
AV-unprocessed.smi

> <i_m_source_file_index>
1099

> <i_lp_mmshare_version>
43012

> <i_f3d_flags>
0

> <s_epik_input>
W0NIM11bQ0gyXWMxbmMoW2NIXXMxKVtDSDJdW0NIMl1bTkhdQyg9TylbQ0BIXShbQ0gyXVtDQEBIXTIzKVtDQEBIXShbQ0gyXTMpW0NIMl1bQ0gyXTI=

> <s_epik_cmdline>
J2VwaWtfcHl0aG9uJywgJy1waCcsICc3LjAnLCAnLXRuJywgJzgnLCAnLW1hJywgJzIwMCcsICctbWV0YWxfYmluZGluZycsICctaW1hZScsICc8aW5maWxlLm1hZT4nLCAnLW9tYWUnLCAnPG91dGZpbGUubWFlPic=

> <r_epik_Ionization_Penalty>
0.00110131

> <r_epik_Ionization_Penalty_Charging>
0

> <r_epik_Ionization_Penalty_Neutral>
0.00110131

> <r_epik_State_Penalty>
0.00072257

> <r_epik_Charging_Adjusted_Penalty>
0.00072257

> <i_epik_Tot_Q>
0

> <i_epik_Tot_abs_Q>
0

> <r_epik_Metal_State_Penalty>
-0

> <b_epik_Metal_Only>
0

> <s_lp_Force_Field>
OPLS_2005

> <r_lp_Energy>
38.0082

> <b_lp_Chiralities_Consistent>
1

> <s_lp_Variant>
AV-unprocessed.smi:1099-2

> <Gold.Version>
5.8.1

> <Gold.Id.Protein>
6NUR|6NUR_protein|mol2

> <Gold.PLP.Fitness>
45.0118

> <Gold.PLP.PLP>
-45.7617

> <Gold.PLP.part.hbond>
-1.0000

> <Gold.PLP.part.metal>
0.0000

> <Gold.PLP.part.buried>
-6.6734

> <Gold.PLP.part.nonpolar>
-38.9292

> <Gold.PLP.part.repulsive>
0.0767

> <Gold.PLP.ligand.clash>
0.0000

> <Gold.PLP.ligand.torsion>
1.3335

> <Gold.PLP.Chemscore.Hbond>
0.6318

> <Gold.PLP.Chemscore.CHOScore>
0.0000

> <Gold.PLP.Chemscore.Metal>
0.0000

> <Gold.Chemscore.Hbonds>
donor molecule, donor type, donor heavy atom, donor atom, acceptor molecule, acceptor atom, score
      P1  H  6896  6909       L1    10  0.78

> <Gold.PLP.Chemscore.Internal.Correction>
0.0217

> <Gold.Rescore>
     Score         DG    S(hbond)    S(metal)    S(lipo)     H(rot)  DE(clash)    DE(int)     intcor
     17.76     -19.61       0.94        0.00     125.00       1.42       0.02       1.83       ----

> <Gold.Chemscore.Fitness>
17.7636

> <Gold.Chemscore.DG>
-19.6110

> <Gold.Chemscore.ZeroCoef>
-5.4800

> <Gold.Chemscore.Hbond>
0.9378

> <Gold.Chemscore.Metal>
0.0000

> <Gold.Chemscore.Lipo>
125.0003

> <Gold.Chemscore.Internal_Hbond>
0.0000

> <Gold.Chemscore.DEClash>
0.0189

> <Gold.Chemscore.DEInternal>
1.8285

> <Gold.Chemscore.Rot>
1.4165

> <Gold.Chemscore.Internal.Correction>
   9.000000E+99

> <Gold.Chemscore.Hbonds>
donor molecule, donor type, donor heavy atom, donor atom, acceptor molecule, acceptor atom, score
      P1  H  6896  6909       L1    10  0.73

> <Gold.Chemscore.Hbond.Weighted>
-3.1321

> <Gold.Chemscore.Metal.Weighted>
-0.0000

> <Gold.Chemscore.Lipo.Weighted>
-14.6250

> <Gold.Chemscore.Internal_Hbond.Weighted>
0.0000

> <Gold.Chemscore.DEClash.Weighted>
0.0189

> <Gold.Chemscore.DEInternal.Weighted>
1.8285

> <Gold.Chemscore.Rot.Weighted>
3.6262

> <Gold.Chemscore.Internal.Correction.Weighted>
   9.000000E+99

> <Gold.Protein.RotatedTorsions>
[ 6907 6896 6895 6894 ] final   97.78 input  -60.11 | X-H torsion
[ 7974 7965 7964 7962 ] final    8.59 input  175.53 | X-H torsion
[ 8008 7997 7996 7995 ] final -137.77 input   59.86 | X-H torsion
[ 10167 10162 10161 10158 ] final   76.58 input  -65.29 | X-H torsion
[ 10718 10713 10712 10709 ] final   90.52 input   66.30 | X-H torsion
[ 10763 10752 10751 10750 ] final -152.97 input  -60.55 | X-H torsion
[ 11005 11000 10999 10996 ] final  104.23 input  -57.11 | X-H torsion

> <Gold.Protein.ActiveResidues>
 VAL166  LYS551  ARG553  GLY616  TRP617  ASP618  TYR619  PRO620  LYS621  CYS622 
 ASP623  PHE694  ASN695  SER759  ASP760  ASP761  ALA762  ILE779  LEU786  VAL792 
 PHE793  MET794  SER795  GLU796  ALA797  LYS798  CYS799  TRP800  GLU811  SER814 

> <Gold.Protein.RotatedAtoms>
  152.5419  134.0681  159.8181 H   0  0  0  0  0  0  0  0  0  0  0  0  # atno 6907 bound_to 6896
  151.0799  133.5390  159.2628 H   0  0  0  0  0  0  0  0  0  0  0  0  # atno 6908 bound_to 6896
  151.2221  135.0531  159.9008 H   0  0  0  0  0  0  0  0  0  0  0  0  # atno 6909 bound_to 6896
  146.2414  139.9910  142.8426 H   0  0  0  0  0  0  0  0  0  0  0  0  # atno 7974 bound_to 7965
  155.4173  140.0516  157.3028 H   0  0  0  0  0  0  0  0  0  0  0  0  # atno 8008 bound_to 7997
  154.4918  140.2123  155.9490 H   0  0  0  0  0  0  0  0  0  0  0  0  # atno 8009 bound_to 7997
  156.1353  140.3164  155.8416 H   0  0  0  0  0  0  0  0  0  0  0  0  # atno 8010 bound_to 7997
  139.9907  144.5759  150.7820 H   0  0  0  0  0  0  0  0  0  0  0  0  # atno 10167 bound_to 10162
  157.6959  131.0374  150.3591 H   0  0  0  0  0  0  0  0  0  0  0  0  # atno 10718 bound_to 10713
  154.7959  135.3224  154.7668 H   0  0  0  0  0  0  0  0  0  0  0  0  # atno 10763 bound_to 10752
  153.8346  135.6876  153.4814 H   0  0  0  0  0  0  0  0  0  0  0  0  # atno 10764 bound_to 10752
  153.1650  135.4645  154.9767 H   0  0  0  0  0  0  0  0  0  0  0  0  # atno 10765 bound_to 10752
  139.8790  134.9293  156.5330 H   0  0  0  0  0  0  0  0  0  0  0  0  # atno 11005 bound_to 11000
  145.1503  140.9619  143.4437 LP  0  0  0  0  0  0  0  0  0  0  0  0  # atno 17320 bound_to 7965
  145.0211  139.3423  143.6072 LP  0  0  0  0  0  0  0  0  0  0  0  0  # atno 17321 bound_to 7965
  140.7456  143.2877  151.3416 LP  0  0  0  0  0  0  0  0  0  0  0  0  # atno 17342 bound_to 10162
  139.6342  144.0662  152.2502 LP  0  0  0  0  0  0  0  0  0  0  0  0  # atno 17343 bound_to 10162
  156.4029  130.3919  149.6946 LP  0  0  0  0  0  0  0  0  0  0  0  0  # atno 17370 bound_to 10713
  156.4257  130.7791  151.2809 LP  0  0  0  0  0  0  0  0  0  0  0  0  # atno 17371 bound_to 10713
  140.8366  133.8237  155.9035 LP  0  0  0  0  0  0  0  0  0  0  0  0  # atno 17394 bound_to 11000
  140.9277  134.2061  157.4884 LP  0  0  0  0  0  0  0  0  0  0  0  0  # atno 17395 bound_to 11000

$$$$
