AV-unprocessed.smi:2270|AV-procd|sdf|9158|dock9
  -GOLD-   2272012363D 1   1.00000     0.00000
 Structure written by MMmdl.
 52 53  0  0  0  0  0  0  0  0  1 V2000
  146.0161  131.7941  149.2384 C   0  0  0  0  0  0  0  0  0  0  0  0
  145.3967  132.7910  150.1951 C   0  0  0  0  0  0  0  0  0  0  0  0
  144.0777  132.6228  150.6599 C   0  0  0  0  0  0  0  0  0  0  0  0
  143.5583  133.5856  151.5433 C   0  0  0  0  0  0  0  0  0  0  0  0
  144.3733  134.6695  151.9224 C   0  0  0  0  0  0  0  0  0  0  0  0
  145.6869  134.7646  151.4100 C   0  0  0  0  0  0  0  0  0  0  0  0
  146.4268  135.8921  151.8549 N   0  0  0  0  0  0  0  0  0  0  0  0
  145.9607  137.0922  152.2428 C   0  0  0  0  0  0  0  0  0  0  0  0
  144.7736  137.4166  152.2871 O   0  0  0  0  0  0  0  0  0  0  0  0
  146.9638  137.9155  152.5789 N   0  0  0  0  0  0  0  0  0  0  0  0
  146.8012  139.2971  153.0211 C   0  0  0  0  0  0  0  0  0  0  0  0
  146.9328  139.4600  154.5625 C   0  0  2  0  0  0  0  0  0  0  0  0
  145.9343  140.4926  155.1763 C   0  0  0  0  0  0  0  0  0  0  0  0
  145.9880  141.9281  154.6164 C   0  0  0  0  0  0  0  0  0  0  0  0
  145.9682  140.4959  156.7141 C   0  0  0  0  0  0  0  0  0  0  0  0
  148.3200  139.5685  155.0549 N   0  0  0  0  0  0  0  0  0  0  0  0
  149.2203  138.5812  154.4506 C   0  0  0  0  0  0  0  0  0  0  0  0
  150.6158  138.6214  155.0995 C   0  0  0  0  0  0  0  0  0  0  0  0
  151.2222  139.9451  154.9747 N   0  0  0  0  0  0  0  0  0  0  0  0
  152.5462  139.9858  155.5757 C   0  0  0  0  0  0  0  0  0  0  0  0
  150.3291  140.9339  155.5745 C   0  0  0  0  0  0  0  0  0  0  0  0
  148.9306  140.8964  154.9303 C   0  0  0  0  0  0  0  0  0  0  0  0
  146.1780  133.8310  150.5576 N   0  0  0  0  0  0  0  0  0  0  0  0
  145.4856  130.8420  149.2680 H   0  0  0  0  0  0  0  0  0  0  0  0
  147.0595  131.6076  149.4956 H   0  0  0  0  0  0  0  0  0  0  0  0
  145.9762  132.1772  148.2187 H   0  0  0  0  0  0  0  0  0  0  0  0
  143.4779  131.7802  150.3485 H   0  0  0  0  0  0  0  0  0  0  0  0
  142.5517  133.4953  151.9242 H   0  0  0  0  0  0  0  0  0  0  0  0
  143.9897  135.4178  152.6007 H   0  0  0  0  0  0  0  0  0  0  0  0
  147.4287  135.7735  151.8719 H   0  0  0  0  0  0  0  0  0  0  0  0
  147.9092  137.5676  152.5146 H   0  0  0  0  0  0  0  0  0  0  0  0
  147.5303  139.9148  152.4965 H   0  0  0  0  0  0  0  0  0  0  0  0
  145.8241  139.6368  152.6790 H   0  0  0  0  0  0  0  0  0  0  0  0
  146.5686  138.5150  154.9684 H   0  0  0  0  0  0  0  0  0  0  0  0
  144.9399  140.1276  154.9169 H   0  0  0  0  0  0  0  0  0  0  0  0
  146.8536  142.4839  154.9688 H   0  0  0  0  0  0  0  0  0  0  0  0
  145.1117  142.4896  154.9411 H   0  0  0  0  0  0  0  0  0  0  0  0
  145.9871  141.9492  153.5278 H   0  0  0  0  0  0  0  0  0  0  0  0
  146.9068  140.9012  157.0929 H   0  0  0  0  0  0  0  0  0  0  0  0
  145.8557  139.4868  157.1118 H   0  0  0  0  0  0  0  0  0  0  0  0
  145.1598  141.1021  157.1233 H   0  0  0  0  0  0  0  0  0  0  0  0
  148.8046  137.5797  154.5654 H   0  0  0  0  0  0  0  0  0  0  0  0
  149.3204  138.7581  153.3796 H   0  0  0  0  0  0  0  0  0  0  0  0
  150.5390  138.3419  156.1515 H   0  0  0  0  0  0  0  0  0  0  0  0
  151.2556  137.8770  154.6245 H   0  0  0  0  0  0  0  0  0  0  0  0
  152.9947  140.9724  155.4548 H   0  0  0  0  0  0  0  0  0  0  0  0
  153.2076  139.2605  155.1012 H   0  0  0  0  0  0  0  0  0  0  0  0
  152.5026  139.7598  156.6419 H   0  0  0  0  0  0  0  0  0  0  0  0
  150.2415  140.7575  156.6479 H   0  0  0  0  0  0  0  0  0  0  0  0
  150.7527  141.9318  155.4564 H   0  0  0  0  0  0  0  0  0  0  0  0
  149.0127  141.1798  153.8806 H   0  0  0  0  0  0  0  0  0  0  0  0
  148.3165  141.6500  155.4117 H   0  0  0  0  0  0  0  0  0  0  0  0
  1  2  1  0  0  0  0
  1 24  1  0  0  0  0
  1 25  1  0  0  0  0
  1 26  1  0  0  0  0
  2 23  1  0  0  0  0
  2  3  2  0  0  0  0
  3  4  1  0  0  0  0
  3 27  1  0  0  0  0
  4  5  2  0  0  0  0
  4 28  1  0  0  0  0
  5  6  1  0  0  0  0
  5 29  1  0  0  0  0
  6  7  1  0  0  0  0
  6 23  2  0  0  0  0
  7  8  1  0  0  0  0
  7 30  1  0  0  0  0
  8  9  2  0  0  0  0
  8 10  1  0  0  0  0
 10 11  1  0  0  0  0
 10 31  1  0  0  0  0
 11 12  1  0  0  0  0
 11 32  1  0  0  0  0
 11 33  1  0  0  0  0
 12 13  1  0  0  0  0
 12 16  1  0  0  0  0
 12 34  1  0  0  0  0
 13 14  1  0  0  0  0
 13 15  1  0  0  0  0
 13 35  1  0  0  0  0
 14 36  1  0  0  0  0
 14 37  1  0  0  0  0
 14 38  1  0  0  0  0
 15 39  1  0  0  0  0
 15 40  1  0  0  0  0
 15 41  1  0  0  0  0
 16 22  1  0  0  0  0
 16 17  1  0  0  0  0
 17 18  1  0  0  0  0
 17 42  1  0  0  0  0
 17 43  1  0  0  0  0
 18 19  1  0  0  0  0
 18 44  1  0  0  0  0
 18 45  1  0  0  0  0
 19 20  1  0  0  0  0
 19 21  1  0  0  0  0
 20 46  1  0  0  0  0
 20 47  1  0  0  0  0
 20 48  1  0  0  0  0
 21 22  1  0  0  0  0
 21 49  1  0  0  0  0
 21 50  1  0  0  0  0
 22 51  1  0  0  0  0
 22 52  1  0  0  0  0
M  END
> <s_m_source_file>
AV-unprocessed.smi

> <i_m_source_file_index>
2270

> <i_lp_mmshare_version>
43012

> <i_f3d_flags>
0

> <s_epik_input>
W0NIM11jMVtjSF1bY0hdW2NIXWMobjEpW05IXUMoPU8pW05IXVtDSDJdW0NASF0oW0NIXShbQ0gzXSlbQ0gzXSlOMltDSDJdW0NIMl1OKFtDSDNdKVtDSDJdW0NIMl0y

> <s_epik_cmdline>
J2VwaWtfcHl0aG9uJywgJy1waCcsICc3LjAnLCAnLXRuJywgJzgnLCAnLW1hJywgJzIwMCcsICctbWV0YWxfYmluZGluZycsICctaW1hZScsICc8aW5maWxlLm1hZT4nLCAnLW9tYWUnLCAnPG91dGZpbGUubWFlPic=

> <r_epik_Ionization_Penalty>
2.57754

> <r_epik_Ionization_Penalty_Charging>
0

> <r_epik_Ionization_Penalty_Neutral>
2.57754

> <r_epik_State_Penalty>
2.00874

> <r_epik_Charging_Adjusted_Penalty>
2.00874

> <i_epik_Tot_Q>
0

> <i_epik_Tot_abs_Q>
0

> <r_epik_Metal_State_Penalty>
2.00874

> <b_epik_Metal_Only>
0

> <s_lp_Force_Field>
OPLS_2005

> <r_lp_Energy>
48.2009

> <b_lp_Chiralities_Consistent>
1

> <s_lp_Variant>
AV-unprocessed.smi:2270-5

> <Gold.Version>
5.8.1

> <Gold.Id.Protein>
6NUR|6NUR_protein|mol2

> <Gold.PLP.Fitness>
42.3189

> <Gold.PLP.PLP>
-35.9711

> <Gold.PLP.part.hbond>
-3.0000

> <Gold.PLP.part.metal>
0.0000

> <Gold.PLP.part.buried>
-4.5316

> <Gold.PLP.part.nonpolar>
-30.6181

> <Gold.PLP.part.repulsive>
2.6076

> <Gold.PLP.ligand.clash>
0.0000

> <Gold.PLP.ligand.torsion>
0.9499

> <Gold.PLP.Chemscore.Hbond>
2.6080

> <Gold.PLP.Chemscore.CHOScore>
0.0000

> <Gold.PLP.Chemscore.Metal>
0.0000

> <Gold.Chemscore.Hbonds>
donor molecule, donor type, donor heavy atom, donor atom, acceptor molecule, acceptor atom, score
      L1  H     7    30       P1  7948  1.00
      L1  H    10    31       P1  7948  0.90
      P1  H  7989  7998       L1    19  0.72

> <Gold.PLP.Chemscore.Internal.Correction>
0.4237

> <Gold.Rescore>
     Score         DG    S(hbond)    S(metal)    S(lipo)     H(rot)  DE(clash)    DE(int)     intcor
     14.64     -18.50       1.95        0.00      89.77       1.56       0.40       3.46       ----

> <Gold.Chemscore.Fitness>
14.6393

> <Gold.Chemscore.DG>
-18.5008

> <Gold.Chemscore.ZeroCoef>
-5.4800

> <Gold.Chemscore.Hbond>
1.9503

> <Gold.Chemscore.Metal>
0.0000

> <Gold.Chemscore.Lipo>
89.7730

> <Gold.Chemscore.Internal_Hbond>
0.0000

> <Gold.Chemscore.DEClash>
0.4021

> <Gold.Chemscore.DEInternal>
3.4594

> <Gold.Chemscore.Rot>
1.5612

> <Gold.Chemscore.Internal.Correction>
   9.000000E+99

> <Gold.Chemscore.Hbonds>
donor molecule, donor type, donor heavy atom, donor atom, acceptor molecule, acceptor atom, score
      L1  H     7    30       P1  7948  0.95
      L1  H    10    31       P1  7948  0.88
      P1  H  7989  7998       L1    19  0.02

> <Gold.Chemscore.Hbond.Weighted>
-6.5140

> <Gold.Chemscore.Metal.Weighted>
-0.0000

> <Gold.Chemscore.Lipo.Weighted>
-10.5034

> <Gold.Chemscore.Internal_Hbond.Weighted>
0.0000

> <Gold.Chemscore.DEClash.Weighted>
0.4021

> <Gold.Chemscore.DEInternal.Weighted>
3.4594

> <Gold.Chemscore.Rot.Weighted>
3.9966

> <Gold.Chemscore.Internal.Correction.Weighted>
   9.000000E+99

> <Gold.Protein.RotatedTorsions>
[ 6907 6896 6895 6894 ] final -129.42 input  -60.11 | X-H torsion
[ 7974 7965 7964 7962 ] final -175.28 input  175.53 | X-H torsion
[ 8008 7997 7996 7995 ] final  155.54 input   59.86 | X-H torsion
[ 10167 10162 10161 10158 ] final   51.88 input  -65.29 | X-H torsion
[ 10718 10713 10712 10709 ] final  168.27 input   66.30 | X-H torsion
[ 10763 10752 10751 10750 ] final  -85.06 input  -60.55 | X-H torsion
[ 11005 11000 10999 10996 ] final   59.50 input  -57.11 | X-H torsion

> <Gold.Protein.ActiveResidues>
 VAL166  LYS551  ARG553  GLY616  TRP617  ASP618  TYR619  PRO620  LYS621  CYS622 
 ASP623  PHE694  ASN695  SER759  ASP760  ASP761  ALA762  ILE779  LEU786  VAL792 
 PHE793  MET794  SER795  GLU796  ALA797  LYS798  CYS799  TRP800  GLU811  SER814 

> <Gold.Protein.RotatedAtoms>
  150.9285  133.6795  159.2815 H   0  0  0  0  0  0  0  0  0  0  0  0  # atno 6907 bound_to 6896
  151.4225  135.0998  159.9628 H   0  0  0  0  0  0  0  0  0  0  0  0  # atno 6908 bound_to 6896
  152.5014  133.8733  159.7364 H   0  0  0  0  0  0  0  0  0  0  0  0  # atno 6909 bound_to 6896
  144.7128  140.1344  143.6396 H   0  0  0  0  0  0  0  0  0  0  0  0  # atno 7974 bound_to 7965
  156.2472  140.1937  156.6817 H   0  0  0  0  0  0  0  0  0  0  0  0  # atno 8008 bound_to 7997
  154.6317  140.0595  156.9766 H   0  0  0  0  0  0  0  0  0  0  0  0  # atno 8009 bound_to 7997
  155.1700  140.3267  155.4397 H   0  0  0  0  0  0  0  0  0  0  0  0  # atno 8010 bound_to 7997
  140.2573  144.3412  150.6329 H   0  0  0  0  0  0  0  0  0  0  0  0  # atno 10167 bound_to 10162
  157.0395  131.0282  151.2718 H   0  0  0  0  0  0  0  0  0  0  0  0  # atno 10718 bound_to 10713
  154.6067  135.5498  153.7430 H   0  0  0  0  0  0  0  0  0  0  0  0  # atno 10763 bound_to 10752
  153.0177  135.6379  154.1637 H   0  0  0  0  0  0  0  0  0  0  0  0  # atno 10764 bound_to 10752
  154.1576  135.2899  155.3098 H   0  0  0  0  0  0  0  0  0  0  0  0  # atno 10765 bound_to 10752
  140.0299  134.6027  155.9521 H   0  0  0  0  0  0  0  0  0  0  0  0  # atno 11005 bound_to 11000
  145.9257  139.2574  143.1355 LP  0  0  0  0  0  0  0  0  0  0  0  0  # atno 17320 bound_to 7965
  145.9574  140.8862  143.0228 LP  0  0  0  0  0  0  0  0  0  0  0  0  # atno 17321 bound_to 7965
  140.5994  143.2167  151.7102 LP  0  0  0  0  0  0  0  0  0  0  0  0  # atno 17342 bound_to 10162
  139.5027  144.3817  152.0369 LP  0  0  0  0  0  0  0  0  0  0  0  0  # atno 17343 bound_to 10162
  157.5115  130.7942  149.7711 LP  0  0  0  0  0  0  0  0  0  0  0  0  # atno 17370 bound_to 10713
  156.0043  130.3864  150.2490 LP  0  0  0  0  0  0  0  0  0  0  0  0  # atno 17371 bound_to 10713
  141.1825  133.6549  156.5079 LP  0  0  0  0  0  0  0  0  0  0  0  0  # atno 17394 bound_to 11000
  140.4242  134.7159  157.4907 LP  0  0  0  0  0  0  0  0  0  0  0  0  # atno 17395 bound_to 11000

$$$$
