AV-unprocessed.smi:321|AV-procd|sdf|2334|dock7
  -GOLD-   2262022243D 1   1.00000     0.00000
 Structure written by MMmdl.
 49 50  0  0  0  0  0  0  0  0  1 V2000
  152.5835  142.8569  158.7169 C   0  0  0  0  0  0  0  0  0  0  0  0
  151.3971  142.1306  158.0724 C   0  0  0  0  0  0  0  0  0  0  0  0
  151.7484  140.3358  157.8022 S   0  0  0  0  0  0  0  0  0  0  0  0
  153.1822  140.0923  158.0256 O   0  0  0  0  0  0  0  0  0  0  0  0
  150.7495  139.5554  158.5484 O   0  0  0  0  0  0  0  0  0  0  0  0
  151.4348  140.0933  156.1064 N   0  0  0  0  0  0  0  0  0  0  0  0
  152.4004  139.3621  155.2590 C   0  0  0  0  0  0  0  0  0  0  0  0
  151.9232  137.9352  154.9350 C   0  0  0  0  0  0  0  0  0  0  0  0
  150.4995  137.9340  154.3517 C   0  0  0  0  0  0  0  0  0  0  0  0
  150.0253  136.5709  154.1341 N   0  0  0  0  0  0  0  0  0  0  0  0
  150.0126  135.5934  155.0585 C   0  0  0  0  0  0  0  0  0  0  0  0
  150.4067  135.7625  156.2135 O   0  0  0  0  0  0  0  0  0  0  0  0
  149.4851  134.2811  154.5915 C   0  0  0  0  0  0  0  0  0  0  0  0
  150.3016  133.1058  154.8435 C   0  0  0  0  0  0  0  0  0  0  0  0
  149.8419  131.9048  154.4296 C   0  0  0  0  0  0  0  0  0  0  0  0
  148.5573  131.7609  153.7430 C   0  0  0  0  0  0  0  0  0  0  0  0
  148.1179  130.6764  153.3623 O   0  0  0  0  0  0  0  0  0  0  0  0
  147.8889  132.9408  153.5650 N   0  0  0  0  0  0  0  0  0  0  0  0
  146.5785  132.9836  152.9054 C   0  0  0  0  0  0  0  0  0  0  0  0
  146.6587  132.5168  151.4427 C   0  0  0  0  0  0  0  0  0  0  0  0
  145.4314  132.7806  150.7831 O   0  0  0  0  0  0  0  0  0  0  0  0
  144.4044  131.8830  151.1649 C   0  0  0  0  0  0  0  0  0  0  0  0
  148.3468  134.1794  153.9847 N   0  0  0  0  0  0  0  0  0  0  0  0
  149.5544  138.6641  155.3163 C   0  0  0  0  0  0  0  0  0  0  0  0
  150.0464  140.0925  155.6067 C   0  0  0  0  0  0  0  0  0  0  0  0
  152.3671  143.9179  158.8401 H   0  0  0  0  0  0  0  0  0  0  0  0
  153.4825  142.7691  158.1077 H   0  0  0  0  0  0  0  0  0  0  0  0
  152.8069  142.4484  159.7026 H   0  0  0  0  0  0  0  0  0  0  0  0
  150.5345  142.1976  158.7354 H   0  0  0  0  0  0  0  0  0  0  0  0
  151.1104  142.5893  157.1297 H   0  0  0  0  0  0  0  0  0  0  0  0
  152.5269  139.9189  154.3298 H   0  0  0  0  0  0  0  0  0  0  0  0
  153.3811  139.3338  155.7326 H   0  0  0  0  0  0  0  0  0  0  0  0
  152.6166  137.4793  154.2276 H   0  0  0  0  0  0  0  0  0  0  0  0
  151.9621  137.3162  155.8304 H   0  0  0  0  0  0  0  0  0  0  0  0
  150.5002  138.4689  153.3998 H   0  0  0  0  0  0  0  0  0  0  0  0
  149.6841  136.3488  153.2097 H   0  0  0  0  0  0  0  0  0  0  0  0
  151.2535  133.1818  155.3485 H   0  0  0  0  0  0  0  0  0  0  0  0
  150.4388  131.0230  154.6106 H   0  0  0  0  0  0  0  0  0  0  0  0
  145.8899  132.3332  153.4476 H   0  0  0  0  0  0  0  0  0  0  0  0
  146.1320  133.9778  152.9595 H   0  0  0  0  0  0  0  0  0  0  0  0
  147.4836  133.0133  150.9287 H   0  0  0  0  0  0  0  0  0  0  0  0
  146.8594  131.4448  151.4157 H   0  0  0  0  0  0  0  0  0  0  0  0
  143.4882  132.1242  150.6260 H   0  0  0  0  0  0  0  0  0  0  0  0
  144.1956  131.9546  152.2331 H   0  0  0  0  0  0  0  0  0  0  0  0
  144.6727  130.8526  150.9283 H   0  0  0  0  0  0  0  0  0  0  0  0
  148.5500  138.7056  154.8933 H   0  0  0  0  0  0  0  0  0  0  0  0
  149.4710  138.1043  156.2477 H   0  0  0  0  0  0  0  0  0  0  0  0
  149.3862  140.5838  156.3211 H   0  0  0  0  0  0  0  0  0  0  0  0
  150.0081  140.6863  154.6928 H   0  0  0  0  0  0  0  0  0  0  0  0
  1  2  1  0  0  0  0
  1 26  1  0  0  0  0
  1 27  1  0  0  0  0
  1 28  1  0  0  0  0
  2  3  1  0  0  0  0
  2 29  1  0  0  0  0
  2 30  1  0  0  0  0
  3  4  2  0  0  0  0
  3  5  2  0  0  0  0
  3  6  1  0  0  0  0
  6 25  1  0  0  0  0
  6  7  1  0  0  0  0
  7  8  1  0  0  0  0
  7 31  1  0  0  0  0
  7 32  1  0  0  0  0
  8  9  1  0  0  0  0
  8 33  1  0  0  0  0
  8 34  1  0  0  0  0
  9 10  1  0  0  0  0
  9 24  1  0  0  0  0
  9 35  1  0  0  0  0
 10 11  1  0  0  0  0
 10 36  1  0  0  0  0
 11 12  2  0  0  0  0
 11 13  1  0  0  0  0
 13 23  2  0  0  0  0
 13 14  1  0  0  0  0
 14 15  2  0  0  0  0
 14 37  1  0  0  0  0
 15 16  1  0  0  0  0
 15 38  1  0  0  0  0
 16 17  2  0  0  0  0
 16 18  1  0  0  0  0
 18 19  1  0  0  0  0
 18 23  1  0  0  0  0
 19 20  1  0  0  0  0
 19 39  1  0  0  0  0
 19 40  1  0  0  0  0
 20 21  1  0  0  0  0
 20 41  1  0  0  0  0
 20 42  1  0  0  0  0
 21 22  1  0  0  0  0
 22 43  1  0  0  0  0
 22 44  1  0  0  0  0
 22 45  1  0  0  0  0
 24 25  1  0  0  0  0
 24 46  1  0  0  0  0
 24 47  1  0  0  0  0
 25 48  1  0  0  0  0
 25 49  1  0  0  0  0
M  END
> <s_m_source_file>
AV-unprocessed.smi

> <i_m_source_file_index>
321

> <i_lp_mmshare_version>
43012

> <i_f3d_flags>
0

> <s_epik_input>
W0NIM11bQ0gyXVMoPU8pKD1PKU4xW0NIMl1bQ0gyXVtDSF0oW0NIMl1bQ0gyXTEpW05IXUMoPU8pYzJbY0hdW2NIXWMoPU8pbihuMilbQ0gyXVtDSDJdT1tDSDNd

> <s_epik_cmdline>
J2VwaWtfcHl0aG9uJywgJy1waCcsICc3LjAnLCAnLXRuJywgJzgnLCAnLW1hJywgJzIwMCcsICctbWV0YWxfYmluZGluZycsICctaW1hZScsICc8aW5maWxlLm1hZT4nLCAnLW9tYWUnLCAnPG91dGZpbGUubWFlPic=

> <r_lp_tautomer_probability>
1

> <r_epik_Ionization_Penalty>
1.38514e-06

> <r_epik_Ionization_Penalty_Charging>
6.369e-09

> <r_epik_Ionization_Penalty_Neutral>
1.37877e-06

> <r_epik_State_Penalty>
-0

> <r_epik_Charging_Adjusted_Penalty>
6.369e-09

> <i_epik_Tot_Q>
0

> <i_epik_Tot_abs_Q>
0

> <r_epik_Metal_State_Penalty>
-0

> <b_epik_Metal_Only>
0

> <s_lp_Force_Field>
OPLS_2005

> <r_lp_Energy>
23.8323

> <b_lp_Chiralities_Consistent>
1

> <s_lp_Variant>
AV-unprocessed.smi:321-1

> <Gold.Version>
5.8.1

> <Gold.Id.Protein>
6NUR|6NUR_protein|mol2

> <Gold.PLP.Fitness>
45.4448

> <Gold.PLP.PLP>
-41.5954

> <Gold.PLP.part.hbond>
-3.0000

> <Gold.PLP.part.metal>
0.0000

> <Gold.PLP.part.buried>
-4.2823

> <Gold.PLP.part.nonpolar>
-35.9173

> <Gold.PLP.part.repulsive>
1.6084

> <Gold.PLP.ligand.clash>
0.0000

> <Gold.PLP.ligand.torsion>
2.1889

> <Gold.PLP.Chemscore.Hbond>
2.0000

> <Gold.PLP.Chemscore.CHOScore>
0.0000

> <Gold.PLP.Chemscore.Metal>
0.0000

> <Gold.Chemscore.Hbonds>
donor molecule, donor type, donor heavy atom, donor atom, acceptor molecule, acceptor atom, score
      L1  H    10    36       P1  7948  0.86
      P1  H  7997  8008       L1     4  1.00

> <Gold.PLP.Chemscore.Internal.Correction>
2.2272

> <Gold.Rescore>
     Score         DG    S(hbond)    S(metal)    S(lipo)     H(rot)  DE(clash)    DE(int)     intcor
     11.75     -16.48       1.87        0.00      81.13       1.86       0.04       4.69       ----

> <Gold.Chemscore.Fitness>
11.7455

> <Gold.Chemscore.DG>
-16.4759

> <Gold.Chemscore.ZeroCoef>
-5.4800

> <Gold.Chemscore.Hbond>
1.8732

> <Gold.Chemscore.Metal>
0.0000

> <Gold.Chemscore.Lipo>
81.1323

> <Gold.Chemscore.Internal_Hbond>
0.0000

> <Gold.Chemscore.DEClash>
0.0376

> <Gold.Chemscore.DEInternal>
4.6928

> <Gold.Chemscore.Rot>
1.8567

> <Gold.Chemscore.Internal.Correction>
   9.000000E+99

> <Gold.Chemscore.Hbonds>
donor molecule, donor type, donor heavy atom, donor atom, acceptor molecule, acceptor atom, score
      L1  H    10    36       P1  7948  0.19
      P1  H  7997  8008       L1     4  0.96

> <Gold.Chemscore.Hbond.Weighted>
-6.2565

> <Gold.Chemscore.Metal.Weighted>
-0.0000

> <Gold.Chemscore.Lipo.Weighted>
-9.4925

> <Gold.Chemscore.Internal_Hbond.Weighted>
0.0000

> <Gold.Chemscore.DEClash.Weighted>
0.0376

> <Gold.Chemscore.DEInternal.Weighted>
4.6928

> <Gold.Chemscore.Rot.Weighted>
4.7530

> <Gold.Chemscore.Internal.Correction.Weighted>
   9.000000E+99

> <Gold.Protein.RotatedTorsions>
[ 6907 6896 6895 6894 ] final  137.46 input  -60.11 | X-H torsion
[ 7974 7965 7964 7962 ] final  130.67 input  175.53 | X-H torsion
[ 8008 7997 7996 7995 ] final  -83.96 input   59.86 | X-H torsion
[ 10167 10162 10161 10158 ] final  161.61 input  -65.29 | X-H torsion
[ 10718 10713 10712 10709 ] final  150.05 input   66.30 | X-H torsion
[ 10763 10752 10751 10750 ] final   94.64 input  -60.55 | X-H torsion
[ 11005 11000 10999 10996 ] final -169.73 input  -57.11 | X-H torsion

> <Gold.Protein.ActiveResidues>
 VAL166  LYS551  ARG553  GLY616  TRP617  ASP618  TYR619  PRO620  LYS621  CYS622 
 ASP623  PHE694  ASN695  SER759  ASP760  ASP761  ALA762  ILE779  LEU786  VAL792 
 PHE793  MET794  SER795  GLU796  ALA797  LYS798  CYS799  TRP800  GLU811  SER814 

> <Gold.Protein.RotatedAtoms>
  152.2779  133.5442  159.5478 H   0  0  0  0  0  0  0  0  0  0  0  0  # atno 6907 bound_to 6896
  150.7184  134.0606  159.3839 H   0  0  0  0  0  0  0  0  0  0  0  0  # atno 6908 bound_to 6896
  151.8518  135.0555  160.0510 H   0  0  0  0  0  0  0  0  0  0  0  0  # atno 6909 bound_to 6896
  145.0154  139.4181  143.5224 H   0  0  0  0  0  0  0  0  0  0  0  0  # atno 7974 bound_to 7965
  154.6247  140.0611  156.9658 H   0  0  0  0  0  0  0  0  0  0  0  0  # atno 8008 bound_to 7997
  155.1761  140.3295  155.4365 H   0  0  0  0  0  0  0  0  0  0  0  0  # atno 8009 bound_to 7997
  156.2451  140.1905  156.6860 H   0  0  0  0  0  0  0  0  0  0  0  0  # atno 8010 bound_to 7997
  139.4851  144.4519  151.8818 H   0  0  0  0  0  0  0  0  0  0  0  0  # atno 10167 bound_to 10162
  157.2884  131.0848  151.1480 H   0  0  0  0  0  0  0  0  0  0  0  0  # atno 10718 bound_to 10713
  153.2439  135.4282  155.0727 H   0  0  0  0  0  0  0  0  0  0  0  0  # atno 10763 bound_to 10752
  154.8353  135.3409  154.6609 H   0  0  0  0  0  0  0  0  0  0  0  0  # atno 10764 bound_to 10752
  153.7032  135.7027  153.5114 H   0  0  0  0  0  0  0  0  0  0  0  0  # atno 10765 bound_to 10752
  140.5275  134.5649  157.5065 H   0  0  0  0  0  0  0  0  0  0  0  0  # atno 11005 bound_to 11000
  146.3477  139.9622  142.8716 LP  0  0  0  0  0  0  0  0  0  0  0  0  # atno 17320 bound_to 7965
  145.1966  140.9836  143.4180 LP  0  0  0  0  0  0  0  0  0  0  0  0  # atno 17321 bound_to 7965
  140.3976  144.2534  150.5895 LP  0  0  0  0  0  0  0  0  0  0  0  0  # atno 17342 bound_to 10162
  140.5087  143.2297  151.8568 LP  0  0  0  0  0  0  0  0  0  0  0  0  # atno 17343 bound_to 10162
  157.2887  130.6785  149.6103 LP  0  0  0  0  0  0  0  0  0  0  0  0  # atno 17370 bound_to 10713
  155.9666  130.4427  150.5393 LP  0  0  0  0  0  0  0  0  0  0  0  0  # atno 17371 bound_to 10713
  139.9572  134.7514  156.0315 LP  0  0  0  0  0  0  0  0  0  0  0  0  # atno 17394 bound_to 11000
  141.1300  133.6589  156.3439 LP  0  0  0  0  0  0  0  0  0  0  0  0  # atno 17395 bound_to 11000

$$$$
