AV-unprocessed.smi:3337|AV-procd|sdf|12867|dock9
  -GOLD-   2272019263D 1   1.00000     0.00000
 Structure written by MMmdl.
 46 47  0  0  0  0  0  0  0  0  2 V2000
  153.8328  141.6244  161.9452 C   0  0  0  0  0  0  0  0  0  0  0  0
  153.3671  142.3166  160.6563 C   0  0  2  0  0  0  0  0  0  0  0  0
  152.5778  143.5999  160.9626 C   0  0  0  0  0  0  0  0  0  0  0  0
  152.1058  144.2685  159.6609 C   0  0  2  0  0  0  0  0  0  0  0  0
  151.2948  145.5404  159.9470 C   0  0  0  0  0  0  0  0  0  0  0  0
  151.3016  143.2675  158.8093 C   0  0  0  0  0  0  0  0  0  0  0  0
  152.0861  142.0376  158.5251 N   0  3  2  0  0  0  0  0  0  0  0  0
  151.3720  141.1304  157.5909 C   0  0  0  0  0  0  0  0  0  0  0  0
  152.0588  139.7580  157.4480 C   0  0  0  0  0  0  0  0  0  0  0  0
  151.3011  138.8763  156.5680 N   0  0  0  0  0  0  0  0  0  0  0  0
  150.8445  139.2129  155.3504 C   0  0  0  0  0  0  0  0  0  0  0  0
  151.0260  140.3263  154.8562 O   0  0  0  0  0  0  0  0  0  0  0  0
  150.0536  138.1321  154.5923 C   0  0  1  0  0  0  0  0  0  0  0  0
  150.2916  136.7115  155.1436 C   0  0  0  0  0  0  0  0  0  0  0  0
  148.6348  138.4653  154.5493 N   0  0  0  0  0  0  0  0  0  0  0  0
  147.8263  138.6449  153.5025 C   0  0  0  0  0  0  0  0  0  0  0  0
  146.5859  138.9776  153.8309 N   0  0  0  0  0  0  0  0  0  0  0  0
  146.7061  138.9916  155.1917 C   0  0  0  0  0  0  0  0  0  0  0  0
  147.9146  138.7024  155.6740 N   0  0  0  0  0  0  0  0  0  0  0  0
  152.5261  141.3689  159.7788 C   0  0  0  0  0  0  0  0  0  0  0  0
  152.9855  141.3189  162.5600 H   0  0  0  0  0  0  0  0  0  0  0  0
  154.4557  142.2888  162.5448 H   0  0  0  0  0  0  0  0  0  0  0  0
  154.4215  140.7339  161.7234 H   0  0  0  0  0  0  0  0  0  0  0  0
  154.2597  142.5946  160.0936 H   0  0  0  0  0  0  0  0  0  0  0  0
  151.7175  143.3643  161.5913 H   0  0  0  0  0  0  0  0  0  0  0  0
  153.1989  144.2923  161.5323 H   0  0  0  0  0  0  0  0  0  0  0  0
  152.9888  144.5631  159.0916 H   0  0  0  0  0  0  0  0  0  0  0  0
  150.3939  145.3168  160.5194 H   0  0  0  0  0  0  0  0  0  0  0  0
  150.9882  146.0284  159.0216 H   0  0  0  0  0  0  0  0  0  0  0  0
  151.8814  146.2598  160.5189 H   0  0  0  0  0  0  0  0  0  0  0  0
  150.3739  142.9962  159.3164 H   0  0  0  0  0  0  0  0  0  0  0  0
  151.0208  143.7446  157.8693 H   0  0  0  0  0  0  0  0  0  0  0  0
  150.3351  141.0130  157.9100 H   0  0  0  0  0  0  0  0  0  0  0  0
  151.3383  141.5985  156.6062 H   0  0  0  0  0  0  0  0  0  0  0  0
  153.0780  139.8750  157.0752 H   0  0  0  0  0  0  0  0  0  0  0  0
  152.1361  139.2577  158.4125 H   0  0  0  0  0  0  0  0  0  0  0  0
  151.1164  137.9416  156.9030 H   0  0  0  0  0  0  0  0  0  0  0  0
  150.4155  138.1422  153.5630 H   0  0  0  0  0  0  0  0  0  0  0  0
  151.3490  136.4466  155.1102 H   0  0  0  0  0  0  0  0  0  0  0  0
  149.7526  135.9708  154.5524 H   0  0  0  0  0  0  0  0  0  0  0  0
  149.9583  136.6130  156.1775 H   0  0  0  0  0  0  0  0  0  0  0  0
  148.1524  138.5331  152.4788 H   0  0  0  0  0  0  0  0  0  0  0  0
  145.8795  139.2277  155.8458 H   0  0  0  0  0  0  0  0  0  0  0  0
  153.1239  140.4892  159.5446 H   0  0  0  0  0  0  0  0  0  0  0  0
  151.6519  141.0178  160.3298 H   0  0  0  0  0  0  0  0  0  0  0  0
  152.9205  142.3425  158.0444 H   0  0  0  0  0  0  0  0  0  0  0  0
  1  2  1  0  0  0  0
  1 21  1  0  0  0  0
  1 22  1  0  0  0  0
  1 23  1  0  0  0  0
  2 20  1  0  0  0  0
  2  3  1  0  0  0  0
  2 24  1  0  0  0  0
  3  4  1  0  0  0  0
  3 25  1  0  0  0  0
  3 26  1  0  0  0  0
  4  5  1  0  0  0  0
  4  6  1  0  0  0  0
  4 27  1  0  0  0  0
  5 28  1  0  0  0  0
  5 29  1  0  0  0  0
  5 30  1  0  0  0  0
  6  7  1  0  0  0  0
  6 31  1  0  0  0  0
  6 32  1  0  0  0  0
  7  8  1  0  0  0  0
  7 20  1  0  0  0  0
  7 46  1  0  0  0  0
  8  9  1  0  0  0  0
  8 33  1  0  0  0  0
  8 34  1  0  0  0  0
  9 10  1  0  0  0  0
  9 35  1  0  0  0  0
  9 36  1  0  0  0  0
 10 11  1  0  0  0  0
 10 37  1  0  0  0  0
 11 12  2  0  0  0  0
 11 13  1  0  0  0  0
 13 14  1  0  0  0  0
 13 15  1  0  0  0  0
 13 38  1  0  0  0  0
 14 39  1  0  0  0  0
 14 40  1  0  0  0  0
 14 41  1  0  0  0  0
 15 19  1  0  0  0  0
 15 16  1  0  0  0  0
 16 17  2  0  0  0  0
 16 42  1  0  0  0  0
 17 18  1  0  0  0  0
 18 19  2  0  0  0  0
 18 43  1  0  0  0  0
 20 44  1  0  0  0  0
 20 45  1  0  0  0  0
M  CHG  1   7   1
M  END
> <s_m_source_file>
AV-unprocessed.smi

> <i_m_source_file_index>
3337

> <i_lp_mmshare_version>
43012

> <i_f3d_flags>
0

> <s_epik_input>
W0NIM11bQ0BASF0xW0NIMl1bQ0BASF0oW0NIM10pW0NIMl1OKFtDSDJdMSlbQ0gyXVtDSDJdW05IXUMoPU8pW0NASF0oW0NIM10pbjJbY0hdbltjSF1uMg==

> <s_epik_cmdline>
J2VwaWtfcHl0aG9uJywgJy1waCcsICc3LjAnLCAnLXRuJywgJzgnLCAnLW1hJywgJzIwMCcsICctbWV0YWxfYmluZGluZycsICctaW1hZScsICc8aW5maWxlLm1hZT4nLCAnLW9tYWUnLCAnPG91dGZpbGUubWFlPic=

> <r_lp_tautomer_probability>
1

> <r_epik_Ionization_Penalty>
0.00175613

> <r_epik_Ionization_Penalty_Charging>
0.00174812

> <r_epik_Ionization_Penalty_Neutral>
8.01354e-06

> <r_epik_State_Penalty>
0.00118332

> <r_epik_Charging_Adjusted_Penalty>
0.00293143

> <i_epik_Tot_Q>
1

> <i_epik_Tot_abs_Q>
1

> <r_epik_Metal_State_Penalty>
-0

> <b_epik_Metal_Only>
0

> <s_lp_Force_Field>
OPLS_2005

> <r_lp_Energy>
22.1533

> <b_lp_Chiralities_Consistent>
1

> <s_lp_Variant>
AV-unprocessed.smi:3337-7

> <Gold.Version>
5.8.1

> <Gold.Id.Protein>
6NUR|6NUR_protein|mol2

> <Gold.PLP.Fitness>
43.6983

> <Gold.PLP.PLP>
-36.5647

> <Gold.PLP.part.hbond>
-1.0000

> <Gold.PLP.part.metal>
0.0000

> <Gold.PLP.part.buried>
-4.4459

> <Gold.PLP.part.nonpolar>
-32.0110

> <Gold.PLP.part.repulsive>
0.3694

> <Gold.PLP.ligand.clash>
0.0000

> <Gold.PLP.ligand.torsion>
0.6140

> <Gold.PLP.Chemscore.Hbond>
1.0000

> <Gold.PLP.Chemscore.CHOScore>
1.7371

> <Gold.PLP.Chemscore.Metal>
0.0000

> <Gold.Chemscore.Hbonds>
donor molecule, donor type, donor heavy atom, donor atom, acceptor molecule, acceptor atom, score
      P1  H  7989  7998       L1    12  1.00
      L1  C    16    42       P1  7948  0.72
      L1  C    16    42       P1  7957  0.99

> <Gold.PLP.Chemscore.Internal.Correction>
0.1504

> <Gold.Rescore>
     Score         DG    S(hbond)    S(metal)    S(lipo)     H(rot)  DE(clash)    DE(int)     intcor
     12.04     -14.02       1.00        0.00      99.59       2.51       0.02       1.97       ----

> <Gold.Chemscore.Fitness>
12.0384

> <Gold.Chemscore.DG>
-14.0243

> <Gold.Chemscore.ZeroCoef>
-5.4800

> <Gold.Chemscore.Hbond>
0.9957

> <Gold.Chemscore.Metal>
0.0000

> <Gold.Chemscore.Lipo>
99.5889

> <Gold.Chemscore.Internal_Hbond>
0.0000

> <Gold.Chemscore.DEClash>
0.0155

> <Gold.Chemscore.DEInternal>
1.9705

> <Gold.Chemscore.Rot>
2.5129

> <Gold.Chemscore.Internal.Correction>
   9.000000E+99

> <Gold.Chemscore.Hbonds>
donor molecule, donor type, donor heavy atom, donor atom, acceptor molecule, acceptor atom, score
      P1  H  7989  7998       L1    12  0.97

> <Gold.Chemscore.Hbond.Weighted>
-3.3255

> <Gold.Chemscore.Metal.Weighted>
-0.0000

> <Gold.Chemscore.Lipo.Weighted>
-11.6519

> <Gold.Chemscore.Internal_Hbond.Weighted>
0.0000

> <Gold.Chemscore.DEClash.Weighted>
0.0155

> <Gold.Chemscore.DEInternal.Weighted>
1.9705

> <Gold.Chemscore.Rot.Weighted>
6.4331

> <Gold.Chemscore.Internal.Correction.Weighted>
   9.000000E+99

> <Gold.Protein.RotatedTorsions>
[ 6907 6896 6895 6894 ] final  -38.42 input  -60.11 | X-H torsion
[ 7974 7965 7964 7962 ] final -109.70 input  175.53 | X-H torsion
[ 8008 7997 7996 7995 ] final  121.73 input   59.86 | X-H torsion
[ 10167 10162 10161 10158 ] final  -92.43 input  -65.29 | X-H torsion
[ 10718 10713 10712 10709 ] final  164.18 input   66.30 | X-H torsion
[ 10763 10752 10751 10750 ] final   87.18 input  -60.55 | X-H torsion
[ 11005 11000 10999 10996 ] final  -25.77 input  -57.11 | X-H torsion

> <Gold.Protein.ActiveResidues>
 VAL166  LYS551  ARG553  GLY616  TRP617  ASP618  TYR619  PRO620  LYS621  CYS622 
 ASP623  PHE694  ASN695  SER759  ASP760  ASP761  ALA762  ILE779  LEU786  VAL792 
 PHE793  MET794  SER795  GLU796  ALA797  LYS798  CYS799  TRP800  GLU811  SER814 

> <Gold.Protein.RotatedAtoms>
  151.0027  134.9335  159.7962 H   0  0  0  0  0  0  0  0  0  0  0  0  # atno 6907 bound_to 6896
  152.5282  134.3133  159.9131 H   0  0  0  0  0  0  0  0  0  0  0  0  # atno 6908 bound_to 6896
  151.3139  133.4027  159.2683 H   0  0  0  0  0  0  0  0  0  0  0  0  # atno 6909 bound_to 6896
  145.1773  140.8954  143.3500 H   0  0  0  0  0  0  0  0  0  0  0  0  # atno 7974 bound_to 7965
  156.2699  140.2802  156.1355 H   0  0  0  0  0  0  0  0  0  0  0  0  # atno 8008 bound_to 7997
  155.1009  140.0389  157.2714 H   0  0  0  0  0  0  0  0  0  0  0  0  # atno 8009 bound_to 7997
  154.6816  140.2610  155.6908 H   0  0  0  0  0  0  0  0  0  0  0  0  # atno 8010 bound_to 7997
  140.3349  143.2974  151.9900 H   0  0  0  0  0  0  0  0  0  0  0  0  # atno 10167 bound_to 10162
  157.0979  131.0435  151.2510 H   0  0  0  0  0  0  0  0  0  0  0  0  # atno 10718 bound_to 10713
  153.1643  135.4553  154.9815 H   0  0  0  0  0  0  0  0  0  0  0  0  # atno 10763 bound_to 10752
  154.7920  135.3224  154.7757 H   0  0  0  0  0  0  0  0  0  0  0  0  # atno 10764 bound_to 10752
  153.8242  135.6944  153.4877 H   0  0  0  0  0  0  0  0  0  0  0  0  # atno 10765 bound_to 10752
  140.8968  133.7551  156.0492 H   0  0  0  0  0  0  0  0  0  0  0  0  # atno 11005 bound_to 11000
  145.0172  139.3456  143.6090 LP  0  0  0  0  0  0  0  0  0  0  0  0  # atno 17320 bound_to 7965
  146.3459  139.9458  142.8735 LP  0  0  0  0  0  0  0  0  0  0  0  0  # atno 17321 bound_to 7965
  139.4850  144.6204  151.7265 LP  0  0  0  0  0  0  0  0  0  0  0  0  # atno 17342 bound_to 10162
  140.5363  144.0651  150.6071 LP  0  0  0  0  0  0  0  0  0  0  0  0  # atno 17343 bound_to 10162
  157.4665  130.7684  149.7284 LP  0  0  0  0  0  0  0  0  0  0  0  0  # atno 17370 bound_to 10713
  155.9881  130.3962  150.3134 LP  0  0  0  0  0  0  0  0  0  0  0  0  # atno 17371 bound_to 10713
  140.8279  134.3213  157.5359 LP  0  0  0  0  0  0  0  0  0  0  0  0  # atno 17394 bound_to 11000
  139.8736  134.9346  156.3613 LP  0  0  0  0  0  0  0  0  0  0  0  0  # atno 17395 bound_to 11000

$$$$
